
     RDKit          3D

103105  0  0  0  0  0  0  0  0999 V2000
    4.4176   -4.1002    1.1396 C   0  0  0  0  0  0  0  0  0  0  0  0
    4.5673   -2.7693    0.6897 O   0  0  0  0  0  0  0  0  0  0  0  0
    4.0159   -1.6717    1.3806 C   0  0  0  0  0  0  0  0  0  0  0  0
    3.3762   -1.9071    2.4293 O   0  0  0  0  0  0  0  0  0  0  0  0
    4.1576   -0.3368    0.9379 N   0  0  0  0  0  0  0  0  0  0  0  0
    3.6134    0.8234    1.6047 C   0  0  2  0  0  0  0  0  0  0  0  0
    2.6333    1.4926    0.6975 C   0  0  0  0  0  0  0  0  0  0  0  0
    2.0550    2.5688    1.0604 O   0  0  0  0  0  0  0  0  0  0  0  0
    2.3724    0.9003   -0.5592 N   0  0  0  0  0  0  0  0  0  0  0  0
    1.4476    1.4634   -1.5188 C   0  0  1  0  0  0  0  0  0  0  0  0
    2.0280    1.6056   -2.8827 C   0  0  0  0  0  0  0  0  0  0  0  0
    2.4600    0.3421   -3.4869 C   0  0  0  0  0  0  0  0  0  0  0  0
    3.7041   -0.1914   -3.2792 C   0  0  0  0  0  0  0  0  0  0  0  0
    4.0399   -1.3748   -3.8788 C   0  0  0  0  0  0  0  0  0  0  0  0
    3.1452   -2.0574   -4.7014 C   0  0  0  0  0  0  0  0  0  0  0  0
    1.8971   -1.5228   -4.9116 C   0  0  0  0  0  0  0  0  0  0  0  0
    1.5880   -0.3355   -4.2974 C   0  0  0  0  0  0  0  0  0  0  0  0
    0.1491    0.6467   -1.5427 C   0  0  1  0  0  0  0  0  0  0  0  0
    0.3783   -0.6672   -1.8554 O   0  0  0  0  0  0  0  0  0  0  0  0
   -0.6128    0.8007   -0.2695 C   0  0  0  0  0  0  0  0  0  0  0  0
   -1.8928    0.1738   -0.2625 N   0  0  0  0  0  0  0  0  0  0  0  0
   -2.6633    0.3945    0.9088 C   0  0  0  0  0  0  0  0  0  0  0  0
   -2.9892    1.8518    1.0802 C   0  0  0  0  0  0  0  0  0  0  0  0
   -2.1476    2.7037    1.7733 C   0  0  0  0  0  0  0  0  0  0  0  0
   -2.4452    4.0397    1.9196 C   0  0  0  0  0  0  0  0  0  0  0  0
   -3.5950    4.5869    1.3813 C   0  0  0  0  0  0  0  0  0  0  0  0
   -3.8715    6.0226    1.5523 C   0  0  0  0  0  0  0  0  0  0  0  0
   -4.9986    6.5889    1.0347 C   0  0  0  0  0  0  0  0  0  0  0  0
   -5.2004    7.9590    1.2293 C   0  0  0  0  0  0  0  0  0  0  0  0
   -4.2862    8.6875    1.9176 C   0  0  0  0  0  0  0  0  0  0  0  0
   -3.1527    8.0807    2.4290 C   0  0  0  0  0  0  0  0  0  0  0  0
   -2.9748    6.7604    2.2331 N   0  0  0  0  0  0  0  0  0  0  0  0
   -4.4299    3.7548    0.6971 C   0  0  0  0  0  0  0  0  0  0  0  0
   -4.1383    2.3977    0.5428 C   0  0  0  0  0  0  0  0  0  0  0  0
   -1.9451   -1.0738   -0.8283 N   0  0  0  0  0  0  0  0  0  0  0  0
   -1.7591   -2.2380   -0.0622 C   0  0  0  0  0  0  0  0  0  0  0  0
   -1.5496   -2.0600    1.1779 O   0  0  0  0  0  0  0  0  0  0  0  0
   -1.7873   -3.5967   -0.5809 C   0  0  1  0  0  0  0  0  0  0  0  0
   -1.5628   -4.6639    0.2979 N   0  0  0  0  0  0  0  0  0  0  0  0
   -2.4182   -5.0929    1.3096 C   0  0  0  0  0  0  0  0  0  0  0  0
   -3.4931   -4.5391    1.5223 O   0  0  0  0  0  0  0  0  0  0  0  0
   -2.1131   -6.1853    2.1501 O   0  0  0  0  0  0  0  0  0  0  0  0
   -3.0103   -6.5786    3.1409 C   0  0  0  0  0  0  0  0  0  0  0  0
   -2.8685   -3.9249   -1.5799 C   0  0  0  0  0  0  0  0  0  0  0  0
   -4.2684   -3.7003   -1.1503 C   0  0  0  0  0  0  0  0  0  0  0  0
   -2.5824   -3.3916   -2.9711 C   0  0  0  0  0  0  0  0  0  0  0  0
   -2.7454   -5.4761   -1.7442 C   0  0  0  0  0  0  0  0  0  0  0  0
    4.7342    1.7709    1.9741 C   0  0  0  0  0  0  0  0  0  0  0  0
    5.7251    1.0827    2.8769 C   0  0  0  0  0  0  0  0  0  0  0  0
    4.0867    2.8646    2.8208 C   0  0  0  0  0  0  0  0  0  0  0  0
    5.4312    2.3952    0.8218 C   0  0  0  0  0  0  0  0  0  0  0  0
    3.8530   -4.6483    0.3505 H   0  0  0  0  0  0  0  0  0  0  0  0
    3.7869   -4.1732    2.0504 H   0  0  0  0  0  0  0  0  0  0  0  0
    5.4068   -4.6029    1.3160 H   0  0  0  0  0  0  0  0  0  0  0  0
    4.7057   -0.1648    0.0460 H   0  0  0  0  0  0  0  0  0  0  0  0
    3.0708    0.4912    2.4984 H   0  0  0  0  0  0  0  0  0  0  0  0
    2.8663    0.0251   -0.8062 H   0  0  0  0  0  0  0  0  0  0  0  0
    1.1271    2.4527   -1.0983 H   0  0  0  0  0  0  0  0  0  0  0  0
    1.2931    2.0884   -3.5512 H   0  0  0  0  0  0  0  0  0  0  0  0
    2.8821    2.3191   -2.8280 H   0  0  0  0  0  0  0  0  0  0  0  0
    4.4345    0.2988   -2.6536 H   0  0  0  0  0  0  0  0  0  0  0  0
    5.0297   -1.8413   -3.7378 H   0  0  0  0  0  0  0  0  0  0  0  0
    3.4415   -3.0066   -5.1718 H   0  0  0  0  0  0  0  0  0  0  0  0
    1.1813   -2.0476   -5.5567 H   0  0  0  0  0  0  0  0  0  0  0  0
    0.5743    0.0456   -4.5043 H   0  0  0  0  0  0  0  0  0  0  0  0
   -0.4679    1.1331   -2.3506 H   0  0  0  0  0  0  0  0  0  0  0  0
    0.7316   -1.1576   -1.0686 H   0  0  0  0  0  0  0  0  0  0  0  0
   -0.0182    0.3534    0.5553 H   0  0  0  0  0  0  0  0  0  0  0  0
   -0.7819    1.9073   -0.1235 H   0  0  0  0  0  0  0  0  0  0  0  0
   -3.6062   -0.1442    0.9641 H   0  0  0  0  0  0  0  0  0  0  0  0
   -2.0575    0.1127    1.7926 H   0  0  0  0  0  0  0  0  0  0  0  0
   -1.2345    2.2823    2.2039 H   0  0  0  0  0  0  0  0  0  0  0  0
   -1.7598    4.6562    2.4650 H   0  0  0  0  0  0  0  0  0  0  0  0
   -5.7421    6.0495    0.4833 H   0  0  0  0  0  0  0  0  0  0  0  0
   -6.0747    8.4720    0.8444 H   0  0  0  0  0  0  0  0  0  0  0  0
   -4.4006    9.7624    2.0960 H   0  0  0  0  0  0  0  0  0  0  0  0
   -2.4123    8.6454    2.9813 H   0  0  0  0  0  0  0  0  0  0  0  0
   -5.3426    4.1027    0.2496 H   0  0  0  0  0  0  0  0  0  0  0  0
   -4.8138    1.7475   -0.0062 H   0  0  0  0  0  0  0  0  0  0  0  0
   -2.1262   -1.1144   -1.8544 H   0  0  0  0  0  0  0  0  0  0  0  0
   -0.8359   -3.6559   -1.3074 H   0  0  0  0  0  0  0  0  0  0  0  0
   -0.6488   -5.2217    0.2052 H   0  0  0  0  0  0  0  0  0  0  0  0
   -3.1163   -7.6978    3.0317 H   0  0  0  0  0  0  0  0  0  0  0  0
   -2.7423   -6.3243    4.1624 H   0  0  0  0  0  0  0  0  0  0  0  0
   -4.0290   -6.2045    2.8309 H   0  0  0  0  0  0  0  0  0  0  0  0
   -4.4269   -2.9215   -0.3786 H   0  0  0  0  0  0  0  0  0  0  0  0
   -4.8302   -3.3774   -2.0903 H   0  0  0  0  0  0  0  0  0  0  0  0
   -4.7668   -4.6192   -0.8464 H   0  0  0  0  0  0  0  0  0  0  0  0
   -3.2707   -2.5722   -3.2682 H   0  0  0  0  0  0  0  0  0  0  0  0
   -2.6787   -4.2273   -3.7317 H   0  0  0  0  0  0  0  0  0  0  0  0
   -1.5329   -3.0539   -3.0709 H   0  0  0  0  0  0  0  0  0  0  0  0
   -3.3084   -5.9792   -0.9395 H   0  0  0  0  0  0  0  0  0  0  0  0
   -3.1105   -5.7592   -2.7418 H   0  0  0  0  0  0  0  0  0  0  0  0
   -1.6944   -5.7736   -1.6593 H   0  0  0  0  0  0  0  0  0  0  0  0
    6.5464    0.7168    2.1965 H   0  0  0  0  0  0  0  0  0  0  0  0
    5.2884    0.2543    3.4691 H   0  0  0  0  0  0  0  0  0  0  0  0
    6.2234    1.8468    3.5239 H   0  0  0  0  0  0  0  0  0  0  0  0
    4.8366    3.2159    3.5586 H   0  0  0  0  0  0  0  0  0  0  0  0
    3.8441    3.7176    2.1442 H   0  0  0  0  0  0  0  0  0  0  0  0
    3.1629    2.4674    3.3212 H   0  0  0  0  0  0  0  0  0  0  0  0
    5.0829    3.4612    0.6496 H   0  0  0  0  0  0  0  0  0  0  0  0
    5.4213    1.8271   -0.1159 H   0  0  0  0  0  0  0  0  0  0  0  0
    6.5176    2.5326    1.1034 H   0  0  0  0  0  0  0  0  0  0  0  0
  1  2  1  0
  2  3  1  0
  3  4  2  0
  3  5  1  0
  5  6  1  0
  6  7  1  0
  7  8  2  0
  7  9  1  0
  9 10  1  0
 10 11  1  0
 11 12  1  0
 12 13  2  0
 13 14  1  0
 14 15  2  0
 15 16  1  0
 16 17  2  0
 10 18  1  0
 18 19  1  0
 18 20  1  0
 20 21  1  0
 21 22  1  0
 22 23  1  0
 23 24  2  0
 24 25  1  0
 25 26  2  0
 26 27  1  0
 27 28  2  0
 28 29  1  0
 29 30  2  0
 30 31  1  0
 31 32  2  0
 26 33  1  0
 33 34  2  0
 21 35  1  0
 35 36  1  0
 36 37  2  0
 36 38  1  0
 38 39  1  0
 39 40  1  0
 40 41  2  0
 40 42  1  0
 42 43  1  0
 38 44  1  0
 44 45  1  0
 44 46  1  0
 44 47  1  0
  6 48  1  0
 48 49  1  0
 48 50  1  0
 48 51  1  0
 17 12  1  0
 34 23  1  0
 32 27  1  0
  1 52  1  0
  1 53  1  0
  1 54  1  0
  5 55  1  0
  6 56  1  1
  9 57  1  0
 10 58  1  1
 11 59  1  0
 11 60  1  0
 13 61  1  0
 14 62  1  0
 15 63  1  0
 16 64  1  0
 17 65  1  0
 18 66  1  6
 19 67  1  0
 20 68  1  0
 20 69  1  0
 22 70  1  0
 22 71  1  0
 24 72  1  0
 25 73  1  0
 28 74  1  0
 29 75  1  0
 30 76  1  0
 31 77  1  0
 33 78  1  0
 34 79  1  0
 35 80  1  0
 38 81  1  6
 39 82  1  0
 43 83  1  0
 43 84  1  0
 43 85  1  0
 45 86  1  0
 45 87  1  0
 45 88  1  0
 46 89  1  0
 46 90  1  0
 46 91  1  0
 47 92  1  0
 47 93  1  0
 47 94  1  0
 49 95  1  0
 49 96  1  0
 49 97  1  0
 50 98  1  0
 50 99  1  0
 50100  1  0
 51101  1  0
 51102  1  0
 51103  1  0
M  END
$$$$
