
     RDKit          3D

 42 45  0  0  0  0  0  0  0  0999 V2000
   -2.8227    3.6848   -2.0322 O   0  0  0  0  0  0  0  0  0  0  0  0
   -2.8287    2.3375   -1.6909 C   0  0  0  0  0  0  0  0  0  0  0  0
   -2.5492    1.5291   -2.6082 O   0  0  0  0  0  0  0  0  0  0  0  0
   -3.1652    2.0151   -0.2809 C   0  0  0  0  0  0  0  0  0  0  0  0
   -3.1549    0.6162    0.0075 N   0  0  0  0  0  0  0  0  0  0  0  0
   -2.1487   -0.1630    0.4326 C   0  0  0  0  0  0  0  0  0  0  0  0
   -2.6044   -1.4686    0.5788 C   0  0  0  0  0  0  0  0  0  0  0  0
   -3.9484   -1.4701    0.2238 C   0  0  0  0  0  0  0  0  0  0  0  0
   -4.8729   -2.4986    0.1895 C   0  0  0  0  0  0  0  0  0  0  0  0
   -6.1727   -2.2090   -0.2133 C   0  0  0  0  0  0  0  0  0  0  0  0
   -6.5060   -0.9200   -0.5647 C   0  0  0  0  0  0  0  0  0  0  0  0
   -5.5474    0.0746   -0.5144 C   0  0  0  0  0  0  0  0  0  0  0  0
   -4.2517   -0.1778   -0.1203 C   0  0  0  0  0  0  0  0  0  0  0  0
   -0.7831    0.2744    0.7043 C   0  0  0  0  0  0  0  0  0  0  0  0
   -0.4778    1.4869    0.5377 O   0  0  0  0  0  0  0  0  0  0  0  0
    0.2021   -0.6308    1.1494 N   0  0  0  0  0  0  0  0  0  0  0  0
    1.5647   -0.3626    1.4548 C   0  0  0  0  0  0  0  0  0  0  0  0
    2.5842   -0.3607    0.8601 N   0  0  0  0  0  0  0  0  0  0  0  0
    3.7809   -0.0817    1.3082 C   0  0  0  0  0  0  0  0  0  0  0  0
    3.8201    0.2694    2.7392 C   0  0  0  0  0  0  0  0  0  0  0  0
    2.0793    0.1361    3.2160 S   0  0  0  0  0  0  0  0  0  0  0  0
    4.9955   -0.1018    0.5067 C   0  0  0  0  0  0  0  0  0  0  0  0
    6.2461    0.1946    0.9954 C   0  0  0  0  0  0  0  0  0  0  0  0
    7.3841    0.1689    0.2165 C   0  0  0  0  0  0  0  0  0  0  0  0
    7.3169   -0.1634   -1.1205 C   0  0  0  0  0  0  0  0  0  0  0  0
    6.0883   -0.4681   -1.6568 C   0  0  0  0  0  0  0  0  0  0  0  0
    4.9867   -0.4257   -0.8297 C   0  0  0  0  0  0  0  0  0  0  0  0
    3.4235   -0.8217   -1.5463 Cl  0  0  0  0  0  0  0  0  0  0  0  0
   -2.7681    4.0434   -2.9730 H   0  0  0  0  0  0  0  0  0  0  0  0
   -4.1980    2.4332   -0.1143 H   0  0  0  0  0  0  0  0  0  0  0  0
   -2.5175    2.6184    0.3863 H   0  0  0  0  0  0  0  0  0  0  0  0
   -1.9984   -2.3085    0.9105 H   0  0  0  0  0  0  0  0  0  0  0  0
   -4.5595   -3.4975    0.4763 H   0  0  0  0  0  0  0  0  0  0  0  0
   -6.9102   -2.9814   -0.2505 H   0  0  0  0  0  0  0  0  0  0  0  0
   -7.5305   -0.7259   -0.8751 H   0  0  0  0  0  0  0  0  0  0  0  0
   -5.8322    1.0790   -0.7948 H   0  0  0  0  0  0  0  0  0  0  0  0
   -0.0965   -1.6369    1.2757 H   0  0  0  0  0  0  0  0  0  0  0  0
    4.8373    0.5461    3.2838 H   0  0  0  0  0  0  0  0  0  0  0  0
    6.3916    0.4645    2.0277 H   0  0  0  0  0  0  0  0  0  0  0  0
    8.3478    0.4096    0.6439 H   0  0  0  0  0  0  0  0  0  0  0  0
    8.2168   -0.1746   -1.6989 H   0  0  0  0  0  0  0  0  0  0  0  0
    5.9788   -0.7336   -2.6919 H   0  0  0  0  0  0  0  0  0  0  0  0
  1  2  1  0
  2  3  2  0
  2  4  1  0
  4  5  1  0
  5  6  1  0
  6  7  2  0
  7  8  1  0
  8  9  2  0
  9 10  1  0
 10 11  2  0
 11 12  1  0
 12 13  2  0
  6 14  1  0
 14 15  2  0
 14 16  1  0
 16 17  1  0
 17 18  2  0
 18 19  1  0
 19 20  2  0
 20 21  1  0
 19 22  1  0
 22 23  2  0
 23 24  1  0
 24 25  2  0
 25 26  1  0
 26 27  2  0
 27 28  1  0
 13  5  1  0
 21 17  1  0
 27 22  1  0
 13  8  1  0
  1 29  1  0
  4 30  1  0
  4 31  1  0
  7 32  1  0
  9 33  1  0
 10 34  1  0
 11 35  1  0
 12 36  1  0
 16 37  1  0
 20 38  1  0
 23 39  1  0
 24 40  1  0
 25 41  1  0
 26 42  1  0
M  END
$$$$
