
     RDKit          3D

 48 50  0  0  0  0  0  0  0  0999 V2000
    5.3181    0.3629    0.1145 C   0  0  0  0  0  0  0  0  0  0  0  0
    4.4937   -0.9100    0.1824 C   0  0  0  0  0  0  0  0  0  0  0  0
    4.7982   -1.8143   -1.0033 C   0  0  0  0  0  0  0  0  0  0  0  0
    3.1453   -0.6690    0.2032 O   0  0  0  0  0  0  0  0  0  0  0  0
    2.7307    0.0141   -0.9353 C   0  0  0  0  0  0  0  0  0  0  0  0
    1.2658    0.2610   -0.8834 C   0  0  0  0  0  0  0  0  0  0  0  0
    0.6398    1.3602   -0.3415 C   0  0  0  0  0  0  0  0  0  0  0  0
   -0.7565    1.2402   -0.4782 C   0  0  0  0  0  0  0  0  0  0  0  0
   -1.7209    2.2489   -0.0333 C   0  0  0  0  0  0  0  0  0  0  0  0
   -2.8405    1.9390    0.6968 C   0  0  0  0  0  0  0  0  0  0  0  0
   -3.7517    2.9024    1.1062 C   0  0  0  0  0  0  0  0  0  0  0  0
   -3.5118    4.2075    0.7618 C   0  0  0  0  0  0  0  0  0  0  0  0
   -4.3732    5.1977    1.1368 F   0  0  0  0  0  0  0  0  0  0  0  0
   -2.4073    4.5830    0.0313 C   0  0  0  0  0  0  0  0  0  0  0  0
   -1.5420    3.5862   -0.3453 C   0  0  0  0  0  0  0  0  0  0  0  0
   -0.9299    0.0686   -1.1005 N   0  0  0  0  0  0  0  0  0  0  0  0
   -2.1723   -0.5072   -1.4949 C   0  0  0  0  0  0  0  0  0  0  0  0
   -2.8407   -1.4164   -0.5857 C   0  0  0  0  0  0  0  0  0  0  0  0
   -4.0742   -1.9270   -1.0252 C   0  0  0  0  0  0  0  0  0  0  0  0
   -4.8081   -2.7984   -0.2638 C   0  0  0  0  0  0  0  0  0  0  0  0
   -4.3656   -3.2103    0.9664 C   0  0  0  0  0  0  0  0  0  0  0  0
   -3.1781   -2.7340    1.4173 C   0  0  0  0  0  0  0  0  0  0  0  0
   -2.4333   -1.8434    0.6333 C   0  0  0  0  0  0  0  0  0  0  0  0
   -0.9298   -1.2737    1.2743 Cl  0  0  0  0  0  0  0  0  0  0  0  0
    0.2622   -0.5045   -1.3366 N   0  0  0  0  0  0  0  0  0  0  0  0
    4.8748   -1.6035    1.4385 C   0  0  0  0  0  0  0  0  0  0  0  0
    6.0606   -1.9369    1.6667 O   0  0  0  0  0  0  0  0  0  0  0  0
    3.9263   -1.9056    2.4032 O   0  0  0  0  0  0  0  0  0  0  0  0
    4.8038    1.1632    0.6835 H   0  0  0  0  0  0  0  0  0  0  0  0
    6.3026    0.1723    0.5792 H   0  0  0  0  0  0  0  0  0  0  0  0
    5.4918    0.6735   -0.9465 H   0  0  0  0  0  0  0  0  0  0  0  0
    5.6705   -2.4515   -0.7568 H   0  0  0  0  0  0  0  0  0  0  0  0
    3.9449   -2.5215   -1.1569 H   0  0  0  0  0  0  0  0  0  0  0  0
    4.9167   -1.2296   -1.9219 H   0  0  0  0  0  0  0  0  0  0  0  0
    3.3061    0.9671   -0.9750 H   0  0  0  0  0  0  0  0  0  0  0  0
    2.9977   -0.5388   -1.8733 H   0  0  0  0  0  0  0  0  0  0  0  0
    1.0980    2.2248    0.1349 H   0  0  0  0  0  0  0  0  0  0  0  0
   -3.0770    0.9318    1.0022 H   0  0  0  0  0  0  0  0  0  0  0  0
   -4.6255    2.6372    1.6794 H   0  0  0  0  0  0  0  0  0  0  0  0
   -2.2595    5.6268   -0.2172 H   0  0  0  0  0  0  0  0  0  0  0  0
   -0.6712    3.8524   -0.9168 H   0  0  0  0  0  0  0  0  0  0  0  0
   -2.8987    0.3000   -1.7765 H   0  0  0  0  0  0  0  0  0  0  0  0
   -1.9939   -1.0414   -2.4790 H   0  0  0  0  0  0  0  0  0  0  0  0
   -4.4875   -1.6447   -1.9896 H   0  0  0  0  0  0  0  0  0  0  0  0
   -5.7638   -3.1934   -0.6053 H   0  0  0  0  0  0  0  0  0  0  0  0
   -4.9706   -3.9024    1.5466 H   0  0  0  0  0  0  0  0  0  0  0  0
   -2.8080   -3.0372    2.3717 H   0  0  0  0  0  0  0  0  0  0  0  0
    4.1437   -1.9064    3.4115 H   0  0  0  0  0  0  0  0  0  0  0  0
  1  2  1  0
  2  3  1  0
  2  4  1  0
  4  5  1  0
  5  6  1  0
  6  7  1  0
  7  8  2  0
  8  9  1  0
  9 10  2  0
 10 11  1  0
 11 12  2  0
 12 13  1  0
 12 14  1  0
 14 15  2  0
  8 16  1  0
 16 17  1  0
 17 18  1  0
 18 19  2  0
 19 20  1  0
 20 21  2  0
 21 22  1  0
 22 23  2  0
 23 24  1  0
 16 25  1  0
  2 26  1  0
 26 27  2  0
 26 28  1  0
 25  6  2  0
 15  9  1  0
 23 18  1  0
  1 29  1  0
  1 30  1  0
  1 31  1  0
  3 32  1  0
  3 33  1  0
  3 34  1  0
  5 35  1  0
  5 36  1  0
  7 37  1  0
 10 38  1  0
 11 39  1  0
 14 40  1  0
 15 41  1  0
 17 42  1  0
 17 43  1  0
 19 44  1  0
 20 45  1  0
 21 46  1  0
 22 47  1  0
 28 48  1  0
M  END
$$$$
