
     RDKit          3D

 52 54  0  0  0  0  0  0  0  0999 V2000
   -3.6997   -0.7381   -1.1821 C   0  0  2  0  0  0  0  0  0  0  0  0
   -4.9075   -1.4612   -0.6120 C   0  0  0  0  0  0  0  0  0  0  0  0
   -4.4982   -2.7867   -0.0439 C   0  0  0  0  0  0  0  0  0  0  0  0
   -3.0565   -1.5585   -2.2925 C   0  0  0  0  0  0  0  0  0  0  0  0
   -3.9941   -1.8282   -3.2863 O   0  0  0  0  0  0  0  0  0  0  0  0
   -2.7237   -0.4593   -0.1469 N   0  0  0  0  0  0  0  0  0  0  0  0
   -1.4586    0.1405    0.0494 C   0  0  0  0  0  0  0  0  0  0  0  0
   -1.3679    1.4302    0.3932 N   0  0  0  0  0  0  0  0  0  0  0  0
   -0.1458    2.0070    0.5815 C   0  0  0  0  0  0  0  0  0  0  0  0
    0.1960    3.2945    0.9378 C   0  0  0  0  0  0  0  0  0  0  0  0
    1.5736    3.2653    0.9732 C   0  0  0  0  0  0  0  0  0  0  0  0
    1.9856    2.0259    0.6535 N   0  0  0  0  0  0  0  0  0  0  0  0
    0.9359    1.2280    0.4065 N   0  0  0  0  0  0  0  0  0  0  0  0
    0.8895   -0.0714    0.0610 C   0  0  0  0  0  0  0  0  0  0  0  0
    2.1242   -0.7611   -0.0913 N   0  0  0  0  0  0  0  0  0  0  0  0
    2.9110   -1.4217    0.9111 C   0  0  0  0  0  0  0  0  0  0  0  0
    4.1272   -2.0540    0.3837 C   0  0  0  0  0  0  0  0  0  0  0  0
    5.3598   -1.4441    0.2627 C   0  0  0  0  0  0  0  0  0  0  0  0
    6.4619   -2.1229   -0.2467 C   0  0  0  0  0  0  0  0  0  0  0  0
    6.3201   -3.4186   -0.6345 C   0  0  0  0  0  0  0  0  0  0  0  0
    5.0973   -4.0212   -0.5140 C   0  0  0  0  0  0  0  0  0  0  0  0
    3.9857   -3.3624   -0.0087 C   0  0  0  0  0  0  0  0  0  0  0  0
   -0.3532   -0.6069   -0.1165 N   0  0  0  0  0  0  0  0  0  0  0  0
   -0.6488    4.4579    1.2177 C   0  0  0  0  0  0  0  0  0  0  0  0
   -0.7788    5.2797   -0.0675 C   0  0  0  0  0  0  0  0  0  0  0  0
   -2.0749    4.0468    1.5954 C   0  0  0  0  0  0  0  0  0  0  0  0
   -3.9918    0.2248   -1.6408 H   0  0  0  0  0  0  0  0  0  0  0  0
   -5.3733   -0.7870    0.1422 H   0  0  0  0  0  0  0  0  0  0  0  0
   -5.6098   -1.5776   -1.4499 H   0  0  0  0  0  0  0  0  0  0  0  0
   -4.9688   -3.6258   -0.5918 H   0  0  0  0  0  0  0  0  0  0  0  0
   -3.3979   -2.9037   -0.0013 H   0  0  0  0  0  0  0  0  0  0  0  0
   -4.9080   -2.8771    1.0028 H   0  0  0  0  0  0  0  0  0  0  0  0
   -2.2161   -0.9466   -2.6995 H   0  0  0  0  0  0  0  0  0  0  0  0
   -2.6801   -2.5306   -1.9205 H   0  0  0  0  0  0  0  0  0  0  0  0
   -4.5672   -2.5940   -2.9747 H   0  0  0  0  0  0  0  0  0  0  0  0
   -2.9246   -0.7632    0.8293 H   0  0  0  0  0  0  0  0  0  0  0  0
    2.2428    4.0796    1.2130 H   0  0  0  0  0  0  0  0  0  0  0  0
    2.2175   -0.6089   -1.1167 H   0  0  0  0  0  0  0  0  0  0  0  0
    3.2695   -0.6882    1.6935 H   0  0  0  0  0  0  0  0  0  0  0  0
    2.2569   -2.1334    1.4519 H   0  0  0  0  0  0  0  0  0  0  0  0
    5.4500   -0.4185    0.5741 H   0  0  0  0  0  0  0  0  0  0  0  0
    7.3927   -1.5377   -0.2974 H   0  0  0  0  0  0  0  0  0  0  0  0
    7.2174   -3.8733   -1.0168 H   0  0  0  0  0  0  0  0  0  0  0  0
    4.9976   -5.0608   -0.8279 H   0  0  0  0  0  0  0  0  0  0  0  0
    3.0682   -3.8995    0.0542 H   0  0  0  0  0  0  0  0  0  0  0  0
   -0.2026    5.0936    2.0040 H   0  0  0  0  0  0  0  0  0  0  0  0
    0.2353    5.7236   -0.2928 H   0  0  0  0  0  0  0  0  0  0  0  0
   -0.9888    4.6000   -0.9100 H   0  0  0  0  0  0  0  0  0  0  0  0
   -1.4853    6.1104    0.0545 H   0  0  0  0  0  0  0  0  0  0  0  0
   -2.7589    4.1531    0.7261 H   0  0  0  0  0  0  0  0  0  0  0  0
   -2.4152    4.7508    2.3778 H   0  0  0  0  0  0  0  0  0  0  0  0
   -2.1195    3.0304    2.0282 H   0  0  0  0  0  0  0  0  0  0  0  0
  1  2  1  0
  2  3  1  0
  1  4  1  0
  4  5  1  0
  1  6  1  0
  6  7  1  0
  7  8  2  0
  8  9  1  0
  9 10  2  0
 10 11  1  0
 11 12  2  0
 12 13  1  0
 13 14  1  0
 14 15  1  0
 15 16  1  0
 16 17  1  0
 17 18  2  0
 18 19  1  0
 19 20  2  0
 20 21  1  0
 21 22  2  0
 14 23  2  0
 10 24  1  0
 24 25  1  0
 24 26  1  0
 23  7  1  0
 13  9  1  0
 22 17  1  0
  1 27  1  6
  2 28  1  0
  2 29  1  0
  3 30  1  0
  3 31  1  0
  3 32  1  0
  4 33  1  0
  4 34  1  0
  5 35  1  0
  6 36  1  0
 11 37  1  0
 15 38  1  0
 16 39  1  0
 16 40  1  0
 18 41  1  0
 19 42  1  0
 20 43  1  0
 21 44  1  0
 22 45  1  0
 24 46  1  0
 25 47  1  0
 25 48  1  0
 25 49  1  0
 26 50  1  0
 26 51  1  0
 26 52  1  0
M  END
$$$$
