
     RDKit          3D

 42 43  0  0  0  0  0  0  0  0999 V2000
   -1.7421   -0.0830    1.3075 C   0  0  2  0  0  0  0  0  0  0  0  0
   -2.5086    0.1449    2.4421 O   0  0  0  0  0  0  0  0  0  0  0  0
   -1.3555    1.1880    0.5801 C   0  0  0  0  0  0  0  0  0  0  0  0
   -1.0193    0.7741   -0.7500 N   0  0  0  0  0  0  0  0  0  0  0  0
    0.0181    1.4988   -1.3837 C   0  0  0  0  0  0  0  0  0  0  0  0
    1.3442    1.2654   -0.7487 C   0  0  0  0  0  0  0  0  0  0  0  0
    1.7690   -0.1851   -0.7806 C   0  0  0  0  0  0  0  0  0  0  0  0
    3.1156   -0.3551   -0.1262 C   0  0  0  0  0  0  0  0  0  0  0  0
    4.2692   -0.2578   -0.8574 C   0  0  0  0  0  0  0  0  0  0  0  0
    5.5312   -0.4031   -0.3186 C   0  0  0  0  0  0  0  0  0  0  0  0
    5.5703   -0.6562    1.0203 C   0  0  0  0  0  0  0  0  0  0  0  0
    4.4666   -0.7720    1.8404 C   0  0  0  0  0  0  0  0  0  0  0  0
    3.2326   -0.6143    1.2306 C   0  0  0  0  0  0  0  0  0  0  0  0
   -2.2407    0.6636   -1.4941 C   0  0  0  0  0  0  0  0  0  0  0  0
   -3.0998   -0.3734   -0.8074 C   0  0  2  0  0  0  0  0  0  0  0  0
   -4.4416    0.1481   -0.3560 C   0  0  0  0  0  0  0  0  0  0  0  0
   -5.1476   -0.9083    0.2672 O   0  0  0  0  0  0  0  0  0  0  0  0
   -2.3779   -1.0469    0.3374 C   0  0  1  0  0  0  0  0  0  0  0  0
   -1.4584   -1.9359   -0.2350 O   0  0  0  0  0  0  0  0  0  0  0  0
   -0.7550   -0.5617    1.5827 H   0  0  0  0  0  0  0  0  0  0  0  0
   -3.3915   -0.2951    2.2881 H   0  0  0  0  0  0  0  0  0  0  0  0
   -2.1839    1.9246    0.5112 H   0  0  0  0  0  0  0  0  0  0  0  0
   -0.5436    1.7352    1.0968 H   0  0  0  0  0  0  0  0  0  0  0  0
    0.0998    1.0704   -2.4264 H   0  0  0  0  0  0  0  0  0  0  0  0
   -0.2397    2.5515   -1.5227 H   0  0  0  0  0  0  0  0  0  0  0  0
    2.0894    1.8496   -1.3387 H   0  0  0  0  0  0  0  0  0  0  0  0
    1.4217    1.5973    0.2933 H   0  0  0  0  0  0  0  0  0  0  0  0
    1.7400   -0.6250   -1.7903 H   0  0  0  0  0  0  0  0  0  0  0  0
    1.0914   -0.8189   -0.1473 H   0  0  0  0  0  0  0  0  0  0  0  0
    4.1910   -0.0531   -1.9272 H   0  0  0  0  0  0  0  0  0  0  0  0
    6.4558   -0.3289   -0.8809 H   0  0  0  0  0  0  0  0  0  0  0  0
    6.5327   -0.7791    1.4936 H   0  0  0  0  0  0  0  0  0  0  0  0
    4.5098   -0.9733    2.9033 H   0  0  0  0  0  0  0  0  0  0  0  0
    2.3060   -0.6911    1.8072 H   0  0  0  0  0  0  0  0  0  0  0  0
   -1.9563    0.3282   -2.5144 H   0  0  0  0  0  0  0  0  0  0  0  0
   -2.7806    1.6296   -1.5880 H   0  0  0  0  0  0  0  0  0  0  0  0
   -3.2944   -1.2062   -1.5458 H   0  0  0  0  0  0  0  0  0  0  0  0
   -5.0761    0.4763   -1.1860 H   0  0  0  0  0  0  0  0  0  0  0  0
   -4.3572    0.9134    0.4402 H   0  0  0  0  0  0  0  0  0  0  0  0
   -5.4561   -1.4685   -0.5147 H   0  0  0  0  0  0  0  0  0  0  0  0
   -3.1107   -1.6956    0.8631 H   0  0  0  0  0  0  0  0  0  0  0  0
   -1.2177   -2.6716    0.3854 H   0  0  0  0  0  0  0  0  0  0  0  0
  1  2  1  0
  1  3  1  0
  3  4  1  0
  4  5  1  0
  5  6  1  0
  6  7  1  0
  7  8  1  0
  8  9  2  0
  9 10  1  0
 10 11  2  0
 11 12  1  0
 12 13  2  0
  4 14  1  0
 14 15  1  0
 15 16  1  0
 16 17  1  0
 15 18  1  0
 18 19  1  0
 18  1  1  0
 13  8  1  0
  1 20  1  1
  2 21  1  0
  3 22  1  0
  3 23  1  0
  5 24  1  0
  5 25  1  0
  6 26  1  0
  6 27  1  0
  7 28  1  0
  7 29  1  0
  9 30  1  0
 10 31  1  0
 11 32  1  0
 12 33  1  0
 13 34  1  0
 14 35  1  0
 14 36  1  0
 15 37  1  6
 16 38  1  0
 16 39  1  0
 17 40  1  0
 18 41  1  1
 19 42  1  0
M  END
$$$$
