
     RDKit          3D

 57 58  0  0  0  0  0  0  0  0999 V2000
    3.0923    0.6065   -1.0782 C   0  0  2  0  0  0  0  0  0  0  0  0
    1.8913   -0.2527   -0.8046 C   0  0  0  0  0  0  0  0  0  0  0  0
    0.7648   -0.0163   -1.7683 C   0  0  0  0  0  0  0  0  0  0  0  0
    0.2121    1.3429   -1.8151 C   0  0  0  0  0  0  0  0  0  0  0  0
   -0.3279    2.0113   -0.6349 C   0  0  0  0  0  0  0  0  0  0  0  0
   -1.4712    1.4527    0.0974 C   0  0  0  0  0  0  0  0  0  0  0  0
   -1.3645    0.1420    0.7766 C   0  0  0  0  0  0  0  0  0  0  0  0
   -2.6733   -0.0916    1.4438 N   0  0  0  0  0  0  0  0  0  0  0  0
   -3.9269   -0.1946    0.8379 C   0  0  0  0  0  0  0  0  0  0  0  0
   -4.0779   -0.0987   -0.3853 O   0  0  0  0  0  0  0  0  0  0  0  0
   -5.1011   -0.4090    1.5225 O   0  0  0  0  0  0  0  0  0  0  0  0
   -6.3321   -0.5011    0.8323 C   0  0  0  0  0  0  0  0  0  0  0  0
   -6.6457    0.7590    0.0607 C   0  0  0  0  0  0  0  0  0  0  0  0
   -7.4148   -0.7434    1.8642 C   0  0  0  0  0  0  0  0  0  0  0  0
   -6.3718   -1.6529   -0.1509 C   0  0  0  0  0  0  0  0  0  0  0  0
    3.6908    0.4209   -2.3978 C   0  0  0  0  0  0  0  0  0  0  0  0
    4.7057    1.3164   -2.7160 O   0  0  0  0  0  0  0  0  0  0  0  0
    3.4578   -0.4079   -3.3129 O   0  0  0  0  0  0  0  0  0  0  0  0
    4.0470    0.4740    0.0517 C   0  0  0  0  0  0  0  0  0  0  0  0
    4.0773    1.2669    1.2039 C   0  0  0  0  0  0  0  0  0  0  0  0
    5.0661    0.8857    2.0324 N   0  0  0  0  0  0  0  0  0  0  0  0
    5.7046   -0.1466    1.4663 C   0  0  0  0  0  0  0  0  0  0  0  0
    5.1011   -0.4128    0.2620 C   0  0  0  0  0  0  0  0  0  0  0  0
    5.5541   -1.4310   -0.5398 C   0  0  0  0  0  0  0  0  0  0  0  0
    6.6380   -2.2017   -0.1259 C   0  0  0  0  0  0  0  0  0  0  0  0
    7.2179   -1.8986    1.0977 C   0  0  0  0  0  0  0  0  0  0  0  0
    6.7807   -0.8808    1.9208 C   0  0  0  0  0  0  0  0  0  0  0  0
    2.7093    1.6687   -1.0510 H   0  0  0  0  0  0  0  0  0  0  0  0
    2.1142   -1.3277   -0.7887 H   0  0  0  0  0  0  0  0  0  0  0  0
    1.5143    0.0242    0.2010 H   0  0  0  0  0  0  0  0  0  0  0  0
    1.1642   -0.1972   -2.8434 H   0  0  0  0  0  0  0  0  0  0  0  0
    0.0058   -0.7856   -1.6641 H   0  0  0  0  0  0  0  0  0  0  0  0
    0.8982    2.0711   -2.3585 H   0  0  0  0  0  0  0  0  0  0  0  0
   -0.6519    1.2905   -2.5728 H   0  0  0  0  0  0  0  0  0  0  0  0
   -0.6610    3.0704   -0.9445 H   0  0  0  0  0  0  0  0  0  0  0  0
    0.4759    2.2787    0.1252 H   0  0  0  0  0  0  0  0  0  0  0  0
   -1.8918    2.2467    0.8085 H   0  0  0  0  0  0  0  0  0  0  0  0
   -2.3446    1.3597   -0.6342 H   0  0  0  0  0  0  0  0  0  0  0  0
   -1.1286   -0.7294    0.1837 H   0  0  0  0  0  0  0  0  0  0  0  0
   -0.6157    0.2562    1.6082 H   0  0  0  0  0  0  0  0  0  0  0  0
   -2.7199   -0.2000    2.4983 H   0  0  0  0  0  0  0  0  0  0  0  0
   -6.7938    0.5741   -1.0239 H   0  0  0  0  0  0  0  0  0  0  0  0
   -5.8720    1.5436    0.1580 H   0  0  0  0  0  0  0  0  0  0  0  0
   -7.6014    1.2279    0.4307 H   0  0  0  0  0  0  0  0  0  0  0  0
   -8.3215   -1.1786    1.3874 H   0  0  0  0  0  0  0  0  0  0  0  0
   -6.9816   -1.3928    2.6440 H   0  0  0  0  0  0  0  0  0  0  0  0
   -7.6433    0.2276    2.3610 H   0  0  0  0  0  0  0  0  0  0  0  0
   -7.4673   -1.8127   -0.3693 H   0  0  0  0  0  0  0  0  0  0  0  0
   -5.9504   -2.5623    0.3061 H   0  0  0  0  0  0  0  0  0  0  0  0
   -5.9011   -1.4056   -1.1241 H   0  0  0  0  0  0  0  0  0  0  0  0
    5.3076    1.2240   -3.5244 H   0  0  0  0  0  0  0  0  0  0  0  0
    3.3732    2.0710    1.3599 H   0  0  0  0  0  0  0  0  0  0  0  0
    5.2300    1.3718    2.9390 H   0  0  0  0  0  0  0  0  0  0  0  0
    5.0932   -1.6534   -1.4864 H   0  0  0  0  0  0  0  0  0  0  0  0
    7.0463   -3.0177   -0.7062 H   0  0  0  0  0  0  0  0  0  0  0  0
    8.0750   -2.4786    1.4662 H   0  0  0  0  0  0  0  0  0  0  0  0
    7.2440   -0.6561    2.8738 H   0  0  0  0  0  0  0  0  0  0  0  0
  1  2  1  0
  2  3  1  0
  3  4  1  0
  4  5  1  0
  5  6  1  0
  6  7  1  0
  7  8  1  0
  8  9  1  0
  9 10  2  0
  9 11  1  0
 11 12  1  0
 12 13  1  0
 12 14  1  0
 12 15  1  0
  1 16  1  0
 16 17  1  0
 16 18  2  0
  1 19  1  0
 19 20  2  0
 20 21  1  0
 21 22  1  0
 22 23  2  0
 23 24  1  0
 24 25  2  0
 25 26  1  0
 26 27  2  0
 23 19  1  0
 27 22  1  0
  1 28  1  6
  2 29  1  0
  2 30  1  0
  3 31  1  0
  3 32  1  0
  4 33  1  0
  4 34  1  0
  5 35  1  0
  5 36  1  0
  6 37  1  0
  6 38  1  0
  7 39  1  0
  7 40  1  0
  8 41  1  0
 13 42  1  0
 13 43  1  0
 13 44  1  0
 14 45  1  0
 14 46  1  0
 14 47  1  0
 15 48  1  0
 15 49  1  0
 15 50  1  0
 17 51  1  0
 20 52  1  0
 21 53  1  0
 24 54  1  0
 25 55  1  0
 26 56  1  0
 27 57  1  0
M  END
$$$$
