
     RDKit          3D

 42 44  0  0  0  0  0  0  0  0999 V2000
   -1.0196    0.1380   -1.8929 C   0  0  1  0  0  0  0  0  0  0  0  0
   -0.4406   -1.0474   -0.6483 S   0  0  0  0  0  0  0  0  0  0  0  0
   -2.0569   -1.4072    0.0871 C   0  0  0  0  0  0  0  0  0  0  0  0
   -2.4470   -2.8555   -0.0697 C   0  0  0  0  0  0  0  0  0  0  0  0
   -2.1191   -1.0066    1.5395 C   0  0  0  0  0  0  0  0  0  0  0  0
   -2.9696   -0.4723   -0.6679 C   0  0  1  0  0  0  0  0  0  0  0  0
   -2.1687    0.6266   -1.1727 N   0  0  0  0  0  0  0  0  0  0  0  0
   -1.7498    1.9558   -1.4414 C   0  0  0  0  0  0  0  0  0  0  0  0
   -2.3035    3.1014   -1.3621 O   0  0  0  0  0  0  0  0  0  0  0  0
   -0.4479    1.4894   -1.8398 C   0  0  1  0  0  0  0  0  0  0  0  0
    0.6776    1.7303   -1.0040 N   0  0  0  0  0  0  0  0  0  0  0  0
    1.8629    2.2976   -1.4830 C   0  0  0  0  0  0  0  0  0  0  0  0
    1.9447    2.6148   -2.7019 O   0  0  0  0  0  0  0  0  0  0  0  0
    3.1661    2.6574   -0.8804 C   0  0  0  0  0  0  0  0  0  0  0  0
    3.2625    2.3660    0.4944 O   0  0  0  0  0  0  0  0  0  0  0  0
    3.1716    1.1382    1.0835 C   0  0  0  0  0  0  0  0  0  0  0  0
    3.3146    1.2809    2.4699 C   0  0  0  0  0  0  0  0  0  0  0  0
    3.2630    0.1756    3.3192 C   0  0  0  0  0  0  0  0  0  0  0  0
    3.0694   -1.0786    2.8010 C   0  0  0  0  0  0  0  0  0  0  0  0
    2.9289   -1.2243    1.4457 C   0  0  0  0  0  0  0  0  0  0  0  0
    2.9765   -0.1534    0.5961 C   0  0  0  0  0  0  0  0  0  0  0  0
   -3.5839   -1.1541   -1.8423 C   0  0  0  0  0  0  0  0  0  0  0  0
   -4.3080   -2.0205   -2.6382 O   0  0  0  0  0  0  0  0  0  0  0  0
   -3.4820   -0.8895   -3.0721 O   0  0  0  0  0  0  0  0  0  0  0  0
   -1.2329   -0.3022   -2.8851 H   0  0  0  0  0  0  0  0  0  0  0  0
   -3.5414   -2.9878   -0.1499 H   0  0  0  0  0  0  0  0  0  0  0  0
   -2.1524   -3.3614    0.8871 H   0  0  0  0  0  0  0  0  0  0  0  0
   -1.8617   -3.3159   -0.8667 H   0  0  0  0  0  0  0  0  0  0  0  0
   -1.7829   -1.8240    2.1881 H   0  0  0  0  0  0  0  0  0  0  0  0
   -3.1770   -0.8169    1.7807 H   0  0  0  0  0  0  0  0  0  0  0  0
   -1.5486   -0.0673    1.6837 H   0  0  0  0  0  0  0  0  0  0  0  0
   -3.7679   -0.0765    0.0149 H   0  0  0  0  0  0  0  0  0  0  0  0
   -0.2201    1.8224   -2.8914 H   0  0  0  0  0  0  0  0  0  0  0  0
    0.7462    1.5286    0.0167 H   0  0  0  0  0  0  0  0  0  0  0  0
    3.9429    2.0029   -1.3704 H   0  0  0  0  0  0  0  0  0  0  0  0
    3.4386    3.7190   -1.0612 H   0  0  0  0  0  0  0  0  0  0  0  0
    3.4736    2.1965    3.0440 H   0  0  0  0  0  0  0  0  0  0  0  0
    3.3659    0.2190    4.3935 H   0  0  0  0  0  0  0  0  0  0  0  0
    3.0115   -2.0132    3.3633 H   0  0  0  0  0  0  0  0  0  0  0  0
    2.7711   -2.1406    0.8868 H   0  0  0  0  0  0  0  0  0  0  0  0
    2.8826   -0.1153   -0.4836 H   0  0  0  0  0  0  0  0  0  0  0  0
   -4.8887   -2.7297   -2.2197 H   0  0  0  0  0  0  0  0  0  0  0  0
  1  2  1  0
  2  3  1  0
  3  4  1  0
  3  5  1  0
  3  6  1  0
  6  7  1  0
  7  8  1  0
  8  9  2  0
  8 10  1  0
 10 11  1  0
 11 12  1  0
 12 13  2  0
 12 14  1  0
 14 15  1  0
 15 16  1  0
 16 17  2  0
 17 18  1  0
 18 19  2  0
 19 20  1  0
 20 21  2  0
  6 22  1  0
 22 23  1  0
 22 24  2  0
  7  1  1  0
 21 16  1  0
 10  1  1  0
  1 25  1  6
  4 26  1  0
  4 27  1  0
  4 28  1  0
  5 29  1  0
  5 30  1  0
  5 31  1  0
  6 32  1  1
 10 33  1  6
 11 34  1  0
 14 35  1  0
 14 36  1  0
 17 37  1  0
 18 38  1  0
 19 39  1  0
 20 40  1  0
 21 41  1  0
 23 42  1  0
M  END
$$$$
