
     RDKit          3D

 45 46  0  0  0  0  0  0  0  0999 V2000
    4.6038    1.6013    0.2016 C   0  0  0  0  0  0  0  0  0  0  0  0
    5.1666    0.2074    0.3688 C   0  0  0  0  0  0  0  0  0  0  0  0
    4.1160   -0.8034    0.6917 C   0  0  0  0  0  0  0  0  0  0  0  0
    3.0909   -0.8625   -0.4084 C   0  0  2  0  0  0  0  0  0  0  0  0
    3.6333   -1.2347   -1.7433 C   0  0  0  0  0  0  0  0  0  0  0  0
    1.9955    0.5872   -0.4371 S   0  0  0  0  0  0  0  0  0  0  0  0
    0.6275   -0.1850    0.4277 C   0  0  0  0  0  0  0  0  0  0  0  0
   -0.5460    0.4204    0.9695 N   0  0  0  0  0  0  0  0  0  0  0  0
   -1.7602   -0.2569    1.3527 C   0  0  0  0  0  0  0  0  0  0  0  0
   -2.8191    0.6404    1.8894 C   0  0  0  0  0  0  0  0  0  0  0  0
   -3.5370    1.5600    1.0202 C   0  0  0  0  0  0  0  0  0  0  0  0
   -3.1355    1.7604   -0.3827 C   0  0  0  0  0  0  0  0  0  0  0  0
   -4.0500    1.0168   -1.3440 C   0  0  0  0  0  0  0  0  0  0  0  0
   -3.9618   -0.4452   -1.0638 C   0  0  0  0  0  0  0  0  0  0  0  0
   -2.5426   -0.9371   -0.9780 C   0  0  0  0  0  0  0  0  0  0  0  0
   -2.2070   -1.3122    0.4241 C   0  0  0  0  0  0  0  0  0  0  0  0
    0.8295   -1.4572    0.5188 N   0  0  0  0  0  0  0  0  0  0  0  0
    2.0376   -1.8870   -0.0695 C   0  0  0  0  0  0  0  0  0  0  0  0
    2.2229   -3.1248   -0.3055 O   0  0  0  0  0  0  0  0  0  0  0  0
    3.7883    1.7769    0.9299 H   0  0  0  0  0  0  0  0  0  0  0  0
    5.3708    2.3824    0.4241 H   0  0  0  0  0  0  0  0  0  0  0  0
    4.2055    1.8025   -0.8078 H   0  0  0  0  0  0  0  0  0  0  0  0
    5.8921    0.2774    1.2317 H   0  0  0  0  0  0  0  0  0  0  0  0
    5.7668   -0.0244   -0.5093 H   0  0  0  0  0  0  0  0  0  0  0  0
    4.5724   -1.7910    0.7918 H   0  0  0  0  0  0  0  0  0  0  0  0
    3.6110   -0.5572    1.6283 H   0  0  0  0  0  0  0  0  0  0  0  0
    4.0318   -0.3739   -2.3171 H   0  0  0  0  0  0  0  0  0  0  0  0
    2.8329   -1.7152   -2.3561 H   0  0  0  0  0  0  0  0  0  0  0  0
    4.4517   -1.9449   -1.5971 H   0  0  0  0  0  0  0  0  0  0  0  0
   -0.4976    1.4780    1.0944 H   0  0  0  0  0  0  0  0  0  0  0  0
   -1.4305   -0.8454    2.2618 H   0  0  0  0  0  0  0  0  0  0  0  0
   -2.3156    1.1996    2.7277 H   0  0  0  0  0  0  0  0  0  0  0  0
   -3.5249   -0.0335    2.4634 H   0  0  0  0  0  0  0  0  0  0  0  0
   -4.6309    1.2679    0.9916 H   0  0  0  0  0  0  0  0  0  0  0  0
   -3.6067    2.5826    1.5019 H   0  0  0  0  0  0  0  0  0  0  0  0
   -3.2464    2.8383   -0.7090 H   0  0  0  0  0  0  0  0  0  0  0  0
   -2.1161    1.5022   -0.6774 H   0  0  0  0  0  0  0  0  0  0  0  0
   -3.8316    1.2713   -2.3935 H   0  0  0  0  0  0  0  0  0  0  0  0
   -5.0739    1.3875   -1.1053 H   0  0  0  0  0  0  0  0  0  0  0  0
   -4.5235   -0.6663   -0.1136 H   0  0  0  0  0  0  0  0  0  0  0  0
   -4.5697   -0.9571   -1.8508 H   0  0  0  0  0  0  0  0  0  0  0  0
   -1.8038   -0.3335   -1.5105 H   0  0  0  0  0  0  0  0  0  0  0  0
   -2.5482   -1.9115   -1.5552 H   0  0  0  0  0  0  0  0  0  0  0  0
   -3.1165   -1.7753    0.8595 H   0  0  0  0  0  0  0  0  0  0  0  0
   -1.4518   -2.1254    0.4052 H   0  0  0  0  0  0  0  0  0  0  0  0
  1  2  1  0
  2  3  1  0
  4  3  1  1
  4  5  1  0
  4  6  1  0
  6  7  1  0
  7  8  1  0
  8  9  1  0
  9 10  1  0
 10 11  1  0
 11 12  1  0
 12 13  1  0
 13 14  1  0
 14 15  1  0
 15 16  1  0
  7 17  2  0
 17 18  1  0
 18 19  2  0
 18  4  1  0
 16  9  1  0
  1 20  1  0
  1 21  1  0
  1 22  1  0
  2 23  1  0
  2 24  1  0
  3 25  1  0
  3 26  1  0
  5 27  1  0
  5 28  1  0
  5 29  1  0
  8 30  1  0
  9 31  1  0
 10 32  1  0
 10 33  1  0
 11 34  1  0
 11 35  1  0
 12 36  1  0
 12 37  1  0
 13 38  1  0
 13 39  1  0
 14 40  1  0
 14 41  1  0
 15 42  1  0
 15 43  1  0
 16 44  1  0
 16 45  1  0
M  END
$$$$
