
     RDKit          3D

 61 61  0  0  0  0  0  0  0  0999 V2000
    8.2087    0.0472    1.5883 C   0  0  0  0  0  0  0  0  0  0  0  0
    7.0046    0.8967    1.9637 C   0  0  0  0  0  0  0  0  0  0  0  0
    6.5576    1.7497    0.8232 C   0  0  0  0  0  0  0  0  0  0  0  0
    6.1591    0.9805   -0.4024 C   0  0  0  0  0  0  0  0  0  0  0  0
    5.0074    0.0605   -0.0435 C   0  0  0  0  0  0  0  0  0  0  0  0
    4.5796   -0.7314   -1.2730 C   0  0  0  0  0  0  0  0  0  0  0  0
    3.4497   -1.6630   -1.0069 C   0  0  0  0  0  0  0  0  0  0  0  0
    2.2952   -1.0304   -0.5662 O   0  0  0  0  0  0  0  0  0  0  0  0
    1.8217   -0.1033   -1.4892 C   0  0  0  0  0  0  0  0  0  0  0  0
    0.5617    0.5740   -0.9981 C   0  0  0  0  0  0  0  0  0  0  0  0
   -0.4898   -0.4654   -0.7835 C   0  0  0  0  0  0  0  0  0  0  0  0
   -1.7972    0.1342   -0.2871 C   0  0  0  0  0  0  0  0  0  0  0  0
   -2.7635   -0.9964   -0.1157 C   0  0  0  0  0  0  0  0  0  0  0  0
   -4.0608   -0.6415    0.3459 N   0  0  0  0  0  0  0  0  0  0  0  0
   -4.1796   -0.1735    1.6544 C   0  0  0  0  0  0  0  0  0  0  0  0
   -5.1358    0.9291    1.9307 C   0  0  2  0  0  0  0  0  0  0  0  0
   -6.2926    0.4476    2.5492 O   0  0  0  0  0  0  0  0  0  0  0  0
   -5.5687    1.6737    0.6892 C   0  0  1  0  0  0  0  0  0  0  0  0
   -4.5945    2.5727    0.2589 O   0  0  0  0  0  0  0  0  0  0  0  0
   -5.9766    0.7310   -0.4164 C   0  0  2  0  0  0  0  0  0  0  0  0
   -7.2670    0.2685   -0.0845 O   0  0  0  0  0  0  0  0  0  0  0  0
   -5.0503   -0.4151   -0.6079 C   0  0  2  0  0  0  0  0  0  0  0  0
   -5.8898   -1.6906   -0.7656 C   0  0  0  0  0  0  0  0  0  0  0  0
   -6.8578   -1.4240   -1.7195 O   0  0  0  0  0  0  0  0  0  0  0  0
    8.7781   -0.1431    2.5052 H   0  0  0  0  0  0  0  0  0  0  0  0
    8.8527    0.5568    0.8604 H   0  0  0  0  0  0  0  0  0  0  0  0
    7.8880   -0.9437    1.1773 H   0  0  0  0  0  0  0  0  0  0  0  0
    7.3796    1.5964    2.7535 H   0  0  0  0  0  0  0  0  0  0  0  0
    6.2003    0.2710    2.3474 H   0  0  0  0  0  0  0  0  0  0  0  0
    5.6291    2.2885    1.1657 H   0  0  0  0  0  0  0  0  0  0  0  0
    7.2926    2.5489    0.5909 H   0  0  0  0  0  0  0  0  0  0  0  0
    5.7378    1.7251   -1.1352 H   0  0  0  0  0  0  0  0  0  0  0  0
    6.9974    0.3938   -0.8438 H   0  0  0  0  0  0  0  0  0  0  0  0
    4.1907    0.6734    0.3812 H   0  0  0  0  0  0  0  0  0  0  0  0
    5.3476   -0.6292    0.7556 H   0  0  0  0  0  0  0  0  0  0  0  0
    4.4157   -0.0605   -2.1366 H   0  0  0  0  0  0  0  0  0  0  0  0
    5.4646   -1.3543   -1.5425 H   0  0  0  0  0  0  0  0  0  0  0  0
    3.7707   -2.3605   -0.2001 H   0  0  0  0  0  0  0  0  0  0  0  0
    3.2949   -2.2837   -1.9069 H   0  0  0  0  0  0  0  0  0  0  0  0
    1.5930   -0.5510   -2.4736 H   0  0  0  0  0  0  0  0  0  0  0  0
    2.5873    0.7006   -1.5839 H   0  0  0  0  0  0  0  0  0  0  0  0
    0.2260    1.3000   -1.7740 H   0  0  0  0  0  0  0  0  0  0  0  0
    0.7524    1.1699   -0.0707 H   0  0  0  0  0  0  0  0  0  0  0  0
   -0.7158   -0.9106   -1.7973 H   0  0  0  0  0  0  0  0  0  0  0  0
   -0.0967   -1.2354   -0.1026 H   0  0  0  0  0  0  0  0  0  0  0  0
   -2.1784    0.8244   -1.0562 H   0  0  0  0  0  0  0  0  0  0  0  0
   -1.6479    0.6381    0.6882 H   0  0  0  0  0  0  0  0  0  0  0  0
   -2.3195   -1.7151    0.6197 H   0  0  0  0  0  0  0  0  0  0  0  0
   -2.8738   -1.5675   -1.0763 H   0  0  0  0  0  0  0  0  0  0  0  0
   -4.4023   -1.0432    2.3412 H   0  0  0  0  0  0  0  0  0  0  0  0
   -3.1628    0.1730    2.0067 H   0  0  0  0  0  0  0  0  0  0  0  0
   -4.7075    1.6981    2.6365 H   0  0  0  0  0  0  0  0  0  0  0  0
   -6.2441   -0.5366    2.5586 H   0  0  0  0  0  0  0  0  0  0  0  0
   -6.4641    2.2708    0.9569 H   0  0  0  0  0  0  0  0  0  0  0  0
   -4.6483    2.5857   -0.7405 H   0  0  0  0  0  0  0  0  0  0  0  0
   -6.1052    1.3435   -1.3378 H   0  0  0  0  0  0  0  0  0  0  0  0
   -7.9213    0.4441   -0.8038 H   0  0  0  0  0  0  0  0  0  0  0  0
   -4.5656   -0.2796   -1.6161 H   0  0  0  0  0  0  0  0  0  0  0  0
   -5.2231   -2.4805   -1.1304 H   0  0  0  0  0  0  0  0  0  0  0  0
   -6.3758   -1.9564    0.2026 H   0  0  0  0  0  0  0  0  0  0  0  0
   -6.4679   -0.8970   -2.4632 H   0  0  0  0  0  0  0  0  0  0  0  0
  1  2  1  0
  2  3  1  0
  3  4  1  0
  4  5  1  0
  5  6  1  0
  6  7  1  0
  7  8  1  0
  8  9  1  0
  9 10  1  0
 10 11  1  0
 11 12  1  0
 12 13  1  0
 13 14  1  0
 14 15  1  0
 15 16  1  0
 16 17  1  0
 16 18  1  0
 18 19  1  0
 18 20  1  0
 20 21  1  0
 20 22  1  0
 22 23  1  0
 23 24  1  0
 22 14  1  0
  1 25  1  0
  1 26  1  0
  1 27  1  0
  2 28  1  0
  2 29  1  0
  3 30  1  0
  3 31  1  0
  4 32  1  0
  4 33  1  0
  5 34  1  0
  5 35  1  0
  6 36  1  0
  6 37  1  0
  7 38  1  0
  7 39  1  0
  9 40  1  0
  9 41  1  0
 10 42  1  0
 10 43  1  0
 11 44  1  0
 11 45  1  0
 12 46  1  0
 12 47  1  0
 13 48  1  0
 13 49  1  0
 15 50  1  0
 15 51  1  0
 16 52  1  1
 17 53  1  0
 18 54  1  1
 19 55  1  0
 20 56  1  6
 21 57  1  0
 22 58  1  6
 23 59  1  0
 23 60  1  0
 24 61  1  0
M  END
$$$$
