
     RDKit          3D

 29 31  0  0  0  0  0  0  0  0999 V2000
   -4.9153    1.6300    0.0440 C   0  0  0  0  0  0  0  0  0  0  0  0
   -3.5201    1.6358   -0.0485 O   0  0  0  0  0  0  0  0  0  0  0  0
   -2.7529    0.5193    0.0873 C   0  0  0  0  0  0  0  0  0  0  0  0
   -3.2051   -0.7522    0.3287 C   0  0  0  0  0  0  0  0  0  0  0  0
   -2.3671   -1.8329    0.4539 C   0  0  0  0  0  0  0  0  0  0  0  0
   -0.9983   -1.6315    0.3305 C   0  0  0  0  0  0  0  0  0  0  0  0
   -0.4813   -0.3728    0.0870 C   0  0  0  0  0  0  0  0  0  0  0  0
   -1.3633    0.6546   -0.0263 C   0  0  0  0  0  0  0  0  0  0  0  0
    0.9876   -0.4115   -0.0025 C   0  0  0  0  0  0  0  0  0  0  0  0
    1.7584    0.6420   -0.2019 C   0  0  0  0  0  0  0  0  0  0  0  0
    3.1909    0.6110   -0.2950 C   0  0  0  0  0  0  0  0  0  0  0  0
    3.9455   -0.2343   -1.0684 C   0  0  0  0  0  0  0  0  0  0  0  0
    5.2513    0.0429   -0.8597 N   0  0  0  0  0  0  0  0  0  0  0  0
    5.3455    1.0442    0.0274 C   0  0  0  0  0  0  0  0  0  0  0  0
    4.1017    1.3881    0.3689 N   0  0  0  0  0  0  0  0  0  0  0  0
    1.3324   -1.8091    0.2081 C   0  0  0  0  0  0  0  0  0  0  0  0
    2.4832   -2.3036    0.2177 O   0  0  0  0  0  0  0  0  0  0  0  0
    0.0959   -2.5180    0.4065 N   0  0  0  0  0  0  0  0  0  0  0  0
   -5.3964    1.6592   -0.9765 H   0  0  0  0  0  0  0  0  0  0  0  0
   -5.3552    0.7898    0.5837 H   0  0  0  0  0  0  0  0  0  0  0  0
   -5.1984    2.6224    0.4977 H   0  0  0  0  0  0  0  0  0  0  0  0
   -4.2743   -0.8999    0.4224 H   0  0  0  0  0  0  0  0  0  0  0  0
   -2.7831   -2.7980    0.6432 H   0  0  0  0  0  0  0  0  0  0  0  0
   -0.9659    1.6561   -0.2224 H   0  0  0  0  0  0  0  0  0  0  0  0
    1.2557    1.6276   -0.3061 H   0  0  0  0  0  0  0  0  0  0  0  0
    3.6517   -1.0089   -1.7675 H   0  0  0  0  0  0  0  0  0  0  0  0
    6.2939    1.4453    0.3576 H   0  0  0  0  0  0  0  0  0  0  0  0
    3.8425    2.1269    1.0334 H   0  0  0  0  0  0  0  0  0  0  0  0
    0.0403   -3.5226    0.5762 H   0  0  0  0  0  0  0  0  0  0  0  0
  1  2  1  0
  2  3  1  0
  3  4  2  0
  4  5  1  0
  5  6  2  0
  6  7  1  0
  7  8  2  0
  7  9  1  0
  9 10  2  3
 10 11  1  0
 11 12  2  0
 12 13  1  0
 13 14  2  0
 14 15  1  0
  9 16  1  0
 16 17  2  0
 16 18  1  0
  8  3  1  0
 15 11  1  0
 18  6  1  0
  1 19  1  0
  1 20  1  0
  1 21  1  0
  4 22  1  0
  5 23  1  0
  8 24  1  0
 10 25  1  0
 12 26  1  0
 14 27  1  0
 15 28  1  0
 18 29  1  0
M  END
$$$$
