
     RDKit          3D

 43 46  0  0  0  0  0  0  0  0999 V2000
    2.2754    1.0463    1.5799 O   0  0  0  0  0  0  0  0  0  0  0  0
    2.0440    0.2176    0.6748 C   0  0  0  0  0  0  0  0  0  0  0  0
    0.6617   -0.3472    0.4581 C   0  0  0  0  0  0  0  0  0  0  0  0
   -0.2282    0.2744    1.4845 C   0  0  0  0  0  0  0  0  0  0  0  0
   -1.6336   -0.1972    1.3856 C   0  0  0  0  0  0  0  0  0  0  0  0
   -2.6642    0.3245    0.6576 C   0  0  0  0  0  0  0  0  0  0  0  0
   -3.8259   -0.4171    0.8416 N   0  0  0  0  0  0  0  0  0  0  0  0
   -3.4362   -1.3472    1.6707 C   0  0  0  0  0  0  0  0  0  0  0  0
   -2.1367   -1.2614    2.0267 N   0  0  0  0  0  0  0  0  0  0  0  0
   -4.9073   -2.3225    1.9311 S   0  0  0  0  0  0  0  0  0  0  0  0
   -5.9364   -1.3388    0.8545 C   0  0  0  0  0  0  0  0  0  0  0  0
   -7.2715   -1.4495    0.5056 C   0  0  0  0  0  0  0  0  0  0  0  0
   -7.8293   -0.5281   -0.3713 C   0  0  0  0  0  0  0  0  0  0  0  0
   -9.1383   -0.5553   -0.7748 O   0  0  0  0  0  0  0  0  0  0  0  0
   -6.9917    0.4550   -0.8428 C   0  0  0  0  0  0  0  0  0  0  0  0
   -5.6838    0.5360   -0.4803 C   0  0  0  0  0  0  0  0  0  0  0  0
   -5.0777   -0.3854    0.4122 C   0  0  0  0  0  0  0  0  0  0  0  0
    3.1058   -0.1973   -0.1630 N   0  0  0  0  0  0  0  0  0  0  0  0
    4.4189    0.3122    0.0048 C   0  0  0  0  0  0  0  0  0  0  0  0
    5.4432   -0.0719   -0.7768 C   0  0  0  0  0  0  0  0  0  0  0  0
    5.4585   -1.0109   -1.8802 C   0  0  0  0  0  0  0  0  0  0  0  0
    4.4690   -1.6517   -2.3087 O   0  0  0  0  0  0  0  0  0  0  0  0
    6.6607   -1.2666   -2.5696 O   0  0  0  0  0  0  0  0  0  0  0  0
    6.6950    0.6377   -0.3285 C   0  0  0  0  0  0  0  0  0  0  0  0
    6.1633    1.8490    0.3534 C   0  0  0  0  0  0  0  0  0  0  0  0
    4.8869    1.3129    1.0011 C   0  0  0  0  0  0  0  0  0  0  0  0
    0.2787   -0.0742   -0.5462 H   0  0  0  0  0  0  0  0  0  0  0  0
    0.6787   -1.4561    0.6094 H   0  0  0  0  0  0  0  0  0  0  0  0
    0.1963    0.0650    2.4863 H   0  0  0  0  0  0  0  0  0  0  0  0
   -0.1498    1.3867    1.3534 H   0  0  0  0  0  0  0  0  0  0  0  0
   -2.5208    1.2007    0.0419 H   0  0  0  0  0  0  0  0  0  0  0  0
   -7.8830   -2.2313    0.8983 H   0  0  0  0  0  0  0  0  0  0  0  0
   -9.8196    0.0499   -0.3189 H   0  0  0  0  0  0  0  0  0  0  0  0
   -7.4200    1.1752   -1.5258 H   0  0  0  0  0  0  0  0  0  0  0  0
   -5.1170    1.3592   -0.9188 H   0  0  0  0  0  0  0  0  0  0  0  0
    2.8587   -0.8998   -0.9089 H   0  0  0  0  0  0  0  0  0  0  0  0
    6.7222   -2.0234   -3.2584 H   0  0  0  0  0  0  0  0  0  0  0  0
    7.2431    0.0169    0.3897 H   0  0  0  0  0  0  0  0  0  0  0  0
    7.2963    0.9352   -1.2136 H   0  0  0  0  0  0  0  0  0  0  0  0
    6.8688    2.1881    1.1538 H   0  0  0  0  0  0  0  0  0  0  0  0
    5.9296    2.6677   -0.3366 H   0  0  0  0  0  0  0  0  0  0  0  0
    4.1684    2.1710    1.1228 H   0  0  0  0  0  0  0  0  0  0  0  0
    5.1479    0.8516    1.9770 H   0  0  0  0  0  0  0  0  0  0  0  0
  1  2  2  0
  2  3  1  0
  3  4  1  0
  4  5  1  0
  5  6  2  0
  6  7  1  0
  7  8  1  0
  8  9  2  0
  8 10  1  0
 10 11  1  0
 11 12  2  0
 12 13  1  0
 13 14  1  0
 13 15  2  0
 15 16  1  0
 16 17  2  0
  2 18  1  0
 18 19  1  0
 19 20  2  0
 20 21  1  0
 21 22  2  0
 21 23  1  0
 20 24  1  0
 24 25  1  0
 25 26  1  0
  9  5  1  0
 17 11  1  0
 26 19  1  0
 17  7  1  0
  3 27  1  0
  3 28  1  0
  4 29  1  0
  4 30  1  0
  6 31  1  0
 12 32  1  0
 14 33  1  0
 15 34  1  0
 16 35  1  0
 18 36  1  0
 23 37  1  0
 24 38  1  0
 24 39  1  0
 25 40  1  0
 25 41  1  0
 26 42  1  0
 26 43  1  0
M  END
$$$$
