
     RDKit          3D

 52 57  0  0  0  0  0  0  0  0999 V2000
    7.1193   -0.8947    0.6097 C   0  0  0  0  0  0  0  0  0  0  0  0
    5.6719   -0.7071    0.3633 C   0  0  0  0  0  0  0  0  0  0  0  0
    5.0697   -1.0154   -0.8381 C   0  0  0  0  0  0  0  0  0  0  0  0
    3.7175   -0.8159   -0.9993 C   0  0  0  0  0  0  0  0  0  0  0  0
    2.9457   -0.3075    0.0310 C   0  0  0  0  0  0  0  0  0  0  0  0
    1.5463   -0.0817   -0.0809 N   0  0  0  0  0  0  0  0  0  0  0  0
    0.9662    1.1052   -0.2835 C   0  0  0  0  0  0  0  0  0  0  0  0
    1.5413    2.3678   -0.4310 O   0  0  0  0  0  0  0  0  0  0  0  0
   -0.4062    0.9177   -0.3348 C   0  0  0  0  0  0  0  0  0  0  0  0
   -0.6336   -0.4306   -0.1553 C   0  0  0  0  0  0  0  0  0  0  0  0
    0.6140   -1.0393    0.0027 C   0  0  0  0  0  0  0  0  0  0  0  0
    0.7738   -2.4035    0.2066 O   0  0  0  0  0  0  0  0  0  0  0  0
   -2.0979   -0.6194   -0.2120 C   0  0  0  0  0  0  0  0  0  0  0  0
   -2.5926    0.6195    0.1192 O   0  0  0  0  0  0  0  0  0  0  0  0
   -1.7534    1.5347   -0.4994 C   0  0  0  0  0  0  0  0  0  0  0  0
   -1.8034    2.8715    0.1712 C   0  0  0  0  0  0  0  0  0  0  0  0
   -1.8969    4.0313   -0.5914 C   0  0  0  0  0  0  0  0  0  0  0  0
   -1.9449    5.2748   -0.0055 C   0  0  0  0  0  0  0  0  0  0  0  0
   -1.9012    5.4065    1.3612 C   0  0  0  0  0  0  0  0  0  0  0  0
   -1.8082    4.2492    2.1152 C   0  0  0  0  0  0  0  0  0  0  0  0
   -1.7590    2.9939    1.5449 C   0  0  0  0  0  0  0  0  0  0  0  0
   -2.5786   -1.0195   -1.5383 C   0  0  0  0  0  0  0  0  0  0  0  0
   -2.4045   -0.3771   -2.5974 O   0  0  0  0  0  0  0  0  0  0  0  0
   -3.2832   -2.2817   -1.3930 C   0  0  0  0  0  0  0  0  0  0  0  0
   -3.9188   -3.0610   -2.3328 C   0  0  0  0  0  0  0  0  0  0  0  0
   -4.5466   -4.2496   -2.0120 C   0  0  0  0  0  0  0  0  0  0  0  0
   -4.5171   -4.6421   -0.6903 C   0  0  0  0  0  0  0  0  0  0  0  0
   -3.8828   -3.8678    0.2572 C   0  0  0  0  0  0  0  0  0  0  0  0
   -3.2518   -2.6743   -0.0610 C   0  0  0  0  0  0  0  0  0  0  0  0
   -2.5250   -1.6857    0.7229 C   0  0  0  0  0  0  0  0  0  0  0  0
   -2.3139   -1.7466    1.9509 O   0  0  0  0  0  0  0  0  0  0  0  0
    3.5778   -0.0092    1.2202 C   0  0  0  0  0  0  0  0  0  0  0  0
    4.9274   -0.1914    1.4293 C   0  0  0  0  0  0  0  0  0  0  0  0
    5.6991    0.2012    2.9620 Cl  0  0  0  0  0  0  0  0  0  0  0  0
    7.4940   -0.0051    1.1766 H   0  0  0  0  0  0  0  0  0  0  0  0
    7.2393   -1.8134    1.2207 H   0  0  0  0  0  0  0  0  0  0  0  0
    7.7089   -1.0003   -0.3061 H   0  0  0  0  0  0  0  0  0  0  0  0
    5.6750   -1.4115   -1.6389 H   0  0  0  0  0  0  0  0  0  0  0  0
    3.2395   -1.0546   -1.9361 H   0  0  0  0  0  0  0  0  0  0  0  0
    1.2678    3.0560    0.2815 H   0  0  0  0  0  0  0  0  0  0  0  0
    1.2170   -2.7714    1.0612 H   0  0  0  0  0  0  0  0  0  0  0  0
   -1.9622    1.6760   -1.5724 H   0  0  0  0  0  0  0  0  0  0  0  0
   -1.9301    3.9061   -1.6686 H   0  0  0  0  0  0  0  0  0  0  0  0
   -2.0173    6.1466   -0.6367 H   0  0  0  0  0  0  0  0  0  0  0  0
   -1.9357    6.3579    1.8679 H   0  0  0  0  0  0  0  0  0  0  0  0
   -1.7743    4.3643    3.1956 H   0  0  0  0  0  0  0  0  0  0  0  0
   -1.6853    2.0958    2.1713 H   0  0  0  0  0  0  0  0  0  0  0  0
   -3.9447   -2.7552   -3.3773 H   0  0  0  0  0  0  0  0  0  0  0  0
   -5.0469   -4.8583   -2.7659 H   0  0  0  0  0  0  0  0  0  0  0  0
   -5.0110   -5.5790   -0.4329 H   0  0  0  0  0  0  0  0  0  0  0  0
   -3.8725   -4.1998    1.2999 H   0  0  0  0  0  0  0  0  0  0  0  0
    2.9881    0.3938    2.0488 H   0  0  0  0  0  0  0  0  0  0  0  0
  1  2  1  0
  2  3  2  0
  3  4  1  0
  4  5  2  0
  5  6  1  0
  6  7  1  0
  7  8  1  0
  7  9  2  0
  9 10  1  0
 10 11  2  0
 11 12  1  0
 10 13  1  0
 13 14  1  0
 14 15  1  0
 15 16  1  0
 16 17  2  0
 17 18  1  0
 18 19  2  0
 19 20  1  0
 20 21  2  0
 13 22  1  0
 22 23  2  0
 22 24  1  0
 24 25  2  0
 25 26  1  0
 26 27  2  0
 27 28  1  0
 28 29  2  0
 29 30  1  0
 30 31  2  0
  5 32  1  0
 32 33  2  0
 33 34  1  0
 33  2  1  0
 11  6  1  0
 30 13  1  0
 15  9  1  0
 21 16  1  0
 29 24  1  0
  1 35  1  0
  1 36  1  0
  1 37  1  0
  3 38  1  0
  4 39  1  0
  8 40  1  0
 12 41  1  0
 15 42  1  0
 17 43  1  0
 18 44  1  0
 19 45  1  0
 20 46  1  0
 21 47  1  0
 25 48  1  0
 26 49  1  0
 27 50  1  0
 28 51  1  0
 32 52  1  0
M  END
$$$$
