
     RDKit          3D

 67 69  0  0  0  0  0  0  0  0999 V2000
    3.8806   -0.4997   -0.3212 C   0  0  2  0  0  0  0  0  0  0  0  0
    4.5684    0.1793    0.7735 C   0  0  0  0  0  0  0  0  0  0  0  0
    6.0140    0.1792    0.9315 C   0  0  0  0  0  0  0  0  0  0  0  0
    6.7729    0.8828   -0.1407 C   0  0  0  0  0  0  0  0  0  0  0  0
    6.3946    0.7970    2.2860 C   0  0  0  0  0  0  0  0  0  0  0  0
    4.0617   -0.2640   -1.7314 C   0  0  0  0  0  0  0  0  0  0  0  0
    5.3674   -0.5282   -2.3695 C   0  0  0  0  0  0  0  0  0  0  0  0
    6.1185   -1.6657   -2.1907 O   0  0  0  0  0  0  0  0  0  0  0  0
    5.9446    0.2927   -3.1689 O   0  0  0  0  0  0  0  0  0  0  0  0
    2.3754   -0.2487    0.0572 C   0  0  0  0  0  0  0  0  0  0  0  0
    2.3111    0.3870    1.1224 O   0  0  0  0  0  0  0  0  0  0  0  0
    1.3447   -0.7515   -0.8061 N   0  0  0  0  0  0  0  0  0  0  0  0
    0.0659   -0.3620   -0.1795 C   0  0  1  0  0  0  0  0  0  0  0  0
   -0.7183    0.2809   -1.3042 C   0  0  0  0  0  0  0  0  0  0  0  0
   -1.9530    0.9539   -0.9078 C   0  0  0  0  0  0  0  0  0  0  0  0
   -2.8968    0.7019    0.0455 C   0  0  0  0  0  0  0  0  0  0  0  0
   -3.9862    1.4118    0.2716 N   0  0  0  0  0  0  0  0  0  0  0  0
   -4.7070    0.8513    1.3560 C   0  0  0  0  0  0  0  0  0  0  0  0
   -5.5434   -0.3080    1.1983 C   0  0  0  0  0  0  0  0  0  0  0  0
   -5.2169   -1.5865    0.6136 C   0  0  0  0  0  0  0  0  0  0  0  0
   -4.0459   -2.3774    0.8340 C   0  0  0  0  0  0  0  0  0  0  0  0
   -3.4807   -2.7936    2.1416 C   0  0  0  0  0  0  0  0  0  0  0  0
   -2.0897   -3.4772    1.7699 C   0  0  0  0  0  0  0  0  0  0  0  0
   -1.2937   -2.5000    1.0881 N   0  0  0  0  0  0  0  0  0  0  0  0
   -0.5198   -1.5544    0.4262 C   0  0  0  0  0  0  0  0  0  0  0  0
    0.1444   -2.6492    0.2692 O   0  0  0  0  0  0  0  0  0  0  0  0
   -3.7789    2.3355   -0.6962 C   0  0  0  0  0  0  0  0  0  0  0  0
   -2.6063    2.0928   -1.3946 C   0  0  0  0  0  0  0  0  0  0  0  0
   -2.3382    3.0463   -2.3975 C   0  0  0  0  0  0  0  0  0  0  0  0
   -3.1710    4.1417   -2.6686 C   0  0  0  0  0  0  0  0  0  0  0  0
   -4.3319    4.2909   -1.8998 C   0  0  0  0  0  0  0  0  0  0  0  0
   -4.6668    3.3874   -0.8894 C   0  0  0  0  0  0  0  0  0  0  0  0
    3.8877   -1.6534   -0.1280 H   0  0  0  0  0  0  0  0  0  0  0  0
    4.0845   -0.1495    1.7848 H   0  0  0  0  0  0  0  0  0  0  0  0
    4.1856    1.2944    0.7085 H   0  0  0  0  0  0  0  0  0  0  0  0
    6.4163   -0.8841    0.9445 H   0  0  0  0  0  0  0  0  0  0  0  0
    7.5138    1.5913    0.3664 H   0  0  0  0  0  0  0  0  0  0  0  0
    7.4193    0.2354   -0.7437 H   0  0  0  0  0  0  0  0  0  0  0  0
    6.0900    1.5278   -0.7311 H   0  0  0  0  0  0  0  0  0  0  0  0
    5.4796    1.1015    2.8383 H   0  0  0  0  0  0  0  0  0  0  0  0
    6.9079    0.0387    2.8968 H   0  0  0  0  0  0  0  0  0  0  0  0
    7.0060    1.6886    2.1371 H   0  0  0  0  0  0  0  0  0  0  0  0
    3.3686   -0.9723   -2.3184 H   0  0  0  0  0  0  0  0  0  0  0  0
    3.6599    0.7448   -2.0708 H   0  0  0  0  0  0  0  0  0  0  0  0
    6.5986   -2.0886   -2.9800 H   0  0  0  0  0  0  0  0  0  0  0  0
    1.5646   -1.2768   -1.6603 H   0  0  0  0  0  0  0  0  0  0  0  0
    0.2407    0.3942    0.5845 H   0  0  0  0  0  0  0  0  0  0  0  0
   -0.1259    0.9505   -1.9107 H   0  0  0  0  0  0  0  0  0  0  0  0
   -1.0297   -0.5571   -2.0159 H   0  0  0  0  0  0  0  0  0  0  0  0
   -2.4863   -0.1084    0.4983 H   0  0  0  0  0  0  0  0  0  0  0  0
   -5.3946    1.6580    1.8170 H   0  0  0  0  0  0  0  0  0  0  0  0
   -4.0148    0.7138    2.2737 H   0  0  0  0  0  0  0  0  0  0  0  0
   -6.4885    0.0434    0.6387 H   0  0  0  0  0  0  0  0  0  0  0  0
   -6.0470   -0.4905    2.2271 H   0  0  0  0  0  0  0  0  0  0  0  0
   -6.1428   -2.2510    0.8298 H   0  0  0  0  0  0  0  0  0  0  0  0
   -5.3637   -1.4840   -0.5230 H   0  0  0  0  0  0  0  0  0  0  0  0
   -3.1787   -2.2078    0.1140 H   0  0  0  0  0  0  0  0  0  0  0  0
   -4.3332   -3.4425    0.3657 H   0  0  0  0  0  0  0  0  0  0  0  0
   -4.0213   -3.6156    2.6346 H   0  0  0  0  0  0  0  0  0  0  0  0
   -3.2713   -2.0372    2.8780 H   0  0  0  0  0  0  0  0  0  0  0  0
   -2.2721   -4.3438    1.1267 H   0  0  0  0  0  0  0  0  0  0  0  0
   -1.6409   -3.8249    2.7119 H   0  0  0  0  0  0  0  0  0  0  0  0
   -1.7104   -1.6035    1.3492 H   0  0  0  0  0  0  0  0  0  0  0  0
   -1.4159    2.8972   -2.9686 H   0  0  0  0  0  0  0  0  0  0  0  0
   -2.9187    4.8331   -3.4455 H   0  0  0  0  0  0  0  0  0  0  0  0
   -5.0131    5.1225   -2.0677 H   0  0  0  0  0  0  0  0  0  0  0  0
   -5.5738    3.5092   -0.2806 H   0  0  0  0  0  0  0  0  0  0  0  0
  1  2  1  0
  2  3  1  0
  3  4  1  0
  3  5  1  0
  1  6  1  0
  6  7  1  0
  7  8  1  0
  7  9  2  0
  1 10  1  0
 10 11  2  0
 10 12  1  0
 12 13  1  0
 13 14  1  0
 14 15  1  0
 15 16  2  0
 16 17  1  0
 17 18  1  0
 18 19  1  0
 19 20  1  0
 20 21  1  0
 21 22  1  0
 22 23  1  0
 23 24  1  0
 24 25  1  0
 25 26  2  0
 17 27  1  0
 27 28  2  0
 28 29  1  0
 29 30  2  0
 30 31  1  0
 31 32  2  0
 25 13  1  0
 32 27  1  0
 28 15  1  0
  1 33  1  6
  2 34  1  0
  2 35  1  0
  3 36  1  0
  4 37  1  0
  4 38  1  0
  4 39  1  0
  5 40  1  0
  5 41  1  0
  5 42  1  0
  6 43  1  0
  6 44  1  0
  8 45  1  0
 12 46  1  0
 13 47  1  1
 14 48  1  0
 14 49  1  0
 16 50  1  0
 18 51  1  0
 18 52  1  0
 19 53  1  0
 19 54  1  0
 20 55  1  0
 20 56  1  0
 21 57  1  0
 21 58  1  0
 22 59  1  0
 22 60  1  0
 23 61  1  0
 23 62  1  0
 24 63  1  0
 29 64  1  0
 30 65  1  0
 31 66  1  0
 32 67  1  0
M  END
$$$$
