
     RDKit          3D

 45 47  0  0  0  0  0  0  0  0999 V2000
    3.9271   -0.7468   -0.6655 C   0  0  0  0  0  0  0  0  0  0  0  0
    3.5696    0.4472    0.0588 N   0  0  0  0  0  0  0  0  0  0  0  0
    4.7498    1.2347    0.2744 C   0  0  0  0  0  0  0  0  0  0  0  0
    2.8818    0.1028    1.2522 C   0  0  0  0  0  0  0  0  0  0  0  0
    1.5077   -0.4781    1.0108 C   0  0  0  0  0  0  0  0  0  0  0  0
    0.7429    0.6243    0.2444 C   0  0  0  0  0  0  0  0  0  0  0  0
   -0.5878    0.2822   -0.0833 N   0  0  0  0  0  0  0  0  0  0  0  0
   -0.8770   -0.8816   -0.8921 C   0  0  0  0  0  0  0  0  0  0  0  0
    0.2489   -1.2056   -1.5956 C   0  0  0  0  0  0  0  0  0  0  0  0
    0.1794   -2.3095   -2.4317 C   0  0  0  0  0  0  0  0  0  0  0  0
   -1.0048   -3.0163   -2.5124 C   0  0  0  0  0  0  0  0  0  0  0  0
   -2.1222   -2.6563   -1.7855 C   0  0  0  0  0  0  0  0  0  0  0  0
   -2.0809   -1.5482   -0.9352 C   0  0  0  0  0  0  0  0  0  0  0  0
   -3.3916   -1.3697   -0.3065 C   0  0  0  0  0  0  0  0  0  0  0  0
   -3.4521   -0.5553    0.9311 C   0  0  0  0  0  0  0  0  0  0  0  0
   -2.8795    0.7842    0.8772 C   0  0  0  0  0  0  0  0  0  0  0  0
   -3.6954    1.8018    1.3262 C   0  0  0  0  0  0  0  0  0  0  0  0
   -3.2597    3.1096    1.3321 C   0  0  0  0  0  0  0  0  0  0  0  0
   -1.9954    3.4643    0.8922 C   0  0  0  0  0  0  0  0  0  0  0  0
   -1.1830    2.4783    0.4480 C   0  0  0  0  0  0  0  0  0  0  0  0
   -1.6125    1.1681    0.4397 C   0  0  0  0  0  0  0  0  0  0  0  0
    4.8732   -1.1480   -0.2577 H   0  0  0  0  0  0  0  0  0  0  0  0
    3.1545   -1.5435   -0.5112 H   0  0  0  0  0  0  0  0  0  0  0  0
    3.9885   -0.5246   -1.7558 H   0  0  0  0  0  0  0  0  0  0  0  0
    5.1604    1.1902    1.3037 H   0  0  0  0  0  0  0  0  0  0  0  0
    5.5278    0.9065   -0.4540 H   0  0  0  0  0  0  0  0  0  0  0  0
    4.5454    2.3303    0.0795 H   0  0  0  0  0  0  0  0  0  0  0  0
    3.4487   -0.6779    1.8366 H   0  0  0  0  0  0  0  0  0  0  0  0
    2.7771    0.9475    1.9567 H   0  0  0  0  0  0  0  0  0  0  0  0
    1.4531   -1.4525    0.5939 H   0  0  0  0  0  0  0  0  0  0  0  0
    1.0721   -0.6031    2.0537 H   0  0  0  0  0  0  0  0  0  0  0  0
    0.7447    1.3688    1.1041 H   0  0  0  0  0  0  0  0  0  0  0  0
    1.3608    1.1224   -0.4953 H   0  0  0  0  0  0  0  0  0  0  0  0
    1.1558   -0.5956   -1.5034 H   0  0  0  0  0  0  0  0  0  0  0  0
    1.0712   -2.5863   -3.0015 H   0  0  0  0  0  0  0  0  0  0  0  0
   -1.0576   -3.8794   -3.1651 H   0  0  0  0  0  0  0  0  0  0  0  0
   -3.0438   -3.2490   -1.8830 H   0  0  0  0  0  0  0  0  0  0  0  0
   -4.0980   -0.9099   -1.0383 H   0  0  0  0  0  0  0  0  0  0  0  0
   -3.7728   -2.3985   -0.0337 H   0  0  0  0  0  0  0  0  0  0  0  0
   -3.0666   -1.1598    1.7904 H   0  0  0  0  0  0  0  0  0  0  0  0
   -4.5451   -0.4314    1.1730 H   0  0  0  0  0  0  0  0  0  0  0  0
   -4.6794    1.5503    1.6728 H   0  0  0  0  0  0  0  0  0  0  0  0
   -3.9455    3.8935    1.7015 H   0  0  0  0  0  0  0  0  0  0  0  0
   -1.6294    4.4795    0.8867 H   0  0  0  0  0  0  0  0  0  0  0  0
   -0.1605    2.6403    0.0673 H   0  0  0  0  0  0  0  0  0  0  0  0
  1  2  1  0
  2  3  1  0
  2  4  1  0
  4  5  1  0
  5  6  1  0
  6  7  1  0
  7  8  1  0
  8  9  2  0
  9 10  1  0
 10 11  2  0
 11 12  1  0
 12 13  2  0
 13 14  1  0
 14 15  1  0
 15 16  1  0
 16 17  2  0
 17 18  1  0
 18 19  2  0
 19 20  1  0
 20 21  2  0
 21  7  1  0
 13  8  1  0
 21 16  1  0
  1 22  1  0
  1 23  1  0
  1 24  1  0
  3 25  1  0
  3 26  1  0
  3 27  1  0
  4 28  1  0
  4 29  1  0
  5 30  1  0
  5 31  1  0
  6 32  1  0
  6 33  1  0
  9 34  1  0
 10 35  1  0
 11 36  1  0
 12 37  1  0
 14 38  1  0
 14 39  1  0
 15 40  1  0
 15 41  1  0
 17 42  1  0
 18 43  1  0
 19 44  1  0
 20 45  1  0
M  END
$$$$
