
     RDKit          3D

 48 49  0  0  0  0  0  0  0  0999 V2000
   -5.1916   -0.5817    1.0095 C   0  0  0  0  0  0  0  0  0  0  0  0
   -4.6496   -0.5561   -0.4051 C   0  0  0  0  0  0  0  0  0  0  0  0
   -3.9926    0.6517   -0.7327 N   0  0  0  0  0  0  0  0  0  0  0  0
   -4.8125    1.8080   -0.8300 C   0  0  0  0  0  0  0  0  0  0  0  0
   -5.7271    1.7004   -2.0294 C   0  0  0  0  0  0  0  0  0  0  0  0
   -2.6858    0.8389   -0.2346 C   0  0  0  0  0  0  0  0  0  0  0  0
   -1.6159   -0.0448   -0.7896 C   0  0  0  0  0  0  0  0  0  0  0  0
   -0.3253    0.3495   -0.1120 C   0  0  0  0  0  0  0  0  0  0  0  0
    0.8604   -0.4443   -0.5653 C   0  0  0  0  0  0  0  0  0  0  0  0
    0.6147   -1.9054   -0.2588 C   0  0  0  0  0  0  0  0  0  0  0  0
    2.0290   -0.0038    0.1690 N   0  0  0  0  0  0  0  0  0  0  0  0
    3.3283   -0.5006   -0.0932 C   0  0  0  0  0  0  0  0  0  0  0  0
    3.4937   -1.4431   -1.1159 C   0  0  0  0  0  0  0  0  0  0  0  0
    4.7629   -1.9324   -1.3938 C   0  0  0  0  0  0  0  0  0  0  0  0
    5.8295   -1.5276   -0.7116 N   0  0  0  0  0  0  0  0  0  0  0  0
    5.7158   -0.6290    0.2725 C   0  0  0  0  0  0  0  0  0  0  0  0
    6.8602   -0.2513    0.9409 C   0  0  0  0  0  0  0  0  0  0  0  0
    6.7379    0.6685    1.9482 C   0  0  0  0  0  0  0  0  0  0  0  0
    8.1458    1.2073    2.8510 Cl  0  0  0  0  0  0  0  0  0  0  0  0
    5.5059    1.1984    2.2808 C   0  0  0  0  0  0  0  0  0  0  0  0
    4.3612    0.8061    1.5957 C   0  0  0  0  0  0  0  0  0  0  0  0
    4.4522   -0.1080    0.5876 C   0  0  0  0  0  0  0  0  0  0  0  0
   -4.4135   -0.3068    1.7516 H   0  0  0  0  0  0  0  0  0  0  0  0
   -5.6304   -1.5806    1.2105 H   0  0  0  0  0  0  0  0  0  0  0  0
   -6.0356    0.1462    1.1066 H   0  0  0  0  0  0  0  0  0  0  0  0
   -5.5567   -0.6452   -1.0745 H   0  0  0  0  0  0  0  0  0  0  0  0
   -4.0743   -1.4688   -0.5609 H   0  0  0  0  0  0  0  0  0  0  0  0
   -4.2568    2.7612   -0.7994 H   0  0  0  0  0  0  0  0  0  0  0  0
   -5.4657    1.8308    0.0894 H   0  0  0  0  0  0  0  0  0  0  0  0
   -5.2759    1.1150   -2.8561 H   0  0  0  0  0  0  0  0  0  0  0  0
   -5.8606    2.7502   -2.4042 H   0  0  0  0  0  0  0  0  0  0  0  0
   -6.7086    1.2367   -1.7822 H   0  0  0  0  0  0  0  0  0  0  0  0
   -2.3794    1.8976   -0.4680 H   0  0  0  0  0  0  0  0  0  0  0  0
   -2.6694    0.7633    0.8695 H   0  0  0  0  0  0  0  0  0  0  0  0
   -1.4935    0.0440   -1.8885 H   0  0  0  0  0  0  0  0  0  0  0  0
   -1.7782   -1.1175   -0.5873 H   0  0  0  0  0  0  0  0  0  0  0  0
   -0.1836    1.4419   -0.2880 H   0  0  0  0  0  0  0  0  0  0  0  0
   -0.4737    0.2371    0.9913 H   0  0  0  0  0  0  0  0  0  0  0  0
    0.9852   -0.3294   -1.6518 H   0  0  0  0  0  0  0  0  0  0  0  0
    0.3942   -2.4567   -1.1913 H   0  0  0  0  0  0  0  0  0  0  0  0
    1.4492   -2.3781    0.3133 H   0  0  0  0  0  0  0  0  0  0  0  0
   -0.2772   -2.0368    0.4192 H   0  0  0  0  0  0  0  0  0  0  0  0
    1.8855    0.7003    0.9079 H   0  0  0  0  0  0  0  0  0  0  0  0
    2.6271   -1.7644   -1.6677 H   0  0  0  0  0  0  0  0  0  0  0  0
    4.8583   -2.6628   -2.1943 H   0  0  0  0  0  0  0  0  0  0  0  0
    7.8212   -0.6494    0.6995 H   0  0  0  0  0  0  0  0  0  0  0  0
    5.4076    1.9260    3.0780 H   0  0  0  0  0  0  0  0  0  0  0  0
    3.4075    1.2453    1.8865 H   0  0  0  0  0  0  0  0  0  0  0  0
  1  2  1  0
  2  3  1  0
  3  4  1  0
  4  5  1  0
  3  6  1  0
  6  7  1  0
  7  8  1  0
  8  9  1  0
  9 10  1  0
  9 11  1  0
 11 12  1  0
 12 13  2  0
 13 14  1  0
 14 15  2  0
 15 16  1  0
 16 17  2  0
 17 18  1  0
 18 19  1  0
 18 20  2  0
 20 21  1  0
 21 22  2  0
 22 12  1  0
 22 16  1  0
  1 23  1  0
  1 24  1  0
  1 25  1  0
  2 26  1  0
  2 27  1  0
  4 28  1  0
  4 29  1  0
  5 30  1  0
  5 31  1  0
  5 32  1  0
  6 33  1  0
  6 34  1  0
  7 35  1  0
  7 36  1  0
  8 37  1  0
  8 38  1  0
  9 39  1  0
 10 40  1  0
 10 41  1  0
 10 42  1  0
 11 43  1  0
 13 44  1  0
 14 45  1  0
 17 46  1  0
 20 47  1  0
 21 48  1  0
M  END
$$$$
