
     RDKit          3D

 49 52  0  0  0  0  0  0  0  0999 V2000
    4.6335   -3.8560    0.7689 C   0  0  0  0  0  0  0  0  0  0  0  0
    5.2050   -2.6829    0.2243 O   0  0  0  0  0  0  0  0  0  0  0  0
    4.4292   -1.5726   -0.0227 C   0  0  0  0  0  0  0  0  0  0  0  0
    3.0933   -1.5672    0.2487 C   0  0  0  0  0  0  0  0  0  0  0  0
    2.2539   -0.4978    0.0292 C   0  0  0  0  0  0  0  0  0  0  0  0
    0.8780   -0.5779    0.3406 N   0  0  0  0  0  0  0  0  0  0  0  0
   -0.1351    0.3922    0.1596 C   0  0  0  0  0  0  0  0  0  0  0  0
   -1.3858    0.1332    0.5119 N   0  0  0  0  0  0  0  0  0  0  0  0
   -2.4171    0.9784    0.3788 C   0  0  0  0  0  0  0  0  0  0  0  0
   -3.6678    0.5246    0.8076 N   0  0  0  0  0  0  0  0  0  0  0  0
   -4.8714   -0.1522    0.6046 C   0  0  0  0  0  0  0  0  0  0  0  0
   -4.8178   -1.4968    0.9874 C   0  0  0  0  0  0  0  0  0  0  0  0
   -3.3680   -2.2462    1.6660 Cl  0  0  0  0  0  0  0  0  0  0  0  0
   -5.9231   -2.3156    0.8479 C   0  0  0  0  0  0  0  0  0  0  0  0
   -7.0351   -1.7187    0.3216 C   0  0  0  0  0  0  0  0  0  0  0  0
   -7.1365   -0.3931   -0.0715 C   0  0  0  0  0  0  0  0  0  0  0  0
   -6.0197    0.4013    0.0785 C   0  0  0  0  0  0  0  0  0  0  0  0
   -6.2755    1.6967   -0.3567 O   0  0  0  0  0  0  0  0  0  0  0  0
   -7.6183    1.6869   -0.8080 C   0  0  0  0  0  0  0  0  0  0  0  0
   -8.1352    0.4036   -0.6152 O   0  0  0  0  0  0  0  0  0  0  0  0
   -2.1938    2.2227   -0.1635 C   0  0  0  0  0  0  0  0  0  0  0  0
   -0.9025    2.5135   -0.5363 C   0  0  0  0  0  0  0  0  0  0  0  0
    0.0597    1.6024   -0.3631 N   0  0  0  0  0  0  0  0  0  0  0  0
    2.9049    0.5885   -0.5012 C   0  0  0  0  0  0  0  0  0  0  0  0
    4.2402    0.6583   -0.8000 C   0  0  0  0  0  0  0  0  0  0  0  0
    4.8257    1.7904   -1.3341 O   0  0  0  0  0  0  0  0  0  0  0  0
    4.1735    2.9848   -1.6375 C   0  0  0  0  0  0  0  0  0  0  0  0
    5.0201   -0.4452   -0.5563 C   0  0  0  0  0  0  0  0  0  0  0  0
    6.3781   -0.4021   -0.8504 O   0  0  0  0  0  0  0  0  0  0  0  0
    7.2865    0.0321    0.1316 C   0  0  0  0  0  0  0  0  0  0  0  0
    4.3273   -3.7412    1.8364 H   0  0  0  0  0  0  0  0  0  0  0  0
    5.4358   -4.6445    0.7329 H   0  0  0  0  0  0  0  0  0  0  0  0
    3.7980   -4.1757    0.1080 H   0  0  0  0  0  0  0  0  0  0  0  0
    2.6893   -2.4928    0.6704 H   0  0  0  0  0  0  0  0  0  0  0  0
    0.5691   -1.5005    0.7725 H   0  0  0  0  0  0  0  0  0  0  0  0
   -3.6815    0.9007    1.8031 H   0  0  0  0  0  0  0  0  0  0  0  0
   -5.9166   -3.3638    1.1348 H   0  0  0  0  0  0  0  0  0  0  0  0
   -7.9262   -2.3052    0.1889 H   0  0  0  0  0  0  0  0  0  0  0  0
   -8.2000    2.4527   -0.2455 H   0  0  0  0  0  0  0  0  0  0  0  0
   -7.7065    1.9248   -1.8935 H   0  0  0  0  0  0  0  0  0  0  0  0
   -3.0126    2.9175   -0.2786 H   0  0  0  0  0  0  0  0  0  0  0  0
   -0.6808    3.4964   -0.9734 H   0  0  0  0  0  0  0  0  0  0  0  0
    2.3501    1.4853   -0.7160 H   0  0  0  0  0  0  0  0  0  0  0  0
    4.8988    3.6772   -2.1107 H   0  0  0  0  0  0  0  0  0  0  0  0
    3.2573    2.8185   -2.2529 H   0  0  0  0  0  0  0  0  0  0  0  0
    3.8321    3.4687   -0.6882 H   0  0  0  0  0  0  0  0  0  0  0  0
    7.4045   -0.7834    0.8731 H   0  0  0  0  0  0  0  0  0  0  0  0
    6.8342    0.9066    0.6390 H   0  0  0  0  0  0  0  0  0  0  0  0
    8.2486    0.2736   -0.3693 H   0  0  0  0  0  0  0  0  0  0  0  0
  1  2  1  0
  2  3  1  0
  3  4  2  0
  4  5  1  0
  5  6  1  0
  6  7  1  0
  7  8  2  0
  8  9  1  0
  9 10  1  0
 10 11  1  0
 11 12  2  0
 12 13  1  0
 12 14  1  0
 14 15  2  0
 15 16  1  0
 16 17  2  0
 17 18  1  0
 18 19  1  0
 19 20  1  0
  9 21  2  0
 21 22  1  0
 22 23  2  0
  5 24  2  0
 24 25  1  0
 25 26  1  0
 26 27  1  0
 25 28  2  0
 28 29  1  0
 29 30  1  0
 28  3  1  0
 23  7  1  0
 17 11  1  0
 20 16  1  0
  1 31  1  0
  1 32  1  0
  1 33  1  0
  4 34  1  0
  6 35  1  0
 10 36  1  0
 14 37  1  0
 15 38  1  0
 19 39  1  0
 19 40  1  0
 21 41  1  0
 22 42  1  0
 24 43  1  0
 27 44  1  0
 27 45  1  0
 27 46  1  0
 30 47  1  0
 30 48  1  0
 30 49  1  0
M  END
$$$$
