
     RDKit          3D

 63 69  0  0  0  0  0  0  0  0999 V2000
   -4.2655   -3.5568   -2.3166 C   0  0  0  0  0  0  0  0  0  0  0  0
   -4.9126   -2.3277   -1.7686 C   0  0  0  0  0  0  0  0  0  0  0  0
   -6.1309   -2.3669   -1.4598 O   0  0  0  0  0  0  0  0  0  0  0  0
   -4.1751   -1.1476   -1.6002 N   0  0  0  0  0  0  0  0  0  0  0  0
   -2.8038   -0.7507   -1.8394 C   0  0  0  0  0  0  0  0  0  0  0  0
   -3.0073    0.5311   -1.0613 C   0  0  0  0  0  0  0  0  0  0  0  0
   -2.3971    0.5066    0.2586 N   0  0  0  0  0  0  0  0  0  0  0  0
   -3.0504    0.6708    1.4126 C   0  0  0  0  0  0  0  0  0  0  0  0
   -2.1746    0.5909    2.4739 C   0  0  0  0  0  0  0  0  0  0  0  0
   -2.5333    0.7236    3.8806 C   0  0  0  0  0  0  0  0  0  0  0  0
   -2.9112   -0.4305    4.7252 C   0  0  0  0  0  0  0  0  0  0  0  0
   -3.9942    0.4039    4.1992 C   0  0  0  0  0  0  0  0  0  0  0  0
   -0.9412    0.3681    1.9166 C   0  0  0  0  0  0  0  0  0  0  0  0
   -1.0956    0.3188    0.5506 C   0  0  0  0  0  0  0  0  0  0  0  0
    0.2050    0.0805   -0.1060 C   0  0  0  0  0  0  0  0  0  0  0  0
    0.5681    1.2176   -1.0118 C   0  0  0  0  0  0  0  0  0  0  0  0
    0.5354    1.0654   -2.3821 C   0  0  0  0  0  0  0  0  0  0  0  0
    0.8712    2.1164   -3.2336 C   0  0  0  0  0  0  0  0  0  0  0  0
    1.2411    3.3243   -2.7137 C   0  0  0  0  0  0  0  0  0  0  0  0
    1.6743    4.6833   -3.7275 Cl  0  0  0  0  0  0  0  0  0  0  0  0
    1.2794    3.4941   -1.3517 C   0  0  0  0  0  0  0  0  0  0  0  0
    0.9435    2.4417   -0.5235 C   0  0  0  0  0  0  0  0  0  0  0  0
    1.1902   -0.0160    0.9831 N   0  0  0  0  0  0  0  0  0  0  0  0
    2.5799   -0.2455    0.7750 C   0  0  0  0  0  0  0  0  0  0  0  0
    3.4683   -0.3295    1.8175 C   0  0  0  0  0  0  0  0  0  0  0  0
    4.8299   -0.5558    1.5886 C   0  0  0  0  0  0  0  0  0  0  0  0
    5.8009   -0.6489    2.7041 C   0  0  0  0  0  0  0  0  0  0  0  0
    5.2223   -0.6871    0.2854 C   0  0  0  0  0  0  0  0  0  0  0  0
    6.4300   -0.9076   -0.2871 N   0  0  0  0  0  0  0  0  0  0  0  0
    6.2775   -0.9544   -1.6135 N   0  0  0  0  0  0  0  0  0  0  0  0
    5.0169   -0.7731   -1.9287 N   0  0  0  0  0  0  0  0  0  0  0  0
    4.4658   -0.7581   -3.2697 C   0  0  0  0  0  0  0  0  0  0  0  0
    4.3310   -0.6037   -0.7767 C   0  0  0  0  0  0  0  0  0  0  0  0
    3.0544   -0.3873   -0.4833 N   0  0  0  0  0  0  0  0  0  0  0  0
    0.4711    0.1618    2.1942 C   0  0  0  0  0  0  0  0  0  0  0  0
    0.9462    0.1503    3.3618 O   0  0  0  0  0  0  0  0  0  0  0  0
   -4.4592    0.1920   -1.1139 C   0  0  0  0  0  0  0  0  0  0  0  0
   -4.8680   -4.4443   -1.9792 H   0  0  0  0  0  0  0  0  0  0  0  0
   -3.2122   -3.6554   -2.0069 H   0  0  0  0  0  0  0  0  0  0  0  0
   -4.3631   -3.5043   -3.4299 H   0  0  0  0  0  0  0  0  0  0  0  0
   -2.6218   -0.5163   -2.9094 H   0  0  0  0  0  0  0  0  0  0  0  0
   -2.0934   -1.4581   -1.3708 H   0  0  0  0  0  0  0  0  0  0  0  0
   -2.6905    1.4373   -1.6073 H   0  0  0  0  0  0  0  0  0  0  0  0
   -4.1117    0.8420    1.5102 H   0  0  0  0  0  0  0  0  0  0  0  0
   -2.1294    1.6272    4.3801 H   0  0  0  0  0  0  0  0  0  0  0  0
   -2.8180   -1.4751    4.3656 H   0  0  0  0  0  0  0  0  0  0  0  0
   -2.6755   -0.3353    5.8060 H   0  0  0  0  0  0  0  0  0  0  0  0
   -4.6194   -0.0381    3.4008 H   0  0  0  0  0  0  0  0  0  0  0  0
   -4.5397    1.1363    4.8316 H   0  0  0  0  0  0  0  0  0  0  0  0
    0.2222   -0.8419   -0.7180 H   0  0  0  0  0  0  0  0  0  0  0  0
    0.2510    0.1342   -2.8507 H   0  0  0  0  0  0  0  0  0  0  0  0
    0.8495    2.0101   -4.3040 H   0  0  0  0  0  0  0  0  0  0  0  0
    1.5739    4.4557   -0.9365 H   0  0  0  0  0  0  0  0  0  0  0  0
    0.9736    2.5753    0.5495 H   0  0  0  0  0  0  0  0  0  0  0  0
    3.1432   -0.2235    2.8460 H   0  0  0  0  0  0  0  0  0  0  0  0
    5.8241   -1.7112    3.0486 H   0  0  0  0  0  0  0  0  0  0  0  0
    5.5762    0.0420    3.5360 H   0  0  0  0  0  0  0  0  0  0  0  0
    6.8019   -0.3323    2.3091 H   0  0  0  0  0  0  0  0  0  0  0  0
    4.9699   -0.0048   -3.9144 H   0  0  0  0  0  0  0  0  0  0  0  0
    4.6094   -1.7405   -3.7918 H   0  0  0  0  0  0  0  0  0  0  0  0
    3.3874   -0.5315   -3.2671 H   0  0  0  0  0  0  0  0  0  0  0  0
   -4.9770    0.8238   -1.8774 H   0  0  0  0  0  0  0  0  0  0  0  0
   -5.0127    0.1351   -0.1780 H   0  0  0  0  0  0  0  0  0  0  0  0
  1  2  1  0
  2  3  2  0
  2  4  1  0
  4  5  1  0
  5  6  1  0
  6  7  1  0
  7  8  1  0
  8  9  2  0
  9 10  1  0
 10 11  1  0
 11 12  1  0
  9 13  1  0
 13 14  2  0
 14 15  1  0
 15 16  1  0
 16 17  2  0
 17 18  1  0
 18 19  2  0
 19 20  1  0
 19 21  1  0
 21 22  2  0
 15 23  1  0
 23 24  1  0
 24 25  2  0
 25 26  1  0
 26 27  1  0
 26 28  2  0
 28 29  1  0
 29 30  2  0
 30 31  1  0
 31 32  1  0
 31 33  1  0
 33 34  2  0
 23 35  1  0
 35 36  2  0
  6 37  1  0
 37  4  1  0
 14  7  1  0
 22 16  1  0
 34 24  1  0
 12 10  1  0
 35 13  1  0
 33 28  1  0
  1 38  1  0
  1 39  1  0
  1 40  1  0
  5 41  1  0
  5 42  1  0
  6 43  1  0
  8 44  1  0
 10 45  1  0
 11 46  1  0
 11 47  1  0
 12 48  1  0
 12 49  1  0
 15 50  1  0
 17 51  1  0
 18 52  1  0
 21 53  1  0
 22 54  1  0
 25 55  1  0
 27 56  1  0
 27 57  1  0
 27 58  1  0
 32 59  1  0
 32 60  1  0
 32 61  1  0
 37 62  1  0
 37 63  1  0
M  END
$$$$
