
     RDKit          3D

 72 73  0  0  0  0  0  0  0  0999 V2000
   -1.9355    5.4566    1.5787 C   0  0  0  0  0  0  0  0  0  0  0  0
   -2.9993    4.5337    1.0948 C   0  0  0  0  0  0  0  0  0  0  0  0
   -2.3764    3.5063    0.6475 C   0  0  0  0  0  0  0  0  0  0  0  0
   -1.0962    2.9742    0.4615 N   0  0  0  0  0  0  0  0  0  0  0  0
    0.1753    2.4457    0.2764 C   0  0  0  0  0  0  0  0  0  0  0  0
   -0.0450    2.4000   -0.9299 O   0  0  0  0  0  0  0  0  0  0  0  0
    1.3236    2.0768    1.1937 C   0  0  1  0  0  0  0  0  0  0  0  0
    0.7874    1.5428    2.4695 C   0  0  0  0  0  0  0  0  0  0  0  0
    2.0567    0.9023    3.6067 S   0  0  0  0  0  0  0  0  0  0  0  0
    2.8658   -0.9038    2.9051 S   0  0  0  0  0  0  0  0  0  0  0  0
    2.0923   -2.3826    3.4929 C   0  0  0  0  0  0  0  0  0  0  0  0
    0.6497   -2.5896    3.2511 C   0  0  0  0  0  0  0  0  0  0  0  0
    0.1555   -2.4356    1.8770 C   0  0  0  0  0  0  0  0  0  0  0  0
   -0.4309   -3.1650    0.8944 C   0  0  0  0  0  0  0  0  0  0  0  0
   -0.7946   -2.6229   -0.4071 C   0  0  2  0  0  0  0  0  0  0  0  0
    0.2562   -2.5880   -1.4824 C   0  0  0  0  0  0  0  0  0  0  0  0
    1.5029   -1.9544   -1.0572 C   0  0  0  0  0  0  0  0  0  0  0  0
    2.1319   -2.1692   -0.0048 O   0  0  0  0  0  0  0  0  0  0  0  0
    2.4368   -0.9930   -1.4710 N   0  0  0  0  0  0  0  0  0  0  0  0
    3.6624   -0.2936   -1.1864 C   0  0  2  0  0  0  0  0  0  0  0  0
    4.6818   -1.2032   -0.5095 C   0  0  0  0  0  0  0  0  0  0  0  0
    5.9427   -0.3726   -0.2556 C   0  0  0  0  0  0  0  0  0  0  0  0
    5.0629   -2.2851   -1.4927 C   0  0  0  0  0  0  0  0  0  0  0  0
    3.2971    0.8381   -0.2970 C   0  0  0  0  0  0  0  0  0  0  0  0
    3.9582    1.8320    0.1578 O   0  0  0  0  0  0  0  0  0  0  0  0
    2.1490    1.2618    0.3810 N   0  0  0  0  0  0  0  0  0  0  0  0
   -1.5043   -1.3737   -0.3623 O   0  0  0  0  0  0  0  0  0  0  0  0
   -2.8094   -1.2343   -0.8276 C   0  0  0  0  0  0  0  0  0  0  0  0
   -3.3058   -2.2913   -1.2702 O   0  0  0  0  0  0  0  0  0  0  0  0
   -3.7713   -0.1288   -0.9374 C   0  0  1  0  0  0  0  0  0  0  0  0
   -3.3892    1.1165   -0.3968 N   0  0  0  0  0  0  0  0  0  0  0  0
   -3.0953    2.3585    0.1503 C   0  0  0  0  0  0  0  0  0  0  0  0
   -4.3789    2.3920    0.1901 O   0  0  0  0  0  0  0  0  0  0  0  0
   -4.1327   -0.0081   -2.4175 C   0  0  0  0  0  0  0  0  0  0  0  0
   -5.0954    1.0946   -2.7044 C   0  0  0  0  0  0  0  0  0  0  0  0
   -4.7602   -1.2883   -2.8780 C   0  0  0  0  0  0  0  0  0  0  0  0
   -1.1814    5.7054    0.8091 H   0  0  0  0  0  0  0  0  0  0  0  0
   -1.4811    5.1358    2.5422 H   0  0  0  0  0  0  0  0  0  0  0  0
   -2.4604    6.4054    1.8138 H   0  0  0  0  0  0  0  0  0  0  0  0
   -4.0757    4.5332    1.0331 H   0  0  0  0  0  0  0  0  0  0  0  0
   -0.9637    3.1013    1.5160 H   0  0  0  0  0  0  0  0  0  0  0  0
    1.8847    3.0150    1.4657 H   0  0  0  0  0  0  0  0  0  0  0  0
    0.3561    2.4328    3.0179 H   0  0  0  0  0  0  0  0  0  0  0  0
   -0.0819    0.8582    2.3757 H   0  0  0  0  0  0  0  0  0  0  0  0
    2.6309   -3.2540    2.9869 H   0  0  0  0  0  0  0  0  0  0  0  0
    2.3428   -2.5807    4.5856 H   0  0  0  0  0  0  0  0  0  0  0  0
    0.2974   -3.5644    3.7011 H   0  0  0  0  0  0  0  0  0  0  0  0
    0.0861   -1.8364    3.8959 H   0  0  0  0  0  0  0  0  0  0  0  0
    0.3081   -1.3697    1.6262 H   0  0  0  0  0  0  0  0  0  0  0  0
   -0.5965   -4.2139    1.2027 H   0  0  0  0  0  0  0  0  0  0  0  0
   -1.5516   -3.3616   -0.8405 H   0  0  0  0  0  0  0  0  0  0  0  0
    0.4006   -3.6354   -1.8361 H   0  0  0  0  0  0  0  0  0  0  0  0
   -0.2004   -2.0620   -2.3427 H   0  0  0  0  0  0  0  0  0  0  0  0
    1.9620   -0.7164   -2.3829 H   0  0  0  0  0  0  0  0  0  0  0  0
    4.1189    0.0786   -2.0961 H   0  0  0  0  0  0  0  0  0  0  0  0
    4.3304   -1.6431    0.4168 H   0  0  0  0  0  0  0  0  0  0  0  0
    6.0045   -0.1186    0.8234 H   0  0  0  0  0  0  0  0  0  0  0  0
    6.0169    0.4946   -0.9224 H   0  0  0  0  0  0  0  0  0  0  0  0
    6.8497   -0.9952   -0.4567 H   0  0  0  0  0  0  0  0  0  0  0  0
    5.7370   -3.0257   -0.9755 H   0  0  0  0  0  0  0  0  0  0  0  0
    4.1726   -2.8007   -1.9029 H   0  0  0  0  0  0  0  0  0  0  0  0
    5.6526   -1.7886   -2.3104 H   0  0  0  0  0  0  0  0  0  0  0  0
    1.5019    0.4616    0.1266 H   0  0  0  0  0  0  0  0  0  0  0  0
   -4.7296   -0.4113   -0.4634 H   0  0  0  0  0  0  0  0  0  0  0  0
   -2.3520    1.1168   -0.4959 H   0  0  0  0  0  0  0  0  0  0  0  0
   -3.2056    0.1523   -2.9791 H   0  0  0  0  0  0  0  0  0  0  0  0
   -5.8654    1.2841   -1.9575 H   0  0  0  0  0  0  0  0  0  0  0  0
   -5.6357    0.9152   -3.6575 H   0  0  0  0  0  0  0  0  0  0  0  0
   -4.5583    2.0614   -2.8684 H   0  0  0  0  0  0  0  0  0  0  0  0
   -5.5301   -1.0454   -3.6832 H   0  0  0  0  0  0  0  0  0  0  0  0
   -5.3851   -1.7977   -2.1032 H   0  0  0  0  0  0  0  0  0  0  0  0
   -4.0665   -1.9795   -3.4046 H   0  0  0  0  0  0  0  0  0  0  0  0
  1  2  1  0
  2  3  2  0
  3  4  1  0
  4  5  1  0
  5  6  2  0
  5  7  1  0
  7  8  1  0
  8  9  1  0
  9 10  1  0
 10 11  1  0
 11 12  1  0
 12 13  1  0
 13 14  2  0
 14 15  1  0
 15 16  1  0
 16 17  1  0
 17 18  2  0
 17 19  1  0
 19 20  1  0
 20 21  1  0
 21 22  1  0
 21 23  1  0
 20 24  1  0
 24 25  2  0
 24 26  1  0
 15 27  1  0
 27 28  1  0
 28 29  2  0
 28 30  1  0
 30 31  1  0
 31 32  1  0
 32 33  2  0
 30 34  1  0
 34 35  1  0
 34 36  1  0
 32  3  1  0
 26  7  1  0
  1 37  1  0
  1 38  1  0
  1 39  1  0
  2 40  1  0
  4 41  1  0
  7 42  1  1
  8 43  1  0
  8 44  1  0
 11 45  1  0
 11 46  1  0
 12 47  1  0
 12 48  1  0
 13 49  1  0
 14 50  1  0
 15 51  1  6
 16 52  1  0
 16 53  1  0
 19 54  1  0
 20 55  1  6
 21 56  1  0
 22 57  1  0
 22 58  1  0
 22 59  1  0
 23 60  1  0
 23 61  1  0
 23 62  1  0
 26 63  1  0
 30 64  1  1
 31 65  1  0
 34 66  1  0
 35 67  1  0
 35 68  1  0
 35 69  1  0
 36 70  1  0
 36 71  1  0
 36 72  1  0
M  END
$$$$
