
     RDKit          3D

 37 39  0  0  0  0  0  0  0  0999 V2000
    4.9361    1.0596    2.3639 O   0  0  0  0  0  0  0  0  0  0  0  0
    4.2459    1.2614    1.3348 C   0  0  0  0  0  0  0  0  0  0  0  0
    4.2152    2.5110    0.7096 O   0  0  0  0  0  0  0  0  0  0  0  0
    3.4669    0.1603    0.7940 C   0  0  0  0  0  0  0  0  0  0  0  0
    3.4865   -1.0692    1.3950 C   0  0  0  0  0  0  0  0  0  0  0  0
    2.7429   -2.1063    0.8724 C   0  0  0  0  0  0  0  0  0  0  0  0
    1.9668   -1.9434   -0.2550 C   0  0  0  0  0  0  0  0  0  0  0  0
    1.9403   -0.7250   -0.8601 C   0  0  0  0  0  0  0  0  0  0  0  0
    0.9901   -0.4529   -2.2747 S   0  0  0  0  0  6  0  0  0  0  0  0
    1.6360    0.6490   -3.1017 O   0  0  0  0  0  0  0  0  0  0  0  0
    0.9435   -1.6638   -3.1727 O   0  0  0  0  0  0  0  0  0  0  0  0
   -0.6176    0.0764   -1.9139 N   0  0  0  0  0  0  0  0  0  0  0  0
   -0.5077    1.3087   -1.2243 C   0  0  0  0  0  0  0  0  0  0  0  0
   -1.7094    1.7762   -0.5001 C   0  0  0  0  0  0  0  0  0  0  0  0
   -2.6583    0.7425   -0.0875 C   0  0  0  0  0  0  0  0  0  0  0  0
   -3.7514    1.0913    0.6546 C   0  0  0  0  0  0  0  0  0  0  0  0
   -4.1399    3.0779    1.2407 I   0  0  0  0  0  0  0  0  0  0  0  0
   -4.6409    0.1013    1.0380 C   0  0  0  0  0  0  0  0  0  0  0  0
   -4.4745   -1.2153    0.7065 C   0  0  0  0  0  0  0  0  0  0  0  0
   -3.3466   -1.5291   -0.0513 C   0  0  0  0  0  0  0  0  0  0  0  0
   -2.4525   -0.5507   -0.4396 C   0  0  0  0  0  0  0  0  0  0  0  0
   -1.2862   -0.9736   -1.2403 C   0  0  0  0  0  0  0  0  0  0  0  0
    2.6790    0.3152   -0.3455 C   0  0  0  0  0  0  0  0  0  0  0  0
    5.0164    3.1037    0.8628 H   0  0  0  0  0  0  0  0  0  0  0  0
    4.0772   -1.2274    2.2690 H   0  0  0  0  0  0  0  0  0  0  0  0
    2.7930   -3.0590    1.3853 H   0  0  0  0  0  0  0  0  0  0  0  0
    1.4046   -2.8127   -0.6104 H   0  0  0  0  0  0  0  0  0  0  0  0
   -0.1378    2.0914   -1.9256 H   0  0  0  0  0  0  0  0  0  0  0  0
    0.3235    1.1991   -0.4665 H   0  0  0  0  0  0  0  0  0  0  0  0
   -2.2705    2.4749   -1.1896 H   0  0  0  0  0  0  0  0  0  0  0  0
   -1.4687    2.4210    0.3884 H   0  0  0  0  0  0  0  0  0  0  0  0
   -5.5301    0.3417    1.6342 H   0  0  0  0  0  0  0  0  0  0  0  0
   -5.1470   -2.0127    0.9879 H   0  0  0  0  0  0  0  0  0  0  0  0
   -3.2038   -2.5541   -0.3177 H   0  0  0  0  0  0  0  0  0  0  0  0
   -0.5632   -1.4419   -0.5179 H   0  0  0  0  0  0  0  0  0  0  0  0
   -1.6563   -1.7397   -1.9627 H   0  0  0  0  0  0  0  0  0  0  0  0
    2.6987    1.3139   -0.7857 H   0  0  0  0  0  0  0  0  0  0  0  0
  1  2  2  0
  2  3  1  0
  2  4  1  0
  4  5  2  0
  5  6  1  0
  6  7  2  0
  7  8  1  0
  8  9  1  0
  9 10  2  0
  9 11  2  0
  9 12  1  0
 12 13  1  0
 13 14  1  0
 14 15  1  0
 15 16  2  0
 16 17  1  0
 16 18  1  0
 18 19  2  0
 19 20  1  0
 20 21  2  0
 21 22  1  0
  8 23  2  0
 23  4  1  0
 22 12  1  0
 21 15  1  0
  3 24  1  0
  5 25  1  0
  6 26  1  0
  7 27  1  0
 13 28  1  0
 13 29  1  0
 14 30  1  0
 14 31  1  0
 18 32  1  0
 19 33  1  0
 20 34  1  0
 22 35  1  0
 22 36  1  0
 23 37  1  0
M  END
$$$$
