
     RDKit          3D

 55 55  0  0  0  0  0  0  0  0999 V2000
   -5.1043   -4.3748    0.4612 C   0  0  0  0  0  0  0  0  0  0  0  0
   -4.6267   -3.7951   -0.7918 N   0  0  0  0  0  0  0  0  0  0  0  0
   -5.1343   -4.2245   -2.0973 C   0  0  0  0  0  0  0  0  0  0  0  0
   -3.6483   -2.7798   -0.8943 C   0  0  0  0  0  0  0  0  0  0  0  0
   -2.9524   -2.0142   -1.6061 O   0  0  0  0  0  0  0  0  0  0  0  0
   -3.0200   -2.2067    0.1990 O   0  0  0  0  0  0  0  0  0  0  0  0
   -2.0643   -1.2132    0.0595 C   0  0  0  0  0  0  0  0  0  0  0  0
   -0.7502   -1.6258   -0.0328 C   0  0  0  0  0  0  0  0  0  0  0  0
    0.2321   -0.6460   -0.1727 C   0  0  0  0  0  0  0  0  0  0  0  0
   -0.1413    0.6960   -0.2134 C   0  0  0  0  0  0  0  0  0  0  0  0
   -1.4852    1.0542   -0.1159 C   0  0  0  0  0  0  0  0  0  0  0  0
   -1.6545    2.4315   -0.1759 O   0  0  0  0  0  0  0  0  0  0  0  0
   -1.9356    3.2401    0.8872 C   0  0  0  0  0  0  0  0  0  0  0  0
   -2.1487    3.3020    2.1248 O   0  0  0  0  0  0  0  0  0  0  0  0
   -2.0392    4.6065    0.4388 N   0  0  0  0  0  0  0  0  0  0  0  0
   -2.3424    5.7098    1.3538 C   0  0  0  0  0  0  0  0  0  0  0  0
   -1.8833    5.1720   -0.8856 C   0  0  0  0  0  0  0  0  0  0  0  0
   -2.4511    0.0987    0.0209 C   0  0  0  0  0  0  0  0  0  0  0  0
    1.6815   -1.0488   -0.2890 C   0  0  0  0  0  0  0  0  0  0  0  0
    2.2312   -0.2941   -1.2981 O   0  0  0  0  0  0  0  0  0  0  0  0
    2.3890   -0.7766    1.0002 C   0  0  0  0  0  0  0  0  0  0  0  0
    3.7409   -1.0657    1.1147 N   0  0  0  0  0  0  0  0  0  0  0  0
    4.7640   -0.4097    0.4495 C   0  0  0  0  0  0  0  0  0  0  0  0
    4.7148    1.1016    0.4822 C   0  0  0  0  0  0  0  0  0  0  0  0
    6.0647   -0.7356    1.2571 C   0  0  0  0  0  0  0  0  0  0  0  0
    5.0333   -0.8624   -0.9516 C   0  0  0  0  0  0  0  0  0  0  0  0
   -4.7748   -3.7208    1.2777 H   0  0  0  0  0  0  0  0  0  0  0  0
   -6.2029   -4.4572    0.3488 H   0  0  0  0  0  0  0  0  0  0  0  0
   -4.7233   -5.4315    0.5707 H   0  0  0  0  0  0  0  0  0  0  0  0
   -4.3124   -4.7760   -2.5955 H   0  0  0  0  0  0  0  0  0  0  0  0
   -5.3505   -3.3609   -2.7334 H   0  0  0  0  0  0  0  0  0  0  0  0
   -5.9685   -4.9430   -1.9775 H   0  0  0  0  0  0  0  0  0  0  0  0
   -0.4749   -2.6748    0.0008 H   0  0  0  0  0  0  0  0  0  0  0  0
    0.6921    1.3966   -0.3243 H   0  0  0  0  0  0  0  0  0  0  0  0
   -2.5499    5.3442    2.3757 H   0  0  0  0  0  0  0  0  0  0  0  0
   -3.2869    6.1747    0.9928 H   0  0  0  0  0  0  0  0  0  0  0  0
   -1.5536    6.4860    1.3118 H   0  0  0  0  0  0  0  0  0  0  0  0
   -1.0943    5.9628   -0.8560 H   0  0  0  0  0  0  0  0  0  0  0  0
   -2.8208    5.6414   -1.1863 H   0  0  0  0  0  0  0  0  0  0  0  0
   -1.5424    4.4103   -1.6230 H   0  0  0  0  0  0  0  0  0  0  0  0
   -3.4557    0.4481    0.0885 H   0  0  0  0  0  0  0  0  0  0  0  0
    1.6954   -2.1349   -0.5371 H   0  0  0  0  0  0  0  0  0  0  0  0
    1.5208   -0.0174   -1.9301 H   0  0  0  0  0  0  0  0  0  0  0  0
    1.8412   -1.4299    1.7664 H   0  0  0  0  0  0  0  0  0  0  0  0
    2.0934    0.2601    1.3183 H   0  0  0  0  0  0  0  0  0  0  0  0
    4.0122   -1.8175    1.7856 H   0  0  0  0  0  0  0  0  0  0  0  0
    5.7188    1.4355    0.1179 H   0  0  0  0  0  0  0  0  0  0  0  0
    3.9967    1.5369   -0.2413 H   0  0  0  0  0  0  0  0  0  0  0  0
    4.6408    1.5028    1.5061 H   0  0  0  0  0  0  0  0  0  0  0  0
    6.3087   -1.8000    1.1281 H   0  0  0  0  0  0  0  0  0  0  0  0
    6.8132   -0.0345    0.8656 H   0  0  0  0  0  0  0  0  0  0  0  0
    5.8241   -0.4345    2.2942 H   0  0  0  0  0  0  0  0  0  0  0  0
    4.8593   -0.0590   -1.7244 H   0  0  0  0  0  0  0  0  0  0  0  0
    6.1488   -1.0754   -1.0878 H   0  0  0  0  0  0  0  0  0  0  0  0
    4.4759   -1.7716   -1.2572 H   0  0  0  0  0  0  0  0  0  0  0  0
  1  2  1  0
  2  3  1  0
  2  4  1  0
  4  5  2  0
  4  6  1  0
  6  7  1  0
  7  8  2  0
  8  9  1  0
  9 10  2  0
 10 11  1  0
 11 12  1  0
 12 13  1  0
 13 14  2  0
 13 15  1  0
 15 16  1  0
 15 17  1  0
 11 18  2  0
  9 19  1  0
 19 20  1  0
 19 21  1  0
 21 22  1  0
 22 23  1  0
 23 24  1  0
 23 25  1  0
 23 26  1  0
 18  7  1  0
  1 27  1  0
  1 28  1  0
  1 29  1  0
  3 30  1  0
  3 31  1  0
  3 32  1  0
  8 33  1  0
 10 34  1  0
 16 35  1  0
 16 36  1  0
 16 37  1  0
 17 38  1  0
 17 39  1  0
 17 40  1  0
 18 41  1  0
 19 42  1  0
 20 43  1  0
 21 44  1  0
 21 45  1  0
 22 46  1  0
 24 47  1  0
 24 48  1  0
 24 49  1  0
 25 50  1  0
 25 51  1  0
 25 52  1  0
 26 53  1  0
 26 54  1  0
 26 55  1  0
M  END
$$$$
