
     RDKit          3D

 59 63  0  0  0  0  0  0  0  0999 V2000
    6.0129    3.9154    0.8567 C   0  0  0  0  0  0  0  0  0  0  0  0
    6.7418    2.6452    1.0834 C   0  0  0  0  0  0  0  0  0  0  0  0
    7.4990    2.2578    2.1301 N   0  0  0  0  0  0  0  0  0  0  0  0
    7.9465    1.0379    1.8857 N   0  0  0  0  0  0  0  0  0  0  0  0
    7.4717    0.6591    0.6876 C   0  0  0  0  0  0  0  0  0  0  0  0
    7.7239   -0.6251    0.0293 C   0  0  0  0  0  0  0  0  0  0  0  0
    6.8149   -1.6373    0.3193 O   0  0  0  0  0  0  0  0  0  0  0  0
    5.4508   -1.5957    0.0713 C   0  0  0  0  0  0  0  0  0  0  0  0
    4.6751   -2.6842    0.4158 C   0  0  0  0  0  0  0  0  0  0  0  0
    3.3420   -2.7162    0.2053 N   0  0  0  0  0  0  0  0  0  0  0  0
    2.7118   -1.6700   -0.3573 C   0  0  0  0  0  0  0  0  0  0  0  0
    1.2715   -1.6574   -0.6057 C   0  0  0  0  0  0  0  0  0  0  0  0
    0.7090   -0.5643   -1.1693 F   0  0  0  0  0  0  0  0  0  0  0  0
    0.4815   -2.6656   -0.3069 C   0  0  0  0  0  0  0  0  0  0  0  0
   -0.9553   -2.7021   -0.5331 C   0  0  0  0  0  0  0  0  0  0  0  0
   -1.5241   -3.8991   -0.9276 C   0  0  0  0  0  0  0  0  0  0  0  0
   -2.8716   -4.0438   -1.1649 C   0  0  0  0  0  0  0  0  0  0  0  0
   -3.6872   -2.9464   -1.0013 C   0  0  0  0  0  0  0  0  0  0  0  0
   -5.0156   -3.0381   -1.2219 F   0  0  0  0  0  0  0  0  0  0  0  0
   -3.1299   -1.7370   -0.6052 C   0  0  0  0  0  0  0  0  0  0  0  0
   -4.0480   -0.5501   -0.4291 C   0  0  1  0  0  0  0  0  0  0  0  0
   -4.7684   -0.3267   -1.7572 C   0  0  0  0  0  0  0  0  0  0  0  0
   -4.9805   -0.9628    0.5901 N   0  0  0  0  0  0  0  0  0  0  0  0
   -5.7116   -0.1786    1.2748 C   0  0  0  0  0  0  0  0  0  0  0  0
   -6.5938   -0.6468    2.2455 N   0  0  0  0  0  0  0  0  0  0  0  0
   -5.5587    1.5637    0.9565 S   0  0  0  0  0  0  0  0  0  0  0  0
   -3.7866    1.7902    0.5179 C   0  0  1  0  0  0  0  0  0  0  0  0
   -3.1929    3.4262    0.3161 S   0  0  0  0  0  6  0  0  0  0  0  0
   -4.0391    4.2939   -0.9536 C   0  0  0  0  0  0  0  0  0  0  0  0
   -3.3809    4.1961    1.6119 O   0  0  0  0  0  0  0  0  0  0  0  0
   -1.7155    3.3348   -0.0003 O   0  0  0  0  0  0  0  0  0  0  0  0
   -2.8207    0.8727    1.3127 C   0  0  0  0  0  0  0  0  0  0  0  0
   -3.1947    0.6186   -0.1116 C   0  0  1  0  0  0  0  0  0  0  0  0
   -1.7776   -1.6221   -0.3750 C   0  0  0  0  0  0  0  0  0  0  0  0
    3.4902   -0.5850   -0.7000 C   0  0  0  0  0  0  0  0  0  0  0  0
    4.8198   -0.5493   -0.4917 N   0  0  0  0  0  0  0  0  0  0  0  0
    6.7528    1.6417    0.2295 O   0  0  0  0  0  0  0  0  0  0  0  0
    6.1760    4.2523   -0.2053 H   0  0  0  0  0  0  0  0  0  0  0  0
    4.9249    3.7894    1.0515 H   0  0  0  0  0  0  0  0  0  0  0  0
    6.4481    4.6962    1.5188 H   0  0  0  0  0  0  0  0  0  0  0  0
    7.8292   -0.4287   -1.0617 H   0  0  0  0  0  0  0  0  0  0  0  0
    8.7360   -0.9943    0.3593 H   0  0  0  0  0  0  0  0  0  0  0  0
    5.1925   -3.5401    0.8765 H   0  0  0  0  0  0  0  0  0  0  0  0
    0.9711   -3.5350    0.1480 H   0  0  0  0  0  0  0  0  0  0  0  0
   -0.8768   -4.7550   -1.0536 H   0  0  0  0  0  0  0  0  0  0  0  0
   -3.2866   -5.0102   -1.4774 H   0  0  0  0  0  0  0  0  0  0  0  0
   -4.9507    0.7561   -1.9337 H   0  0  0  0  0  0  0  0  0  0  0  0
   -5.7045   -0.9141   -1.8133 H   0  0  0  0  0  0  0  0  0  0  0  0
   -4.0653   -0.6577   -2.5510 H   0  0  0  0  0  0  0  0  0  0  0  0
   -6.5737   -0.3066    3.2311 H   0  0  0  0  0  0  0  0  0  0  0  0
   -7.3088   -1.3629    2.0024 H   0  0  0  0  0  0  0  0  0  0  0  0
   -5.1049    3.9783   -0.9790 H   0  0  0  0  0  0  0  0  0  0  0  0
   -3.6044    4.1429   -1.9505 H   0  0  0  0  0  0  0  0  0  0  0  0
   -4.0657    5.3903   -0.6845 H   0  0  0  0  0  0  0  0  0  0  0  0
   -3.2966    0.2120    2.0654 H   0  0  0  0  0  0  0  0  0  0  0  0
   -1.7880    1.2277    1.4552 H   0  0  0  0  0  0  0  0  0  0  0  0
   -2.4489    0.8420   -0.9176 H   0  0  0  0  0  0  0  0  0  0  0  0
   -1.3427   -0.6855   -0.0681 H   0  0  0  0  0  0  0  0  0  0  0  0
    2.9769    0.2533   -1.1522 H   0  0  0  0  0  0  0  0  0  0  0  0
  1  2  1  0
  2  3  2  0
  3  4  1  0
  4  5  2  0
  5  6  1  0
  6  7  1  0
  7  8  1  0
  8  9  2  0
  9 10  1  0
 10 11  2  0
 11 12  1  0
 12 13  1  0
 12 14  2  0
 14 15  1  0
 15 16  2  0
 16 17  1  0
 17 18  2  0
 18 19  1  0
 18 20  1  0
 20 21  1  0
 21 22  1  6
 21 23  1  0
 23 24  2  0
 24 25  1  0
 24 26  1  0
 26 27  1  0
 27 28  1  6
 28 29  1  0
 28 30  2  0
 28 31  2  0
 27 32  1  0
 32 33  1  0
 20 34  2  0
 11 35  1  0
 35 36  2  0
  5 37  1  0
 37  2  1  0
 36  8  1  0
 34 15  1  0
 33 21  1  0
 33 27  1  0
  1 38  1  0
  1 39  1  0
  1 40  1  0
  6 41  1  0
  6 42  1  0
  9 43  1  0
 14 44  1  0
 16 45  1  0
 17 46  1  0
 22 47  1  0
 22 48  1  0
 22 49  1  0
 25 50  1  0
 25 51  1  0
 29 52  1  0
 29 53  1  0
 29 54  1  0
 32 55  1  0
 32 56  1  0
 33 57  1  6
 34 58  1  0
 35 59  1  0
M  END
$$$$
