
     RDKit          3D

 52 54  0  0  0  0  0  0  0  0999 V2000
    0.5312   -3.6769   -1.1015 C   0  0  0  0  0  0  0  0  0  0  0  0
    0.9741   -2.6199   -2.0324 C   0  0  0  0  0  0  0  0  0  0  0  0
    1.8559   -1.6160   -1.4081 C   0  0  0  0  0  0  0  0  0  0  0  0
    3.2465   -1.7774   -1.5986 C   0  0  0  0  0  0  0  0  0  0  0  0
    4.1473   -0.9161   -1.1150 N   0  0  0  0  0  0  0  0  0  0  0  0
    3.8137    0.1761   -0.4074 C   0  0  0  0  0  0  0  0  0  0  0  0
    4.8423    1.0671    0.0912 C   0  0  0  0  0  0  0  0  0  0  0  0
    4.5315    2.1923    0.8174 C   0  0  0  0  0  0  0  0  0  0  0  0
    5.5435    3.0283    1.2846 C   0  0  0  0  0  0  0  0  0  0  0  0
    5.1332    4.4619    2.2113 Cl  0  0  0  0  0  0  0  0  0  0  0  0
    6.8756    2.7655    1.0417 C   0  0  0  0  0  0  0  0  0  0  0  0
    7.1979    1.6403    0.3148 C   0  0  0  0  0  0  0  0  0  0  0  0
    6.1848    0.8304   -0.1359 C   0  0  0  0  0  0  0  0  0  0  0  0
    6.5104   -0.2729   -0.8494 F   0  0  0  0  0  0  0  0  0  0  0  0
    2.4697    0.3643   -0.2023 C   0  0  0  0  0  0  0  0  0  0  0  0
    1.4954   -0.5170   -0.6928 C   0  0  0  0  0  0  0  0  0  0  0  0
    0.1100   -0.1858   -0.5255 N   0  0  0  0  0  0  0  0  0  0  0  0
   -0.7061   -0.8520    0.4173 C   0  0  0  0  0  0  0  0  0  0  0  0
   -0.0742   -1.7375    1.3285 C   0  0  0  0  0  0  0  0  0  0  0  0
   -0.8597   -2.3640    2.2548 C   0  0  0  0  0  0  0  0  0  0  0  0
   -2.1917   -2.1629    2.3191 N   0  0  0  0  0  0  0  0  0  0  0  0
   -2.8108   -1.3287    1.4646 C   0  0  0  0  0  0  0  0  0  0  0  0
   -2.0470   -0.6525    0.4831 C   0  0  0  0  0  0  0  0  0  0  0  0
   -2.7620    0.1897   -0.4409 C   0  0  0  0  0  0  0  0  0  0  0  0
   -2.2004    0.6816   -1.4430 O   0  0  0  0  0  0  0  0  0  0  0  0
   -4.1452    0.5504   -0.3245 N   0  0  0  0  0  0  0  0  0  0  0  0
   -4.7959    1.4027   -1.3018 C   0  0  0  0  0  0  0  0  0  0  0  0
   -6.2592    1.6115   -0.9021 C   0  0  2  0  0  0  0  0  0  0  0  0
   -6.3728    2.2980    0.4324 C   0  0  0  0  0  0  0  0  0  0  0  0
   -6.9474    0.4063   -0.8340 O   0  0  0  0  0  0  0  0  0  0  0  0
   -0.5516   -3.6114   -0.8193 H   0  0  0  0  0  0  0  0  0  0  0  0
    1.1868   -3.8121   -0.2140 H   0  0  0  0  0  0  0  0  0  0  0  0
    0.5945   -4.6761   -1.6289 H   0  0  0  0  0  0  0  0  0  0  0  0
    1.4952   -3.1159   -2.9097 H   0  0  0  0  0  0  0  0  0  0  0  0
    0.1278   -2.0797   -2.5307 H   0  0  0  0  0  0  0  0  0  0  0  0
    3.5668   -2.6563   -2.1707 H   0  0  0  0  0  0  0  0  0  0  0  0
    3.5384    2.4783    1.0553 H   0  0  0  0  0  0  0  0  0  0  0  0
    7.6662    3.4066    1.3996 H   0  0  0  0  0  0  0  0  0  0  0  0
    8.2460    1.4401    0.1283 H   0  0  0  0  0  0  0  0  0  0  0  0
    2.1278    1.2119    0.3513 H   0  0  0  0  0  0  0  0  0  0  0  0
   -0.2080    0.5734   -1.1305 H   0  0  0  0  0  0  0  0  0  0  0  0
    0.9726   -1.8918    1.2730 H   0  0  0  0  0  0  0  0  0  0  0  0
   -0.4304   -3.0617    2.9886 H   0  0  0  0  0  0  0  0  0  0  0  0
   -3.8817   -1.1697    1.5136 H   0  0  0  0  0  0  0  0  0  0  0  0
   -4.6831    0.1986    0.4742 H   0  0  0  0  0  0  0  0  0  0  0  0
   -4.7982    1.0089   -2.3156 H   0  0  0  0  0  0  0  0  0  0  0  0
   -4.3084    2.3860   -1.2535 H   0  0  0  0  0  0  0  0  0  0  0  0
   -6.7822    2.2183   -1.6713 H   0  0  0  0  0  0  0  0  0  0  0  0
   -5.4775    2.9420    0.5830 H   0  0  0  0  0  0  0  0  0  0  0  0
   -7.2625    2.9766    0.3863 H   0  0  0  0  0  0  0  0  0  0  0  0
   -6.5544    1.6153    1.2655 H   0  0  0  0  0  0  0  0  0  0  0  0
   -7.8745    0.6316   -0.5838 H   0  0  0  0  0  0  0  0  0  0  0  0
  1  2  1  0
  2  3  1  0
  3  4  2  0
  4  5  1  0
  5  6  2  0
  6  7  1  0
  7  8  2  0
  8  9  1  0
  9 10  1  0
  9 11  2  0
 11 12  1  0
 12 13  2  0
 13 14  1  0
  6 15  1  0
 15 16  2  0
 16 17  1  0
 17 18  1  0
 18 19  2  0
 19 20  1  0
 20 21  2  0
 21 22  1  0
 22 23  2  0
 23 24  1  0
 24 25  2  0
 24 26  1  0
 26 27  1  0
 27 28  1  0
 28 29  1  0
 28 30  1  0
 16  3  1  0
 23 18  1  0
 13  7  1  0
  1 31  1  0
  1 32  1  0
  1 33  1  0
  2 34  1  0
  2 35  1  0
  4 36  1  0
  8 37  1  0
 11 38  1  0
 12 39  1  0
 15 40  1  0
 17 41  1  0
 19 42  1  0
 20 43  1  0
 22 44  1  0
 26 45  1  0
 27 46  1  0
 27 47  1  0
 28 48  1  6
 29 49  1  0
 29 50  1  0
 29 51  1  0
 30 52  1  0
M  END
$$$$
