
     RDKit          3D

 64 67  0  0  0  0  0  0  0  0999 V2000
   -5.1926    4.9671    1.3080 C   0  0  0  0  0  0  0  0  0  0  0  0
   -5.4072    4.1226    2.5460 C   0  0  0  0  0  0  0  0  0  0  0  0
   -4.6294    2.8330    2.3611 C   0  0  0  0  0  0  0  0  0  0  0  0
   -5.1297    2.0929    1.1288 C   0  0  0  0  0  0  0  0  0  0  0  0
   -4.4127    0.8575    0.9222 N   0  0  0  0  0  0  0  0  0  0  0  0
   -3.0035    0.8025    0.6933 C   0  0  0  0  0  0  0  0  0  0  0  0
   -2.2504    1.9034    0.6471 N   0  0  0  0  0  0  0  0  0  0  0  0
   -0.9039    1.8606    0.4293 C   0  0  0  0  0  0  0  0  0  0  0  0
   -0.2772    0.6478    0.2477 C   0  0  0  0  0  0  0  0  0  0  0  0
    1.1605    0.5989    0.0137 C   0  0  0  0  0  0  0  0  0  0  0  0
    1.9227    1.7703   -0.0284 C   0  0  0  0  0  0  0  0  0  0  0  0
    3.2764    1.6959   -0.2502 C   0  0  0  0  0  0  0  0  0  0  0  0
    3.9068    0.5106   -0.4320 C   0  0  0  0  0  0  0  0  0  0  0  0
    5.3601    0.4176   -0.6707 C   0  0  0  0  0  0  0  0  0  0  0  0
    5.9294   -0.8274   -0.8466 C   0  0  0  0  0  0  0  0  0  0  0  0
    7.2860   -0.9924   -1.0747 C   0  0  0  0  0  0  0  0  0  0  0  0
    8.0876    0.1448   -1.1251 C   0  0  0  0  0  0  0  0  0  0  0  0
    7.5499    1.3999   -0.9536 C   0  0  0  0  0  0  0  0  0  0  0  0
    8.4259    2.5621   -1.0142 C   0  0  0  0  0  0  0  0  0  0  0  0
    9.6521    2.4833   -1.2155 O   0  0  0  0  0  0  0  0  0  0  0  0
    7.8713    3.8221   -0.8396 O   0  0  0  0  0  0  0  0  0  0  0  0
    6.1936    1.5035   -0.7298 C   0  0  0  0  0  0  0  0  0  0  0  0
    3.1546   -0.6067   -0.3878 N   0  0  0  0  0  0  0  0  0  0  0  0
    1.8667   -0.5257   -0.1761 N   0  0  0  0  0  0  0  0  0  0  0  0
   -1.0419   -0.4724    0.2945 C   0  0  0  0  0  0  0  0  0  0  0  0
   -0.5248   -1.7678    0.1290 N   0  0  0  0  0  0  0  0  0  0  0  0
   -1.4830   -2.8902    0.1993 C   0  0  1  0  0  0  0  0  0  0  0  0
   -2.4762   -2.7006   -0.9142 C   0  0  0  0  0  0  0  0  0  0  0  0
   -2.1771   -3.7590   -1.9829 C   0  0  0  0  0  0  0  0  0  0  0  0
   -2.4892   -5.1009   -1.3601 C   0  0  2  0  0  0  0  0  0  0  0  0
   -3.8815   -5.2043   -1.2134 O   0  0  0  0  0  0  0  0  0  0  0  0
   -1.7732   -5.2834   -0.0565 C   0  0  0  0  0  0  0  0  0  0  0  0
   -0.7354   -4.1890    0.1222 C   0  0  0  0  0  0  0  0  0  0  0  0
   -2.3644   -0.3646    0.5128 N   0  0  0  0  0  0  0  0  0  0  0  0
   -4.2836    4.6218    0.7682 H   0  0  0  0  0  0  0  0  0  0  0  0
   -6.0572    4.9111    0.6159 H   0  0  0  0  0  0  0  0  0  0  0  0
   -4.9849    6.0135    1.6147 H   0  0  0  0  0  0  0  0  0  0  0  0
   -4.9689    4.6483    3.4079 H   0  0  0  0  0  0  0  0  0  0  0  0
   -6.5003    3.8985    2.7021 H   0  0  0  0  0  0  0  0  0  0  0  0
   -4.7297    2.2256    3.2726 H   0  0  0  0  0  0  0  0  0  0  0  0
   -3.5881    3.1030    2.1883 H   0  0  0  0  0  0  0  0  0  0  0  0
   -4.8826    2.7441    0.2399 H   0  0  0  0  0  0  0  0  0  0  0  0
   -6.2090    1.8978    1.1841 H   0  0  0  0  0  0  0  0  0  0  0  0
   -4.9339   -0.0445    0.9381 H   0  0  0  0  0  0  0  0  0  0  0  0
   -0.3533    2.7986    0.4044 H   0  0  0  0  0  0  0  0  0  0  0  0
    1.4450    2.7282    0.1135 H   0  0  0  0  0  0  0  0  0  0  0  0
    3.8332    2.6149   -0.2766 H   0  0  0  0  0  0  0  0  0  0  0  0
    5.2669   -1.6926   -0.7998 H   0  0  0  0  0  0  0  0  0  0  0  0
    7.7146   -1.9834   -1.2108 H   0  0  0  0  0  0  0  0  0  0  0  0
    9.1397   -0.0253   -1.3048 H   0  0  0  0  0  0  0  0  0  0  0  0
    8.3948    4.6282   -0.5321 H   0  0  0  0  0  0  0  0  0  0  0  0
    5.8047    2.4836   -0.6008 H   0  0  0  0  0  0  0  0  0  0  0  0
    0.4576   -2.0245   -0.0373 H   0  0  0  0  0  0  0  0  0  0  0  0
   -2.0305   -2.8318    1.1674 H   0  0  0  0  0  0  0  0  0  0  0  0
   -2.2911   -1.7350   -1.4195 H   0  0  0  0  0  0  0  0  0  0  0  0
   -3.5257   -2.8062   -0.5695 H   0  0  0  0  0  0  0  0  0  0  0  0
   -1.1257   -3.6426   -2.2593 H   0  0  0  0  0  0  0  0  0  0  0  0
   -2.8469   -3.5758   -2.8711 H   0  0  0  0  0  0  0  0  0  0  0  0
   -2.1109   -5.8692   -2.0788 H   0  0  0  0  0  0  0  0  0  0  0  0
   -4.2430   -5.4388   -2.1255 H   0  0  0  0  0  0  0  0  0  0  0  0
   -1.2501   -6.2474   -0.0311 H   0  0  0  0  0  0  0  0  0  0  0  0
   -2.4736   -5.1750    0.8127 H   0  0  0  0  0  0  0  0  0  0  0  0
    0.0279   -4.1877   -0.6735 H   0  0  0  0  0  0  0  0  0  0  0  0
   -0.1860   -4.3491    1.0770 H   0  0  0  0  0  0  0  0  0  0  0  0
  1  2  1  0
  2  3  1  0
  3  4  1  0
  4  5  1  0
  5  6  1  0
  6  7  2  0
  7  8  1  0
  8  9  2  0
  9 10  1  0
 10 11  2  0
 11 12  1  0
 12 13  2  0
 13 14  1  0
 14 15  2  0
 15 16  1  0
 16 17  2  0
 17 18  1  0
 18 19  1  0
 19 20  2  0
 19 21  1  0
 18 22  2  0
 13 23  1  0
 23 24  2  0
  9 25  1  0
 25 26  1  0
 26 27  1  0
 27 28  1  0
 28 29  1  0
 29 30  1  0
 30 31  1  0
 30 32  1  0
 32 33  1  0
 25 34  2  0
 34  6  1  0
 24 10  1  0
 33 27  1  0
 22 14  1  0
  1 35  1  0
  1 36  1  0
  1 37  1  0
  2 38  1  0
  2 39  1  0
  3 40  1  0
  3 41  1  0
  4 42  1  0
  4 43  1  0
  5 44  1  0
  8 45  1  0
 11 46  1  0
 12 47  1  0
 15 48  1  0
 16 49  1  0
 17 50  1  0
 21 51  1  0
 22 52  1  0
 26 53  1  0
 27 54  1  1
 28 55  1  0
 28 56  1  0
 29 57  1  0
 29 58  1  0
 30 59  1  6
 31 60  1  0
 32 61  1  0
 32 62  1  0
 33 63  1  0
 33 64  1  0
M  END
$$$$
