
     RDKit          3D

 46 51  0  0  0  0  0  0  0  0999 V2000
    4.8924    1.9362    1.6359 N   0  0  0  0  0  0  0  0  0  0  0  0
    3.6328    1.4383    1.2791 C   0  0  0  0  0  0  0  0  0  0  0  0
    2.7234    1.4478    2.1525 O   0  0  0  0  0  0  0  0  0  0  0  0
    3.3753    0.9220   -0.0644 C   0  0  0  0  0  0  0  0  0  0  0  0
    4.2956    0.8660   -1.0822 C   0  0  0  0  0  0  0  0  0  0  0  0
    3.6448    0.3306   -2.1286 N   0  0  0  0  0  0  0  0  0  0  0  0
    2.3542    0.0575   -1.7812 C   0  0  0  0  0  0  0  0  0  0  0  0
    1.2987   -0.4847   -2.4800 C   0  0  0  0  0  0  0  0  0  0  0  0
    0.0956   -0.6405   -1.8561 C   0  0  0  0  0  0  0  0  0  0  0  0
   -0.0535   -0.2612   -0.5534 C   0  0  0  0  0  0  0  0  0  0  0  0
   -1.3536   -0.4209    0.1330 C   0  0  0  0  0  0  0  0  0  0  0  0
   -2.0329    0.6801    0.6194 C   0  0  0  0  0  0  0  0  0  0  0  0
   -1.6137    2.0850    0.5502 C   0  0  0  0  0  0  0  0  0  0  0  0
   -1.4424    2.6699   -0.6845 C   0  0  0  0  0  0  0  0  0  0  0  0
   -1.0447    4.0020   -0.7875 C   0  0  0  0  0  0  0  0  0  0  0  0
   -0.8114    4.7728    0.3326 C   0  0  0  0  0  0  0  0  0  0  0  0
   -0.4248    6.0677    0.2329 F   0  0  0  0  0  0  0  0  0  0  0  0
   -0.9842    4.1833    1.5735 C   0  0  0  0  0  0  0  0  0  0  0  0
   -1.3811    2.8538    1.6696 C   0  0  0  0  0  0  0  0  0  0  0  0
   -3.1428    0.2114    1.1661 N   0  0  0  0  0  0  0  0  0  0  0  0
   -3.1625   -1.1021    1.0331 C   0  0  0  0  0  0  0  0  0  0  0  0
   -2.0427   -1.5530    0.3807 N   0  0  0  0  0  0  0  0  0  0  0  0
   -1.7529   -2.8116    0.0917 C   0  0  0  0  0  0  0  0  0  0  0  0
   -0.3979   -3.4516    0.1319 C   0  0  0  0  0  0  0  0  0  0  0  0
   -1.3256   -4.5916   -0.1895 C   0  0  0  0  0  0  0  0  0  0  0  0
   -2.0173   -3.6206   -1.1192 C   0  0  0  0  0  0  0  0  0  0  0  0
   -2.2134   -4.0193    0.8836 C   0  0  0  0  0  0  0  0  0  0  0  0
    1.0061    0.2627    0.0855 N   0  0  0  0  0  0  0  0  0  0  0  0
    2.1846    0.4250   -0.4964 N   0  0  0  0  0  0  0  0  0  0  0  0
    5.5441    1.3742    2.2243 H   0  0  0  0  0  0  0  0  0  0  0  0
    5.1976    2.8769    1.3180 H   0  0  0  0  0  0  0  0  0  0  0  0
    5.3223    1.1951   -1.0159 H   0  0  0  0  0  0  0  0  0  0  0  0
    1.4428   -0.7824   -3.5268 H   0  0  0  0  0  0  0  0  0  0  0  0
   -0.7300   -1.0616   -2.3949 H   0  0  0  0  0  0  0  0  0  0  0  0
   -1.6169    2.0931   -1.5719 H   0  0  0  0  0  0  0  0  0  0  0  0
   -0.9069    4.4718   -1.7626 H   0  0  0  0  0  0  0  0  0  0  0  0
   -0.8073    4.7682    2.4694 H   0  0  0  0  0  0  0  0  0  0  0  0
   -1.5211    2.3776    2.6427 H   0  0  0  0  0  0  0  0  0  0  0  0
   -3.9734   -1.7395    1.3999 H   0  0  0  0  0  0  0  0  0  0  0  0
    0.2827   -3.2857   -0.7084 H   0  0  0  0  0  0  0  0  0  0  0  0
    0.0812   -3.4710    1.1259 H   0  0  0  0  0  0  0  0  0  0  0  0
   -1.1035   -5.5458   -0.3647 H   0  0  0  0  0  0  0  0  0  0  0  0
   -3.0537   -3.9642   -1.3009 H   0  0  0  0  0  0  0  0  0  0  0  0
   -1.4248   -3.3192   -1.9859 H   0  0  0  0  0  0  0  0  0  0  0  0
   -3.2743   -4.2618    0.8200 H   0  0  0  0  0  0  0  0  0  0  0  0
   -1.7651   -3.9807    1.9037 H   0  0  0  0  0  0  0  0  0  0  0  0
  1  2  1  0
  2  3  2  0
  2  4  1  0
  4  5  2  0
  5  6  1  0
  6  7  2  0
  7  8  1  0
  8  9  2  0
  9 10  1  0
 10 11  1  0
 11 12  2  0
 12 13  1  0
 13 14  2  0
 14 15  1  0
 15 16  2  0
 16 17  1  0
 16 18  1  0
 18 19  2  0
 12 20  1  0
 20 21  2  0
 21 22  1  0
 22 23  1  0
 23 24  1  0
 24 25  1  0
 25 26  1  0
 25 27  1  0
 10 28  2  0
 28 29  1  0
 29  4  1  0
 29  7  1  0
 22 11  1  0
 26 23  1  0
 19 13  1  0
 27 23  1  0
  1 30  1  0
  1 31  1  0
  5 32  1  0
  8 33  1  0
  9 34  1  0
 14 35  1  0
 15 36  1  0
 18 37  1  0
 19 38  1  0
 21 39  1  0
 24 40  1  0
 24 41  1  0
 25 42  1  0
 26 43  1  0
 26 44  1  0
 27 45  1  0
 27 46  1  0
M  END
$$$$
