
     RDKit          3D

 57 61  0  0  0  0  0  0  0  0999 V2000
   -1.7827    0.7996    1.1905 C   0  0  1  0  0  0  0  0  0  0  0  0
   -1.4965   -0.6788    1.3099 C   0  0  0  0  0  0  0  0  0  0  0  0
   -0.1159   -1.0815    0.9006 C   0  0  0  0  0  0  0  0  0  0  0  0
    0.6488   -0.0475    0.2781 N   0  0  0  0  0  0  0  0  0  0  0  0
    1.7433   -0.6761   -0.4388 C   0  0  0  0  0  0  0  0  0  0  0  0
    2.7470   -1.3051    0.4741 C   0  0  0  0  0  0  0  0  0  0  0  0
    3.8728   -1.9446   -0.2887 C   0  0  0  0  0  0  0  0  0  0  0  0
    4.6014   -0.9541   -1.1236 C   0  0  0  0  0  0  0  0  0  0  0  0
    4.1071   -0.6579   -2.2488 O   0  0  0  0  0  0  0  0  0  0  0  0
    5.8475   -0.3017   -0.7325 C   0  0  0  0  0  0  0  0  0  0  0  0
    6.3995    0.5923   -1.6065 C   0  0  0  0  0  0  0  0  0  0  0  0
    7.5846    1.2109   -1.2307 C   0  0  0  0  0  0  0  0  0  0  0  0
    8.2057    0.9495   -0.0200 C   0  0  0  0  0  0  0  0  0  0  0  0
    9.3606    1.5790    0.3019 F   0  0  0  0  0  0  0  0  0  0  0  0
    7.6250    0.0301    0.8627 C   0  0  0  0  0  0  0  0  0  0  0  0
    6.4586   -0.5568    0.4551 C   0  0  0  0  0  0  0  0  0  0  0  0
   -0.0623    0.7669   -0.6528 C   0  0  0  0  0  0  0  0  0  0  0  0
   -1.4112    1.2096   -0.2154 C   0  0  1  0  0  0  0  0  0  0  0  0
   -2.5271    0.7226   -1.0302 C   0  0  0  0  0  0  0  0  0  0  0  0
   -2.8757    0.3797   -2.3303 C   0  0  0  0  0  0  0  0  0  0  0  0
   -4.1331   -0.0603   -2.6966 C   0  0  0  0  0  0  0  0  0  0  0  0
   -5.1628   -0.1910   -1.7546 C   0  0  0  0  0  0  0  0  0  0  0  0
   -4.8726    0.1362   -0.4464 C   0  0  0  0  0  0  0  0  0  0  0  0
   -3.5791    0.5708   -0.1636 C   0  0  0  0  0  0  0  0  0  0  0  0
   -3.2458    0.8997    1.1608 N   0  0  0  0  0  0  0  0  0  0  0  0
   -4.1883    1.2363    2.1771 C   0  0  0  0  0  0  0  0  0  0  0  0
   -5.5907    0.8791    1.8540 C   0  0  0  0  0  0  0  0  0  0  0  0
   -5.7810    0.0766    0.6608 N   0  0  0  0  0  0  0  0  0  0  0  0
   -6.8926   -0.8418    0.4789 C   0  0  0  0  0  0  0  0  0  0  0  0
   -1.3320    1.4135    1.9711 H   0  0  0  0  0  0  0  0  0  0  0  0
   -1.7162   -1.0289    2.3526 H   0  0  0  0  0  0  0  0  0  0  0  0
   -2.2381   -1.2101    0.6749 H   0  0  0  0  0  0  0  0  0  0  0  0
   -0.1685   -1.9772    0.2455 H   0  0  0  0  0  0  0  0  0  0  0  0
    0.4349   -1.4030    1.8102 H   0  0  0  0  0  0  0  0  0  0  0  0
    1.3473   -1.4253   -1.1762 H   0  0  0  0  0  0  0  0  0  0  0  0
    2.2619    0.1108   -1.0555 H   0  0  0  0  0  0  0  0  0  0  0  0
    3.0662   -0.5849    1.2326 H   0  0  0  0  0  0  0  0  0  0  0  0
    2.2134   -2.1365    1.0213 H   0  0  0  0  0  0  0  0  0  0  0  0
    4.5563   -2.4443    0.4112 H   0  0  0  0  0  0  0  0  0  0  0  0
    3.4161   -2.7338   -0.9398 H   0  0  0  0  0  0  0  0  0  0  0  0
    5.9405    0.8259   -2.5713 H   0  0  0  0  0  0  0  0  0  0  0  0
    8.0429    1.9324   -1.9207 H   0  0  0  0  0  0  0  0  0  0  0  0
    8.1685   -0.1181    1.7845 H   0  0  0  0  0  0  0  0  0  0  0  0
    6.0485   -1.2598    1.1705 H   0  0  0  0  0  0  0  0  0  0  0  0
    0.5570    1.6682   -0.8527 H   0  0  0  0  0  0  0  0  0  0  0  0
   -0.1688    0.2452   -1.6268 H   0  0  0  0  0  0  0  0  0  0  0  0
   -1.4963    2.3371   -0.2165 H   0  0  0  0  0  0  0  0  0  0  0  0
   -2.0688    0.4824   -3.0613 H   0  0  0  0  0  0  0  0  0  0  0  0
   -4.3669   -0.3189   -3.7203 H   0  0  0  0  0  0  0  0  0  0  0  0
   -6.1668   -0.5247   -1.9503 H   0  0  0  0  0  0  0  0  0  0  0  0
   -3.9132    0.8230    3.1777 H   0  0  0  0  0  0  0  0  0  0  0  0
   -4.1334    2.3619    2.2863 H   0  0  0  0  0  0  0  0  0  0  0  0
   -6.0616    0.3760    2.7402 H   0  0  0  0  0  0  0  0  0  0  0  0
   -6.1957    1.8195    1.6763 H   0  0  0  0  0  0  0  0  0  0  0  0
   -7.5231   -0.5872   -0.3883 H   0  0  0  0  0  0  0  0  0  0  0  0
   -7.5021   -0.8388    1.4236 H   0  0  0  0  0  0  0  0  0  0  0  0
   -6.4862   -1.8655    0.3762 H   0  0  0  0  0  0  0  0  0  0  0  0
  1  2  1  0
  2  3  1  0
  3  4  1  0
  4  5  1  0
  5  6  1  0
  6  7  1  0
  7  8  1  0
  8  9  2  0
  8 10  1  0
 10 11  2  0
 11 12  1  0
 12 13  2  0
 13 14  1  0
 13 15  1  0
 15 16  2  0
  4 17  1  0
 17 18  1  0
 18 19  1  0
 19 20  2  0
 20 21  1  0
 21 22  2  0
 22 23  1  0
 23 24  2  0
 24 25  1  0
 25 26  1  0
 26 27  1  0
 27 28  1  0
 28 29  1  0
 18  1  1  0
 24 19  1  0
 25  1  1  0
 16 10  1  0
 28 23  1  0
  1 30  1  1
  2 31  1  0
  2 32  1  0
  3 33  1  0
  3 34  1  0
  5 35  1  0
  5 36  1  0
  6 37  1  0
  6 38  1  0
  7 39  1  0
  7 40  1  0
 11 41  1  0
 12 42  1  0
 15 43  1  0
 16 44  1  0
 17 45  1  0
 17 46  1  0
 18 47  1  1
 20 48  1  0
 21 49  1  0
 22 50  1  0
 26 51  1  0
 26 52  1  0
 27 53  1  0
 27 54  1  0
 29 55  1  0
 29 56  1  0
 29 57  1  0
M  END
$$$$
