
     RDKit          3D

 59 60  0  0  0  0  0  0  0  0999 V2000
    8.1496   -0.9698   -1.9246 C   0  0  0  0  0  0  0  0  0  0  0  0
    7.1013   -0.9276   -0.8054 C   0  0  0  0  0  0  0  0  0  0  0  0
    5.8998   -0.2129   -1.3923 C   0  0  0  0  0  0  0  0  0  0  0  0
    4.8181   -0.0878   -0.4661 N   0  0  0  0  0  0  0  0  0  0  0  0
    4.1832   -1.2183    0.1199 C   0  0  0  0  0  0  0  0  0  0  0  0
    4.5973   -2.3415   -0.1971 O   0  0  0  0  0  0  0  0  0  0  0  0
    3.0763   -1.0625    1.0669 C   0  0  1  0  0  0  0  0  0  0  0  0
    3.2521    0.0269    1.9559 O   0  0  0  0  0  0  0  0  0  0  0  0
    2.2213    0.1403    1.0252 C   0  0  2  0  0  0  0  0  0  0  0  0
    0.8572    0.0879    1.6094 C   0  0  0  0  0  0  0  0  0  0  0  0
    0.5791   -0.6149    2.5978 O   0  0  0  0  0  0  0  0  0  0  0  0
   -0.1863    0.8679    1.0264 N   0  0  0  0  0  0  0  0  0  0  0  0
   -1.5390    0.8813    1.5242 C   0  0  2  0  0  0  0  0  0  0  0  0
   -2.5773    0.4691    0.5989 C   0  0  0  0  0  0  0  0  0  0  0  0
   -3.7892    0.5002    1.0158 O   0  0  0  0  0  0  0  0  0  0  0  0
   -2.4154    0.0174   -0.7639 N   0  0  0  0  0  0  0  0  0  0  0  0
   -1.1860   -0.1312   -1.4829 C   0  0  0  0  0  0  0  0  0  0  0  0
   -1.5416   -1.0137   -2.6643 C   0  0  0  0  0  0  0  0  0  0  0  0
   -2.9870   -0.5746   -2.9676 C   0  0  0  0  0  0  0  0  0  0  0  0
   -3.5283   -0.3483   -1.5999 C   0  0  1  0  0  0  0  0  0  0  0  0
   -4.2499   -1.5413   -1.0678 C   0  0  0  0  0  0  0  0  0  0  0  0
   -3.8685   -2.0864   -0.0269 O   0  0  0  0  0  0  0  0  0  0  0  0
   -5.3504   -2.0308   -1.7517 O   0  0  0  0  0  0  0  0  0  0  0  0
   -6.0889   -3.1555   -1.3151 C   0  0  0  0  0  0  0  0  0  0  0  0
   -1.7630    2.2750    2.0966 C   0  0  1  0  0  0  0  0  0  0  0  0
   -1.5995    3.3607    1.0875 C   0  0  0  0  0  0  0  0  0  0  0  0
   -3.0543    2.4186    2.8410 C   0  0  0  0  0  0  0  0  0  0  0  0
   -3.1260    1.4547    4.0165 C   0  0  0  0  0  0  0  0  0  0  0  0
    7.5872   -1.1401   -2.8622 H   0  0  0  0  0  0  0  0  0  0  0  0
    8.8514   -1.7952   -1.7810 H   0  0  0  0  0  0  0  0  0  0  0  0
    8.6782    0.0136   -1.9210 H   0  0  0  0  0  0  0  0  0  0  0  0
    7.5671   -0.3451    0.0118 H   0  0  0  0  0  0  0  0  0  0  0  0
    6.8813   -1.9752   -0.5324 H   0  0  0  0  0  0  0  0  0  0  0  0
    5.5552   -0.7507   -2.2831 H   0  0  0  0  0  0  0  0  0  0  0  0
    6.2340    0.7859   -1.7221 H   0  0  0  0  0  0  0  0  0  0  0  0
    4.4603    0.8488   -0.1911 H   0  0  0  0  0  0  0  0  0  0  0  0
    2.6457   -1.9863    1.4699 H   0  0  0  0  0  0  0  0  0  0  0  0
    2.3574    0.7958    0.1511 H   0  0  0  0  0  0  0  0  0  0  0  0
    0.0695    1.4593    0.2100 H   0  0  0  0  0  0  0  0  0  0  0  0
   -1.5206    0.2179    2.4506 H   0  0  0  0  0  0  0  0  0  0  0  0
   -0.3743   -0.5867   -0.8795 H   0  0  0  0  0  0  0  0  0  0  0  0
   -0.8895    0.8873   -1.8653 H   0  0  0  0  0  0  0  0  0  0  0  0
   -1.5099   -2.0826   -2.4018 H   0  0  0  0  0  0  0  0  0  0  0  0
   -0.9200   -0.7370   -3.5296 H   0  0  0  0  0  0  0  0  0  0  0  0
   -3.4501   -1.4077   -3.5208 H   0  0  0  0  0  0  0  0  0  0  0  0
   -2.9799    0.3438   -3.5930 H   0  0  0  0  0  0  0  0  0  0  0  0
   -4.2388    0.5145   -1.6513 H   0  0  0  0  0  0  0  0  0  0  0  0
   -6.5578   -2.9763   -0.3171 H   0  0  0  0  0  0  0  0  0  0  0  0
   -6.9315   -3.2913   -2.0355 H   0  0  0  0  0  0  0  0  0  0  0  0
   -5.5054   -4.0747   -1.2598 H   0  0  0  0  0  0  0  0  0  0  0  0
   -0.9524    2.4484    2.8681 H   0  0  0  0  0  0  0  0  0  0  0  0
   -2.3405    4.1499    1.2844 H   0  0  0  0  0  0  0  0  0  0  0  0
   -0.5776    3.8320    1.1269 H   0  0  0  0  0  0  0  0  0  0  0  0
   -1.6742    2.9676    0.0360 H   0  0  0  0  0  0  0  0  0  0  0  0
   -2.9959    3.4391    3.3321 H   0  0  0  0  0  0  0  0  0  0  0  0
   -3.9579    2.4544    2.2361 H   0  0  0  0  0  0  0  0  0  0  0  0
   -3.4312    0.4450    3.7382 H   0  0  0  0  0  0  0  0  0  0  0  0
   -2.1271    1.4847    4.4981 H   0  0  0  0  0  0  0  0  0  0  0  0
   -3.8374    1.8781    4.7768 H   0  0  0  0  0  0  0  0  0  0  0  0
  1  2  1  0
  2  3  1  0
  3  4  1  0
  4  5  1  0
  5  6  2  0
  5  7  1  0
  7  8  1  0
  8  9  1  0
  9 10  1  0
 10 11  2  0
 10 12  1  0
 12 13  1  0
 13 14  1  0
 14 15  2  0
 14 16  1  0
 16 17  1  0
 17 18  1  0
 18 19  1  0
 19 20  1  0
 20 21  1  0
 21 22  2  0
 21 23  1  0
 23 24  1  0
 13 25  1  0
 25 26  1  0
 25 27  1  0
 27 28  1  0
  9  7  1  0
 20 16  1  0
  1 29  1  0
  1 30  1  0
  1 31  1  0
  2 32  1  0
  2 33  1  0
  3 34  1  0
  3 35  1  0
  4 36  1  0
  7 37  1  1
  9 38  1  6
 12 39  1  0
 13 40  1  1
 17 41  1  0
 17 42  1  0
 18 43  1  0
 18 44  1  0
 19 45  1  0
 19 46  1  0
 20 47  1  6
 24 48  1  0
 24 49  1  0
 24 50  1  0
 25 51  1  1
 26 52  1  0
 26 53  1  0
 26 54  1  0
 27 55  1  0
 27 56  1  0
 28 57  1  0
 28 58  1  0
 28 59  1  0
M  END
$$$$
