
     RDKit          3D

 67 72  0  0  0  0  0  0  0  0999 V2000
   -0.3047   -1.3868   -1.2211 C   0  0  0  0  0  0  0  0  0  0  0  0
   -0.8418   -0.0146   -0.9893 C   0  0  0  0  0  0  0  0  0  0  0  0
   -0.8444    0.9404   -2.1289 C   0  0  0  0  0  0  0  0  0  0  0  0
   -0.6211    0.5460    0.3600 C   0  0  0  0  0  0  0  0  0  0  0  0
   -1.5761    0.7952    1.3487 C   0  0  0  0  0  0  0  0  0  0  0  0
   -3.0405    0.6139    1.2347 C   0  0  0  0  0  0  0  0  0  0  0  0
   -3.9308    0.8859    2.2303 N   0  0  0  0  0  0  0  0  0  0  0  0
   -5.1391    0.6213    1.8093 N   0  0  0  0  0  0  0  0  0  0  0  0
   -5.0464    0.1773    0.5439 C   0  0  0  0  0  0  0  0  0  0  0  0
   -6.1192   -0.2003   -0.2304 O   0  0  0  0  0  0  0  0  0  0  0  0
   -7.4363   -0.1197    0.2557 C   0  0  0  0  0  0  0  0  0  0  0  0
   -8.0760   -1.4899    0.3667 C   0  0  0  0  0  0  0  0  0  0  0  0
   -9.4995   -1.2648    0.8531 C   0  0  0  0  0  0  0  0  0  0  0  0
  -10.2377   -0.4610   -0.0923 N   0  0  0  0  0  0  0  0  0  0  0  0
   -9.6556    0.8551   -0.2527 C   0  0  0  0  0  0  0  0  0  0  0  0
   -8.2420    0.6956   -0.7227 C   0  0  0  0  0  0  0  0  0  0  0  0
   -3.7744    0.1899    0.2440 O   0  0  0  0  0  0  0  0  0  0  0  0
   -0.9705    1.2627    2.4835 C   0  0  0  0  0  0  0  0  0  0  0  0
    0.3478    1.3153    2.2307 N   0  0  0  0  0  0  0  0  0  0  0  0
    1.3158    1.6974    3.0575 N   0  0  0  0  0  0  0  0  0  0  0  0
    2.5787    1.6759    2.6571 C   0  0  0  0  0  0  0  0  0  0  0  0
    2.8344    1.2698    1.4293 N   0  0  0  0  0  0  0  0  0  0  0  0
    1.8973    0.8666    0.5301 C   0  0  0  0  0  0  0  0  0  0  0  0
    2.2764    0.4601   -0.7475 N   0  0  0  0  0  0  0  0  0  0  0  0
    3.5889    0.0353   -1.1300 C   0  0  0  0  0  0  0  0  0  0  0  0
    4.6574   -0.0923   -0.3007 C   0  0  0  0  0  0  0  0  0  0  0  0
    5.9407   -0.4766   -0.7129 C   0  0  0  0  0  0  0  0  0  0  0  0
    7.0189   -0.5458    0.2654 C   0  0  0  0  0  0  0  0  0  0  0  0
    6.6958   -0.5902    1.4827 O   0  0  0  0  0  0  0  0  0  0  0  0
    8.3900   -0.5648   -0.0236 N   0  0  0  0  0  0  0  0  0  0  0  0
    9.4191   -0.6391    1.0101 C   0  0  0  0  0  0  0  0  0  0  0  0
   10.5577    0.3659    0.8900 C   0  0  0  0  0  0  0  0  0  0  0  0
   10.7951   -1.1246    0.6088 C   0  0  0  0  0  0  0  0  0  0  0  0
    6.1283   -0.7438   -2.0471 C   0  0  0  0  0  0  0  0  0  0  0  0
    7.3178   -1.1292   -2.5515 F   0  0  0  0  0  0  0  0  0  0  0  0
    5.0659   -0.6309   -2.9470 C   0  0  0  0  0  0  0  0  0  0  0  0
    3.8319   -0.2480   -2.4747 C   0  0  0  0  0  0  0  0  0  0  0  0
    2.8471   -0.1596   -3.3995 F   0  0  0  0  0  0  0  0  0  0  0  0
    0.5847    0.8871    0.9496 C   0  0  0  0  0  0  0  0  0  0  0  0
    0.1759   -1.7078   -0.2667 H   0  0  0  0  0  0  0  0  0  0  0  0
   -1.1199   -2.0865   -1.4697 H   0  0  0  0  0  0  0  0  0  0  0  0
    0.4260   -1.4931   -2.0419 H   0  0  0  0  0  0  0  0  0  0  0  0
   -1.9806   -0.2738   -0.9337 H   0  0  0  0  0  0  0  0  0  0  0  0
   -1.8395    1.2938   -2.4689 H   0  0  0  0  0  0  0  0  0  0  0  0
   -0.3920    0.4792   -3.0587 H   0  0  0  0  0  0  0  0  0  0  0  0
   -0.2938    1.9019   -1.8920 H   0  0  0  0  0  0  0  0  0  0  0  0
   -7.4814    0.3178    1.2794 H   0  0  0  0  0  0  0  0  0  0  0  0
   -8.1160   -2.0060   -0.5951 H   0  0  0  0  0  0  0  0  0  0  0  0
   -7.5698   -2.1385    1.1025 H   0  0  0  0  0  0  0  0  0  0  0  0
   -9.4969   -0.7089    1.8203 H   0  0  0  0  0  0  0  0  0  0  0  0
   -9.9807   -2.2389    0.9366 H   0  0  0  0  0  0  0  0  0  0  0  0
  -10.2592   -0.9098   -1.0369 H   0  0  0  0  0  0  0  0  0  0  0  0
  -10.2145    1.3685   -1.0727 H   0  0  0  0  0  0  0  0  0  0  0  0
   -9.6815    1.4157    0.6862 H   0  0  0  0  0  0  0  0  0  0  0  0
   -8.2228    0.1253   -1.6910 H   0  0  0  0  0  0  0  0  0  0  0  0
   -7.7812    1.6821   -0.8961 H   0  0  0  0  0  0  0  0  0  0  0  0
   -1.4823    1.5359    3.4070 H   0  0  0  0  0  0  0  0  0  0  0  0
    3.4140    1.9728    3.2816 H   0  0  0  0  0  0  0  0  0  0  0  0
    1.6048    0.4874   -1.5200 H   0  0  0  0  0  0  0  0  0  0  0  0
    4.5647    0.0916    0.7387 H   0  0  0  0  0  0  0  0  0  0  0  0
    8.7164   -0.5165   -0.9983 H   0  0  0  0  0  0  0  0  0  0  0  0
    9.1128   -0.7905    2.0428 H   0  0  0  0  0  0  0  0  0  0  0  0
   11.0053    0.7828    1.8150 H   0  0  0  0  0  0  0  0  0  0  0  0
   10.5597    1.0275    0.0078 H   0  0  0  0  0  0  0  0  0  0  0  0
   10.9642   -1.3800   -0.4707 H   0  0  0  0  0  0  0  0  0  0  0  0
   11.4136   -1.6631    1.3524 H   0  0  0  0  0  0  0  0  0  0  0  0
    5.2212   -0.8438   -4.0016 H   0  0  0  0  0  0  0  0  0  0  0  0
  1  2  1  0
  2  3  1  0
  2  4  1  0
  4  5  1  0
  5  6  1  0
  6  7  2  0
  7  8  1  0
  8  9  2  0
  9 10  1  0
 10 11  1  0
 11 12  1  0
 12 13  1  0
 13 14  1  0
 14 15  1  0
 15 16  1  0
  9 17  1  0
  5 18  2  0
 18 19  1  0
 19 20  1  0
 20 21  2  0
 21 22  1  0
 22 23  2  0
 23 24  1  0
 24 25  1  0
 25 26  2  0
 26 27  1  0
 27 28  1  0
 28 29  2  0
 28 30  1  0
 30 31  1  0
 31 32  1  0
 32 33  1  0
 27 34  2  0
 34 35  1  0
 34 36  1  0
 36 37  2  0
 37 38  1  0
 23 39  1  0
 39  4  2  0
 17  6  1  0
 39 19  1  0
 16 11  1  0
 37 25  1  0
 33 31  1  0
  1 40  1  0
  1 41  1  0
  1 42  1  0
  2 43  1  0
  3 44  1  0
  3 45  1  0
  3 46  1  0
 11 47  1  0
 12 48  1  0
 12 49  1  0
 13 50  1  0
 13 51  1  0
 14 52  1  0
 15 53  1  0
 15 54  1  0
 16 55  1  0
 16 56  1  0
 18 57  1  0
 21 58  1  0
 24 59  1  0
 26 60  1  0
 30 61  1  0
 31 62  1  0
 32 63  1  0
 32 64  1  0
 33 65  1  0
 33 66  1  0
 36 67  1  0
M  END
$$$$
