
     RDKit          3D

 42 45  0  0  0  0  0  0  0  0999 V2000
   -4.0372    2.7066    2.7995 N   0  0  0  0  0  0  0  0  0  0  0  0
   -3.6520    2.5956    1.7129 C   0  0  0  0  0  0  0  0  0  0  0  0
   -3.1553    2.4666    0.3712 C   0  0  0  0  0  0  0  0  0  0  0  0
   -3.4737    3.3393   -0.6481 C   0  0  0  0  0  0  0  0  0  0  0  0
   -2.8226    2.8882   -1.7331 N   0  0  0  0  0  0  0  0  0  0  0  0
   -2.1125    1.7835   -1.4604 C   0  0  0  0  0  0  0  0  0  0  0  0
   -1.2904    0.9434   -2.1877 C   0  0  0  0  0  0  0  0  0  0  0  0
   -0.7052   -0.1363   -1.5611 C   0  0  0  0  0  0  0  0  0  0  0  0
   -0.9449   -0.3738   -0.2023 C   0  0  0  0  0  0  0  0  0  0  0  0
   -0.3176   -1.5204    0.4371 C   0  0  0  0  0  0  0  0  0  0  0  0
    1.0424   -1.6755    0.5795 C   0  0  0  0  0  0  0  0  0  0  0  0
    2.1084   -0.7771    0.1535 C   0  0  0  0  0  0  0  0  0  0  0  0
    3.0636   -1.1465   -0.7755 C   0  0  0  0  0  0  0  0  0  0  0  0
    4.0825   -0.3008   -1.1815 C   0  0  0  0  0  0  0  0  0  0  0  0
    4.1686    0.9714   -0.6496 C   0  0  0  0  0  0  0  0  0  0  0  0
    3.2199    1.3707    0.2879 C   0  0  0  0  0  0  0  0  0  0  0  0
    3.3098    2.7391    0.8671 C   0  0  0  0  0  0  0  0  0  0  0  0
    2.5826    3.6023    0.0728 O   0  0  0  0  0  0  0  0  0  0  0  0
    2.2166    0.5017    0.6706 C   0  0  0  0  0  0  0  0  0  0  0  0
    1.2620   -2.8611    1.2179 N   0  0  0  0  0  0  0  0  0  0  0  0
    0.0884   -3.4279    1.4672 C   0  0  0  0  0  0  0  0  0  0  0  0
   -0.8757   -2.6123    0.9922 N   0  0  0  0  0  0  0  0  0  0  0  0
   -2.3073   -2.8290    1.0459 C   0  0  0  0  0  0  0  0  0  0  0  0
   -2.7781   -3.5814   -0.2063 C   0  0  0  0  0  0  0  0  0  0  0  0
   -2.4712   -2.8307   -1.3209 F   0  0  0  0  0  0  0  0  0  0  0  0
   -2.0900   -4.7802   -0.3135 F   0  0  0  0  0  0  0  0  0  0  0  0
   -1.7552    0.4851    0.4418 N   0  0  0  0  0  0  0  0  0  0  0  0
   -2.3281    1.5313   -0.1461 N   0  0  0  0  0  0  0  0  0  0  0  0
   -4.1272    4.2104   -0.5565 H   0  0  0  0  0  0  0  0  0  0  0  0
   -1.1076    1.1292   -3.2366 H   0  0  0  0  0  0  0  0  0  0  0  0
   -0.0488   -0.8280   -2.0936 H   0  0  0  0  0  0  0  0  0  0  0  0
    2.9861   -2.1435   -1.1832 H   0  0  0  0  0  0  0  0  0  0  0  0
    4.8345   -0.6031   -1.9178 H   0  0  0  0  0  0  0  0  0  0  0  0
    4.9713    1.6084   -0.9831 H   0  0  0  0  0  0  0  0  0  0  0  0
    4.3666    3.0476    1.0212 H   0  0  0  0  0  0  0  0  0  0  0  0
    2.7943    2.7287    1.8714 H   0  0  0  0  0  0  0  0  0  0  0  0
    3.0362    4.4878    0.0322 H   0  0  0  0  0  0  0  0  0  0  0  0
    1.4882    0.8260    1.3990 H   0  0  0  0  0  0  0  0  0  0  0  0
   -0.0741   -4.3720    1.9613 H   0  0  0  0  0  0  0  0  0  0  0  0
   -2.4804   -3.5007    1.9334 H   0  0  0  0  0  0  0  0  0  0  0  0
   -2.8107   -1.8686    1.1318 H   0  0  0  0  0  0  0  0  0  0  0  0
   -3.8561   -3.7943   -0.1104 H   0  0  0  0  0  0  0  0  0  0  0  0
  1  2  3  0
  2  3  1  0
  3  4  2  0
  4  5  1  0
  5  6  2  0
  6  7  1  0
  7  8  2  0
  8  9  1  0
  9 10  1  0
 10 11  2  0
 11 12  1  0
 12 13  2  0
 13 14  1  0
 14 15  2  0
 15 16  1  0
 16 17  1  0
 17 18  1  0
 16 19  2  0
 11 20  1  0
 20 21  2  0
 21 22  1  0
 22 23  1  0
 23 24  1  0
 24 25  1  0
 24 26  1  0
  9 27  2  0
 27 28  1  0
 28  3  1  0
 28  6  1  0
 22 10  1  0
 19 12  1  0
  4 29  1  0
  7 30  1  0
  8 31  1  0
 13 32  1  0
 14 33  1  0
 15 34  1  0
 17 35  1  0
 17 36  1  0
 18 37  1  0
 19 38  1  0
 21 39  1  0
 23 40  1  0
 23 41  1  0
 24 42  1  0
M  END
$$$$
