
     RDKit          3D

 22 23  0  0  0  0  0  0  0  0999 V2000
   -3.2699   -1.6388    1.0996 O   0  0  0  0  0  0  0  0  0  0  0  0
   -3.0032   -0.6843    0.3502 C   0  0  0  0  0  0  0  0  0  0  0  0
   -4.0398    0.0034   -0.2601 O   0  0  0  0  0  0  0  0  0  0  0  0
   -1.6108   -0.2932    0.1166 C   0  0  0  0  0  0  0  0  0  0  0  0
   -0.5589   -0.9428    0.6972 C   0  0  0  0  0  0  0  0  0  0  0  0
    0.7486   -0.5151    0.4295 C   0  0  0  0  0  0  0  0  0  0  0  0
    1.7921   -1.1941    1.0331 C   0  0  0  0  0  0  0  0  0  0  0  0
    3.0994   -0.8302    0.8164 C   0  0  0  0  0  0  0  0  0  0  0  0
    3.3334    0.2363   -0.0245 C   0  0  0  0  0  0  0  0  0  0  0  0
    2.3021    0.9206   -0.6317 C   0  0  0  0  0  0  0  0  0  0  0  0
    1.0028    0.5439   -0.4044 C   0  0  0  0  0  0  0  0  0  0  0  0
   -0.0679    1.1966   -0.9885 C   0  0  0  0  0  0  0  0  0  0  0  0
   -1.3473    0.7670   -0.7175 C   0  0  0  0  0  0  0  0  0  0  0  0
   -2.4274    1.4348   -1.3144 O   0  0  0  0  0  0  0  0  0  0  0  0
   -4.9036   -0.4837   -0.5460 H   0  0  0  0  0  0  0  0  0  0  0  0
   -0.7449   -1.7786    1.3561 H   0  0  0  0  0  0  0  0  0  0  0  0
    1.5455   -2.0381    1.6950 H   0  0  0  0  0  0  0  0  0  0  0  0
    3.9256   -1.3394    1.2716 H   0  0  0  0  0  0  0  0  0  0  0  0
    4.3381    0.5943   -0.2537 H   0  0  0  0  0  0  0  0  0  0  0  0
    2.4824    1.7613   -1.2949 H   0  0  0  0  0  0  0  0  0  0  0  0
    0.1660    2.0278   -1.6410 H   0  0  0  0  0  0  0  0  0  0  0  0
   -2.7623    2.2522   -0.7887 H   0  0  0  0  0  0  0  0  0  0  0  0
  1  2  2  0
  2  3  1  0
  2  4  1  0
  4  5  2  0
  5  6  1  0
  6  7  2  0
  7  8  1  0
  8  9  2  0
  9 10  1  0
 10 11  2  0
 11 12  1  0
 12 13  2  0
 13 14  1  0
 13  4  1  0
 11  6  1  0
  3 15  1  0
  5 16  1  0
  7 17  1  0
  8 18  1  0
  9 19  1  0
 10 20  1  0
 12 21  1  0
 14 22  1  0
M  END
$$$$
