
     RDKit          3D

 66 71  0  0  0  0  0  0  0  0999 V2000
   -4.4132   -0.3691   -0.6353 O   0  0  0  0  0  0  0  0  0  0  0  0
   -3.2338   -0.8442   -0.6866 C   0  0  0  0  0  0  0  0  0  0  0  0
   -2.8750   -2.1156   -0.8061 N   0  0  0  0  0  0  0  0  0  0  0  0
   -3.7963   -3.2477   -0.9046 C   0  0  0  0  0  0  0  0  0  0  0  0
   -3.5728   -4.2252    0.2284 C   0  0  0  0  0  0  0  0  0  0  0  0
   -4.5084   -5.4011   -0.0262 C   0  0  0  0  0  0  0  0  0  0  0  0
   -5.8069   -4.9234    0.0274 O   0  0  0  0  0  0  0  0  0  0  0  0
   -6.1003   -4.0245   -0.9764 C   0  0  0  0  0  0  0  0  0  0  0  0
   -5.2168   -2.7777   -0.8622 C   0  0  0  0  0  0  0  0  0  0  0  0
   -1.5694   -2.1600   -0.8185 N   0  0  0  0  0  0  0  0  0  0  0  0
   -1.0384   -0.9289   -0.7084 C   0  0  0  0  0  0  0  0  0  0  0  0
    0.3602   -0.5241   -0.6799 C   0  0  0  0  0  0  0  0  0  0  0  0
    0.7534    0.5030   -1.4963 C   0  0  0  0  0  0  0  0  0  0  0  0
    2.0815    0.8720   -1.4553 C   0  0  0  0  0  0  0  0  0  0  0  0
    2.9620    0.2632   -0.6578 N   0  0  0  0  0  0  0  0  0  0  0  0
    2.6121   -0.7398    0.1490 C   0  0  0  0  0  0  0  0  0  0  0  0
    3.5508   -1.3780    0.9902 N   0  0  0  0  0  0  0  0  0  0  0  0
    4.9360   -1.0625    1.1590 C   0  0  0  0  0  0  0  0  0  0  0  0
    5.1338    0.1469    1.9943 C   0  0  0  0  0  0  0  0  0  0  0  0
    5.1912    1.4368    1.2940 C   0  0  0  0  0  0  0  0  0  0  0  0
    5.9327    1.5053    0.0035 C   0  0  0  0  0  0  0  0  0  0  0  0
    6.6402    0.1768   -0.2230 C   0  0  0  0  0  0  0  0  0  0  0  0
    5.6735   -0.9580   -0.1417 C   0  0  0  0  0  0  0  0  0  0  0  0
    1.2712   -1.1392    0.1319 C   0  0  0  0  0  0  0  0  0  0  0  0
   -2.1056   -0.0833   -0.6236 N   0  0  0  0  0  0  0  0  0  0  0  0
   -2.0944    1.3155   -0.4946 C   0  0  0  0  0  0  0  0  0  0  0  0
   -2.6205    2.1146   -1.4777 C   0  0  0  0  0  0  0  0  0  0  0  0
   -2.6126    3.5106   -1.3553 C   0  0  0  0  0  0  0  0  0  0  0  0
   -2.0663    4.0925   -0.2268 C   0  0  0  0  0  0  0  0  0  0  0  0
   -2.0451    5.4752   -0.0790 C   0  0  0  0  0  0  0  0  0  0  0  0
   -1.4970    6.0321    1.0512 C   0  0  0  0  0  0  0  0  0  0  0  0
   -0.9596    5.2330    2.0565 C   0  0  0  0  0  0  0  0  0  0  0  0
   -1.0022    3.8689    1.8677 C   0  0  0  0  0  0  0  0  0  0  0  0
   -1.5418    3.2803    0.7521 C   0  0  0  0  0  0  0  0  0  0  0  0
   -1.5550    1.9070    0.6208 C   0  0  0  0  0  0  0  0  0  0  0  0
   -3.6371   -3.7932   -1.8496 H   0  0  0  0  0  0  0  0  0  0  0  0
   -3.7707   -3.7840    1.2181 H   0  0  0  0  0  0  0  0  0  0  0  0
   -2.5078   -4.5489    0.1607 H   0  0  0  0  0  0  0  0  0  0  0  0
   -4.3747   -6.1878    0.7185 H   0  0  0  0  0  0  0  0  0  0  0  0
   -4.2547   -5.7546   -1.0667 H   0  0  0  0  0  0  0  0  0  0  0  0
   -7.1420   -3.6902   -0.8429 H   0  0  0  0  0  0  0  0  0  0  0  0
   -5.9097   -4.4488   -1.9973 H   0  0  0  0  0  0  0  0  0  0  0  0
   -5.4790   -2.3102    0.1119 H   0  0  0  0  0  0  0  0  0  0  0  0
   -5.4735   -2.1406   -1.7313 H   0  0  0  0  0  0  0  0  0  0  0  0
    0.0435    1.0209   -2.1637 H   0  0  0  0  0  0  0  0  0  0  0  0
    2.3830    1.7020   -2.1197 H   0  0  0  0  0  0  0  0  0  0  0  0
    3.1702   -2.1920    1.5657 H   0  0  0  0  0  0  0  0  0  0  0  0
    5.4177   -1.9118    1.7585 H   0  0  0  0  0  0  0  0  0  0  0  0
    6.0341    0.0281    2.6783 H   0  0  0  0  0  0  0  0  0  0  0  0
    4.2279    0.2096    2.6967 H   0  0  0  0  0  0  0  0  0  0  0  0
    4.1563    1.8406    1.1495 H   0  0  0  0  0  0  0  0  0  0  0  0
    5.7050    2.2002    1.9988 H   0  0  0  0  0  0  0  0  0  0  0  0
    5.3059    1.7673   -0.8768 H   0  0  0  0  0  0  0  0  0  0  0  0
    6.7482    2.2715    0.0065 H   0  0  0  0  0  0  0  0  0  0  0  0
    7.4293    0.1153    0.5532 H   0  0  0  0  0  0  0  0  0  0  0  0
    7.0794    0.1900   -1.2345 H   0  0  0  0  0  0  0  0  0  0  0  0
    5.0030   -0.8935   -1.0249 H   0  0  0  0  0  0  0  0  0  0  0  0
    6.2630   -1.8990   -0.3109 H   0  0  0  0  0  0  0  0  0  0  0  0
    0.9885   -1.9651    0.7979 H   0  0  0  0  0  0  0  0  0  0  0  0
   -3.0626    1.7309   -2.3843 H   0  0  0  0  0  0  0  0  0  0  0  0
   -3.0232    4.1477   -2.1215 H   0  0  0  0  0  0  0  0  0  0  0  0
   -2.4576    6.0825   -0.8513 H   0  0  0  0  0  0  0  0  0  0  0  0
   -1.4944    7.1245    1.1398 H   0  0  0  0  0  0  0  0  0  0  0  0
   -0.5343    5.7046    2.9366 H   0  0  0  0  0  0  0  0  0  0  0  0
   -0.5718    3.2676    2.6758 H   0  0  0  0  0  0  0  0  0  0  0  0
   -1.1293    1.2849    1.4181 H   0  0  0  0  0  0  0  0  0  0  0  0
  1  2  2  0
  2  3  1  0
  3  4  1  0
  4  5  1  0
  5  6  1  0
  6  7  1  0
  7  8  1  0
  8  9  1  0
  3 10  1  0
 10 11  2  0
 11 12  1  0
 12 13  2  0
 13 14  1  0
 14 15  2  0
 15 16  1  0
 16 17  1  0
 17 18  1  0
 18 19  1  0
 19 20  1  0
 20 21  1  0
 21 22  1  0
 22 23  1  0
 16 24  2  0
 11 25  1  0
 25 26  1  0
 26 27  2  0
 27 28  1  0
 28 29  2  0
 29 30  1  0
 30 31  2  0
 31 32  1  0
 32 33  2  0
 33 34  1  0
 34 35  2  0
 25  2  1  0
 35 26  1  0
  9  4  1  0
 24 12  1  0
 34 29  1  0
 23 18  1  0
  4 36  1  0
  5 37  1  0
  5 38  1  0
  6 39  1  0
  6 40  1  0
  8 41  1  0
  8 42  1  0
  9 43  1  0
  9 44  1  0
 13 45  1  0
 14 46  1  0
 17 47  1  0
 18 48  1  0
 19 49  1  0
 19 50  1  0
 20 51  1  0
 20 52  1  0
 21 53  1  0
 21 54  1  0
 22 55  1  0
 22 56  1  0
 23 57  1  0
 23 58  1  0
 24 59  1  0
 27 60  1  0
 28 61  1  0
 30 62  1  0
 31 63  1  0
 32 64  1  0
 33 65  1  0
 35 66  1  0
M  END
$$$$
