
     RDKit          3D

 57 59  0  0  0  0  0  0  0  0999 V2000
   -5.1565    1.2206   -0.8887 C   0  0  0  0  0  0  0  0  0  0  0  0
   -4.4634    0.4961    0.2654 C   0  0  0  0  0  0  0  0  0  0  0  0
   -2.9658    0.5755    0.0673 C   0  0  0  0  0  0  0  0  0  0  0  0
   -2.2647   -0.5101    0.0710 C   0  0  0  0  0  0  0  0  0  0  0  0
   -2.9335   -1.8079    0.2792 C   0  0  0  0  0  0  0  0  0  0  0  0
   -2.7383   -2.7375   -0.7321 C   0  0  0  0  0  0  0  0  0  0  0  0
   -3.2532   -4.0000   -0.6313 C   0  0  0  0  0  0  0  0  0  0  0  0
   -3.9773   -4.3709    0.4825 C   0  0  0  0  0  0  0  0  0  0  0  0
   -4.1586   -3.4250    1.4794 C   0  0  0  0  0  0  0  0  0  0  0  0
   -3.6435   -2.1473    1.3884 C   0  0  0  0  0  0  0  0  0  0  0  0
   -0.8131   -0.5114   -0.1253 C   0  0  0  0  0  0  0  0  0  0  0  0
   -0.1011   -0.8745    1.0285 C   0  0  0  0  0  0  0  0  0  0  0  0
    1.2694   -1.0021    1.0184 C   0  0  0  0  0  0  0  0  0  0  0  0
    1.9991   -0.7710   -0.1539 C   0  0  0  0  0  0  0  0  0  0  0  0
    3.3840   -0.9067   -0.1455 O   0  0  0  0  0  0  0  0  0  0  0  0
    4.1840   -0.6947   -1.2799 C   0  0  0  0  0  0  0  0  0  0  0  0
    5.6376   -0.9300   -0.9745 C   0  0  0  0  0  0  0  0  0  0  0  0
    6.1189   -0.0560    0.0515 N   0  0  0  0  0  0  0  0  0  0  0  0
    7.5063   -0.3831    0.3669 C   0  0  0  0  0  0  0  0  0  0  0  0
    6.0315    1.3356   -0.3106 C   0  0  0  0  0  0  0  0  0  0  0  0
    1.2655   -0.4176   -1.2594 C   0  0  0  0  0  0  0  0  0  0  0  0
   -0.1271   -0.2878   -1.2534 C   0  0  0  0  0  0  0  0  0  0  0  0
   -2.4674    1.9418   -0.1100 C   0  0  0  0  0  0  0  0  0  0  0  0
   -1.9575    2.3605   -1.2783 C   0  0  0  0  0  0  0  0  0  0  0  0
   -1.4700    3.6713   -1.3942 C   0  0  0  0  0  0  0  0  0  0  0  0
   -1.5329    4.4878   -0.2996 C   0  0  0  0  0  0  0  0  0  0  0  0
   -2.0537    4.0875    0.9192 C   0  0  0  0  0  0  0  0  0  0  0  0
   -2.5164    2.7903    0.9734 C   0  0  0  0  0  0  0  0  0  0  0  0
   -5.3160    2.2904   -0.6412 H   0  0  0  0  0  0  0  0  0  0  0  0
   -6.1778    0.7694   -0.9746 H   0  0  0  0  0  0  0  0  0  0  0  0
   -4.6214    1.1539   -1.8339 H   0  0  0  0  0  0  0  0  0  0  0  0
   -4.8620   -0.4988    0.3388 H   0  0  0  0  0  0  0  0  0  0  0  0
   -4.6777    1.0685    1.1750 H   0  0  0  0  0  0  0  0  0  0  0  0
   -2.1705   -2.4917   -1.6361 H   0  0  0  0  0  0  0  0  0  0  0  0
   -3.0892   -4.7209   -1.4384 H   0  0  0  0  0  0  0  0  0  0  0  0
   -4.3705   -5.3734    0.5299 H   0  0  0  0  0  0  0  0  0  0  0  0
   -4.7148   -3.7001    2.3386 H   0  0  0  0  0  0  0  0  0  0  0  0
   -3.7568   -1.3949    2.1603 H   0  0  0  0  0  0  0  0  0  0  0  0
   -0.5938   -1.0705    1.9704 H   0  0  0  0  0  0  0  0  0  0  0  0
    1.8645   -1.2819    1.8864 H   0  0  0  0  0  0  0  0  0  0  0  0
    4.0092    0.2894   -1.7368 H   0  0  0  0  0  0  0  0  0  0  0  0
    3.9128   -1.4337   -2.0980 H   0  0  0  0  0  0  0  0  0  0  0  0
    5.7277   -1.9900   -0.6352 H   0  0  0  0  0  0  0  0  0  0  0  0
    6.2629   -0.8114   -1.8929 H   0  0  0  0  0  0  0  0  0  0  0  0
    7.5089   -1.1713    1.1602 H   0  0  0  0  0  0  0  0  0  0  0  0
    8.0189   -0.7850   -0.5292 H   0  0  0  0  0  0  0  0  0  0  0  0
    8.0036    0.5196    0.7748 H   0  0  0  0  0  0  0  0  0  0  0  0
    5.4883    1.5300   -1.2317 H   0  0  0  0  0  0  0  0  0  0  0  0
    5.6702    1.9669    0.5287 H   0  0  0  0  0  0  0  0  0  0  0  0
    7.0851    1.6927   -0.5100 H   0  0  0  0  0  0  0  0  0  0  0  0
    1.7749   -0.2266   -2.1886 H   0  0  0  0  0  0  0  0  0  0  0  0
   -0.6397   -0.0383   -2.1680 H   0  0  0  0  0  0  0  0  0  0  0  0
   -1.9066    1.7809   -2.1835 H   0  0  0  0  0  0  0  0  0  0  0  0
   -1.0479    4.0297   -2.3431 H   0  0  0  0  0  0  0  0  0  0  0  0
   -1.1675    5.5199   -0.3384 H   0  0  0  0  0  0  0  0  0  0  0  0
   -2.0856    4.7728    1.7648 H   0  0  0  0  0  0  0  0  0  0  0  0
   -2.9313    2.4711    1.9405 H   0  0  0  0  0  0  0  0  0  0  0  0
  1  2  1  0
  2  3  1  0
  3  4  2  0
  4  5  1  0
  5  6  2  0
  6  7  1  0
  7  8  2  0
  8  9  1  0
  9 10  2  0
  4 11  1  0
 11 12  2  0
 12 13  1  0
 13 14  2  0
 14 15  1  0
 15 16  1  0
 16 17  1  0
 17 18  1  0
 18 19  1  0
 18 20  1  0
 14 21  1  0
 21 22  2  0
  3 23  1  0
 23 24  2  0
 24 25  1  0
 25 26  2  0
 26 27  1  0
 27 28  2  0
 10  5  1  0
 22 11  1  0
 28 23  1  0
  1 29  1  0
  1 30  1  0
  1 31  1  0
  2 32  1  0
  2 33  1  0
  6 34  1  0
  7 35  1  0
  8 36  1  0
  9 37  1  0
 10 38  1  0
 12 39  1  0
 13 40  1  0
 16 41  1  0
 16 42  1  0
 17 43  1  0
 17 44  1  0
 19 45  1  0
 19 46  1  0
 19 47  1  0
 20 48  1  0
 20 49  1  0
 20 50  1  0
 21 51  1  0
 22 52  1  0
 24 53  1  0
 25 54  1  0
 26 55  1  0
 27 56  1  0
 28 57  1  0
M  END
$$$$
