
     RDKit          3D

 56 59  0  0  0  0  0  0  0  0999 V2000
   -3.9754    3.7945   -0.4008 C   0  0  0  0  0  0  0  0  0  0  0  0
   -4.1707    2.4270   -0.5389 O   0  0  0  0  0  0  0  0  0  0  0  0
   -3.0358    1.7419   -0.1099 C   0  0  1  0  0  0  0  0  0  0  0  0
   -3.4428    1.0138    1.1429 C   0  0  0  0  0  0  0  0  0  0  0  0
   -2.5543   -0.1976    1.3381 C   0  0  0  0  0  0  0  0  0  0  0  0
   -2.9274   -1.1294    0.2187 C   0  0  2  0  0  0  0  0  0  0  0  0
   -2.4703   -2.4668    0.3645 N   0  0  0  0  0  0  0  0  0  0  0  0
   -3.3905   -3.5453    0.4805 C   0  0  0  0  0  0  0  0  0  0  0  0
   -4.6171   -3.4015    0.1438 O   0  0  0  0  0  0  0  0  0  0  0  0
   -2.9792   -4.8783    0.9924 C   0  0  0  0  0  0  0  0  0  0  0  0
   -1.5899   -5.1364    0.6690 N   0  0  0  0  0  0  0  0  0  0  0  0
   -0.6362   -4.0867    0.5568 C   0  0  0  0  0  0  0  0  0  0  0  0
    0.6865   -4.3148    0.5921 N   0  0  0  0  0  0  0  0  0  0  0  0
    1.5431   -3.2614    0.4810 C   0  0  0  0  0  0  0  0  0  0  0  0
    1.1232   -1.9585    0.3326 C   0  0  0  0  0  0  0  0  0  0  0  0
    2.0529   -0.8278    0.2116 C   0  0  0  0  0  0  0  0  0  0  0  0
    3.4161   -0.9381    0.2348 C   0  0  0  0  0  0  0  0  0  0  0  0
    4.2623    0.1515    0.1168 C   0  0  0  0  0  0  0  0  0  0  0  0
    3.7060    1.4149   -0.0320 C   0  0  0  0  0  0  0  0  0  0  0  0
    4.5107    2.6443   -0.1665 C   0  0  0  0  0  0  0  0  0  0  0  0
    4.8225    2.9430   -1.6316 C   0  0  0  0  0  0  0  0  0  0  0  0
    5.8356    2.5526    0.5452 C   0  0  0  0  0  0  0  0  0  0  0  0
    3.8304    3.7411    0.3586 O   0  0  0  0  0  0  0  0  0  0  0  0
    2.3807    1.5172   -0.0541 N   0  0  0  0  0  0  0  0  0  0  0  0
    1.5442    0.4451    0.0620 C   0  0  0  0  0  0  0  0  0  0  0  0
   -0.2174   -1.7488    0.2992 N   0  0  0  0  0  0  0  0  0  0  0  0
   -1.0818   -2.7710    0.4066 C   0  0  0  0  0  0  0  0  0  0  0  0
   -2.5618   -0.5494   -1.1082 C   0  0  0  0  0  0  0  0  0  0  0  0
   -2.4645    0.9102   -1.1881 C   0  0  0  0  0  0  0  0  0  0  0  0
   -4.8893    4.3330   -0.7465 H   0  0  0  0  0  0  0  0  0  0  0  0
   -3.0764    4.1616   -0.9451 H   0  0  0  0  0  0  0  0  0  0  0  0
   -3.7977    4.0165    0.6794 H   0  0  0  0  0  0  0  0  0  0  0  0
   -2.3048    2.5104    0.2187 H   0  0  0  0  0  0  0  0  0  0  0  0
   -4.4784    0.6108    0.9560 H   0  0  0  0  0  0  0  0  0  0  0  0
   -3.4256    1.6971    2.0053 H   0  0  0  0  0  0  0  0  0  0  0  0
   -2.7951   -0.6758    2.3146 H   0  0  0  0  0  0  0  0  0  0  0  0
   -1.5089    0.1654    1.3001 H   0  0  0  0  0  0  0  0  0  0  0  0
   -4.0624   -1.1512    0.2343 H   0  0  0  0  0  0  0  0  0  0  0  0
   -3.6011   -5.6762    0.5658 H   0  0  0  0  0  0  0  0  0  0  0  0
   -3.1264   -4.8246    2.1104 H   0  0  0  0  0  0  0  0  0  0  0  0
   -1.3095   -6.1324    0.5199 H   0  0  0  0  0  0  0  0  0  0  0  0
    2.6241   -3.4396    0.5089 H   0  0  0  0  0  0  0  0  0  0  0  0
    3.8725   -1.9039    0.3489 H   0  0  0  0  0  0  0  0  0  0  0  0
    5.3359    0.0599    0.1356 H   0  0  0  0  0  0  0  0  0  0  0  0
    4.3322    2.1721   -2.2641 H   0  0  0  0  0  0  0  0  0  0  0  0
    4.4068    3.9287   -1.9311 H   0  0  0  0  0  0  0  0  0  0  0  0
    5.8966    2.9173   -1.8468 H   0  0  0  0  0  0  0  0  0  0  0  0
    5.7386    2.2724    1.6147 H   0  0  0  0  0  0  0  0  0  0  0  0
    6.3070    3.5559    0.5045 H   0  0  0  0  0  0  0  0  0  0  0  0
    6.5161    1.8656   -0.0050 H   0  0  0  0  0  0  0  0  0  0  0  0
    4.5301    4.4259    0.5944 H   0  0  0  0  0  0  0  0  0  0  0  0
    0.4762    0.5715    0.0386 H   0  0  0  0  0  0  0  0  0  0  0  0
   -1.6246   -1.0434   -1.4428 H   0  0  0  0  0  0  0  0  0  0  0  0
   -3.3233   -0.9420   -1.8510 H   0  0  0  0  0  0  0  0  0  0  0  0
   -1.3792    1.1915   -1.3395 H   0  0  0  0  0  0  0  0  0  0  0  0
   -2.9327    1.2483   -2.1628 H   0  0  0  0  0  0  0  0  0  0  0  0
  1  2  1  0
  2  3  1  0
  3  4  1  0
  4  5  1  0
  5  6  1  0
  6  7  1  0
  7  8  1  0
  8  9  2  0
  8 10  1  0
 10 11  1  0
 11 12  1  0
 12 13  2  0
 13 14  1  0
 14 15  2  0
 15 16  1  0
 16 17  2  0
 17 18  1  0
 18 19  2  0
 19 20  1  0
 20 21  1  0
 20 22  1  0
 20 23  1  0
 19 24  1  0
 24 25  2  0
 15 26  1  0
 26 27  2  0
  6 28  1  0
 28 29  1  0
 29  3  1  0
 27  7  1  0
 27 12  1  0
 25 16  1  0
  1 30  1  0
  1 31  1  0
  1 32  1  0
  3 33  1  1
  4 34  1  0
  4 35  1  0
  5 36  1  0
  5 37  1  0
  6 38  1  6
 10 39  1  0
 10 40  1  0
 11 41  1  0
 14 42  1  0
 17 43  1  0
 18 44  1  0
 21 45  1  0
 21 46  1  0
 21 47  1  0
 22 48  1  0
 22 49  1  0
 22 50  1  0
 23 51  1  0
 25 52  1  0
 28 53  1  0
 28 54  1  0
 29 55  1  0
 29 56  1  0
M  END
$$$$
