
     RDKit          3D

 49 51  0  0  0  0  0  0  0  0999 V2000
    8.3988    0.7622    0.6754 C   0  0  0  0  0  0  0  0  0  0  0  0
    7.2660   -0.0916    0.6849 O   0  0  0  0  0  0  0  0  0  0  0  0
    5.9896    0.4400    0.5240 C   0  0  0  0  0  0  0  0  0  0  0  0
    5.7673    1.7801    0.3527 C   0  0  0  0  0  0  0  0  0  0  0  0
    4.4966    2.2822    0.1957 C   0  0  0  0  0  0  0  0  0  0  0  0
    4.3129    3.6581    0.0233 O   0  0  0  0  0  0  0  0  0  0  0  0
    3.3494    1.4655    0.1998 C   0  0  0  0  0  0  0  0  0  0  0  0
    2.0794    2.1081    0.0267 C   0  0  0  0  0  0  0  0  0  0  0  0
    2.1110    3.4326   -0.1228 O   0  0  0  0  0  0  0  0  0  0  0  0
    0.7347    1.6367   -0.0243 C   0  0  0  0  0  0  0  0  0  0  0  0
    0.1828    0.4747    0.0659 C   0  0  0  0  0  0  0  0  0  0  0  0
   -1.2669    0.1969   -0.0156 C   0  0  0  0  0  0  0  0  0  0  0  0
   -2.2020    1.1654   -0.1999 C   0  0  0  0  0  0  0  0  0  0  0  0
   -3.5655    0.8162   -0.2665 C   0  0  0  0  0  0  0  0  0  0  0  0
   -4.0060   -0.4818   -0.1521 C   0  0  0  0  0  0  0  0  0  0  0  0
   -5.3783   -0.7817   -0.2254 N   0  0  0  0  0  0  0  0  0  0  0  0
   -6.4505    0.1434   -0.4299 C   0  0  0  0  0  0  0  0  0  0  0  0
   -7.2714   -0.5926   -1.5007 C   0  0  0  0  0  0  0  0  0  0  0  0
   -7.1738   -2.0036   -1.0052 C   0  0  0  0  0  0  0  0  0  0  0  0
   -5.9694   -2.0831   -0.1049 C   0  0  0  0  0  0  0  0  0  0  0  0
   -3.0411   -1.4716    0.0370 C   0  0  0  0  0  0  0  0  0  0  0  0
   -1.7229   -1.1080    0.0984 C   0  0  0  0  0  0  0  0  0  0  0  0
    3.5903    0.1422    0.3707 C   0  0  0  0  0  0  0  0  0  0  0  0
    4.8920   -0.3746    0.5318 C   0  0  0  0  0  0  0  0  0  0  0  0
    5.0596   -1.7298    0.7006 O   0  0  0  0  0  0  0  0  0  0  0  0
    3.9517   -2.5985    0.7138 C   0  0  0  0  0  0  0  0  0  0  0  0
    8.4321    1.4135    1.5519 H   0  0  0  0  0  0  0  0  0  0  0  0
    9.3166    0.1477    0.5412 H   0  0  0  0  0  0  0  0  0  0  0  0
    8.2930    1.4136   -0.2390 H   0  0  0  0  0  0  0  0  0  0  0  0
    6.6322    2.4459    0.3439 H   0  0  0  0  0  0  0  0  0  0  0  0
    4.4275    4.3272    0.7484 H   0  0  0  0  0  0  0  0  0  0  0  0
   -0.0478    2.4471   -0.1786 H   0  0  0  0  0  0  0  0  0  0  0  0
    0.8159   -0.3735    0.2127 H   0  0  0  0  0  0  0  0  0  0  0  0
   -1.9261    2.2110   -0.2983 H   0  0  0  0  0  0  0  0  0  0  0  0
   -4.2474    1.6555   -0.4151 H   0  0  0  0  0  0  0  0  0  0  0  0
   -7.0718    0.2628    0.4873 H   0  0  0  0  0  0  0  0  0  0  0  0
   -6.1395    1.1197   -0.8441 H   0  0  0  0  0  0  0  0  0  0  0  0
   -8.3060   -0.2066   -1.5246 H   0  0  0  0  0  0  0  0  0  0  0  0
   -6.7278   -0.4631   -2.4586 H   0  0  0  0  0  0  0  0  0  0  0  0
   -8.1145   -2.2436   -0.4813 H   0  0  0  0  0  0  0  0  0  0  0  0
   -7.1074   -2.7026   -1.8661 H   0  0  0  0  0  0  0  0  0  0  0  0
   -5.2883   -2.9164   -0.3869 H   0  0  0  0  0  0  0  0  0  0  0  0
   -6.3626   -2.2525    0.9406 H   0  0  0  0  0  0  0  0  0  0  0  0
   -3.3737   -2.4952    0.1290 H   0  0  0  0  0  0  0  0  0  0  0  0
   -0.9723   -1.8802    0.2457 H   0  0  0  0  0  0  0  0  0  0  0  0
    2.7765   -0.5559    0.3872 H   0  0  0  0  0  0  0  0  0  0  0  0
    3.3064   -2.4815   -0.2004 H   0  0  0  0  0  0  0  0  0  0  0  0
    3.2710   -2.4073    1.5829 H   0  0  0  0  0  0  0  0  0  0  0  0
    4.2796   -3.6527    0.7858 H   0  0  0  0  0  0  0  0  0  0  0  0
  1  2  1  0
  2  3  1  0
  3  4  2  0
  4  5  1  0
  5  6  1  0
  5  7  2  0
  7  8  1  0
  8  9  2  0
  8 10  1  0
 10 11  2  0
 11 12  1  0
 12 13  2  0
 13 14  1  0
 14 15  2  0
 15 16  1  0
 16 17  1  0
 17 18  1  0
 18 19  1  0
 19 20  1  0
 15 21  1  0
 21 22  2  0
  7 23  1  0
 23 24  2  0
 24 25  1  0
 25 26  1  0
 24  3  1  0
 22 12  1  0
 20 16  1  0
  1 27  1  0
  1 28  1  0
  1 29  1  0
  4 30  1  0
  6 31  1  0
 10 32  1  0
 11 33  1  0
 13 34  1  0
 14 35  1  0
 17 36  1  0
 17 37  1  0
 18 38  1  0
 18 39  1  0
 19 40  1  0
 19 41  1  0
 20 42  1  0
 20 43  1  0
 21 44  1  0
 22 45  1  0
 23 46  1  0
 26 47  1  0
 26 48  1  0
 26 49  1  0
M  END
$$$$
