
     RDKit          3D

 53 55  0  0  0  0  0  0  0  0999 V2000
    5.8740   -0.9141    0.6745 C   0  0  0  0  0  0  0  0  0  0  0  0
    6.0194   -0.8583   -0.7911 C   0  0  0  0  0  0  0  0  0  0  0  0
    4.9544   -1.3708   -1.6675 C   0  0  0  0  0  0  0  0  0  0  0  0
    3.6580   -0.6514   -1.4961 C   0  0  0  0  0  0  0  0  0  0  0  0
    3.1227   -0.8599   -0.1792 N   0  0  0  0  0  0  0  0  0  0  0  0
    1.9895   -0.1309    0.2657 C   0  0  0  0  0  0  0  0  0  0  0  0
    2.1442    1.0795    0.7947 N   0  0  0  0  0  0  0  0  0  0  0  0
    1.1158    1.7860    1.2339 C   0  0  0  0  0  0  0  0  0  0  0  0
   -0.1807    1.2756    1.1546 C   0  0  0  0  0  0  0  0  0  0  0  0
   -1.3101    2.0461    1.6435 C   0  0  0  0  0  0  0  0  0  0  0  0
   -1.1771    3.3143    2.1982 C   0  0  0  0  0  0  0  0  0  0  0  0
   -2.4099    3.7528    2.5504 N   0  0  0  0  0  0  0  0  0  0  0  0
   -2.7231    5.0262    3.1658 C   0  0  0  0  0  0  0  0  0  0  0  0
   -3.2985    2.7944    2.2301 C   0  0  0  0  0  0  0  0  0  0  0  0
   -2.6019    1.7886    1.6894 N   0  0  0  0  0  0  0  0  0  0  0  0
   -0.3404    0.0294    0.6099 C   0  0  0  0  0  0  0  0  0  0  0  0
   -1.5661   -0.6271    0.4720 N   0  0  0  0  0  0  0  0  0  0  0  0
   -1.6555   -1.9382   -0.1323 C   0  0  1  0  0  0  0  0  0  0  0  0
   -3.0799   -2.4797   -0.0273 C   0  0  0  0  0  0  0  0  0  0  0  0
   -3.8058   -2.4540   -1.3361 C   0  0  0  0  0  0  0  0  0  0  0  0
   -3.6263   -1.0739   -1.9364 C   0  0  2  0  0  0  0  0  0  0  0  0
   -4.5232   -0.8404   -2.9790 O   0  0  0  0  0  0  0  0  0  0  0  0
   -2.1927   -0.9367   -2.3782 C   0  0  0  0  0  0  0  0  0  0  0  0
   -1.3003   -1.8951   -1.6188 C   0  0  0  0  0  0  0  0  0  0  0  0
    0.7718   -0.6375    0.1785 N   0  0  0  0  0  0  0  0  0  0  0  0
    6.9155   -0.6530    1.1004 H   0  0  0  0  0  0  0  0  0  0  0  0
    5.7021   -1.9654    1.0012 H   0  0  0  0  0  0  0  0  0  0  0  0
    5.2217   -0.1901    1.1569 H   0  0  0  0  0  0  0  0  0  0  0  0
    6.2502    0.2118   -1.0741 H   0  0  0  0  0  0  0  0  0  0  0  0
    6.9579   -1.4519   -1.0474 H   0  0  0  0  0  0  0  0  0  0  0  0
    4.7335   -2.4597   -1.4907 H   0  0  0  0  0  0  0  0  0  0  0  0
    5.2672   -1.2669   -2.7425 H   0  0  0  0  0  0  0  0  0  0  0  0
    2.8982   -0.9733   -2.2684 H   0  0  0  0  0  0  0  0  0  0  0  0
    3.8112    0.4479   -1.6738 H   0  0  0  0  0  0  0  0  0  0  0  0
    3.5035   -1.5558    0.4905 H   0  0  0  0  0  0  0  0  0  0  0  0
    1.2422    2.7787    1.6671 H   0  0  0  0  0  0  0  0  0  0  0  0
   -0.2646    3.8835    2.3393 H   0  0  0  0  0  0  0  0  0  0  0  0
   -2.0600    5.2605    4.0273 H   0  0  0  0  0  0  0  0  0  0  0  0
   -2.6145    5.8553    2.4363 H   0  0  0  0  0  0  0  0  0  0  0  0
   -3.7669    5.0339    3.5149 H   0  0  0  0  0  0  0  0  0  0  0  0
   -4.3832    2.8702    2.4009 H   0  0  0  0  0  0  0  0  0  0  0  0
   -2.4415   -0.2023    0.7930 H   0  0  0  0  0  0  0  0  0  0  0  0
   -0.9779   -2.6818    0.3236 H   0  0  0  0  0  0  0  0  0  0  0  0
   -3.0783   -3.4900    0.4253 H   0  0  0  0  0  0  0  0  0  0  0  0
   -3.6510   -1.8237    0.6860 H   0  0  0  0  0  0  0  0  0  0  0  0
   -3.3918   -3.2064   -2.0179 H   0  0  0  0  0  0  0  0  0  0  0  0
   -4.8789   -2.6205   -1.1333 H   0  0  0  0  0  0  0  0  0  0  0  0
   -3.8318   -0.3352   -1.1615 H   0  0  0  0  0  0  0  0  0  0  0  0
   -5.4290   -1.0747   -2.6276 H   0  0  0  0  0  0  0  0  0  0  0  0
   -1.8144    0.0991   -2.2903 H   0  0  0  0  0  0  0  0  0  0  0  0
   -2.1338   -1.2192   -3.4538 H   0  0  0  0  0  0  0  0  0  0  0  0
   -0.2735   -1.5598   -1.7143 H   0  0  0  0  0  0  0  0  0  0  0  0
   -1.3701   -2.9363   -1.9865 H   0  0  0  0  0  0  0  0  0  0  0  0
  1  2  1  0
  2  3  1  0
  3  4  1  0
  4  5  1  0
  5  6  1  0
  6  7  2  0
  7  8  1  0
  8  9  2  0
  9 10  1  0
 10 11  2  0
 11 12  1  0
 12 13  1  0
 12 14  1  0
 14 15  2  0
  9 16  1  0
 16 17  1  0
 17 18  1  0
 18 19  1  0
 19 20  1  0
 20 21  1  0
 21 22  1  0
 21 23  1  0
 23 24  1  0
 16 25  2  0
 25  6  1  0
 15 10  1  0
 24 18  1  0
  1 26  1  0
  1 27  1  0
  1 28  1  0
  2 29  1  0
  2 30  1  0
  3 31  1  0
  3 32  1  0
  4 33  1  0
  4 34  1  0
  5 35  1  0
  8 36  1  0
 11 37  1  0
 13 38  1  0
 13 39  1  0
 13 40  1  0
 14 41  1  0
 17 42  1  0
 18 43  1  1
 19 44  1  0
 19 45  1  0
 20 46  1  0
 20 47  1  0
 21 48  1  1
 22 49  1  0
 23 50  1  0
 23 51  1  0
 24 52  1  0
 24 53  1  0
M  END
$$$$
