
     RDKit          3D

 46 49  0  0  0  0  0  0  0  0999 V2000
   -1.0622    1.0760   -3.7905 C   0  0  0  0  0  0  0  0  0  0  0  0
   -1.6087    0.7081   -2.4769 N   0  0  0  0  0  0  0  0  0  0  0  0
   -0.8517    0.4005   -1.4229 C   0  0  0  0  0  0  0  0  0  0  0  0
    0.5536    0.3155   -1.5024 N   0  0  0  0  0  0  0  0  0  0  0  0
    1.3536    0.1798   -2.6635 C   0  0  0  0  0  0  0  0  0  0  0  0
    2.8124   -0.0256   -2.1501 C   0  0  0  0  0  0  0  0  0  0  0  0
    2.7873   -1.1203   -1.3235 O   0  0  0  0  0  0  0  0  0  0  0  0
    2.0963   -0.8587   -0.1279 C   0  0  0  0  0  0  0  0  0  0  0  0
    3.0745   -0.9022    0.9815 C   0  0  0  0  0  0  0  0  0  0  0  0
    2.5590   -0.6458    2.3668 C   0  0  0  0  0  0  0  0  0  0  0  0
    3.8145    0.2069    2.5875 C   0  0  0  0  0  0  0  0  0  0  0  0
    4.0466    0.2333    1.0891 C   0  0  0  0  0  0  0  0  0  0  0  0
    1.3043    0.4009   -0.2278 C   0  0  0  0  0  0  0  0  0  0  0  0
   -1.4431    0.1061   -0.2177 N   0  0  0  0  0  0  0  0  0  0  0  0
   -2.7633    0.1029   -0.0102 C   0  0  0  0  0  0  0  0  0  0  0  0
   -3.2862   -0.2491    1.3334 C   0  0  0  0  0  0  0  0  0  0  0  0
   -2.3431   -0.6524    2.2991 C   0  0  0  0  0  0  0  0  0  0  0  0
   -2.7786   -0.9836    3.5597 C   0  0  0  0  0  0  0  0  0  0  0  0
   -4.0793   -0.9288    3.8842 N   0  0  0  0  0  0  0  0  0  0  0  0
   -4.9818   -0.5479    2.9785 C   0  0  0  0  0  0  0  0  0  0  0  0
   -4.5809   -0.2110    1.7113 C   0  0  0  0  0  0  0  0  0  0  0  0
   -5.5416    0.1761    0.8285 F   0  0  0  0  0  0  0  0  0  0  0  0
   -3.5406    0.4164   -1.0878 C   0  0  0  0  0  0  0  0  0  0  0  0
   -2.9473    0.7151   -2.3083 C   0  0  0  0  0  0  0  0  0  0  0  0
   -3.6567    1.0094   -3.3183 O   0  0  0  0  0  0  0  0  0  0  0  0
   -0.5702    0.2298   -4.2789 H   0  0  0  0  0  0  0  0  0  0  0  0
   -0.5356    2.0313   -3.7758 H   0  0  0  0  0  0  0  0  0  0  0  0
   -1.9456    1.2875   -4.4855 H   0  0  0  0  0  0  0  0  0  0  0  0
    1.1441   -0.7906   -3.2156 H   0  0  0  0  0  0  0  0  0  0  0  0
    1.4485    1.0306   -3.3322 H   0  0  0  0  0  0  0  0  0  0  0  0
    3.1755    0.9059   -1.7294 H   0  0  0  0  0  0  0  0  0  0  0  0
    3.4622   -0.2902   -3.0162 H   0  0  0  0  0  0  0  0  0  0  0  0
    1.3807   -1.6974    0.0027 H   0  0  0  0  0  0  0  0  0  0  0  0
    3.6351   -1.8725    0.9660 H   0  0  0  0  0  0  0  0  0  0  0  0
    1.6809    0.0033    2.4657 H   0  0  0  0  0  0  0  0  0  0  0  0
    2.5991   -1.5206    3.0449 H   0  0  0  0  0  0  0  0  0  0  0  0
    4.6443   -0.3109    3.0833 H   0  0  0  0  0  0  0  0  0  0  0  0
    3.6266    1.2125    2.9760 H   0  0  0  0  0  0  0  0  0  0  0  0
    3.7408    1.1497    0.5824 H   0  0  0  0  0  0  0  0  0  0  0  0
    5.1041   -0.0071    0.7813 H   0  0  0  0  0  0  0  0  0  0  0  0
    0.5932    0.4482    0.5940 H   0  0  0  0  0  0  0  0  0  0  0  0
    1.8791    1.3342   -0.2287 H   0  0  0  0  0  0  0  0  0  0  0  0
   -1.2948   -0.6962    2.0339 H   0  0  0  0  0  0  0  0  0  0  0  0
   -2.0453   -1.2988    4.3052 H   0  0  0  0  0  0  0  0  0  0  0  0
   -6.0554   -0.5077    3.2581 H   0  0  0  0  0  0  0  0  0  0  0  0
   -4.6042    0.4375   -1.0229 H   0  0  0  0  0  0  0  0  0  0  0  0
  1  2  1  0
  2  3  1  0
  3  4  1  0
  4  5  1  0
  5  6  1  0
  6  7  1  0
  7  8  1  0
  8  9  1  0
  9 10  1  0
 10 11  1  0
 11 12  1  0
  8 13  1  0
  3 14  2  0
 14 15  1  0
 15 16  1  0
 16 17  2  0
 17 18  1  0
 18 19  2  0
 19 20  1  0
 20 21  2  0
 21 22  1  0
 15 23  2  0
 23 24  1  0
 24 25  2  0
 24  2  1  0
 13  4  1  0
 21 16  1  0
 12  9  1  0
  1 26  1  0
  1 27  1  0
  1 28  1  0
  5 29  1  0
  5 30  1  0
  6 31  1  0
  6 32  1  0
  8 33  1  0
  9 34  1  0
 10 35  1  0
 10 36  1  0
 11 37  1  0
 11 38  1  0
 12 39  1  0
 12 40  1  0
 13 41  1  0
 13 42  1  0
 17 43  1  0
 18 44  1  0
 20 45  1  0
 23 46  1  0
M  END
$$$$
