
     RDKit          3D

 69 73  0  0  0  0  0  0  0  0999 V2000
    9.4491   -1.7540   -3.1293 C   0  0  0  0  0  0  0  0  0  0  0  0
    8.4838   -2.0513   -2.1618 O   0  0  0  0  0  0  0  0  0  0  0  0
    7.9164   -1.0769   -1.3545 C   0  0  0  0  0  0  0  0  0  0  0  0
    6.9688   -1.4265   -0.4167 C   0  0  0  0  0  0  0  0  0  0  0  0
    6.3982   -0.4668    0.3906 C   0  0  0  0  0  0  0  0  0  0  0  0
    6.7849    0.8489    0.2500 C   0  0  0  0  0  0  0  0  0  0  0  0
    6.2571    1.8586    1.0365 C   0  0  0  0  0  0  0  0  0  0  0  0
    5.3147    1.5871    1.9822 O   0  0  0  0  0  0  0  0  0  0  0  0
    4.0424    1.0968    1.7062 C   0  0  0  0  0  0  0  0  0  0  0  0
    3.5523    0.9569    0.4270 C   0  0  0  0  0  0  0  0  0  0  0  0
    2.2630    0.4546    0.2781 C   0  0  0  0  0  0  0  0  0  0  0  0
    1.5008    0.1085    1.3672 C   0  0  0  0  0  0  0  0  0  0  0  0
    0.2004   -0.3961    1.1649 N   0  0  0  0  0  0  0  0  0  0  0  0
   -0.8623    0.5429    1.1202 C   0  0  0  0  0  0  0  0  0  0  0  0
   -0.6215    1.7750    1.2591 O   0  0  0  0  0  0  0  0  0  0  0  0
   -2.2316    0.0833    0.9137 C   0  0  0  0  0  0  0  0  0  0  0  0
   -3.3766    0.8936    0.8477 C   0  0  0  0  0  0  0  0  0  0  0  0
   -3.3210    2.3740    0.9866 C   0  0  0  0  0  0  0  0  0  0  0  0
   -4.4623    0.1239    0.6479 N   0  0  0  0  0  0  0  0  0  0  0  0
   -5.8204    0.5644    0.5232 C   0  0  0  0  0  0  0  0  0  0  0  0
   -6.2381    0.8735   -0.8851 C   0  0  0  0  0  0  0  0  0  0  0  0
   -5.4034    1.9686   -1.5126 C   0  0  0  0  0  0  0  0  0  0  0  0
   -7.6664    1.4296   -0.8026 C   0  0  0  0  0  0  0  0  0  0  0  0
   -6.3005   -0.2500   -1.6963 O   0  0  0  0  0  0  0  0  0  0  0  0
   -4.0704   -1.1386    0.5826 N   0  0  0  0  0  0  0  0  0  0  0  0
   -4.8794   -2.2890    0.3824 C   0  0  0  0  0  0  0  0  0  0  0  0
   -4.8511   -3.0118   -0.7840 C   0  0  0  0  0  0  0  0  0  0  0  0
   -5.6238   -4.1339   -1.0109 C   0  0  0  0  0  0  0  0  0  0  0  0
   -6.4624   -4.5232    0.0168 C   0  0  0  0  0  0  0  0  0  0  0  0
   -6.5090   -3.8159    1.1949 C   0  0  0  0  0  0  0  0  0  0  0  0
   -5.7280   -2.7072    1.3852 C   0  0  0  0  0  0  0  0  0  0  0  0
   -2.7266   -1.1900    0.7404 C   0  0  0  0  0  0  0  0  0  0  0  0
   -2.0639   -2.2440    0.7264 O   0  0  0  0  0  0  0  0  0  0  0  0
    2.0018    0.2547    2.6011 N   0  0  0  0  0  0  0  0  0  0  0  0
    3.2438    0.7369    2.7842 C   0  0  0  0  0  0  0  0  0  0  0  0
    6.6713    3.1723    0.8860 C   0  0  0  0  0  0  0  0  0  0  0  0
    7.6117    3.4812   -0.0505 C   0  0  0  0  0  0  0  0  0  0  0  0
    8.1105    2.5020   -0.8018 N   0  0  0  0  0  0  0  0  0  0  0  0
    7.7365    1.1979   -0.6911 C   0  0  0  0  0  0  0  0  0  0  0  0
    8.2942    0.2282   -1.4865 C   0  0  0  0  0  0  0  0  0  0  0  0
    8.9915   -1.4102   -4.0848 H   0  0  0  0  0  0  0  0  0  0  0  0
   10.2041   -1.0211   -2.7845 H   0  0  0  0  0  0  0  0  0  0  0  0
   10.0091   -2.7045   -3.3385 H   0  0  0  0  0  0  0  0  0  0  0  0
    6.6613   -2.4748   -0.3061 H   0  0  0  0  0  0  0  0  0  0  0  0
    5.6771   -0.7395    1.1243 H   0  0  0  0  0  0  0  0  0  0  0  0
    4.1621    1.2325   -0.4157 H   0  0  0  0  0  0  0  0  0  0  0  0
    1.8783    0.3444   -0.7194 H   0  0  0  0  0  0  0  0  0  0  0  0
    0.0569   -1.4347    1.0550 H   0  0  0  0  0  0  0  0  0  0  0  0
   -4.3719    2.7117    1.1977 H   0  0  0  0  0  0  0  0  0  0  0  0
   -2.7078    2.6310    1.8743 H   0  0  0  0  0  0  0  0  0  0  0  0
   -2.9422    2.8108    0.0513 H   0  0  0  0  0  0  0  0  0  0  0  0
   -6.0140    1.5037    1.1205 H   0  0  0  0  0  0  0  0  0  0  0  0
   -6.5536   -0.1720    0.9238 H   0  0  0  0  0  0  0  0  0  0  0  0
   -5.4906    2.8826   -0.9185 H   0  0  0  0  0  0  0  0  0  0  0  0
   -4.3429    1.6307   -1.6232 H   0  0  0  0  0  0  0  0  0  0  0  0
   -5.8448    2.1295   -2.5397 H   0  0  0  0  0  0  0  0  0  0  0  0
   -8.2812    0.7569   -0.1692 H   0  0  0  0  0  0  0  0  0  0  0  0
   -8.1213    1.5186   -1.7940 H   0  0  0  0  0  0  0  0  0  0  0  0
   -7.5935    2.4007   -0.2650 H   0  0  0  0  0  0  0  0  0  0  0  0
   -6.0459   -0.0283   -2.6412 H   0  0  0  0  0  0  0  0  0  0  0  0
   -4.1860   -2.6945   -1.5860 H   0  0  0  0  0  0  0  0  0  0  0  0
   -5.5719   -4.6840   -1.9574 H   0  0  0  0  0  0  0  0  0  0  0  0
   -7.0947   -5.3958   -0.0988 H   0  0  0  0  0  0  0  0  0  0  0  0
   -7.1729   -4.1150    2.0227 H   0  0  0  0  0  0  0  0  0  0  0  0
   -5.7819   -2.1553    2.3383 H   0  0  0  0  0  0  0  0  0  0  0  0
    3.6583    0.8583    3.7929 H   0  0  0  0  0  0  0  0  0  0  0  0
    6.2332    3.9353    1.5241 H   0  0  0  0  0  0  0  0  0  0  0  0
    7.9627    4.4903   -0.2012 H   0  0  0  0  0  0  0  0  0  0  0  0
    9.0399    0.5546   -2.2135 H   0  0  0  0  0  0  0  0  0  0  0  0
  1  2  1  0
  2  3  1  0
  3  4  2  0
  4  5  1  0
  5  6  2  0
  6  7  1  0
  7  8  1  0
  8  9  1  0
  9 10  2  0
 10 11  1  0
 11 12  2  0
 12 13  1  0
 13 14  1  0
 14 15  2  0
 14 16  1  0
 16 17  2  0
 17 18  1  0
 17 19  1  0
 19 20  1  0
 20 21  1  0
 21 22  1  0
 21 23  1  0
 21 24  1  0
 19 25  1  0
 25 26  1  0
 26 27  2  0
 27 28  1  0
 28 29  2  0
 29 30  1  0
 30 31  2  0
 25 32  1  0
 32 33  2  0
 12 34  1  0
 34 35  2  0
  7 36  2  0
 36 37  1  0
 37 38  2  0
 38 39  1  0
 39 40  2  0
 40  3  1  0
 39  6  1  0
 35  9  1  0
 32 16  1  0
 31 26  1  0
  1 41  1  0
  1 42  1  0
  1 43  1  0
  4 44  1  0
  5 45  1  0
 10 46  1  0
 11 47  1  0
 13 48  1  0
 18 49  1  0
 18 50  1  0
 18 51  1  0
 20 52  1  0
 20 53  1  0
 22 54  1  0
 22 55  1  0
 22 56  1  0
 23 57  1  0
 23 58  1  0
 23 59  1  0
 24 60  1  0
 27 61  1  0
 28 62  1  0
 29 63  1  0
 30 64  1  0
 31 65  1  0
 35 66  1  0
 36 67  1  0
 37 68  1  0
 40 69  1  0
M  END
$$$$
