
     RDKit          3D

 40 43  0  0  0  0  0  0  0  0999 V2000
    1.9207   -4.0945    1.8521 Cl  0  0  0  0  0  0  0  0  0  0  0  0
    0.7999   -2.7396    1.6396 C   0  0  0  0  0  0  0  0  0  0  0  0
    0.7666   -2.0197    0.5320 N   0  0  0  0  0  0  0  0  0  0  0  0
   -0.0740   -0.9630    0.3072 C   0  0  0  0  0  0  0  0  0  0  0  0
    0.1400   -0.1756   -0.8253 N   0  0  0  0  0  0  0  0  0  0  0  0
    1.0605   -0.6881   -1.8594 C   0  0  0  0  0  0  0  0  0  0  0  0
    2.4325   -0.6265   -1.2938 C   0  0  0  0  0  0  0  0  0  0  0  0
    3.1880    0.5476   -1.3986 C   0  0  0  0  0  0  0  0  0  0  0  0
    4.4719    0.6462   -0.9067 C   0  0  0  0  0  0  0  0  0  0  0  0
    5.0576   -0.4360   -0.2841 C   0  0  0  0  0  0  0  0  0  0  0  0
    4.3058   -1.5700   -0.1919 C   0  0  0  0  0  0  0  0  0  0  0  0
    3.0580   -1.6406   -0.6789 N   0  0  0  0  0  0  0  0  0  0  0  0
   -0.9494   -0.6433    1.3158 C   0  0  0  0  0  0  0  0  0  0  0  0
   -1.8465    0.3725    1.1820 C   0  0  0  0  0  0  0  0  0  0  0  0
   -2.1150    1.0846   -0.0463 C   0  0  0  0  0  0  0  0  0  0  0  0
   -2.6023    0.3362   -1.1221 C   0  0  0  0  0  0  0  0  0  0  0  0
   -2.9480    0.9369   -2.3013 C   0  0  0  0  0  0  0  0  0  0  0  0
   -2.8318    2.3001   -2.4802 C   0  0  0  0  0  0  0  0  0  0  0  0
   -2.3434    3.0183   -1.3902 C   0  0  0  0  0  0  0  0  0  0  0  0
   -1.9944    2.4320   -0.2070 C   0  0  0  0  0  0  0  0  0  0  0  0
   -2.7164    0.6448    2.2578 C   0  0  0  0  0  0  0  0  0  0  0  0
   -2.6713   -0.0938    3.4085 C   0  0  0  0  0  0  0  0  0  0  0  0
   -1.7737   -1.1216    3.5351 C   0  0  0  0  0  0  0  0  0  0  0  0
   -0.9052   -1.4142    2.4977 C   0  0  0  0  0  0  0  0  0  0  0  0
   -0.0378   -2.4413    2.6384 N   0  0  0  0  0  0  0  0  0  0  0  0
   -0.1731    0.7404   -1.0193 H   0  0  0  0  0  0  0  0  0  0  0  0
    0.7768   -1.7529   -2.0993 H   0  0  0  0  0  0  0  0  0  0  0  0
    0.9566   -0.1505   -2.8183 H   0  0  0  0  0  0  0  0  0  0  0  0
    2.7437    1.3997   -1.8820 H   0  0  0  0  0  0  0  0  0  0  0  0
    5.0287    1.5757   -1.0067 H   0  0  0  0  0  0  0  0  0  0  0  0
    6.0555   -0.3624    0.0993 H   0  0  0  0  0  0  0  0  0  0  0  0
    4.6967   -2.4683    0.2858 H   0  0  0  0  0  0  0  0  0  0  0  0
   -2.7141   -0.7450   -1.0346 H   0  0  0  0  0  0  0  0  0  0  0  0
   -3.3336    0.3671   -3.1609 H   0  0  0  0  0  0  0  0  0  0  0  0
   -3.1022    2.7902   -3.4100 H   0  0  0  0  0  0  0  0  0  0  0  0
   -2.2532    4.0984   -1.5369 H   0  0  0  0  0  0  0  0  0  0  0  0
   -1.6254    3.0318    0.5957 H   0  0  0  0  0  0  0  0  0  0  0  0
   -3.4131    1.4570    2.1316 H   0  0  0  0  0  0  0  0  0  0  0  0
   -3.3361    0.1019    4.2569 H   0  0  0  0  0  0  0  0  0  0  0  0
   -1.6995   -1.7347    4.4185 H   0  0  0  0  0  0  0  0  0  0  0  0
  1  2  1  0
  2  3  2  0
  3  4  1  0
  4  5  1  0
  5  6  1  0
  6  7  1  0
  7  8  2  0
  8  9  1  0
  9 10  2  0
 10 11  1  0
 11 12  2  0
  4 13  2  0
 13 14  1  0
 14 15  1  0
 15 16  2  0
 16 17  1  0
 17 18  2  0
 18 19  1  0
 19 20  2  0
 14 21  2  0
 21 22  1  0
 22 23  2  0
 23 24  1  0
 24 25  2  0
 25  2  1  0
 12  7  1  0
 24 13  1  0
 20 15  1  0
  5 26  1  0
  6 27  1  0
  6 28  1  0
  8 29  1  0
  9 30  1  0
 10 31  1  0
 11 32  1  0
 16 33  1  0
 17 34  1  0
 18 35  1  0
 19 36  1  0
 20 37  1  0
 21 38  1  0
 22 39  1  0
 23 40  1  0
M  END
$$$$
