
     RDKit          3D

 59 63  0  0  0  0  0  0  0  0999 V2000
   -6.2358   -2.8814    1.9650 N   0  0  0  0  0  0  0  0  0  0  0  0
   -5.0244   -4.0561    1.4923 S   0  0  0  0  0  6  0  0  0  0  0  0
   -4.4504   -4.7487    2.6663 O   0  0  0  0  0  0  0  0  0  0  0  0
   -5.7028   -5.0439    0.5882 O   0  0  0  0  0  0  0  0  0  0  0  0
   -3.7896   -3.2194    0.5482 C   0  0  0  0  0  0  0  0  0  0  0  0
   -2.5432   -2.9037    1.0233 C   0  0  0  0  0  0  0  0  0  0  0  0
   -1.6437   -2.1762    0.2268 C   0  0  0  0  0  0  0  0  0  0  0  0
   -1.9858   -1.7746   -1.0148 C   0  0  0  0  0  0  0  0  0  0  0  0
   -1.1747   -1.0000   -1.9817 C   0  0  0  0  0  0  0  0  0  0  0  0
   -0.6481    0.2736   -1.4897 C   0  0  0  0  0  0  0  0  0  0  0  0
    0.6232    0.5765   -1.1000 C   0  0  0  0  0  0  0  0  0  0  0  0
    1.8630   -0.1973   -1.2591 C   0  0  0  0  0  0  0  0  0  0  0  0
    2.1143   -0.8506   -2.4578 C   0  0  0  0  0  0  0  0  0  0  0  0
    3.2604   -1.5607   -2.6630 C   0  0  0  0  0  0  0  0  0  0  0  0
    4.2017   -1.6343   -1.6587 C   0  0  0  0  0  0  0  0  0  0  0  0
    4.0191   -1.0089   -0.4477 C   0  0  0  0  0  0  0  0  0  0  0  0
    5.0244   -1.0520    0.6026 C   0  0  0  0  0  0  0  0  0  0  0  0
    5.8235   -2.1526    0.7701 C   0  0  0  0  0  0  0  0  0  0  0  0
    6.8206   -2.1820    1.7411 C   0  0  0  0  0  0  0  0  0  0  0  0
    7.0231   -1.0934    2.5590 C   0  0  0  0  0  0  0  0  0  0  0  0
    6.2264    0.0335    2.4093 C   0  0  0  0  0  0  0  0  0  0  0  0
    5.2584    0.0229    1.4451 C   0  0  0  0  0  0  0  0  0  0  0  0
    2.8275   -0.2964   -0.2857 C   0  0  0  0  0  0  0  0  0  0  0  0
    0.6104    1.8238   -0.5865 N   0  0  0  0  0  0  0  0  0  0  0  0
   -0.5986    2.3347   -0.6309 N   0  0  0  0  0  0  0  0  0  0  0  0
   -0.9788    3.6690   -0.1498 C   0  0  0  0  0  0  0  0  0  0  0  0
   -1.4563    4.2714    0.6864 N   0  0  0  0  0  0  0  0  0  0  0  0
   -1.6554    5.5582    0.7895 C   0  0  0  0  0  0  0  0  0  0  0  0
   -2.2929    6.2348    1.9433 C   0  0  0  0  0  0  0  0  0  0  0  0
   -2.6952    5.6075    2.9554 O   0  0  0  0  0  0  0  0  0  0  0  0
   -2.4760    7.6131    1.9515 O   0  0  0  0  0  0  0  0  0  0  0  0
   -1.2146    6.3097   -0.2909 C   0  0  0  0  0  0  0  0  0  0  0  0
   -0.5469    5.0731   -1.3658 S   0  0  0  0  0  0  0  0  0  0  0  0
   -1.4079    1.4107   -1.1823 C   0  0  0  0  0  0  0  0  0  0  0  0
   -2.8633    1.6172   -1.3884 C   0  0  0  0  0  0  0  0  0  0  0  0
   -3.1911    1.4601   -2.7256 F   0  0  0  0  0  0  0  0  0  0  0  0
   -3.6320    0.8656   -0.5475 F   0  0  0  0  0  0  0  0  0  0  0  0
   -3.2021    2.9529   -1.1073 F   0  0  0  0  0  0  0  0  0  0  0  0
   -3.2586   -2.1130   -1.4691 C   0  0  0  0  0  0  0  0  0  0  0  0
   -4.1649   -2.8233   -0.7197 C   0  0  0  0  0  0  0  0  0  0  0  0
   -6.1905   -2.0992    1.2443 H   0  0  0  0  0  0  0  0  0  0  0  0
   -7.1888   -3.3321    1.8931 H   0  0  0  0  0  0  0  0  0  0  0  0
   -2.2838   -3.2213    2.0191 H   0  0  0  0  0  0  0  0  0  0  0  0
   -0.6632   -1.9352    0.6007 H   0  0  0  0  0  0  0  0  0  0  0  0
   -1.6765   -0.9669   -2.9635 H   0  0  0  0  0  0  0  0  0  0  0  0
   -0.2906   -1.6980   -2.1554 H   0  0  0  0  0  0  0  0  0  0  0  0
    1.3683   -0.7377   -3.2440 H   0  0  0  0  0  0  0  0  0  0  0  0
    3.4279   -2.0671   -3.6179 H   0  0  0  0  0  0  0  0  0  0  0  0
    5.1313   -2.2085   -1.8140 H   0  0  0  0  0  0  0  0  0  0  0  0
    5.6303   -3.0048    0.1017 H   0  0  0  0  0  0  0  0  0  0  0  0
    7.4286   -3.0727    1.8381 H   0  0  0  0  0  0  0  0  0  0  0  0
    7.8092   -1.0953    3.3252 H   0  0  0  0  0  0  0  0  0  0  0  0
    6.4175    0.8891    3.0756 H   0  0  0  0  0  0  0  0  0  0  0  0
    4.6204    0.8899    1.3003 H   0  0  0  0  0  0  0  0  0  0  0  0
    2.6726    0.2011    0.6581 H   0  0  0  0  0  0  0  0  0  0  0  0
   -3.0827    8.0244    2.6488 H   0  0  0  0  0  0  0  0  0  0  0  0
   -1.2401    7.3963   -0.4866 H   0  0  0  0  0  0  0  0  0  0  0  0
   -3.5963   -1.8174   -2.4792 H   0  0  0  0  0  0  0  0  0  0  0  0
   -5.1564   -3.0845   -1.1019 H   0  0  0  0  0  0  0  0  0  0  0  0
  1  2  1  0
  2  3  2  0
  2  4  2  0
  2  5  1  0
  5  6  2  0
  6  7  1  0
  7  8  2  0
  8  9  1  0
  9 10  1  0
 10 11  1  0
 11 12  1  0
 12 13  2  0
 13 14  1  0
 14 15  2  0
 15 16  1  0
 16 17  1  0
 17 18  2  0
 18 19  1  0
 19 20  2  0
 20 21  1  0
 21 22  2  0
 16 23  2  0
 11 24  2  0
 24 25  1  0
 25 26  1  0
 26 27  2  0
 27 28  1  0
 28 29  1  0
 29 30  2  0
 29 31  1  0
 28 32  2  0
 32 33  1  0
 25 34  1  0
 34 35  1  0
 35 36  1  0
 35 37  1  0
 35 38  1  0
  8 39  1  0
 39 40  2  0
 40  5  1  0
 34 10  2  0
 23 12  1  0
 33 26  1  0
 22 17  1  0
  1 41  1  0
  1 42  1  0
  6 43  1  0
  7 44  1  0
  9 45  1  0
  9 46  1  0
 13 47  1  0
 14 48  1  0
 15 49  1  0
 18 50  1  0
 19 51  1  0
 20 52  1  0
 21 53  1  0
 22 54  1  0
 23 55  1  0
 31 56  1  0
 32 57  1  0
 39 58  1  0
 40 59  1  0
M  END
$$$$
