
     RDKit          3D

 50 53  0  0  0  0  0  0  0  0999 V2000
    2.2436    0.0409   -2.2686 O   0  0  0  0  0  0  0  0  0  0  0  0
    1.3477   -0.1088   -1.3999 C   0  0  0  0  0  0  0  0  0  0  0  0
   -0.0454   -0.3875   -1.8152 C   0  0  0  0  0  0  0  0  0  0  0  0
   -0.9455   -0.5334   -0.7096 N   0  0  0  0  0  0  0  0  0  0  0  0
   -1.6353    0.5153   -0.1864 C   0  0  0  0  0  0  0  0  0  0  0  0
   -1.4500    1.6482   -0.7192 O   0  0  0  0  0  0  0  0  0  0  0  0
   -2.5024    0.3865    0.8735 C   0  0  0  0  0  0  0  0  0  0  0  0
   -3.2600    1.5119    1.4496 C   0  0  0  0  0  0  0  0  0  0  0  0
   -4.4226    1.9296    0.6498 C   0  0  0  0  0  0  0  0  0  0  0  0
   -4.3259    2.9564   -0.2278 C   0  0  0  0  0  0  0  0  0  0  0  0
   -5.4271    3.3395   -0.9811 C   0  0  0  0  0  0  0  0  0  0  0  0
   -6.6312    2.6808   -0.8451 C   0  0  0  0  0  0  0  0  0  0  0  0
   -6.7540    1.6243    0.0495 C   0  0  0  0  0  0  0  0  0  0  0  0
   -5.6417    1.2764    0.7752 C   0  0  0  0  0  0  0  0  0  0  0  0
   -2.6585   -0.8330    1.3969 N   0  0  0  0  0  0  0  0  0  0  0  0
   -2.0041   -1.8884    0.9177 C   0  0  0  0  0  0  0  0  0  0  0  0
   -2.2252   -3.1129    1.5238 C   0  0  0  0  0  0  0  0  0  0  0  0
   -1.5521   -4.2203    1.0421 C   0  0  0  0  0  0  0  0  0  0  0  0
   -0.6747   -4.1213   -0.0206 C   0  0  0  0  0  0  0  0  0  0  0  0
   -0.4913   -2.8740   -0.5887 C   0  0  0  0  0  0  0  0  0  0  0  0
   -1.1334   -1.7310   -0.1542 C   0  0  0  0  0  0  0  0  0  0  0  0
    1.7289   -0.0002   -0.0393 N   0  0  0  0  0  0  0  0  0  0  0  0
    3.0516    0.2647    0.3543 N   0  0  0  0  0  0  0  0  0  0  0  0
    4.0803   -0.2703   -0.2003 C   0  0  0  0  0  0  0  0  0  0  0  0
    5.4595    0.0218    0.2281 C   0  0  0  0  0  0  0  0  0  0  0  0
    5.7164    0.8962    1.2597 C   0  0  0  0  0  0  0  0  0  0  0  0
    6.9981    1.1761    1.6671 C   0  0  0  0  0  0  0  0  0  0  0  0
    8.0909    0.5824    1.0485 C   0  0  0  0  0  0  0  0  0  0  0  0
    9.7343    0.9279    1.5558 Cl  0  0  0  0  0  0  0  0  0  0  0  0
    7.8098   -0.2887    0.0194 C   0  0  0  0  0  0  0  0  0  0  0  0
    6.5317   -0.5742   -0.3945 C   0  0  0  0  0  0  0  0  0  0  0  0
   -0.3997    0.5251   -2.3898 H   0  0  0  0  0  0  0  0  0  0  0  0
   -0.1740   -1.2134   -2.5100 H   0  0  0  0  0  0  0  0  0  0  0  0
   -2.5771    2.3725    1.6542 H   0  0  0  0  0  0  0  0  0  0  0  0
   -3.6640    1.1841    2.4365 H   0  0  0  0  0  0  0  0  0  0  0  0
   -3.4028    3.5046   -0.3642 H   0  0  0  0  0  0  0  0  0  0  0  0
   -5.3112    4.1650   -1.6727 H   0  0  0  0  0  0  0  0  0  0  0  0
   -7.4562    3.0101   -1.4481 H   0  0  0  0  0  0  0  0  0  0  0  0
   -7.7096    1.1500    0.1150 H   0  0  0  0  0  0  0  0  0  0  0  0
   -5.7213    0.4692    1.4645 H   0  0  0  0  0  0  0  0  0  0  0  0
   -2.9168   -3.1514    2.3508 H   0  0  0  0  0  0  0  0  0  0  0  0
   -1.7350   -5.1639    1.5232 H   0  0  0  0  0  0  0  0  0  0  0  0
   -0.1604   -5.0047   -0.3778 H   0  0  0  0  0  0  0  0  0  0  0  0
    0.1918   -2.8162   -1.4037 H   0  0  0  0  0  0  0  0  0  0  0  0
    0.9708   -0.1277    0.6812 H   0  0  0  0  0  0  0  0  0  0  0  0
    3.9394   -0.9622   -1.0130 H   0  0  0  0  0  0  0  0  0  0  0  0
    4.8626    1.3680    1.7526 H   0  0  0  0  0  0  0  0  0  0  0  0
    7.2111    1.8736    2.4918 H   0  0  0  0  0  0  0  0  0  0  0  0
    8.6801   -0.7536   -0.4634 H   0  0  0  0  0  0  0  0  0  0  0  0
    6.3597   -1.2639   -1.2055 H   0  0  0  0  0  0  0  0  0  0  0  0
  1  2  2  0
  2  3  1  0
  3  4  1  0
  4  5  1  0
  5  6  2  0
  5  7  1  0
  7  8  1  0
  8  9  1  0
  9 10  2  0
 10 11  1  0
 11 12  2  0
 12 13  1  0
 13 14  2  0
  7 15  2  0
 15 16  1  0
 16 17  2  0
 17 18  1  0
 18 19  2  0
 19 20  1  0
 20 21  2  0
  2 22  1  0
 22 23  1  0
 23 24  2  0
 24 25  1  0
 25 26  2  0
 26 27  1  0
 27 28  2  0
 28 29  1  0
 28 30  1  0
 30 31  2  0
 21  4  1  0
 31 25  1  0
 14  9  1  0
 21 16  1  0
  3 32  1  0
  3 33  1  0
  8 34  1  0
  8 35  1  0
 10 36  1  0
 11 37  1  0
 12 38  1  0
 13 39  1  0
 14 40  1  0
 17 41  1  0
 18 42  1  0
 19 43  1  0
 20 44  1  0
 22 45  1  0
 24 46  1  0
 26 47  1  0
 27 48  1  0
 30 49  1  0
 31 50  1  0
M  END
$$$$
