
     RDKit          3D

 30 31  0  0  0  0  0  0  0  0999 V2000
   -0.7669   -2.5188   -0.7265 C   0  0  0  0  0  0  0  0  0  0  0  0
   -0.9976   -1.2393   -1.4740 C   0  0  0  0  0  0  0  0  0  0  0  0
   -1.3522   -0.0949   -0.5811 C   0  0  0  0  0  0  0  0  0  0  0  0
   -2.6246    0.2996   -0.5026 N   0  0  0  0  0  0  0  0  0  0  0  0
   -3.0315    1.3152    0.2752 C   0  0  0  0  0  0  0  0  0  0  0  0
   -4.4023    1.6711    0.3031 N   0  0  0  0  0  0  0  0  0  0  0  0
   -2.0928    1.9458    0.9973 N   0  0  0  0  0  0  0  0  0  0  0  0
   -0.7878    1.6152    0.9796 C   0  0  0  0  0  0  0  0  0  0  0  0
    0.1913    2.2821    1.7416 N   0  0  0  0  0  0  0  0  0  0  0  0
   -0.3956    0.5575    0.1634 C   0  0  0  0  0  0  0  0  0  0  0  0
    0.9962    0.1530    0.1026 C   0  0  0  0  0  0  0  0  0  0  0  0
    1.4727   -0.7845    0.9868 C   0  0  0  0  0  0  0  0  0  0  0  0
    2.7949   -1.2014    0.9601 C   0  0  0  0  0  0  0  0  0  0  0  0
    3.6407   -0.6478    0.0112 C   0  0  0  0  0  0  0  0  0  0  0  0
    5.3238   -1.1355   -0.0694 Cl  0  0  0  0  0  0  0  0  0  0  0  0
    3.1763    0.2955   -0.8840 C   0  0  0  0  0  0  0  0  0  0  0  0
    4.2868    0.9620   -2.0621 Cl  0  0  0  0  0  0  0  0  0  0  0  0
    1.8532    0.6937   -0.8351 C   0  0  0  0  0  0  0  0  0  0  0  0
    0.2967   -2.8281   -0.6835 H   0  0  0  0  0  0  0  0  0  0  0  0
   -1.2518   -2.5089    0.2819 H   0  0  0  0  0  0  0  0  0  0  0  0
   -1.2796   -3.3577   -1.2764 H   0  0  0  0  0  0  0  0  0  0  0  0
   -0.0531   -1.0128   -2.0176 H   0  0  0  0  0  0  0  0  0  0  0  0
   -1.8320   -1.3852   -2.1885 H   0  0  0  0  0  0  0  0  0  0  0  0
   -4.7451    2.3831    0.9763 H   0  0  0  0  0  0  0  0  0  0  0  0
   -5.0880    1.2353   -0.3399 H   0  0  0  0  0  0  0  0  0  0  0  0
    0.0657    2.3917    2.7545 H   0  0  0  0  0  0  0  0  0  0  0  0
    1.0286    2.6566    1.2774 H   0  0  0  0  0  0  0  0  0  0  0  0
    0.8492   -1.2500    1.7510 H   0  0  0  0  0  0  0  0  0  0  0  0
    3.1991   -1.9272    1.6316 H   0  0  0  0  0  0  0  0  0  0  0  0
    1.5258    1.4349   -1.5527 H   0  0  0  0  0  0  0  0  0  0  0  0
  1  2  1  0
  2  3  1  0
  3  4  2  0
  4  5  1  0
  5  6  1  0
  5  7  2  0
  7  8  1  0
  8  9  1  0
  8 10  2  0
 10 11  1  0
 11 12  2  0
 12 13  1  0
 13 14  2  0
 14 15  1  0
 14 16  1  0
 16 17  1  0
 16 18  2  0
 10  3  1  0
 18 11  1  0
  1 19  1  0
  1 20  1  0
  1 21  1  0
  2 22  1  0
  2 23  1  0
  6 24  1  0
  6 25  1  0
  9 26  1  0
  9 27  1  0
 12 28  1  0
 13 29  1  0
 18 30  1  0
M  END
$$$$
