
     RDKit          3D

 56 56  0  0  0  0  0  0  0  0999 V2000
   -3.0118   -0.1588   -0.1049 C   0  0  2  0  0  0  0  0  0  0  0  0
   -3.3982    0.6001   -1.3495 C   0  0  0  0  0  0  0  0  0  0  0  0
   -4.8342    0.8648   -1.5611 C   0  0  0  0  0  0  0  0  0  0  0  0
   -5.6877   -0.3874   -1.6190 C   0  0  0  0  0  0  0  0  0  0  0  0
   -5.4797    1.9523   -0.7946 C   0  0  0  0  0  0  0  0  0  0  0  0
   -3.4444    0.5819    1.1020 C   0  0  0  0  0  0  0  0  0  0  0  0
   -3.1213   -0.0598    2.4069 C   0  0  0  0  0  0  0  0  0  0  0  0
   -2.6490   -0.9616    3.1841 O   0  0  0  0  0  0  0  0  0  0  0  0
   -3.6110    0.8153    3.4518 N   0  0  0  0  0  0  0  0  0  0  0  0
   -3.4547    0.4823    4.7747 O   0  0  0  0  0  0  0  0  0  0  0  0
   -1.5201   -0.3265   -0.2198 C   0  0  0  0  0  0  0  0  0  0  0  0
   -1.3953    0.3615   -1.2859 O   0  0  0  0  0  0  0  0  0  0  0  0
   -0.4472   -0.9319    0.4259 N   0  0  0  0  0  0  0  0  0  0  0  0
    0.8858   -0.7382   -0.1858 C   0  0  1  0  0  0  0  0  0  0  0  0
    1.6476    0.0757    0.8327 C   0  0  0  0  0  0  0  0  0  0  0  0
    3.0186    0.4149    0.4794 C   0  0  0  0  0  0  0  0  0  0  0  0
    4.2073   -0.2490    0.7576 C   0  0  0  0  0  0  0  0  0  0  0  0
    5.4306    0.2265    0.3363 C   0  0  0  0  0  0  0  0  0  0  0  0
    5.5292    1.3959   -0.3883 C   0  0  0  0  0  0  0  0  0  0  0  0
    6.7610    1.8738   -0.8119 O   0  0  0  0  0  0  0  0  0  0  0  0
    7.9533    1.1751   -0.5128 C   0  0  0  0  0  0  0  0  0  0  0  0
    4.3853    2.1000   -0.6958 C   0  0  0  0  0  0  0  0  0  0  0  0
    3.1799    1.5940   -0.2578 C   0  0  0  0  0  0  0  0  0  0  0  0
    1.4976   -2.0574   -0.4604 C   0  0  0  0  0  0  0  0  0  0  0  0
    0.4886   -2.6063    0.1032 O   0  0  0  0  0  0  0  0  0  0  0  0
    2.6404   -2.6250   -1.0511 N   0  0  0  0  0  0  0  0  0  0  0  0
    2.7759   -4.0486   -1.0598 C   0  0  0  0  0  0  0  0  0  0  0  0
   -3.4058   -1.1949   -0.1642 H   0  0  0  0  0  0  0  0  0  0  0  0
   -3.0161    0.0741   -2.2724 H   0  0  0  0  0  0  0  0  0  0  0  0
   -2.8498    1.5911   -1.3971 H   0  0  0  0  0  0  0  0  0  0  0  0
   -4.8838    1.2219   -2.6669 H   0  0  0  0  0  0  0  0  0  0  0  0
   -5.3311   -1.0230   -2.4492 H   0  0  0  0  0  0  0  0  0  0  0  0
   -6.7087   -0.0525   -1.9394 H   0  0  0  0  0  0  0  0  0  0  0  0
   -5.7688   -0.9243   -0.6729 H   0  0  0  0  0  0  0  0  0  0  0  0
   -4.7937    2.5996   -0.2121 H   0  0  0  0  0  0  0  0  0  0  0  0
   -6.3031    1.6495   -0.1117 H   0  0  0  0  0  0  0  0  0  0  0  0
   -5.9789    2.6625   -1.5093 H   0  0  0  0  0  0  0  0  0  0  0  0
   -3.0599    1.6170    1.1184 H   0  0  0  0  0  0  0  0  0  0  0  0
   -4.5723    0.6713    1.0959 H   0  0  0  0  0  0  0  0  0  0  0  0
   -4.1136    1.7454    3.5343 H   0  0  0  0  0  0  0  0  0  0  0  0
   -3.9783   -0.3362    5.0052 H   0  0  0  0  0  0  0  0  0  0  0  0
   -0.8816   -1.4076    1.2318 H   0  0  0  0  0  0  0  0  0  0  0  0
    0.7980   -0.1214   -1.0888 H   0  0  0  0  0  0  0  0  0  0  0  0
    1.0572    0.9981    1.0130 H   0  0  0  0  0  0  0  0  0  0  0  0
    1.6895   -0.5640    1.7547 H   0  0  0  0  0  0  0  0  0  0  0  0
    4.0446   -1.1694    1.3370 H   0  0  0  0  0  0  0  0  0  0  0  0
    6.2948   -0.3621    0.6032 H   0  0  0  0  0  0  0  0  0  0  0  0
    8.7698    1.4659   -1.2196 H   0  0  0  0  0  0  0  0  0  0  0  0
    7.8332    0.0815   -0.6609 H   0  0  0  0  0  0  0  0  0  0  0  0
    8.2428    1.3482    0.5468 H   0  0  0  0  0  0  0  0  0  0  0  0
    4.4648    3.0001   -1.2539 H   0  0  0  0  0  0  0  0  0  0  0  0
    2.3134    2.2106   -0.5416 H   0  0  0  0  0  0  0  0  0  0  0  0
    3.1866   -1.8178   -1.3887 H   0  0  0  0  0  0  0  0  0  0  0  0
    2.3857   -4.4371   -2.0185 H   0  0  0  0  0  0  0  0  0  0  0  0
    3.8726   -4.3107   -1.0107 H   0  0  0  0  0  0  0  0  0  0  0  0
    2.3458   -4.5301   -0.1588 H   0  0  0  0  0  0  0  0  0  0  0  0
  1  2  1  0
  2  3  1  0
  3  4  1  0
  3  5  1  0
  1  6  1  0
  6  7  1  0
  7  8  2  0
  7  9  1  0
  9 10  1  0
  1 11  1  0
 11 12  2  0
 11 13  1  0
 13 14  1  0
 14 15  1  0
 15 16  1  0
 16 17  2  0
 17 18  1  0
 18 19  2  0
 19 20  1  0
 20 21  1  0
 19 22  1  0
 22 23  2  0
 14 24  1  0
 24 25  2  0
 24 26  1  0
 26 27  1  0
 23 16  1  0
  1 28  1  6
  2 29  1  0
  2 30  1  0
  3 31  1  0
  4 32  1  0
  4 33  1  0
  4 34  1  0
  5 35  1  0
  5 36  1  0
  5 37  1  0
  6 38  1  0
  6 39  1  0
  9 40  1  0
 10 41  1  0
 13 42  1  0
 14 43  1  6
 15 44  1  0
 15 45  1  0
 17 46  1  0
 18 47  1  0
 21 48  1  0
 21 49  1  0
 21 50  1  0
 22 51  1  0
 23 52  1  0
 26 53  1  0
 27 54  1  0
 27 55  1  0
 27 56  1  0
M  END
$$$$
