
     RDKit          3D

 72 77  0  0  0  0  0  0  0  0999 V2000
   11.0570    0.1840   -0.4985 C   0  0  0  0  0  0  0  0  0  0  0  0
    9.8270    0.4834    0.2082 N   0  0  0  0  0  0  0  0  0  0  0  0
    8.9195    1.0884   -0.7288 C   0  0  0  0  0  0  0  0  0  0  0  0
    7.6337    0.2842   -0.8988 C   0  0  0  0  0  0  0  0  0  0  0  0
    7.0836    0.1283    0.4020 N   0  0  0  0  0  0  0  0  0  0  0  0
    5.6982   -0.1983    0.4938 C   0  0  0  0  0  0  0  0  0  0  0  0
    4.8733    0.9551    0.0224 C   0  0  0  0  0  0  0  0  0  0  0  0
    3.4017    0.7015    0.1152 C   0  0  0  0  0  0  0  0  0  0  0  0
    2.7075    1.0281    1.2751 C   0  0  0  0  0  0  0  0  0  0  0  0
    1.3545    0.8116    1.3406 C   0  0  0  0  0  0  0  0  0  0  0  0
    0.6224    0.2651    0.2728 C   0  0  0  0  0  0  0  0  0  0  0  0
   -0.7475    0.0848    0.3992 N   0  0  0  0  0  0  0  0  0  0  0  0
   -1.6880   -0.2385   -0.6017 C   0  0  0  0  0  0  0  0  0  0  0  0
   -1.3830   -0.4876   -1.8840 N   0  0  0  0  0  0  0  0  0  0  0  0
   -2.2564   -0.7591   -2.8488 C   0  0  0  0  0  0  0  0  0  0  0  0
   -3.6019   -0.7989   -2.5537 C   0  0  0  0  0  0  0  0  0  0  0  0
   -4.5631   -1.0687   -3.5482 C   0  0  0  0  0  0  0  0  0  0  0  0
   -4.2067   -1.2917   -4.7280 O   0  0  0  0  0  0  0  0  0  0  0  0
   -5.8803   -1.0810   -3.1957 C   0  0  0  0  0  0  0  0  0  0  0  0
   -6.9631   -1.3121   -4.1636 C   0  0  0  0  0  0  0  0  0  0  0  0
   -6.7023   -1.5330   -5.5299 N   0  0  0  0  0  0  0  0  0  0  0  0
   -8.1718   -1.3185   -3.7905 O   0  0  0  0  0  0  0  0  0  0  0  0
   -6.2142   -0.8310   -1.8873 C   0  0  0  0  0  0  0  0  0  0  0  0
   -5.2594   -0.5686   -0.9268 N   0  0  0  0  0  0  0  0  0  0  0  0
   -5.6870   -0.3026    0.3877 C   0  0  0  0  0  0  0  0  0  0  0  0
   -5.0303   -0.8066    1.4596 C   0  0  0  0  0  0  0  0  0  0  0  0
   -5.4954   -0.5084    2.7443 C   0  0  0  0  0  0  0  0  0  0  0  0
   -6.5970    0.2802    2.9553 C   0  0  0  0  0  0  0  0  0  0  0  0
   -7.2752    0.7983    1.8755 C   0  0  0  0  0  0  0  0  0  0  0  0
   -6.8105    0.4986    0.6243 C   0  0  0  0  0  0  0  0  0  0  0  0
   -8.4141    1.5920    2.4213 C   0  0  0  0  0  0  0  0  0  0  0  0
   -8.5719    1.1598    3.8546 C   0  0  0  0  0  0  0  0  0  0  0  0
   -7.2008    0.6899    4.2399 C   0  0  0  0  0  0  0  0  0  0  0  0
   -3.9620   -0.5497   -1.2466 C   0  0  0  0  0  0  0  0  0  0  0  0
   -3.0163   -0.2836   -0.3320 N   0  0  0  0  0  0  0  0  0  0  0  0
    1.3496   -0.0402   -0.8419 C   0  0  0  0  0  0  0  0  0  0  0  0
    2.7321    0.1651   -0.9517 C   0  0  0  0  0  0  0  0  0  0  0  0
    7.9231   -0.6610    1.2732 C   0  0  0  0  0  0  0  0  0  0  0  0
    9.3350   -0.7518    0.7701 C   0  0  0  0  0  0  0  0  0  0  0  0
   10.7357   -0.3143   -1.4614 H   0  0  0  0  0  0  0  0  0  0  0  0
   11.7089   -0.5219    0.0567 H   0  0  0  0  0  0  0  0  0  0  0  0
   11.5997    1.0922   -0.8134 H   0  0  0  0  0  0  0  0  0  0  0  0
    8.5883    2.0616   -0.2619 H   0  0  0  0  0  0  0  0  0  0  0  0
    9.3599    1.3380   -1.7058 H   0  0  0  0  0  0  0  0  0  0  0  0
    7.7999   -0.6565   -1.4675 H   0  0  0  0  0  0  0  0  0  0  0  0
    6.9726    0.9051   -1.5241 H   0  0  0  0  0  0  0  0  0  0  0  0
    5.5236   -1.1250   -0.1161 H   0  0  0  0  0  0  0  0  0  0  0  0
    5.4704   -0.3846    1.5686 H   0  0  0  0  0  0  0  0  0  0  0  0
    5.1766    1.8743    0.5551 H   0  0  0  0  0  0  0  0  0  0  0  0
    5.0681    1.1180   -1.0814 H   0  0  0  0  0  0  0  0  0  0  0  0
    3.2655    1.4448    2.0913 H   0  0  0  0  0  0  0  0  0  0  0  0
    0.8009    1.0634    2.2424 H   0  0  0  0  0  0  0  0  0  0  0  0
   -1.1646    0.2037    1.3871 H   0  0  0  0  0  0  0  0  0  0  0  0
   -1.9698   -0.9564   -3.8825 H   0  0  0  0  0  0  0  0  0  0  0  0
   -6.0639   -0.9030   -6.0403 H   0  0  0  0  0  0  0  0  0  0  0  0
   -7.1485   -2.3194   -6.0222 H   0  0  0  0  0  0  0  0  0  0  0  0
   -7.2598   -0.8361   -1.5984 H   0  0  0  0  0  0  0  0  0  0  0  0
   -4.1753   -1.4258    1.3429 H   0  0  0  0  0  0  0  0  0  0  0  0
   -4.9358   -0.9332    3.5836 H   0  0  0  0  0  0  0  0  0  0  0  0
   -7.3438    0.9075   -0.2185 H   0  0  0  0  0  0  0  0  0  0  0  0
   -9.3624    1.3406    1.8894 H   0  0  0  0  0  0  0  0  0  0  0  0
   -8.1996    2.6868    2.4237 H   0  0  0  0  0  0  0  0  0  0  0  0
   -9.3217    0.3496    3.9951 H   0  0  0  0  0  0  0  0  0  0  0  0
   -8.9093    2.0076    4.4929 H   0  0  0  0  0  0  0  0  0  0  0  0
   -6.6482    1.5098    4.7454 H   0  0  0  0  0  0  0  0  0  0  0  0
   -7.2364   -0.1645    4.9594 H   0  0  0  0  0  0  0  0  0  0  0  0
    0.8400   -0.4716   -1.6907 H   0  0  0  0  0  0  0  0  0  0  0  0
    3.2068   -0.1165   -1.8922 H   0  0  0  0  0  0  0  0  0  0  0  0
    7.4888   -1.7006    1.2560 H   0  0  0  0  0  0  0  0  0  0  0  0
    7.8387   -0.3042    2.3168 H   0  0  0  0  0  0  0  0  0  0  0  0
    9.9875   -0.9845    1.6508 H   0  0  0  0  0  0  0  0  0  0  0  0
    9.4873   -1.5928    0.0591 H   0  0  0  0  0  0  0  0  0  0  0  0
  1  2  1  0
  2  3  1  0
  3  4  1  0
  4  5  1  0
  5  6  1  0
  6  7  1  0
  7  8  1  0
  8  9  2  0
  9 10  1  0
 10 11  2  0
 11 12  1  0
 12 13  1  0
 13 14  2  0
 14 15  1  0
 15 16  2  0
 16 17  1  0
 17 18  2  0
 17 19  1  0
 19 20  1  0
 20 21  1  0
 20 22  2  0
 19 23  2  0
 23 24  1  0
 24 25  1  0
 25 26  2  0
 26 27  1  0
 27 28  2  0
 28 29  1  0
 29 30  2  0
 29 31  1  0
 31 32  1  0
 32 33  1  0
 24 34  1  0
 34 35  2  0
 11 36  1  0
 36 37  2  0
  5 38  1  0
 38 39  1  0
 39  2  1  0
 37  8  1  0
 35 13  1  0
 34 16  1  0
 30 25  1  0
 33 28  1  0
  1 40  1  0
  1 41  1  0
  1 42  1  0
  3 43  1  0
  3 44  1  0
  4 45  1  0
  4 46  1  0
  6 47  1  0
  6 48  1  0
  7 49  1  0
  7 50  1  0
  9 51  1  0
 10 52  1  0
 12 53  1  0
 15 54  1  0
 21 55  1  0
 21 56  1  0
 23 57  1  0
 26 58  1  0
 27 59  1  0
 30 60  1  0
 31 61  1  0
 31 62  1  0
 32 63  1  0
 32 64  1  0
 33 65  1  0
 33 66  1  0
 36 67  1  0
 37 68  1  0
 38 69  1  0
 38 70  1  0
 39 71  1  0
 39 72  1  0
M  END
$$$$
