
     RDKit          3D

 53 57  0  0  0  0  0  0  0  0999 V2000
   -3.6475   -0.2757   -2.4909 C   0  0  0  0  0  0  0  0  0  0  0  0
   -4.6044   -1.0417   -1.6705 C   0  0  0  0  0  0  0  0  0  0  0  0
   -5.4815   -1.9550   -2.1504 N   0  0  0  0  0  0  0  0  0  0  0  0
   -6.1938   -2.4596   -1.1585 N   0  0  0  0  0  0  0  0  0  0  0  0
   -7.2281   -3.4633   -1.2974 C   0  0  0  0  0  0  0  0  0  0  0  0
   -5.7758   -1.8691   -0.0254 C   0  0  0  0  0  0  0  0  0  0  0  0
   -4.7674   -0.9631   -0.3123 C   0  0  0  0  0  0  0  0  0  0  0  0
   -4.0682   -0.1315    0.6741 C   0  0  0  0  0  0  0  0  0  0  0  0
   -4.3102   -0.1330    1.9977 N   0  0  0  0  0  0  0  0  0  0  0  0
   -3.5086    0.7383    2.6509 C   0  0  0  0  0  0  0  0  0  0  0  0
   -3.3827    1.0814    3.9537 N   0  0  0  0  0  0  0  0  0  0  0  0
   -2.4764    2.0014    4.3135 C   0  0  0  0  0  0  0  0  0  0  0  0
   -1.6535    2.6230    3.3977 C   0  0  0  0  0  0  0  0  0  0  0  0
   -0.4703    3.8273    3.8869 Cl  0  0  0  0  0  0  0  0  0  0  0  0
   -1.7987    2.2570    2.0687 C   0  0  0  0  0  0  0  0  0  0  0  0
   -0.9955    2.8439    1.0602 N   0  0  0  0  0  0  0  0  0  0  0  0
    0.2495    2.2920    0.6725 C   0  0  0  0  0  0  0  0  0  0  0  0
    0.6948    1.1405    1.3013 C   0  0  0  0  0  0  0  0  0  0  0  0
    1.9188    0.6289    0.8950 C   0  0  0  0  0  0  0  0  0  0  0  0
    2.6719    1.2250   -0.0877 C   0  0  0  0  0  0  0  0  0  0  0  0
    3.9568    0.6801   -0.5079 C   0  0  0  0  0  0  0  0  0  0  0  0
    4.6015    1.2838   -1.4244 O   0  0  0  0  0  0  0  0  0  0  0  0
    4.5459   -0.4889    0.0392 N   0  0  0  0  0  0  0  0  0  0  0  0
    5.8044   -0.9894   -0.3990 C   0  0  0  0  0  0  0  0  0  0  0  0
    5.9217   -1.8949   -1.4286 C   0  0  0  0  0  0  0  0  0  0  0  0
    7.1561   -2.3596   -1.8283 C   0  0  0  0  0  0  0  0  0  0  0  0
    8.2944   -1.9218   -1.1993 C   0  0  0  0  0  0  0  0  0  0  0  0
    8.2081   -1.0193   -0.1697 C   0  0  0  0  0  0  0  0  0  0  0  0
    6.9770   -0.5677    0.2152 C   0  0  0  0  0  0  0  0  0  0  0  0
    2.1890    2.3679   -0.6845 C   0  0  0  0  0  0  0  0  0  0  0  0
    0.9831    2.9079   -0.3131 C   0  0  0  0  0  0  0  0  0  0  0  0
   -2.7264    1.3121    1.6816 C   0  0  0  0  0  0  0  0  0  0  0  0
   -3.0906    0.7622    0.4892 N   0  0  0  0  0  0  0  0  0  0  0  0
   -3.7635   -0.5501   -3.5841 H   0  0  0  0  0  0  0  0  0  0  0  0
   -2.5927   -0.4870   -2.2158 H   0  0  0  0  0  0  0  0  0  0  0  0
   -3.8115    0.8193   -2.4483 H   0  0  0  0  0  0  0  0  0  0  0  0
   -6.8743   -4.3492   -1.8839 H   0  0  0  0  0  0  0  0  0  0  0  0
   -7.5966   -3.7902   -0.3087 H   0  0  0  0  0  0  0  0  0  0  0  0
   -8.1089   -3.0637   -1.8614 H   0  0  0  0  0  0  0  0  0  0  0  0
   -6.1624   -2.0655    0.9646 H   0  0  0  0  0  0  0  0  0  0  0  0
   -2.3597    2.2942    5.3739 H   0  0  0  0  0  0  0  0  0  0  0  0
   -1.3530    3.7035    0.6078 H   0  0  0  0  0  0  0  0  0  0  0  0
    0.1113    0.6687    2.0706 H   0  0  0  0  0  0  0  0  0  0  0  0
    2.2448   -0.2621    1.3940 H   0  0  0  0  0  0  0  0  0  0  0  0
    4.0317   -0.9943    0.7894 H   0  0  0  0  0  0  0  0  0  0  0  0
    5.0089   -2.2369   -1.9225 H   0  0  0  0  0  0  0  0  0  0  0  0
    7.2545   -3.0780   -2.6446 H   0  0  0  0  0  0  0  0  0  0  0  0
    9.2860   -2.2585   -1.4781 H   0  0  0  0  0  0  0  0  0  0  0  0
    9.0850   -0.6460    0.3563 H   0  0  0  0  0  0  0  0  0  0  0  0
    6.9156    0.1497    1.0345 H   0  0  0  0  0  0  0  0  0  0  0  0
    2.7579    2.8692   -1.4679 H   0  0  0  0  0  0  0  0  0  0  0  0
    0.5777    3.8042   -0.7634 H   0  0  0  0  0  0  0  0  0  0  0  0
   -2.6439    1.0338   -0.3908 H   0  0  0  0  0  0  0  0  0  0  0  0
  1  2  1  0
  2  3  2  0
  3  4  1  0
  4  5  1  0
  4  6  1  0
  6  7  2  0
  7  8  1  0
  8  9  2  0
  9 10  1  0
 10 11  2  0
 11 12  1  0
 12 13  2  0
 13 14  1  0
 13 15  1  0
 15 16  1  0
 16 17  1  0
 17 18  2  0
 18 19  1  0
 19 20  2  0
 20 21  1  0
 21 22  2  0
 21 23  1  0
 23 24  1  0
 24 25  2  0
 25 26  1  0
 26 27  2  0
 27 28  1  0
 28 29  2  0
 20 30  1  0
 30 31  2  0
 15 32  2  0
 32 33  1  0
  7  2  1  0
 33  8  1  0
 32 10  1  0
 31 17  1  0
 29 24  1  0
  1 34  1  0
  1 35  1  0
  1 36  1  0
  5 37  1  0
  5 38  1  0
  5 39  1  0
  6 40  1  0
 12 41  1  0
 16 42  1  0
 18 43  1  0
 19 44  1  0
 23 45  1  0
 25 46  1  0
 26 47  1  0
 27 48  1  0
 28 49  1  0
 29 50  1  0
 30 51  1  0
 31 52  1  0
 33 53  1  0
M  END
$$$$
