
     RDKit          3D

 45 48  0  0  0  0  0  0  0  0999 V2000
    4.5275    3.8869   -1.2189 C   0  0  0  0  0  0  0  0  0  0  0  0
    4.1674    2.4743   -0.8820 C   0  0  0  0  0  0  0  0  0  0  0  0
    4.8208    1.7953   -0.0595 O   0  0  0  0  0  0  0  0  0  0  0  0
    3.0394    1.8447   -1.5055 N   0  0  0  0  0  0  0  0  0  0  0  0
    2.7221    0.5059   -1.1675 C   0  0  0  0  0  0  0  0  0  0  0  0
    3.2738   -0.5273   -1.8721 C   0  0  0  0  0  0  0  0  0  0  0  0
    3.0007   -1.8459   -1.5874 C   0  0  0  0  0  0  0  0  0  0  0  0
    2.1287   -2.1292   -0.5403 C   0  0  0  0  0  0  0  0  0  0  0  0
    1.5586   -1.1225    0.1858 C   0  0  0  0  0  0  0  0  0  0  0  0
    0.6627   -1.4287    1.2747 C   0  0  0  0  0  0  0  0  0  0  0  0
    1.0512   -1.9740    2.4656 N   0  0  0  0  0  0  0  0  0  0  0  0
   -0.0015   -2.1225    3.2489 C   0  0  0  0  0  0  0  0  0  0  0  0
   -1.0684   -1.6736    2.5640 N   0  0  0  0  0  0  0  0  0  0  0  0
   -2.4061   -1.6697    3.0859 C   0  0  0  0  0  0  0  0  0  0  0  0
   -3.1855   -2.9250    2.8299 C   0  0  0  0  0  0  0  0  0  0  0  0
   -4.4365   -2.7540    3.3921 F   0  0  0  0  0  0  0  0  0  0  0  0
   -2.5743   -3.9483    3.5643 F   0  0  0  0  0  0  0  0  0  0  0  0
   -0.7056   -1.2385    1.3472 C   0  0  0  0  0  0  0  0  0  0  0  0
   -1.5519   -0.6677    0.2868 C   0  0  0  0  0  0  0  0  0  0  0  0
   -2.3679   -1.4734   -0.4786 C   0  0  0  0  0  0  0  0  0  0  0  0
   -3.1792   -0.9775   -1.4732 C   0  0  0  0  0  0  0  0  0  0  0  0
   -3.1687    0.3754   -1.7056 C   0  0  0  0  0  0  0  0  0  0  0  0
   -3.8037    1.2023   -2.5625 N   0  0  0  0  0  0  0  0  0  0  0  0
   -3.4099    2.4709   -2.3516 C   0  0  0  0  0  0  0  0  0  0  0  0
   -2.4981    2.4456   -1.3304 C   0  0  0  0  0  0  0  0  0  0  0  0
   -1.8154    3.5895   -0.7771 C   0  0  0  0  0  0  0  0  0  0  0  0
   -1.2502    4.5082   -0.3331 N   0  0  0  0  0  0  0  0  0  0  0  0
   -2.3704    1.1478   -0.9543 N   0  0  0  0  0  0  0  0  0  0  0  0
   -1.5857    0.6455    0.0121 N   0  0  0  0  0  0  0  0  0  0  0  0
    1.8508    0.1788   -0.1230 C   0  0  0  0  0  0  0  0  0  0  0  0
    3.6453    4.4931   -1.4923 H   0  0  0  0  0  0  0  0  0  0  0  0
    4.9696    4.3302   -0.3083 H   0  0  0  0  0  0  0  0  0  0  0  0
    5.2581    3.9527   -2.0296 H   0  0  0  0  0  0  0  0  0  0  0  0
    2.5071    2.4235   -2.1877 H   0  0  0  0  0  0  0  0  0  0  0  0
    3.9481   -0.2744   -2.6800 H   0  0  0  0  0  0  0  0  0  0  0  0
    3.4706   -2.5997   -2.1832 H   0  0  0  0  0  0  0  0  0  0  0  0
    1.9401   -3.1955   -0.3493 H   0  0  0  0  0  0  0  0  0  0  0  0
    0.0172   -2.5279    4.2433 H   0  0  0  0  0  0  0  0  0  0  0  0
   -2.3707   -1.4091    4.1647 H   0  0  0  0  0  0  0  0  0  0  0  0
   -2.9591   -0.8234    2.5845 H   0  0  0  0  0  0  0  0  0  0  0  0
   -3.2988   -3.1826    1.7763 H   0  0  0  0  0  0  0  0  0  0  0  0
   -2.3945   -2.5440   -0.3224 H   0  0  0  0  0  0  0  0  0  0  0  0
   -3.8222   -1.5905   -2.0808 H   0  0  0  0  0  0  0  0  0  0  0  0
   -3.7570    3.3459   -2.8959 H   0  0  0  0  0  0  0  0  0  0  0  0
    1.4214    1.0085    0.4265 H   0  0  0  0  0  0  0  0  0  0  0  0
  1  2  1  0
  2  3  2  0
  2  4  1  0
  4  5  1  0
  5  6  2  0
  6  7  1  0
  7  8  2  0
  8  9  1  0
  9 10  1  0
 10 11  1  0
 11 12  2  0
 12 13  1  0
 13 14  1  0
 14 15  1  0
 15 16  1  0
 15 17  1  0
 13 18  1  0
 18 19  1  0
 19 20  1  0
 20 21  2  0
 21 22  1  0
 22 23  2  0
 23 24  1  0
 24 25  2  0
 25 26  1  0
 26 27  3  0
 25 28  1  0
 28 29  1  0
  9 30  2  0
 30  5  1  0
 18 10  2  0
 29 19  2  0
 28 22  1  0
  1 31  1  0
  1 32  1  0
  1 33  1  0
  4 34  1  0
  6 35  1  0
  7 36  1  0
  8 37  1  0
 12 38  1  0
 14 39  1  0
 14 40  1  0
 15 41  1  0
 20 42  1  0
 21 43  1  0
 24 44  1  0
 30 45  1  0
M  END
$$$$
