
     RDKit          3D

 57 59  0  0  0  0  0  0  0  0999 V2000
    0.3121    3.4320   -1.3207 C   0  0  0  0  0  0  0  0  0  0  0  0
    0.0068    1.9409   -1.3109 C   0  0  0  0  0  0  0  0  0  0  0  0
   -0.1993    1.2699   -2.1285 O   0  0  0  0  0  0  0  0  0  0  0  0
    0.0613    1.4496    0.1382 N   0  0  0  0  0  0  0  0  0  0  0  0
   -0.2997    0.0189    0.1844 C   0  0  0  0  0  0  0  0  0  0  0  0
    0.6987   -0.8273    0.8354 C   0  0  0  0  0  0  0  0  0  0  0  0
    1.9901   -0.8157    0.2585 C   0  0  0  0  0  0  0  0  0  0  0  0
    2.3996   -1.7458   -0.6792 C   0  0  0  0  0  0  0  0  0  0  0  0
    3.9432   -1.7992   -0.9260 C   0  0  0  0  0  0  0  0  0  0  0  0
    4.7868   -1.0956   -0.4563 C   0  0  0  0  0  0  0  0  0  0  0  0
    6.0957   -0.5603   -0.4108 N   0  0  0  0  0  0  0  0  0  0  0  0
    7.0667   -0.2491   -0.3420 C   0  0  0  0  0  0  0  0  0  0  0  0
    7.1134    1.4227   -1.0741 N   0  0  0  0  0  0  0  0  0  0  0  0
    8.3401   -0.5607    0.2750 N   0  0  0  0  0  0  0  0  0  0  0  0
    4.2114    0.0073    0.7058 C   0  0  0  0  0  0  0  0  0  0  0  0
    2.9429   -0.0062    0.9165 C   0  0  0  0  0  0  0  0  0  0  0  0
   -1.7895   -0.3232    1.2169 P   0  0  0  0  0  5  0  0  0  0  0  0
   -1.4414    0.0126    2.6495 O   0  0  0  0  0  0  0  0  0  0  0  0
   -1.9342   -2.0641    1.2017 O   0  0  0  0  0  0  0  0  0  0  0  0
   -2.5709   -2.8687    0.3535 C   0  0  0  0  0  0  0  0  0  0  0  0
   -3.9926   -2.7347    0.3023 C   0  0  0  0  0  0  0  0  0  0  0  0
   -4.7349   -3.5486   -0.4415 C   0  0  0  0  0  0  0  0  0  0  0  0
   -4.2847   -4.6122   -1.2520 C   0  0  0  0  0  0  0  0  0  0  0  0
   -2.9221   -4.6224   -1.1268 C   0  0  0  0  0  0  0  0  0  0  0  0
   -2.0923   -3.9093   -0.4801 C   0  0  0  0  0  0  0  0  0  0  0  0
   -3.1464    0.4444    0.6117 O   0  0  0  0  0  0  0  0  0  0  0  0
   -3.6327    1.6138    0.7612 C   0  0  0  0  0  0  0  0  0  0  0  0
   -4.2637    2.1775   -0.3739 C   0  0  0  0  0  0  0  0  0  0  0  0
   -4.9237    3.3706   -0.4195 C   0  0  0  0  0  0  0  0  0  0  0  0
   -5.0167    4.1393    0.8012 C   0  0  0  0  0  0  0  0  0  0  0  0
   -4.3914    3.5518    1.8943 C   0  0  0  0  0  0  0  0  0  0  0  0
   -3.7204    2.4113    1.9143 C   0  0  0  0  0  0  0  0  0  0  0  0
    1.2868    3.5578   -0.8647 H   0  0  0  0  0  0  0  0  0  0  0  0
    0.2832    3.8538   -2.3247 H   0  0  0  0  0  0  0  0  0  0  0  0
   -0.5395    3.8960   -0.7199 H   0  0  0  0  0  0  0  0  0  0  0  0
    0.3229    2.0423    0.8405 H   0  0  0  0  0  0  0  0  0  0  0  0
   -0.5437   -0.3241   -0.8085 H   0  0  0  0  0  0  0  0  0  0  0  0
    0.2650   -1.8638    0.7777 H   0  0  0  0  0  0  0  0  0  0  0  0
    0.7318   -0.5418    1.8975 H   0  0  0  0  0  0  0  0  0  0  0  0
    1.7966   -2.3356   -1.2012 H   0  0  0  0  0  0  0  0  0  0  0  0
    4.1907   -2.5504   -1.6301 H   0  0  0  0  0  0  0  0  0  0  0  0
    7.1560    1.0083   -1.9776 H   0  0  0  0  0  0  0  0  0  0  0  0
    7.0870    1.9816   -0.3069 H   0  0  0  0  0  0  0  0  0  0  0  0
    9.0396   -0.9333   -0.3712 H   0  0  0  0  0  0  0  0  0  0  0  0
    8.3432   -0.3298    1.2573 H   0  0  0  0  0  0  0  0  0  0  0  0
    4.9671    0.6210    1.1166 H   0  0  0  0  0  0  0  0  0  0  0  0
    2.5580    0.7280    1.5744 H   0  0  0  0  0  0  0  0  0  0  0  0
   -4.3893   -2.0241    0.9905 H   0  0  0  0  0  0  0  0  0  0  0  0
   -5.8483   -3.4193   -0.4661 H   0  0  0  0  0  0  0  0  0  0  0  0
   -4.9824   -5.2138   -1.7052 H   0  0  0  0  0  0  0  0  0  0  0  0
   -2.4235   -5.4918   -1.7674 H   0  0  0  0  0  0  0  0  0  0  0  0
   -0.9952   -4.0681   -0.4589 H   0  0  0  0  0  0  0  0  0  0  0  0
   -4.2390    1.5710   -1.3097 H   0  0  0  0  0  0  0  0  0  0  0  0
   -5.3313    3.7512   -1.3158 H   0  0  0  0  0  0  0  0  0  0  0  0
   -5.5678    5.0218    0.7667 H   0  0  0  0  0  0  0  0  0  0  0  0
   -4.5113    4.1256    2.8824 H   0  0  0  0  0  0  0  0  0  0  0  0
   -3.2691    2.0181    2.8461 H   0  0  0  0  0  0  0  0  0  0  0  0
  1  2  1  0
  2  3  2  0
  2  4  1  0
  4  5  1  0
  5  6  1  0
  6  7  1  0
  7  8  2  0
  8  9  1  0
  9 10  2  0
 10 11  1  0
 11 12  2  3
 12 13  1  0
 12 14  1  0
 10 15  1  0
 15 16  2  0
  5 17  1  0
 17 18  2  0
 17 19  1  0
 19 20  1  0
 20 21  2  0
 21 22  1  0
 22 23  2  0
 23 24  1  0
 24 25  2  0
 17 26  1  0
 26 27  1  0
 27 28  2  0
 28 29  1  0
 29 30  2  0
 30 31  1  0
 31 32  2  0
 16  7  1  0
 25 20  1  0
 32 27  1  0
  1 33  1  0
  1 34  1  0
  1 35  1  0
  4 36  1  0
  5 37  1  0
  6 38  1  0
  6 39  1  0
  8 40  1  0
  9 41  1  0
 13 42  1  0
 13 43  1  0
 14 44  1  0
 14 45  1  0
 15 46  1  0
 16 47  1  0
 21 48  1  0
 22 49  1  0
 23 50  1  0
 24 51  1  0
 25 52  1  0
 28 53  1  0
 29 54  1  0
 30 55  1  0
 31 56  1  0
 32 57  1  0
M  END
$$$$
