
     RDKit          3D

 60 63  0  0  0  0  0  0  0  0999 V2000
    5.3598    0.1306    0.5347 C   0  0  0  0  0  0  0  0  0  0  0  0
    4.9104   -1.2693    0.3565 C   0  0  0  0  0  0  0  0  0  0  0  0
    6.0578   -2.2015    0.9576 C   0  0  0  0  0  0  0  0  0  0  0  0
    4.7829   -1.7541   -0.9360 O   0  0  0  0  0  0  0  0  0  0  0  0
    3.7242   -1.6225    1.1694 C   0  0  0  0  0  0  0  0  0  0  0  0
    2.4107   -1.3223    0.6680 N   0  0  0  0  0  0  0  0  0  0  0  0
    1.8579   -0.1026    0.2820 C   0  0  0  0  0  0  0  0  0  0  0  0
    2.5900    0.9196    0.3487 O   0  0  0  0  0  0  0  0  0  0  0  0
    0.5339    0.1421   -0.1962 N   0  0  0  0  0  0  0  0  0  0  0  0
   -0.4378   -0.8571   -0.1805 C   0  0  0  0  0  0  0  0  0  0  0  0
   -0.2471   -2.0610    0.2075 O   0  0  0  0  0  0  0  0  0  0  0  0
   -1.8009   -0.6482   -0.6122 N   0  0  0  0  0  0  0  0  0  0  0  0
   -2.7799   -1.6682   -0.5432 C   0  0  0  0  0  0  0  0  0  0  0  0
   -3.2323   -2.0794    0.7091 C   0  0  0  0  0  0  0  0  0  0  0  0
   -4.2285   -3.0278    0.8154 C   0  0  0  0  0  0  0  0  0  0  0  0
   -4.7953   -3.5852   -0.2808 C   0  0  0  0  0  0  0  0  0  0  0  0
   -4.3548   -3.1865   -1.5506 C   0  0  0  0  0  0  0  0  0  0  0  0
   -5.0216   -3.7897   -2.7226 C   0  0  0  0  0  0  0  0  0  0  0  0
   -4.2203   -4.7827   -3.2244 F   0  0  0  0  0  0  0  0  0  0  0  0
   -6.2448   -4.3182   -2.2799 F   0  0  0  0  0  0  0  0  0  0  0  0
   -5.2927   -2.7836   -3.6462 F   0  0  0  0  0  0  0  0  0  0  0  0
   -3.3469   -2.2277   -1.6435 C   0  0  0  0  0  0  0  0  0  0  0  0
   -2.1211    0.6639   -1.0793 C   0  0  0  0  0  0  0  0  0  0  0  0
   -1.2022    1.5784   -1.0896 C   0  0  0  0  0  0  0  0  0  0  0  0
   -1.8641    2.7939   -1.6303 C   0  0  0  0  0  0  0  0  0  0  0  0
   -1.6279    3.9952   -1.4641 O   0  0  0  0  0  0  0  0  0  0  0  0
   -2.9908    2.2708   -2.5080 C   0  0  0  0  0  0  0  0  0  0  0  0
   -3.4536    1.1485   -1.5871 C   0  0  0  0  0  0  0  0  0  0  0  0
    0.1846    1.4856   -0.6379 C   0  0  1  0  0  0  0  0  0  0  0  0
    0.3902    2.4699    0.4826 C   0  0  0  0  0  0  0  0  0  0  0  0
   -0.0178    2.1912    1.7629 C   0  0  0  0  0  0  0  0  0  0  0  0
    0.1076    3.0770    2.8024 C   0  0  0  0  0  0  0  0  0  0  0  0
    0.6792    4.3229    2.5370 C   0  0  0  0  0  0  0  0  0  0  0  0
    0.7740    5.2612    3.6802 C   0  0  0  0  0  0  0  0  0  0  0  0
    0.8505    5.9724    4.5178 N   0  0  0  0  0  0  0  0  0  0  0  0
    1.0943    4.6257    1.2922 C   0  0  0  0  0  0  0  0  0  0  0  0
    0.9561    3.7047    0.2356 C   0  0  0  0  0  0  0  0  0  0  0  0
    4.9688    0.6012    1.4636 H   0  0  0  0  0  0  0  0  0  0  0  0
    6.4878    0.1618    0.6874 H   0  0  0  0  0  0  0  0  0  0  0  0
    5.1072    0.7498   -0.3366 H   0  0  0  0  0  0  0  0  0  0  0  0
    5.8825   -2.2262    2.0368 H   0  0  0  0  0  0  0  0  0  0  0  0
    6.9950   -1.7676    0.6178 H   0  0  0  0  0  0  0  0  0  0  0  0
    5.8402   -3.1825    0.5216 H   0  0  0  0  0  0  0  0  0  0  0  0
    4.6258   -2.7453   -0.8403 H   0  0  0  0  0  0  0  0  0  0  0  0
    3.7648   -2.7410    1.4108 H   0  0  0  0  0  0  0  0  0  0  0  0
    3.8009   -1.1673    2.2003 H   0  0  0  0  0  0  0  0  0  0  0  0
    1.7468   -2.1633    0.5653 H   0  0  0  0  0  0  0  0  0  0  0  0
   -2.7655   -1.6372    1.5728 H   0  0  0  0  0  0  0  0  0  0  0  0
   -4.5859   -3.3622    1.7956 H   0  0  0  0  0  0  0  0  0  0  0  0
   -5.5908   -4.3409   -0.1638 H   0  0  0  0  0  0  0  0  0  0  0  0
   -3.0513   -1.9487   -2.6553 H   0  0  0  0  0  0  0  0  0  0  0  0
   -2.5706    1.8619   -3.4338 H   0  0  0  0  0  0  0  0  0  0  0  0
   -3.7220    3.0631   -2.6571 H   0  0  0  0  0  0  0  0  0  0  0  0
   -4.0546    1.5988   -0.7976 H   0  0  0  0  0  0  0  0  0  0  0  0
   -3.9072    0.3574   -2.1773 H   0  0  0  0  0  0  0  0  0  0  0  0
    0.8692    1.7031   -1.4754 H   0  0  0  0  0  0  0  0  0  0  0  0
   -0.4700    1.2196    1.9596 H   0  0  0  0  0  0  0  0  0  0  0  0
   -0.2071    2.8712    3.8002 H   0  0  0  0  0  0  0  0  0  0  0  0
    1.5405    5.6036    1.0897 H   0  0  0  0  0  0  0  0  0  0  0  0
    1.3119    4.0247   -0.7315 H   0  0  0  0  0  0  0  0  0  0  0  0
  1  2  1  0
  2  3  1  0
  2  4  1  0
  2  5  1  0
  5  6  1  0
  6  7  1  0
  7  8  2  0
  7  9  1  0
  9 10  1  0
 10 11  2  0
 10 12  1  0
 12 13  1  0
 13 14  2  0
 14 15  1  0
 15 16  2  0
 16 17  1  0
 17 18  1  0
 18 19  1  0
 18 20  1  0
 18 21  1  0
 17 22  2  0
 12 23  1  0
 23 24  2  0
 24 25  1  0
 25 26  2  0
 25 27  1  0
 27 28  1  0
 24 29  1  0
 29 30  1  0
 30 31  2  0
 31 32  1  0
 32 33  2  0
 33 34  1  0
 34 35  3  0
 33 36  1  0
 36 37  2  0
 29  9  1  0
 37 30  1  0
 22 13  1  0
 28 23  1  0
  1 38  1  0
  1 39  1  0
  1 40  1  0
  3 41  1  0
  3 42  1  0
  3 43  1  0
  4 44  1  0
  5 45  1  0
  5 46  1  0
  6 47  1  0
 14 48  1  0
 15 49  1  0
 16 50  1  0
 22 51  1  0
 27 52  1  0
 27 53  1  0
 28 54  1  0
 28 55  1  0
 29 56  1  6
 31 57  1  0
 32 58  1  0
 36 59  1  0
 37 60  1  0
M  END
$$$$
