
     RDKit          3D

 54 57  0  0  0  0  0  0  0  0999 V2000
    5.1832    3.6018    0.3228 C   0  0  0  0  0  0  0  0  0  0  0  0
    5.3377    2.1119    0.3638 C   0  0  0  0  0  0  0  0  0  0  0  0
    4.1920    1.3251    0.1843 C   0  0  0  0  0  0  0  0  0  0  0  0
    4.2955   -0.0379    0.2156 C   0  0  0  0  0  0  0  0  0  0  0  0
    3.1800   -0.8770    0.0416 C   0  0  0  0  0  0  0  0  0  0  0  0
    1.9012   -0.3063   -0.1741 N   0  0  0  0  0  0  0  0  0  0  0  0
    0.7019   -1.0304   -0.3631 C   0  0  0  0  0  0  0  0  0  0  0  0
    0.6929   -2.2805   -0.3516 O   0  0  0  0  0  0  0  0  0  0  0  0
   -0.5593   -0.3442   -0.5771 N   0  0  0  0  0  0  0  0  0  0  0  0
   -1.7795   -1.1013   -0.7693 C   0  0  2  0  0  0  0  0  0  0  0  0
   -2.4065   -0.8343   -2.1126 C   0  0  0  0  0  0  0  0  0  0  0  0
   -2.8876    0.5717   -2.2816 C   0  0  0  0  0  0  0  0  0  0  0  0
   -4.2371    0.6042   -2.9915 C   0  0  0  0  0  0  0  0  0  0  0  0
   -1.9159    1.3701   -3.1242 C   0  0  0  0  0  0  0  0  0  0  0  0
   -3.0998    1.2059   -1.0156 O   0  0  0  0  0  0  0  0  0  0  0  0
   -3.4224    0.4735    0.1163 C   0  0  0  0  0  0  0  0  0  0  0  0
   -4.3299    0.8518    1.0576 C   0  0  0  0  0  0  0  0  0  0  0  0
   -4.5622    0.0215    2.1513 C   0  0  0  0  0  0  0  0  0  0  0  0
   -5.4867    0.3685    3.1456 O   0  0  0  0  0  0  0  0  0  0  0  0
   -4.9402    1.1269    4.2342 C   0  0  0  0  0  0  0  0  0  0  0  0
   -3.9487    0.4231    4.8674 F   0  0  0  0  0  0  0  0  0  0  0  0
   -4.3485    2.2367    3.6475 F   0  0  0  0  0  0  0  0  0  0  0  0
   -5.9650    1.4826    5.0555 F   0  0  0  0  0  0  0  0  0  0  0  0
   -3.8988   -1.1739    2.3083 C   0  0  0  0  0  0  0  0  0  0  0  0
   -2.9775   -1.5644    1.3588 C   0  0  0  0  0  0  0  0  0  0  0  0
   -2.7579   -0.7397    0.2882 C   0  0  0  0  0  0  0  0  0  0  0  0
    3.4586   -2.2180    0.1014 C   0  0  0  0  0  0  0  0  0  0  0  0
    4.7018   -2.7741    0.3111 C   0  0  0  0  0  0  0  0  0  0  0  0
    5.7764   -1.9452    0.4785 C   0  0  0  0  0  0  0  0  0  0  0  0
    5.5550   -0.5686    0.4277 C   0  0  0  0  0  0  0  0  0  0  0  0
    6.6896    0.2045    0.6056 C   0  0  0  0  0  0  0  0  0  0  0  0
    6.5320    1.5358    0.5657 N   0  0  0  0  0  0  0  0  0  0  0  0
    4.8314    3.9579   -0.6569 H   0  0  0  0  0  0  0  0  0  0  0  0
    6.1948    4.0438    0.4843 H   0  0  0  0  0  0  0  0  0  0  0  0
    4.5613    3.9638    1.1692 H   0  0  0  0  0  0  0  0  0  0  0  0
    3.2557    1.8233    0.0255 H   0  0  0  0  0  0  0  0  0  0  0  0
    1.7952    0.7338   -0.2023 H   0  0  0  0  0  0  0  0  0  0  0  0
   -0.5122    0.6924   -0.5802 H   0  0  0  0  0  0  0  0  0  0  0  0
   -1.5360   -2.1743   -0.7183 H   0  0  0  0  0  0  0  0  0  0  0  0
   -3.2956   -1.5062   -2.1873 H   0  0  0  0  0  0  0  0  0  0  0  0
   -1.7280   -1.1447   -2.9354 H   0  0  0  0  0  0  0  0  0  0  0  0
   -4.7116   -0.4064   -2.9881 H   0  0  0  0  0  0  0  0  0  0  0  0
   -4.9456    1.2953   -2.5164 H   0  0  0  0  0  0  0  0  0  0  0  0
   -4.1176    0.9428   -4.0534 H   0  0  0  0  0  0  0  0  0  0  0  0
   -2.0788    1.0951   -4.2036 H   0  0  0  0  0  0  0  0  0  0  0  0
   -0.8605    1.1162   -2.9168 H   0  0  0  0  0  0  0  0  0  0  0  0
   -2.1250    2.4488   -3.0588 H   0  0  0  0  0  0  0  0  0  0  0  0
   -4.8476    1.7734    0.9455 H   0  0  0  0  0  0  0  0  0  0  0  0
   -4.0617   -1.8323    3.1454 H   0  0  0  0  0  0  0  0  0  0  0  0
   -2.4252   -2.4847    1.4205 H   0  0  0  0  0  0  0  0  0  0  0  0
    2.6642   -2.9302   -0.0213 H   0  0  0  0  0  0  0  0  0  0  0  0
    4.8538   -3.8570    0.3474 H   0  0  0  0  0  0  0  0  0  0  0  0
    6.7494   -2.3667    0.6425 H   0  0  0  0  0  0  0  0  0  0  0  0
    7.6654   -0.2538    0.7704 H   0  0  0  0  0  0  0  0  0  0  0  0
  1  2  1  0
  2  3  2  0
  3  4  1  0
  4  5  2  0
  5  6  1  0
  6  7  1  0
  7  8  2  0
  7  9  1  0
  9 10  1  0
 10 11  1  0
 11 12  1  0
 12 13  1  0
 12 14  1  0
 12 15  1  0
 15 16  1  0
 16 17  2  0
 17 18  1  0
 18 19  1  0
 19 20  1  0
 20 21  1  0
 20 22  1  0
 20 23  1  0
 18 24  2  0
 24 25  1  0
 25 26  2  0
  5 27  1  0
 27 28  2  0
 28 29  1  0
 29 30  2  0
 30 31  1  0
 31 32  2  0
 32  2  1  0
 30  4  1  0
 26 10  1  0
 26 16  1  0
  1 33  1  0
  1 34  1  0
  1 35  1  0
  3 36  1  0
  6 37  1  0
  9 38  1  0
 10 39  1  6
 11 40  1  0
 11 41  1  0
 13 42  1  0
 13 43  1  0
 13 44  1  0
 14 45  1  0
 14 46  1  0
 14 47  1  0
 17 48  1  0
 24 49  1  0
 25 50  1  0
 27 51  1  0
 28 52  1  0
 29 53  1  0
 31 54  1  0
M  END
$$$$
