
     RDKit          3D

107112  0  0  0  0  0  0  0  0999 V2000
    5.6337    2.4098    2.0733 C   0  0  0  0  0  0  0  0  0  0  0  0
    4.8120    1.3187    1.6852 O   0  0  0  0  0  0  0  0  0  0  0  0
    5.3739    0.3774    0.8264 C   0  0  0  0  0  0  0  0  0  0  0  0
    4.6156   -0.7182    0.4066 C   0  0  0  0  0  0  0  0  0  0  0  0
    5.1100   -1.6770   -0.4374 C   0  0  0  0  0  0  0  0  0  0  0  0
    4.3574   -2.7731   -0.9004 N   0  0  0  0  0  0  0  0  0  0  0  0
    3.0833   -2.7141   -1.4794 C   0  0  0  0  0  0  0  0  0  0  0  0
    2.4198   -1.5329   -1.6845 C   0  0  0  0  0  0  0  0  0  0  0  0
    1.1511   -1.4914   -2.2874 C   0  0  0  0  0  0  0  0  0  0  0  0
    0.5430   -0.2419   -2.4545 O   0  0  0  0  0  0  0  0  0  0  0  0
   -0.4620    0.0790   -1.5372 C   0  0  0  0  0  0  0  0  0  0  0  0
   -0.8303   -0.8079   -0.5482 C   0  0  0  0  0  0  0  0  0  0  0  0
   -1.8372   -0.4478    0.3371 C   0  0  0  0  0  0  0  0  0  0  0  0
   -2.4870    0.7467    0.2806 C   0  0  0  0  0  0  0  0  0  0  0  0
   -3.5367    1.0802    1.1695 N   0  0  0  0  0  0  0  0  0  0  0  0
   -4.8657    0.7489    0.8131 C   0  0  0  0  0  0  0  0  0  0  0  0
   -5.0606    0.1511   -0.2989 O   0  0  0  0  0  0  0  0  0  0  0  0
   -5.9854    1.0357    1.6034 N   0  0  0  0  0  0  0  0  0  0  0  0
   -7.3168    0.6935    1.2363 C   0  0  0  0  0  0  0  0  0  0  0  0
   -7.9054   -0.4906    1.6117 C   0  0  0  0  0  0  0  0  0  0  0  0
   -9.2140   -0.7989    1.2201 C   0  0  0  0  0  0  0  0  0  0  0  0
   -9.7652   -2.0880    1.6706 C   0  0  0  0  0  0  0  0  0  0  0  0
   -9.4548   -3.1830    0.6692 C   0  0  0  0  0  0  0  0  0  0  0  0
  -11.2471   -2.0629    1.9324 C   0  0  0  0  0  0  0  0  0  0  0  0
   -9.1067   -2.4455    3.0061 C   0  0  0  0  0  0  0  0  0  0  0  0
   -9.8857    0.1207    0.4507 C   0  0  0  0  0  0  0  0  0  0  0  0
   -9.3248    1.3279    0.0516 C   0  0  0  0  0  0  0  0  0  0  0  0
  -10.0409    2.2692   -0.7500 N   0  0  0  0  0  0  0  0  0  0  0  0
  -11.5942    1.8939   -1.4106 S   0  0  0  0  0  6  0  0  0  0  0  0
  -12.7624    1.5738   -0.1224 C   0  0  0  0  0  0  0  0  0  0  0  0
  -11.5218    0.7456   -2.3827 O   0  0  0  0  0  0  0  0  0  0  0  0
  -12.0363    3.0953   -2.2300 O   0  0  0  0  0  0  0  0  0  0  0  0
   -8.0335    1.5772    0.4668 C   0  0  0  0  0  0  0  0  0  0  0  0
   -7.4587    2.7715    0.0793 O   0  0  0  0  0  0  0  0  0  0  0  0
   -6.7429    2.8500   -1.1453 C   0  0  0  0  0  0  0  0  0  0  0  0
   -2.1132    1.6412   -0.7157 C   0  0  0  0  0  0  0  0  0  0  0  0
   -2.7706    2.8583   -0.7673 C   0  0  0  0  0  0  0  0  0  0  0  0
   -2.4306    3.7727   -1.7327 C   0  0  0  0  0  0  0  0  0  0  0  0
   -1.4232    3.4394   -2.6374 C   0  0  0  0  0  0  0  0  0  0  0  0
   -0.7757    2.2262   -2.5763 C   0  0  0  0  0  0  0  0  0  0  0  0
   -1.1184    1.3063   -1.6044 C   0  0  0  0  0  0  0  0  0  0  0  0
    0.5429   -2.6425   -2.6888 C   0  0  0  0  0  0  0  0  0  0  0  0
    1.2285   -3.8222   -2.4724 C   0  0  0  0  0  0  0  0  0  0  0  0
    2.4408   -3.8544   -1.8949 N   0  0  0  0  0  0  0  0  0  0  0  0
    6.4346   -1.5043   -0.8655 C   0  0  0  0  0  0  0  0  0  0  0  0
    7.2168   -0.4351   -0.4724 C   0  0  0  0  0  0  0  0  0  0  0  0
    8.5797   -0.3327   -0.9677 C   0  0  0  0  0  0  0  0  0  0  0  0
    8.9905   -1.2140   -1.7784 O   0  0  0  0  0  0  0  0  0  0  0  0
    9.4867    0.6880   -0.6063 N   0  0  0  0  0  0  0  0  0  0  0  0
   10.8434    0.7505   -1.1278 C   0  0  0  0  0  0  0  0  0  0  0  0
   11.6575   -0.4575   -0.7910 C   0  0  0  0  0  0  0  0  0  0  0  0
   11.7687   -0.6147    0.6470 N   0  0  0  0  0  0  0  0  0  0  0  0
   12.5100   -1.8255    0.9315 C   0  0  0  0  0  0  0  0  0  0  0  0
   13.9975   -1.6494    0.9385 C   0  0  0  0  0  0  0  0  0  0  0  0
   14.4551   -0.5732    0.2165 O   0  0  0  0  0  0  0  0  0  0  0  0
   13.8922    0.6252    0.5967 C   0  0  0  0  0  0  0  0  0  0  0  0
   12.5234    0.4898    1.2140 C   0  0  0  0  0  0  0  0  0  0  0  0
    6.6934    0.5166    0.3777 C   0  0  0  0  0  0  0  0  0  0  0  0
    5.0695    3.2070    2.6041 H   0  0  0  0  0  0  0  0  0  0  0  0
    6.4826    1.9967    2.6405 H   0  0  0  0  0  0  0  0  0  0  0  0
    6.0366    2.9309    1.1535 H   0  0  0  0  0  0  0  0  0  0  0  0
    3.5888   -0.8036    0.7951 H   0  0  0  0  0  0  0  0  0  0  0  0
    4.8045   -3.7329   -0.7969 H   0  0  0  0  0  0  0  0  0  0  0  0
    2.8780   -0.6039   -1.3921 H   0  0  0  0  0  0  0  0  0  0  0  0
   -0.3268   -1.7679   -0.4830 H   0  0  0  0  0  0  0  0  0  0  0  0
   -2.1088   -1.1619    1.1054 H   0  0  0  0  0  0  0  0  0  0  0  0
   -3.3220    1.5543    2.0572 H   0  0  0  0  0  0  0  0  0  0  0  0
   -5.8415    1.5247    2.5057 H   0  0  0  0  0  0  0  0  0  0  0  0
   -7.3582   -1.1942    2.2143 H   0  0  0  0  0  0  0  0  0  0  0  0
   -9.7525   -2.8142   -0.3206 H   0  0  0  0  0  0  0  0  0  0  0  0
  -10.0375   -4.1116    0.9146 H   0  0  0  0  0  0  0  0  0  0  0  0
   -8.3693   -3.4071    0.6028 H   0  0  0  0  0  0  0  0  0  0  0  0
  -11.8513   -1.5883    1.1574 H   0  0  0  0  0  0  0  0  0  0  0  0
  -11.5629   -3.1477    1.9547 H   0  0  0  0  0  0  0  0  0  0  0  0
  -11.4059   -1.5906    2.9322 H   0  0  0  0  0  0  0  0  0  0  0  0
   -9.7991   -3.1429    3.5566 H   0  0  0  0  0  0  0  0  0  0  0  0
   -8.1571   -2.9618    2.8461 H   0  0  0  0  0  0  0  0  0  0  0  0
   -9.0328   -1.5084    3.5910 H   0  0  0  0  0  0  0  0  0  0  0  0
  -10.9036   -0.1141    0.1424 H   0  0  0  0  0  0  0  0  0  0  0  0
   -9.5810    3.1907   -0.9151 H   0  0  0  0  0  0  0  0  0  0  0  0
  -12.3127    1.7156    0.8916 H   0  0  0  0  0  0  0  0  0  0  0  0
  -13.1726    0.5490   -0.1993 H   0  0  0  0  0  0  0  0  0  0  0  0
  -13.6417    2.2666   -0.2520 H   0  0  0  0  0  0  0  0  0  0  0  0
   -5.7066    3.2074   -1.0036 H   0  0  0  0  0  0  0  0  0  0  0  0
   -6.7149    1.8738   -1.6812 H   0  0  0  0  0  0  0  0  0  0  0  0
   -7.3184    3.5651   -1.8011 H   0  0  0  0  0  0  0  0  0  0  0  0
   -3.5406    3.0661   -0.0383 H   0  0  0  0  0  0  0  0  0  0  0  0
   -2.9583    4.7148   -1.7522 H   0  0  0  0  0  0  0  0  0  0  0  0
   -1.1982    4.2038   -3.3793 H   0  0  0  0  0  0  0  0  0  0  0  0
   -0.0117    1.9894   -3.2734 H   0  0  0  0  0  0  0  0  0  0  0  0
   -0.4238   -2.5763   -3.1459 H   0  0  0  0  0  0  0  0  0  0  0  0
    0.7679   -4.7424   -2.7803 H   0  0  0  0  0  0  0  0  0  0  0  0
    6.8104   -2.2746   -1.5326 H   0  0  0  0  0  0  0  0  0  0  0  0
    9.1645    1.4205    0.0596 H   0  0  0  0  0  0  0  0  0  0  0  0
   10.8475    0.8376   -2.2504 H   0  0  0  0  0  0  0  0  0  0  0  0
   11.3286    1.6816   -0.7750 H   0  0  0  0  0  0  0  0  0  0  0  0
   12.6717   -0.2807   -1.2560 H   0  0  0  0  0  0  0  0  0  0  0  0
   11.2423   -1.3527   -1.2596 H   0  0  0  0  0  0  0  0  0  0  0  0
   12.1747   -2.6301    0.2245 H   0  0  0  0  0  0  0  0  0  0  0  0
   12.1730   -2.1865    1.9480 H   0  0  0  0  0  0  0  0  0  0  0  0
   14.4415   -2.5754    0.4927 H   0  0  0  0  0  0  0  0  0  0  0  0
   14.4033   -1.5438    1.9823 H   0  0  0  0  0  0  0  0  0  0  0  0
   14.5802    1.1339    1.3169 H   0  0  0  0  0  0  0  0  0  0  0  0
   13.8230    1.2973   -0.2988 H   0  0  0  0  0  0  0  0  0  0  0  0
   12.0202    1.4626    1.1237 H   0  0  0  0  0  0  0  0  0  0  0  0
   12.5718    0.2720    2.3211 H   0  0  0  0  0  0  0  0  0  0  0  0
    7.2758    1.3712    0.7081 H   0  0  0  0  0  0  0  0  0  0  0  0
  1  2  1  0
  2  3  1  0
  3  4  2  0
  4  5  1  0
  5  6  1  0
  6  7  1  0
  7  8  2  0
  8  9  1  0
  9 10  1  0
 10 11  1  0
 11 12  2  0
 12 13  1  0
 13 14  2  0
 14 15  1  0
 15 16  1  0
 16 17  2  0
 16 18  1  0
 18 19  1  0
 19 20  2  0
 20 21  1  0
 21 22  1  0
 22 23  1  0
 22 24  1  0
 22 25  1  0
 21 26  2  0
 26 27  1  0
 27 28  1  0
 28 29  1  0
 29 30  1  0
 29 31  2  0
 29 32  2  0
 27 33  2  0
 33 34  1  0
 34 35  1  0
 14 36  1  0
 36 37  2  0
 37 38  1  0
 38 39  2  0
 39 40  1  0
 40 41  2  0
  9 42  2  0
 42 43  1  0
 43 44  2  0
  5 45  2  0
 45 46  1  0
 46 47  1  0
 47 48  2  0
 47 49  1  0
 49 50  1  0
 50 51  1  0
 51 52  1  0
 52 53  1  0
 53 54  1  0
 54 55  1  0
 55 56  1  0
 56 57  1  0
 46 58  2  0
 58  3  1  0
 44  7  1  0
 57 52  1  0
 41 11  1  0
 33 19  1  0
 41 36  1  0
  1 59  1  0
  1 60  1  0
  1 61  1  0
  4 62  1  0
  6 63  1  0
  8 64  1  0
 12 65  1  0
 13 66  1  0
 15 67  1  0
 18 68  1  0
 20 69  1  0
 23 70  1  0
 23 71  1  0
 23 72  1  0
 24 73  1  0
 24 74  1  0
 24 75  1  0
 25 76  1  0
 25 77  1  0
 25 78  1  0
 26 79  1  0
 28 80  1  0
 30 81  1  0
 30 82  1  0
 30 83  1  0
 35 84  1  0
 35 85  1  0
 35 86  1  0
 37 87  1  0
 38 88  1  0
 39 89  1  0
 40 90  1  0
 42 91  1  0
 43 92  1  0
 45 93  1  0
 49 94  1  0
 50 95  1  0
 50 96  1  0
 51 97  1  0
 51 98  1  0
 53 99  1  0
 53100  1  0
 54101  1  0
 54102  1  0
 56103  1  0
 56104  1  0
 57105  1  0
 57106  1  0
 58107  1  0
M  END
$$$$
