
     RDKit          3D

 50 52  0  0  0  0  0  0  0  0999 V2000
    6.9204    1.5566   -0.3761 O   0  0  0  0  0  0  0  0  0  0  0  0
    5.7895    0.8712    0.1012 C   0  0  0  0  0  0  0  0  0  0  0  0
    5.0002    1.8214    0.9652 C   0  0  0  0  0  0  0  0  0  0  0  0
    3.8396    1.3103    1.5238 O   0  0  0  0  0  0  0  0  0  0  0  0
    2.7617    0.8542    0.8738 C   0  0  0  0  0  0  0  0  0  0  0  0
    2.3315    0.6867   -0.4202 C   0  0  0  0  0  0  0  0  0  0  0  0
    1.1532    0.1850   -0.8516 C   0  0  0  0  0  0  0  0  0  0  0  0
    0.2419   -0.2204    0.1096 C   0  0  0  0  0  0  0  0  0  0  0  0
    0.5624   -0.1006    1.4550 C   0  0  0  0  0  0  0  0  0  0  0  0
    1.8067    0.4297    1.8055 C   0  0  0  0  0  0  0  0  0  0  0  0
   -1.0071   -0.7872   -0.4193 C   0  0  0  0  0  0  0  0  0  0  0  0
   -2.1397   -0.3419    0.0778 C   0  0  0  0  0  0  0  0  0  0  0  0
   -3.4426   -0.8636   -0.3918 C   0  0  0  0  0  0  0  0  0  0  0  0
   -4.1870    0.3173   -1.0233 C   0  0  0  0  0  0  0  0  0  0  0  0
   -5.7812   -0.1842   -1.6263 Cl  0  0  0  0  0  0  0  0  0  0  0  0
   -2.2895    0.6997    1.0841 C   0  0  0  0  0  0  0  0  0  0  0  0
   -3.1782    0.6030    2.1355 C   0  0  0  0  0  0  0  0  0  0  0  0
   -3.3773    1.5538    3.1138 C   0  0  0  0  0  0  0  0  0  0  0  0
   -2.6173    2.7196    3.0414 C   0  0  0  0  0  0  0  0  0  0  0  0
   -1.7077    2.8669    2.0011 C   0  0  0  0  0  0  0  0  0  0  0  0
   -1.5482    1.8811    1.0460 C   0  0  0  0  0  0  0  0  0  0  0  0
   -0.8583   -1.7746   -1.4780 C   0  0  0  0  0  0  0  0  0  0  0  0
   -1.3955   -1.9127   -2.7211 C   0  0  0  0  0  0  0  0  0  0  0  0
   -1.1018   -2.9958   -3.5095 C   0  0  0  0  0  0  0  0  0  0  0  0
   -0.2414   -4.0307   -3.1111 C   0  0  0  0  0  0  0  0  0  0  0  0
    0.3209   -3.9067   -1.8374 C   0  0  0  0  0  0  0  0  0  0  0  0
    0.0056   -2.8000   -1.0617 C   0  0  0  0  0  0  0  0  0  0  0  0
    6.6408    2.0388   -1.1830 H   0  0  0  0  0  0  0  0  0  0  0  0
    5.2294    0.3798   -0.7008 H   0  0  0  0  0  0  0  0  0  0  0  0
    6.1956    0.0944    0.8220 H   0  0  0  0  0  0  0  0  0  0  0  0
    4.7946    2.7399    0.3373 H   0  0  0  0  0  0  0  0  0  0  0  0
    5.6470    2.1389    1.8420 H   0  0  0  0  0  0  0  0  0  0  0  0
    3.0642    1.0257   -1.1230 H   0  0  0  0  0  0  0  0  0  0  0  0
    0.9992    0.1339   -1.9293 H   0  0  0  0  0  0  0  0  0  0  0  0
   -0.2035   -0.4417    2.1065 H   0  0  0  0  0  0  0  0  0  0  0  0
    1.8704    0.4440    2.9034 H   0  0  0  0  0  0  0  0  0  0  0  0
   -3.3862   -1.6265   -1.1857 H   0  0  0  0  0  0  0  0  0  0  0  0
   -4.0537   -1.2479    0.4696 H   0  0  0  0  0  0  0  0  0  0  0  0
   -4.3321    1.1507   -0.3253 H   0  0  0  0  0  0  0  0  0  0  0  0
   -3.5386    0.6983   -1.8609 H   0  0  0  0  0  0  0  0  0  0  0  0
   -3.7970   -0.2739    2.2504 H   0  0  0  0  0  0  0  0  0  0  0  0
   -4.0838    1.4471    3.9317 H   0  0  0  0  0  0  0  0  0  0  0  0
   -2.7695    3.4637    3.8057 H   0  0  0  0  0  0  0  0  0  0  0  0
   -1.1065    3.7889    1.9390 H   0  0  0  0  0  0  0  0  0  0  0  0
   -0.8358    2.0699    0.2701 H   0  0  0  0  0  0  0  0  0  0  0  0
   -2.0355   -1.0933   -2.9932 H   0  0  0  0  0  0  0  0  0  0  0  0
   -1.6034   -2.9701   -4.4737 H   0  0  0  0  0  0  0  0  0  0  0  0
   -0.0588   -4.8466   -3.7807 H   0  0  0  0  0  0  0  0  0  0  0  0
    0.9771   -4.6985   -1.5354 H   0  0  0  0  0  0  0  0  0  0  0  0
    0.5254   -2.8534   -0.0928 H   0  0  0  0  0  0  0  0  0  0  0  0
  1  2  1  0
  2  3  1  0
  3  4  1  0
  4  5  1  0
  5  6  2  0
  6  7  1  0
  7  8  2  0
  8  9  1  0
  9 10  2  0
  8 11  1  0
 11 12  2  0
 12 13  1  0
 13 14  1  0
 14 15  1  0
 12 16  1  0
 16 17  2  0
 17 18  1  0
 18 19  2  0
 19 20  1  0
 20 21  2  0
 11 22  1  0
 22 23  2  0
 23 24  1  0
 24 25  2  0
 25 26  1  0
 26 27  2  0
 10  5  1  0
 21 16  1  0
 27 22  1  0
  1 28  1  0
  2 29  1  0
  2 30  1  0
  3 31  1  0
  3 32  1  0
  6 33  1  0
  7 34  1  0
  9 35  1  0
 10 36  1  0
 13 37  1  0
 13 38  1  0
 14 39  1  0
 14 40  1  0
 17 41  1  0
 18 42  1  0
 19 43  1  0
 20 44  1  0
 21 45  1  0
 23 46  1  0
 24 47  1  0
 25 48  1  0
 26 49  1  0
 27 50  1  0
M  END
$$$$
