
     RDKit          3D

 56 59  0  0  0  0  0  0  0  0999 V2000
   -1.3294   -0.1975   -0.3077 C   0  0  2  0  0  0  0  0  0  0  0  0
   -0.0465   -0.9661   -0.0283 C   0  0  0  0  0  0  0  0  0  0  0  0
    1.0870   -0.1077   -0.6362 C   0  0  1  0  0  0  0  0  0  0  0  0
    1.3476    0.9718    0.3171 C   0  0  0  0  0  0  0  0  0  0  0  0
    0.2077    1.6197    0.4828 C   0  0  0  0  0  0  0  0  0  0  0  0
    0.3185    2.6956    1.3867 O   0  0  0  0  0  0  0  0  0  0  0  0
   -1.0679    1.2630   -0.2058 C   0  0  1  0  0  0  0  0  0  0  0  0
   -0.9531    1.8893   -1.4751 O   0  0  0  0  0  0  0  0  0  0  0  0
   -2.1270    2.0418    0.5141 C   0  0  0  0  0  0  0  0  0  0  0  0
   -1.8658    3.0363    1.2471 O   0  0  0  0  0  0  0  0  0  0  0  0
   -3.4968    1.5837    0.3191 C   0  0  0  0  0  0  0  0  0  0  0  0
   -4.5739    2.5444    0.2185 C   0  0  0  0  0  0  0  0  0  0  0  0
   -4.3595    3.9442    0.3035 N   0  0  0  0  0  0  0  0  0  0  0  0
   -5.7582    2.2336    0.0522 O   0  0  0  0  0  0  0  0  0  0  0  0
   -3.6413    0.2730    0.2614 C   0  0  0  0  0  0  0  0  0  0  0  0
   -5.0017   -0.0629    0.0679 O   0  0  0  0  0  0  0  0  0  0  0  0
   -2.5343   -0.7058    0.3844 C   0  0  1  0  0  0  0  0  0  0  0  0
   -2.9375   -2.0312    0.0315 N   0  0  0  0  0  0  0  0  0  0  0  0
   -4.2545   -2.3586    0.6011 C   0  0  0  0  0  0  0  0  0  0  0  0
   -2.0517   -3.0718    0.5661 C   0  0  0  0  0  0  0  0  0  0  0  0
    2.5880    1.3237    0.9902 C   0  0  0  0  0  0  0  0  0  0  0  0
    2.6148    2.3019    1.7724 O   0  0  0  0  0  0  0  0  0  0  0  0
    3.7236    0.4760    0.6813 C   0  0  0  0  0  0  0  0  0  0  0  0
    4.9333    0.7297    1.2677 C   0  0  0  0  0  0  0  0  0  0  0  0
    5.0310    1.8008    2.1459 O   0  0  0  0  0  0  0  0  0  0  0  0
    6.0211   -0.0727    0.9800 C   0  0  0  0  0  0  0  0  0  0  0  0
    5.8385   -1.1266    0.0884 C   0  0  0  0  0  0  0  0  0  0  0  0
    4.6026   -1.3786   -0.5050 C   0  0  0  0  0  0  0  0  0  0  0  0
    3.5144   -0.5530   -0.1992 C   0  0  0  0  0  0  0  0  0  0  0  0
    2.2913   -0.9669   -0.9170 C   0  0  2  0  0  0  0  0  0  0  0  0
    2.6146   -0.9107   -2.3921 C   0  0  0  0  0  0  0  0  0  0  0  0
    2.0535   -2.3005   -0.5736 O   0  0  0  0  0  0  0  0  0  0  0  0
   -1.5110   -0.3914   -1.4161 H   0  0  0  0  0  0  0  0  0  0  0  0
   -0.0394   -1.9560   -0.4886 H   0  0  0  0  0  0  0  0  0  0  0  0
    0.1677   -0.9525    1.0554 H   0  0  0  0  0  0  0  0  0  0  0  0
    0.7219    0.3030   -1.5938 H   0  0  0  0  0  0  0  0  0  0  0  0
    0.3726    2.5736    2.3778 H   0  0  0  0  0  0  0  0  0  0  0  0
   -0.9447    2.8638   -1.2432 H   0  0  0  0  0  0  0  0  0  0  0  0
   -4.3713    4.6876   -0.4394 H   0  0  0  0  0  0  0  0  0  0  0  0
   -4.1882    3.9973    1.3295 H   0  0  0  0  0  0  0  0  0  0  0  0
   -5.4027    0.1067   -0.8601 H   0  0  0  0  0  0  0  0  0  0  0  0
   -2.2752   -0.7519    1.4873 H   0  0  0  0  0  0  0  0  0  0  0  0
   -5.0471   -2.3406   -0.1797 H   0  0  0  0  0  0  0  0  0  0  0  0
   -4.4644   -1.7881    1.5063 H   0  0  0  0  0  0  0  0  0  0  0  0
   -4.2528   -3.4378    0.9367 H   0  0  0  0  0  0  0  0  0  0  0  0
   -1.3482   -2.7230    1.3141 H   0  0  0  0  0  0  0  0  0  0  0  0
   -1.6260   -3.6368   -0.2929 H   0  0  0  0  0  0  0  0  0  0  0  0
   -2.6527   -3.8762    1.1066 H   0  0  0  0  0  0  0  0  0  0  0  0
    5.2984    2.6932    1.7044 H   0  0  0  0  0  0  0  0  0  0  0  0
    6.9677    0.1462    1.4550 H   0  0  0  0  0  0  0  0  0  0  0  0
    6.7460   -1.6937   -0.0706 H   0  0  0  0  0  0  0  0  0  0  0  0
    4.6838   -2.2484   -1.1668 H   0  0  0  0  0  0  0  0  0  0  0  0
    2.5564    0.1861   -2.6550 H   0  0  0  0  0  0  0  0  0  0  0  0
    3.6439   -1.2577   -2.6149 H   0  0  0  0  0  0  0  0  0  0  0  0
    1.9064   -1.5044   -3.0052 H   0  0  0  0  0  0  0  0  0  0  0  0
    2.2704   -2.9170   -1.3201 H   0  0  0  0  0  0  0  0  0  0  0  0
  1  2  1  0
  2  3  1  0
  3  4  1  0
  4  5  2  0
  5  6  1  0
  5  7  1  0
  7  8  1  6
  7  9  1  0
  9 10  2  0
  9 11  1  0
 11 12  1  0
 12 13  1  0
 12 14  2  0
 11 15  2  0
 15 16  1  0
 15 17  1  0
 17 18  1  0
 18 19  1  0
 18 20  1  0
  4 21  1  0
 21 22  2  0
 21 23  1  0
 23 24  2  0
 24 25  1  0
 24 26  1  0
 26 27  2  0
 27 28  1  0
 28 29  2  0
 29 30  1  0
 30 31  1  0
 30 32  1  1
  7  1  1  0
 29 23  1  0
 17  1  1  0
 30  3  1  0
  1 33  1  6
  2 34  1  0
  2 35  1  0
  3 36  1  6
  6 37  1  0
  8 38  1  0
 13 39  1  0
 13 40  1  0
 16 41  1  0
 17 42  1  1
 19 43  1  0
 19 44  1  0
 19 45  1  0
 20 46  1  0
 20 47  1  0
 20 48  1  0
 25 49  1  0
 26 50  1  0
 27 51  1  0
 28 52  1  0
 31 53  1  0
 31 54  1  0
 31 55  1  0
 32 56  1  0
M  END
$$$$
