
     RDKit          3D

 45 48  0  0  0  0  0  0  0  0999 V2000
    9.4365    0.2212    0.8547 C   0  0  0  0  0  0  0  0  0  0  0  0
    7.9545    0.1293    0.7718 C   0  0  0  0  0  0  0  0  0  0  0  0
    7.2906   -0.2080   -0.4109 C   0  0  0  0  0  0  0  0  0  0  0  0
    5.9112   -0.2961   -0.4092 C   0  0  0  0  0  0  0  0  0  0  0  0
    5.1726   -0.0584    0.7392 C   0  0  0  0  0  0  0  0  0  0  0  0
    3.7547   -0.2233    0.7915 C   0  0  0  0  0  0  0  0  0  0  0  0
    2.7900    0.0604    1.6935 C   0  0  0  0  0  0  0  0  0  0  0  0
    1.5648   -0.2722    1.3517 N   0  0  0  0  0  0  0  0  0  0  0  0
    1.1797   -0.7738    0.3915 C   0  0  0  0  0  0  0  0  0  0  0  0
   -0.0650   -1.2956   -0.1855 N   0  0  0  0  0  0  0  0  0  0  0  0
   -1.0814   -0.4914   -0.7187 C   0  0  0  0  0  0  0  0  0  0  0  0
   -2.4331   -0.8116   -0.4928 C   0  0  0  0  0  0  0  0  0  0  0  0
   -3.4597   -0.0689   -1.0099 C   0  0  0  0  0  0  0  0  0  0  0  0
   -4.8069   -0.3461   -0.7742 N   0  0  0  0  0  0  0  0  0  0  0  0
   -5.9020    0.1325   -1.6130 C   0  0  0  0  0  0  0  0  0  0  0  0
   -6.6782    1.1024   -0.7769 C   0  0  0  0  0  0  0  0  0  0  0  0
   -6.6503    0.9606    0.6018 N   0  0  0  0  0  0  0  0  0  0  0  0
   -6.1380   -0.1777    1.2240 C   0  0  0  0  0  0  0  0  0  0  0  0
   -5.3153   -1.1133    0.3731 C   0  0  0  0  0  0  0  0  0  0  0  0
   -3.1154    1.0193   -1.7731 C   0  0  0  0  0  0  0  0  0  0  0  0
   -1.8039    1.3500   -2.0091 C   0  0  0  0  0  0  0  0  0  0  0  0
   -0.8296    0.5849   -1.4736 N   0  0  0  0  0  0  0  0  0  0  0  0
    2.7856   -0.9944   -0.5823 S   0  0  0  0  0  0  0  0  0  0  0  0
    5.8607    0.2698    1.8872 C   0  0  0  0  0  0  0  0  0  0  0  0
    7.2208    0.3536    1.8744 N   0  0  0  0  0  0  0  0  0  0  0  0
    9.7342    0.9624    1.6312 H   0  0  0  0  0  0  0  0  0  0  0  0
    9.9156    0.4784   -0.0872 H   0  0  0  0  0  0  0  0  0  0  0  0
    9.8405   -0.7831    1.1594 H   0  0  0  0  0  0  0  0  0  0  0  0
    7.8723   -0.3897   -1.3005 H   0  0  0  0  0  0  0  0  0  0  0  0
    5.3806   -0.5609   -1.3207 H   0  0  0  0  0  0  0  0  0  0  0  0
    3.0156    0.5344    2.6462 H   0  0  0  0  0  0  0  0  0  0  0  0
   -0.1435   -2.3408   -0.1888 H   0  0  0  0  0  0  0  0  0  0  0  0
   -2.6161   -1.6708    0.1077 H   0  0  0  0  0  0  0  0  0  0  0  0
   -6.5113   -0.7934   -1.8427 H   0  0  0  0  0  0  0  0  0  0  0  0
   -5.5728    0.5741   -2.5576 H   0  0  0  0  0  0  0  0  0  0  0  0
   -7.7392    1.0911   -1.1634 H   0  0  0  0  0  0  0  0  0  0  0  0
   -6.2938    2.1189   -1.0721 H   0  0  0  0  0  0  0  0  0  0  0  0
   -6.5098    1.8531    1.0981 H   0  0  0  0  0  0  0  0  0  0  0  0
   -5.4730    0.1268    2.0633 H   0  0  0  0  0  0  0  0  0  0  0  0
   -6.9374   -0.7753    1.7000 H   0  0  0  0  0  0  0  0  0  0  0  0
   -6.0096   -1.8753   -0.0799 H   0  0  0  0  0  0  0  0  0  0  0  0
   -4.4729   -1.5910    0.8974 H   0  0  0  0  0  0  0  0  0  0  0  0
   -3.8977    1.6535   -2.2070 H   0  0  0  0  0  0  0  0  0  0  0  0
   -1.5739    2.2135   -2.6191 H   0  0  0  0  0  0  0  0  0  0  0  0
    5.3493    0.4653    2.8106 H   0  0  0  0  0  0  0  0  0  0  0  0
  1  2  1  0
  2  3  2  0
  3  4  1  0
  4  5  2  0
  5  6  1  0
  6  7  2  0
  7  8  1  0
  8  9  2  0
  9 10  1  0
 10 11  1  0
 11 12  2  0
 12 13  1  0
 13 14  1  0
 14 15  1  0
 15 16  1  0
 16 17  1  0
 17 18  1  0
 18 19  1  0
 13 20  2  0
 20 21  1  0
 21 22  2  0
  9 23  1  0
  5 24  1  0
 24 25  2  0
 25  2  1  0
 23  6  1  0
 22 11  1  0
 19 14  1  0
  1 26  1  0
  1 27  1  0
  1 28  1  0
  3 29  1  0
  4 30  1  0
  7 31  1  0
 10 32  1  0
 12 33  1  0
 15 34  1  0
 15 35  1  0
 16 36  1  0
 16 37  1  0
 17 38  1  0
 18 39  1  0
 18 40  1  0
 19 41  1  0
 19 42  1  0
 20 43  1  0
 21 44  1  0
 24 45  1  0
M  END
$$$$
