
     RDKit          3D

 53 56  0  0  0  0  0  0  0  0999 V2000
   -4.3996    1.2762    0.4220 O   0  0  0  0  0  0  0  0  0  0  0  0
   -4.9069    0.1706    0.1480 C   0  0  0  0  0  0  0  0  0  0  0  0
   -4.1258   -0.8792   -0.3745 N   0  0  0  0  0  0  0  0  0  0  0  0
   -2.7428   -0.8634   -0.6808 C   0  0  0  0  0  0  0  0  0  0  0  0
   -2.2164   -0.0293   -1.7758 C   0  0  0  0  0  0  0  0  0  0  0  0
   -2.8019   -0.3739   -2.9965 O   0  0  0  0  0  0  0  0  0  0  0  0
   -2.1560    1.4484   -1.6254 C   0  0  0  0  0  0  0  0  0  0  0  0
   -1.1755    1.5588   -0.4610 C   0  0  0  0  0  0  0  0  0  0  0  0
   -0.1464    0.6104   -0.8776 N   0  0  0  0  0  0  0  0  0  0  0  0
    1.1742    0.5818   -0.3522 C   0  0  0  0  0  0  0  0  0  0  0  0
    2.0676   -0.3204   -0.7847 N   0  0  0  0  0  0  0  0  0  0  0  0
    3.3277   -0.3993   -0.3295 C   0  0  0  0  0  0  0  0  0  0  0  0
    4.2296   -1.3568   -0.8079 O   0  0  0  0  0  0  0  0  0  0  0  0
    5.5184   -1.3873   -0.2977 C   0  0  0  0  0  0  0  0  0  0  0  0
    6.5251   -0.6492   -0.8829 C   0  0  0  0  0  0  0  0  0  0  0  0
    7.8224   -0.6684   -0.3841 C   0  0  0  0  0  0  0  0  0  0  0  0
    8.1392   -1.4248    0.7083 C   0  0  0  0  0  0  0  0  0  0  0  0
    7.1488   -2.1694    1.3080 C   0  0  0  0  0  0  0  0  0  0  0  0
    7.4857   -2.9127    2.3909 F   0  0  0  0  0  0  0  0  0  0  0  0
    5.8490   -2.1473    0.8045 C   0  0  0  0  0  0  0  0  0  0  0  0
    3.6912    0.5170    0.6399 C   0  0  0  0  0  0  0  0  0  0  0  0
    2.7998    1.4659    1.1150 C   0  0  0  0  0  0  0  0  0  0  0  0
    3.1729    2.4595    2.1574 C   0  0  0  0  0  0  0  0  0  0  0  0
    2.0277    2.8472    2.8020 F   0  0  0  0  0  0  0  0  0  0  0  0
    3.8481    3.5334    1.6358 F   0  0  0  0  0  0  0  0  0  0  0  0
    3.9586    1.7821    3.0897 F   0  0  0  0  0  0  0  0  0  0  0  0
    1.5658    1.4527    0.5884 N   0  0  0  0  0  0  0  0  0  0  0  0
   -0.6713   -0.2834   -1.8935 C   0  0  0  0  0  0  0  0  0  0  0  0
   -6.3830   -0.0020    0.3955 C   0  0  0  0  0  0  0  0  0  0  0  0
   -6.6752   -1.0997    1.3699 C   0  0  0  0  0  0  0  0  0  0  0  0
   -7.3192   -0.1757    2.2573 N   0  0  0  0  0  0  0  0  0  0  0  0
   -6.8742    0.9419    1.4473 C   0  0  0  0  0  0  0  0  0  0  0  0
   -4.6779   -1.7994   -0.5546 H   0  0  0  0  0  0  0  0  0  0  0  0
   -2.4059   -1.9338   -0.9216 H   0  0  0  0  0  0  0  0  0  0  0  0
   -2.1393   -0.6576    0.2828 H   0  0  0  0  0  0  0  0  0  0  0  0
   -3.3928   -1.1553   -2.8936 H   0  0  0  0  0  0  0  0  0  0  0  0
   -3.0616    2.0101   -1.5416 H   0  0  0  0  0  0  0  0  0  0  0  0
   -1.5627    1.8171   -2.5465 H   0  0  0  0  0  0  0  0  0  0  0  0
   -1.6643    1.2959    0.4830 H   0  0  0  0  0  0  0  0  0  0  0  0
   -0.7673    2.5857   -0.3778 H   0  0  0  0  0  0  0  0  0  0  0  0
    6.2808   -0.0438   -1.7539 H   0  0  0  0  0  0  0  0  0  0  0  0
    8.6158   -0.0877   -0.8440 H   0  0  0  0  0  0  0  0  0  0  0  0
    9.1707   -1.4274    1.0886 H   0  0  0  0  0  0  0  0  0  0  0  0
    5.1015   -2.7338    1.2887 H   0  0  0  0  0  0  0  0  0  0  0  0
    4.6763    0.5215    1.0548 H   0  0  0  0  0  0  0  0  0  0  0  0
   -0.3999   -0.0092   -2.9190 H   0  0  0  0  0  0  0  0  0  0  0  0
   -0.5302   -1.3459   -1.6816 H   0  0  0  0  0  0  0  0  0  0  0  0
   -7.0004    0.0056   -0.5065 H   0  0  0  0  0  0  0  0  0  0  0  0
   -5.8025   -1.6487    1.7628 H   0  0  0  0  0  0  0  0  0  0  0  0
   -7.4115   -1.8421    0.9765 H   0  0  0  0  0  0  0  0  0  0  0  0
   -6.9541   -0.1653    3.2362 H   0  0  0  0  0  0  0  0  0  0  0  0
   -7.7667    1.5481    1.1604 H   0  0  0  0  0  0  0  0  0  0  0  0
   -6.0658    1.5624    1.9086 H   0  0  0  0  0  0  0  0  0  0  0  0
  1  2  2  0
  2  3  1  0
  3  4  1  0
  4  5  1  0
  5  6  1  0
  5  7  1  0
  7  8  1  0
  8  9  1  0
  9 10  1  0
 10 11  2  0
 11 12  1  0
 12 13  1  0
 13 14  1  0
 14 15  2  0
 15 16  1  0
 16 17  2  0
 17 18  1  0
 18 19  1  0
 18 20  2  0
 12 21  2  0
 21 22  1  0
 22 23  1  0
 23 24  1  0
 23 25  1  0
 23 26  1  0
 22 27  2  0
  9 28  1  0
  2 29  1  0
 29 30  1  0
 30 31  1  0
 31 32  1  0
 28  5  1  0
 32 29  1  0
 27 10  1  0
 20 14  1  0
  3 33  1  0
  4 34  1  0
  4 35  1  0
  6 36  1  0
  7 37  1  0
  7 38  1  0
  8 39  1  0
  8 40  1  0
 15 41  1  0
 16 42  1  0
 17 43  1  0
 20 44  1  0
 21 45  1  0
 28 46  1  0
 28 47  1  0
 29 48  1  0
 30 49  1  0
 30 50  1  0
 31 51  1  0
 32 52  1  0
 32 53  1  0
M  END
$$$$
