
     RDKit          3D

178179  0  0  0  0  0  0  0  0999 V2000
  -17.5658    2.2032    1.3986 C   0  0  0  0  0  0  0  0  0  0  0  0
  -16.2062    1.9955    1.6587 O   0  0  0  0  0  0  0  0  0  0  0  0
  -15.6389    2.6597    2.7651 C   0  0  0  0  0  0  0  0  0  0  0  0
  -16.3658    3.4049    3.4538 O   0  0  0  0  0  0  0  0  0  0  0  0
  -14.2210    2.4542    3.0746 C   0  0  2  0  0  0  0  0  0  0  0  0
  -13.4721    3.7324    3.0234 C   0  0  0  0  0  0  0  0  0  0  0  0
  -12.5024    3.5958    1.8451 C   0  0  0  0  0  0  0  0  0  0  0  0
  -13.1617    2.4646    1.0193 C   0  0  0  0  0  0  0  0  0  0  0  0
  -13.5481    1.5829    2.0898 N   0  0  0  0  0  0  0  0  0  0  0  0
  -13.3907    0.2025    2.2728 C   0  0  0  0  0  0  0  0  0  0  0  0
  -13.8801   -0.1966    3.4440 O   0  0  0  0  0  0  0  0  0  0  0  0
  -12.8081   -0.8431    1.4558 C   0  0  1  0  0  0  0  0  0  0  0  0
  -12.9794   -0.8612   -0.0144 C   0  0  0  0  0  0  0  0  0  0  0  0
  -14.3997   -1.0059   -0.3874 C   0  0  0  0  0  0  0  0  0  0  0  0
  -14.9409   -2.2942   -0.4415 C   0  0  0  0  0  0  0  0  0  0  0  0
  -16.2567   -2.4827   -0.7862 C   0  0  0  0  0  0  0  0  0  0  0  0
  -17.0730   -1.4062   -1.0863 C   0  0  0  0  0  0  0  0  0  0  0  0
  -16.5469   -0.1446   -1.0350 C   0  0  0  0  0  0  0  0  0  0  0  0
  -15.2258    0.0358   -0.6890 C   0  0  0  0  0  0  0  0  0  0  0  0
  -11.5037   -1.3135    1.9330 N   0  0  0  0  0  0  0  0  0  0  0  0
  -11.4437   -2.5888    2.6068 C   0  0  0  0  0  0  0  0  0  0  0  0
  -10.2938   -0.5613    1.7488 C   0  0  0  0  0  0  0  0  0  0  0  0
  -10.3752    0.5266    1.1378 O   0  0  0  0  0  0  0  0  0  0  0  0
   -9.0424   -1.1230    2.2817 C   0  0  2  0  0  0  0  0  0  0  0  0
   -9.0263   -1.0347    3.7661 C   0  0  0  0  0  0  0  0  0  0  0  0
   -7.8271   -0.5333    1.7138 N   0  0  0  0  0  0  0  0  0  0  0  0
   -7.3319   -1.0589    0.4838 C   0  0  0  0  0  0  0  0  0  0  0  0
   -8.1188   -1.9958    0.0104 O   0  0  0  0  0  0  0  0  0  0  0  0
   -6.1739   -0.7542   -0.2832 C   0  0  1  0  0  0  0  0  0  0  0  0
   -5.0650   -0.0698    0.2721 N   0  0  0  0  0  0  0  0  0  0  0  0
   -4.0927    0.6046   -0.6013 C   0  0  0  0  0  0  0  0  0  0  0  0
   -4.4247    0.4897   -1.8088 O   0  0  0  0  0  0  0  0  0  0  0  0
   -2.9230    1.2731   -0.0782 C   0  0  0  0  0  0  0  0  0  0  0  0
   -1.5561    0.9542   -0.5285 C   0  0  2  0  0  0  0  0  0  0  0  0
   -0.7303    1.8741    0.2413 O   0  0  0  0  0  0  0  0  0  0  0  0
   -1.0533    0.9798   -1.8844 C   0  0  2  0  0  0  0  0  0  0  0  0
   -1.7876    0.3150   -2.9808 C   0  0  0  0  0  0  0  0  0  0  0  0
   -2.0791   -1.1378   -2.8983 C   0  0  0  0  0  0  0  0  0  0  0  0
   -2.9129   -1.4472   -4.1683 C   0  0  0  0  0  0  0  0  0  0  0  0
   -0.8390   -1.9984   -3.0730 C   0  0  0  0  0  0  0  0  0  0  0  0
    0.4082    0.5962   -1.8564 N   0  0  0  0  0  0  0  0  0  0  0  0
    1.3029    1.0691   -2.8123 C   0  0  0  0  0  0  0  0  0  0  0  0
    0.6956    1.8256   -3.7292 O   0  0  0  0  0  0  0  0  0  0  0  0
    2.7072    0.9179   -3.0140 C   0  0  2  0  0  0  0  0  0  0  0  0
    3.0742   -0.2012   -4.0360 C   0  0  0  0  0  0  0  0  0  0  0  0
    2.6948   -1.5291   -3.5691 C   0  0  0  0  0  0  0  0  0  0  0  0
    2.7609   -2.6714   -4.4509 N   0  0  0  0  0  0  0  0  0  0  0  0
    2.2903   -1.7996   -2.4095 O   0  0  0  0  0  0  0  0  0  0  0  0
    3.5151    0.5701   -1.8463 N   0  0  0  0  0  0  0  0  0  0  0  0
    4.9339    0.6930   -1.9073 C   0  0  0  0  0  0  0  0  0  0  0  0
    5.3711    1.0977   -3.0572 O   0  0  0  0  0  0  0  0  0  0  0  0
    5.8932    0.4137   -0.8610 C   0  0  2  0  0  0  0  0  0  0  0  0
    5.9739    1.5866    0.1057 C   0  0  0  0  0  0  0  0  0  0  0  0
    6.3883    2.8894   -0.4427 C   0  0  0  0  0  0  0  0  0  0  0  0
    6.4183    3.8559    0.7664 C   0  0  0  0  0  0  0  0  0  0  0  0
    5.4909    3.5308   -1.4429 C   0  0  0  0  0  0  0  0  0  0  0  0
    7.2396    0.2018   -1.4359 N   0  0  0  0  0  0  0  0  0  0  0  0
    8.2766   -0.4441   -0.7603 C   0  0  0  0  0  0  0  0  0  0  0  0
    8.1276   -0.8496    0.4064 O   0  0  0  0  0  0  0  0  0  0  0  0
    9.6141   -0.6792   -1.4035 C   0  0  2  0  0  0  0  0  0  0  0  0
   10.6064   -1.0065   -0.5072 O   0  0  0  0  0  0  0  0  0  0  0  0
   11.1721   -2.1890   -0.1794 C   0  0  0  0  0  0  0  0  0  0  0  0
   10.7287   -3.2264   -0.7524 O   0  0  0  0  0  0  0  0  0  0  0  0
   12.2754   -2.3783    0.7982 C   0  0  1  0  0  0  0  0  0  0  0  0
   12.8101   -1.0887    1.1858 O   0  0  0  0  0  0  0  0  0  0  0  0
   14.1636   -0.8399    1.0647 C   0  0  0  0  0  0  0  0  0  0  0  0
   14.8567   -1.8171    0.6099 O   0  0  0  0  0  0  0  0  0  0  0  0
   14.8499    0.4069    1.3992 C   0  0  2  0  0  0  0  0  0  0  0  0
   15.8515    0.2344    2.5381 C   0  0  0  0  0  0  0  0  0  0  0  0
   16.4817    1.5766    2.7785 C   0  0  0  0  0  0  0  0  0  0  0  0
   16.9071   -0.7783    2.2268 C   0  0  0  0  0  0  0  0  0  0  0  0
   14.0154    1.5027    1.7408 N   0  0  0  0  0  0  0  0  0  0  0  0
   13.1219    1.3303    2.8280 C   0  0  0  0  0  0  0  0  0  0  0  0
   13.6213    2.3764    0.6917 C   0  0  0  0  0  0  0  0  0  0  0  0
   11.7938   -2.9997    2.0931 C   0  0  0  0  0  0  0  0  0  0  0  0
   10.7572   -2.1682    2.7735 C   0  0  0  0  0  0  0  0  0  0  0  0
   11.2803   -4.3931    1.9364 C   0  0  0  0  0  0  0  0  0  0  0  0
    9.9483    0.2367   -2.5148 C   0  0  0  0  0  0  0  0  0  0  0  0
    9.9999    1.6825   -2.1853 C   0  0  0  0  0  0  0  0  0  0  0  0
   11.3054   -0.2242   -3.0702 C   0  0  0  0  0  0  0  0  0  0  0  0
   -5.5765   -2.0704   -0.8776 C   0  0  1  0  0  0  0  0  0  0  0  0
   -4.7771   -2.8239    0.1175 C   0  0  0  0  0  0  0  0  0  0  0  0
   -6.6185   -2.8145   -1.4504 O   0  0  0  0  0  0  0  0  0  0  0  0
  -18.0452    2.8283    2.1864 H   0  0  0  0  0  0  0  0  0  0  0  0
  -17.7604    2.6771    0.4310 H   0  0  0  0  0  0  0  0  0  0  0  0
  -18.1345    1.2265    1.4426 H   0  0  0  0  0  0  0  0  0  0  0  0
  -14.0833    1.9561    4.0731 H   0  0  0  0  0  0  0  0  0  0  0  0
  -12.8700    3.8548    3.9466 H   0  0  0  0  0  0  0  0  0  0  0  0
  -14.1468    4.6091    2.8789 H   0  0  0  0  0  0  0  0  0  0  0  0
  -11.5284    3.2162    2.1915 H   0  0  0  0  0  0  0  0  0  0  0  0
  -12.4688    4.5189    1.2599 H   0  0  0  0  0  0  0  0  0  0  0  0
  -12.4597    2.0685    0.2951 H   0  0  0  0  0  0  0  0  0  0  0  0
  -14.0613    2.8978    0.5088 H   0  0  0  0  0  0  0  0  0  0  0  0
  -13.4827   -1.7906    1.7696 H   0  0  0  0  0  0  0  0  0  0  0  0
  -12.4606   -0.0468   -0.5678 H   0  0  0  0  0  0  0  0  0  0  0  0
  -12.4834   -1.8174   -0.3880 H   0  0  0  0  0  0  0  0  0  0  0  0
  -14.3166   -3.1688   -0.2049 H   0  0  0  0  0  0  0  0  0  0  0  0
  -16.6294   -3.5086   -0.8212 H   0  0  0  0  0  0  0  0  0  0  0  0
  -18.1026   -1.5749   -1.3519 H   0  0  0  0  0  0  0  0  0  0  0  0
  -17.1736    0.7313   -1.2633 H   0  0  0  0  0  0  0  0  0  0  0  0
  -14.8868    1.0606   -0.6880 H   0  0  0  0  0  0  0  0  0  0  0  0
  -12.4215   -3.1324    2.3943 H   0  0  0  0  0  0  0  0  0  0  0  0
  -10.6680   -3.2719    2.2489 H   0  0  0  0  0  0  0  0  0  0  0  0
  -11.4674   -2.4750    3.7199 H   0  0  0  0  0  0  0  0  0  0  0  0
   -9.0611   -2.2158    1.9662 H   0  0  0  0  0  0  0  0  0  0  0  0
  -10.0127   -0.6351    4.1192 H   0  0  0  0  0  0  0  0  0  0  0  0
   -8.9109   -2.0135    4.2855 H   0  0  0  0  0  0  0  0  0  0  0  0
   -8.2191   -0.3168    4.0600 H   0  0  0  0  0  0  0  0  0  0  0  0
   -7.3166    0.2341    2.1587 H   0  0  0  0  0  0  0  0  0  0  0  0
   -6.4447   -0.2066   -1.2433 H   0  0  0  0  0  0  0  0  0  0  0  0
   -4.8819   -0.0049    1.2885 H   0  0  0  0  0  0  0  0  0  0  0  0
   -3.1337    2.3925   -0.1717 H   0  0  0  0  0  0  0  0  0  0  0  0
   -2.9352    1.0976    1.0637 H   0  0  0  0  0  0  0  0  0  0  0  0
   -1.3327   -0.0739   -0.0182 H   0  0  0  0  0  0  0  0  0  0  0  0
   -0.6876    1.5580    1.1659 H   0  0  0  0  0  0  0  0  0  0  0  0
   -0.9540    2.0686   -2.2377 H   0  0  0  0  0  0  0  0  0  0  0  0
   -0.9934    0.3366   -3.8708 H   0  0  0  0  0  0  0  0  0  0  0  0
   -2.5924    0.8733   -3.4341 H   0  0  0  0  0  0  0  0  0  0  0  0
   -2.6354   -1.5135   -2.0627 H   0  0  0  0  0  0  0  0  0  0  0  0
   -2.2743   -1.1994   -5.0409 H   0  0  0  0  0  0  0  0  0  0  0  0
   -3.8664   -0.8794   -4.1311 H   0  0  0  0  0  0  0  0  0  0  0  0
   -3.0791   -2.5412   -4.1775 H   0  0  0  0  0  0  0  0  0  0  0  0
   -0.4336   -2.4192   -2.1701 H   0  0  0  0  0  0  0  0  0  0  0  0
   -0.0708   -1.3673   -3.6209 H   0  0  0  0  0  0  0  0  0  0  0  0
   -1.0402   -2.8251   -3.7757 H   0  0  0  0  0  0  0  0  0  0  0  0
    0.7692   -0.0230   -1.1099 H   0  0  0  0  0  0  0  0  0  0  0  0
    3.2163    1.7996   -3.4821 H   0  0  0  0  0  0  0  0  0  0  0  0
    4.0733   -0.0965   -4.4314 H   0  0  0  0  0  0  0  0  0  0  0  0
    2.3767    0.0296   -4.9060 H   0  0  0  0  0  0  0  0  0  0  0  0
    3.6442   -3.0576   -4.8162 H   0  0  0  0  0  0  0  0  0  0  0  0
    1.8593   -3.1079   -4.7069 H   0  0  0  0  0  0  0  0  0  0  0  0
    3.0669    0.2486   -0.9981 H   0  0  0  0  0  0  0  0  0  0  0  0
    5.5850   -0.4369   -0.2283 H   0  0  0  0  0  0  0  0  0  0  0  0
    6.7257    1.3266    0.9158 H   0  0  0  0  0  0  0  0  0  0  0  0
    5.0265    1.7002    0.6539 H   0  0  0  0  0  0  0  0  0  0  0  0
    7.4255    2.9549   -0.8422 H   0  0  0  0  0  0  0  0  0  0  0  0
    7.1756    3.5463    1.4980 H   0  0  0  0  0  0  0  0  0  0  0  0
    6.5774    4.8810    0.3717 H   0  0  0  0  0  0  0  0  0  0  0  0
    5.4381    3.8647    1.2765 H   0  0  0  0  0  0  0  0  0  0  0  0
    5.9576    3.6200   -2.4533 H   0  0  0  0  0  0  0  0  0  0  0  0
    5.3590    4.6233   -1.1377 H   0  0  0  0  0  0  0  0  0  0  0  0
    4.4685    3.1378   -1.4438 H   0  0  0  0  0  0  0  0  0  0  0  0
    7.3868    0.5652   -2.3945 H   0  0  0  0  0  0  0  0  0  0  0  0
    9.3965   -1.6985   -1.9324 H   0  0  0  0  0  0  0  0  0  0  0  0
   13.0836   -3.0054    0.4172 H   0  0  0  0  0  0  0  0  0  0  0  0
   15.4694    0.7246    0.5125 H   0  0  0  0  0  0  0  0  0  0  0  0
   15.3098   -0.0901    3.4623 H   0  0  0  0  0  0  0  0  0  0  0  0
   16.0081    2.3541    2.1446 H   0  0  0  0  0  0  0  0  0  0  0  0
   17.5730    1.5834    2.4785 H   0  0  0  0  0  0  0  0  0  0  0  0
   16.3936    1.8985    3.8480 H   0  0  0  0  0  0  0  0  0  0  0  0
   16.7969   -1.6792    2.8492 H   0  0  0  0  0  0  0  0  0  0  0  0
   16.9783   -1.0530    1.1572 H   0  0  0  0  0  0  0  0  0  0  0  0
   17.9150   -0.3461    2.4699 H   0  0  0  0  0  0  0  0  0  0  0  0
   12.0495    1.3490    2.5286 H   0  0  0  0  0  0  0  0  0  0  0  0
   13.3099    0.3820    3.4053 H   0  0  0  0  0  0  0  0  0  0  0  0
   13.2922    2.1386    3.5857 H   0  0  0  0  0  0  0  0  0  0  0  0
   14.4927    2.8865    0.1911 H   0  0  0  0  0  0  0  0  0  0  0  0
   13.0151    1.9274   -0.1104 H   0  0  0  0  0  0  0  0  0  0  0  0
   13.0507    3.2361    1.1572 H   0  0  0  0  0  0  0  0  0  0  0  0
   12.6920   -3.0553    2.7599 H   0  0  0  0  0  0  0  0  0  0  0  0
    9.7855   -2.6923    2.9153 H   0  0  0  0  0  0  0  0  0  0  0  0
   10.5879   -1.1761    2.2509 H   0  0  0  0  0  0  0  0  0  0  0  0
   11.1122   -1.9007    3.7890 H   0  0  0  0  0  0  0  0  0  0  0  0
   11.6508   -4.9156    1.0567 H   0  0  0  0  0  0  0  0  0  0  0  0
   10.1580   -4.4112    1.9597 H   0  0  0  0  0  0  0  0  0  0  0  0
   11.5935   -5.0316    2.8203 H   0  0  0  0  0  0  0  0  0  0  0  0
    9.2179    0.0547   -3.3551 H   0  0  0  0  0  0  0  0  0  0  0  0
    9.3696    2.2597   -2.9098 H   0  0  0  0  0  0  0  0  0  0  0  0
   11.0468    2.0606   -2.3797 H   0  0  0  0  0  0  0  0  0  0  0  0
    9.6356    1.9724   -1.1914 H   0  0  0  0  0  0  0  0  0  0  0  0
   12.0923    0.5391   -2.9049 H   0  0  0  0  0  0  0  0  0  0  0  0
   11.6624   -1.1467   -2.5706 H   0  0  0  0  0  0  0  0  0  0  0  0
   11.2528   -0.4768   -4.1477 H   0  0  0  0  0  0  0  0  0  0  0  0
   -4.9466   -1.7504   -1.7147 H   0  0  0  0  0  0  0  0  0  0  0  0
   -3.9334   -3.3485   -0.4019 H   0  0  0  0  0  0  0  0  0  0  0  0
   -5.3237   -3.6384    0.6362 H   0  0  0  0  0  0  0  0  0  0  0  0
   -4.2767   -2.1658    0.8671 H   0  0  0  0  0  0  0  0  0  0  0  0
   -7.0838   -2.1816   -2.0647 H   0  0  0  0  0  0  0  0  0  0  0  0
  1  2  1  0
  2  3  1  0
  3  4  2  0
  3  5  1  0
  5  6  1  0
  6  7  1  0
  7  8  1  0
  8  9  1  0
  9 10  1  0
 10 11  2  0
 10 12  1  0
 12 13  1  0
 13 14  1  0
 14 15  2  0
 15 16  1  0
 16 17  2  0
 17 18  1  0
 18 19  2  0
 12 20  1  0
 20 21  1  0
 20 22  1  0
 22 23  2  0
 22 24  1  0
 24 25  1  0
 24 26  1  0
 26 27  1  0
 27 28  2  0
 27 29  1  0
 29 30  1  0
 30 31  1  0
 31 32  2  0
 31 33  1  0
 33 34  1  0
 34 35  1  0
 34 36  1  0
 36 37  1  0
 37 38  1  0
 38 39  1  0
 38 40  1  0
 36 41  1  0
 41 42  1  0
 42 43  2  0
 42 44  1  0
 44 45  1  0
 45 46  1  0
 46 47  1  0
 46 48  2  0
 44 49  1  0
 49 50  1  0
 50 51  2  0
 50 52  1  0
 52 53  1  0
 53 54  1  0
 54 55  1  0
 54 56  1  0
 52 57  1  0
 57 58  1  0
 58 59  2  0
 58 60  1  0
 60 61  1  0
 61 62  1  0
 62 63  2  0
 62 64  1  0
 64 65  1  0
 65 66  1  0
 66 67  2  0
 66 68  1  0
 68 69  1  0
 69 70  1  0
 69 71  1  0
 68 72  1  0
 72 73  1  0
 72 74  1  0
 64 75  1  0
 75 76  1  0
 75 77  1  0
 60 78  1  0
 78 79  1  0
 78 80  1  0
 29 81  1  0
 81 82  1  0
 81 83  1  0
  9  5  1  0
 19 14  1  0
  1 84  1  0
  1 85  1  0
  1 86  1  0
  5 87  1  1
  6 88  1  0
  6 89  1  0
  7 90  1  0
  7 91  1  0
  8 92  1  0
  8 93  1  0
 12 94  1  1
 13 95  1  0
 13 96  1  0
 15 97  1  0
 16 98  1  0
 17 99  1  0
 18100  1  0
 19101  1  0
 21102  1  0
 21103  1  0
 21104  1  0
 24105  1  1
 25106  1  0
 25107  1  0
 25108  1  0
 26109  1  0
 29110  1  6
 30111  1  0
 33112  1  0
 33113  1  0
 34114  1  1
 35115  1  0
 36116  1  6
 37117  1  0
 37118  1  0
 38119  1  0
 39120  1  0
 39121  1  0
 39122  1  0
 40123  1  0
 40124  1  0
 40125  1  0
 41126  1  0
 44127  1  6
 45128  1  0
 45129  1  0
 47130  1  0
 47131  1  0
 49132  1  0
 52133  1  1
 53134  1  0
 53135  1  0
 54136  1  0
 55137  1  0
 55138  1  0
 55139  1  0
 56140  1  0
 56141  1  0
 56142  1  0
 57143  1  0
 60144  1  6
 64145  1  6
 68146  1  6
 69147  1  0
 70148  1  0
 70149  1  0
 70150  1  0
 71151  1  0
 71152  1  0
 71153  1  0
 73154  1  0
 73155  1  0
 73156  1  0
 74157  1  0
 74158  1  0
 74159  1  0
 75160  1  0
 76161  1  0
 76162  1  0
 76163  1  0
 77164  1  0
 77165  1  0
 77166  1  0
 78167  1  0
 79168  1  0
 79169  1  0
 79170  1  0
 80171  1  0
 80172  1  0
 80173  1  0
 81174  1  6
 82175  1  0
 82176  1  0
 82177  1  0
 83178  1  0
M  END
$$$$
