
     RDKit          3D

 45 48  0  0  0  0  0  0  0  0999 V2000
   -4.3469    0.8690    1.8743 O   0  0  0  0  0  0  0  0  0  0  0  0
   -3.8434    0.4754    0.7714 C   0  0  0  0  0  0  0  0  0  0  0  0
   -4.7103   -0.2152   -0.0599 O   0  0  0  0  0  0  0  0  0  0  0  0
   -6.0559   -0.4789    0.2630 C   0  0  0  0  0  0  0  0  0  0  0  0
   -6.8984    0.1405   -0.8561 C   0  0  0  0  0  0  0  0  0  0  0  0
   -6.4959   -0.4924   -2.0334 O   0  0  0  0  0  0  0  0  0  0  0  0
   -6.3669   -1.9623    0.2499 C   0  0  0  0  0  0  0  0  0  0  0  0
   -7.7018   -2.1073    0.5774 F   0  0  0  0  0  0  0  0  0  0  0  0
   -6.1590   -2.4681   -1.0033 F   0  0  0  0  0  0  0  0  0  0  0  0
   -5.6415   -2.6422    1.2125 F   0  0  0  0  0  0  0  0  0  0  0  0
   -2.5040    0.7480    0.4703 N   0  0  0  0  0  0  0  0  0  0  0  0
   -1.5703    1.4556    1.2931 C   0  0  0  0  0  0  0  0  0  0  0  0
   -0.3213    0.6069    1.1697 C   0  0  1  0  0  0  0  0  0  0  0  0
   -0.4924   -0.1621   -0.1589 C   0  0  1  0  0  0  0  0  0  0  0  0
   -1.8151    0.3658   -0.7267 C   0  0  0  0  0  0  0  0  0  0  0  0
    0.5997    0.8181    0.0470 C   0  0  2  0  0  0  0  0  0  0  0  0
    1.9696    0.2462    0.1729 C   0  0  0  0  0  0  0  0  0  0  0  0
    2.2421   -0.9335    0.8400 C   0  0  0  0  0  0  0  0  0  0  0  0
    3.6264   -1.1002    0.7195 C   0  0  0  0  0  0  0  0  0  0  0  0
    4.1313   -0.0705    0.0187 N   0  0  0  0  0  0  0  0  0  0  0  0
    5.5349    0.0695   -0.2896 C   0  0  0  0  0  0  0  0  0  0  0  0
    6.0318    1.3237   -0.5755 C   0  0  0  0  0  0  0  0  0  0  0  0
    7.3613    1.5217   -0.8771 C   0  0  0  0  0  0  0  0  0  0  0  0
    8.2168    0.4435   -0.8943 C   0  0  0  0  0  0  0  0  0  0  0  0
    9.5382    0.6143   -1.1903 F   0  0  0  0  0  0  0  0  0  0  0  0
    7.7063   -0.8115   -0.6055 C   0  0  0  0  0  0  0  0  0  0  0  0
    6.3837   -0.9931   -0.3077 C   0  0  0  0  0  0  0  0  0  0  0  0
    3.1322    0.7116   -0.2929 N   0  0  0  0  0  0  0  0  0  0  0  0
   -6.3383   -0.0725    1.2520 H   0  0  0  0  0  0  0  0  0  0  0  0
   -6.6159    1.2027   -0.9375 H   0  0  0  0  0  0  0  0  0  0  0  0
   -7.9803   -0.0139   -0.6542 H   0  0  0  0  0  0  0  0  0  0  0  0
   -6.6500    0.0641   -2.8363 H   0  0  0  0  0  0  0  0  0  0  0  0
   -1.3838    2.5006    0.9278 H   0  0  0  0  0  0  0  0  0  0  0  0
   -1.9177    1.4964    2.3648 H   0  0  0  0  0  0  0  0  0  0  0  0
   -0.0399   -0.0103    2.0474 H   0  0  0  0  0  0  0  0  0  0  0  0
   -0.3300   -1.2492   -0.1300 H   0  0  0  0  0  0  0  0  0  0  0  0
   -2.3257   -0.4228   -1.3089 H   0  0  0  0  0  0  0  0  0  0  0  0
   -1.6222    1.2685   -1.3512 H   0  0  0  0  0  0  0  0  0  0  0  0
    0.4952    1.7738   -0.5119 H   0  0  0  0  0  0  0  0  0  0  0  0
    1.5756   -1.6114    1.3546 H   0  0  0  0  0  0  0  0  0  0  0  0
    4.1653   -1.9393    1.1389 H   0  0  0  0  0  0  0  0  0  0  0  0
    5.3186    2.1613   -0.5522 H   0  0  0  0  0  0  0  0  0  0  0  0
    7.7368    2.5297   -1.1021 H   0  0  0  0  0  0  0  0  0  0  0  0
    8.3852   -1.6699   -0.6187 H   0  0  0  0  0  0  0  0  0  0  0  0
    5.9759   -1.9801   -0.0792 H   0  0  0  0  0  0  0  0  0  0  0  0
  1  2  2  0
  2  3  1  0
  3  4  1  0
  4  5  1  0
  5  6  1  0
  4  7  1  0
  7  8  1  0
  7  9  1  0
  7 10  1  0
  2 11  1  0
 11 12  1  0
 12 13  1  0
 13 14  1  0
 14 15  1  0
 14 16  1  0
 16 17  1  0
 17 18  1  0
 18 19  2  0
 19 20  1  0
 20 21  1  0
 21 22  2  0
 22 23  1  0
 23 24  2  0
 24 25  1  0
 24 26  1  0
 26 27  2  0
 20 28  1  0
 15 11  1  0
 28 17  2  0
 16 13  1  0
 27 21  1  0
  4 29  1  0
  5 30  1  0
  5 31  1  0
  6 32  1  0
 12 33  1  0
 12 34  1  0
 13 35  1  1
 14 36  1  1
 15 37  1  0
 15 38  1  0
 16 39  1  6
 18 40  1  0
 19 41  1  0
 22 42  1  0
 23 43  1  0
 26 44  1  0
 27 45  1  0
M  END
$$$$
