
     RDKit          3D

 64 67  0  0  0  0  0  0  0  0999 V2000
    3.8452   -2.7011   -2.9465 C   0  0  0  0  0  0  0  0  0  0  0  0
    2.5031   -2.8866   -2.2643 C   0  0  0  0  0  0  0  0  0  0  0  0
    2.3166   -1.8677   -1.2710 O   0  0  0  0  0  0  0  0  0  0  0  0
    1.1363   -1.8822   -0.5429 C   0  0  0  0  0  0  0  0  0  0  0  0
    0.1666   -2.8391   -0.7574 C   0  0  0  0  0  0  0  0  0  0  0  0
   -1.0102   -2.8749   -0.0497 C   0  0  0  0  0  0  0  0  0  0  0  0
   -1.2320   -1.9232    0.9078 C   0  0  0  0  0  0  0  0  0  0  0  0
   -2.4896   -1.9199    1.6993 C   0  0  0  0  0  0  0  0  0  0  0  0
   -3.5258   -1.0859    0.9905 C   0  0  1  0  0  0  0  0  0  0  0  0
   -4.8273   -1.0256    1.7194 C   0  0  0  0  0  0  0  0  0  0  0  0
   -5.2192    0.4108    2.0539 C   0  0  0  0  0  0  0  0  0  0  0  0
   -5.3261    1.2053    0.7785 C   0  0  2  0  0  0  0  0  0  0  0  0
   -6.6159    0.9749    0.1563 C   0  0  0  0  0  0  0  0  0  0  0  0
   -7.4390    0.2008    0.7012 O   0  0  0  0  0  0  0  0  0  0  0  0
   -6.9728    1.6062   -1.0602 N   0  0  0  0  0  0  0  0  0  0  0  0
   -8.1690    1.3944   -1.6404 O   0  0  0  0  0  0  0  0  0  0  0  0
   -4.1414    0.9900   -0.1123 C   0  0  0  0  0  0  0  0  0  0  0  0
   -3.0471    0.3219    0.7319 C   0  0  0  0  0  0  0  0  0  0  0  0
   -0.2626   -0.9628    1.1254 C   0  0  0  0  0  0  0  0  0  0  0  0
    0.9173   -0.9216    0.4205 C   0  0  0  0  0  0  0  0  0  0  0  0
    1.9624    0.0919    0.6364 C   0  0  0  0  0  0  0  0  0  0  0  0
    3.0965    0.0713   -0.1067 N   0  0  0  0  0  0  0  0  0  0  0  0
    4.0575    0.9904    0.0803 C   0  0  0  0  0  0  0  0  0  0  0  0
    5.3008    1.2224   -0.5118 C   0  0  0  0  0  0  0  0  0  0  0  0
    5.8822    0.3979   -1.6081 C   0  0  0  0  0  0  0  0  0  0  0  0
    5.2007    0.7450   -2.9360 C   0  0  0  0  0  0  0  0  0  0  0  0
    5.8347    2.3029    0.0901 N   0  0  0  0  0  0  0  0  0  0  0  0
    5.0355    2.7724    1.0102 N   0  0  0  0  0  0  0  0  0  0  0  0
    5.3308    3.9308    1.8322 C   0  0  0  0  0  0  0  0  0  0  0  0
    3.9423    1.9911    1.0267 C   0  0  0  0  0  0  0  0  0  0  0  0
    2.7994    2.0094    1.7734 C   0  0  0  0  0  0  0  0  0  0  0  0
    2.6725    2.9049    2.6356 O   0  0  0  0  0  0  0  0  0  0  0  0
    1.8522    1.0652    1.5555 N   0  0  0  0  0  0  0  0  0  0  0  0
    3.7996   -1.7277   -3.4721 H   0  0  0  0  0  0  0  0  0  0  0  0
    4.6265   -2.7580   -2.1681 H   0  0  0  0  0  0  0  0  0  0  0  0
    4.0100   -3.5130   -3.6830 H   0  0  0  0  0  0  0  0  0  0  0  0
    2.3687   -3.8844   -1.8459 H   0  0  0  0  0  0  0  0  0  0  0  0
    1.7336   -2.7207   -3.0501 H   0  0  0  0  0  0  0  0  0  0  0  0
    0.3723   -3.5889   -1.5309 H   0  0  0  0  0  0  0  0  0  0  0  0
   -1.7141   -3.6605   -0.2834 H   0  0  0  0  0  0  0  0  0  0  0  0
   -2.2539   -1.5435    2.7094 H   0  0  0  0  0  0  0  0  0  0  0  0
   -2.8373   -2.9626    1.7627 H   0  0  0  0  0  0  0  0  0  0  0  0
   -3.6964   -1.5603   -0.0066 H   0  0  0  0  0  0  0  0  0  0  0  0
   -4.7998   -1.6164    2.6547 H   0  0  0  0  0  0  0  0  0  0  0  0
   -5.6771   -1.4388    1.1154 H   0  0  0  0  0  0  0  0  0  0  0  0
   -6.2504    0.3447    2.4756 H   0  0  0  0  0  0  0  0  0  0  0  0
   -4.5869    0.8634    2.8167 H   0  0  0  0  0  0  0  0  0  0  0  0
   -5.2939    2.2914    1.0900 H   0  0  0  0  0  0  0  0  0  0  0  0
   -6.2999    2.2357   -1.5009 H   0  0  0  0  0  0  0  0  0  0  0  0
   -8.7241    0.8715   -1.0154 H   0  0  0  0  0  0  0  0  0  0  0  0
   -4.3225    0.3199   -0.9543 H   0  0  0  0  0  0  0  0  0  0  0  0
   -3.7171    1.9363   -0.4863 H   0  0  0  0  0  0  0  0  0  0  0  0
   -2.1340    0.3599    0.1012 H   0  0  0  0  0  0  0  0  0  0  0  0
   -2.8355    0.8906    1.6384 H   0  0  0  0  0  0  0  0  0  0  0  0
   -0.4452   -0.1958    1.8996 H   0  0  0  0  0  0  0  0  0  0  0  0
    6.9455    0.6563   -1.7178 H   0  0  0  0  0  0  0  0  0  0  0  0
    5.8123   -0.6832   -1.4155 H   0  0  0  0  0  0  0  0  0  0  0  0
    5.4804   -0.0033   -3.7028 H   0  0  0  0  0  0  0  0  0  0  0  0
    5.5158    1.7665   -3.2422 H   0  0  0  0  0  0  0  0  0  0  0  0
    4.1028    0.7237   -2.7218 H   0  0  0  0  0  0  0  0  0  0  0  0
    5.0293    4.8776    1.3527 H   0  0  0  0  0  0  0  0  0  0  0  0
    4.7886    3.8853    2.8101 H   0  0  0  0  0  0  0  0  0  0  0  0
    6.4247    3.9880    2.0917 H   0  0  0  0  0  0  0  0  0  0  0  0
    1.0035    1.1370    2.1610 H   0  0  0  0  0  0  0  0  0  0  0  0
  1  2  1  0
  2  3  1  0
  3  4  1  0
  4  5  2  0
  5  6  1  0
  6  7  2  0
  7  8  1  0
  8  9  1  0
  9 10  1  0
 10 11  1  0
 11 12  1  0
 12 13  1  0
 13 14  2  0
 13 15  1  0
 15 16  1  0
 12 17  1  0
 17 18  1  0
  7 19  1  0
 19 20  2  0
 20 21  1  0
 21 22  2  0
 22 23  1  0
 23 24  1  0
 24 25  1  0
 25 26  1  0
 24 27  2  0
 27 28  1  0
 28 29  1  0
 28 30  1  0
 30 31  1  0
 31 32  2  0
 31 33  1  0
 20  4  1  0
 33 21  1  0
 18  9  1  0
 30 23  2  0
  1 34  1  0
  1 35  1  0
  1 36  1  0
  2 37  1  0
  2 38  1  0
  5 39  1  0
  6 40  1  0
  8 41  1  0
  8 42  1  0
  9 43  1  6
 10 44  1  0
 10 45  1  0
 11 46  1  0
 11 47  1  0
 12 48  1  1
 15 49  1  0
 16 50  1  0
 17 51  1  0
 17 52  1  0
 18 53  1  0
 18 54  1  0
 19 55  1  0
 25 56  1  0
 25 57  1  0
 26 58  1  0
 26 59  1  0
 26 60  1  0
 29 61  1  0
 29 62  1  0
 29 63  1  0
 33 64  1  0
M  END
$$$$
