
     RDKit          3D

 53 55  0  0  0  0  0  0  0  0999 V2000
    8.8543   -1.0866    0.9497 O   0  0  0  0  0  0  0  0  0  0  0  0
    8.0811   -0.5022    0.1518 C   0  0  0  0  0  0  0  0  0  0  0  0
    6.6771   -0.3683    0.4826 C   0  0  0  0  0  0  0  0  0  0  0  0
    5.7869    0.2445   -0.2690 C   0  0  0  0  0  0  0  0  0  0  0  0
    4.3755    0.3869    0.0375 C   0  0  0  0  0  0  0  0  0  0  0  0
    3.6084    1.1194   -0.8517 C   0  0  0  0  0  0  0  0  0  0  0  0
    2.2544    1.2719   -0.6580 C   0  0  0  0  0  0  0  0  0  0  0  0
    1.6237    0.6968    0.4280 C   0  0  0  0  0  0  0  0  0  0  0  0
    0.1992    0.9252    0.6335 C   0  0  0  0  0  0  0  0  0  0  0  0
   -0.7304    0.2788   -0.2347 N   0  0  0  0  0  0  0  0  0  0  0  0
   -0.6914   -1.1466   -0.2672 C   0  0  0  0  0  0  0  0  0  0  0  0
    0.4338   -1.7904   -1.0031 C   0  0  0  0  0  0  0  0  0  0  0  0
    0.3360   -3.2081   -0.9388 O   0  0  0  0  0  0  0  0  0  0  0  0
   -2.0559    0.7266    0.1527 C   0  0  0  0  0  0  0  0  0  0  0  0
   -3.0157    0.5604   -0.9918 C   0  0  0  0  0  0  0  0  0  0  0  0
   -4.4040    0.9869   -0.6124 C   0  0  0  0  0  0  0  0  0  0  0  0
   -5.0023    2.2249   -0.8802 C   0  0  0  0  0  0  0  0  0  0  0  0
   -6.2465    2.2298   -0.3584 N   0  0  0  0  0  0  0  0  0  0  0  0
   -6.4510    1.0405    0.2266 C   0  0  0  0  0  0  0  0  0  0  0  0
   -7.5567    0.5319    0.8927 C   0  0  0  0  0  0  0  0  0  0  0  0
   -7.5747   -0.7431    1.4205 C   0  0  0  0  0  0  0  0  0  0  0  0
   -6.4375   -1.5081    1.2627 C   0  0  0  0  0  0  0  0  0  0  0  0
   -5.2948   -1.0446    0.6006 C   0  0  0  0  0  0  0  0  0  0  0  0
   -5.3341    0.2418    0.0910 C   0  0  0  0  0  0  0  0  0  0  0  0
    2.3955   -0.0290    1.3069 C   0  0  0  0  0  0  0  0  0  0  0  0
    3.7713   -0.1852    1.1157 C   0  0  0  0  0  0  0  0  0  0  0  0
    8.6414   -0.0055   -1.0454 N   0  0  0  0  0  0  0  0  0  0  0  0
    9.9648   -0.1470   -1.3351 O   0  0  0  0  0  0  0  0  0  0  0  0
    6.2812   -0.7870    1.4306 H   0  0  0  0  0  0  0  0  0  0  0  0
    6.1960    0.6729   -1.2091 H   0  0  0  0  0  0  0  0  0  0  0  0
    4.0637    1.5825   -1.7270 H   0  0  0  0  0  0  0  0  0  0  0  0
    1.6617    1.8551   -1.3705 H   0  0  0  0  0  0  0  0  0  0  0  0
   -0.1047    0.6620    1.7056 H   0  0  0  0  0  0  0  0  0  0  0  0
   -0.0629    2.0307    0.5960 H   0  0  0  0  0  0  0  0  0  0  0  0
   -1.6301   -1.5628   -0.7074 H   0  0  0  0  0  0  0  0  0  0  0  0
   -0.7017   -1.5795    0.7748 H   0  0  0  0  0  0  0  0  0  0  0  0
    0.3019   -1.6211   -2.1390 H   0  0  0  0  0  0  0  0  0  0  0  0
    1.4378   -1.4639   -0.8046 H   0  0  0  0  0  0  0  0  0  0  0  0
    0.7834   -3.4826   -0.0770 H   0  0  0  0  0  0  0  0  0  0  0  0
   -2.0729    1.7449    0.5699 H   0  0  0  0  0  0  0  0  0  0  0  0
   -2.3523    0.0247    1.0053 H   0  0  0  0  0  0  0  0  0  0  0  0
   -3.0895   -0.4795   -1.3015 H   0  0  0  0  0  0  0  0  0  0  0  0
   -2.6464    1.2280   -1.8115 H   0  0  0  0  0  0  0  0  0  0  0  0
   -4.5452    3.0474   -1.4141 H   0  0  0  0  0  0  0  0  0  0  0  0
   -6.9258    3.0222   -0.4010 H   0  0  0  0  0  0  0  0  0  0  0  0
   -8.4240    1.1877    0.9822 H   0  0  0  0  0  0  0  0  0  0  0  0
   -8.4518   -1.0951    1.9215 H   0  0  0  0  0  0  0  0  0  0  0  0
   -6.3983   -2.5271    1.6516 H   0  0  0  0  0  0  0  0  0  0  0  0
   -4.4491   -1.6858    0.5092 H   0  0  0  0  0  0  0  0  0  0  0  0
    1.9787   -0.4984    2.1839 H   0  0  0  0  0  0  0  0  0  0  0  0
    4.3333   -0.7652    1.8307 H   0  0  0  0  0  0  0  0  0  0  0  0
    8.0788    0.4776   -1.7402 H   0  0  0  0  0  0  0  0  0  0  0  0
   10.5305    0.4269   -0.7651 H   0  0  0  0  0  0  0  0  0  0  0  0
  1  2  2  0
  2  3  1  0
  3  4  2  0
  4  5  1  0
  5  6  2  0
  6  7  1  0
  7  8  2  0
  8  9  1  0
  9 10  1  0
 10 11  1  0
 11 12  1  0
 12 13  1  0
 10 14  1  0
 14 15  1  0
 15 16  1  0
 16 17  2  0
 17 18  1  0
 18 19  1  0
 19 20  2  0
 20 21  1  0
 21 22  2  0
 22 23  1  0
 23 24  2  0
  8 25  1  0
 25 26  2  0
  2 27  1  0
 27 28  1  0
 26  5  1  0
 24 16  1  0
 24 19  1  0
  3 29  1  0
  4 30  1  0
  6 31  1  0
  7 32  1  0
  9 33  1  0
  9 34  1  0
 11 35  1  0
 11 36  1  0
 12 37  1  0
 12 38  1  0
 13 39  1  0
 14 40  1  0
 14 41  1  0
 15 42  1  0
 15 43  1  0
 17 44  1  0
 18 45  1  0
 20 46  1  0
 21 47  1  0
 22 48  1  0
 23 49  1  0
 25 50  1  0
 26 51  1  0
 27 52  1  0
 28 53  1  0
M  END
$$$$
