
     RDKit          3D

 53 55  0  0  0  0  0  0  0  0999 V2000
    3.6668   -2.4321    0.0446 C   0  0  0  0  0  0  0  0  0  0  0  0
    4.1239   -1.0272    0.2083 C   0  0  0  0  0  0  0  0  0  0  0  0
    5.4138   -0.6991   -0.0123 N   0  0  0  0  0  0  0  0  0  0  0  0
    5.8725    0.5558    0.1228 C   0  0  0  0  0  0  0  0  0  0  0  0
    7.1944    0.9185   -0.0982 O   0  0  0  0  0  0  0  0  0  0  0  0
    8.0925   -0.1045   -0.4866 C   0  0  0  0  0  0  0  0  0  0  0  0
    9.4892    0.4436   -0.6892 C   0  0  0  0  0  0  0  0  0  0  0  0
   10.3086   -0.5920   -1.0627 F   0  0  0  0  0  0  0  0  0  0  0  0
    9.4758    1.3512   -1.7276 F   0  0  0  0  0  0  0  0  0  0  0  0
    9.9167    0.9918    0.4974 F   0  0  0  0  0  0  0  0  0  0  0  0
    4.9792    1.5440    0.5037 C   0  0  0  0  0  0  0  0  0  0  0  0
    3.6936    1.2165    0.7234 N   0  0  0  0  0  0  0  0  0  0  0  0
    3.2272   -0.0513    0.5875 C   0  0  0  0  0  0  0  0  0  0  0  0
    1.8234   -0.3519    0.8382 C   0  0  0  0  0  0  0  0  0  0  0  0
    1.4313   -1.5399    0.7011 O   0  0  0  0  0  0  0  0  0  0  0  0
    0.9480    0.6964    1.2264 N   0  0  0  0  0  0  0  0  0  0  0  0
   -0.4120    0.3705    1.4628 C   0  0  0  0  0  0  0  0  0  0  0  0
   -0.8079   -0.0008    2.7270 C   0  0  0  0  0  0  0  0  0  0  0  0
   -2.1139   -0.3250    3.0032 C   0  0  0  0  0  0  0  0  0  0  0  0
   -2.4911   -0.6891    4.2525 F   0  0  0  0  0  0  0  0  0  0  0  0
   -3.0562   -0.2775    1.9848 C   0  0  0  0  0  0  0  0  0  0  0  0
   -4.3346   -0.5958    2.2562 F   0  0  0  0  0  0  0  0  0  0  0  0
   -2.6871    0.0952    0.6912 C   0  0  0  0  0  0  0  0  0  0  0  0
   -3.7237    0.1435   -0.4002 C   0  0  2  0  0  0  0  0  0  0  0  0
   -2.9513    0.4484   -1.6961 C   0  0  0  0  0  0  0  0  0  0  0  0
   -4.6952    1.2560   -0.1565 C   0  0  0  0  0  0  0  0  0  0  0  0
   -6.1253    0.7984   -0.0942 C   0  0  1  0  0  0  0  0  0  0  0  0
   -6.9896    1.9612   -0.6001 C   0  0  0  0  0  0  0  0  0  0  0  0
   -8.2993    1.5558   -0.5483 F   0  0  0  0  0  0  0  0  0  0  0  0
   -6.5716    2.1722   -1.9168 F   0  0  0  0  0  0  0  0  0  0  0  0
   -6.7780    3.0750    0.1768 F   0  0  0  0  0  0  0  0  0  0  0  0
   -6.3862   -0.3031   -0.9744 O   0  0  0  0  0  0  0  0  0  0  0  0
   -5.5348   -1.4228   -0.8434 C   0  0  0  0  0  0  0  0  0  0  0  0
   -6.0277   -2.7524   -1.0020 N   0  0  0  0  0  0  0  0  0  0  0  0
   -4.3145   -1.1399   -0.5767 N   0  0  0  0  0  0  0  0  0  0  0  0
   -1.3913    0.4052    0.4680 C   0  0  0  0  0  0  0  0  0  0  0  0
    4.5509   -3.0691   -0.2473 H   0  0  0  0  0  0  0  0  0  0  0  0
    2.9358   -2.5606   -0.7666 H   0  0  0  0  0  0  0  0  0  0  0  0
    3.3291   -2.8654    1.0182 H   0  0  0  0  0  0  0  0  0  0  0  0
    8.0769   -0.9769    0.1832 H   0  0  0  0  0  0  0  0  0  0  0  0
    7.7630   -0.4855   -1.4915 H   0  0  0  0  0  0  0  0  0  0  0  0
    5.3420    2.5606    0.6151 H   0  0  0  0  0  0  0  0  0  0  0  0
    1.3511    1.6509    1.3173 H   0  0  0  0  0  0  0  0  0  0  0  0
   -0.0810   -0.0452    3.5461 H   0  0  0  0  0  0  0  0  0  0  0  0
   -2.4768    1.4451   -1.6622 H   0  0  0  0  0  0  0  0  0  0  0  0
   -2.1630   -0.3201   -1.7913 H   0  0  0  0  0  0  0  0  0  0  0  0
   -3.6437    0.3447   -2.5640 H   0  0  0  0  0  0  0  0  0  0  0  0
   -4.4880    1.7905    0.8010 H   0  0  0  0  0  0  0  0  0  0  0  0
   -4.5979    2.0312   -0.9496 H   0  0  0  0  0  0  0  0  0  0  0  0
   -6.4023    0.5358    0.9470 H   0  0  0  0  0  0  0  0  0  0  0  0
   -5.7211   -3.5383   -0.4171 H   0  0  0  0  0  0  0  0  0  0  0  0
   -6.7322   -2.9002   -1.7573 H   0  0  0  0  0  0  0  0  0  0  0  0
   -1.0083    0.7077   -0.5058 H   0  0  0  0  0  0  0  0  0  0  0  0
  1  2  1  0
  2  3  2  0
  3  4  1  0
  4  5  1  0
  5  6  1  0
  6  7  1  0
  7  8  1  0
  7  9  1  0
  7 10  1  0
  4 11  2  0
 11 12  1  0
 12 13  2  0
 13 14  1  0
 14 15  2  0
 14 16  1  0
 16 17  1  0
 17 18  2  0
 18 19  1  0
 19 20  1  0
 19 21  2  0
 21 22  1  0
 21 23  1  0
 23 24  1  0
 24 25  1  6
 24 26  1  0
 26 27  1  0
 27 28  1  0
 28 29  1  0
 28 30  1  0
 28 31  1  0
 27 32  1  0
 32 33  1  0
 33 34  1  0
 33 35  2  0
 23 36  2  0
 13  2  1  0
 36 17  1  0
 35 24  1  0
  1 37  1  0
  1 38  1  0
  1 39  1  0
  6 40  1  0
  6 41  1  0
 11 42  1  0
 16 43  1  0
 18 44  1  0
 25 45  1  0
 25 46  1  0
 25 47  1  0
 26 48  1  0
 26 49  1  0
 27 50  1  1
 34 51  1  0
 34 52  1  0
 36 53  1  0
M  END
$$$$
