
     RDKit          3D

 62 64  0  0  0  0  0  0  0  0999 V2000
    7.3630    2.8732    0.1386 C   0  0  0  0  0  0  0  0  0  0  0  0
    6.4984    1.6170    0.3648 C   0  0  0  0  0  0  0  0  0  0  0  0
    6.9777    0.5489   -0.3935 N   0  0  0  0  0  0  0  0  0  0  0  0
    8.2196   -0.0375   -0.0942 C   0  0  0  0  0  0  0  0  0  0  0  0
    8.3404   -0.8059    1.1653 C   0  0  0  0  0  0  0  0  0  0  0  0
    6.1455   -0.1220   -1.3029 C   0  0  0  0  0  0  0  0  0  0  0  0
    5.0277   -0.9399   -0.8044 C   0  0  0  0  0  0  0  0  0  0  0  0
    3.9443   -0.2382   -0.0334 C   0  0  0  0  0  0  0  0  0  0  0  0
    2.9453   -1.3201    0.3083 C   0  0  0  0  0  0  0  0  0  0  0  0
    3.3895   -2.4351    0.6804 O   0  0  0  0  0  0  0  0  0  0  0  0
    1.5205   -1.0924    0.2043 C   0  0  0  0  0  0  0  0  0  0  0  0
    0.9356    0.0947   -0.1607 C   0  0  0  0  0  0  0  0  0  0  0  0
   -0.4430    0.2185   -0.3010 C   0  0  0  0  0  0  0  0  0  0  0  0
   -1.2886   -0.8665   -0.0743 C   0  0  0  0  0  0  0  0  0  0  0  0
   -2.6578   -0.7264   -0.2196 O   0  0  0  0  0  0  0  0  0  0  0  0
   -3.5834   -1.7585   -0.1034 C   0  0  0  0  0  0  0  0  0  0  0  0
   -4.5607   -1.6935   -1.2644 C   0  0  0  0  0  0  0  0  0  0  0  0
   -5.6070   -0.7449   -0.7841 C   0  0  0  0  0  0  0  0  0  0  0  0
   -6.5504   -0.0049   -1.4679 C   0  0  0  0  0  0  0  0  0  0  0  0
   -7.4228    0.8263   -0.7960 C   0  0  0  0  0  0  0  0  0  0  0  0
   -8.3734    1.5767   -1.4551 O   0  0  0  0  0  0  0  0  0  0  0  0
   -8.5953    1.6144   -2.8229 C   0  0  0  0  0  0  0  0  0  0  0  0
   -7.3724    0.9380    0.5994 C   0  0  0  0  0  0  0  0  0  0  0  0
   -8.2392    1.7643    1.2851 O   0  0  0  0  0  0  0  0  0  0  0  0
   -8.1385    1.8396    2.6897 C   0  0  0  0  0  0  0  0  0  0  0  0
   -6.4276    0.1934    1.2612 C   0  0  0  0  0  0  0  0  0  0  0  0
   -5.5481   -0.6393    0.6112 C   0  0  0  0  0  0  0  0  0  0  0  0
   -4.4811   -1.5004    1.0705 C   0  0  0  0  0  0  0  0  0  0  0  0
   -4.3263   -1.9501    2.2172 O   0  0  0  0  0  0  0  0  0  0  0  0
   -0.7012   -2.0581    0.2950 C   0  0  0  0  0  0  0  0  0  0  0  0
    0.6652   -2.1524    0.4259 C   0  0  0  0  0  0  0  0  0  0  0  0
    8.3630    2.7643    0.5521 H   0  0  0  0  0  0  0  0  0  0  0  0
    7.4889    2.9158   -0.9795 H   0  0  0  0  0  0  0  0  0  0  0  0
    6.8827    3.7768    0.5276 H   0  0  0  0  0  0  0  0  0  0  0  0
    5.5066    1.9365   -0.0940 H   0  0  0  0  0  0  0  0  0  0  0  0
    6.3007    1.4371    1.4207 H   0  0  0  0  0  0  0  0  0  0  0  0
    8.9778    0.8029   -0.0328 H   0  0  0  0  0  0  0  0  0  0  0  0
    8.6186   -0.6635   -0.9369 H   0  0  0  0  0  0  0  0  0  0  0  0
    7.3477   -1.2524    1.4676 H   0  0  0  0  0  0  0  0  0  0  0  0
    8.9779   -1.7170    0.9680 H   0  0  0  0  0  0  0  0  0  0  0  0
    8.8431   -0.2894    1.9879 H   0  0  0  0  0  0  0  0  0  0  0  0
    5.7468    0.6214   -2.0395 H   0  0  0  0  0  0  0  0  0  0  0  0
    6.8063   -0.8163   -1.9106 H   0  0  0  0  0  0  0  0  0  0  0  0
    4.5033   -1.3678   -1.7143 H   0  0  0  0  0  0  0  0  0  0  0  0
    5.3542   -1.8518   -0.2309 H   0  0  0  0  0  0  0  0  0  0  0  0
    4.2747    0.2132    0.9211 H   0  0  0  0  0  0  0  0  0  0  0  0
    3.5118    0.5517   -0.6576 H   0  0  0  0  0  0  0  0  0  0  0  0
    1.5410    0.9535   -0.3483 H   0  0  0  0  0  0  0  0  0  0  0  0
   -0.8893    1.1717   -0.5970 H   0  0  0  0  0  0  0  0  0  0  0  0
   -3.1667   -2.7683   -0.0557 H   0  0  0  0  0  0  0  0  0  0  0  0
   -4.0798   -1.3452   -2.1962 H   0  0  0  0  0  0  0  0  0  0  0  0
   -5.0246   -2.6971   -1.4127 H   0  0  0  0  0  0  0  0  0  0  0  0
   -6.5698   -0.1177   -2.5525 H   0  0  0  0  0  0  0  0  0  0  0  0
   -7.7368    1.2356   -3.3832 H   0  0  0  0  0  0  0  0  0  0  0  0
   -8.8234    2.6748   -3.1343 H   0  0  0  0  0  0  0  0  0  0  0  0
   -9.4904    0.9866   -3.0895 H   0  0  0  0  0  0  0  0  0  0  0  0
   -7.0833    2.0323    3.0006 H   0  0  0  0  0  0  0  0  0  0  0  0
   -8.7560    2.7012    3.0065 H   0  0  0  0  0  0  0  0  0  0  0  0
   -8.4798    0.8974    3.1477 H   0  0  0  0  0  0  0  0  0  0  0  0
   -6.3688    0.2638    2.3369 H   0  0  0  0  0  0  0  0  0  0  0  0
   -1.3156   -2.9488    0.4968 H   0  0  0  0  0  0  0  0  0  0  0  0
    1.0833   -3.1204    0.7259 H   0  0  0  0  0  0  0  0  0  0  0  0
  1  2  1  0
  2  3  1  0
  3  4  1  0
  4  5  1  0
  3  6  1  0
  6  7  1  0
  7  8  1  0
  8  9  1  0
  9 10  2  0
  9 11  1  0
 11 12  2  0
 12 13  1  0
 13 14  2  0
 14 15  1  0
 15 16  1  0
 16 17  1  0
 17 18  1  0
 18 19  2  0
 19 20  1  0
 20 21  1  0
 21 22  1  0
 20 23  2  0
 23 24  1  0
 24 25  1  0
 23 26  1  0
 26 27  2  0
 27 28  1  0
 28 29  2  0
 14 30  1  0
 30 31  2  0
 31 11  1  0
 28 16  1  0
 27 18  1  0
  1 32  1  0
  1 33  1  0
  1 34  1  0
  2 35  1  0
  2 36  1  0
  4 37  1  0
  4 38  1  0
  5 39  1  0
  5 40  1  0
  5 41  1  0
  6 42  1  0
  6 43  1  0
  7 44  1  0
  7 45  1  0
  8 46  1  0
  8 47  1  0
 12 48  1  0
 13 49  1  0
 16 50  1  0
 17 51  1  0
 17 52  1  0
 19 53  1  0
 22 54  1  0
 22 55  1  0
 22 56  1  0
 25 57  1  0
 25 58  1  0
 25 59  1  0
 26 60  1  0
 30 61  1  0
 31 62  1  0
M  END
$$$$
