
     RDKit          3D

 67 71  0  0  0  0  0  0  0  0999 V2000
    9.4395    1.4565   -3.2090 C   0  0  0  0  0  0  0  0  0  0  0  0
    8.3189    2.1083   -2.6516 O   0  0  0  0  0  0  0  0  0  0  0  0
    7.4775    1.3539   -1.8121 C   0  0  0  0  0  0  0  0  0  0  0  0
    6.3646    1.9204   -1.2317 C   0  0  0  0  0  0  0  0  0  0  0  0
    5.5613    1.1379   -0.4096 C   0  0  0  0  0  0  0  0  0  0  0  0
    5.8285   -0.1846   -0.1467 C   0  0  0  0  0  0  0  0  0  0  0  0
    4.9652   -1.0040    0.7307 C   0  0  2  0  0  0  0  0  0  0  0  0
    5.7418   -2.0525    1.2750 O   0  0  0  0  0  0  0  0  0  0  0  0
    3.8742   -1.6845   -0.0649 C   0  0  0  0  0  0  0  0  0  0  0  0
    2.5339   -1.4324    0.5725 C   0  0  0  0  0  0  0  0  0  0  0  0
    2.5087   -1.8671    2.0052 C   0  0  2  0  0  0  0  0  0  0  0  0
    1.2676   -1.6100    2.6453 N   0  0  0  0  0  0  0  0  0  0  0  0
    0.0784   -2.2217    2.1470 C   0  0  0  0  0  0  0  0  0  0  0  0
   -0.4187   -0.8656    1.7204 C   0  0  0  0  0  0  0  0  0  0  0  0
   -1.7556   -0.5286    2.0890 N   0  0  0  0  0  0  0  0  0  0  0  0
   -2.7717   -0.2490    1.1393 C   0  0  0  0  0  0  0  0  0  0  0  0
   -2.4308   -0.3184   -0.0823 O   0  0  0  0  0  0  0  0  0  0  0  0
   -4.1534    0.1043    1.5516 C   0  0  0  0  0  0  0  0  0  0  0  0
   -4.9986    0.3258    0.3892 N   0  0  0  0  0  0  0  0  0  0  0  0
   -6.3271    0.7234    0.6228 C   0  0  0  0  0  0  0  0  0  0  0  0
   -6.7650    0.9025    1.8858 N   0  0  0  0  0  0  0  0  0  0  0  0
   -8.0121    1.2906    2.1700 C   0  0  0  0  0  0  0  0  0  0  0  0
   -8.8731    1.5138    1.1771 N   0  0  0  0  0  0  0  0  0  0  0  0
   -8.5287    1.3607   -0.1253 C   0  0  0  0  0  0  0  0  0  0  0  0
   -9.4285    1.5915   -1.1381 C   0  0  0  0  0  0  0  0  0  0  0  0
   -9.0129    1.4141   -2.4335 C   0  0  0  0  0  0  0  0  0  0  0  0
   -7.7415    1.0176   -2.7567 C   0  0  0  0  0  0  0  0  0  0  0  0
   -7.2494    0.8105   -4.1317 C   0  0  0  0  0  0  0  0  0  0  0  0
   -8.2336    1.2018   -5.0218 F   0  0  0  0  0  0  0  0  0  0  0  0
   -6.0602    1.4899   -4.3243 F   0  0  0  0  0  0  0  0  0  0  0  0
   -7.0242   -0.5357   -4.3528 F   0  0  0  0  0  0  0  0  0  0  0  0
   -6.8463    0.7898   -1.7112 C   0  0  0  0  0  0  0  0  0  0  0  0
   -7.2093    0.9518   -0.3980 C   0  0  0  0  0  0  0  0  0  0  0  0
    0.6977   -0.3110    2.5145 C   0  0  0  0  0  0  0  0  0  0  0  0
    3.6070   -1.1660    2.7626 C   0  0  0  0  0  0  0  0  0  0  0  0
    4.4237   -0.2326    1.8913 C   0  0  0  0  0  0  0  0  0  0  0  0
    6.9652   -0.6957   -0.7621 C   0  0  0  0  0  0  0  0  0  0  0  0
    7.7396    0.0608   -1.5557 N   0  0  0  0  0  0  0  0  0  0  0  0
   10.1811    2.1739   -3.6089 H   0  0  0  0  0  0  0  0  0  0  0  0
    9.8458    0.7655   -2.4541 H   0  0  0  0  0  0  0  0  0  0  0  0
    9.0349    0.7996   -4.0334 H   0  0  0  0  0  0  0  0  0  0  0  0
    6.1327    2.9555   -1.4208 H   0  0  0  0  0  0  0  0  0  0  0  0
    4.6833    1.5997    0.0411 H   0  0  0  0  0  0  0  0  0  0  0  0
    6.5493   -1.6436    1.6963 H   0  0  0  0  0  0  0  0  0  0  0  0
    3.8367   -1.2094   -1.0766 H   0  0  0  0  0  0  0  0  0  0  0  0
    4.0736   -2.7574   -0.2374 H   0  0  0  0  0  0  0  0  0  0  0  0
    1.7796   -1.9502   -0.0548 H   0  0  0  0  0  0  0  0  0  0  0  0
    2.3550   -0.3302    0.4678 H   0  0  0  0  0  0  0  0  0  0  0  0
    2.7118   -2.9736    2.0192 H   0  0  0  0  0  0  0  0  0  0  0  0
    0.2576   -2.9245    1.3069 H   0  0  0  0  0  0  0  0  0  0  0  0
   -0.5895   -2.7172    2.8834 H   0  0  0  0  0  0  0  0  0  0  0  0
   -0.2899   -0.7732    0.6232 H   0  0  0  0  0  0  0  0  0  0  0  0
   -2.0583   -0.4703    3.1076 H   0  0  0  0  0  0  0  0  0  0  0  0
   -4.1702    0.9582    2.2496 H   0  0  0  0  0  0  0  0  0  0  0  0
   -4.6261   -0.7540    2.1046 H   0  0  0  0  0  0  0  0  0  0  0  0
   -4.5558    0.1740   -0.5378 H   0  0  0  0  0  0  0  0  0  0  0  0
   -8.3170    1.4226    3.1881 H   0  0  0  0  0  0  0  0  0  0  0  0
  -10.4270    1.9057   -0.8731 H   0  0  0  0  0  0  0  0  0  0  0  0
   -9.7011    1.5888   -3.2486 H   0  0  0  0  0  0  0  0  0  0  0  0
   -5.8274    0.4728   -1.9606 H   0  0  0  0  0  0  0  0  0  0  0  0
    1.2438    0.4664    1.9674 H   0  0  0  0  0  0  0  0  0  0  0  0
    0.4542    0.0851    3.5257 H   0  0  0  0  0  0  0  0  0  0  0  0
    4.3107   -1.8704    3.2474 H   0  0  0  0  0  0  0  0  0  0  0  0
    3.1861   -0.5548    3.6147 H   0  0  0  0  0  0  0  0  0  0  0  0
    5.3124    0.0598    2.5252 H   0  0  0  0  0  0  0  0  0  0  0  0
    3.8840    0.6787    1.6328 H   0  0  0  0  0  0  0  0  0  0  0  0
    7.1767   -1.7442   -0.5521 H   0  0  0  0  0  0  0  0  0  0  0  0
  1  2  1  0
  2  3  1  0
  3  4  2  0
  4  5  1  0
  5  6  2  0
  6  7  1  0
  7  8  1  1
  7  9  1  0
  9 10  1  0
 10 11  1  0
 11 12  1  0
 12 13  1  0
 13 14  1  0
 14 15  1  0
 15 16  1  0
 16 17  2  0
 16 18  1  0
 18 19  1  0
 19 20  1  0
 20 21  2  0
 21 22  1  0
 22 23  2  0
 23 24  1  0
 24 25  2  0
 25 26  1  0
 26 27  2  0
 27 28  1  0
 28 29  1  0
 28 30  1  0
 28 31  1  0
 27 32  1  0
 32 33  2  0
 14 34  1  0
 11 35  1  0
 35 36  1  0
  6 37  1  0
 37 38  2  0
 38  3  1  0
 36  7  1  0
 34 12  1  0
 33 20  1  0
 33 24  1  0
  1 39  1  0
  1 40  1  0
  1 41  1  0
  4 42  1  0
  5 43  1  0
  8 44  1  0
  9 45  1  0
  9 46  1  0
 10 47  1  0
 10 48  1  0
 11 49  1  6
 13 50  1  0
 13 51  1  0
 14 52  1  0
 15 53  1  0
 18 54  1  0
 18 55  1  0
 19 56  1  0
 22 57  1  0
 25 58  1  0
 26 59  1  0
 32 60  1  0
 34 61  1  0
 34 62  1  0
 35 63  1  0
 35 64  1  0
 36 65  1  0
 36 66  1  0
 37 67  1  0
M  END
$$$$
