
     RDKit          3D

 68 72  0  0  0  0  0  0  0  0999 V2000
   -2.5769    5.1302    1.7314 C   0  0  0  0  0  0  0  0  0  0  0  0
   -3.8091    4.5262    1.1315 C   0  0  0  0  0  0  0  0  0  0  0  0
   -3.5712    3.0798    0.8166 C   0  0  0  0  0  0  0  0  0  0  0  0
   -2.4379    2.8745   -0.2011 C   0  0  0  0  0  0  0  0  0  0  0  0
   -2.3294    1.4266   -0.3892 C   0  0  0  0  0  0  0  0  0  0  0  0
   -2.9128    0.7444   -1.3954 N   0  0  0  0  0  0  0  0  0  0  0  0
   -2.7267   -0.5457   -1.2782 N   0  0  0  0  0  0  0  0  0  0  0  0
   -3.1759   -1.5881   -2.1311 C   0  0  0  0  0  0  0  0  0  0  0  0
   -2.5409   -1.8763   -3.3344 C   0  0  0  0  0  0  0  0  0  0  0  0
   -2.9291   -2.8611   -4.1840 C   0  0  0  0  0  0  0  0  0  0  0  0
   -4.0332   -3.6123   -3.8020 C   0  0  0  0  0  0  0  0  0  0  0  0
   -4.6772   -3.3429   -2.6135 C   0  0  0  0  0  0  0  0  0  0  0  0
   -6.0716   -4.2857   -2.1236 Cl  0  0  0  0  0  0  0  0  0  0  0  0
   -4.2646   -2.3457   -1.7781 C   0  0  0  0  0  0  0  0  0  0  0  0
   -5.0922   -2.0003   -0.2515 Cl  0  0  0  0  0  0  0  0  0  0  0  0
   -1.9928   -0.7349   -0.1544 C   0  0  0  0  0  0  0  0  0  0  0  0
   -1.5896   -2.0497    0.3171 C   0  0  0  0  0  0  0  0  0  0  0  0
   -0.9269   -2.2644    1.3541 O   0  0  0  0  0  0  0  0  0  0  0  0
   -1.9384   -3.2132   -0.3998 O   0  0  0  0  0  0  0  0  0  0  0  0
   -1.5410   -4.4989    0.0666 C   0  0  0  0  0  0  0  0  0  0  0  0
   -2.1192   -4.7523    1.4516 C   0  0  0  0  0  0  0  0  0  0  0  0
   -1.7128    0.5006    0.4445 C   0  0  0  0  0  0  0  0  0  0  0  0
   -0.8662    0.7271    1.6366 C   0  0  0  0  0  0  0  0  0  0  0  0
    0.5739    0.8759    1.3753 C   0  0  0  0  0  0  0  0  0  0  0  0
    1.1335    1.9005    0.6773 C   0  0  0  0  0  0  0  0  0  0  0  0
    2.5100    1.9950    0.4737 C   0  0  0  0  0  0  0  0  0  0  0  0
    3.3675    1.0451    0.9759 C   0  0  0  0  0  0  0  0  0  0  0  0
    4.7980    1.1810    0.7451 C   0  0  0  0  0  0  0  0  0  0  0  0
    5.5245    2.2213    1.3376 C   0  0  0  0  0  0  0  0  0  0  0  0
    6.8660    2.3952    1.1726 C   0  0  0  0  0  0  0  0  0  0  0  0
    7.5482    1.4922    0.3742 C   0  0  0  0  0  0  0  0  0  0  0  0
    6.8467    0.4712   -0.2097 C   0  0  0  0  0  0  0  0  0  0  0  0
    5.4848    0.2987   -0.0398 C   0  0  0  0  0  0  0  0  0  0  0  0
    4.8297   -0.7913   -0.7080 C   0  0  0  0  0  0  0  0  0  0  0  0
    3.5353   -1.1011   -0.7237 N   0  0  0  0  0  0  0  0  0  0  0  0
    3.3345   -2.1723   -1.4607 N   0  0  0  0  0  0  0  0  0  0  0  0
    4.5094   -2.5449   -1.9162 N   0  0  0  0  0  0  0  0  0  0  0  0
    5.4501   -1.7312   -1.4820 N   0  0  0  0  0  0  0  0  0  0  0  0
    2.8344    0.0102    1.6781 C   0  0  0  0  0  0  0  0  0  0  0  0
    1.4847   -0.0740    1.8735 C   0  0  0  0  0  0  0  0  0  0  0  0
   -2.8026    5.4566    2.7744 H   0  0  0  0  0  0  0  0  0  0  0  0
   -2.2058    5.9992    1.1374 H   0  0  0  0  0  0  0  0  0  0  0  0
   -1.7816    4.3928    1.7970 H   0  0  0  0  0  0  0  0  0  0  0  0
   -4.6680    4.6564    1.8390 H   0  0  0  0  0  0  0  0  0  0  0  0
   -4.0902    5.0813    0.2039 H   0  0  0  0  0  0  0  0  0  0  0  0
   -4.5271    2.7008    0.3481 H   0  0  0  0  0  0  0  0  0  0  0  0
   -3.4265    2.4736    1.7231 H   0  0  0  0  0  0  0  0  0  0  0  0
   -2.8498    3.3126   -1.1654 H   0  0  0  0  0  0  0  0  0  0  0  0
   -1.5529    3.4185    0.0702 H   0  0  0  0  0  0  0  0  0  0  0  0
   -1.6716   -1.2686   -3.6136 H   0  0  0  0  0  0  0  0  0  0  0  0
   -2.4276   -3.0741   -5.1145 H   0  0  0  0  0  0  0  0  0  0  0  0
   -4.3548   -4.4061   -4.4759 H   0  0  0  0  0  0  0  0  0  0  0  0
   -0.4299   -4.5460    0.1708 H   0  0  0  0  0  0  0  0  0  0  0  0
   -1.8183   -5.2667   -0.6606 H   0  0  0  0  0  0  0  0  0  0  0  0
   -3.0288   -4.1756    1.6336 H   0  0  0  0  0  0  0  0  0  0  0  0
   -1.3481   -4.5522    2.2438 H   0  0  0  0  0  0  0  0  0  0  0  0
   -2.3720   -5.8271    1.5350 H   0  0  0  0  0  0  0  0  0  0  0  0
   -1.0174   -0.1700    2.3074 H   0  0  0  0  0  0  0  0  0  0  0  0
   -1.2745    1.6245    2.1740 H   0  0  0  0  0  0  0  0  0  0  0  0
    0.5085    2.6719    0.2609 H   0  0  0  0  0  0  0  0  0  0  0  0
    2.8732    2.8371   -0.0884 H   0  0  0  0  0  0  0  0  0  0  0  0
    4.9776    2.9127    1.9532 H   0  0  0  0  0  0  0  0  0  0  0  0
    7.3943    3.2247    1.6550 H   0  0  0  0  0  0  0  0  0  0  0  0
    8.6170    1.6435    0.2516 H   0  0  0  0  0  0  0  0  0  0  0  0
    7.4142   -0.2174   -0.8295 H   0  0  0  0  0  0  0  0  0  0  0  0
    6.4796   -1.7997   -1.6968 H   0  0  0  0  0  0  0  0  0  0  0  0
    3.5316   -0.7291    2.0682 H   0  0  0  0  0  0  0  0  0  0  0  0
    1.0558   -0.8829    2.4411 H   0  0  0  0  0  0  0  0  0  0  0  0
  1  2  1  0
  2  3  1  0
  3  4  1  0
  4  5  1  0
  5  6  2  0
  6  7  1  0
  7  8  1  0
  8  9  2  0
  9 10  1  0
 10 11  2  0
 11 12  1  0
 12 13  1  0
 12 14  2  0
 14 15  1  0
  7 16  1  0
 16 17  1  0
 17 18  2  0
 17 19  1  0
 19 20  1  0
 20 21  1  0
 16 22  2  0
 22 23  1  0
 23 24  1  0
 24 25  2  0
 25 26  1  0
 26 27  2  0
 27 28  1  0
 28 29  2  0
 29 30  1  0
 30 31  2  0
 31 32  1  0
 32 33  2  0
 33 34  1  0
 34 35  2  0
 35 36  1  0
 36 37  2  0
 37 38  1  0
 27 39  1  0
 39 40  2  0
 22  5  1  0
 40 24  1  0
 14  8  1  0
 33 28  1  0
 38 34  1  0
  1 41  1  0
  1 42  1  0
  1 43  1  0
  2 44  1  0
  2 45  1  0
  3 46  1  0
  3 47  1  0
  4 48  1  0
  4 49  1  0
  9 50  1  0
 10 51  1  0
 11 52  1  0
 20 53  1  0
 20 54  1  0
 21 55  1  0
 21 56  1  0
 21 57  1  0
 23 58  1  0
 23 59  1  0
 25 60  1  0
 26 61  1  0
 29 62  1  0
 30 63  1  0
 31 64  1  0
 32 65  1  0
 38 66  1  0
 39 67  1  0
 40 68  1  0
M  END
$$$$
