
     RDKit          3D

 51 55  0  0  0  0  0  0  0  0999 V2000
   -3.5289   -3.8177   -1.6656 C   0  0  0  0  0  0  0  0  0  0  0  0
   -3.2355   -3.8437   -0.1900 C   0  0  0  0  0  0  0  0  0  0  0  0
   -3.1133   -2.4568    0.2739 N   0  0  0  0  0  0  0  0  0  0  0  0
   -4.0600   -1.6656    0.7332 N   0  0  0  0  0  0  0  0  0  0  0  0
   -3.6192   -0.4658    1.0702 C   0  0  0  0  0  0  0  0  0  0  0  0
   -4.4319    0.6396    1.6255 C   0  0  0  0  0  0  0  0  0  0  0  0
   -2.2466   -0.4548    0.8104 C   0  0  0  0  0  0  0  0  0  0  0  0
   -1.9774   -1.7082    0.3193 C   0  0  0  0  0  0  0  0  0  0  0  0
   -0.5590   -1.8086    0.0227 C   0  0  0  0  0  0  0  0  0  0  0  0
    0.0572   -2.8213   -0.4475 O   0  0  0  0  0  0  0  0  0  0  0  0
    0.0133   -0.5515    0.3603 N   0  0  0  0  0  0  0  0  0  0  0  0
    1.4257   -0.2727    0.2087 C   0  0  0  0  0  0  0  0  0  0  0  0
    1.9156    0.2029   -0.9896 C   0  0  0  0  0  0  0  0  0  0  0  0
    3.2743    0.4744   -1.1465 C   0  0  0  0  0  0  0  0  0  0  0  0
    3.8149    0.9864   -2.4304 C   0  0  0  0  0  0  0  0  0  0  0  0
    4.1063    0.2504   -0.0631 C   0  0  0  0  0  0  0  0  0  0  0  0
    5.4382    0.4321    0.0380 N   0  0  0  0  0  0  0  0  0  0  0  0
    5.8127    0.0858    1.2677 N   0  0  0  0  0  0  0  0  0  0  0  0
    4.6943   -0.3133    1.9278 C   0  0  0  0  0  0  0  0  0  0  0  0
    4.6212   -0.7877    3.3260 C   0  0  0  0  0  0  0  0  0  0  0  0
    3.6364   -0.2124    1.1060 N   0  0  0  0  0  0  0  0  0  0  0  0
    2.3258   -0.4666    1.2345 C   0  0  0  0  0  0  0  0  0  0  0  0
   -1.0158    0.3074    0.8438 C   0  0  0  0  0  0  0  0  0  0  0  0
   -1.0599    1.6302    0.1870 C   0  0  0  0  0  0  0  0  0  0  0  0
   -2.0956    2.1377   -0.5272 C   0  0  0  0  0  0  0  0  0  0  0  0
   -1.9840    3.4074   -1.0530 C   0  0  0  0  0  0  0  0  0  0  0  0
   -0.8752    4.2115   -0.9019 C   0  0  0  0  0  0  0  0  0  0  0  0
   -0.8176    5.8220   -1.6082 Cl  0  0  0  0  0  0  0  0  0  0  0  0
    0.1754    3.6924   -0.1755 C   0  0  0  0  0  0  0  0  0  0  0  0
    0.0834    2.4223    0.3600 C   0  0  0  0  0  0  0  0  0  0  0  0
   -4.5978   -4.0249   -1.7979 H   0  0  0  0  0  0  0  0  0  0  0  0
   -3.2665   -2.8117   -2.0874 H   0  0  0  0  0  0  0  0  0  0  0  0
   -2.9342   -4.5589   -2.2397 H   0  0  0  0  0  0  0  0  0  0  0  0
   -2.2626   -4.3701   -0.0597 H   0  0  0  0  0  0  0  0  0  0  0  0
   -3.9831   -4.3976    0.3983 H   0  0  0  0  0  0  0  0  0  0  0  0
   -5.3097    0.2160    2.1778 H   0  0  0  0  0  0  0  0  0  0  0  0
   -4.8730    1.2059    0.7743 H   0  0  0  0  0  0  0  0  0  0  0  0
   -3.8943    1.2714    2.3404 H   0  0  0  0  0  0  0  0  0  0  0  0
    1.2335    0.3669   -1.8182 H   0  0  0  0  0  0  0  0  0  0  0  0
    3.9483    0.1772   -3.1789 H   0  0  0  0  0  0  0  0  0  0  0  0
    4.7682    1.5075   -2.2207 H   0  0  0  0  0  0  0  0  0  0  0  0
    3.1207    1.7459   -2.8288 H   0  0  0  0  0  0  0  0  0  0  0  0
    3.9667   -0.1606    3.9589 H   0  0  0  0  0  0  0  0  0  0  0  0
    5.6457   -0.7456    3.7785 H   0  0  0  0  0  0  0  0  0  0  0  0
    4.2417   -1.8283    3.4053 H   0  0  0  0  0  0  0  0  0  0  0  0
    1.9348   -0.8441    2.1846 H   0  0  0  0  0  0  0  0  0  0  0  0
   -0.7086    0.5548    1.9248 H   0  0  0  0  0  0  0  0  0  0  0  0
   -2.9721    1.5206   -0.6632 H   0  0  0  0  0  0  0  0  0  0  0  0
   -2.8378    3.7691   -1.6156 H   0  0  0  0  0  0  0  0  0  0  0  0
    1.0662    4.2899   -0.0323 H   0  0  0  0  0  0  0  0  0  0  0  0
    0.9391    2.0607    0.9364 H   0  0  0  0  0  0  0  0  0  0  0  0
  1  2  1  0
  2  3  1  0
  3  4  1  0
  4  5  2  0
  5  6  1  0
  5  7  1  0
  7  8  2  0
  8  9  1  0
  9 10  2  0
  9 11  1  0
 11 12  1  0
 12 13  1  0
 13 14  2  0
 14 15  1  0
 14 16  1  0
 16 17  2  0
 17 18  1  0
 18 19  2  0
 19 20  1  0
 19 21  1  0
 21 22  1  0
 11 23  1  0
 23 24  1  0
 24 25  2  0
 25 26  1  0
 26 27  2  0
 27 28  1  0
 27 29  1  0
 29 30  2  0
  8  3  1  0
 22 12  2  0
 30 24  1  0
 23  7  1  0
 21 16  1  0
  1 31  1  0
  1 32  1  0
  1 33  1  0
  2 34  1  0
  2 35  1  0
  6 36  1  0
  6 37  1  0
  6 38  1  0
 13 39  1  0
 15 40  1  0
 15 41  1  0
 15 42  1  0
 20 43  1  0
 20 44  1  0
 20 45  1  0
 22 46  1  0
 23 47  1  0
 25 48  1  0
 26 49  1  0
 29 50  1  0
 30 51  1  0
M  END
$$$$
