
     RDKit          3D

 71 76  0  0  0  0  0  0  0  0999 V2000
   -6.8248    1.6738    2.3728 C   0  0  0  0  0  0  0  0  0  0  0  0
   -7.4533    2.1066    1.1584 N   0  0  0  0  0  0  0  0  0  0  0  0
   -8.8369    2.5116    1.1693 C   0  0  0  0  0  0  0  0  0  0  0  0
   -6.7122    2.1178   -0.0437 C   0  0  0  0  0  0  0  0  0  0  0  0
   -7.3058    2.5387   -1.0788 O   0  0  0  0  0  0  0  0  0  0  0  0
   -5.3291    1.6790   -0.1484 C   0  0  0  0  0  0  0  0  0  0  0  0
   -4.2127    2.4639    0.1947 C   0  0  0  0  0  0  0  0  0  0  0  0
   -3.1045    1.7016   -0.0441 C   0  0  0  0  0  0  0  0  0  0  0  0
   -1.7355    1.9063    0.0889 C   0  0  0  0  0  0  0  0  0  0  0  0
   -0.8648    0.9361   -0.2418 N   0  0  0  0  0  0  0  0  0  0  0  0
   -1.2500   -0.2533   -0.7053 C   0  0  0  0  0  0  0  0  0  0  0  0
   -0.3692   -1.3209   -1.0659 N   0  0  0  0  0  0  0  0  0  0  0  0
    1.0321   -1.3122   -0.9376 C   0  0  0  0  0  0  0  0  0  0  0  0
    1.8014   -0.3166   -0.4370 C   0  0  0  0  0  0  0  0  0  0  0  0
    3.1908   -0.4651   -0.3777 C   0  0  0  0  0  0  0  0  0  0  0  0
    3.8521   -1.5693   -0.7999 C   0  0  0  0  0  0  0  0  0  0  0  0
    5.2622   -1.7939   -0.7723 C   0  0  0  0  0  0  0  0  0  0  0  0
    5.6073   -3.0444   -0.9314 O   0  0  0  0  0  0  0  0  0  0  0  0
    6.3629   -0.9329   -0.6102 N   0  0  0  0  0  0  0  0  0  0  0  0
    6.2444    0.4655   -0.3921 C   0  0  0  0  0  0  0  0  0  0  0  0
    7.5180    1.2528   -0.4369 C   0  0  0  0  0  0  0  0  0  0  0  0
    7.9993    1.5809    0.9657 C   0  0  0  0  0  0  0  0  0  0  0  0
    8.4191    0.3589    1.7444 C   0  0  0  0  0  0  0  0  0  0  0  0
    9.2768   -0.5848    0.9502 C   0  0  0  0  0  0  0  0  0  0  0  0
    8.8164   -0.7164   -0.4867 C   0  0  0  0  0  0  0  0  0  0  0  0
    7.6740   -1.5891   -0.7066 C   0  0  0  0  0  0  0  0  0  0  0  0
    8.5951    0.5830   -1.1204 N   0  0  0  0  0  0  0  0  0  0  0  0
    3.0056   -2.5842   -1.3169 C   0  0  0  0  0  0  0  0  0  0  0  0
    1.7126   -2.4204   -1.3598 N   0  0  0  0  0  0  0  0  0  0  0  0
   -2.5992   -0.4432   -0.8313 N   0  0  0  0  0  0  0  0  0  0  0  0
   -3.5101    0.4847   -0.5184 C   0  0  0  0  0  0  0  0  0  0  0  0
   -4.8957    0.4972   -0.5734 N   0  0  0  0  0  0  0  0  0  0  0  0
   -5.5551   -0.6688   -1.0343 C   0  0  0  0  0  0  0  0  0  0  0  0
   -6.9825   -0.7757   -1.1829 C   0  0  0  0  0  0  0  0  0  0  0  0
   -7.5438   -1.3903    0.0938 C   0  0  0  0  0  0  0  0  0  0  0  0
   -6.4363   -2.3257    0.4971 C   0  0  0  0  0  0  0  0  0  0  0  0
   -5.1828   -1.8903   -0.1766 C   0  0  0  0  0  0  0  0  0  0  0  0
   -5.9004    2.2985    2.5768 H   0  0  0  0  0  0  0  0  0  0  0  0
   -6.4443    0.6428    2.3110 H   0  0  0  0  0  0  0  0  0  0  0  0
   -7.4910    1.7792    3.2579 H   0  0  0  0  0  0  0  0  0  0  0  0
   -9.1110    3.2285    1.9550 H   0  0  0  0  0  0  0  0  0  0  0  0
   -9.0439    3.0498    0.1941 H   0  0  0  0  0  0  0  0  0  0  0  0
   -9.5252    1.6354    1.1232 H   0  0  0  0  0  0  0  0  0  0  0  0
   -4.2519    3.4769    0.5730 H   0  0  0  0  0  0  0  0  0  0  0  0
   -1.4394    2.8679    0.4610 H   0  0  0  0  0  0  0  0  0  0  0  0
   -0.8053   -2.2150   -1.4697 H   0  0  0  0  0  0  0  0  0  0  0  0
    1.3371    0.5852   -0.0861 H   0  0  0  0  0  0  0  0  0  0  0  0
    3.7207    0.3817    0.0541 H   0  0  0  0  0  0  0  0  0  0  0  0
    5.5511    0.8511   -1.2005 H   0  0  0  0  0  0  0  0  0  0  0  0
    5.8153    0.6815    0.6371 H   0  0  0  0  0  0  0  0  0  0  0  0
    7.3434    2.2361   -0.9323 H   0  0  0  0  0  0  0  0  0  0  0  0
    7.1156    2.0180    1.5106 H   0  0  0  0  0  0  0  0  0  0  0  0
    8.7712    2.3765    0.9462 H   0  0  0  0  0  0  0  0  0  0  0  0
    8.9926    0.7160    2.6244 H   0  0  0  0  0  0  0  0  0  0  0  0
    7.5477   -0.1775    2.1359 H   0  0  0  0  0  0  0  0  0  0  0  0
   10.3576   -0.2612    0.9362 H   0  0  0  0  0  0  0  0  0  0  0  0
    9.2385   -1.5792    1.4113 H   0  0  0  0  0  0  0  0  0  0  0  0
    9.7049   -1.1368   -1.0312 H   0  0  0  0  0  0  0  0  0  0  0  0
    7.7322   -1.9793   -1.7685 H   0  0  0  0  0  0  0  0  0  0  0  0
    7.6412   -2.5097   -0.0786 H   0  0  0  0  0  0  0  0  0  0  0  0
    8.3918    0.4075   -2.1119 H   0  0  0  0  0  0  0  0  0  0  0  0
    3.4471   -3.4938   -1.6737 H   0  0  0  0  0  0  0  0  0  0  0  0
   -5.0720   -0.9204   -2.0408 H   0  0  0  0  0  0  0  0  0  0  0  0
   -7.1732   -1.6391   -1.9346 H   0  0  0  0  0  0  0  0  0  0  0  0
   -7.5844    0.0142   -1.6111 H   0  0  0  0  0  0  0  0  0  0  0  0
   -7.7511   -0.6788    0.8811 H   0  0  0  0  0  0  0  0  0  0  0  0
   -8.4632   -2.0038   -0.1475 H   0  0  0  0  0  0  0  0  0  0  0  0
   -6.7344   -3.3640    0.2108 H   0  0  0  0  0  0  0  0  0  0  0  0
   -6.3643   -2.2850    1.6084 H   0  0  0  0  0  0  0  0  0  0  0  0
   -4.8133   -2.7365   -0.7883 H   0  0  0  0  0  0  0  0  0  0  0  0
   -4.4056   -1.6584    0.5617 H   0  0  0  0  0  0  0  0  0  0  0  0
  1  2  1  0
  2  3  1  0
  2  4  1  0
  4  5  2  0
  4  6  1  0
  6  7  2  0
  7  8  1  0
  8  9  2  0
  9 10  1  0
 10 11  2  0
 11 12  1  0
 12 13  1  0
 13 14  2  0
 14 15  1  0
 15 16  2  0
 16 17  1  0
 17 18  2  0
 17 19  1  0
 19 20  1  0
 20 21  1  0
 21 22  1  0
 22 23  1  0
 23 24  1  0
 24 25  1  0
 25 26  1  0
 25 27  1  0
 16 28  1  0
 28 29  2  0
 11 30  1  0
 30 31  2  0
 31 32  1  0
 32 33  1  0
 33 34  1  0
 34 35  1  0
 35 36  1  0
 36 37  1  0
 32  6  1  0
 37 33  1  0
 31  8  1  0
 29 13  1  0
 26 19  1  0
 27 21  1  0
  1 38  1  0
  1 39  1  0
  1 40  1  0
  3 41  1  0
  3 42  1  0
  3 43  1  0
  7 44  1  0
  9 45  1  0
 12 46  1  0
 14 47  1  0
 15 48  1  0
 20 49  1  0
 20 50  1  0
 21 51  1  0
 22 52  1  0
 22 53  1  0
 23 54  1  0
 23 55  1  0
 24 56  1  0
 24 57  1  0
 25 58  1  0
 26 59  1  0
 26 60  1  0
 27 61  1  0
 28 62  1  0
 33 63  1  0
 34 64  1  0
 34 65  1  0
 35 66  1  0
 35 67  1  0
 36 68  1  0
 36 69  1  0
 37 70  1  0
 37 71  1  0
M  END
$$$$
