
     RDKit          3D

 31 33  0  0  0  0  0  0  0  0999 V2000
   -3.8835    1.8884   -0.2973 C   0  0  0  0  0  0  0  0  0  0  0  0
   -4.2809    0.6519    0.3005 N   0  0  0  0  0  0  0  0  0  0  0  0
   -3.7215   -0.5263   -0.2810 C   0  0  0  0  0  0  0  0  0  0  0  0
   -2.2503   -0.6040   -0.2483 C   0  0  0  0  0  0  0  0  0  0  0  0
   -1.3917   -0.1234   -1.2430 C   0  0  0  0  0  0  0  0  0  0  0  0
   -0.0208   -0.2529   -1.1025 C   0  0  0  0  0  0  0  0  0  0  0  0
    0.5547   -0.8495    0.0017 C   0  0  0  0  0  0  0  0  0  0  0  0
   -0.2755   -1.3303    0.9946 C   0  0  0  0  0  0  0  0  0  0  0  0
   -1.6428   -1.2038    0.8597 C   0  0  0  0  0  0  0  0  0  0  0  0
    2.0045   -0.9717    0.1220 C   0  0  0  0  0  0  0  0  0  0  0  0
    2.6550   -2.0836    0.5166 N   0  0  0  0  0  0  0  0  0  0  0  0
    3.9942   -2.1341    0.6076 C   0  0  0  0  0  0  0  0  0  0  0  0
    4.7868   -1.0718    0.3095 N   0  0  0  0  0  0  0  0  0  0  0  0
    4.1373    0.0350   -0.0834 C   0  0  0  0  0  0  0  0  0  0  0  0
    2.7491    0.1468   -0.1969 C   0  0  0  0  0  0  0  0  0  0  0  0
    2.4836    1.4032   -0.6165 N   0  0  0  0  0  0  0  0  0  0  0  0
    3.6627    2.0367   -0.7549 C   0  0  0  0  0  0  0  0  0  0  0  0
    4.6818    1.2167   -0.4338 N   0  0  0  0  0  0  0  0  0  0  0  0
   -4.7576    2.5940   -0.1799 H   0  0  0  0  0  0  0  0  0  0  0  0
   -3.5953    1.8095   -1.3644 H   0  0  0  0  0  0  0  0  0  0  0  0
   -3.0474    2.4090    0.2530 H   0  0  0  0  0  0  0  0  0  0  0  0
   -5.2976    0.5197    0.3820 H   0  0  0  0  0  0  0  0  0  0  0  0
   -4.0225   -0.6907   -1.3350 H   0  0  0  0  0  0  0  0  0  0  0  0
   -4.1212   -1.3906    0.2883 H   0  0  0  0  0  0  0  0  0  0  0  0
   -1.8466    0.3360   -2.0926 H   0  0  0  0  0  0  0  0  0  0  0  0
    0.6272    0.1338   -1.8995 H   0  0  0  0  0  0  0  0  0  0  0  0
    0.1601   -1.8049    1.8749 H   0  0  0  0  0  0  0  0  0  0  0  0
   -2.2444   -1.5921    1.6559 H   0  0  0  0  0  0  0  0  0  0  0  0
    4.4225   -3.0828    0.9372 H   0  0  0  0  0  0  0  0  0  0  0  0
    3.7856    3.0626   -1.0786 H   0  0  0  0  0  0  0  0  0  0  0  0
    5.6946    1.4692   -0.4586 H   0  0  0  0  0  0  0  0  0  0  0  0
  1  2  1  0
  2  3  1  0
  3  4  1  0
  4  5  2  0
  5  6  1  0
  6  7  2  0
  7  8  1  0
  8  9  2  0
  7 10  1  0
 10 11  2  0
 11 12  1  0
 12 13  2  0
 13 14  1  0
 14 15  2  0
 15 16  1  0
 16 17  2  0
 17 18  1  0
  9  4  1  0
 15 10  1  0
 18 14  1  0
  1 19  1  0
  1 20  1  0
  1 21  1  0
  2 22  1  0
  3 23  1  0
  3 24  1  0
  5 25  1  0
  6 26  1  0
  8 27  1  0
  9 28  1  0
 12 29  1  0
 17 30  1  0
 18 31  1  0
M  END
$$$$
