
     RDKit          3D

 67 71  0  0  0  0  0  0  0  0999 V2000
    2.2184   -6.0821    1.8306 C   0  0  0  0  0  0  0  0  0  0  0  0
    1.4754   -5.2399    2.6430 O   0  0  0  0  0  0  0  0  0  0  0  0
    1.7533   -3.9077    2.4710 C   0  0  0  0  0  0  0  0  0  0  0  0
    1.4825   -3.4634    1.0739 C   0  0  0  0  0  0  0  0  0  0  0  0
    1.7775   -2.0314    0.9048 N   0  0  0  0  0  0  0  0  0  0  0  0
    0.7350   -1.1015    1.1211 C   0  0  0  0  0  0  0  0  0  0  0  0
   -0.1339   -0.8220   -0.0989 C   0  0  2  0  0  0  0  0  0  0  0  0
    0.6325   -0.2731   -1.2508 C   0  0  0  0  0  0  0  0  0  0  0  0
   -0.3308   -0.0686   -2.3902 C   0  0  0  0  0  0  0  0  0  0  0  0
   -1.7739   -0.1825   -1.9386 C   0  0  0  0  0  0  0  0  0  0  0  0
   -1.9576    0.6726   -0.7847 N   0  0  0  0  0  0  0  0  0  0  0  0
   -3.3148    0.7044   -0.3379 C   0  0  0  0  0  0  0  0  0  0  0  0
   -3.5506    1.6099    0.8390 C   0  0  0  0  0  0  0  0  0  0  0  0
   -5.0248    1.7250    0.8195 C   0  0  0  0  0  0  0  0  0  0  0  0
   -5.9462    1.9412    1.8120 C   0  0  0  0  0  0  0  0  0  0  0  0
   -7.3127    2.0156    1.5553 C   0  0  0  0  0  0  0  0  0  0  0  0
   -7.7180    1.8631    0.2528 C   0  0  0  0  0  0  0  0  0  0  0  0
   -6.7777    1.6435   -0.7562 C   0  0  0  0  0  0  0  0  0  0  0  0
   -5.4345    1.5724   -0.4878 C   0  0  0  0  0  0  0  0  0  0  0  0
   -4.2538    1.3498   -1.3582 C   0  0  0  0  0  0  0  0  0  0  0  0
   -1.1503    0.2138    0.3264 C   0  0  0  0  0  0  0  0  0  0  0  0
    3.0736   -1.6500    0.5183 C   0  0  0  0  0  0  0  0  0  0  0  0
    3.9622   -2.5364    0.3127 O   0  0  0  0  0  0  0  0  0  0  0  0
    3.5218   -0.2737    0.3223 C   0  0  0  0  0  0  0  0  0  0  0  0
    3.5395    0.6751    1.3207 C   0  0  0  0  0  0  0  0  0  0  0  0
    3.9823    1.9654    1.0517 C   0  0  0  0  0  0  0  0  0  0  0  0
    4.4162    2.3585   -0.1898 C   0  0  0  0  0  0  0  0  0  0  0  0
    4.8488    3.6541   -0.4168 C   0  0  0  0  0  0  0  0  0  0  0  0
    5.2704    3.9939   -1.6726 C   0  0  0  0  0  0  0  0  0  0  0  0
    5.2713    3.0735   -2.7082 C   0  0  0  0  0  0  0  0  0  0  0  0
    4.8363    1.7997   -2.4473 C   0  0  0  0  0  0  0  0  0  0  0  0
    4.4016    1.4096   -1.1975 C   0  0  0  0  0  0  0  0  0  0  0  0
    3.9648    0.1362   -0.9344 C   0  0  0  0  0  0  0  0  0  0  0  0
    1.9540   -7.1563    2.0505 H   0  0  0  0  0  0  0  0  0  0  0  0
    3.3020   -5.9924    2.0157 H   0  0  0  0  0  0  0  0  0  0  0  0
    1.9662   -5.9323    0.7456 H   0  0  0  0  0  0  0  0  0  0  0  0
    1.1068   -3.3443    3.1809 H   0  0  0  0  0  0  0  0  0  0  0  0
    2.8297   -3.7498    2.7670 H   0  0  0  0  0  0  0  0  0  0  0  0
    2.0966   -4.0114    0.3272 H   0  0  0  0  0  0  0  0  0  0  0  0
    0.4190   -3.6208    0.8409 H   0  0  0  0  0  0  0  0  0  0  0  0
    0.0466   -1.4957    1.9095 H   0  0  0  0  0  0  0  0  0  0  0  0
    1.0716   -0.0910    1.4672 H   0  0  0  0  0  0  0  0  0  0  0  0
   -0.7200   -1.7406   -0.3736 H   0  0  0  0  0  0  0  0  0  0  0  0
    1.3856   -1.0142   -1.5391 H   0  0  0  0  0  0  0  0  0  0  0  0
    1.0894    0.6862   -0.9125 H   0  0  0  0  0  0  0  0  0  0  0  0
   -0.1221   -0.8313   -3.1654 H   0  0  0  0  0  0  0  0  0  0  0  0
   -0.1438    0.9447   -2.8239 H   0  0  0  0  0  0  0  0  0  0  0  0
   -2.0890   -1.2209   -1.7894 H   0  0  0  0  0  0  0  0  0  0  0  0
   -2.4033    0.2571   -2.7544 H   0  0  0  0  0  0  0  0  0  0  0  0
   -3.7344   -0.2872   -0.1153 H   0  0  0  0  0  0  0  0  0  0  0  0
   -3.1667    1.1963    1.7922 H   0  0  0  0  0  0  0  0  0  0  0  0
   -3.0706    2.5953    0.6591 H   0  0  0  0  0  0  0  0  0  0  0  0
   -5.6646    2.0650    2.8481 H   0  0  0  0  0  0  0  0  0  0  0  0
   -8.0267    2.1925    2.3764 H   0  0  0  0  0  0  0  0  0  0  0  0
   -8.7745    1.9193    0.0476 H   0  0  0  0  0  0  0  0  0  0  0  0
   -7.1449    1.5319   -1.7576 H   0  0  0  0  0  0  0  0  0  0  0  0
   -3.8716    2.3255   -1.6970 H   0  0  0  0  0  0  0  0  0  0  0  0
   -4.4693    0.6531   -2.1924 H   0  0  0  0  0  0  0  0  0  0  0  0
   -0.6407    1.1413    0.7120 H   0  0  0  0  0  0  0  0  0  0  0  0
   -1.7881   -0.1485    1.1540 H   0  0  0  0  0  0  0  0  0  0  0  0
    3.2228    0.4288    2.3027 H   0  0  0  0  0  0  0  0  0  0  0  0
    4.0055    2.7397    1.8278 H   0  0  0  0  0  0  0  0  0  0  0  0
    4.8495    4.3763    0.3908 H   0  0  0  0  0  0  0  0  0  0  0  0
    5.6113    5.0121   -1.8515 H   0  0  0  0  0  0  0  0  0  0  0  0
    5.6060    3.3578   -3.6917 H   0  0  0  0  0  0  0  0  0  0  0  0
    4.8195    1.0523   -3.2202 H   0  0  0  0  0  0  0  0  0  0  0  0
    3.9643   -0.5834   -1.7366 H   0  0  0  0  0  0  0  0  0  0  0  0
  1  2  1  0
  2  3  1  0
  3  4  1  0
  4  5  1  0
  5  6  1  0
  6  7  1  0
  7  8  1  0
  8  9  1  0
  9 10  1  0
 10 11  1  0
 11 12  1  0
 12 13  1  0
 13 14  1  0
 14 15  2  0
 15 16  1  0
 16 17  2  0
 17 18  1  0
 18 19  2  0
 19 20  1  0
 11 21  1  0
  5 22  1  0
 22 23  2  0
 22 24  1  0
 24 25  2  0
 25 26  1  0
 26 27  2  0
 27 28  1  0
 28 29  2  0
 29 30  1  0
 30 31  2  0
 31 32  1  0
 32 33  2  0
 21  7  1  0
 33 24  1  0
 20 12  1  0
 32 27  1  0
 19 14  1  0
  1 34  1  0
  1 35  1  0
  1 36  1  0
  3 37  1  0
  3 38  1  0
  4 39  1  0
  4 40  1  0
  6 41  1  0
  6 42  1  0
  7 43  1  6
  8 44  1  0
  8 45  1  0
  9 46  1  0
  9 47  1  0
 10 48  1  0
 10 49  1  0
 12 50  1  0
 13 51  1  0
 13 52  1  0
 15 53  1  0
 16 54  1  0
 17 55  1  0
 18 56  1  0
 20 57  1  0
 20 58  1  0
 21 59  1  0
 21 60  1  0
 25 61  1  0
 26 62  1  0
 28 63  1  0
 29 64  1  0
 30 65  1  0
 31 66  1  0
 33 67  1  0
M  END
$$$$
