
     RDKit          3D

 50 52  0  0  0  0  0  0  0  0999 V2000
   -3.8573   -1.0502    1.7069 C   0  0  0  0  0  0  0  0  0  0  0  0
   -3.4100   -0.3045    0.4620 C   0  0  0  0  0  0  0  0  0  0  0  0
   -1.9720   -0.5679    0.2030 C   0  0  0  0  0  0  0  0  0  0  0  0
   -1.0997    0.4502    0.2124 C   0  0  0  0  0  0  0  0  0  0  0  0
   -1.5205    1.8451    0.4613 C   0  0  0  0  0  0  0  0  0  0  0  0
   -2.4435    2.5149   -0.3010 C   0  0  0  0  0  0  0  0  0  0  0  0
   -2.8500    3.8048   -0.0535 C   0  0  0  0  0  0  0  0  0  0  0  0
   -2.2989    4.4673    1.0229 C   0  0  0  0  0  0  0  0  0  0  0  0
   -2.7096    5.7745    1.2758 O   0  0  0  0  0  0  0  0  0  0  0  0
   -1.3630    3.8301    1.8192 C   0  0  0  0  0  0  0  0  0  0  0  0
   -0.9750    2.5361    1.5467 C   0  0  0  0  0  0  0  0  0  0  0  0
    0.3096    0.1628    0.0016 C   0  0  0  0  0  0  0  0  0  0  0  0
    1.0303    0.9699   -0.8483 C   0  0  0  0  0  0  0  0  0  0  0  0
    2.3878    0.7263   -1.0424 C   0  0  0  0  0  0  0  0  0  0  0  0
    3.0463   -0.3031   -0.4101 C   0  0  0  0  0  0  0  0  0  0  0  0
    4.4577   -0.5784   -0.6019 C   0  0  0  0  0  0  0  0  0  0  0  0
    5.2447    0.1178   -1.3971 C   0  0  0  0  0  0  0  0  0  0  0  0
    6.6697   -0.2350   -1.5295 C   0  0  0  0  0  0  0  0  0  0  0  0
    7.1127   -1.2125   -0.8669 O   0  0  0  0  0  0  0  0  0  0  0  0
    7.5102    0.4788   -2.3556 O   0  0  0  0  0  0  0  0  0  0  0  0
    2.3124   -1.0977    0.4345 C   0  0  0  0  0  0  0  0  0  0  0  0
    0.9604   -0.8629    0.6346 C   0  0  0  0  0  0  0  0  0  0  0  0
   -1.5044   -1.8967   -0.1686 C   0  0  0  0  0  0  0  0  0  0  0  0
   -1.7402   -3.0431    0.4889 C   0  0  0  0  0  0  0  0  0  0  0  0
   -1.2801   -4.2748    0.0158 C   0  0  0  0  0  0  0  0  0  0  0  0
   -0.5676   -4.3237   -1.1497 C   0  0  0  0  0  0  0  0  0  0  0  0
   -0.2977   -3.1740   -1.8635 C   0  0  0  0  0  0  0  0  0  0  0  0
   -0.7753   -1.9695   -1.3564 C   0  0  0  0  0  0  0  0  0  0  0  0
   -4.7086   -0.4793    2.2017 H   0  0  0  0  0  0  0  0  0  0  0  0
   -4.3116   -1.9939    1.4046 H   0  0  0  0  0  0  0  0  0  0  0  0
   -3.0461   -1.1329    2.4228 H   0  0  0  0  0  0  0  0  0  0  0  0
   -3.6405    0.7505    0.6089 H   0  0  0  0  0  0  0  0  0  0  0  0
   -4.0429   -0.6383   -0.4089 H   0  0  0  0  0  0  0  0  0  0  0  0
   -2.8780    2.0188   -1.1643 H   0  0  0  0  0  0  0  0  0  0  0  0
   -3.5785    4.3243   -0.6608 H   0  0  0  0  0  0  0  0  0  0  0  0
   -3.6839    6.0346    1.3830 H   0  0  0  0  0  0  0  0  0  0  0  0
   -0.9688    4.4019    2.6467 H   0  0  0  0  0  0  0  0  0  0  0  0
   -0.2390    2.0523    2.1830 H   0  0  0  0  0  0  0  0  0  0  0  0
    0.5645    1.7879   -1.3679 H   0  0  0  0  0  0  0  0  0  0  0  0
    2.9045    1.3772   -1.7093 H   0  0  0  0  0  0  0  0  0  0  0  0
    4.9020   -1.4005   -0.0666 H   0  0  0  0  0  0  0  0  0  0  0  0
    4.8586    0.9522   -1.9611 H   0  0  0  0  0  0  0  0  0  0  0  0
    8.5010    0.4942   -2.1493 H   0  0  0  0  0  0  0  0  0  0  0  0
    2.7939   -1.9195    0.9530 H   0  0  0  0  0  0  0  0  0  0  0  0
    0.4626   -1.5325    1.3323 H   0  0  0  0  0  0  0  0  0  0  0  0
   -2.2792   -3.0575    1.4109 H   0  0  0  0  0  0  0  0  0  0  0  0
   -1.5025   -5.1754    0.5920 H   0  0  0  0  0  0  0  0  0  0  0  0
   -0.1995   -5.2916   -1.5306 H   0  0  0  0  0  0  0  0  0  0  0  0
    0.2634   -3.2584   -2.7701 H   0  0  0  0  0  0  0  0  0  0  0  0
   -0.5486   -1.0988   -1.9544 H   0  0  0  0  0  0  0  0  0  0  0  0
  1  2  1  0
  2  3  1  0
  3  4  2  0
  4  5  1  0
  5  6  2  0
  6  7  1  0
  7  8  2  0
  8  9  1  0
  8 10  1  0
 10 11  2  0
  4 12  1  0
 12 13  2  0
 13 14  1  0
 14 15  2  0
 15 16  1  0
 16 17  2  0
 17 18  1  0
 18 19  2  0
 18 20  1  0
 15 21  1  0
 21 22  2  0
  3 23  1  0
 23 24  2  0
 24 25  1  0
 25 26  2  0
 26 27  1  0
 27 28  2  0
 11  5  1  0
 22 12  1  0
 28 23  1  0
  1 29  1  0
  1 30  1  0
  1 31  1  0
  2 32  1  0
  2 33  1  0
  6 34  1  0
  7 35  1  0
  9 36  1  0
 10 37  1  0
 11 38  1  0
 13 39  1  0
 14 40  1  0
 16 41  1  0
 17 42  1  0
 20 43  1  0
 21 44  1  0
 22 45  1  0
 24 46  1  0
 25 47  1  0
 26 48  1  0
 27 49  1  0
 28 50  1  0
M  END
$$$$
