
     RDKit          3D

 73 78  0  0  0  0  0  0  0  0999 V2000
   -2.4758    7.4643    2.7582 C   0  0  0  0  0  0  0  0  0  0  0  0
   -2.0067    6.2149    2.3639 O   0  0  0  0  0  0  0  0  0  0  0  0
   -1.8116    5.8029    1.0530 C   0  0  0  0  0  0  0  0  0  0  0  0
   -1.3445    4.5409    0.8455 C   0  0  0  0  0  0  0  0  0  0  0  0
   -1.1066    4.0063   -0.4155 C   0  0  0  0  0  0  0  0  0  0  0  0
   -0.6191    2.6836   -0.5688 N   0  0  0  0  0  0  0  0  0  0  0  0
    0.7589    2.2802   -0.6293 C   0  0  0  0  0  0  0  0  0  0  0  0
    1.6787    3.0614   -1.0106 O   0  0  0  0  0  0  0  0  0  0  0  0
    0.8650    0.9260   -0.2045 N   0  0  0  0  0  0  0  0  0  0  0  0
    2.0235    0.1098   -0.1008 C   0  0  0  0  0  0  0  0  0  0  0  0
    1.9780   -1.1989    0.3042 C   0  0  0  0  0  0  0  0  0  0  0  0
    3.1271   -1.9480    0.3911 C   0  0  0  0  0  0  0  0  0  0  0  0
    4.3731   -1.4405    0.0825 C   0  0  0  0  0  0  0  0  0  0  0  0
    5.6030   -2.2222    0.1691 C   0  0  0  0  0  0  0  0  0  0  0  0
    6.7981   -1.5820    0.4857 C   0  0  0  0  0  0  0  0  0  0  0  0
    7.9822   -2.2872    0.5767 C   0  0  0  0  0  0  0  0  0  0  0  0
    8.0268   -3.6500    0.3578 C   0  0  0  0  0  0  0  0  0  0  0  0
    9.2398   -4.4305    0.4404 C   0  0  0  0  0  0  0  0  0  0  0  0
   10.3270   -3.8846    0.7216 O   0  0  0  0  0  0  0  0  0  0  0  0
    9.1997   -5.7867    0.2082 O   0  0  0  0  0  0  0  0  0  0  0  0
    6.8319   -4.2540    0.0471 C   0  0  0  0  0  0  0  0  0  0  0  0
    5.6507   -3.5716   -0.0471 C   0  0  0  0  0  0  0  0  0  0  0  0
    4.4247   -0.1351   -0.3222 C   0  0  0  0  0  0  0  0  0  0  0  0
    3.2554    0.6373   -0.4138 C   0  0  0  0  0  0  0  0  0  0  0  0
   -0.4847    0.5386    0.1104 C   0  0  0  0  0  0  0  0  0  0  0  0
   -0.8513   -0.3765    0.9087 O   0  0  0  0  0  0  0  0  0  0  0  0
   -1.3429    1.4404   -0.6993 C   0  0  0  0  0  0  0  0  0  0  0  0
   -1.3758    0.8948   -2.0971 C   0  0  0  0  0  0  0  0  0  0  0  0
   -1.7793   -0.5815   -1.9684 C   0  0  0  0  0  0  0  0  0  0  0  0
   -2.8894   -0.7213   -1.0440 N   0  0  0  0  0  0  0  0  0  0  0  0
   -3.7081   -1.8054   -1.4770 C   0  0  0  0  0  0  0  0  0  0  0  0
   -4.8778   -2.0649   -0.6468 C   0  0  0  0  0  0  0  0  0  0  0  0
   -6.0954   -1.6855   -1.0684 N   0  0  0  0  0  0  0  0  0  0  0  0
   -7.2095   -1.9012   -0.3409 C   0  0  0  0  0  0  0  0  0  0  0  0
   -7.1459   -2.5288    0.8841 C   0  0  0  0  0  0  0  0  0  0  0  0
   -5.9261   -2.9303    1.3489 C   0  0  0  0  0  0  0  0  0  0  0  0
   -4.7972   -2.6931    0.5745 C   0  0  0  0  0  0  0  0  0  0  0  0
   -3.4873   -3.1249    1.0762 C   0  0  0  0  0  0  0  0  0  0  0  0
   -3.6099    0.5084   -0.9400 C   0  0  0  0  0  0  0  0  0  0  0  0
   -2.7536    1.5349   -0.1863 C   0  0  0  0  0  0  0  0  0  0  0  0
   -1.3674    4.8189   -1.4558 N   0  0  0  0  0  0  0  0  0  0  0  0
   -1.8346    6.0815   -1.2516 C   0  0  0  0  0  0  0  0  0  0  0  0
   -2.0554    6.5721   -0.0190 N   0  0  0  0  0  0  0  0  0  0  0  0
   -2.8419    7.3698    3.8136 H   0  0  0  0  0  0  0  0  0  0  0  0
   -1.6068    8.1746    2.7657 H   0  0  0  0  0  0  0  0  0  0  0  0
   -3.2702    7.7893    2.0626 H   0  0  0  0  0  0  0  0  0  0  0  0
   -1.1281    3.8693    1.6800 H   0  0  0  0  0  0  0  0  0  0  0  0
    1.0316   -1.6404    0.5535 H   0  0  0  0  0  0  0  0  0  0  0  0
    3.1173   -2.9943    0.7115 H   0  0  0  0  0  0  0  0  0  0  0  0
    6.8182   -0.4973    0.6696 H   0  0  0  0  0  0  0  0  0  0  0  0
    8.9011   -1.7733    0.8233 H   0  0  0  0  0  0  0  0  0  0  0  0
    9.9016   -6.4284    0.5810 H   0  0  0  0  0  0  0  0  0  0  0  0
    6.7945   -5.3379   -0.1400 H   0  0  0  0  0  0  0  0  0  0  0  0
    4.7145   -4.0853   -0.2973 H   0  0  0  0  0  0  0  0  0  0  0  0
    5.3983    0.2916   -0.5720 H   0  0  0  0  0  0  0  0  0  0  0  0
    3.4261    1.6447   -0.7409 H   0  0  0  0  0  0  0  0  0  0  0  0
   -0.3624    0.9003   -2.5183 H   0  0  0  0  0  0  0  0  0  0  0  0
   -2.0443    1.4345   -2.7700 H   0  0  0  0  0  0  0  0  0  0  0  0
   -0.8852   -1.0729   -1.4949 H   0  0  0  0  0  0  0  0  0  0  0  0
   -1.9492   -1.0435   -2.9393 H   0  0  0  0  0  0  0  0  0  0  0  0
   -4.0416   -1.5694   -2.5257 H   0  0  0  0  0  0  0  0  0  0  0  0
   -3.0881   -2.7261   -1.5892 H   0  0  0  0  0  0  0  0  0  0  0  0
   -8.1990   -1.5953   -0.6794 H   0  0  0  0  0  0  0  0  0  0  0  0
   -8.0340   -2.7064    1.4762 H   0  0  0  0  0  0  0  0  0  0  0  0
   -5.8190   -3.4354    2.3193 H   0  0  0  0  0  0  0  0  0  0  0  0
   -2.8492   -3.6012    0.3210 H   0  0  0  0  0  0  0  0  0  0  0  0
   -3.6089   -3.8746    1.9069 H   0  0  0  0  0  0  0  0  0  0  0  0
   -2.9687   -2.2552    1.5766 H   0  0  0  0  0  0  0  0  0  0  0  0
   -4.4952    0.3296   -0.2922 H   0  0  0  0  0  0  0  0  0  0  0  0
   -3.9781    0.9016   -1.8964 H   0  0  0  0  0  0  0  0  0  0  0  0
   -2.8536    1.3497    0.8832 H   0  0  0  0  0  0  0  0  0  0  0  0
   -3.2168    2.5202   -0.4029 H   0  0  0  0  0  0  0  0  0  0  0  0
   -2.0501    6.7497   -2.0858 H   0  0  0  0  0  0  0  0  0  0  0  0
  1  2  1  0
  2  3  1  0
  3  4  2  0
  4  5  1  0
  5  6  1  0
  6  7  1  0
  7  8  2  0
  7  9  1  0
  9 10  1  0
 10 11  2  0
 11 12  1  0
 12 13  2  0
 13 14  1  0
 14 15  2  0
 15 16  1  0
 16 17  2  0
 17 18  1  0
 18 19  2  0
 18 20  1  0
 17 21  1  0
 21 22  2  0
 13 23  1  0
 23 24  2  0
  9 25  1  0
 25 26  2  0
 25 27  1  0
 27 28  1  0
 28 29  1  0
 29 30  1  0
 30 31  1  0
 31 32  1  0
 32 33  2  0
 33 34  1  0
 34 35  2  0
 35 36  1  0
 36 37  2  0
 37 38  1  0
 30 39  1  0
 39 40  1  0
  5 41  2  0
 41 42  1  0
 42 43  2  0
 43  3  1  0
 27  6  1  0
 37 32  1  0
 24 10  1  0
 40 27  1  0
 22 14  1  0
  1 44  1  0
  1 45  1  0
  1 46  1  0
  4 47  1  0
 11 48  1  0
 12 49  1  0
 15 50  1  0
 16 51  1  0
 20 52  1  0
 21 53  1  0
 22 54  1  0
 23 55  1  0
 24 56  1  0
 28 57  1  0
 28 58  1  0
 29 59  1  0
 29 60  1  0
 31 61  1  0
 31 62  1  0
 34 63  1  0
 35 64  1  0
 36 65  1  0
 38 66  1  0
 38 67  1  0
 38 68  1  0
 39 69  1  0
 39 70  1  0
 40 71  1  0
 40 72  1  0
 42 73  1  0
M  END
$$$$
