
     RDKit          3D

 59 63  0  0  0  0  0  0  0  0999 V2000
   -2.7806   -1.4940    1.9642 O   0  0  0  0  0  0  0  0  0  0  0  0
   -2.5329   -1.4663    0.7299 C   0  0  0  0  0  0  0  0  0  0  0  0
   -3.5186   -1.6958   -0.2507 N   0  0  0  0  0  0  0  0  0  0  0  0
   -4.8979   -1.9854   -0.0568 C   0  0  0  0  0  0  0  0  0  0  0  0
   -5.8706   -1.0032    0.0231 C   0  0  0  0  0  0  0  0  0  0  0  0
   -5.4831    0.2427   -0.0873 O   0  0  0  0  0  0  0  0  0  0  0  0
   -6.3774    1.2257   -0.0177 C   0  0  0  0  0  0  0  0  0  0  0  0
   -7.7111    0.9025    0.1719 C   0  0  0  0  0  0  0  0  0  0  0  0
   -8.1211   -0.4241    0.2891 C   0  0  0  0  0  0  0  0  0  0  0  0
   -9.3274   -0.7131    0.4605 O   0  0  0  0  0  0  0  0  0  0  0  0
   -7.1640   -1.4270    0.2123 C   0  0  0  0  0  0  0  0  0  0  0  0
   -7.4984   -2.7587    0.3198 C   0  0  0  0  0  0  0  0  0  0  0  0
   -6.4965   -3.7278    0.2355 C   0  0  0  0  0  0  0  0  0  0  0  0
   -5.2013   -3.3415    0.0479 C   0  0  0  0  0  0  0  0  0  0  0  0
   -6.0805    2.6458   -0.1246 C   0  0  0  0  0  0  0  0  0  0  0  0
   -6.4710    3.1917   -1.3067 N   0  0  0  0  0  0  0  0  0  0  0  0
   -6.1686    4.4803   -1.3289 N   0  0  0  0  0  0  0  0  0  0  0  0
   -5.5837    4.7628   -0.1613 N   0  0  0  0  0  0  0  0  0  0  0  0
   -5.5337    3.6635    0.5543 N   0  0  0  0  0  0  0  0  0  0  0  0
   -1.1499   -1.1794    0.3619 C   0  0  0  0  0  0  0  0  0  0  0  0
   -0.2217   -0.9614    1.3724 C   0  0  0  0  0  0  0  0  0  0  0  0
    1.1190   -0.6818    1.0922 C   0  0  0  0  0  0  0  0  0  0  0  0
    1.5259   -0.6219   -0.2276 C   0  0  0  0  0  0  0  0  0  0  0  0
    2.8256   -0.3521   -0.5639 O   0  0  0  0  0  0  0  0  0  0  0  0
    3.3673   -0.2627   -1.8431 C   0  0  0  0  0  0  0  0  0  0  0  0
    4.8550    0.0564   -1.7205 C   0  0  0  0  0  0  0  0  0  0  0  0
    5.5873   -1.0130   -0.9538 C   0  0  0  0  0  0  0  0  0  0  0  0
    7.0631   -0.7028   -0.8285 C   0  0  0  0  0  0  0  0  0  0  0  0
    7.2804    0.5811   -0.1186 C   0  0  0  0  0  0  0  0  0  0  0  0
    7.4126    0.5739    1.2527 C   0  0  0  0  0  0  0  0  0  0  0  0
    7.6193    1.7173    2.0204 C   0  0  0  0  0  0  0  0  0  0  0  0
    7.6923    2.9226    1.3366 C   0  0  0  0  0  0  0  0  0  0  0  0
    7.5624    2.9627   -0.0502 C   0  0  0  0  0  0  0  0  0  0  0  0
    7.3586    1.7854   -0.7477 C   0  0  0  0  0  0  0  0  0  0  0  0
    0.6264   -0.8340   -1.2510 C   0  0  0  0  0  0  0  0  0  0  0  0
   -0.6830   -1.1061   -0.9296 C   0  0  0  0  0  0  0  0  0  0  0  0
   -3.3166   -1.6734   -1.2685 H   0  0  0  0  0  0  0  0  0  0  0  0
   -8.4906    1.6628    0.2372 H   0  0  0  0  0  0  0  0  0  0  0  0
   -8.5525   -2.9803    0.4681 H   0  0  0  0  0  0  0  0  0  0  0  0
   -6.7820   -4.7570    0.3222 H   0  0  0  0  0  0  0  0  0  0  0  0
   -4.4214   -4.1108   -0.0170 H   0  0  0  0  0  0  0  0  0  0  0  0
   -6.3266    5.1875   -2.0737 H   0  0  0  0  0  0  0  0  0  0  0  0
   -0.4604   -0.9907    2.4366 H   0  0  0  0  0  0  0  0  0  0  0  0
    1.8465   -0.5110    1.8827 H   0  0  0  0  0  0  0  0  0  0  0  0
    3.1820   -1.1069   -2.5090 H   0  0  0  0  0  0  0  0  0  0  0  0
    2.9221    0.6379   -2.3502 H   0  0  0  0  0  0  0  0  0  0  0  0
    5.0291    1.0176   -1.2339 H   0  0  0  0  0  0  0  0  0  0  0  0
    5.2238    0.1465   -2.7676 H   0  0  0  0  0  0  0  0  0  0  0  0
    5.1664   -1.0238    0.0757 H   0  0  0  0  0  0  0  0  0  0  0  0
    5.4759   -2.0086   -1.4182 H   0  0  0  0  0  0  0  0  0  0  0  0
    7.5503   -0.6895   -1.8170 H   0  0  0  0  0  0  0  0  0  0  0  0
    7.5333   -1.5031   -0.2261 H   0  0  0  0  0  0  0  0  0  0  0  0
    7.3512   -0.3883    1.7663 H   0  0  0  0  0  0  0  0  0  0  0  0
    7.7106    1.6080    3.0910 H   0  0  0  0  0  0  0  0  0  0  0  0
    7.8562    3.8103    1.9672 H   0  0  0  0  0  0  0  0  0  0  0  0
    7.6262    3.9252   -0.5398 H   0  0  0  0  0  0  0  0  0  0  0  0
    7.2599    1.8370   -1.8265 H   0  0  0  0  0  0  0  0  0  0  0  0
    0.9653   -0.7827   -2.2825 H   0  0  0  0  0  0  0  0  0  0  0  0
   -1.3707   -1.2686   -1.7299 H   0  0  0  0  0  0  0  0  0  0  0  0
  1  2  2  0
  2  3  1  0
  3  4  1  0
  4  5  2  0
  5  6  1  0
  6  7  1  0
  7  8  2  0
  8  9  1  0
  9 10  2  0
  9 11  1  0
 11 12  2  0
 12 13  1  0
 13 14  2  0
  7 15  1  0
 15 16  2  0
 16 17  1  0
 17 18  1  0
 18 19  2  0
  2 20  1  0
 20 21  2  0
 21 22  1  0
 22 23  2  0
 23 24  1  0
 24 25  1  0
 25 26  1  0
 26 27  1  0
 27 28  1  0
 28 29  1  0
 29 30  2  0
 30 31  1  0
 31 32  2  0
 32 33  1  0
 33 34  2  0
 23 35  1  0
 35 36  2  0
 14  4  1  0
 19 15  1  0
 36 20  1  0
 11  5  1  0
 34 29  1  0
  3 37  1  0
  8 38  1  0
 12 39  1  0
 13 40  1  0
 14 41  1  0
 17 42  1  0
 21 43  1  0
 22 44  1  0
 25 45  1  0
 25 46  1  0
 26 47  1  0
 26 48  1  0
 27 49  1  0
 27 50  1  0
 28 51  1  0
 28 52  1  0
 30 53  1  0
 31 54  1  0
 32 55  1  0
 33 56  1  0
 34 57  1  0
 35 58  1  0
 36 59  1  0
M  END
$$$$
