
     RDKit          3D

 61 66  0  0  0  0  0  0  0  0999 V2000
    8.4534   -1.8837   -0.2688 C   0  0  0  0  0  0  0  0  0  0  0  0
    7.3715   -1.2916   -0.9229 C   0  0  0  0  0  0  0  0  0  0  0  0
    6.6633   -0.2574   -0.3437 C   0  0  0  0  0  0  0  0  0  0  0  0
    5.5243    0.3693   -1.0256 C   0  0  0  0  0  0  0  0  0  0  0  0
    5.5206    1.4396   -1.8792 C   0  0  0  0  0  0  0  0  0  0  0  0
    4.2567    1.6538   -2.2528 N   0  0  0  0  0  0  0  0  0  0  0  0
    3.4867    0.7602   -1.6646 N   0  0  0  0  0  0  0  0  0  0  0  0
    2.1393    0.5312   -1.6977 C   0  0  0  0  0  0  0  0  0  0  0  0
    1.5141   -0.4604   -1.0072 C   0  0  0  0  0  0  0  0  0  0  0  0
    0.0720   -0.6431   -1.0938 C   0  0  0  0  0  0  0  0  0  0  0  0
   -0.4746   -1.9022   -0.9704 C   0  0  0  0  0  0  0  0  0  0  0  0
   -1.8279   -2.1248   -1.0462 C   0  0  0  0  0  0  0  0  0  0  0  0
   -2.7266   -1.0671   -1.2552 C   0  0  0  0  0  0  0  0  0  0  0  0
   -4.0490   -1.3449   -1.3243 O   0  0  0  0  0  0  0  0  0  0  0  0
   -5.1651   -0.5668   -1.4902 C   0  0  0  0  0  0  0  0  0  0  0  0
   -5.4576    0.4137   -0.4113 C   0  0  0  0  0  0  0  0  0  0  0  0
   -5.6681   -0.2093    0.8836 N   0  0  0  0  0  0  0  0  0  0  0  0
   -6.8900   -0.9896    0.9094 C   0  0  0  0  0  0  0  0  0  0  0  0
   -8.1044   -0.1740    0.6208 C   0  0  0  0  0  0  0  0  0  0  0  0
   -8.1502    1.1814    1.2268 C   0  0  0  0  0  0  0  0  0  0  0  0
   -6.8391    1.8079    1.5506 C   0  0  0  0  0  0  0  0  0  0  0  0
   -5.7300    0.8609    1.8618 C   0  0  0  0  0  0  0  0  0  0  0  0
   -2.1741    0.1786   -1.3771 C   0  0  0  0  0  0  0  0  0  0  0  0
   -0.8162    0.3868   -1.2988 C   0  0  0  0  0  0  0  0  0  0  0  0
    2.3068   -1.2925   -0.2167 C   0  0  0  0  0  0  0  0  0  0  0  0
    3.6295   -1.0604   -0.1900 N   0  0  0  0  0  0  0  0  0  0  0  0
    4.2224   -0.0565   -0.8955 C   0  0  0  0  0  0  0  0  0  0  0  0
    7.0475    0.1815    0.8998 C   0  0  0  0  0  0  0  0  0  0  0  0
    6.3482    1.2143    1.4887 C   0  0  0  0  0  0  0  0  0  0  0  0
    6.7704    1.6251    2.7430 C   0  0  0  0  0  0  0  0  0  0  0  0
    7.8454    1.0139    3.3573 C   0  0  0  0  0  0  0  0  0  0  0  0
    8.5261   -0.0019    2.7676 N   0  0  0  0  0  0  0  0  0  0  0  0
    8.1282   -0.4125    1.5497 C   0  0  0  0  0  0  0  0  0  0  0  0
    8.8356   -1.4458    0.9709 C   0  0  0  0  0  0  0  0  0  0  0  0
    9.0115   -2.6921   -0.7170 H   0  0  0  0  0  0  0  0  0  0  0  0
    7.0994   -1.6628   -1.8986 H   0  0  0  0  0  0  0  0  0  0  0  0
    6.4199    1.9979   -2.1799 H   0  0  0  0  0  0  0  0  0  0  0  0
    1.5469    1.2047   -2.3289 H   0  0  0  0  0  0  0  0  0  0  0  0
    0.2109   -2.7272   -0.8089 H   0  0  0  0  0  0  0  0  0  0  0  0
   -2.2563   -3.1269   -0.9474 H   0  0  0  0  0  0  0  0  0  0  0  0
   -6.0502   -1.2339   -1.7082 H   0  0  0  0  0  0  0  0  0  0  0  0
   -5.1136    0.0522   -2.4494 H   0  0  0  0  0  0  0  0  0  0  0  0
   -6.3360    1.0189   -0.7224 H   0  0  0  0  0  0  0  0  0  0  0  0
   -4.6333    1.1151   -0.2820 H   0  0  0  0  0  0  0  0  0  0  0  0
   -6.8368   -1.8360    0.2256 H   0  0  0  0  0  0  0  0  0  0  0  0
   -6.9850   -1.3945    1.9412 H   0  0  0  0  0  0  0  0  0  0  0  0
   -8.1760   -0.0306   -0.4970 H   0  0  0  0  0  0  0  0  0  0  0  0
   -9.0489   -0.7069    0.8854 H   0  0  0  0  0  0  0  0  0  0  0  0
   -8.7961    1.8604    0.5890 H   0  0  0  0  0  0  0  0  0  0  0  0
   -8.7426    1.1077    2.1877 H   0  0  0  0  0  0  0  0  0  0  0  0
   -6.9619    2.4854    2.4480 H   0  0  0  0  0  0  0  0  0  0  0  0
   -6.4782    2.4870    0.7389 H   0  0  0  0  0  0  0  0  0  0  0  0
   -4.7566    1.3746    1.8773 H   0  0  0  0  0  0  0  0  0  0  0  0
   -5.9508    0.3684    2.8537 H   0  0  0  0  0  0  0  0  0  0  0  0
   -2.7704    1.0568   -1.5584 H   0  0  0  0  0  0  0  0  0  0  0  0
   -0.4267    1.3839   -1.4003 H   0  0  0  0  0  0  0  0  0  0  0  0
    1.8103   -2.0763    0.3286 H   0  0  0  0  0  0  0  0  0  0  0  0
    5.5096    1.6642    0.9678 H   0  0  0  0  0  0  0  0  0  0  0  0
    6.2697    2.4207    3.2512 H   0  0  0  0  0  0  0  0  0  0  0  0
    8.1711    1.3473    4.3487 H   0  0  0  0  0  0  0  0  0  0  0  0
    9.6808   -1.8918    1.5093 H   0  0  0  0  0  0  0  0  0  0  0  0
  1  2  2  0
  2  3  1  0
  3  4  1  0
  4  5  1  0
  5  6  2  0
  6  7  1  0
  7  8  1  0
  8  9  2  0
  9 10  1  0
 10 11  2  0
 11 12  1  0
 12 13  2  0
 13 14  1  0
 14 15  1  0
 15 16  1  0
 16 17  1  0
 17 18  1  0
 18 19  1  0
 19 20  1  0
 20 21  1  0
 21 22  1  0
 13 23  1  0
 23 24  2  0
  9 25  1  0
 25 26  2  0
 26 27  1  0
  3 28  2  0
 28 29  1  0
 29 30  2  0
 30 31  1  0
 31 32  2  0
 32 33  1  0
 33 34  2  0
 34  1  1  0
 27  4  2  0
 33 28  1  0
 27  7  1  0
 24 10  1  0
 22 17  1  0
  1 35  1  0
  2 36  1  0
  5 37  1  0
  8 38  1  0
 11 39  1  0
 12 40  1  0
 15 41  1  0
 15 42  1  0
 16 43  1  0
 16 44  1  0
 18 45  1  0
 18 46  1  0
 19 47  1  0
 19 48  1  0
 20 49  1  0
 20 50  1  0
 21 51  1  0
 21 52  1  0
 22 53  1  0
 22 54  1  0
 23 55  1  0
 24 56  1  0
 25 57  1  0
 29 58  1  0
 30 59  1  0
 31 60  1  0
 34 61  1  0
M  END
$$$$
