
     RDKit          3D

 52 54  0  0  0  0  0  0  0  0999 V2000
    7.7658   -1.9408    2.5374 C   0  0  0  0  0  0  0  0  0  0  0  0
    6.5410   -1.6509    2.9259 C   0  0  0  0  0  0  0  0  0  0  0  0
    5.5002   -1.2996    2.0033 C   0  0  0  0  0  0  0  0  0  0  0  0
    4.3299   -1.0281    2.4371 O   0  0  0  0  0  0  0  0  0  0  0  0
    5.6514   -1.2218    0.6030 N   0  0  0  0  0  0  0  0  0  0  0  0
    4.5826   -0.8679   -0.2646 C   0  0  0  0  0  0  0  0  0  0  0  0
    4.3803    0.4652   -0.5791 C   0  0  0  0  0  0  0  0  0  0  0  0
    3.3454    0.8719   -1.4263 C   0  0  0  0  0  0  0  0  0  0  0  0
    2.5000   -0.0648   -1.9675 C   0  0  0  0  0  0  0  0  0  0  0  0
    1.1960    0.4612   -3.0323 S   0  0  0  0  0  6  0  0  0  0  0  0
    0.9043   -0.7216   -3.9385 O   0  0  0  0  0  0  0  0  0  0  0  0
    1.5898    1.6492   -3.8454 O   0  0  0  0  0  0  0  0  0  0  0  0
   -0.2188    0.7585   -2.1163 N   0  0  0  0  0  0  0  0  0  0  0  0
   -0.6897   -0.3979   -1.4482 C   0  0  0  0  0  0  0  0  0  0  0  0
   -1.9899   -0.2936   -0.7369 C   0  0  0  0  0  0  0  0  0  0  0  0
   -2.1138    1.0226   -0.1695 N   0  0  0  0  0  0  0  0  0  0  0  0
   -3.3754    1.4867    0.2384 C   0  0  0  0  0  0  0  0  0  0  0  0
   -3.4358    2.6610    0.7434 O   0  0  0  0  0  0  0  0  0  0  0  0
   -4.6418    0.7160    0.1265 C   0  0  0  0  0  0  0  0  0  0  0  0
   -5.8140    1.4914    0.6575 C   0  0  0  0  0  0  0  0  0  0  0  0
   -6.3408    0.6273    1.7967 C   0  0  0  0  0  0  0  0  0  0  0  0
   -6.0366   -0.7769    1.3149 C   0  0  0  0  0  0  0  0  0  0  0  0
   -4.6092   -0.6182    0.7932 C   0  0  0  0  0  0  0  0  0  0  0  0
   -0.9468    1.8359   -0.0339 C   0  0  0  0  0  0  0  0  0  0  0  0
   -0.1540    1.9440   -1.3138 C   0  0  0  0  0  0  0  0  0  0  0  0
    2.6868   -1.3946   -1.6655 C   0  0  0  0  0  0  0  0  0  0  0  0
    3.7175   -1.7814   -0.8240 C   0  0  0  0  0  0  0  0  0  0  0  0
    8.0272   -1.9215    1.4883 H   0  0  0  0  0  0  0  0  0  0  0  0
    8.5494   -2.2047    3.2287 H   0  0  0  0  0  0  0  0  0  0  0  0
    6.3313   -1.6851    3.9947 H   0  0  0  0  0  0  0  0  0  0  0  0
    6.5667   -1.4261    0.1701 H   0  0  0  0  0  0  0  0  0  0  0  0
    5.0502    1.1974   -0.1485 H   0  0  0  0  0  0  0  0  0  0  0  0
    3.2262    1.9251   -1.6446 H   0  0  0  0  0  0  0  0  0  0  0  0
    0.0773   -0.7796   -0.7465 H   0  0  0  0  0  0  0  0  0  0  0  0
   -0.7988   -1.2096   -2.2240 H   0  0  0  0  0  0  0  0  0  0  0  0
   -2.7998   -0.4725   -1.5055 H   0  0  0  0  0  0  0  0  0  0  0  0
   -2.0773   -1.0637    0.0698 H   0  0  0  0  0  0  0  0  0  0  0  0
   -4.8229    0.5469   -0.9683 H   0  0  0  0  0  0  0  0  0  0  0  0
   -5.5595    2.5031    1.0169 H   0  0  0  0  0  0  0  0  0  0  0  0
   -6.6366    1.6046   -0.0776 H   0  0  0  0  0  0  0  0  0  0  0  0
   -7.4246    0.7796    1.9572 H   0  0  0  0  0  0  0  0  0  0  0  0
   -5.7229    0.8282    2.6749 H   0  0  0  0  0  0  0  0  0  0  0  0
   -6.0301   -1.5230    2.1090 H   0  0  0  0  0  0  0  0  0  0  0  0
   -6.7183   -1.0591    0.4744 H   0  0  0  0  0  0  0  0  0  0  0  0
   -3.9352   -0.6867    1.6660 H   0  0  0  0  0  0  0  0  0  0  0  0
   -4.4292   -1.4341    0.0602 H   0  0  0  0  0  0  0  0  0  0  0  0
   -1.1200    2.8333    0.3945 H   0  0  0  0  0  0  0  0  0  0  0  0
   -0.2721    1.3024    0.6997 H   0  0  0  0  0  0  0  0  0  0  0  0
    0.9011    2.1980   -1.1298 H   0  0  0  0  0  0  0  0  0  0  0  0
   -0.5972    2.7707   -1.9057 H   0  0  0  0  0  0  0  0  0  0  0  0
    2.0324   -2.1337   -2.0828 H   0  0  0  0  0  0  0  0  0  0  0  0
    3.8584   -2.8224   -0.5925 H   0  0  0  0  0  0  0  0  0  0  0  0
  1  2  2  3
  2  3  1  0
  3  4  2  0
  3  5  1  0
  5  6  1  0
  6  7  2  0
  7  8  1  0
  8  9  2  0
  9 10  1  0
 10 11  2  0
 10 12  2  0
 10 13  1  0
 13 14  1  0
 14 15  1  0
 15 16  1  0
 16 17  1  0
 17 18  2  0
 17 19  1  0
 19 20  1  0
 20 21  1  0
 21 22  1  0
 22 23  1  0
 16 24  1  0
 24 25  1  0
  9 26  1  0
 26 27  2  0
 27  6  1  0
 25 13  1  0
 23 19  1  0
  1 28  1  0
  1 29  1  0
  2 30  1  0
  5 31  1  0
  7 32  1  0
  8 33  1  0
 14 34  1  0
 14 35  1  0
 15 36  1  0
 15 37  1  0
 19 38  1  0
 20 39  1  0
 20 40  1  0
 21 41  1  0
 21 42  1  0
 22 43  1  0
 22 44  1  0
 23 45  1  0
 23 46  1  0
 24 47  1  0
 24 48  1  0
 25 49  1  0
 25 50  1  0
 26 51  1  0
 27 52  1  0
M  END
$$$$
