
     RDKit          3D

 44 46  0  0  0  0  0  0  0  0999 V2000
   -4.3233   -0.0556    1.9760 C   0  0  0  0  0  0  0  0  0  0  0  0
   -3.5421    0.1581    0.8350 O   0  0  0  0  0  0  0  0  0  0  0  0
   -2.1380    0.0145    0.8548 C   0  0  0  0  0  0  0  0  0  0  0  0
   -1.5131   -0.3477    2.0336 C   0  0  0  0  0  0  0  0  0  0  0  0
   -0.1377   -0.5034    2.1115 C   0  0  0  0  0  0  0  0  0  0  0  0
    0.6696   -0.3037    1.0147 C   0  0  0  0  0  0  0  0  0  0  0  0
    2.1239   -0.4653    1.0831 C   0  0  0  0  0  0  0  0  0  0  0  0
    2.8447   -0.2644    0.0541 O   0  0  0  0  0  0  0  0  0  0  0  0
    2.8207   -0.8426    2.2483 N   0  0  0  0  0  0  0  0  0  0  0  0
    4.2401   -0.9935    2.2884 C   0  0  0  0  0  0  0  0  0  0  0  0
    4.9899    0.1094    2.6271 C   0  0  0  0  0  0  0  0  0  0  0  0
    4.2827    1.6635    3.0032 Cl  0  0  0  0  0  0  0  0  0  0  0  0
    6.3779   -0.0062    2.6765 C   0  0  0  0  0  0  0  0  0  0  0  0
    7.0191   -1.1906    2.3964 C   0  0  0  0  0  0  0  0  0  0  0  0
    6.2539   -2.3092    2.0524 C   0  0  0  0  0  0  0  0  0  0  0  0
    4.8766   -2.1808    2.0072 C   0  0  0  0  0  0  0  0  0  0  0  0
    3.8588   -3.5564    1.5794 Cl  0  0  0  0  0  0  0  0  0  0  0  0
    0.0391    0.0545   -0.1468 C   0  0  0  0  0  0  0  0  0  0  0  0
   -1.3569    0.2198   -0.2537 C   0  0  0  0  0  0  0  0  0  0  0  0
   -1.8811    0.5751   -1.4458 O   0  0  0  0  0  0  0  0  0  0  0  0
   -3.1284    0.8250   -1.9308 C   0  0  0  0  0  0  0  0  0  0  0  0
   -3.3405   -0.0917   -3.1479 C   0  0  0  0  0  0  0  0  0  0  0  0
   -3.3101    0.7673   -4.3650 C   0  0  0  0  0  0  0  0  0  0  0  0
   -2.5687    2.0079   -3.8795 C   0  0  0  0  0  0  0  0  0  0  0  0
   -3.2594    2.2177   -2.5499 C   0  0  0  0  0  0  0  0  0  0  0  0
   -5.3651    0.1637    1.7487 H   0  0  0  0  0  0  0  0  0  0  0  0
   -4.1942   -1.1216    2.3015 H   0  0  0  0  0  0  0  0  0  0  0  0
   -3.9026    0.5736    2.8108 H   0  0  0  0  0  0  0  0  0  0  0  0
   -2.1649   -0.5047    2.9013 H   0  0  0  0  0  0  0  0  0  0  0  0
    0.3127   -0.7901    3.0617 H   0  0  0  0  0  0  0  0  0  0  0  0
    2.2862   -1.0231    3.1319 H   0  0  0  0  0  0  0  0  0  0  0  0
    6.9637    0.8732    2.9463 H   0  0  0  0  0  0  0  0  0  0  0  0
    8.1092   -1.2920    2.4322 H   0  0  0  0  0  0  0  0  0  0  0  0
    6.7042   -3.2602    1.8234 H   0  0  0  0  0  0  0  0  0  0  0  0
    0.6497    0.2220   -1.0402 H   0  0  0  0  0  0  0  0  0  0  0  0
   -3.9956    0.7123   -1.2717 H   0  0  0  0  0  0  0  0  0  0  0  0
   -4.3093   -0.6145   -3.0761 H   0  0  0  0  0  0  0  0  0  0  0  0
   -2.5181   -0.8393   -3.2357 H   0  0  0  0  0  0  0  0  0  0  0  0
   -4.3453    1.1357   -4.6215 H   0  0  0  0  0  0  0  0  0  0  0  0
   -2.8147    0.3127   -5.2423 H   0  0  0  0  0  0  0  0  0  0  0  0
   -1.5059    1.7172   -3.7750 H   0  0  0  0  0  0  0  0  0  0  0  0
   -2.7229    2.8628   -4.5686 H   0  0  0  0  0  0  0  0  0  0  0  0
   -4.3190    2.3886   -2.7474 H   0  0  0  0  0  0  0  0  0  0  0  0
   -2.7659    2.9822   -1.9213 H   0  0  0  0  0  0  0  0  0  0  0  0
  1  2  1  0
  2  3  1  0
  3  4  2  0
  4  5  1  0
  5  6  2  0
  6  7  1  0
  7  8  2  0
  7  9  1  0
  9 10  1  0
 10 11  2  0
 11 12  1  0
 11 13  1  0
 13 14  2  0
 14 15  1  0
 15 16  2  0
 16 17  1  0
  6 18  1  0
 18 19  2  0
 19 20  1  0
 20 21  1  0
 21 22  1  0
 22 23  1  0
 23 24  1  0
 24 25  1  0
 19  3  1  0
 25 21  1  0
 16 10  1  0
  1 26  1  0
  1 27  1  0
  1 28  1  0
  4 29  1  0
  5 30  1  0
  9 31  1  0
 13 32  1  0
 14 33  1  0
 15 34  1  0
 18 35  1  0
 21 36  1  0
 22 37  1  0
 22 38  1  0
 23 39  1  0
 23 40  1  0
 24 41  1  0
 24 42  1  0
 25 43  1  0
 25 44  1  0
M  END
$$$$
