
     RDKit          3D

 76 80  0  0  0  0  0  0  0  0999 V2000
   -3.7087   -1.3042    0.9719 C   0  0  1  0  0  0  0  0  0  0  0  0
   -2.2363   -1.0670    0.9798 C   0  0  0  0  0  0  0  0  0  0  0  0
   -1.9559   -0.3337    2.1553 O   0  0  0  0  0  0  0  0  0  0  0  0
   -0.2722   -0.0387    2.1977 P   0  0  0  0  0  0  0  0  0  0  0  0
    0.0691    1.2816    1.1998 O   0  0  0  0  0  1  0  0  0  0  0  0
    0.1766    0.2625    3.6084 O   0  0  0  0  0  0  0  0  0  0  0  0
    0.4710   -1.4222    1.5764 O   0  0  0  0  0  0  0  0  0  0  0  0
    1.4708   -0.9859    0.3118 P   0  0  0  0  0  0  0  0  0  0  0  0
    0.6140   -0.8639   -1.1557 O   0  0  0  0  0  0  0  0  0  0  0  0
    2.4746   -2.1007    0.1098 O   0  0  0  0  0  0  0  0  0  0  0  0
    2.2705    0.4749    0.6108 O   0  0  0  0  0  0  0  0  0  0  0  0
    3.6055    0.2061    0.8082 C   0  0  0  0  0  0  0  0  0  0  0  0
    4.4241    1.4638    1.0845 C   0  0  1  0  0  0  0  0  0  0  0  0
    5.7222    1.0782    1.2632 O   0  0  0  0  0  0  0  0  0  0  0  0
    6.4377    1.3136    0.1076 C   0  0  1  0  0  0  0  0  0  0  0  0
    7.4196    0.2994   -0.1907 N   0  0  0  0  0  4  0  0  0  0  0  0
    7.0875   -0.8384   -0.8560 C   0  0  0  0  0  0  0  0  0  0  0  0
    8.0862   -1.7523   -1.0984 C   0  0  0  0  0  0  0  0  0  0  0  0
    9.4043   -1.6090   -0.7201 C   0  0  0  0  0  0  0  0  0  0  0  0
    9.7333   -0.4452   -0.0421 C   0  0  0  0  0  0  0  0  0  0  0  0
    8.7074    0.4410    0.1797 C   0  0  0  0  0  0  0  0  0  0  0  0
   11.0921   -0.1696    0.4141 C   0  0  0  0  0  0  0  0  0  0  0  0
   12.0713   -1.1370    0.1396 O   0  0  0  0  0  0  0  0  0  0  0  0
   11.5524    0.8494    1.0475 N   0  0  0  0  0  0  0  0  0  0  0  0
    5.4700    1.5884   -0.9938 C   0  0  2  0  0  0  0  0  0  0  0  0
    5.9330    2.5442   -1.8946 O   0  0  0  0  0  0  0  0  0  0  0  0
    4.3489    2.2757   -0.2023 C   0  0  2  0  0  0  0  0  0  0  0  0
    4.7487    3.5652    0.1084 O   0  0  0  0  0  0  0  0  0  0  0  0
   -4.4382   -0.0955    0.9675 O   0  0  0  0  0  0  0  0  0  0  0  0
   -5.7250   -0.5896    0.8348 C   0  0  1  0  0  0  0  0  0  0  0  0
   -6.7181    0.4509    0.7480 N   0  0  0  0  0  0  0  0  0  0  0  0
   -7.0036    1.1400    1.8754 C   0  0  0  0  0  0  0  0  0  0  0  0
   -6.3021    0.9890    3.6624 Br  0  0  0  0  0  0  0  0  0  0  0  0
   -7.9430    2.0477    1.5671 N   0  0  0  0  0  0  0  0  0  0  0  0
   -8.2616    1.9556    0.2807 C   0  0  0  0  0  0  0  0  0  0  0  0
   -9.1405    2.6194   -0.5553 C   0  0  0  0  0  0  0  0  0  0  0  0
   -9.9287    3.6577    0.0033 N   0  0  0  0  0  0  0  0  0  0  0  0
   -9.1869    2.2318   -1.8483 N   0  0  0  0  0  0  0  0  0  0  0  0
   -8.3968    1.2240   -2.3111 C   0  0  0  0  0  0  0  0  0  0  0  0
   -7.5340    0.5745   -1.4838 N   0  0  0  0  0  0  0  0  0  0  0  0
   -7.4825    0.9503   -0.2096 C   0  0  0  0  0  0  0  0  0  0  0  0
   -5.6545   -1.4818   -0.3456 C   0  0  2  0  0  0  0  0  0  0  0  0
   -6.4597   -2.5964   -0.1262 O   0  0  0  0  0  0  0  0  0  0  0  0
   -7.4406   -2.9829   -1.4244 P   0  0  0  0  0  0  0  0  0  0  0  0
   -9.0243   -2.5236   -1.0665 O   0  0  0  0  0  0  0  0  0  0  0  0
   -6.9114   -2.2618   -2.8545 O   0  0  0  0  0  0  0  0  0  0  0  0
   -7.4488   -4.4921   -1.6491 O   0  0  0  0  0  0  0  0  0  0  0  0
   -4.1928   -1.9493   -0.3098 C   0  0  2  0  0  0  0  0  0  0  0  0
   -4.1241   -3.3272   -0.0988 O   0  0  0  0  0  0  0  0  0  0  0  0
   -4.0291   -1.8653    1.8510 H   0  0  0  0  0  0  0  0  0  0  0  0
   -1.7395   -2.0467    0.9839 H   0  0  0  0  0  0  0  0  0  0  0  0
   -1.8922   -0.4760    0.1302 H   0  0  0  0  0  0  0  0  0  0  0  0
    1.2244   -1.0086   -1.9187 H   0  0  0  0  0  0  0  0  0  0  0  0
    3.9975   -0.3273   -0.0806 H   0  0  0  0  0  0  0  0  0  0  0  0
    3.7269   -0.4913    1.6709 H   0  0  0  0  0  0  0  0  0  0  0  0
    4.0153    2.0300    1.9236 H   0  0  0  0  0  0  0  0  0  0  0  0
    7.0002    2.2741    0.2814 H   0  0  0  0  0  0  0  0  0  0  0  0
    6.0889   -1.0216   -1.1813 H   0  0  0  0  0  0  0  0  0  0  0  0
    7.8397   -2.6764   -1.6334 H   0  0  0  0  0  0  0  0  0  0  0  0
   10.1578   -2.3509   -0.9301 H   0  0  0  0  0  0  0  0  0  0  0  0
    8.9349    1.3735    0.7148 H   0  0  0  0  0  0  0  0  0  0  0  0
   13.0397   -0.8591    0.0093 H   0  0  0  0  0  0  0  0  0  0  0  0
   10.8809    1.6113    1.2867 H   0  0  0  0  0  0  0  0  0  0  0  0
    5.0457    0.7092   -1.4902 H   0  0  0  0  0  0  0  0  0  0  0  0
    6.8570    2.8388   -1.6790 H   0  0  0  0  0  0  0  0  0  0  0  0
    3.3822    2.1945   -0.7022 H   0  0  0  0  0  0  0  0  0  0  0  0
    5.3600    3.9481   -0.5656 H   0  0  0  0  0  0  0  0  0  0  0  0
   -5.9112   -1.2370    1.7292 H   0  0  0  0  0  0  0  0  0  0  0  0
   -9.7520    4.6458    0.3013 H   0  0  0  0  0  0  0  0  0  0  0  0
  -10.8875    3.2275    0.0959 H   0  0  0  0  0  0  0  0  0  0  0  0
   -8.5204    1.0006   -3.3646 H   0  0  0  0  0  0  0  0  0  0  0  0
   -5.7883   -1.0346   -1.3274 H   0  0  0  0  0  0  0  0  0  0  0  0
   -9.1756   -2.6434   -0.1077 H   0  0  0  0  0  0  0  0  0  0  0  0
   -7.6373   -1.8185   -3.3371 H   0  0  0  0  0  0  0  0  0  0  0  0
   -3.6220   -1.6435   -1.1867 H   0  0  0  0  0  0  0  0  0  0  0  0
   -4.4965   -3.4699    0.8230 H   0  0  0  0  0  0  0  0  0  0  0  0
  1  2  1  0
  2  3  1  0
  3  4  1  0
  4  5  1  0
  4  6  2  0
  4  7  1  0
  7  8  1  0
  8  9  1  0
  8 10  2  0
  8 11  1  0
 11 12  1  0
 12 13  1  0
 13 14  1  0
 14 15  1  0
 15 16  1  0
 16 17  2  0
 17 18  1  0
 18 19  2  0
 19 20  1  0
 20 21  2  0
 20 22  1  0
 22 23  1  0
 22 24  2  3
 15 25  1  0
 25 26  1  0
 25 27  1  0
 27 28  1  0
  1 29  1  0
 29 30  1  0
 30 31  1  0
 31 32  1  0
 32 33  1  0
 32 34  2  0
 34 35  1  0
 35 36  2  0
 36 37  1  0
 36 38  1  0
 38 39  2  0
 39 40  1  0
 40 41  2  0
 30 42  1  0
 42 43  1  0
 43 44  1  0
 44 45  1  0
 44 46  1  0
 44 47  2  0
 42 48  1  0
 48 49  1  0
 48  1  1  0
 27 13  1  0
 41 31  1  0
 21 16  1  0
 41 35  1  0
  1 50  1  1
  2 51  1  0
  2 52  1  0
  9 53  1  0
 12 54  1  0
 12 55  1  0
 13 56  1  1
 15 57  1  1
 17 58  1  0
 18 59  1  0
 19 60  1  0
 21 61  1  0
 23 62  1  0
 24 63  1  0
 25 64  1  6
 26 65  1  0
 27 66  1  6
 28 67  1  0
 30 68  1  1
 37 69  1  0
 37 70  1  0
 39 71  1  0
 42 72  1  6
 45 73  1  0
 46 74  1  0
 48 75  1  6
 49 76  1  0
M  CHG  2   5  -1  16   1
M  END
$$$$
