
     RDKit          3D

 56 58  0  0  0  0  0  0  0  0999 V2000
    0.4408   -3.6985   -0.8256 C   0  0  0  0  0  0  0  0  0  0  0  0
    0.6031   -2.3721   -1.6039 C   0  0  0  0  0  0  0  0  0  0  0  0
    1.1533   -2.7384   -2.9620 C   0  0  0  0  0  0  0  0  0  0  0  0
    1.6571   -1.6124   -0.8600 C   0  0  0  0  0  0  0  0  0  0  0  0
    2.9863   -2.0439   -0.9770 C   0  0  0  0  0  0  0  0  0  0  0  0
    3.8952   -1.4077   -0.2518 N   0  0  0  0  0  0  0  0  0  0  0  0
    3.6116   -0.3651    0.5949 C   0  0  0  0  0  0  0  0  0  0  0  0
    4.7243    0.2250    1.3206 C   0  0  0  0  0  0  0  0  0  0  0  0
    6.0087   -0.3024    1.1074 C   0  0  0  0  0  0  0  0  0  0  0  0
    7.0931    0.2119    1.7622 C   0  0  0  0  0  0  0  0  0  0  0  0
    8.6834   -0.4933    1.4527 Cl  0  0  0  0  0  0  0  0  0  0  0  0
    6.9644    1.2475    2.6385 C   0  0  0  0  0  0  0  0  0  0  0  0
    5.7368    1.7902    2.8760 C   0  0  0  0  0  0  0  0  0  0  0  0
    4.6190    1.2606    2.2014 C   0  0  0  0  0  0  0  0  0  0  0  0
    3.4298    1.8413    2.4798 F   0  0  0  0  0  0  0  0  0  0  0  0
    2.3260    0.0688    0.7205 C   0  0  0  0  0  0  0  0  0  0  0  0
    1.3359   -0.5834   -0.0361 C   0  0  0  0  0  0  0  0  0  0  0  0
   -0.0125   -0.0853    0.1432 N   0  0  0  0  0  0  0  0  0  0  0  0
   -0.6448    0.5704   -0.9300 C   0  0  0  0  0  0  0  0  0  0  0  0
    0.1056    0.7939   -2.0916 C   0  0  0  0  0  0  0  0  0  0  0  0
   -0.4429    1.4221   -3.1671 C   0  0  0  0  0  0  0  0  0  0  0  0
   -1.7171    1.8299   -3.1086 N   0  0  0  0  0  0  0  0  0  0  0  0
   -2.4667    1.6358   -2.0194 C   0  0  0  0  0  0  0  0  0  0  0  0
   -1.9450    1.0003   -0.9046 C   0  0  0  0  0  0  0  0  0  0  0  0
   -2.7698    0.7831    0.2791 C   0  0  0  0  0  0  0  0  0  0  0  0
   -2.4027    0.2036    1.3258 O   0  0  0  0  0  0  0  0  0  0  0  0
   -4.1389    1.2351    0.3533 N   0  0  0  0  0  0  0  0  0  0  0  0
   -4.9709    1.0270    1.5217 C   0  0  0  0  0  0  0  0  0  0  0  0
   -6.1560    0.1872    1.1481 C   0  0  0  0  0  0  0  0  0  0  0  0
   -6.9368    0.7864    0.1636 O   0  0  0  0  0  0  0  0  0  0  0  0
   -5.4454    2.3193    2.1324 C   0  0  0  0  0  0  0  0  0  0  0  0
   -6.2293    1.9855    3.2391 O   0  0  0  0  0  0  0  0  0  0  0  0
    0.6756   -3.5435    0.2487 H   0  0  0  0  0  0  0  0  0  0  0  0
   -0.5762   -4.0995   -0.9511 H   0  0  0  0  0  0  0  0  0  0  0  0
    1.1478   -4.4575   -1.2012 H   0  0  0  0  0  0  0  0  0  0  0  0
   -0.3579   -1.8563   -1.6358 H   0  0  0  0  0  0  0  0  0  0  0  0
    1.7082   -3.6895   -2.8873 H   0  0  0  0  0  0  0  0  0  0  0  0
    1.7627   -1.9122   -3.3803 H   0  0  0  0  0  0  0  0  0  0  0  0
    0.2653   -2.9634   -3.6177 H   0  0  0  0  0  0  0  0  0  0  0  0
    3.1847   -2.8562   -1.6412 H   0  0  0  0  0  0  0  0  0  0  0  0
    6.1521   -1.1359    0.4097 H   0  0  0  0  0  0  0  0  0  0  0  0
    7.8536    1.6320    3.1429 H   0  0  0  0  0  0  0  0  0  0  0  0
    5.6061    2.6096    3.5637 H   0  0  0  0  0  0  0  0  0  0  0  0
    2.0192    0.8826    1.3645 H   0  0  0  0  0  0  0  0  0  0  0  0
   -0.3837   -0.2645    1.0762 H   0  0  0  0  0  0  0  0  0  0  0  0
    1.1215    0.4647   -2.1277 H   0  0  0  0  0  0  0  0  0  0  0  0
    0.1251    1.6103   -4.0927 H   0  0  0  0  0  0  0  0  0  0  0  0
   -3.4694    1.9744   -2.0171 H   0  0  0  0  0  0  0  0  0  0  0  0
   -4.5672    1.7265   -0.4367 H   0  0  0  0  0  0  0  0  0  0  0  0
   -4.3825    0.4924    2.2824 H   0  0  0  0  0  0  0  0  0  0  0  0
   -5.7502   -0.7775    0.7432 H   0  0  0  0  0  0  0  0  0  0  0  0
   -6.7778   -0.0967    2.0140 H   0  0  0  0  0  0  0  0  0  0  0  0
   -6.5717    1.6526   -0.0720 H   0  0  0  0  0  0  0  0  0  0  0  0
   -6.0890    2.9156    1.4539 H   0  0  0  0  0  0  0  0  0  0  0  0
   -4.6005    2.9295    2.5286 H   0  0  0  0  0  0  0  0  0  0  0  0
   -7.1916    2.0399    3.0115 H   0  0  0  0  0  0  0  0  0  0  0  0
  1  2  1  0
  2  3  1  0
  2  4  1  0
  4  5  2  0
  5  6  1  0
  6  7  2  0
  7  8  1  0
  8  9  2  0
  9 10  1  0
 10 11  1  0
 10 12  2  0
 12 13  1  0
 13 14  2  0
 14 15  1  0
  7 16  1  0
 16 17  2  0
 17 18  1  0
 18 19  1  0
 19 20  2  0
 20 21  1  0
 21 22  2  0
 22 23  1  0
 23 24  2  0
 24 25  1  0
 25 26  2  0
 25 27  1  0
 27 28  1  0
 28 29  1  0
 29 30  1  0
 28 31  1  0
 31 32  1  0
 17  4  1  0
 24 19  1  0
 14  8  1  0
  1 33  1  0
  1 34  1  0
  1 35  1  0
  2 36  1  0
  3 37  1  0
  3 38  1  0
  3 39  1  0
  5 40  1  0
  9 41  1  0
 12 42  1  0
 13 43  1  0
 16 44  1  0
 18 45  1  0
 20 46  1  0
 21 47  1  0
 23 48  1  0
 27 49  1  0
 28 50  1  0
 29 51  1  0
 29 52  1  0
 30 53  1  0
 31 54  1  0
 31 55  1  0
 32 56  1  0
M  END
$$$$
