
     RDKit          3D

 40 42  0  0  0  0  0  0  0  0999 V2000
   -1.5327   -1.7551    1.8223 C   0  0  0  0  0  0  0  0  0  0  0  0
   -1.2441   -0.4819    1.0866 C   0  0  0  0  0  0  0  0  0  0  0  0
   -2.1017    0.2500    0.3123 C   0  0  0  0  0  0  0  0  0  0  0  0
   -3.4802   -0.0098   -0.0927 C   0  0  0  0  0  0  0  0  0  0  0  0
   -3.6698   -0.8718   -1.2127 N   0  0  0  0  0  0  0  0  0  0  0  0
   -3.6911   -0.3621   -2.4935 O   0  0  0  0  0  0  0  0  0  0  0  0
   -3.8424   -2.2459   -1.1002 C   0  0  0  0  0  0  0  0  0  0  0  0
   -3.8751   -2.8374   -0.0106 O   0  0  0  0  0  0  0  0  0  0  0  0
   -1.4186    1.3898   -0.1459 C   0  0  0  0  0  0  0  0  0  0  0  0
   -1.8056    2.4496   -0.9428 C   0  0  0  0  0  0  0  0  0  0  0  0
   -0.9396    3.4740   -1.2553 C   0  0  0  0  0  0  0  0  0  0  0  0
   -1.4918    4.9442   -2.3652 Br  0  0  0  0  0  0  0  0  0  0  0  0
    0.3335    3.4093   -0.7451 C   0  0  0  0  0  0  0  0  0  0  0  0
    0.7190    2.3499    0.0509 C   0  0  0  0  0  0  0  0  0  0  0  0
   -0.1471    1.3043    0.3757 C   0  0  0  0  0  0  0  0  0  0  0  0
   -0.0491    0.1816    1.1108 N   0  0  0  0  0  0  0  0  0  0  0  0
    1.3787   -0.3430    1.9172 S   0  0  0  0  0  6  0  0  0  0  0  0
    1.1841   -1.5389    2.7700 O   0  0  0  0  0  0  0  0  0  0  0  0
    1.8516    0.7616    2.8659 O   0  0  0  0  0  0  0  0  0  0  0  0
    2.7050   -0.6691    0.8353 C   0  0  0  0  0  0  0  0  0  0  0  0
    3.6858    0.2680    0.6713 C   0  0  0  0  0  0  0  0  0  0  0  0
    4.7597    0.0394   -0.1916 C   0  0  0  0  0  0  0  0  0  0  0  0
    4.8740   -1.1326   -0.9080 C   0  0  0  0  0  0  0  0  0  0  0  0
    3.8561   -2.0687   -0.7177 C   0  0  0  0  0  0  0  0  0  0  0  0
    2.7938   -1.8540    0.1294 C   0  0  0  0  0  0  0  0  0  0  0  0
   -2.6314   -1.7186    2.0791 H   0  0  0  0  0  0  0  0  0  0  0  0
   -1.2609   -2.5860    1.1809 H   0  0  0  0  0  0  0  0  0  0  0  0
   -1.0227   -1.7834    2.7964 H   0  0  0  0  0  0  0  0  0  0  0  0
   -4.0202    0.9533   -0.3256 H   0  0  0  0  0  0  0  0  0  0  0  0
   -3.9962   -0.5144    0.7781 H   0  0  0  0  0  0  0  0  0  0  0  0
   -2.7394   -0.1960   -2.7140 H   0  0  0  0  0  0  0  0  0  0  0  0
   -3.9618   -2.8992   -1.9817 H   0  0  0  0  0  0  0  0  0  0  0  0
   -2.8069    2.5036   -1.3455 H   0  0  0  0  0  0  0  0  0  0  0  0
    1.0169    4.2075   -0.9850 H   0  0  0  0  0  0  0  0  0  0  0  0
    1.7029    2.2865    0.4637 H   0  0  0  0  0  0  0  0  0  0  0  0
    3.6956    1.2344    1.1972 H   0  0  0  0  0  0  0  0  0  0  0  0
    5.5185    0.7980   -0.3012 H   0  0  0  0  0  0  0  0  0  0  0  0
    5.7055   -1.3350   -1.5890 H   0  0  0  0  0  0  0  0  0  0  0  0
    3.9409   -2.9925   -1.2791 H   0  0  0  0  0  0  0  0  0  0  0  0
    2.0067   -2.6096    0.2595 H   0  0  0  0  0  0  0  0  0  0  0  0
  1  2  1  0
  2  3  2  0
  3  4  1  0
  4  5  1  0
  5  6  1  0
  5  7  1  0
  7  8  2  0
  3  9  1  0
  9 10  2  0
 10 11  1  0
 11 12  1  0
 11 13  2  0
 13 14  1  0
 14 15  2  0
 15 16  1  0
 16 17  1  0
 17 18  2  0
 17 19  2  0
 17 20  1  0
 20 21  2  0
 21 22  1  0
 22 23  2  0
 23 24  1  0
 24 25  2  0
 16  2  1  0
 25 20  1  0
 15  9  1  0
  1 26  1  0
  1 27  1  0
  1 28  1  0
  4 29  1  0
  4 30  1  0
  6 31  1  0
  7 32  1  0
 10 33  1  0
 13 34  1  0
 14 35  1  0
 21 36  1  0
 22 37  1  0
 23 38  1  0
 24 39  1  0
 25 40  1  0
M  END
$$$$
