
     RDKit          3D

 42 46  0  0  0  0  0  0  0  0999 V2000
   -3.7048   -0.9673    2.1295 Cl  0  0  0  0  0  0  0  0  0  0  0  0
   -3.9703    0.4183    1.0720 C   0  0  0  0  0  0  0  0  0  0  0  0
   -5.2287    0.8773    0.7852 C   0  0  0  0  0  0  0  0  0  0  0  0
   -5.4616    1.9603   -0.0403 C   0  0  0  0  0  0  0  0  0  0  0  0
   -4.3763    2.6015   -0.5958 C   0  0  0  0  0  0  0  0  0  0  0  0
   -3.1240    2.1374   -0.3047 C   0  0  0  0  0  0  0  0  0  0  0  0
   -2.8812    1.0574    0.5180 C   0  0  0  0  0  0  0  0  0  0  0  0
   -1.4935    0.7210    0.8255 C   0  0  0  0  0  0  0  0  0  0  0  0
   -0.7144    1.4851    1.6647 N   0  0  0  0  0  0  0  0  0  0  0  0
    0.4695    0.9489    1.7565 N   0  0  0  0  0  0  0  0  0  0  0  0
    0.5312   -0.1741    0.9959 C   0  0  0  0  0  0  0  0  0  0  0  0
    1.5494   -1.0708    0.7690 C   0  0  0  0  0  0  0  0  0  0  0  0
    2.8583   -0.8812    1.4269 C   0  0  0  0  0  0  0  0  0  0  0  0
    3.7054    0.1573    0.8355 C   0  0  0  0  0  0  0  0  0  0  0  0
    3.7263    1.4720    1.2518 C   0  0  0  0  0  0  0  0  0  0  0  0
    4.5784    2.3605    0.6067 C   0  0  0  0  0  0  0  0  0  0  0  0
    5.4062    1.9792   -0.4354 C   0  0  0  0  0  0  0  0  0  0  0  0
    5.3661    0.6592   -0.8316 C   0  0  0  0  0  0  0  0  0  0  0  0
    4.5358   -0.2515   -0.2184 C   0  0  0  0  0  0  0  0  0  0  0  0
    1.3173   -2.0915   -0.0434 N   0  0  0  0  0  0  0  0  0  0  0  0
    0.1332   -2.2533   -0.6314 C   0  0  0  0  0  0  0  0  0  0  0  0
   -0.0876   -3.3054   -1.4922 C   0  0  0  0  0  0  0  0  0  0  0  0
   -1.2872   -3.4769   -2.1247 C   0  0  0  0  0  0  0  0  0  0  0  0
   -2.2721   -2.5699   -1.8802 C   0  0  0  0  0  0  0  0  0  0  0  0
   -2.1062   -1.4860   -1.0185 C   0  0  0  0  0  0  0  0  0  0  0  0
   -0.8947   -1.3424   -0.3976 C   0  0  0  0  0  0  0  0  0  0  0  0
   -0.7072   -0.2778    0.4334 N   0  0  0  0  0  0  0  0  0  0  0  0
   -6.1202    0.3899    1.2116 H   0  0  0  0  0  0  0  0  0  0  0  0
   -6.4686    2.3203   -0.2642 H   0  0  0  0  0  0  0  0  0  0  0  0
   -4.5316    3.4656   -1.2564 H   0  0  0  0  0  0  0  0  0  0  0  0
   -2.2687    2.6707   -0.7641 H   0  0  0  0  0  0  0  0  0  0  0  0
    3.3805   -1.8812    1.4025 H   0  0  0  0  0  0  0  0  0  0  0  0
    2.7398   -0.6755    2.5252 H   0  0  0  0  0  0  0  0  0  0  0  0
    3.0887    1.7784    2.0644 H   0  0  0  0  0  0  0  0  0  0  0  0
    4.5761    3.3881    0.9514 H   0  0  0  0  0  0  0  0  0  0  0  0
    6.0750    2.6686   -0.9431 H   0  0  0  0  0  0  0  0  0  0  0  0
    6.0094    0.3246   -1.6544 H   0  0  0  0  0  0  0  0  0  0  0  0
    4.5270   -1.2944   -0.5560 H   0  0  0  0  0  0  0  0  0  0  0  0
    0.7021   -4.0104   -1.6726 H   0  0  0  0  0  0  0  0  0  0  0  0
   -1.4421   -4.3299   -2.8125 H   0  0  0  0  0  0  0  0  0  0  0  0
   -3.2261   -2.6872   -2.3709 H   0  0  0  0  0  0  0  0  0  0  0  0
   -2.9088   -0.8149   -0.9082 H   0  0  0  0  0  0  0  0  0  0  0  0
  1  2  1  0
  2  3  2  0
  3  4  1  0
  4  5  2  0
  5  6  1  0
  6  7  2  0
  7  8  1  0
  8  9  2  0
  9 10  1  0
 10 11  2  0
 11 12  1  0
 12 13  1  0
 13 14  1  0
 14 15  2  0
 15 16  1  0
 16 17  2  0
 17 18  1  0
 18 19  2  0
 12 20  2  0
 20 21  1  0
 21 22  2  0
 22 23  1  0
 23 24  2  0
 24 25  1  0
 25 26  2  0
 26 27  1  0
  7  2  1  0
 27  8  1  0
 27 11  1  0
 19 14  1  0
 26 21  1  0
  3 28  1  0
  4 29  1  0
  5 30  1  0
  6 31  1  0
 13 32  1  0
 13 33  1  0
 15 34  1  0
 16 35  1  0
 17 36  1  0
 18 37  1  0
 19 38  1  0
 22 39  1  0
 23 40  1  0
 24 41  1  0
 25 42  1  0
M  END
$$$$
