
     RDKit          3D

 89 91  0  0  0  0  0  0  0  0999 V2000
   -1.4814   -0.8361   -3.6875 C   0  0  2  0  0  0  0  0  0  0  0  0
   -2.7616   -1.3824   -3.1580 C   0  0  0  0  0  0  0  0  0  0  0  0
   -3.6276   -0.5410   -2.3173 C   0  0  0  0  0  0  0  0  0  0  0  0
   -3.1496   -0.0503   -1.0260 C   0  0  0  0  0  0  0  0  0  0  0  0
   -2.2558    0.8005   -0.4312 O   0  0  0  0  0  0  0  0  0  0  0  0
   -3.7495   -0.5704   -0.0571 N   0  0  0  0  0  0  0  0  0  0  0  0
   -3.6761   -0.4492    1.3444 C   0  0  1  0  0  0  0  0  0  0  0  0
   -4.0559    0.9419    1.7836 C   0  0  0  0  0  0  0  0  0  0  0  0
   -5.4171    1.3895    1.3634 C   0  0  0  0  0  0  0  0  0  0  0  0
   -6.4607    0.5028    1.8707 C   0  0  0  0  0  0  0  0  0  0  0  0
   -6.7078    0.1666    3.1787 O   0  0  0  0  0  0  0  0  0  0  0  0
   -7.1940    0.0213    0.9269 N   0  0  0  0  0  0  0  0  0  0  0  0
   -8.2725   -0.8662    1.1645 C   0  0  1  0  0  0  0  0  0  0  0  0
   -9.5094   -0.5687    0.3974 C   0  0  0  0  0  0  0  0  0  0  0  0
  -10.0425    0.7923    0.6963 C   0  0  0  0  0  0  0  0  0  0  0  0
   -9.1453    1.8732    0.2702 C   0  0  0  0  0  0  0  0  0  0  0  0
   -9.6892    3.0737    0.6599 O   0  0  0  0  0  0  0  0  0  0  0  0
   -8.0587    2.1612   -0.3191 O   0  0  0  0  0  0  0  0  0  0  0  0
   -7.8810   -2.2851    0.7586 C   0  0  0  0  0  0  0  0  0  0  0  0
   -8.8030   -3.3113    0.9830 O   0  0  0  0  0  0  0  0  0  0  0  0
   -6.7827   -2.6183    0.2315 O   0  0  0  0  0  0  0  0  0  0  0  0
   -4.3021   -1.5280    2.1233 C   0  0  0  0  0  0  0  0  0  0  0  0
   -4.8963   -2.5497    2.8468 O   0  0  0  0  0  0  0  0  0  0  0  0
   -4.0348   -1.2862    3.3548 O   0  0  0  0  0  0  0  0  0  0  0  0
   -0.4798   -0.4253   -2.7767 N   0  0  0  0  0  0  0  0  0  0  0  0
    0.7808   -1.1011   -2.9480 C   0  0  0  0  0  0  0  0  0  0  0  0
    0.9483   -1.9924   -3.8562 O   0  0  0  0  0  0  0  0  0  0  0  0
    2.0186   -0.9013   -2.1643 C   0  0  0  0  0  0  0  0  0  0  0  0
    3.1639   -1.5684   -2.5258 C   0  0  0  0  0  0  0  0  0  0  0  0
    4.3246   -1.3622   -1.7683 C   0  0  0  0  0  0  0  0  0  0  0  0
    4.3729   -0.5226   -0.6779 C   0  0  0  0  0  0  0  0  0  0  0  0
    5.5778   -0.3379    0.0529 N   0  0  0  0  0  0  0  0  0  0  0  0
    5.7100    0.5017    1.2077 C   0  0  0  0  0  0  0  0  0  0  0  0
    7.1023    0.5470    1.7606 C   0  0  1  0  0  0  0  0  0  0  0  0
    7.5992   -0.8151    2.1807 C   0  0  0  0  0  0  0  0  0  0  0  0
    9.0145   -0.7018    2.4681 N   0  0  0  0  0  0  0  0  0  0  0  0
    9.9425    0.0116    1.6665 C   0  0  0  0  0  0  0  0  0  0  0  0
    9.4642    0.9984    0.8318 C   0  0  0  0  0  0  0  0  0  0  0  0
    8.0564    1.1570    0.9039 N   0  0  0  0  0  0  0  0  0  0  0  0
    7.4811    2.0721   -0.0180 C   0  0  0  0  0  0  0  0  0  0  0  0
    6.6580    2.7539   -0.6435 O   0  0  0  0  0  0  0  0  0  0  0  0
   10.2363    1.7590    0.0126 C   0  0  0  0  0  0  0  0  0  0  0  0
    9.6817    2.7274   -0.7927 O   0  0  0  0  0  0  0  0  0  0  0  0
   11.5531    1.4745    0.0709 N   0  0  0  0  0  0  0  0  0  0  0  0
   12.0490    0.5213    0.8717 C   0  0  0  0  0  0  0  0  0  0  0  0
   13.3214    0.2865    0.8916 N   0  0  0  0  0  0  0  0  0  0  0  0
   11.2788   -0.2383    1.6899 N   0  0  0  0  0  0  0  0  0  0  0  0
    3.2162    0.1505   -0.3127 C   0  0  0  0  0  0  0  0  0  0  0  0
    2.0855   -0.0656   -1.0706 C   0  0  0  0  0  0  0  0  0  0  0  0
   -1.7644    0.3306   -4.6305 C   0  0  0  0  0  0  0  0  0  0  0  0
   -1.2202    1.6196   -4.7081 O   0  0  0  0  0  0  0  0  0  0  0  0
   -2.6487    0.1185   -5.5118 O   0  0  0  0  0  0  0  0  0  0  0  0
   -1.0950   -1.6322   -4.4063 H   0  0  0  0  0  0  0  0  0  0  0  0
   -3.4206   -1.7356   -4.0250 H   0  0  0  0  0  0  0  0  0  0  0  0
   -2.5465   -2.3563   -2.6257 H   0  0  0  0  0  0  0  0  0  0  0  0
   -4.6426   -1.0259   -2.1553 H   0  0  0  0  0  0  0  0  0  0  0  0
   -3.9442    0.3717   -2.9388 H   0  0  0  0  0  0  0  0  0  0  0  0
   -1.4571    0.4723    0.1303 H   0  0  0  0  0  0  0  0  0  0  0  0
   -2.5500   -0.5008    1.5998 H   0  0  0  0  0  0  0  0  0  0  0  0
   -4.0376    1.0211    2.9054 H   0  0  0  0  0  0  0  0  0  0  0  0
   -3.3170    1.6669    1.4344 H   0  0  0  0  0  0  0  0  0  0  0  0
   -5.5518    2.4157    1.8351 H   0  0  0  0  0  0  0  0  0  0  0  0
   -5.4302    1.5086    0.2467 H   0  0  0  0  0  0  0  0  0  0  0  0
   -7.6264    0.2713    3.5595 H   0  0  0  0  0  0  0  0  0  0  0  0
   -8.5371   -0.8916    2.2523 H   0  0  0  0  0  0  0  0  0  0  0  0
   -9.3248   -0.6689   -0.7136 H   0  0  0  0  0  0  0  0  0  0  0  0
  -10.2738   -1.3635    0.6485 H   0  0  0  0  0  0  0  0  0  0  0  0
  -10.9878    0.9146    0.1112 H   0  0  0  0  0  0  0  0  0  0  0  0
  -10.2933    0.9010    1.7828 H   0  0  0  0  0  0  0  0  0  0  0  0
   -9.2869    3.9936    0.5741 H   0  0  0  0  0  0  0  0  0  0  0  0
   -8.6924   -4.1621    0.4383 H   0  0  0  0  0  0  0  0  0  0  0  0
   -5.8823   -2.7517    2.7933 H   0  0  0  0  0  0  0  0  0  0  0  0
   -0.2917    0.2173   -1.9969 H   0  0  0  0  0  0  0  0  0  0  0  0
    3.2385   -2.2421   -3.3525 H   0  0  0  0  0  0  0  0  0  0  0  0
    5.2214   -1.8867   -2.0555 H   0  0  0  0  0  0  0  0  0  0  0  0
    6.4389   -0.8430   -0.2597 H   0  0  0  0  0  0  0  0  0  0  0  0
    5.0569    0.1449    2.0516 H   0  0  0  0  0  0  0  0  0  0  0  0
    5.3659    1.5443    1.0277 H   0  0  0  0  0  0  0  0  0  0  0  0
    7.0882    1.1542    2.7098 H   0  0  0  0  0  0  0  0  0  0  0  0
    7.4167   -1.5690    1.3756 H   0  0  0  0  0  0  0  0  0  0  0  0
    7.0198   -1.0822    3.0952 H   0  0  0  0  0  0  0  0  0  0  0  0
    9.3850   -1.1747    3.3211 H   0  0  0  0  0  0  0  0  0  0  0  0
    7.0943    2.7917   -0.7531 H   0  0  0  0  0  0  0  0  0  0  0  0
   10.0731    3.0144   -1.6636 H   0  0  0  0  0  0  0  0  0  0  0  0
   13.9235    0.8603    0.2708 H   0  0  0  0  0  0  0  0  0  0  0  0
   11.6474   -0.9865    2.3202 H   0  0  0  0  0  0  0  0  0  0  0  0
    3.2443    0.8041    0.5333 H   0  0  0  0  0  0  0  0  0  0  0  0
    1.2297    0.4871   -0.7309 H   0  0  0  0  0  0  0  0  0  0  0  0
   -1.8238    2.4399   -4.7612 H   0  0  0  0  0  0  0  0  0  0  0  0
  1  2  1  0
  2  3  1  0
  3  4  1  0
  4  5  1  0
  4  6  2  3
  6  7  1  0
  7  8  1  0
  8  9  1  0
  9 10  1  0
 10 11  1  0
 10 12  2  3
 12 13  1  0
 13 14  1  0
 14 15  1  0
 15 16  1  0
 16 17  1  0
 16 18  2  0
 13 19  1  0
 19 20  1  0
 19 21  2  0
  7 22  1  0
 22 23  1  0
 22 24  2  0
  1 25  1  0
 25 26  1  0
 26 27  2  0
 26 28  1  0
 28 29  2  0
 29 30  1  0
 30 31  2  0
 31 32  1  0
 32 33  1  0
 33 34  1  0
 34 35  1  0
 35 36  1  0
 36 37  1  0
 37 38  2  0
 38 39  1  0
 39 40  1  0
 40 41  2  0
 38 42  1  0
 42 43  1  0
 42 44  2  0
 44 45  1  0
 45 46  2  3
 45 47  1  0
 31 48  1  0
 48 49  2  0
  1 50  1  0
 50 51  1  0
 50 52  2  0
 49 28  1  0
 39 34  1  0
 47 37  1  0
  1 53  1  6
  2 54  1  0
  2 55  1  0
  3 56  1  0
  3 57  1  0
  5 58  1  0
  7 59  1  6
  8 60  1  0
  8 61  1  0
  9 62  1  0
  9 63  1  0
 11 64  1  0
 13 65  1  1
 14 66  1  0
 14 67  1  0
 15 68  1  0
 15 69  1  0
 17 70  1  0
 20 71  1  0
 23 72  1  0
 25 73  1  0
 29 74  1  0
 30 75  1  0
 32 76  1  0
 33 77  1  0
 33 78  1  0
 34 79  1  1
 35 80  1  0
 35 81  1  0
 36 82  1  0
 40 83  1  0
 43 84  1  0
 46 85  1  0
 47 86  1  0
 48 87  1  0
 49 88  1  0
 51 89  1  0
M  END
$$$$
