
     RDKit          3D

 90 93  0  0  0  0  0  0  0  0999 V2000
   -1.8360   -1.4262   -2.5555 C   0  0  0  0  0  0  0  0  0  0  0  0
   -1.6835    0.0603   -2.3257 C   0  0  0  0  0  0  0  0  0  0  0  0
   -2.9047    0.8336   -2.7060 C   0  0  0  0  0  0  0  0  0  0  0  0
   -4.1500    0.4595   -1.9558 C   0  0  0  0  0  0  0  0  0  0  0  0
   -4.0116    0.7450    0.1467 Sn  0  0  0  0  0  4  0  0  0  0  0  0
   -3.0918    2.6737    0.5553 C   0  0  0  0  0  0  0  0  0  0  0  0
   -4.1517    3.7093    0.7878 C   0  0  0  0  0  0  0  0  0  0  0  0
   -5.0672    3.9122   -0.3814 C   0  0  0  0  0  0  0  0  0  0  0  0
   -4.3494    4.3666   -1.6245 C   0  0  0  0  0  0  0  0  0  0  0  0
   -5.9489    0.6862    1.0297 C   0  0  0  0  0  0  0  0  0  0  0  0
   -6.9514   -0.1193    0.2649 C   0  0  0  0  0  0  0  0  0  0  0  0
   -6.5856   -1.5598    0.1132 C   0  0  0  0  0  0  0  0  0  0  0  0
   -7.6010   -2.3507   -0.6535 C   0  0  0  0  0  0  0  0  0  0  0  0
   -2.7336   -0.6999    1.0129 C   0  0  0  0  0  0  0  0  0  0  0  0
   -1.8204   -0.3472    2.0135 C   0  0  0  0  0  0  0  0  0  0  0  0
   -0.9784   -1.2644    2.5953 C   0  0  0  0  0  0  0  0  0  0  0  0
   -1.0088   -2.5697    2.2070 C   0  0  0  0  0  0  0  0  0  0  0  0
   -0.0946   -3.5505    2.8134 C   0  0  0  0  0  0  0  0  0  0  0  0
    1.0784   -3.6411    1.9225 N   0  0  0  0  0  0  0  0  0  0  0  0
    1.2152   -4.5736    0.8414 C   0  0  0  0  0  0  0  0  0  0  0  0
    0.3929   -5.4444    0.4861 O   0  0  0  0  0  0  0  0  0  0  0  0
    2.5009   -4.3312    0.2129 C   0  0  0  0  0  0  0  0  0  0  0  0
    3.0276   -4.9205   -0.7730 O   0  0  0  0  0  0  0  0  0  0  0  0
    3.1371   -3.2319    0.9385 C   0  0  0  0  0  0  0  0  0  0  0  0
    4.3703   -2.5942    0.7561 C   0  0  0  0  0  0  0  0  0  0  0  0
    4.7586   -1.5600    1.5746 C   0  0  0  0  0  0  0  0  0  0  0  0
    6.2994   -0.7383    1.3597 S   0  0  0  0  0  6  0  0  0  0  0  0
    6.8160   -0.1961    2.6572 O   0  0  0  0  0  0  0  0  0  0  0  0
    7.2983   -1.7187    0.8437 O   0  0  0  0  0  0  0  0  0  0  0  0
    6.0348    0.5728    0.2634 N   0  0  0  0  0  0  0  0  0  0  0  0
    5.5868    0.1154   -1.0390 C   0  0  0  0  0  0  0  0  0  0  0  0
    6.8288   -0.0943   -1.8623 C   0  0  0  0  0  0  0  0  0  0  0  0
    7.9709    0.4837   -1.0830 C   0  0  0  0  0  0  0  0  0  0  0  0
    7.2796    1.2842   -0.0001 C   0  0  1  0  0  0  0  0  0  0  0  0
    6.9231    2.6639   -0.4484 C   0  0  0  0  0  0  0  0  0  0  0  0
    8.0421    3.4529   -0.7312 O   0  0  0  0  0  0  0  0  0  0  0  0
    7.5299    4.6935   -1.1353 C   0  0  0  0  0  0  0  0  0  0  0  0
    3.8826   -1.1894    2.5711 C   0  0  0  0  0  0  0  0  0  0  0  0
    2.6664   -1.8101    2.7604 C   0  0  0  0  0  0  0  0  0  0  0  0
    2.2621   -2.8658    1.9287 C   0  0  0  0  0  0  0  0  0  0  0  0
   -1.8818   -2.9675    1.2344 C   0  0  0  0  0  0  0  0  0  0  0  0
   -2.7343   -2.0252    0.6488 C   0  0  0  0  0  0  0  0  0  0  0  0
   -1.1320   -1.9965   -1.9175 H   0  0  0  0  0  0  0  0  0  0  0  0
   -2.8587   -1.7816   -2.4021 H   0  0  0  0  0  0  0  0  0  0  0  0
   -1.5560   -1.6946   -3.6159 H   0  0  0  0  0  0  0  0  0  0  0  0
   -1.3447    0.2834   -1.3083 H   0  0  0  0  0  0  0  0  0  0  0  0
   -0.8673    0.3916   -3.0194 H   0  0  0  0  0  0  0  0  0  0  0  0
   -3.1232    0.7057   -3.7822 H   0  0  0  0  0  0  0  0  0  0  0  0
   -2.6947    1.9036   -2.5305 H   0  0  0  0  0  0  0  0  0  0  0  0
   -4.5292   -0.5426   -2.2319 H   0  0  0  0  0  0  0  0  0  0  0  0
   -4.9440    1.1753   -2.3257 H   0  0  0  0  0  0  0  0  0  0  0  0
   -2.4969    2.6093    1.4949 H   0  0  0  0  0  0  0  0  0  0  0  0
   -2.3906    2.8822   -0.2494 H   0  0  0  0  0  0  0  0  0  0  0  0
   -3.7353    4.6842    1.1090 H   0  0  0  0  0  0  0  0  0  0  0  0
   -4.7748    3.3381    1.6359 H   0  0  0  0  0  0  0  0  0  0  0  0
   -5.5591    2.9275   -0.6187 H   0  0  0  0  0  0  0  0  0  0  0  0
   -5.8312    4.6735   -0.1277 H   0  0  0  0  0  0  0  0  0  0  0  0
   -3.2934    4.0542   -1.6557 H   0  0  0  0  0  0  0  0  0  0  0  0
   -4.3231    5.4905   -1.5808 H   0  0  0  0  0  0  0  0  0  0  0  0
   -4.9251    4.1019   -2.5229 H   0  0  0  0  0  0  0  0  0  0  0  0
   -6.3346    1.7022    1.2794 H   0  0  0  0  0  0  0  0  0  0  0  0
   -5.8449    0.1831    2.0311 H   0  0  0  0  0  0  0  0  0  0  0  0
   -7.9063   -0.0880    0.8531 H   0  0  0  0  0  0  0  0  0  0  0  0
   -7.1668    0.3510   -0.7074 H   0  0  0  0  0  0  0  0  0  0  0  0
   -6.4451   -2.0635    1.0980 H   0  0  0  0  0  0  0  0  0  0  0  0
   -5.6305   -1.6261   -0.4322 H   0  0  0  0  0  0  0  0  0  0  0  0
   -8.1119   -1.7113   -1.4178 H   0  0  0  0  0  0  0  0  0  0  0  0
   -7.0711   -3.1535   -1.2305 H   0  0  0  0  0  0  0  0  0  0  0  0
   -8.3201   -2.8946   -0.0045 H   0  0  0  0  0  0  0  0  0  0  0  0
   -1.8368    0.7137    2.2876 H   0  0  0  0  0  0  0  0  0  0  0  0
   -0.3025   -0.9447    3.3592 H   0  0  0  0  0  0  0  0  0  0  0  0
   -0.5331   -4.5604    2.8839 H   0  0  0  0  0  0  0  0  0  0  0  0
    0.2796   -3.1891    3.7820 H   0  0  0  0  0  0  0  0  0  0  0  0
    5.0085   -2.9387   -0.0394 H   0  0  0  0  0  0  0  0  0  0  0  0
    4.9706    0.9558   -1.4710 H   0  0  0  0  0  0  0  0  0  0  0  0
    4.9219   -0.7617   -0.9830 H   0  0  0  0  0  0  0  0  0  0  0  0
    6.7239    0.5004   -2.8141 H   0  0  0  0  0  0  0  0  0  0  0  0
    6.9439   -1.1785   -2.0731 H   0  0  0  0  0  0  0  0  0  0  0  0
    8.6069    1.1265   -1.7291 H   0  0  0  0  0  0  0  0  0  0  0  0
    8.5600   -0.3127   -0.6277 H   0  0  0  0  0  0  0  0  0  0  0  0
    7.9504    1.3255    0.8720 H   0  0  0  0  0  0  0  0  0  0  0  0
    6.2670    2.5601   -1.3404 H   0  0  0  0  0  0  0  0  0  0  0  0
    6.3237    3.1832    0.3259 H   0  0  0  0  0  0  0  0  0  0  0  0
    8.3892    5.3522   -1.3682 H   0  0  0  0  0  0  0  0  0  0  0  0
    6.8412    5.1212   -0.3833 H   0  0  0  0  0  0  0  0  0  0  0  0
    6.9188    4.4756   -2.0607 H   0  0  0  0  0  0  0  0  0  0  0  0
    4.1948   -0.3679    3.2191 H   0  0  0  0  0  0  0  0  0  0  0  0
    1.9793   -1.5261    3.5432 H   0  0  0  0  0  0  0  0  0  0  0  0
   -1.9082   -4.0009    0.9243 H   0  0  0  0  0  0  0  0  0  0  0  0
   -3.4055   -2.3614   -0.1141 H   0  0  0  0  0  0  0  0  0  0  0  0
  1  2  1  0
  2  3  1  0
  3  4  1  0
  4  5  1  0
  5  6  1  0
  6  7  1  0
  7  8  1  0
  8  9  1  0
  5 10  1  0
 10 11  1  0
 11 12  1  0
 12 13  1  0
  5 14  1  0
 14 15  2  0
 15 16  1  0
 16 17  2  0
 17 18  1  0
 18 19  1  0
 19 20  1  0
 20 21  2  0
 20 22  1  0
 22 23  2  0
 22 24  1  0
 24 25  2  0
 25 26  1  0
 26 27  1  0
 27 28  2  0
 27 29  2  0
 27 30  1  0
 30 31  1  0
 31 32  1  0
 32 33  1  0
 33 34  1  0
 34 35  1  0
 35 36  1  0
 36 37  1  0
 26 38  2  0
 38 39  1  0
 39 40  2  0
 17 41  1  0
 41 42  2  0
 42 14  1  0
 40 19  1  0
 40 24  1  0
 34 30  1  0
  1 43  1  0
  1 44  1  0
  1 45  1  0
  2 46  1  0
  2 47  1  0
  3 48  1  0
  3 49  1  0
  4 50  1  0
  4 51  1  0
  6 52  1  0
  6 53  1  0
  7 54  1  0
  7 55  1  0
  8 56  1  0
  8 57  1  0
  9 58  1  0
  9 59  1  0
  9 60  1  0
 10 61  1  0
 10 62  1  0
 11 63  1  0
 11 64  1  0
 12 65  1  0
 12 66  1  0
 13 67  1  0
 13 68  1  0
 13 69  1  0
 15 70  1  0
 16 71  1  0
 18 72  1  0
 18 73  1  0
 25 74  1  0
 31 75  1  0
 31 76  1  0
 32 77  1  0
 32 78  1  0
 33 79  1  0
 33 80  1  0
 34 81  1  1
 35 82  1  0
 35 83  1  0
 37 84  1  0
 37 85  1  0
 37 86  1  0
 38 87  1  0
 39 88  1  0
 41 89  1  0
 42 90  1  0
M  END
$$$$
