
     RDKit          3D

 67 70  0  0  0  0  0  0  0  0999 V2000
    0.2838    0.7221    1.6773 C   0  0  0  0  0  0  0  0  0  0  0  0
    0.3337    0.4889    0.1645 C   0  0  0  0  0  0  0  0  0  0  0  0
    0.1134    1.8128   -0.5415 C   0  0  0  0  0  0  0  0  0  0  0  0
   -0.7755   -0.3984   -0.1793 C   0  0  0  0  0  0  0  0  0  0  0  0
   -0.5799   -1.5154   -0.7288 O   0  0  0  0  0  0  0  0  0  0  0  0
   -2.1135    0.0331    0.1256 N   0  0  0  0  0  0  0  0  0  0  0  0
   -3.2364   -0.8105   -0.1962 C   0  0  1  0  0  0  0  0  0  0  0  0
   -4.0462   -1.1705    1.0225 C   0  0  0  0  0  0  0  0  0  0  0  0
   -5.1836   -2.0609    0.5614 C   0  0  0  0  0  0  0  0  0  0  0  0
   -5.0348   -2.5015   -0.8659 C   0  0  0  0  0  0  0  0  0  0  0  0
   -4.9116   -1.3598   -1.8465 C   0  0  0  0  0  0  0  0  0  0  0  0
   -4.1563   -0.1861   -1.1865 C   0  0  0  0  0  0  0  0  0  0  0  0
   -5.2153    0.7069   -0.6291 C   0  0  0  0  0  0  0  0  0  0  0  0
   -4.9958    1.1570    0.7722 C   0  0  1  0  0  0  0  0  0  0  0  0
   -6.3137    1.7270    1.2528 C   0  0  0  0  0  0  0  0  0  0  0  0
   -6.9121    1.2423    2.2459 O   0  0  0  0  0  0  0  0  0  0  0  0
   -6.9041    2.8011    0.6147 O   0  0  0  0  0  0  0  0  0  0  0  0
   -4.6380    0.0311    1.6758 C   0  0  0  0  0  0  0  0  0  0  0  0
    1.6227    0.0103   -0.1593 N   0  0  0  0  0  0  0  0  0  0  0  0
    2.0115   -1.2104    0.4627 C   0  0  0  0  0  0  0  0  0  0  0  0
    3.5092   -1.1045    0.7736 C   0  0  0  0  0  0  0  0  0  0  0  0
    4.1199   -0.5730   -0.4406 N   0  0  0  0  0  0  0  0  0  0  0  0
    5.4662   -0.1037   -0.3639 C   0  0  0  0  0  0  0  0  0  0  0  0
    6.1719   -0.1485    0.8167 C   0  0  0  0  0  0  0  0  0  0  0  0
    7.4730    0.2980    0.9187 C   0  0  0  0  0  0  0  0  0  0  0  0
    8.0980    0.8108   -0.2020 C   0  0  0  0  0  0  0  0  0  0  0  0
    9.5104    1.3043   -0.1261 C   0  0  0  0  0  0  0  0  0  0  0  0
   10.1576    1.2199   -1.3244 F   0  0  0  0  0  0  0  0  0  0  0  0
   10.2390    0.5880    0.7986 F   0  0  0  0  0  0  0  0  0  0  0  0
    9.4742    2.6169    0.3157 F   0  0  0  0  0  0  0  0  0  0  0  0
    7.3666    0.8433   -1.3709 C   0  0  0  0  0  0  0  0  0  0  0  0
    6.0889    0.3980   -1.4444 N   0  0  0  0  0  0  0  0  0  0  0  0
    3.3715   -0.5280   -1.6827 C   0  0  0  0  0  0  0  0  0  0  0  0
    2.0274    0.1512   -1.5151 C   0  0  0  0  0  0  0  0  0  0  0  0
    1.3270    0.8835    2.0638 H   0  0  0  0  0  0  0  0  0  0  0  0
   -0.3624    1.5927    1.8449 H   0  0  0  0  0  0  0  0  0  0  0  0
   -0.1958   -0.1484    2.1445 H   0  0  0  0  0  0  0  0  0  0  0  0
    1.0290    2.4180   -0.3953 H   0  0  0  0  0  0  0  0  0  0  0  0
   -0.7752    2.3343   -0.1417 H   0  0  0  0  0  0  0  0  0  0  0  0
    0.0344    1.5958   -1.6252 H   0  0  0  0  0  0  0  0  0  0  0  0
   -2.2127    0.9644    0.5804 H   0  0  0  0  0  0  0  0  0  0  0  0
   -2.8449   -1.7463   -0.6602 H   0  0  0  0  0  0  0  0  0  0  0  0
   -3.3577   -1.6773    1.7289 H   0  0  0  0  0  0  0  0  0  0  0  0
   -6.1767   -1.6608    0.8006 H   0  0  0  0  0  0  0  0  0  0  0  0
   -5.0922   -3.0011    1.1775 H   0  0  0  0  0  0  0  0  0  0  0  0
   -4.2040   -3.2373   -0.9550 H   0  0  0  0  0  0  0  0  0  0  0  0
   -5.9583   -3.0647   -1.1325 H   0  0  0  0  0  0  0  0  0  0  0  0
   -5.8879   -1.0360   -2.2210 H   0  0  0  0  0  0  0  0  0  0  0  0
   -4.3025   -1.7120   -2.7064 H   0  0  0  0  0  0  0  0  0  0  0  0
   -3.6325    0.3283   -2.0175 H   0  0  0  0  0  0  0  0  0  0  0  0
   -5.3488    1.6075   -1.3043 H   0  0  0  0  0  0  0  0  0  0  0  0
   -6.2468    0.2420   -0.6505 H   0  0  0  0  0  0  0  0  0  0  0  0
   -4.3041    2.0306    0.8309 H   0  0  0  0  0  0  0  0  0  0  0  0
   -7.5999    3.3868    1.0769 H   0  0  0  0  0  0  0  0  0  0  0  0
   -3.9526    0.4622    2.4631 H   0  0  0  0  0  0  0  0  0  0  0  0
   -5.5572   -0.2798    2.2476 H   0  0  0  0  0  0  0  0  0  0  0  0
    1.4200   -1.4759    1.3358 H   0  0  0  0  0  0  0  0  0  0  0  0
    1.9389   -2.0758   -0.2586 H   0  0  0  0  0  0  0  0  0  0  0  0
    3.6031   -0.2897    1.5328 H   0  0  0  0  0  0  0  0  0  0  0  0
    3.9368   -2.0551    1.0913 H   0  0  0  0  0  0  0  0  0  0  0  0
    5.6670   -0.5524    1.6817 H   0  0  0  0  0  0  0  0  0  0  0  0
    8.0251    0.2582    1.8610 H   0  0  0  0  0  0  0  0  0  0  0  0
    7.8785    1.2518   -2.2437 H   0  0  0  0  0  0  0  0  0  0  0  0
    4.0016   -0.0158   -2.4368 H   0  0  0  0  0  0  0  0  0  0  0  0
    3.2305   -1.6047   -1.9878 H   0  0  0  0  0  0  0  0  0  0  0  0
    1.3061   -0.2408   -2.2491 H   0  0  0  0  0  0  0  0  0  0  0  0
    2.1919    1.2261   -1.7541 H   0  0  0  0  0  0  0  0  0  0  0  0
  1  2  1  0
  2  3  1  0
  2  4  1  0
  4  5  2  0
  4  6  1  0
  6  7  1  0
  7  8  1  0
  8  9  1  0
  9 10  1  0
 10 11  1  0
 11 12  1  0
 12 13  1  0
 13 14  1  0
 14 15  1  0
 15 16  2  0
 15 17  1  0
 14 18  1  0
  2 19  1  0
 19 20  1  0
 20 21  1  0
 21 22  1  0
 22 23  1  0
 23 24  2  0
 24 25  1  0
 25 26  2  0
 26 27  1  0
 27 28  1  0
 27 29  1  0
 27 30  1  0
 26 31  1  0
 31 32  2  0
 22 33  1  0
 33 34  1  0
 12  7  1  0
 34 19  1  0
 18  8  1  0
 32 23  1  0
  1 35  1  0
  1 36  1  0
  1 37  1  0
  3 38  1  0
  3 39  1  0
  3 40  1  0
  6 41  1  0
  7 42  1  6
  8 43  1  0
  9 44  1  0
  9 45  1  0
 10 46  1  0
 10 47  1  0
 11 48  1  0
 11 49  1  0
 12 50  1  0
 13 51  1  0
 13 52  1  0
 14 53  1  6
 17 54  1  0
 18 55  1  0
 18 56  1  0
 20 57  1  0
 20 58  1  0
 21 59  1  0
 21 60  1  0
 24 61  1  0
 25 62  1  0
 31 63  1  0
 33 64  1  0
 33 65  1  0
 34 66  1  0
 34 67  1  0
M  END
$$$$
