
     RDKit          3D

 40 42  0  0  0  0  0  0  0  0999 V2000
   -4.3609   -3.0011    0.5587 C   0  0  0  0  0  0  0  0  0  0  0  0
   -3.4984   -1.8087    0.3891 C   0  0  0  0  0  0  0  0  0  0  0  0
   -2.4786   -1.7719   -0.5659 C   0  0  0  0  0  0  0  0  0  0  0  0
   -1.6962   -0.6459   -0.6953 C   0  0  0  0  0  0  0  0  0  0  0  0
   -1.8758    0.4771    0.0934 C   0  0  0  0  0  0  0  0  0  0  0  0
   -1.0435    1.6382   -0.0644 C   0  0  0  0  0  0  0  0  0  0  0  0
   -1.5137    2.9417   -0.1014 C   0  0  0  0  0  0  0  0  0  0  0  0
   -0.4403    3.8084   -0.2644 C   0  0  0  0  0  0  0  0  0  0  0  0
   -0.4489    5.2780   -0.3582 C   0  0  0  0  0  0  0  0  0  0  0  0
   -1.5998    5.7547    0.2396 F   0  0  0  0  0  0  0  0  0  0  0  0
    0.6193    5.8363    0.3278 F   0  0  0  0  0  0  0  0  0  0  0  0
   -0.3467    5.7028   -1.6663 F   0  0  0  0  0  0  0  0  0  0  0  0
    0.6346    3.0363   -0.3220 N   0  0  0  0  0  0  0  0  0  0  0  0
    0.2826    1.7476   -0.2039 N   0  0  0  0  0  0  0  0  0  0  0  0
    1.1971    0.7022   -0.2279 C   0  0  0  0  0  0  0  0  0  0  0  0
    1.8333    0.3483   -1.3872 C   0  0  0  0  0  0  0  0  0  0  0  0
    2.7359   -0.6931   -1.3810 C   0  0  0  0  0  0  0  0  0  0  0  0
    3.0227   -1.4001   -0.2285 C   0  0  0  0  0  0  0  0  0  0  0  0
    4.1784   -2.7132   -0.2833 S   0  0  0  0  0  6  0  0  0  0  0  0
    5.7767   -2.1093    0.0408 N   0  0  0  0  0  0  0  0  0  0  0  0
    4.2248   -3.3303   -1.6565 O   0  0  0  0  0  0  0  0  0  0  0  0
    3.8568   -3.7421    0.7639 O   0  0  0  0  0  0  0  0  0  0  0  0
    2.3834   -1.0466    0.9426 C   0  0  0  0  0  0  0  0  0  0  0  0
    1.4806    0.0021    0.9155 C   0  0  0  0  0  0  0  0  0  0  0  0
   -2.8988    0.3928    1.0254 C   0  0  0  0  0  0  0  0  0  0  0  0
   -3.6867   -0.7137    1.1708 C   0  0  0  0  0  0  0  0  0  0  0  0
   -4.5696   -3.1104    1.6388 H   0  0  0  0  0  0  0  0  0  0  0  0
   -5.3179   -2.8054    0.0570 H   0  0  0  0  0  0  0  0  0  0  0  0
   -3.8966   -3.9276    0.1365 H   0  0  0  0  0  0  0  0  0  0  0  0
   -2.3385   -2.6395   -1.1766 H   0  0  0  0  0  0  0  0  0  0  0  0
   -0.9050   -0.6060   -1.4301 H   0  0  0  0  0  0  0  0  0  0  0  0
   -2.5334    3.2964   -0.0224 H   0  0  0  0  0  0  0  0  0  0  0  0
    1.6357    0.8706   -2.2886 H   0  0  0  0  0  0  0  0  0  0  0  0
    3.2622   -1.0012   -2.2933 H   0  0  0  0  0  0  0  0  0  0  0  0
    6.4630   -2.7347   -0.4436 H   0  0  0  0  0  0  0  0  0  0  0  0
    5.8579   -1.1804   -0.4592 H   0  0  0  0  0  0  0  0  0  0  0  0
    2.5867   -1.5871    1.8804 H   0  0  0  0  0  0  0  0  0  0  0  0
    0.9937    0.2508    1.8700 H   0  0  0  0  0  0  0  0  0  0  0  0
   -3.0826    1.2422    1.6679 H   0  0  0  0  0  0  0  0  0  0  0  0
   -4.4933   -0.7582    1.9178 H   0  0  0  0  0  0  0  0  0  0  0  0
  1  2  1  0
  2  3  2  0
  3  4  1  0
  4  5  2  0
  5  6  1  0
  6  7  2  0
  7  8  1  0
  8  9  1  0
  9 10  1  0
  9 11  1  0
  9 12  1  0
  8 13  2  0
 13 14  1  0
 14 15  1  0
 15 16  2  0
 16 17  1  0
 17 18  2  0
 18 19  1  0
 19 20  1  0
 19 21  2  0
 19 22  2  0
 18 23  1  0
 23 24  2  0
  5 25  1  0
 25 26  2  0
 26  2  1  0
 14  6  1  0
 24 15  1  0
  1 27  1  0
  1 28  1  0
  1 29  1  0
  3 30  1  0
  4 31  1  0
  7 32  1  0
 16 33  1  0
 17 34  1  0
 20 35  1  0
 20 36  1  0
 23 37  1  0
 24 38  1  0
 25 39  1  0
 26 40  1  0
M  END
$$$$
