
     RDKit          3D

 39 41  0  0  0  0  0  0  0  0999 V2000
    5.0838   -0.7973   -0.1882 C   0  0  0  0  0  0  0  0  0  0  0  0
    4.4497    0.3866    0.3606 N   0  0  0  0  0  0  0  0  0  0  0  0
    5.0655    1.5859    0.4570 C   0  0  0  0  0  0  0  0  0  0  0  0
    4.2037    2.5085    1.0234 C   0  0  0  0  0  0  0  0  0  0  0  0
    3.0250    1.7984    1.2664 C   0  0  0  0  0  0  0  0  0  0  0  0
    3.1898    0.5046    0.8569 C   0  0  0  0  0  0  0  0  0  0  0  0
    2.2730   -0.6292    0.8919 C   0  0  0  0  0  0  0  0  0  0  0  0
    2.6300   -1.5968    1.6189 O   0  0  0  0  0  0  0  0  0  0  0  0
    1.0648   -0.6408    0.1587 N   0  0  0  0  0  0  0  0  0  0  0  0
    0.7286    0.4940   -0.6513 C   0  0  0  0  0  0  0  0  0  0  0  0
   -0.5881    0.3667   -1.3693 C   0  0  0  0  0  0  0  0  0  0  0  0
   -1.6212   -0.3282   -0.5813 C   0  0  0  0  0  0  0  0  0  0  0  0
   -2.9361    0.0735   -0.6398 C   0  0  0  0  0  0  0  0  0  0  0  0
   -3.9132   -0.5604    0.0769 C   0  0  0  0  0  0  0  0  0  0  0  0
   -5.3260   -0.1724    0.0732 C   0  0  0  0  0  0  0  0  0  0  0  0
   -6.2013   -0.8257    0.6877 O   0  0  0  0  0  0  0  0  0  0  0  0
   -5.7601    0.9681   -0.6334 N   0  0  0  0  0  0  0  0  0  0  0  0
   -7.0888    1.3401   -0.6394 O   0  0  0  0  0  0  0  0  0  0  0  0
   -3.5121   -1.6404    0.8750 C   0  0  0  0  0  0  0  0  0  0  0  0
   -2.1983   -2.0434    0.9350 C   0  0  0  0  0  0  0  0  0  0  0  0
   -1.2241   -1.4033    0.2149 C   0  0  0  0  0  0  0  0  0  0  0  0
    0.2108   -1.8136    0.2703 C   0  0  0  0  0  0  0  0  0  0  0  0
    4.4295   -1.6570   -0.0025 H   0  0  0  0  0  0  0  0  0  0  0  0
    5.1773   -0.6673   -1.2774 H   0  0  0  0  0  0  0  0  0  0  0  0
    6.0683   -0.8805    0.3210 H   0  0  0  0  0  0  0  0  0  0  0  0
    6.0857    1.7752    0.1311 H   0  0  0  0  0  0  0  0  0  0  0  0
    4.4198    3.5385    1.2194 H   0  0  0  0  0  0  0  0  0  0  0  0
    2.1329    2.2142    1.7126 H   0  0  0  0  0  0  0  0  0  0  0  0
    0.7363    1.4020   -0.0205 H   0  0  0  0  0  0  0  0  0  0  0  0
    1.5117    0.6006   -1.4452 H   0  0  0  0  0  0  0  0  0  0  0  0
   -0.9236    1.4070   -1.6001 H   0  0  0  0  0  0  0  0  0  0  0  0
   -0.4335   -0.1144   -2.3737 H   0  0  0  0  0  0  0  0  0  0  0  0
   -3.2070    0.9052   -1.2644 H   0  0  0  0  0  0  0  0  0  0  0  0
   -5.0799    1.5481   -1.1599 H   0  0  0  0  0  0  0  0  0  0  0  0
   -7.0938    2.1859   -0.0928 H   0  0  0  0  0  0  0  0  0  0  0  0
   -4.3004   -2.1425    1.4443 H   0  0  0  0  0  0  0  0  0  0  0  0
   -1.9226   -2.8830    1.5630 H   0  0  0  0  0  0  0  0  0  0  0  0
    0.4601   -2.5441   -0.5135 H   0  0  0  0  0  0  0  0  0  0  0  0
    0.3835   -2.2627    1.2687 H   0  0  0  0  0  0  0  0  0  0  0  0
  1  2  1  0
  2  3  1  0
  3  4  2  0
  4  5  1  0
  5  6  2  0
  6  7  1  0
  7  8  2  0
  7  9  1  0
  9 10  1  0
 10 11  1  0
 11 12  1  0
 12 13  2  0
 13 14  1  0
 14 15  1  0
 15 16  2  0
 15 17  1  0
 17 18  1  0
 14 19  2  0
 19 20  1  0
 20 21  2  0
 21 22  1  0
  6  2  1  0
 22  9  1  0
 21 12  1  0
  1 23  1  0
  1 24  1  0
  1 25  1  0
  3 26  1  0
  4 27  1  0
  5 28  1  0
 10 29  1  0
 10 30  1  0
 11 31  1  0
 11 32  1  0
 13 33  1  0
 17 34  1  0
 18 35  1  0
 19 36  1  0
 20 37  1  0
 22 38  1  0
 22 39  1  0
M  END
$$$$
