
     RDKit          3D

 52 54  0  0  0  0  0  0  0  0999 V2000
    1.0845    2.0549    1.0682 C   0  0  0  0  0  0  0  0  0  0  0  0
    1.2386    0.6458    0.6450 C   0  0  0  0  0  0  0  0  0  0  0  0
    2.3257    0.3403   -0.1869 C   0  0  0  0  0  0  0  0  0  0  0  0
    2.5913   -0.9367   -0.6229 C   0  0  0  0  0  0  0  0  0  0  0  0
    3.5828   -1.2618   -1.3918 O   0  0  0  0  0  0  0  0  0  0  0  0
    4.6555   -1.1516   -2.1277 C   0  0  0  0  0  0  0  0  0  0  0  0
    5.8209   -0.6416   -1.3200 C   0  0  0  0  0  0  0  0  0  0  0  0
    6.6788   -1.5624   -0.7697 C   0  0  0  0  0  0  0  0  0  0  0  0
    7.7123   -1.1074    0.0147 C   0  0  0  0  0  0  0  0  0  0  0  0
    7.9184    0.2437    0.2697 C   0  0  0  0  0  0  0  0  0  0  0  0
    8.9647    0.6428    1.0617 F   0  0  0  0  0  0  0  0  0  0  0  0
    7.0378    1.1314   -0.3009 C   0  0  0  0  0  0  0  0  0  0  0  0
    5.9868    0.6776   -1.1010 C   0  0  0  0  0  0  0  0  0  0  0  0
    5.2074    1.6545   -1.6393 F   0  0  0  0  0  0  0  0  0  0  0  0
    1.6744   -1.9057   -0.1586 C   0  0  0  0  0  0  0  0  0  0  0  0
    1.9594   -3.7011   -0.7129 Br  0  0  0  0  0  0  0  0  0  0  0  0
    0.6211   -1.5776    0.6540 C   0  0  0  0  0  0  0  0  0  0  0  0
   -0.1534   -2.5158    1.0238 O   0  0  0  0  0  0  0  0  0  0  0  0
    0.4030   -0.2906    1.0577 N   0  0  0  0  0  0  0  0  0  0  0  0
   -0.7095   -0.0926    1.9296 C   0  0  0  0  0  0  0  0  0  0  0  0
   -1.9613    0.0293    1.1425 C   0  0  0  0  0  0  0  0  0  0  0  0
   -2.8881   -1.0281    1.1487 C   0  0  0  0  0  0  0  0  0  0  0  0
   -4.0524   -0.9689    0.4304 C   0  0  0  0  0  0  0  0  0  0  0  0
   -4.3693    0.1343   -0.3328 C   0  0  0  0  0  0  0  0  0  0  0  0
   -5.6474    0.1105   -1.0561 C   0  0  0  0  0  0  0  0  0  0  0  0
   -5.6501   -0.0518   -2.2951 O   0  0  0  0  0  0  0  0  0  0  0  0
   -6.8766    0.2655   -0.3817 N   0  0  0  0  0  0  0  0  0  0  0  0
   -6.8634    0.4683    1.0513 C   0  0  0  0  0  0  0  0  0  0  0  0
   -8.1159    0.2096   -1.0896 C   0  0  0  0  0  0  0  0  0  0  0  0
   -3.4827    1.1774   -0.3544 C   0  0  0  0  0  0  0  0  0  0  0  0
   -2.2864    1.1187    0.3816 C   0  0  0  0  0  0  0  0  0  0  0  0
    2.0606    2.3679    1.5391 H   0  0  0  0  0  0  0  0  0  0  0  0
    0.9667    2.6565    0.1189 H   0  0  0  0  0  0  0  0  0  0  0  0
    0.2521    2.2723    1.7252 H   0  0  0  0  0  0  0  0  0  0  0  0
    2.9760    1.1441   -0.4990 H   0  0  0  0  0  0  0  0  0  0  0  0
    5.0030   -2.1570   -2.5568 H   0  0  0  0  0  0  0  0  0  0  0  0
    4.5937   -0.4706   -3.0362 H   0  0  0  0  0  0  0  0  0  0  0  0
    6.5520   -2.6404   -0.9461 H   0  0  0  0  0  0  0  0  0  0  0  0
    8.4158   -1.8141    0.4704 H   0  0  0  0  0  0  0  0  0  0  0  0
    7.1603    2.2034   -0.1252 H   0  0  0  0  0  0  0  0  0  0  0  0
   -0.8380   -0.9970    2.6056 H   0  0  0  0  0  0  0  0  0  0  0  0
   -0.6357    0.7510    2.6285 H   0  0  0  0  0  0  0  0  0  0  0  0
   -2.6555   -1.8840    1.7459 H   0  0  0  0  0  0  0  0  0  0  0  0
   -4.7497   -1.8001    0.4516 H   0  0  0  0  0  0  0  0  0  0  0  0
   -5.8955    0.8503    1.4269 H   0  0  0  0  0  0  0  0  0  0  0  0
   -7.0341   -0.5140    1.5743 H   0  0  0  0  0  0  0  0  0  0  0  0
   -7.7116    1.1388    1.3670 H   0  0  0  0  0  0  0  0  0  0  0  0
   -8.4489    1.2129   -1.4669 H   0  0  0  0  0  0  0  0  0  0  0  0
   -8.1038   -0.4647   -1.9784 H   0  0  0  0  0  0  0  0  0  0  0  0
   -8.9517   -0.1848   -0.4523 H   0  0  0  0  0  0  0  0  0  0  0  0
   -3.7290    2.0484   -0.9540 H   0  0  0  0  0  0  0  0  0  0  0  0
   -1.6337    1.9778    0.3238 H   0  0  0  0  0  0  0  0  0  0  0  0
  1  2  1  0
  2  3  2  0
  3  4  1  0
  4  5  1  0
  5  6  1  0
  6  7  1  0
  7  8  2  0
  8  9  1  0
  9 10  2  0
 10 11  1  0
 10 12  1  0
 12 13  2  0
 13 14  1  0
  4 15  2  0
 15 16  1  0
 15 17  1  0
 17 18  2  0
 17 19  1  0
 19 20  1  0
 20 21  1  0
 21 22  2  0
 22 23  1  0
 23 24  2  0
 24 25  1  0
 25 26  2  0
 25 27  1  0
 27 28  1  0
 27 29  1  0
 24 30  1  0
 30 31  2  0
 19  2  1  0
 31 21  1  0
 13  7  1  0
  1 32  1  0
  1 33  1  0
  1 34  1  0
  3 35  1  0
  6 36  1  0
  6 37  1  0
  8 38  1  0
  9 39  1  0
 12 40  1  0
 20 41  1  0
 20 42  1  0
 22 43  1  0
 23 44  1  0
 28 45  1  0
 28 46  1  0
 28 47  1  0
 29 48  1  0
 29 49  1  0
 29 50  1  0
 30 51  1  0
 31 52  1  0
M  END
$$$$
