
     RDKit          3D

 53 55  0  0  0  0  0  0  0  0999 V2000
   -7.7748    1.2981    1.3797 C   0  0  0  0  0  0  0  0  0  0  0  0
   -6.4353    1.9454    1.6810 C   0  0  0  0  0  0  0  0  0  0  0  0
   -5.4130    1.3617    0.7385 C   0  0  0  0  0  0  0  0  0  0  0  0
   -5.3056   -0.1509    0.9275 C   0  0  0  0  0  0  0  0  0  0  0  0
   -4.3139   -0.6537    0.0005 N   0  0  0  0  0  0  0  0  0  0  0  0
   -4.6050   -1.0950   -1.3294 C   0  0  0  0  0  0  0  0  0  0  0  0
   -5.7433   -1.1043   -1.8609 O   0  0  0  0  0  0  0  0  0  0  0  0
   -3.3204   -1.5032   -1.8689 C   0  0  0  0  0  0  0  0  0  0  0  0
   -3.1173   -1.9584   -3.0168 O   0  0  0  0  0  0  0  0  0  0  0  0
   -2.2758   -1.3082   -0.8739 C   0  0  0  0  0  0  0  0  0  0  0  0
   -0.8960   -1.5320   -0.8692 C   0  0  0  0  0  0  0  0  0  0  0  0
   -0.1248   -1.2514    0.2367 C   0  0  0  0  0  0  0  0  0  0  0  0
    1.6152   -1.5321    0.2467 S   0  0  0  0  0  6  0  0  0  0  0  0
    1.9586   -1.8727    1.6638 O   0  0  0  0  0  0  0  0  0  0  0  0
    1.9105   -2.6912   -0.6441 O   0  0  0  0  0  0  0  0  0  0  0  0
    2.4595   -0.1280   -0.3018 N   0  0  0  0  0  0  0  0  0  0  0  0
    2.0748    0.1869   -1.6711 C   0  0  0  0  0  0  0  0  0  0  0  0
    3.0864    1.2565   -2.0017 C   0  0  0  0  0  0  0  0  0  0  0  0
    4.3468    0.6795   -1.3801 C   0  0  0  0  0  0  0  0  0  0  0  0
    3.9093   -0.3848   -0.3886 C   0  0  1  0  0  0  0  0  0  0  0  0
    4.4931   -0.1376    0.9730 C   0  0  0  0  0  0  0  0  0  0  0  0
    5.8139   -0.3610    1.1431 O   0  0  0  0  0  0  0  0  0  0  0  0
    6.7383    0.3020    0.4165 C   0  0  0  0  0  0  0  0  0  0  0  0
    8.1159   -0.1779    0.9266 C   0  0  0  0  0  0  0  0  0  0  0  0
    8.2441    0.1104    2.2601 F   0  0  0  0  0  0  0  0  0  0  0  0
    9.1128    0.4074    0.1647 F   0  0  0  0  0  0  0  0  0  0  0  0
    8.2315   -1.5456    0.7734 F   0  0  0  0  0  0  0  0  0  0  0  0
   -0.7600   -0.7397    1.3462 C   0  0  0  0  0  0  0  0  0  0  0  0
   -2.1250   -0.5147    1.3517 C   0  0  0  0  0  0  0  0  0  0  0  0
   -2.8975   -0.7967    0.2411 C   0  0  0  0  0  0  0  0  0  0  0  0
   -8.5480    2.0962    1.3425 H   0  0  0  0  0  0  0  0  0  0  0  0
   -8.0811    0.5850    2.1677 H   0  0  0  0  0  0  0  0  0  0  0  0
   -7.7486    0.8361    0.3825 H   0  0  0  0  0  0  0  0  0  0  0  0
   -6.4996    3.0325    1.4457 H   0  0  0  0  0  0  0  0  0  0  0  0
   -6.1364    1.8161    2.7378 H   0  0  0  0  0  0  0  0  0  0  0  0
   -4.4308    1.8584    0.9190 H   0  0  0  0  0  0  0  0  0  0  0  0
   -5.7388    1.5614   -0.2954 H   0  0  0  0  0  0  0  0  0  0  0  0
   -6.2999   -0.5677    0.7442 H   0  0  0  0  0  0  0  0  0  0  0  0
   -4.9761   -0.3965    1.9499 H   0  0  0  0  0  0  0  0  0  0  0  0
   -0.4094   -1.9284   -1.7314 H   0  0  0  0  0  0  0  0  0  0  0  0
    1.0854    0.6417   -1.7004 H   0  0  0  0  0  0  0  0  0  0  0  0
    2.2310   -0.6499   -2.3570 H   0  0  0  0  0  0  0  0  0  0  0  0
    2.8117    2.2257   -1.5700 H   0  0  0  0  0  0  0  0  0  0  0  0
    3.1805    1.4016   -3.0949 H   0  0  0  0  0  0  0  0  0  0  0  0
    4.9303    0.2752   -2.2295 H   0  0  0  0  0  0  0  0  0  0  0  0
    4.8313    1.5372   -0.8609 H   0  0  0  0  0  0  0  0  0  0  0  0
    4.0835   -1.4104   -0.7422 H   0  0  0  0  0  0  0  0  0  0  0  0
    4.1585    0.8793    1.3071 H   0  0  0  0  0  0  0  0  0  0  0  0
    3.9618   -0.8264    1.6980 H   0  0  0  0  0  0  0  0  0  0  0  0
    6.7327    1.3948    0.5829 H   0  0  0  0  0  0  0  0  0  0  0  0
    6.6956    0.1388   -0.6846 H   0  0  0  0  0  0  0  0  0  0  0  0
   -0.2023   -0.4960    2.2570 H   0  0  0  0  0  0  0  0  0  0  0  0
   -2.6347   -0.1136    2.2160 H   0  0  0  0  0  0  0  0  0  0  0  0
  1  2  1  0
  2  3  1  0
  3  4  1  0
  4  5  1  0
  5  6  1  0
  6  7  2  0
  6  8  1  0
  8  9  2  0
  8 10  1  0
 10 11  2  0
 11 12  1  0
 12 13  1  0
 13 14  2  0
 13 15  2  0
 13 16  1  0
 16 17  1  0
 17 18  1  0
 18 19  1  0
 19 20  1  0
 20 21  1  0
 21 22  1  0
 22 23  1  0
 23 24  1  0
 24 25  1  0
 24 26  1  0
 24 27  1  0
 12 28  2  0
 28 29  1  0
 29 30  2  0
 30  5  1  0
 30 10  1  0
 20 16  1  0
  1 31  1  0
  1 32  1  0
  1 33  1  0
  2 34  1  0
  2 35  1  0
  3 36  1  0
  3 37  1  0
  4 38  1  0
  4 39  1  0
 11 40  1  0
 17 41  1  0
 17 42  1  0
 18 43  1  0
 18 44  1  0
 19 45  1  0
 19 46  1  0
 20 47  1  6
 21 48  1  0
 21 49  1  0
 23 50  1  0
 23 51  1  0
 28 52  1  0
 29 53  1  0
M  END
$$$$
