
     RDKit          3D

 36 38  0  0  0  0  0  0  0  0999 V2000
   -5.1144    0.3325   -1.3980 F   0  0  0  0  0  0  0  0  0  0  0  0
   -3.7582    0.4807   -1.1452 C   0  0  0  0  0  0  0  0  0  0  0  0
   -3.0328   -0.6141   -1.5835 F   0  0  0  0  0  0  0  0  0  0  0  0
   -3.3565    1.5358   -1.9489 F   0  0  0  0  0  0  0  0  0  0  0  0
   -3.4914    0.7630    0.3180 C   0  0  0  0  0  0  0  0  0  0  0  0
   -2.1027    0.9215    0.6146 N   0  0  0  0  0  0  0  0  0  0  0  0
   -1.3602   -0.2750    0.9474 C   0  0  0  0  0  0  0  0  0  0  0  0
    0.0247   -0.4569    0.8420 C   0  0  0  0  0  0  0  0  0  0  0  0
    0.7051   -1.5932    1.2395 C   0  0  0  0  0  0  0  0  0  0  0  0
   -0.0971   -2.5856    1.7638 C   0  0  0  0  0  0  0  0  0  0  0  0
    0.7269   -4.0424    2.2743 Cl  0  0  0  0  0  0  0  0  0  0  0  0
   -1.4829   -2.4131    1.8686 C   0  0  0  0  0  0  0  0  0  0  0  0
   -2.1330   -1.2713    1.4690 C   0  0  0  0  0  0  0  0  0  0  0  0
    0.9728    0.4828    0.2521 C   0  0  0  0  0  0  0  0  0  0  0  0
    0.9200    1.7945    0.3697 N   0  0  0  0  0  0  0  0  0  0  0  0
   -0.0696    2.5970    1.0881 C   0  0  0  0  0  0  0  0  0  0  0  0
   -1.4571    2.2261    0.5787 C   0  0  0  0  0  0  0  0  0  0  0  0
   -2.2104    3.0935    0.0451 O   0  0  0  0  0  0  0  0  0  0  0  0
    2.0808   -0.0140   -0.5426 C   0  0  0  0  0  0  0  0  0  0  0  0
    3.0275    0.9636   -0.8952 C   0  0  0  0  0  0  0  0  0  0  0  0
    4.1255    0.7480   -1.7027 C   0  0  0  0  0  0  0  0  0  0  0  0
    4.3428   -0.5087   -2.2211 C   0  0  0  0  0  0  0  0  0  0  0  0
    3.4464   -1.5027   -1.9090 C   0  0  0  0  0  0  0  0  0  0  0  0
    2.3964   -1.1964   -1.1086 C   0  0  0  0  0  0  0  0  0  0  0  0
   -3.8504    1.8708    0.3850 H   0  0  0  0  0  0  0  0  0  0  0  0
   -4.1656    0.3318    1.0333 H   0  0  0  0  0  0  0  0  0  0  0  0
    1.7688   -1.6235    1.1610 H   0  0  0  0  0  0  0  0  0  0  0  0
   -2.0735   -3.2166    2.2841 H   0  0  0  0  0  0  0  0  0  0  0  0
   -3.1752   -1.1269    1.5379 H   0  0  0  0  0  0  0  0  0  0  0  0
    0.1390    3.6479    0.8444 H   0  0  0  0  0  0  0  0  0  0  0  0
   -0.0190    2.3554    2.1453 H   0  0  0  0  0  0  0  0  0  0  0  0
    2.9890    2.0059   -0.5608 H   0  0  0  0  0  0  0  0  0  0  0  0
    4.8484    1.5049   -1.9686 H   0  0  0  0  0  0  0  0  0  0  0  0
    5.1791   -0.7438   -2.8558 H   0  0  0  0  0  0  0  0  0  0  0  0
    3.5768   -2.4881   -2.2887 H   0  0  0  0  0  0  0  0  0  0  0  0
    1.6800   -1.9832   -0.9332 H   0  0  0  0  0  0  0  0  0  0  0  0
  1  2  1  0
  2  3  1  0
  2  4  1  0
  2  5  1  0
  5  6  1  0
  6  7  1  0
  7  8  2  0
  8  9  1  0
  9 10  2  0
 10 11  1  0
 10 12  1  0
 12 13  2  0
  8 14  1  0
 14 15  2  0
 15 16  1  0
 16 17  1  0
 17 18  2  0
 14 19  1  0
 19 20  2  0
 20 21  1  0
 21 22  2  0
 22 23  1  0
 23 24  2  0
 17  6  1  0
 24 19  1  0
 13  7  1  0
  5 25  1  0
  5 26  1  0
  9 27  1  0
 12 28  1  0
 13 29  1  0
 16 30  1  0
 16 31  1  0
 20 32  1  0
 21 33  1  0
 22 34  1  0
 23 35  1  0
 24 36  1  0
M  END
$$$$
