
     RDKit          3D

 57 59  0  0  0  0  0  0  0  0999 V2000
    8.8760    0.0627   -0.2509 C   0  0  0  0  0  0  0  0  0  0  0  0
    7.5200   -0.4282   -1.2944 S   0  0  0  0  0  6  0  0  0  0  0  0
    7.2337    0.5911   -2.3552 O   0  0  0  0  0  0  0  0  0  0  0  0
    7.9883   -1.6924   -1.9965 O   0  0  0  0  0  0  0  0  0  0  0  0
    6.0883   -0.8143   -0.3675 C   0  0  0  0  0  0  0  0  0  0  0  0
    5.8243   -2.1261   -0.0575 C   0  0  0  0  0  0  0  0  0  0  0  0
    4.7031   -2.4536    0.6856 C   0  0  0  0  0  0  0  0  0  0  0  0
    3.8490   -1.4267    1.1109 C   0  0  0  0  0  0  0  0  0  0  0  0
    4.1250   -0.1222    0.7936 C   0  0  0  0  0  0  0  0  0  0  0  0
    3.2349    0.9309    1.2503 C   0  0  0  0  0  0  0  0  0  0  0  0
    3.5355    1.6742    2.2216 O   0  0  0  0  0  0  0  0  0  0  0  0
    1.9902    1.0961    0.5429 N   0  0  0  0  0  0  0  0  0  0  0  0
    1.6368    0.2399   -0.5452 C   0  0  0  0  0  0  0  0  0  0  0  0
    0.2189    0.4613   -0.9633 C   0  0  0  0  0  0  0  0  0  0  0  0
   -0.6409    0.6435    0.2334 C   0  0  0  0  0  0  0  0  0  0  0  0
   -2.0935    0.5838   -0.0299 C   0  0  0  0  0  0  0  0  0  0  0  0
   -2.7147    1.5763   -0.7550 C   0  0  0  0  0  0  0  0  0  0  0  0
   -4.0705    1.5219   -1.0297 C   0  0  0  0  0  0  0  0  0  0  0  0
   -4.8421    0.4708   -0.5851 C   0  0  0  0  0  0  0  0  0  0  0  0
   -6.2596    0.4660   -0.9059 C   0  0  0  0  0  0  0  0  0  0  0  0
   -6.7672    1.3664   -1.6427 O   0  0  0  0  0  0  0  0  0  0  0  0
   -7.1606   -0.5123   -0.4329 N   0  0  0  0  0  0  0  0  0  0  0  0
   -8.5566   -0.5211   -0.7433 C   0  0  0  0  0  0  0  0  0  0  0  0
   -8.9884    0.4300   -1.5065 N   0  0  0  0  0  0  0  0  0  0  0  0
   -9.4333   -1.5181   -0.2410 N   0  0  0  0  0  0  0  0  0  0  0  0
   -4.1954   -0.4960    0.1311 C   0  0  0  0  0  0  0  0  0  0  0  0
   -2.8279   -0.4675    0.4230 C   0  0  0  0  0  0  0  0  0  0  0  0
   -2.2901   -1.5831    1.2087 C   0  0  0  0  0  0  0  0  0  0  0  0
   -1.7265   -1.2555    2.4075 F   0  0  0  0  0  0  0  0  0  0  0  0
   -3.3108   -2.4604    1.4972 F   0  0  0  0  0  0  0  0  0  0  0  0
   -1.3988   -2.3184    0.4096 F   0  0  0  0  0  0  0  0  0  0  0  0
   -0.3141    2.0154    0.7872 C   0  0  0  0  0  0  0  0  0  0  0  0
    1.1650    2.1810    0.9762 C   0  0  0  0  0  0  0  0  0  0  0  0
    5.2608    0.1993    0.0425 C   0  0  0  0  0  0  0  0  0  0  0  0
    9.0240    1.1591   -0.4387 H   0  0  0  0  0  0  0  0  0  0  0  0
    9.8271   -0.4395   -0.5147 H   0  0  0  0  0  0  0  0  0  0  0  0
    8.6613   -0.1140    0.8161 H   0  0  0  0  0  0  0  0  0  0  0  0
    6.4721   -2.9548   -0.3746 H   0  0  0  0  0  0  0  0  0  0  0  0
    4.4820   -3.4784    0.9377 H   0  0  0  0  0  0  0  0  0  0  0  0
    2.9782   -1.7275    1.6942 H   0  0  0  0  0  0  0  0  0  0  0  0
    1.7633   -0.8244   -0.2142 H   0  0  0  0  0  0  0  0  0  0  0  0
    2.3472    0.4282   -1.3988 H   0  0  0  0  0  0  0  0  0  0  0  0
   -0.1485   -0.2888   -1.6897 H   0  0  0  0  0  0  0  0  0  0  0  0
    0.2302    1.4235   -1.5640 H   0  0  0  0  0  0  0  0  0  0  0  0
   -0.3506   -0.0414    1.0840 H   0  0  0  0  0  0  0  0  0  0  0  0
   -2.1449    2.4449   -1.1395 H   0  0  0  0  0  0  0  0  0  0  0  0
   -4.4975    2.3278   -1.5997 H   0  0  0  0  0  0  0  0  0  0  0  0
   -6.8074   -1.2739    0.1777 H   0  0  0  0  0  0  0  0  0  0  0  0
  -10.0156    0.4182   -1.7322 H   0  0  0  0  0  0  0  0  0  0  0  0
   -9.2622   -2.5002   -0.5283 H   0  0  0  0  0  0  0  0  0  0  0  0
  -10.2370   -1.3351    0.3941 H   0  0  0  0  0  0  0  0  0  0  0  0
   -4.8178   -1.3212    0.4755 H   0  0  0  0  0  0  0  0  0  0  0  0
   -0.6094    2.8336    0.0635 H   0  0  0  0  0  0  0  0  0  0  0  0
   -0.8569    2.1668    1.7580 H   0  0  0  0  0  0  0  0  0  0  0  0
    1.3180    2.3764    2.0870 H   0  0  0  0  0  0  0  0  0  0  0  0
    1.5382    3.1602    0.5306 H   0  0  0  0  0  0  0  0  0  0  0  0
    5.4472    1.2458   -0.1914 H   0  0  0  0  0  0  0  0  0  0  0  0
  1  2  1  0
  2  3  2  0
  2  4  2  0
  2  5  1  0
  5  6  2  0
  6  7  1  0
  7  8  2  0
  8  9  1  0
  9 10  1  0
 10 11  2  0
 10 12  1  0
 12 13  1  0
 13 14  1  0
 14 15  1  0
 15 16  1  0
 16 17  2  0
 17 18  1  0
 18 19  2  0
 19 20  1  0
 20 21  2  0
 20 22  1  0
 22 23  1  0
 23 24  2  3
 23 25  1  0
 19 26  1  0
 26 27  2  0
 27 28  1  0
 28 29  1  0
 28 30  1  0
 28 31  1  0
 15 32  1  0
 32 33  1  0
  9 34  2  0
 34  5  1  0
 33 12  1  0
 27 16  1  0
  1 35  1  0
  1 36  1  0
  1 37  1  0
  6 38  1  0
  7 39  1  0
  8 40  1  0
 13 41  1  0
 13 42  1  0
 14 43  1  0
 14 44  1  0
 15 45  1  0
 17 46  1  0
 18 47  1  0
 22 48  1  0
 24 49  1  0
 25 50  1  0
 25 51  1  0
 26 52  1  0
 32 53  1  0
 32 54  1  0
 33 55  1  0
 33 56  1  0
 34 57  1  0
M  END
$$$$
