
     RDKit          3D

 55 58  0  0  0  0  0  0  0  0999 V2000
   -2.5917   -0.5185    3.3534 C   0  0  0  0  0  0  0  0  0  0  0  0
   -1.3307   -1.1558    2.9124 C   0  0  0  0  0  0  0  0  0  0  0  0
   -0.5797   -0.7648    1.8228 C   0  0  0  0  0  0  0  0  0  0  0  0
   -0.7314    0.2491    0.8705 C   0  0  0  0  0  0  0  0  0  0  0  0
   -1.8322    1.0827    0.9583 O   0  0  0  0  0  0  0  0  0  0  0  0
   -2.1598    2.1361    0.1265 C   0  0  2  0  0  0  0  0  0  0  0  0
   -2.1853    3.4784    0.8705 C   0  0  0  0  0  0  0  0  0  0  0  0
   -3.4880    2.0080   -0.5638 C   0  0  1  0  0  0  0  0  0  0  0  0
   -3.5672    0.7784   -1.4430 C   0  0  0  0  0  0  0  0  0  0  0  0
   -5.0097    0.6863   -1.6637 N   0  0  0  0  0  0  0  0  0  0  0  0
   -5.6939    1.3272   -0.6008 C   0  0  0  0  0  0  0  0  0  0  0  0
   -6.9300    1.4536   -0.4645 O   0  0  0  0  0  0  0  0  0  0  0  0
   -4.6606    1.8309    0.3391 C   0  0  0  0  0  0  0  0  0  0  0  0
    0.2441    0.3382   -0.0951 C   0  0  0  0  0  0  0  0  0  0  0  0
    1.3421   -0.5210   -0.1527 C   0  0  0  0  0  0  0  0  0  0  0  0
    2.3512   -0.3998   -1.1846 C   0  0  0  0  0  0  0  0  0  0  0  0
    2.1582    0.0289   -2.4698 C   0  0  0  0  0  0  0  0  0  0  0  0
    3.3759   -0.0186   -3.0789 N   0  0  0  0  0  0  0  0  0  0  0  0
    4.2919   -0.4536   -2.2271 N   0  0  0  0  0  0  0  0  0  0  0  0
    5.7108   -0.6537   -2.4614 C   0  0  0  0  0  0  0  0  0  0  0  0
    5.9442   -2.1422   -2.6505 C   0  0  0  0  0  0  0  0  0  0  0  0
    6.1847    0.1461   -3.6409 C   0  0  0  0  0  0  0  0  0  0  0  0
    3.6788   -0.6962   -1.0459 C   0  0  0  0  0  0  0  0  0  0  0  0
    1.4260   -1.5010    0.8238 C   0  0  0  0  0  0  0  0  0  0  0  0
    0.4886   -1.6335    1.8018 C   0  0  0  0  0  0  0  0  0  0  0  0
    0.3392   -2.4907    2.8550 N   0  0  0  0  0  0  0  0  0  0  0  0
   -0.7603   -2.2038    3.5281 N   0  0  0  0  0  0  0  0  0  0  0  0
   -1.2800   -2.8791    4.7166 C   0  0  0  0  0  0  0  0  0  0  0  0
   -3.1044   -1.1412    4.1273 H   0  0  0  0  0  0  0  0  0  0  0  0
   -3.2774   -0.5410    2.4711 H   0  0  0  0  0  0  0  0  0  0  0  0
   -2.4487    0.5213    3.6685 H   0  0  0  0  0  0  0  0  0  0  0  0
   -1.4134    2.2837   -0.6780 H   0  0  0  0  0  0  0  0  0  0  0  0
   -1.4641    3.4722    1.7138 H   0  0  0  0  0  0  0  0  0  0  0  0
   -2.0125    4.3064    0.1539 H   0  0  0  0  0  0  0  0  0  0  0  0
   -3.1887    3.6033    1.2960 H   0  0  0  0  0  0  0  0  0  0  0  0
   -3.6411    2.8903   -1.1916 H   0  0  0  0  0  0  0  0  0  0  0  0
   -3.2877   -0.1142   -0.8707 H   0  0  0  0  0  0  0  0  0  0  0  0
   -3.0072    0.9134   -2.3689 H   0  0  0  0  0  0  0  0  0  0  0  0
   -5.4336    0.2133   -2.4890 H   0  0  0  0  0  0  0  0  0  0  0  0
   -4.4671    0.9790    1.0521 H   0  0  0  0  0  0  0  0  0  0  0  0
   -4.9837    2.7353    0.8758 H   0  0  0  0  0  0  0  0  0  0  0  0
    0.1880    1.0903   -0.8519 H   0  0  0  0  0  0  0  0  0  0  0  0
    1.2689    0.3539   -2.9776 H   0  0  0  0  0  0  0  0  0  0  0  0
    6.2829   -0.3278   -1.5792 H   0  0  0  0  0  0  0  0  0  0  0  0
    5.7064   -2.6221   -1.6897 H   0  0  0  0  0  0  0  0  0  0  0  0
    5.2637   -2.5526   -3.4116 H   0  0  0  0  0  0  0  0  0  0  0  0
    7.0094   -2.2543   -2.9319 H   0  0  0  0  0  0  0  0  0  0  0  0
    7.2647    0.3742   -3.4849 H   0  0  0  0  0  0  0  0  0  0  0  0
    6.0079   -0.3676   -4.6070 H   0  0  0  0  0  0  0  0  0  0  0  0
    5.6634    1.1168   -3.6248 H   0  0  0  0  0  0  0  0  0  0  0  0
    4.2104   -1.0686   -0.1582 H   0  0  0  0  0  0  0  0  0  0  0  0
    2.2712   -2.1924    0.8114 H   0  0  0  0  0  0  0  0  0  0  0  0
   -0.5128   -3.5731    5.1228 H   0  0  0  0  0  0  0  0  0  0  0  0
   -2.1651   -3.4746    4.4800 H   0  0  0  0  0  0  0  0  0  0  0  0
   -1.4646   -2.1358    5.5314 H   0  0  0  0  0  0  0  0  0  0  0  0
  1  2  1  0
  2  3  2  0
  3  4  1  0
  4  5  1  0
  5  6  1  0
  6  7  1  0
  6  8  1  0
  8  9  1  0
  9 10  1  0
 10 11  1  0
 11 12  2  0
 11 13  1  0
  4 14  2  0
 14 15  1  0
 15 16  1  0
 16 17  1  0
 17 18  2  0
 18 19  1  0
 19 20  1  0
 20 21  1  0
 20 22  1  0
 19 23  1  0
 15 24  2  0
 24 25  1  0
 25 26  2  0
 26 27  1  0
 27 28  1  0
 27  2  1  0
 25  3  1  0
 13  8  1  0
 23 16  2  0
  1 29  1  0
  1 30  1  0
  1 31  1  0
  6 32  1  6
  7 33  1  0
  7 34  1  0
  7 35  1  0
  8 36  1  6
  9 37  1  0
  9 38  1  0
 10 39  1  0
 13 40  1  0
 13 41  1  0
 14 42  1  0
 17 43  1  0
 20 44  1  0
 21 45  1  0
 21 46  1  0
 21 47  1  0
 22 48  1  0
 22 49  1  0
 22 50  1  0
 23 51  1  0
 24 52  1  0
 28 53  1  0
 28 54  1  0
 28 55  1  0
M  END
$$$$
