
     RDKit          3D

 57 61  0  0  0  0  0  0  0  0999 V2000
    2.1393    1.6405   -3.4183 C   0  0  0  0  0  0  0  0  0  0  0  0
    2.1923    2.4473   -2.1509 C   0  0  0  0  0  0  0  0  0  0  0  0
    1.1484    2.0434   -1.1675 C   0  0  0  0  0  0  0  0  0  0  0  0
   -0.0090    2.6714   -0.8931 N   0  0  0  0  0  0  0  0  0  0  0  0
   -0.7064    2.0501    0.0228 N   0  0  0  0  0  0  0  0  0  0  0  0
   -1.9711    2.3752    0.5893 C   0  0  0  0  0  0  0  0  0  0  0  0
   -2.3020    2.1814    1.9139 C   0  0  0  0  0  0  0  0  0  0  0  0
   -3.5531    2.5048    2.4088 C   0  0  0  0  0  0  0  0  0  0  0  0
   -4.4940    3.0357    1.5533 C   0  0  0  0  0  0  0  0  0  0  0  0
   -4.1904    3.2395    0.2296 C   0  0  0  0  0  0  0  0  0  0  0  0
   -2.9411    2.9106   -0.2393 C   0  0  0  0  0  0  0  0  0  0  0  0
   -2.6024    3.1309   -1.6715 C   0  0  0  0  0  0  0  0  0  0  0  0
    0.0131    0.9669    0.3727 C   0  0  0  0  0  0  0  0  0  0  0  0
   -0.3356   -0.0094    1.3681 N   0  0  0  0  0  0  0  0  0  0  0  0
   -1.2928   -1.0028    1.0318 C   0  0  0  0  0  0  0  0  0  0  0  0
   -1.8766   -0.9794   -0.2445 C   0  0  0  0  0  0  0  0  0  0  0  0
   -2.7956   -1.8910   -0.6547 C   0  0  0  0  0  0  0  0  0  0  0  0
   -3.1772   -2.8882    0.2179 C   0  0  0  0  0  0  0  0  0  0  0  0
   -2.6344   -2.9523    1.4758 C   0  0  0  0  0  0  0  0  0  0  0  0
   -1.6832   -2.0010    1.8882 C   0  0  0  0  0  0  0  0  0  0  0  0
   -1.1564   -2.1174    3.2270 C   0  0  0  0  0  0  0  0  0  0  0  0
   -0.3400   -1.3359    3.7108 O   0  0  0  0  0  0  0  0  0  0  0  0
   -1.5656   -3.1706    4.0747 O   0  0  0  0  0  0  0  0  0  0  0  0
    1.1976    0.9252   -0.3591 C   0  0  0  0  0  0  0  0  0  0  0  0
    2.2331   -0.0982   -0.2392 C   0  0  0  0  0  0  0  0  0  0  0  0
    3.2616    0.0521    0.6919 C   0  0  0  0  0  0  0  0  0  0  0  0
    4.2603   -0.8788    0.8338 C   0  0  0  0  0  0  0  0  0  0  0  0
    4.2396   -2.0043    0.0206 C   0  0  0  0  0  0  0  0  0  0  0  0
    5.2207   -2.9425    0.1418 N   0  0  0  0  0  0  0  0  0  0  0  0
    5.2309   -4.0421   -0.6296 C   0  0  0  0  0  0  0  0  0  0  0  0
    4.2113   -4.1948   -1.5554 C   0  0  0  0  0  0  0  0  0  0  0  0
    3.2211   -3.3034   -1.7165 N   0  0  0  0  0  0  0  0  0  0  0  0
    3.2490   -2.2006   -0.9125 C   0  0  0  0  0  0  0  0  0  0  0  0
    2.2645   -1.2320   -1.0163 C   0  0  0  0  0  0  0  0  0  0  0  0
    1.1464    1.8330   -3.9149 H   0  0  0  0  0  0  0  0  0  0  0  0
    2.9629    2.0163   -4.0784 H   0  0  0  0  0  0  0  0  0  0  0  0
    2.1793    0.5542   -3.2674 H   0  0  0  0  0  0  0  0  0  0  0  0
    1.9493    3.5066   -2.4503 H   0  0  0  0  0  0  0  0  0  0  0  0
    3.2095    2.4317   -1.7220 H   0  0  0  0  0  0  0  0  0  0  0  0
   -1.5479    1.7617    2.5743 H   0  0  0  0  0  0  0  0  0  0  0  0
   -3.8104    2.3479    3.4616 H   0  0  0  0  0  0  0  0  0  0  0  0
   -5.4693    3.2804    1.9630 H   0  0  0  0  0  0  0  0  0  0  0  0
   -4.9703    3.6585   -0.3965 H   0  0  0  0  0  0  0  0  0  0  0  0
   -3.5043    3.4946   -2.1871 H   0  0  0  0  0  0  0  0  0  0  0  0
   -1.8134    3.9039   -1.8081 H   0  0  0  0  0  0  0  0  0  0  0  0
   -2.3167    2.1890   -2.1849 H   0  0  0  0  0  0  0  0  0  0  0  0
    0.1136    0.0481    2.2660 H   0  0  0  0  0  0  0  0  0  0  0  0
   -1.5769   -0.2065   -0.9140 H   0  0  0  0  0  0  0  0  0  0  0  0
   -3.2531   -1.8830   -1.6377 H   0  0  0  0  0  0  0  0  0  0  0  0
   -3.9114   -3.6159   -0.1129 H   0  0  0  0  0  0  0  0  0  0  0  0
   -2.9051   -3.7125    2.1864 H   0  0  0  0  0  0  0  0  0  0  0  0
   -1.0039   -3.4528    4.8800 H   0  0  0  0  0  0  0  0  0  0  0  0
    3.2296    0.9472    1.3029 H   0  0  0  0  0  0  0  0  0  0  0  0
    5.0703   -0.7592    1.5709 H   0  0  0  0  0  0  0  0  0  0  0  0
    6.0173   -4.7914   -0.5319 H   0  0  0  0  0  0  0  0  0  0  0  0
    4.2709   -5.1124   -2.1620 H   0  0  0  0  0  0  0  0  0  0  0  0
    1.4780   -1.3695   -1.7413 H   0  0  0  0  0  0  0  0  0  0  0  0
  1  2  1  0
  2  3  1  0
  3  4  2  0
  4  5  1  0
  5  6  1  0
  6  7  2  0
  7  8  1  0
  8  9  2  0
  9 10  1  0
 10 11  2  0
 11 12  1  0
  5 13  1  0
 13 14  1  0
 14 15  1  0
 15 16  2  0
 16 17  1  0
 17 18  2  0
 18 19  1  0
 19 20  2  0
 20 21  1  0
 21 22  2  0
 21 23  1  0
 13 24  2  0
 24 25  1  0
 25 26  2  0
 26 27  1  0
 27 28  2  0
 28 29  1  0
 29 30  2  0
 30 31  1  0
 31 32  2  0
 32 33  1  0
 33 34  2  0
 24  3  1  0
 34 25  1  0
 11  6  1  0
 20 15  1  0
 33 28  1  0
  1 35  1  0
  1 36  1  0
  1 37  1  0
  2 38  1  0
  2 39  1  0
  7 40  1  0
  8 41  1  0
  9 42  1  0
 10 43  1  0
 12 44  1  0
 12 45  1  0
 12 46  1  0
 14 47  1  0
 16 48  1  0
 17 49  1  0
 18 50  1  0
 19 51  1  0
 23 52  1  0
 26 53  1  0
 27 54  1  0
 30 55  1  0
 31 56  1  0
 34 57  1  0
M  END
$$$$
