
     RDKit          3D

 27 29  0  0  0  0  0  0  0  0999 V2000
   -2.5995   -2.7768   -0.8088 O   0  0  0  0  0  0  0  0  0  0  0  0
   -2.5849   -1.5296   -0.6355 C   0  0  0  0  0  0  0  0  0  0  0  0
   -3.7804   -0.7571   -0.6914 N   0  0  0  0  0  0  0  0  0  0  0  0
   -3.8060    0.4516    0.1062 C   0  0  0  0  0  0  0  0  0  0  0  0
   -2.6590    1.3296   -0.2710 C   0  0  0  0  0  0  0  0  0  0  0  0
   -1.3756    0.5970   -0.1819 C   0  0  0  0  0  0  0  0  0  0  0  0
   -0.0923    0.9987    0.0548 N   0  0  0  0  0  0  0  0  0  0  0  0
    0.7392   -0.0565    0.0286 C   0  0  0  0  0  0  0  0  0  0  0  0
    2.1836   -0.0259    0.2373 C   0  0  0  0  0  0  0  0  0  0  0  0
    2.8178    1.1705    0.4903 C   0  0  0  0  0  0  0  0  0  0  0  0
    4.1955    1.1545    0.6832 C   0  0  0  0  0  0  0  0  0  0  0  0
    4.8716   -0.0052    0.6208 N   0  0  0  0  0  0  0  0  0  0  0  0
    4.2944   -1.1906    0.3774 C   0  0  0  0  0  0  0  0  0  0  0  0
    2.9244   -1.1870    0.1838 C   0  0  0  0  0  0  0  0  0  0  0  0
   -0.0573   -1.1511   -0.2334 C   0  0  0  0  0  0  0  0  0  0  0  0
   -1.3621   -0.7651   -0.3654 C   0  0  0  0  0  0  0  0  0  0  0  0
   -4.5918   -1.0774   -1.2940 H   0  0  0  0  0  0  0  0  0  0  0  0
   -4.7827    0.9603   -0.0296 H   0  0  0  0  0  0  0  0  0  0  0  0
   -3.6567    0.1517    1.1728 H   0  0  0  0  0  0  0  0  0  0  0  0
   -2.6654    2.2032    0.4327 H   0  0  0  0  0  0  0  0  0  0  0  0
   -2.8215    1.7069   -1.3212 H   0  0  0  0  0  0  0  0  0  0  0  0
    0.1811    1.9971    0.2297 H   0  0  0  0  0  0  0  0  0  0  0  0
    2.2953    2.1191    0.5458 H   0  0  0  0  0  0  0  0  0  0  0  0
    4.6876    2.1068    0.8828 H   0  0  0  0  0  0  0  0  0  0  0  0
    4.8833   -2.1016    0.3365 H   0  0  0  0  0  0  0  0  0  0  0  0
    2.4734   -2.1577   -0.0124 H   0  0  0  0  0  0  0  0  0  0  0  0
    0.2881   -2.1651   -0.3229 H   0  0  0  0  0  0  0  0  0  0  0  0
  1  2  2  0
  2  3  1  0
  3  4  1  0
  4  5  1  0
  5  6  1  0
  6  7  1  0
  7  8  1  0
  8  9  1  0
  9 10  2  0
 10 11  1  0
 11 12  2  0
 12 13  1  0
 13 14  2  0
  8 15  2  0
 15 16  1  0
 16  2  1  0
 16  6  2  0
 14  9  1  0
  3 17  1  0
  4 18  1  0
  4 19  1  0
  5 20  1  0
  5 21  1  0
  7 22  1  0
 10 23  1  0
 11 24  1  0
 13 25  1  0
 14 26  1  0
 15 27  1  0
M  END
$$$$
