
     RDKit          3D

180185  0  0  0  0  0  0  0  0999 V2000
    5.1609   -1.1261   -1.2657 C   0  0  0  0  0  0  0  0  0  0  0  0
    3.6641   -1.0499   -1.3694 C   0  0  1  0  0  0  0  0  0  0  0  0
    3.1313   -2.1596   -2.0567 O   0  0  0  0  0  0  0  0  0  0  0  0
    2.9520   -0.7657   -0.1131 C   0  0  2  0  0  0  0  0  0  0  0  0
    3.4961    0.3559    0.5793 N   0  0  0  0  0  0  0  0  0  0  0  0
    2.8953    1.4421    1.2866 C   0  0  0  0  0  0  0  0  0  0  0  0
    1.6640    1.3474    1.2767 O   0  0  0  0  0  0  0  0  0  0  0  0
    3.8160    2.4021    1.8643 C   0  0  1  0  0  0  0  0  0  0  0  0
    4.9690    1.7636    2.6296 C   0  0  0  0  0  0  0  0  0  0  0  0
    4.1750    3.6140    1.0926 C   0  0  2  0  0  0  0  0  0  0  0  0
    5.1640    4.2910    1.9454 O   0  0  0  0  0  0  0  0  0  0  0  0
    3.1034    4.6487    0.9259 C   0  0  1  0  0  0  0  0  0  0  0  0
    3.8415    5.9056    0.3955 C   0  0  0  0  0  0  0  0  0  0  0  0
    1.9598    4.3804    0.1488 N   0  0  0  0  0  0  0  0  0  0  0  0
    0.6986    4.9162    0.5845 C   0  0  0  0  0  0  0  0  0  0  0  0
    0.8807    5.5527    1.6810 O   0  0  0  0  0  0  0  0  0  0  0  0
   -0.6858    4.9985    0.2298 C   0  0  1  0  0  0  0  0  0  0  0  0
   -1.0630    4.6101   -1.1179 N   0  0  0  0  0  0  0  0  0  0  0  0
   -0.9598    3.2063   -1.2888 C   0  0  0  0  0  0  0  0  0  0  0  0
   -0.5834    2.6113   -0.2614 O   0  0  0  0  0  0  0  0  0  0  0  0
   -1.1829    2.2622   -2.3692 C   0  0  0  0  0  0  0  0  0  0  0  0
   -1.3485    0.9071   -2.0763 C   0  0  0  0  0  0  0  0  0  0  0  0
   -1.3388    0.3288   -0.7361 C   0  0  0  0  0  0  0  0  0  0  0  0
   -1.5246    0.1032   -3.2225 C   0  0  0  0  0  0  0  0  0  0  0  0
   -1.7136   -1.2898   -2.8755 N   0  0  0  0  0  0  0  0  0  0  0  0
   -1.5342    0.5634   -4.4900 N   0  0  0  0  0  0  0  0  0  0  0  0
   -1.3649    1.8984   -4.7039 C   0  0  0  0  0  0  0  0  0  0  0  0
   -1.2002    2.6843   -3.6414 N   0  0  0  0  0  0  0  0  0  0  0  0
   -1.3814    2.2025   -6.1621 C   0  0  2  0  0  0  0  0  0  0  0  0
   -2.7772    2.2269   -6.7029 C   0  0  0  0  0  0  0  0  0  0  0  0
   -3.6169    3.2616   -6.0307 C   0  0  0  0  0  0  0  0  0  0  0  0
   -4.9699    3.4636   -6.4001 N   0  0  0  0  0  0  0  0  0  0  0  0
   -3.1924    4.0039   -5.1177 O   0  0  0  0  0  0  0  0  0  0  0  0
   -0.6237    1.1723   -6.8248 N   0  0  0  0  0  0  0  0  0  0  0  0
   -0.5100    1.2575   -8.2373 C   0  0  0  0  0  0  0  0  0  0  0  0
    0.3120    0.0830   -8.7967 C   0  0  2  0  0  0  0  0  0  0  0  0
   -0.3341   -1.1677   -8.4477 N   0  0  0  0  0  0  0  0  0  0  0  0
    1.7116    0.1273   -8.2878 C   0  0  0  0  0  0  0  0  0  0  0  0
    2.1960   -0.9564   -7.4935 N   0  0  0  0  0  0  0  0  0  0  0  0
    2.8870    0.5405   -8.0708 O   0  0  0  0  0  0  0  0  0  0  0  0
   -1.6678    4.7523    1.2880 C   0  0  1  0  0  0  0  0  0  0  0  0
   -2.2542    3.4861    1.3271 O   0  0  0  0  0  0  0  0  0  0  0  0
   -3.5249    3.6153    1.8780 C   0  0  0  0  0  0  0  0  0  0  0  0
   -4.4208    3.8269    0.7958 O   0  0  0  0  0  0  0  0  0  0  0  0
   -4.4754    2.7661   -0.0295 C   0  0  0  0  0  0  0  0  0  0  0  0
   -5.3374    3.1053   -1.2764 C   0  0  0  0  0  0  0  0  0  0  0  0
   -6.6397    3.4453   -0.8847 O   0  0  0  0  0  0  0  0  0  0  0  0
   -5.0884    1.5731    0.6702 C   0  0  0  0  0  0  0  0  0  0  0  0
   -6.3843    1.4184    0.2020 O   0  0  0  0  0  0  0  0  0  0  0  0
   -5.1893    1.8141    2.1652 C   0  0  0  0  0  0  0  0  0  0  0  0
   -5.5370    0.6080    2.7274 O   0  0  0  0  0  0  0  0  0  0  0  0
   -3.9499    2.4471    2.7031 C   0  0  0  0  0  0  0  0  0  0  0  0
   -4.1235    2.7537    4.0477 O   0  0  0  0  0  0  0  0  0  0  0  0
   -3.1024    2.3263    4.8685 C   0  0  0  0  0  0  0  0  0  0  0  0
   -2.4849    3.3525    5.5485 O   0  0  0  0  0  0  0  0  0  0  0  0
   -3.1017    3.7756    6.6933 C   0  0  0  0  0  0  0  0  0  0  0  0
   -2.0730    3.8010    7.8145 C   0  0  0  0  0  0  0  0  0  0  0  0
   -1.4875    2.5776    8.0640 O   0  0  0  0  0  0  0  0  0  0  0  0
   -4.3018    3.0044    7.1277 C   0  0  0  0  0  0  0  0  0  0  0  0
   -4.5601    3.3192    8.4711 O   0  0  0  0  0  0  0  0  0  0  0  0
   -4.0615    1.5428    7.0244 C   0  0  0  0  0  0  0  0  0  0  0  0
   -5.2407    0.7786    7.2616 O   0  0  0  0  0  0  0  0  0  0  0  0
   -5.2991   -0.0767    8.3688 C   0  0  0  0  0  0  0  0  0  0  0  0
   -6.4908   -0.7934    8.5456 N   0  0  0  0  0  0  0  0  0  0  0  0
   -4.3193   -0.1637    9.1271 O   0  0  0  0  0  0  0  0  0  0  0  0
   -3.3809    1.1515    5.7633 C   0  0  0  0  0  0  0  0  0  0  0  0
   -3.9773    0.0742    5.1705 O   0  0  0  0  0  0  0  0  0  0  0  0
   -0.9330    4.7424    2.6679 C   0  0  0  0  0  0  0  0  0  0  0  0
   -0.1625    3.7532    3.3040 C   0  0  0  0  0  0  0  0  0  0  0  0
    0.2480    4.2225    4.4836 N   0  0  0  0  0  0  0  0  0  0  0  0
   -0.2096    5.4501    4.6471 C   0  0  0  0  0  0  0  0  0  0  0  0
   -0.9179    5.7759    3.5694 N   0  0  0  0  0  0  0  0  0  0  0  0
    2.7255   -1.9265    0.7916 C   0  0  0  0  0  0  0  0  0  0  0  0
    3.0952   -1.0440    1.6518 O   0  0  0  0  0  0  0  0  0  0  0  0
    2.3213   -3.2787    0.7873 N   0  0  0  0  0  0  0  0  0  0  0  0
    2.3058   -3.7852    2.1726 C   0  0  0  0  0  0  0  0  0  0  0  0
    1.2412   -3.0067    2.9624 C   0  0  0  0  0  0  0  0  0  0  0  0
   -0.1007   -3.3083    2.2110 C   0  0  0  0  0  0  0  0  0  0  0  0
   -0.1997   -3.9972    1.2679 N   0  0  0  0  0  0  0  0  0  0  0  0
   -1.2831   -4.2947    0.5782 C   0  0  0  0  0  0  0  0  0  0  0  0
   -2.4131   -3.7606    0.9814 C   0  0  0  0  0  0  0  0  0  0  0  0
   -1.8202   -2.7555    2.4785 S   0  0  0  0  0  0  0  0  0  0  0  0
   -1.0580   -5.2499   -0.6030 C   0  0  0  0  0  0  0  0  0  0  0  0
   -0.2057   -5.7809   -1.0735 N   0  0  0  0  0  0  0  0  0  0  0  0
   -0.0384   -6.6037   -2.0826 C   0  0  0  0  0  0  0  0  0  0  0  0
   -1.2403   -6.8723   -2.7197 C   0  0  0  0  0  0  0  0  0  0  0  0
   -2.4532   -5.8309   -1.6889 S   0  0  0  0  0  0  0  0  0  0  0  0
    1.2744   -7.1288   -2.4398 C   0  0  0  0  0  0  0  0  0  0  0  0
    1.4136   -7.9638   -3.4022 O   0  0  0  0  0  0  0  0  0  0  0  0
    2.5061   -6.8159   -1.8195 N   0  0  0  0  0  0  0  0  0  0  0  0
    3.8647   -7.1619   -1.9513 C   0  0  0  0  0  0  0  0  0  0  0  0
    4.2585   -8.5692   -1.7746 C   0  0  0  0  0  0  0  0  0  0  0  0
    5.7174   -8.7825   -1.9689 C   0  0  0  0  0  0  0  0  0  0  0  0
    6.8330   -7.9426   -0.9288 S   0  0  0  0  0  3  0  0  0  0  0  0
    6.8066   -6.1899   -0.9697 C   0  0  0  0  0  0  0  0  0  0  0  0
    6.5408   -8.4187    0.7818 C   0  0  0  0  0  0  0  0  0  0  0  0
    5.5183   -1.7819   -0.4757 H   0  0  0  0  0  0  0  0  0  0  0  0
    5.4977   -1.4731   -2.2907 H   0  0  0  0  0  0  0  0  0  0  0  0
    5.6100   -0.1195   -1.1766 H   0  0  0  0  0  0  0  0  0  0  0  0
    3.4540   -0.1781   -2.0596 H   0  0  0  0  0  0  0  0  0  0  0  0
    3.3860   -2.0536   -2.9968 H   0  0  0  0  0  0  0  0  0  0  0  0
    1.8863   -0.4543   -0.3740 H   0  0  0  0  0  0  0  0  0  0  0  0
    4.5571    0.2805    0.5081 H   0  0  0  0  0  0  0  0  0  0  0  0
    3.1947    2.8458    2.7549 H   0  0  0  0  0  0  0  0  0  0  0  0
    5.5403    2.5897    3.1119 H   0  0  0  0  0  0  0  0  0  0  0  0
    4.5710    1.1024    3.4179 H   0  0  0  0  0  0  0  0  0  0  0  0
    5.6247    1.1436    1.9772 H   0  0  0  0  0  0  0  0  0  0  0  0
    4.6979    3.4822    0.1527 H   0  0  0  0  0  0  0  0  0  0  0  0
    6.0536    4.0507    1.6474 H   0  0  0  0  0  0  0  0  0  0  0  0
    2.8250    4.9637    1.9627 H   0  0  0  0  0  0  0  0  0  0  0  0
    3.1807    6.7642    0.3817 H   0  0  0  0  0  0  0  0  0  0  0  0
    4.2280    5.6567   -0.5941 H   0  0  0  0  0  0  0  0  0  0  0  0
    4.6356    6.1032    1.1319 H   0  0  0  0  0  0  0  0  0  0  0  0
    1.7552    3.8617   -0.7235 H   0  0  0  0  0  0  0  0  0  0  0  0
   -0.8106    6.1964    0.0901 H   0  0  0  0  0  0  0  0  0  0  0  0
   -1.4026    5.0492   -2.0280 H   0  0  0  0  0  0  0  0  0  0  0  0
   -1.5994   -0.7686   -0.8162 H   0  0  0  0  0  0  0  0  0  0  0  0
   -2.0031    0.8170   -0.0151 H   0  0  0  0  0  0  0  0  0  0  0  0
   -0.3279    0.3327   -0.2373 H   0  0  0  0  0  0  0  0  0  0  0  0
   -2.7546   -1.2279   -3.0701 H   0  0  0  0  0  0  0  0  0  0  0  0
   -2.1977   -2.1744   -2.6939 H   0  0  0  0  0  0  0  0  0  0  0  0
   -0.9389    3.2110   -6.3240 H   0  0  0  0  0  0  0  0  0  0  0  0
   -3.2700    1.2568   -6.5568 H   0  0  0  0  0  0  0  0  0  0  0  0
   -2.8040    2.4509   -7.7797 H   0  0  0  0  0  0  0  0  0  0  0  0
   -5.6506    3.4222   -5.6036 H   0  0  0  0  0  0  0  0  0  0  0  0
   -5.0714    3.6275   -7.4176 H   0  0  0  0  0  0  0  0  0  0  0  0
   -0.8792    0.2622   -6.4280 H   0  0  0  0  0  0  0  0  0  0  0  0
    0.0833    2.1734   -8.4925 H   0  0  0  0  0  0  0  0  0  0  0  0
   -1.4412    1.3081   -8.8087 H   0  0  0  0  0  0  0  0  0  0  0  0
    0.3372    0.1877   -9.8903 H   0  0  0  0  0  0  0  0  0  0  0  0
   -0.3807   -1.8107   -9.2672 H   0  0  0  0  0  0  0  0  0  0  0  0
    0.2787   -1.6582   -7.7375 H   0  0  0  0  0  0  0  0  0  0  0  0
    2.6029   -1.7639   -6.9684 H   0  0  0  0  0  0  0  0  0  0  0  0
    2.4387   -1.7151   -6.8062 H   0  0  0  0  0  0  0  0  0  0  0  0
   -2.4380    5.5020    1.4941 H   0  0  0  0  0  0  0  0  0  0  0  0
   -3.6711    4.5992    2.4155 H   0  0  0  0  0  0  0  0  0  0  0  0
   -3.5114    2.4831   -0.4702 H   0  0  0  0  0  0  0  0  0  0  0  0
   -5.3695    2.1910   -1.8907 H   0  0  0  0  0  0  0  0  0  0  0  0
   -4.8585    3.9560   -1.7753 H   0  0  0  0  0  0  0  0  0  0  0  0
   -6.5518    3.9173   -0.0089 H   0  0  0  0  0  0  0  0  0  0  0  0
   -4.5340    0.6411    0.4419 H   0  0  0  0  0  0  0  0  0  0  0  0
   -6.4637    0.8918   -0.6054 H   0  0  0  0  0  0  0  0  0  0  0  0
   -6.0219    2.5313    2.3400 H   0  0  0  0  0  0  0  0  0  0  0  0
   -6.1047    0.7842    3.5207 H   0  0  0  0  0  0  0  0  0  0  0  0
   -3.0434    1.7703    2.6917 H   0  0  0  0  0  0  0  0  0  0  0  0
   -2.3146    1.9042    4.1473 H   0  0  0  0  0  0  0  0  0  0  0  0
   -3.4285    4.8521    6.5899 H   0  0  0  0  0  0  0  0  0  0  0  0
   -1.2701    4.5519    7.5890 H   0  0  0  0  0  0  0  0  0  0  0  0
   -2.5348    4.1325    8.7652 H   0  0  0  0  0  0  0  0  0  0  0  0
   -0.7251    2.3506    7.4950 H   0  0  0  0  0  0  0  0  0  0  0  0
   -5.1536    3.3275    6.4744 H   0  0  0  0  0  0  0  0  0  0  0  0
   -4.5833    2.5385    9.0511 H   0  0  0  0  0  0  0  0  0  0  0  0
   -3.3852    1.2725    7.8948 H   0  0  0  0  0  0  0  0  0  0  0  0
   -6.9565   -1.3309    9.2833 H   0  0  0  0  0  0  0  0  0  0  0  0
   -7.2795   -0.9910    7.9316 H   0  0  0  0  0  0  0  0  0  0  0  0
   -2.3456    0.7494    6.0903 H   0  0  0  0  0  0  0  0  0  0  0  0
   -3.5483   -0.7761    5.4164 H   0  0  0  0  0  0  0  0  0  0  0  0
   -0.0654    2.8532    2.7383 H   0  0  0  0  0  0  0  0  0  0  0  0
   -0.0533    6.1108    5.4986 H   0  0  0  0  0  0  0  0  0  0  0  0
   -1.4097    6.6989    3.4027 H   0  0  0  0  0  0  0  0  0  0  0  0
    2.1750   -3.4370   -0.2329 H   0  0  0  0  0  0  0  0  0  0  0  0
    2.1347   -4.8605    2.1619 H   0  0  0  0  0  0  0  0  0  0  0  0
    3.2830   -3.5840    2.6343 H   0  0  0  0  0  0  0  0  0  0  0  0
    1.4046   -1.9522    2.8271 H   0  0  0  0  0  0  0  0  0  0  0  0
    1.1854   -3.3906    3.9769 H   0  0  0  0  0  0  0  0  0  0  0  0
   -3.3897   -3.9341    0.4810 H   0  0  0  0  0  0  0  0  0  0  0  0
   -1.3141   -7.5352   -3.5913 H   0  0  0  0  0  0  0  0  0  0  0  0
    2.2674   -6.1198   -1.0377 H   0  0  0  0  0  0  0  0  0  0  0  0
    4.2289   -6.7496   -2.9188 H   0  0  0  0  0  0  0  0  0  0  0  0
    4.3987   -6.5951   -1.1278 H   0  0  0  0  0  0  0  0  0  0  0  0
    3.6378   -9.2947   -2.3533 H   0  0  0  0  0  0  0  0  0  0  0  0
    4.0505   -8.8868   -0.7018 H   0  0  0  0  0  0  0  0  0  0  0  0
    5.9829   -9.8791   -1.9323 H   0  0  0  0  0  0  0  0  0  0  0  0
    6.0297   -8.5038   -3.0399 H   0  0  0  0  0  0  0  0  0  0  0  0
    7.8573   -5.7664   -0.8457 H   0  0  0  0  0  0  0  0  0  0  0  0
    6.2563   -5.7001   -0.1435 H   0  0  0  0  0  0  0  0  0  0  0  0
    6.4067   -5.7574   -1.9283 H   0  0  0  0  0  0  0  0  0  0  0  0
    7.1985   -9.2671    1.0240 H   0  0  0  0  0  0  0  0  0  0  0  0
    5.4705   -8.5957    0.8932 H   0  0  0  0  0  0  0  0  0  0  0  0
    6.8261   -7.5730    1.4720 H   0  0  0  0  0  0  0  0  0  0  0  0
  1  2  1  0
  2  3  1  0
  2  4  1  0
  4  5  1  0
  5  6  1  0
  6  7  2  0
  6  8  1  0
  8  9  1  0
  8 10  1  0
 10 11  1  0
 10 12  1  0
 12 13  1  0
 12 14  1  0
 14 15  1  0
 15 16  2  0
 15 17  1  0
 17 18  1  0
 18 19  1  0
 19 20  2  0
 19 21  1  0
 21 22  2  0
 22 23  1  0
 22 24  1  0
 24 25  1  0
 24 26  2  0
 26 27  1  0
 27 28  2  0
 27 29  1  0
 29 30  1  0
 30 31  1  0
 31 32  1  0
 31 33  2  0
 29 34  1  0
 34 35  1  0
 35 36  1  0
 36 37  1  0
 36 38  1  0
 38 39  1  0
 38 40  2  0
 17 41  1  0
 41 42  1  0
 42 43  1  0
 43 44  1  0
 44 45  1  0
 45 46  1  0
 46 47  1  0
 45 48  1  0
 48 49  1  0
 48 50  1  0
 50 51  1  0
 50 52  1  0
 52 53  1  0
 53 54  1  0
 54 55  1  0
 55 56  1  0
 56 57  1  0
 57 58  1  0
 56 59  1  0
 59 60  1  0
 59 61  1  0
 61 62  1  0
 62 63  1  0
 63 64  1  0
 63 65  2  0
 61 66  1  0
 66 67  1  0
 41 68  1  0
 68 69  2  0
 69 70  1  0
 70 71  2  0
 71 72  1  0
  4 73  1  0
 73 74  2  0
 73 75  1  0
 75 76  1  0
 76 77  1  0
 77 78  1  0
 78 79  2  0
 79 80  1  0
 80 81  2  0
 81 82  1  0
 80 83  1  0
 83 84  2  0
 84 85  1  0
 85 86  2  0
 86 87  1  0
 85 88  1  0
 88 89  2  0
 88 90  1  0
 90 91  1  0
 91 92  1  0
 92 93  1  0
 93 94  1  0
 94 95  1  0
 94 96  1  0
 28 21  1  0
 52 43  1  0
 66 54  1  0
 72 68  1  0
 82 78  1  0
 87 83  1  0
  1 97  1  0
  1 98  1  0
  1 99  1  0
  2100  1  6
  3101  1  0
  4102  1  6
  5103  1  0
  8104  1  1
  9105  1  0
  9106  1  0
  9107  1  0
 10108  1  6
 11109  1  0
 12110  1  1
 13111  1  0
 13112  1  0
 13113  1  0
 14114  1  0
 17115  1  6
 18116  1  0
 23117  1  0
 23118  1  0
 23119  1  0
 25120  1  0
 25121  1  0
 29122  1  1
 30123  1  0
 30124  1  0
 32125  1  0
 32126  1  0
 34127  1  0
 35128  1  0
 35129  1  0
 36130  1  6
 37131  1  0
 37132  1  0
 39133  1  0
 39134  1  0
 41135  1  1
 43136  1  0
 45137  1  0
 46138  1  0
 46139  1  0
 47140  1  0
 48141  1  0
 49142  1  0
 50143  1  0
 51144  1  0
 52145  1  0
 54146  1  0
 56147  1  0
 57148  1  0
 57149  1  0
 58150  1  0
 59151  1  0
 60152  1  0
 61153  1  0
 64154  1  0
 64155  1  0
 66156  1  0
 67157  1  0
 69158  1  0
 71159  1  0
 72160  1  0
 75161  1  0
 76162  1  0
 76163  1  0
 77164  1  0
 77165  1  0
 81166  1  0
 86167  1  0
 90168  1  0
 91169  1  0
 91170  1  0
 92171  1  0
 92172  1  0
 93173  1  0
 93174  1  0
 95175  1  0
 95176  1  0
 95177  1  0
 96178  1  0
 96179  1  0
 96180  1  0
M  CHG  1  94   1
M  END
$$$$
