
     RDKit          3D

 57 59  0  0  0  0  0  0  0  0999 V2000
   -3.0878   -0.3354   -2.8415 C   0  0  0  0  0  0  0  0  0  0  0  0
   -2.6418    0.3100   -1.5152 C   0  0  2  0  0  0  0  0  0  0  0  0
   -1.9068   -0.7750   -0.8445 N   0  0  0  0  0  0  0  0  0  0  0  0
   -0.4944   -0.7203   -0.7004 C   0  0  0  0  0  0  0  0  0  0  0  0
    0.0805    0.2827   -1.1725 O   0  0  0  0  0  0  0  0  0  0  0  0
    0.2853   -1.7960   -0.0224 C   0  0  1  0  0  0  0  0  0  0  0  0
   -0.0629   -3.0624   -0.8178 C   0  0  0  0  0  0  0  0  0  0  0  0
    0.5875   -4.2214   -0.1409 C   0  0  0  0  0  0  0  0  0  0  0  0
    2.0857   -4.0065   -0.0456 C   0  0  0  0  0  0  0  0  0  0  0  0
    2.4394   -2.6698    0.4790 C   0  0  0  0  0  0  0  0  0  0  0  0
    1.6572   -1.5569    0.1041 N   0  0  0  0  0  0  0  0  0  0  0  0
    2.0741   -0.3170    0.6707 C   0  0  0  0  0  0  0  0  0  0  0  0
    3.3642    0.2155    0.1729 C   0  0  0  0  0  0  0  0  0  0  0  0
    3.6194    1.4564    0.8473 O   0  0  0  0  0  0  0  0  0  0  0  0
    4.7784    2.1528    0.5475 C   0  0  0  0  0  0  0  0  0  0  0  0
    5.7059    1.7106   -0.3722 C   0  0  0  0  0  0  0  0  0  0  0  0
    6.8503    2.4587   -0.6272 C   0  0  0  0  0  0  0  0  0  0  0  0
    7.0513    3.6509    0.0492 C   0  0  0  0  0  0  0  0  0  0  0  0
    6.1337    4.1065    0.9713 C   0  0  0  0  0  0  0  0  0  0  0  0
    5.0089    3.3401    1.2007 C   0  0  0  0  0  0  0  0  0  0  0  0
   -3.8741    0.6767   -0.8140 C   0  0  0  0  0  0  0  0  0  0  0  0
   -3.9451    0.7701    0.5726 C   0  0  0  0  0  0  0  0  0  0  0  0
   -5.1267    1.1251    1.1807 C   0  0  0  0  0  0  0  0  0  0  0  0
   -6.2755    1.4005    0.4602 C   0  0  0  0  0  0  0  0  0  0  0  0
   -7.5113    1.7679    1.1299 C   0  0  0  0  0  0  0  0  0  0  0  0
   -8.5252    2.0311    0.4621 O   0  0  0  0  0  0  0  0  0  0  0  0
   -7.5582    1.8233    2.5035 O   0  0  0  0  0  0  0  0  0  0  0  0
   -6.2091    1.3094   -0.9108 C   0  0  0  0  0  0  0  0  0  0  0  0
   -5.0366    0.9573   -1.5043 C   0  0  0  0  0  0  0  0  0  0  0  0
   -2.2681   -1.0294   -3.1914 H   0  0  0  0  0  0  0  0  0  0  0  0
   -3.3164    0.4157   -3.5994 H   0  0  0  0  0  0  0  0  0  0  0  0
   -3.9281   -1.0055   -2.5687 H   0  0  0  0  0  0  0  0  0  0  0  0
   -1.9743    1.1336   -1.7825 H   0  0  0  0  0  0  0  0  0  0  0  0
   -2.4241   -1.5835   -0.4752 H   0  0  0  0  0  0  0  0  0  0  0  0
   -0.1401   -2.0002    1.0049 H   0  0  0  0  0  0  0  0  0  0  0  0
    0.2616   -2.9709   -1.8669 H   0  0  0  0  0  0  0  0  0  0  0  0
   -1.1596   -3.1942   -0.7805 H   0  0  0  0  0  0  0  0  0  0  0  0
    0.4433   -5.1187   -0.7895 H   0  0  0  0  0  0  0  0  0  0  0  0
    0.1668   -4.3932    0.8671 H   0  0  0  0  0  0  0  0  0  0  0  0
    2.4767   -4.7900    0.6404 H   0  0  0  0  0  0  0  0  0  0  0  0
    2.4950   -4.2329   -1.0499 H   0  0  0  0  0  0  0  0  0  0  0  0
    2.3433   -2.7495    1.6080 H   0  0  0  0  0  0  0  0  0  0  0  0
    3.5366   -2.5216    0.3470 H   0  0  0  0  0  0  0  0  0  0  0  0
    1.3194    0.4734    0.6735 H   0  0  0  0  0  0  0  0  0  0  0  0
    2.2355   -0.5354    1.7792 H   0  0  0  0  0  0  0  0  0  0  0  0
    3.2560    0.4769   -0.8988 H   0  0  0  0  0  0  0  0  0  0  0  0
    4.2474   -0.4131    0.3841 H   0  0  0  0  0  0  0  0  0  0  0  0
    5.5529    0.7724   -0.9088 H   0  0  0  0  0  0  0  0  0  0  0  0
    7.5894    2.1254   -1.3465 H   0  0  0  0  0  0  0  0  0  0  0  0
    7.9301    4.2615   -0.1217 H   0  0  0  0  0  0  0  0  0  0  0  0
    6.3168    5.0368    1.4821 H   0  0  0  0  0  0  0  0  0  0  0  0
    4.3008    3.7267    1.9347 H   0  0  0  0  0  0  0  0  0  0  0  0
   -3.0324    0.5490    1.1083 H   0  0  0  0  0  0  0  0  0  0  0  0
   -5.1788    1.1964    2.2575 H   0  0  0  0  0  0  0  0  0  0  0  0
   -8.4153    1.8746    3.0315 H   0  0  0  0  0  0  0  0  0  0  0  0
   -7.0800    1.5159   -1.5166 H   0  0  0  0  0  0  0  0  0  0  0  0
   -5.0208    0.8950   -2.5984 H   0  0  0  0  0  0  0  0  0  0  0  0
  1  2  1  0
  2  3  1  0
  3  4  1  0
  4  5  2  0
  4  6  1  0
  6  7  1  0
  7  8  1  0
  8  9  1  0
  9 10  1  0
 10 11  1  0
 11 12  1  0
 12 13  1  0
 13 14  1  0
 14 15  1  0
 15 16  2  0
 16 17  1  0
 17 18  2  0
 18 19  1  0
 19 20  2  0
  2 21  1  0
 21 22  2  0
 22 23  1  0
 23 24  2  0
 24 25  1  0
 25 26  2  0
 25 27  1  0
 24 28  1  0
 28 29  2  0
 11  6  1  0
 20 15  1  0
 29 21  1  0
  1 30  1  0
  1 31  1  0
  1 32  1  0
  2 33  1  6
  3 34  1  0
  6 35  1  1
  7 36  1  0
  7 37  1  0
  8 38  1  0
  8 39  1  0
  9 40  1  0
  9 41  1  0
 10 42  1  0
 10 43  1  0
 12 44  1  0
 12 45  1  0
 13 46  1  0
 13 47  1  0
 16 48  1  0
 17 49  1  0
 18 50  1  0
 19 51  1  0
 20 52  1  0
 22 53  1  0
 23 54  1  0
 27 55  1  0
 28 56  1  0
 29 57  1  0
M  END
$$$$
