
     RDKit          3D

 56 60  0  0  0  0  0  0  0  0999 V2000
    3.1257    1.1261   -0.4023 C   0  0  1  0  0  0  0  0  0  0  0  0
    3.8211    0.1687   -1.3406 C   0  0  0  0  0  0  0  0  0  0  0  0
    3.9028   -1.1029   -0.5562 C   0  0  0  0  0  0  0  0  0  0  0  0
    3.1664   -0.7709    0.7471 C   0  0  2  0  0  0  0  0  0  0  0  0
    1.7045   -1.0646    0.5973 C   0  0  0  0  0  0  0  0  0  0  0  0
    0.9623   -0.1923   -0.3566 C   0  0  2  0  0  0  0  0  0  0  0  0
    1.6691    1.0847   -0.7121 C   0  0  0  0  0  0  0  0  0  0  0  0
   -0.2898    0.0518    0.2301 O   0  0  0  0  0  0  0  0  0  0  0  0
   -1.3579   -0.4862   -0.4625 C   0  0  0  0  0  0  0  0  0  0  0  0
   -2.1421    0.6827   -0.9455 C   0  0  0  0  0  0  0  0  0  0  0  0
   -1.8199    1.0096   -2.2698 C   0  0  0  0  0  0  0  0  0  0  0  0
   -2.4178    2.0601   -2.9333 C   0  0  0  0  0  0  0  0  0  0  0  0
   -3.3623    2.8328   -2.3116 C   0  0  0  0  0  0  0  0  0  0  0  0
   -3.7035    2.5468   -1.0226 C   0  0  0  0  0  0  0  0  0  0  0  0
   -3.1035    1.4959   -0.3631 C   0  0  0  0  0  0  0  0  0  0  0  0
   -3.5252    1.2322    1.0548 C   0  0  0  0  0  0  0  0  0  0  0  0
   -4.3095   -0.0368    1.0138 C   0  0  0  0  0  0  0  0  0  0  0  0
   -3.3976   -1.1914    0.9110 C   0  0  0  0  0  0  0  0  0  0  0  0
   -2.1775   -1.4127    0.3119 C   0  0  0  0  0  0  0  0  0  0  0  0
   -1.5757   -2.6541    0.4092 C   0  0  0  0  0  0  0  0  0  0  0  0
   -2.1429   -3.7181    1.0926 C   0  0  0  0  0  0  0  0  0  0  0  0
   -3.3591   -3.5263    1.6999 C   0  0  0  0  0  0  0  0  0  0  0  0
   -3.9389   -2.2871    1.5911 C   0  0  0  0  0  0  0  0  0  0  0  0
    3.4577    0.6183    0.9049 N   0  0  0  0  0  4  0  0  0  0  0  0
    4.8851    0.7627    1.0986 C   0  0  0  0  0  0  0  0  0  0  0  0
    2.7919    1.2827    1.9777 C   0  0  0  0  0  0  0  0  0  0  0  0
    3.4669    2.1616   -0.5178 H   0  0  0  0  0  0  0  0  0  0  0  0
    3.1989   -0.0088   -2.2599 H   0  0  0  0  0  0  0  0  0  0  0  0
    4.7917    0.5377   -1.7238 H   0  0  0  0  0  0  0  0  0  0  0  0
    4.9460   -1.3329   -0.3020 H   0  0  0  0  0  0  0  0  0  0  0  0
    3.4200   -1.9509   -1.0572 H   0  0  0  0  0  0  0  0  0  0  0  0
    3.5571   -1.4321    1.5206 H   0  0  0  0  0  0  0  0  0  0  0  0
    1.2645   -1.0491    1.6313 H   0  0  0  0  0  0  0  0  0  0  0  0
    1.6495   -2.1557    0.3093 H   0  0  0  0  0  0  0  0  0  0  0  0
    0.7413   -0.7863   -1.2680 H   0  0  0  0  0  0  0  0  0  0  0  0
    1.5747    1.2349   -1.8082 H   0  0  0  0  0  0  0  0  0  0  0  0
    1.1348    1.9776   -0.2732 H   0  0  0  0  0  0  0  0  0  0  0  0
   -0.9982   -1.0258   -1.3783 H   0  0  0  0  0  0  0  0  0  0  0  0
   -1.0772    0.4254   -2.8028 H   0  0  0  0  0  0  0  0  0  0  0  0
   -2.1503    2.2829   -3.9409 H   0  0  0  0  0  0  0  0  0  0  0  0
   -3.8713    3.6666   -2.7626 H   0  0  0  0  0  0  0  0  0  0  0  0
   -4.4349    3.0853   -0.4284 H   0  0  0  0  0  0  0  0  0  0  0  0
   -2.6551    1.1225    1.7292 H   0  0  0  0  0  0  0  0  0  0  0  0
   -4.1766    2.0360    1.4518 H   0  0  0  0  0  0  0  0  0  0  0  0
   -4.9660   -0.1734    1.8942 H   0  0  0  0  0  0  0  0  0  0  0  0
   -5.0140    0.0202    0.1419 H   0  0  0  0  0  0  0  0  0  0  0  0
   -0.6097   -2.8724   -0.0508 H   0  0  0  0  0  0  0  0  0  0  0  0
   -1.6436   -4.6772    1.1487 H   0  0  0  0  0  0  0  0  0  0  0  0
   -3.8369   -4.3181    2.2393 H   0  0  0  0  0  0  0  0  0  0  0  0
   -4.9071   -2.1522    2.0807 H   0  0  0  0  0  0  0  0  0  0  0  0
    5.0660    1.7218    1.6163 H   0  0  0  0  0  0  0  0  0  0  0  0
    5.4791    0.7562    0.1879 H   0  0  0  0  0  0  0  0  0  0  0  0
    5.2843   -0.0708    1.7455 H   0  0  0  0  0  0  0  0  0  0  0  0
    3.4925    1.4086    2.8525 H   0  0  0  0  0  0  0  0  0  0  0  0
    2.4805    2.3240    1.7170 H   0  0  0  0  0  0  0  0  0  0  0  0
    1.9296    0.7326    2.3894 H   0  0  0  0  0  0  0  0  0  0  0  0
  1  2  1  0
  2  3  1  0
  3  4  1  0
  4  5  1  0
  5  6  1  0
  6  7  1  0
  6  8  1  0
  8  9  1  0
  9 10  1  0
 10 11  2  0
 11 12  1  0
 12 13  2  0
 13 14  1  0
 14 15  2  0
 15 16  1  0
 16 17  1  0
 17 18  1  0
 18 19  2  0
 19 20  1  0
 20 21  2  0
 21 22  1  0
 22 23  2  0
  4 24  1  0
 24 25  1  0
 24 26  1  0
  7  1  1  0
 19  9  1  0
 24  1  1  0
 15 10  1  0
 23 18  1  0
  1 27  1  1
  2 28  1  0
  2 29  1  0
  3 30  1  0
  3 31  1  0
  4 32  1  1
  5 33  1  0
  5 34  1  0
  6 35  1  6
  7 36  1  0
  7 37  1  0
  9 38  1  0
 11 39  1  0
 12 40  1  0
 13 41  1  0
 14 42  1  0
 16 43  1  0
 16 44  1  0
 17 45  1  0
 17 46  1  0
 20 47  1  0
 21 48  1  0
 22 49  1  0
 23 50  1  0
 25 51  1  0
 25 52  1  0
 25 53  1  0
 26 54  1  0
 26 55  1  0
 26 56  1  0
M  CHG  1  24   1
M  END
$$$$
