
     RDKit          3D

 50 54  0  0  0  0  0  0  0  0999 V2000
   -5.4731   -1.5047   -1.3313 C   0  0  0  0  0  0  0  0  0  0  0  0
   -4.0662   -1.0436   -1.0152 C   0  0  0  0  0  0  0  0  0  0  0  0
   -3.1569   -1.2181   -2.1811 C   0  0  0  0  0  0  0  0  0  0  0  0
   -4.1436    0.4010   -0.6870 C   0  0  0  0  0  0  0  0  0  0  0  0
   -5.2458    1.2005   -1.2028 N   0  0  0  0  0  0  0  0  0  0  0  0
   -3.2458    0.9010    0.0372 N   0  0  0  0  0  0  0  0  0  0  0  0
   -2.1073    0.3684    0.6500 C   0  0  1  0  0  0  0  0  0  0  0  0
   -0.7947    0.9410    0.2097 C   0  0  0  0  0  0  0  0  0  0  0  0
    0.1578    0.1446   -0.3565 C   0  0  0  0  0  0  0  0  0  0  0  0
    1.3817    0.6555   -0.7708 C   0  0  0  0  0  0  0  0  0  0  0  0
    2.3244   -0.1994   -1.3791 N   0  0  0  0  0  0  0  0  0  0  0  0
    3.6654   -0.4016   -0.9518 C   0  0  0  0  0  0  0  0  0  0  0  0
    4.5183   -1.1187   -1.7540 N   0  0  0  0  0  0  0  0  0  0  0  0
    5.7828   -1.3547   -1.3878 C   0  0  0  0  0  0  0  0  0  0  0  0
    6.3127   -0.9066   -0.2061 C   0  0  0  0  0  0  0  0  0  0  0  0
    5.5010   -0.1789    0.6435 C   0  0  0  0  0  0  0  0  0  0  0  0
    5.9868    0.2846    1.8511 C   0  0  0  0  0  0  0  0  0  0  0  0
    5.1452    0.9950    2.6741 C   0  0  0  0  0  0  0  0  0  0  0  0
    5.6936    1.6234    4.2367 Cl  0  0  0  0  0  0  0  0  0  0  0  0
    3.8564    1.2013    2.2376 C   0  0  0  0  0  0  0  0  0  0  0  0
    3.3936    0.7481    1.0642 N   0  0  0  0  0  0  0  0  0  0  0  0
    4.1904    0.0497    0.2345 C   0  0  0  0  0  0  0  0  0  0  0  0
    1.5942    2.0056   -0.5859 C   0  0  0  0  0  0  0  0  0  0  0  0
    0.6469    2.8378   -0.0147 C   0  0  0  0  0  0  0  0  0  0  0  0
   -0.5395    2.2964    0.3780 C   0  0  0  0  0  0  0  0  0  0  0  0
   -1.5262    3.0540    0.9509 F   0  0  0  0  0  0  0  0  0  0  0  0
   -2.2561   -0.0287    2.0903 C   0  0  0  0  0  0  0  0  0  0  0  0
   -2.1121   -1.0470    1.0260 C   0  0  1  0  0  0  0  0  0  0  0  0
   -3.5305   -1.9239    0.4174 S   0  0  0  0  0  6  0  0  0  0  0  0
   -4.5863   -2.0267    1.4580 O   0  0  0  0  0  0  0  0  0  0  0  0
   -3.1301   -3.3031    0.0149 O   0  0  0  0  0  0  0  0  0  0  0  0
   -5.6225   -2.5738   -1.0984 H   0  0  0  0  0  0  0  0  0  0  0  0
   -5.7733   -1.3111   -2.3662 H   0  0  0  0  0  0  0  0  0  0  0  0
   -6.1537   -0.9195   -0.6543 H   0  0  0  0  0  0  0  0  0  0  0  0
   -2.1064   -1.1963   -1.8933 H   0  0  0  0  0  0  0  0  0  0  0  0
   -3.4427   -0.4693   -2.9492 H   0  0  0  0  0  0  0  0  0  0  0  0
   -3.3467   -2.2292   -2.6430 H   0  0  0  0  0  0  0  0  0  0  0  0
   -6.0537    1.4099   -0.6027 H   0  0  0  0  0  0  0  0  0  0  0  0
   -5.2300    1.5665   -2.1770 H   0  0  0  0  0  0  0  0  0  0  0  0
   -0.0359   -0.9277   -0.4966 H   0  0  0  0  0  0  0  0  0  0  0  0
    1.9738   -0.7285   -2.2307 H   0  0  0  0  0  0  0  0  0  0  0  0
    6.4515   -1.9289   -2.0384 H   0  0  0  0  0  0  0  0  0  0  0  0
    7.3488   -1.1031    0.0879 H   0  0  0  0  0  0  0  0  0  0  0  0
    7.0050    0.1068    2.1687 H   0  0  0  0  0  0  0  0  0  0  0  0
    3.1913    1.7583    2.8798 H   0  0  0  0  0  0  0  0  0  0  0  0
    2.5436    2.4672   -0.9053 H   0  0  0  0  0  0  0  0  0  0  0  0
    0.8394    3.9070    0.1224 H   0  0  0  0  0  0  0  0  0  0  0  0
   -3.2453    0.1506    2.5784 H   0  0  0  0  0  0  0  0  0  0  0  0
   -1.3994    0.1792    2.7672 H   0  0  0  0  0  0  0  0  0  0  0  0
   -1.1811   -1.6104    1.0247 H   0  0  0  0  0  0  0  0  0  0  0  0
  1  2  1  0
  2  3  1  0
  2  4  1  0
  4  5  1  0
  4  6  2  0
  6  7  1  0
  7  8  1  1
  8  9  2  0
  9 10  1  0
 10 11  1  0
 11 12  1  0
 12 13  2  0
 13 14  1  0
 14 15  2  0
 15 16  1  0
 16 17  2  0
 17 18  1  0
 18 19  1  0
 18 20  2  0
 20 21  1  0
 21 22  2  0
 10 23  2  0
 23 24  1  0
 24 25  2  0
 25 26  1  0
  7 27  1  0
 27 28  1  0
 28 29  1  0
 29 30  2  0
 29 31  2  0
 29  2  1  0
 28  7  1  0
 25  8  1  0
 22 12  1  0
 22 16  1  0
  1 32  1  0
  1 33  1  0
  1 34  1  0
  3 35  1  0
  3 36  1  0
  3 37  1  0
  5 38  1  0
  5 39  1  0
  9 40  1  0
 11 41  1  0
 14 42  1  0
 15 43  1  0
 17 44  1  0
 20 45  1  0
 23 46  1  0
 24 47  1  0
 27 48  1  0
 27 49  1  0
 28 50  1  1
M  END
$$$$
