
     RDKit          3D

 12 12  0  0  0  0  0  0  0  0999 V2000
    2.9079   -0.3055   -0.1304 S   0  0  0  0  0  0  0  0  0  0  0  0
    1.1265   -0.2392   -0.1096 C   0  0  0  0  0  0  0  0  0  0  0  0
    0.4786    0.9921   -0.1765 C   0  0  0  0  0  0  0  0  0  0  0  0
   -0.9155    1.0265   -0.1591 C   0  0  0  0  0  0  0  0  0  0  0  0
   -1.6707   -0.1217   -0.0779 C   0  0  0  0  0  0  0  0  0  0  0  0
   -0.9898   -1.3161   -0.0137 C   0  0  0  0  0  0  0  0  0  0  0  0
    0.3553   -1.3648   -0.0295 N   0  0  0  0  0  0  0  0  0  0  0  0
    3.4468   -0.2944    1.1651 H   0  0  0  0  0  0  0  0  0  0  0  0
    1.0157    1.9280   -0.2416 H   0  0  0  0  0  0  0  0  0  0  0  0
   -1.4151    1.9990   -0.2121 H   0  0  0  0  0  0  0  0  0  0  0  0
   -2.7544   -0.0691   -0.0660 H   0  0  0  0  0  0  0  0  0  0  0  0
   -1.5852   -2.2350    0.0512 H   0  0  0  0  0  0  0  0  0  0  0  0
  1  2  1  0
  2  3  2  0
  3  4  1  0
  4  5  2  0
  5  6  1  0
  6  7  2  0
  7  2  1  0
  1  8  1  0
  3  9  1  0
  4 10  1  0
  5 11  1  0
  6 12  1  0
M  END
$$$$
