
     RDKit          3D

 48 50  0  0  0  0  0  0  0  0999 V2000
    4.4597    1.9293    2.5453 C   0  0  0  0  0  0  0  0  0  0  0  0
    4.7203    1.0969    1.3347 C   0  0  0  0  0  0  0  0  0  0  0  0
    3.8096    0.2767    0.8214 N   0  0  0  0  0  0  0  0  0  0  0  0
    4.0321   -0.5176   -0.2773 C   0  0  0  0  0  0  0  0  0  0  0  0
    2.9969   -1.3699   -0.7178 N   0  0  0  0  0  0  0  0  0  0  0  0
    1.6600   -0.9591   -0.9407 C   0  0  0  0  0  0  0  0  0  0  0  0
    0.6496   -1.3806   -0.0416 C   0  0  0  0  0  0  0  0  0  0  0  0
   -0.6536   -1.0368   -0.1777 C   0  0  0  0  0  0  0  0  0  0  0  0
   -1.6451   -1.4573    0.7195 N   0  0  0  0  0  0  0  0  0  0  0  0
   -3.0239   -1.1112    0.7449 C   0  0  2  0  0  0  0  0  0  0  0  0
   -3.8012   -1.2646   -0.5102 C   0  0  0  0  0  0  0  0  0  0  0  0
   -5.2610   -1.3311   -0.1609 C   0  0  0  0  0  0  0  0  0  0  0  0
   -5.7573   -0.4540    0.9000 C   0  0  0  0  0  0  0  0  0  0  0  0
   -4.7884    0.0555    1.9145 C   0  0  0  0  0  0  0  0  0  0  0  0
   -3.3768    0.2008    1.3616 C   0  0  2  0  0  0  0  0  0  0  0  0
   -3.3766    1.3396    0.5293 N   0  0  0  0  0  0  0  0  0  0  0  0
   -0.9938   -0.2589   -1.2246 N   0  0  0  0  0  0  0  0  0  0  0  0
   -0.0834    0.1372   -2.0625 N   0  0  0  0  0  0  0  0  0  0  0  0
    1.2469   -0.1834   -1.9667 C   0  0  0  0  0  0  0  0  0  0  0  0
    2.1403    0.2615   -3.0264 C   0  0  0  0  0  0  0  0  0  0  0  0
    1.6448    1.1918   -4.0029 N   0  0  0  0  0  0  0  0  0  0  0  0
    3.3093   -0.1420   -3.1009 O   0  0  0  0  0  0  0  0  0  0  0  0
    5.2638   -0.4245   -0.8348 C   0  0  0  0  0  0  0  0  0  0  0  0
    6.2644    0.4212   -0.3426 C   0  0  0  0  0  0  0  0  0  0  0  0
    5.9682    1.1853    0.7596 C   0  0  0  0  0  0  0  0  0  0  0  0
    6.9167    2.0112    1.2603 F   0  0  0  0  0  0  0  0  0  0  0  0
    4.4015    2.9998    2.2616 H   0  0  0  0  0  0  0  0  0  0  0  0
    5.3285    1.8660    3.2625 H   0  0  0  0  0  0  0  0  0  0  0  0
    3.5808    1.6378    3.1209 H   0  0  0  0  0  0  0  0  0  0  0  0
    3.2442   -2.3668   -0.8835 H   0  0  0  0  0  0  0  0  0  0  0  0
    1.0222   -2.0118    0.7795 H   0  0  0  0  0  0  0  0  0  0  0  0
   -1.2796   -2.1302    1.4805 H   0  0  0  0  0  0  0  0  0  0  0  0
   -3.5043   -1.8836    1.4585 H   0  0  0  0  0  0  0  0  0  0  0  0
   -3.5738   -2.1389   -1.1284 H   0  0  0  0  0  0  0  0  0  0  0  0
   -3.6736   -0.3424   -1.1362 H   0  0  0  0  0  0  0  0  0  0  0  0
   -5.4978   -2.4183    0.0376 H   0  0  0  0  0  0  0  0  0  0  0  0
   -5.8121   -1.1285   -1.1105 H   0  0  0  0  0  0  0  0  0  0  0  0
   -6.5431   -1.0198    1.4929 H   0  0  0  0  0  0  0  0  0  0  0  0
   -6.3324    0.4349    0.5024 H   0  0  0  0  0  0  0  0  0  0  0  0
   -5.0703    1.0701    2.2721 H   0  0  0  0  0  0  0  0  0  0  0  0
   -4.7249   -0.5967    2.8063 H   0  0  0  0  0  0  0  0  0  0  0  0
   -2.7156    0.4007    2.2426 H   0  0  0  0  0  0  0  0  0  0  0  0
   -4.2777    1.7754    0.3106 H   0  0  0  0  0  0  0  0  0  0  0  0
   -2.5923    1.5643   -0.0571 H   0  0  0  0  0  0  0  0  0  0  0  0
    0.6727    1.0799   -4.3121 H   0  0  0  0  0  0  0  0  0  0  0  0
    2.2662    1.9321   -4.3597 H   0  0  0  0  0  0  0  0  0  0  0  0
    5.5314   -1.0082   -1.7072 H   0  0  0  0  0  0  0  0  0  0  0  0
    7.2286    0.4574   -0.8367 H   0  0  0  0  0  0  0  0  0  0  0  0
  1  2  1  0
  2  3  2  0
  3  4  1  0
  4  5  1  0
  5  6  1  0
  6  7  2  0
  7  8  1  0
  8  9  1  0
  9 10  1  0
 10 11  1  0
 11 12  1  0
 12 13  1  0
 13 14  1  0
 14 15  1  0
 15 16  1  0
  8 17  2  0
 17 18  1  0
 18 19  2  0
 19 20  1  0
 20 21  1  0
 20 22  2  0
  4 23  2  0
 23 24  1  0
 24 25  2  0
 25 26  1  0
 25  2  1  0
 19  6  1  0
 15 10  1  0
  1 27  1  0
  1 28  1  0
  1 29  1  0
  5 30  1  0
  7 31  1  0
  9 32  1  0
 10 33  1  1
 11 34  1  0
 11 35  1  0
 12 36  1  0
 12 37  1  0
 13 38  1  0
 13 39  1  0
 14 40  1  0
 14 41  1  0
 15 42  1  1
 16 43  1  0
 16 44  1  0
 21 45  1  0
 21 46  1  0
 23 47  1  0
 24 48  1  0
M  END
$$$$
