
     RDKit          3D

 39 40  0  0  0  0  0  0  0  0999 V2000
   -7.6993    0.7035   -0.6677 C   0  0  0  0  0  0  0  0  0  0  0  0
   -6.3309    0.1592   -0.3628 C   0  0  0  0  0  0  0  0  0  0  0  0
   -5.8474    0.0442    0.9307 C   0  0  0  0  0  0  0  0  0  0  0  0
   -4.5871   -0.4586    1.1904 C   0  0  0  0  0  0  0  0  0  0  0  0
   -3.7796   -0.8589    0.1592 C   0  0  0  0  0  0  0  0  0  0  0  0
   -4.2536   -0.7485   -1.1451 C   0  0  0  0  0  0  0  0  0  0  0  0
   -5.5262   -0.2417   -1.4213 C   0  0  0  0  0  0  0  0  0  0  0  0
   -2.1662   -1.5157    0.2884 S   0  0  0  0  0  0  0  0  0  0  0  0
   -2.0311   -2.2171    1.6059 O   0  0  0  0  0  0  0  0  0  0  0  0
   -1.8991   -2.5162   -0.7929 O   0  0  0  0  0  0  0  0  0  0  0  0
   -1.0013   -0.2191    0.2326 N   0  0  0  0  0  0  0  0  0  0  0  0
    0.3632   -0.5681    0.3243 C   0  0  0  0  0  0  0  0  0  0  0  0
    0.7624   -1.7430    0.4415 O   0  0  0  0  0  0  0  0  0  0  0  0
    1.2487    0.5498    0.2707 N   0  0  0  0  0  0  0  0  0  0  0  0
    2.6696    0.5837    0.3328 C   0  0  0  0  0  0  0  0  0  0  0  0
    3.5115    0.6933    1.4205 C   0  0  0  0  0  0  0  0  0  0  0  0
    4.8721    0.7031    1.2124 C   0  0  0  0  0  0  0  0  0  0  0  0
    5.4337    0.6076   -0.0435 C   0  0  0  0  0  0  0  0  0  0  0  0
    4.5903    0.4966   -1.1481 C   0  0  0  0  0  0  0  0  0  0  0  0
    3.2053    0.4853   -0.9519 C   0  0  0  0  0  0  0  0  0  0  0  0
    7.1709    0.6258   -0.2424 S   0  0  0  0  0  0  0  0  0  0  0  0
    7.7700   -0.9846   -0.1695 N   0  0  0  0  0  0  0  0  0  0  0  0
    7.7509    1.4200    0.8731 O   0  0  0  0  0  0  0  0  0  0  0  0
    7.5677    1.3050   -1.5220 O   0  0  0  0  0  0  0  0  0  0  0  0
   -8.0685    1.3038    0.1931 H   0  0  0  0  0  0  0  0  0  0  0  0
   -8.4128   -0.0648   -0.9614 H   0  0  0  0  0  0  0  0  0  0  0  0
   -7.5658    1.3660   -1.5715 H   0  0  0  0  0  0  0  0  0  0  0  0
   -6.4695    0.3549    1.7617 H   0  0  0  0  0  0  0  0  0  0  0  0
   -4.1774   -0.5636    2.1694 H   0  0  0  0  0  0  0  0  0  0  0  0
   -3.6812   -1.0411   -2.0117 H   0  0  0  0  0  0  0  0  0  0  0  0
   -5.8922   -0.1579   -2.4480 H   0  0  0  0  0  0  0  0  0  0  0  0
   -1.3527    0.7788    0.1325 H   0  0  0  0  0  0  0  0  0  0  0  0
    0.9378    1.5471    0.1726 H   0  0  0  0  0  0  0  0  0  0  0  0
    2.9776    0.7608    2.3418 H   0  0  0  0  0  0  0  0  0  0  0  0
    5.4778    0.7918    2.1124 H   0  0  0  0  0  0  0  0  0  0  0  0
    5.0763    0.4254   -2.1009 H   0  0  0  0  0  0  0  0  0  0  0  0
    2.6683    0.3949   -1.8878 H   0  0  0  0  0  0  0  0  0  0  0  0
    8.7221   -1.0176   -0.6348 H   0  0  0  0  0  0  0  0  0  0  0  0
    7.9660   -1.1842    0.8496 H   0  0  0  0  0  0  0  0  0  0  0  0
  1  2  1  0
  2  3  2  0
  3  4  1  0
  4  5  2  0
  5  6  1  0
  6  7  2  0
  5  8  1  0
  8  9  2  0
  8 10  2  0
  8 11  1  0
 11 12  1  0
 12 13  2  0
 12 14  1  0
 14 15  1  0
 15 16  2  0
 16 17  1  0
 17 18  2  0
 18 19  1  0
 19 20  2  0
 18 21  1  0
 21 22  1  0
 21 23  2  0
 21 24  2  0
  7  2  1  0
 20 15  1  0
  1 25  1  0
  1 26  1  0
  1 27  1  0
  3 28  1  0
  4 29  1  0
  6 30  1  0
  7 31  1  0
 11 32  1  0
 14 33  1  0
 16 34  1  0
 17 35  1  0
 19 36  1  0
 20 37  1  0
 22 38  1  0
 22 39  1  0
M  END
$$$$
