
     RDKit          3D

 55 59  0  0  0  0  0  0  0  0999 V2000
   -5.8846   -3.3032    0.4263 C   0  0  0  0  0  0  0  0  0  0  0  0
   -5.2850   -1.9670    0.1180 C   0  0  0  0  0  0  0  0  0  0  0  0
   -6.0284   -0.8235    0.1702 C   0  0  0  0  0  0  0  0  0  0  0  0
   -5.4970    0.3941   -0.1181 C   0  0  0  0  0  0  0  0  0  0  0  0
   -4.1402    0.4410   -0.4769 C   0  0  0  0  0  0  0  0  0  0  0  0
   -3.5531    1.6896   -0.7973 N   0  0  0  0  0  0  0  0  0  0  0  0
   -2.7215    2.0408   -1.7466 N   0  0  0  0  0  0  0  0  0  0  0  0
   -2.4650    3.3680   -1.6326 C   0  0  0  0  0  0  0  0  0  0  0  0
   -3.1752    3.8425   -0.5620 C   0  0  0  0  0  0  0  0  0  0  0  0
   -3.8365    2.7816   -0.0688 N   0  0  0  0  0  0  0  0  0  0  0  0
   -3.3738   -0.6912   -0.5351 C   0  0  0  0  0  0  0  0  0  0  0  0
   -1.9613   -0.7270   -0.8881 C   0  0  0  0  0  0  0  0  0  0  0  0
   -1.7212   -1.2424   -2.0371 O   0  0  0  0  0  0  0  0  0  0  0  0
   -0.9014   -0.2636   -0.0978 N   0  0  0  0  0  0  0  0  0  0  0  0
   -1.1543    0.3295    1.1809 C   0  0  0  0  0  0  0  0  0  0  0  0
   -0.3608    1.6420    1.2016 C   0  0  0  0  0  0  0  0  0  0  0  0
    0.9093    1.5170    0.7076 O   0  0  0  0  0  0  0  0  0  0  0  0
    0.9945    1.0462   -0.5852 C   0  0  0  0  0  0  0  0  0  0  0  0
    0.4636   -0.3916   -0.5498 C   0  0  1  0  0  0  0  0  0  0  0  0
    1.2962   -1.0775    0.5486 C   0  0  0  0  0  0  0  0  0  0  0  0
    2.6842   -1.2433    0.1189 C   0  0  0  0  0  0  0  0  0  0  0  0
    3.0407   -2.4026   -0.5795 C   0  0  0  0  0  0  0  0  0  0  0  0
    4.3279   -2.6384   -1.0194 C   0  0  0  0  0  0  0  0  0  0  0  0
    5.3153   -1.7003   -0.7679 C   0  0  0  0  0  0  0  0  0  0  0  0
    4.9745   -0.5569   -0.0822 C   0  0  0  0  0  0  0  0  0  0  0  0
    5.9546    0.4455    0.1950 N   0  0  0  0  0  0  0  0  0  0  0  0
    5.8048    1.6323    0.7133 N   0  0  0  0  0  0  0  0  0  0  0  0
    6.9566    2.3007    0.8149 C   0  0  0  0  0  0  0  0  0  0  0  0
    7.9149    1.4504    0.3135 C   0  0  0  0  0  0  0  0  0  0  0  0
    7.2638    0.3211   -0.0582 N   0  0  0  0  0  0  0  0  0  0  0  0
    3.6844   -0.3339    0.3522 C   0  0  0  0  0  0  0  0  0  0  0  0
   -3.9529   -1.9197   -0.2332 C   0  0  0  0  0  0  0  0  0  0  0  0
   -3.2004   -3.0575   -0.2877 F   0  0  0  0  0  0  0  0  0  0  0  0
   -6.4990   -3.5961   -0.4786 H   0  0  0  0  0  0  0  0  0  0  0  0
   -5.1041   -4.0618    0.5360 H   0  0  0  0  0  0  0  0  0  0  0  0
   -6.5057   -3.2801    1.3354 H   0  0  0  0  0  0  0  0  0  0  0  0
   -7.0667   -0.9135    0.4555 H   0  0  0  0  0  0  0  0  0  0  0  0
   -6.0244    1.3192   -0.0952 H   0  0  0  0  0  0  0  0  0  0  0  0
   -1.8296    3.9582   -2.2512 H   0  0  0  0  0  0  0  0  0  0  0  0
   -3.2272    4.8441   -0.1592 H   0  0  0  0  0  0  0  0  0  0  0  0
   -0.8483   -0.3222    2.0294 H   0  0  0  0  0  0  0  0  0  0  0  0
   -2.2059    0.5909    1.3750 H   0  0  0  0  0  0  0  0  0  0  0  0
   -0.9668    2.3767    0.6307 H   0  0  0  0  0  0  0  0  0  0  0  0
   -0.2621    1.9748    2.2630 H   0  0  0  0  0  0  0  0  0  0  0  0
    0.4424    1.6599   -1.3258 H   0  0  0  0  0  0  0  0  0  0  0  0
    2.0317    1.0009   -0.9053 H   0  0  0  0  0  0  0  0  0  0  0  0
    0.6075   -0.9154   -1.4842 H   0  0  0  0  0  0  0  0  0  0  0  0
    0.8804   -2.0550    0.8342 H   0  0  0  0  0  0  0  0  0  0  0  0
    1.3021   -0.4511    1.4756 H   0  0  0  0  0  0  0  0  0  0  0  0
    2.3162   -3.1884   -0.8117 H   0  0  0  0  0  0  0  0  0  0  0  0
    4.6371   -3.5161   -1.5578 H   0  0  0  0  0  0  0  0  0  0  0  0
    6.3487   -1.8673   -1.1099 H   0  0  0  0  0  0  0  0  0  0  0  0
    7.1567    3.3058    1.2004 H   0  0  0  0  0  0  0  0  0  0  0  0
    8.9660    1.6278    0.2241 H   0  0  0  0  0  0  0  0  0  0  0  0
    3.4782    0.6062    0.9051 H   0  0  0  0  0  0  0  0  0  0  0  0
  1  2  1  0
  2  3  2  0
  3  4  1  0
  4  5  2  0
  5  6  1  0
  6  7  1  0
  7  8  2  0
  8  9  1  0
  9 10  2  0
  5 11  1  0
 11 12  1  0
 12 13  2  0
 12 14  1  0
 14 15  1  0
 15 16  1  0
 16 17  1  0
 17 18  1  0
 18 19  1  0
 19 20  1  0
 20 21  1  0
 21 22  2  0
 22 23  1  0
 23 24  2  0
 24 25  1  0
 25 26  1  0
 26 27  1  0
 27 28  2  0
 28 29  1  0
 29 30  2  0
 25 31  2  0
 11 32  2  0
 32 33  1  0
 32  2  1  0
 10  6  1  0
 19 14  1  0
 31 21  1  0
 30 26  1  0
  1 34  1  0
  1 35  1  0
  1 36  1  0
  3 37  1  0
  4 38  1  0
  8 39  1  0
  9 40  1  0
 15 41  1  0
 15 42  1  0
 16 43  1  0
 16 44  1  0
 18 45  1  0
 18 46  1  0
 19 47  1  6
 20 48  1  0
 20 49  1  0
 22 50  1  0
 23 51  1  0
 24 52  1  0
 28 53  1  0
 29 54  1  0
 31 55  1  0
M  END
$$$$
