
     RDKit          3D

 48 51  0  0  0  0  0  0  0  0999 V2000
   -4.1253    1.6565   -1.9623 C   0  0  0  0  0  0  0  0  0  0  0  0
   -3.8211    0.9781   -0.9993 C   0  0  0  0  0  0  0  0  0  0  0  0
   -3.4467    0.1771    0.1445 C   0  0  2  0  0  0  0  0  0  0  0  0
   -4.3436   -0.8929    0.3234 O   0  0  0  0  0  0  0  0  0  0  0  0
   -3.4039    0.9792    1.4309 C   0  0  0  0  0  0  0  0  0  0  0  0
   -1.9449    1.0947    1.8280 C   0  0  0  0  0  0  0  0  0  0  0  0
   -1.2274    0.7365    0.5912 C   0  0  1  0  0  0  0  0  0  0  0  0
    0.1504    0.1607    0.7802 C   0  0  2  0  0  0  0  0  0  0  0  0
    1.0500    0.9970    1.6201 C   0  0  0  0  0  0  0  0  0  0  0  0
    2.2658    1.5279    0.9400 C   0  0  0  0  0  0  0  0  0  0  0  0
    2.9222    0.5420    0.0516 C   0  0  0  0  0  0  0  0  0  0  0  0
    4.1948    0.6813   -0.2278 C   0  0  0  0  0  0  0  0  0  0  0  0
    4.8537   -0.2791   -1.0993 C   0  0  0  0  0  0  0  0  0  0  0  0
    6.0292   -0.0853   -1.4996 O   0  0  0  0  0  0  0  0  0  0  0  0
    4.0967   -1.4918   -1.4998 C   0  0  0  0  0  0  0  0  0  0  0  0
    2.6658   -1.0378   -1.7966 C   0  0  0  0  0  0  0  0  0  0  0  0
    2.0908   -0.5670   -0.4839 C   0  0  2  0  0  0  0  0  0  0  0  0
    0.7006   -0.0327   -0.6192 C   0  0  1  0  0  0  0  0  0  0  0  0
   -0.1605   -0.9275   -1.4410 C   0  0  0  0  0  0  0  0  0  0  0  0
   -1.6130   -0.5779   -1.4092 C   0  0  0  0  0  0  0  0  0  0  0  0
   -2.0778   -0.3902   -0.0082 C   0  0  2  0  0  0  0  0  0  0  0  0
   -1.9840   -1.6420    0.8254 C   0  0  0  0  0  0  0  0  0  0  0  0
   -4.4055    2.2376   -2.8051 H   0  0  0  0  0  0  0  0  0  0  0  0
   -4.6099   -1.2764   -0.5504 H   0  0  0  0  0  0  0  0  0  0  0  0
   -3.8760    1.9771    1.3082 H   0  0  0  0  0  0  0  0  0  0  0  0
   -3.9265    0.4283    2.2409 H   0  0  0  0  0  0  0  0  0  0  0  0
   -1.7461    2.1740    2.0548 H   0  0  0  0  0  0  0  0  0  0  0  0
   -1.6899    0.4796    2.6979 H   0  0  0  0  0  0  0  0  0  0  0  0
   -1.1868    1.5310   -0.1477 H   0  0  0  0  0  0  0  0  0  0  0  0
    0.1162   -0.8642    1.2291 H   0  0  0  0  0  0  0  0  0  0  0  0
    0.5013    1.8895    2.0395 H   0  0  0  0  0  0  0  0  0  0  0  0
    1.4060    0.4381    2.5339 H   0  0  0  0  0  0  0  0  0  0  0  0
    1.9805    2.4561    0.4001 H   0  0  0  0  0  0  0  0  0  0  0  0
    3.0247    1.7818    1.7317 H   0  0  0  0  0  0  0  0  0  0  0  0
    4.7977    1.4918    0.1639 H   0  0  0  0  0  0  0  0  0  0  0  0
    4.1228   -2.1892   -0.6383 H   0  0  0  0  0  0  0  0  0  0  0  0
    4.5754   -1.9281   -2.3935 H   0  0  0  0  0  0  0  0  0  0  0  0
    2.1048   -1.8916   -2.1859 H   0  0  0  0  0  0  0  0  0  0  0  0
    2.7358   -0.1804   -2.4697 H   0  0  0  0  0  0  0  0  0  0  0  0
    2.1341   -1.3924    0.2708 H   0  0  0  0  0  0  0  0  0  0  0  0
    0.7608    0.9890   -1.0966 H   0  0  0  0  0  0  0  0  0  0  0  0
    0.1751   -0.8110   -2.5134 H   0  0  0  0  0  0  0  0  0  0  0  0
    0.0336   -1.9912   -1.1819 H   0  0  0  0  0  0  0  0  0  0  0  0
   -1.7520    0.3791   -1.9496 H   0  0  0  0  0  0  0  0  0  0  0  0
   -2.1637   -1.4146   -1.9130 H   0  0  0  0  0  0  0  0  0  0  0  0
   -1.2298   -2.3224    0.3843 H   0  0  0  0  0  0  0  0  0  0  0  0
   -1.7925   -1.4208    1.8931 H   0  0  0  0  0  0  0  0  0  0  0  0
   -2.9623   -2.1775    0.7941 H   0  0  0  0  0  0  0  0  0  0  0  0
  1  2  3  0
  3  2  1  6
  3  4  1  0
  3  5  1  0
  5  6  1  0
  6  7  1  0
  7  8  1  0
  8  9  1  0
  9 10  1  0
 10 11  1  0
 11 12  2  0
 12 13  1  0
 13 14  2  0
 13 15  1  0
 15 16  1  0
 16 17  1  0
 17 18  1  0
 18 19  1  0
 19 20  1  0
 20 21  1  0
 21 22  1  1
 21  3  1  0
 21  7  1  0
 18  8  1  0
 17 11  1  0
  1 23  1  0
  4 24  1  0
  5 25  1  0
  5 26  1  0
  6 27  1  0
  6 28  1  0
  7 29  1  6
  8 30  1  1
  9 31  1  0
  9 32  1  0
 10 33  1  0
 10 34  1  0
 12 35  1  0
 15 36  1  0
 15 37  1  0
 16 38  1  0
 16 39  1  0
 17 40  1  1
 18 41  1  6
 19 42  1  0
 19 43  1  0
 20 44  1  0
 20 45  1  0
 22 46  1  0
 22 47  1  0
 22 48  1  0
M  END
$$$$
