
     RDKit          3D

 68 71  0  0  0  0  0  0  0  0999 V2000
  -10.4612   -1.9498    1.4040 C   0  0  0  0  0  0  0  0  0  0  0  0
   -9.9621   -1.8854    0.0836 O   0  0  0  0  0  0  0  0  0  0  0  0
   -8.7035   -1.3219   -0.1052 C   0  0  0  0  0  0  0  0  0  0  0  0
   -8.1753   -1.2394   -1.3893 C   0  0  0  0  0  0  0  0  0  0  0  0
   -6.9334   -0.6875   -1.6075 C   0  0  0  0  0  0  0  0  0  0  0  0
   -6.2138   -0.2151   -0.5384 C   0  0  0  0  0  0  0  0  0  0  0  0
   -4.8893    0.3733   -0.7635 C   0  0  2  0  0  0  0  0  0  0  0  0
   -4.8126    0.9421   -2.0517 O   0  0  0  0  0  0  0  0  0  0  0  0
   -3.8741   -0.7659   -0.6545 C   0  0  0  0  0  0  0  0  0  0  0  0
   -2.7432   -0.2782    0.1988 C   0  0  0  0  0  0  0  0  0  0  0  0
   -2.1833    1.0099   -0.3536 C   0  0  2  0  0  0  0  0  0  0  0  0
   -0.9703    1.3178    0.3816 N   0  0  0  0  0  0  0  0  0  0  0  0
   -0.3399    2.5395   -0.0638 C   0  0  0  0  0  0  0  0  0  0  0  0
    1.0374    2.4003    0.5996 C   0  0  0  0  0  0  0  0  0  0  0  0
    1.3729    0.9737    0.2588 C   0  0  1  0  0  0  0  0  0  0  0  0
    2.1014    0.3064    1.3068 N   0  0  0  0  0  0  0  0  0  0  0  0
    3.3622   -0.2665    1.0042 C   0  0  0  0  0  0  0  0  0  0  0  0
    3.7802   -0.1597   -0.1748 O   0  0  0  0  0  0  0  0  0  0  0  0
    4.1919   -0.9720    1.9983 C   0  0  0  0  0  0  0  0  0  0  0  0
    5.4054   -1.4211    1.3752 N   0  0  0  0  0  0  0  0  0  0  0  0
    6.2982   -0.4937    0.8140 C   0  0  0  0  0  0  0  0  0  0  0  0
    5.9790    0.7326    0.8914 O   0  0  0  0  0  0  0  0  0  0  0  0
    7.5605   -0.8570    0.1530 C   0  0  0  0  0  0  0  0  0  0  0  0
    7.9498   -2.1656    0.0408 C   0  0  0  0  0  0  0  0  0  0  0  0
    9.1541   -2.4452   -0.5949 C   0  0  0  0  0  0  0  0  0  0  0  0
    9.9724   -1.4659   -1.1165 C   0  0  0  0  0  0  0  0  0  0  0  0
    9.5460   -0.1626   -0.9837 C   0  0  0  0  0  0  0  0  0  0  0  0
   10.3464    0.9916   -1.5088 C   0  0  0  0  0  0  0  0  0  0  0  0
    9.4516    1.8556   -2.1057 F   0  0  0  0  0  0  0  0  0  0  0  0
   10.8465    1.6413   -0.3893 F   0  0  0  0  0  0  0  0  0  0  0  0
   11.3412    0.5741   -2.3547 F   0  0  0  0  0  0  0  0  0  0  0  0
    8.3550    0.1279   -0.3560 C   0  0  0  0  0  0  0  0  0  0  0  0
    0.0147    0.3087    0.1414 C   0  0  0  0  0  0  0  0  0  0  0  0
   -3.2309    2.0852   -0.1641 C   0  0  0  0  0  0  0  0  0  0  0  0
   -4.5798    1.4829    0.1987 C   0  0  0  0  0  0  0  0  0  0  0  0
   -6.7457   -0.3031    0.7170 C   0  0  0  0  0  0  0  0  0  0  0  0
   -7.9695   -0.8496    0.9107 N   0  0  0  0  0  0  0  0  0  0  0  0
  -11.3162   -2.6243    1.5225 H   0  0  0  0  0  0  0  0  0  0  0  0
   -9.5940   -2.2479    2.0557 H   0  0  0  0  0  0  0  0  0  0  0  0
  -10.7255   -0.9165    1.7348 H   0  0  0  0  0  0  0  0  0  0  0  0
   -8.7814   -1.6255   -2.1974 H   0  0  0  0  0  0  0  0  0  0  0  0
   -6.5398   -0.6343   -2.6300 H   0  0  0  0  0  0  0  0  0  0  0  0
   -5.4577    1.7019   -2.0496 H   0  0  0  0  0  0  0  0  0  0  0  0
   -4.3190   -1.6458   -0.1450 H   0  0  0  0  0  0  0  0  0  0  0  0
   -3.4735   -1.0246   -1.6551 H   0  0  0  0  0  0  0  0  0  0  0  0
   -1.9850   -1.0871    0.2300 H   0  0  0  0  0  0  0  0  0  0  0  0
   -3.0739   -0.1005    1.2499 H   0  0  0  0  0  0  0  0  0  0  0  0
   -1.9672    0.8759   -1.4348 H   0  0  0  0  0  0  0  0  0  0  0  0
   -0.1758    2.4697   -1.1391 H   0  0  0  0  0  0  0  0  0  0  0  0
   -0.8561    3.4436    0.2723 H   0  0  0  0  0  0  0  0  0  0  0  0
    0.8678    2.5542    1.6842 H   0  0  0  0  0  0  0  0  0  0  0  0
    1.7526    3.1353    0.2179 H   0  0  0  0  0  0  0  0  0  0  0  0
    1.9280    0.9492   -0.6972 H   0  0  0  0  0  0  0  0  0  0  0  0
    1.7119    0.2459    2.2640 H   0  0  0  0  0  0  0  0  0  0  0  0
    4.4165   -0.3294    2.8848 H   0  0  0  0  0  0  0  0  0  0  0  0
    3.5750   -1.8576    2.3338 H   0  0  0  0  0  0  0  0  0  0  0  0
    5.6213   -2.4317    1.3403 H   0  0  0  0  0  0  0  0  0  0  0  0
    7.3344   -2.9763    0.4389 H   0  0  0  0  0  0  0  0  0  0  0  0
    9.4607   -3.4936   -0.6819 H   0  0  0  0  0  0  0  0  0  0  0  0
   10.9082   -1.6591   -1.6125 H   0  0  0  0  0  0  0  0  0  0  0  0
    8.0134    1.1655   -0.2490 H   0  0  0  0  0  0  0  0  0  0  0  0
   -0.0418   -0.1263   -0.8808 H   0  0  0  0  0  0  0  0  0  0  0  0
   -0.1231   -0.4773    0.9263 H   0  0  0  0  0  0  0  0  0  0  0  0
   -3.3104    2.7451   -1.0573 H   0  0  0  0  0  0  0  0  0  0  0  0
   -2.9142    2.6824    0.7261 H   0  0  0  0  0  0  0  0  0  0  0  0
   -4.6249    1.2152    1.2547 H   0  0  0  0  0  0  0  0  0  0  0  0
   -5.3429    2.2727    0.0324 H   0  0  0  0  0  0  0  0  0  0  0  0
   -6.2463    0.0436    1.6109 H   0  0  0  0  0  0  0  0  0  0  0  0
  1  2  1  0
  2  3  1  0
  3  4  2  0
  4  5  1  0
  5  6  2  0
  6  7  1  0
  7  8  1  6
  7  9  1  0
  9 10  1  0
 10 11  1  0
 11 12  1  0
 12 13  1  0
 13 14  1  0
 14 15  1  0
 15 16  1  0
 16 17  1  0
 17 18  2  0
 17 19  1  0
 19 20  1  0
 20 21  1  0
 21 22  2  0
 21 23  1  0
 23 24  2  0
 24 25  1  0
 25 26  2  0
 26 27  1  0
 27 28  1  0
 28 29  1  0
 28 30  1  0
 28 31  1  0
 27 32  2  0
 15 33  1  0
 11 34  1  0
 34 35  1  0
  6 36  1  0
 36 37  2  0
 37  3  1  0
 35  7  1  0
 33 12  1  0
 32 23  1  0
  1 38  1  0
  1 39  1  0
  1 40  1  0
  4 41  1  0
  5 42  1  0
  8 43  1  0
  9 44  1  0
  9 45  1  0
 10 46  1  0
 10 47  1  0
 11 48  1  6
 13 49  1  0
 13 50  1  0
 14 51  1  0
 14 52  1  0
 15 53  1  6
 16 54  1  0
 19 55  1  0
 19 56  1  0
 20 57  1  0
 24 58  1  0
 25 59  1  0
 26 60  1  0
 32 61  1  0
 33 62  1  0
 33 63  1  0
 34 64  1  0
 34 65  1  0
 35 66  1  0
 35 67  1  0
 36 68  1  0
M  END
$$$$
