
     RDKit          3D

 25 27  0  0  0  0  0  0  0  0999 V2000
    5.4097   -0.5573    0.1553 N   0  0  0  0  0  0  0  0  0  0  0  0
    5.1048    0.7293    0.4972 C   0  0  0  0  0  0  0  0  0  0  0  0
    3.7185    0.9318    0.4741 C   0  0  0  0  0  0  0  0  0  0  0  0
    3.2373   -0.3044    0.1011 C   0  0  0  0  0  0  0  0  0  0  0  0
    4.2460   -1.1704   -0.0829 N   0  0  0  0  0  0  0  0  0  0  0  0
    1.8160   -0.6307   -0.0717 C   0  0  0  0  0  0  0  0  0  0  0  0
    1.0639   -1.6765   -0.4070 C   0  0  0  0  0  0  0  0  0  0  0  0
   -0.2259   -1.4655   -0.4222 N   0  0  0  0  0  0  0  0  0  0  0  0
   -0.8299   -0.5399   -0.1984 C   0  0  0  0  0  0  0  0  0  0  0  0
    0.5661    0.6285    0.2081 S   0  0  0  0  0  0  0  0  0  0  0  0
   -2.2587   -0.1338   -0.1672 C   0  0  0  0  0  0  0  0  0  0  0  0
   -3.2522   -1.0282   -0.4740 C   0  0  0  0  0  0  0  0  0  0  0  0
   -4.5473   -0.5577   -0.4171 C   0  0  0  0  0  0  0  0  0  0  0  0
   -4.8245    0.7426   -0.0700 C   0  0  0  0  0  0  0  0  0  0  0  0
   -3.8357    1.6477    0.2395 C   0  0  0  0  0  0  0  0  0  0  0  0
   -2.5397    1.1768    0.1826 C   0  0  0  0  0  0  0  0  0  0  0  0
    6.4076   -0.8823    0.1218 H   0  0  0  0  0  0  0  0  0  0  0  0
    5.8026    1.5350    0.7623 H   0  0  0  0  0  0  0  0  0  0  0  0
    3.2051    1.8556    0.7026 H   0  0  0  0  0  0  0  0  0  0  0  0
    1.5773   -2.6182   -0.6405 H   0  0  0  0  0  0  0  0  0  0  0  0
   -2.9011   -2.0164   -0.7297 H   0  0  0  0  0  0  0  0  0  0  0  0
   -5.3071   -1.3049   -0.6694 H   0  0  0  0  0  0  0  0  0  0  0  0
   -5.8512    1.0739   -0.0366 H   0  0  0  0  0  0  0  0  0  0  0  0
   -4.0307    2.6729    0.5145 H   0  0  0  0  0  0  0  0  0  0  0  0
   -1.7512    1.8921    0.4276 H   0  0  0  0  0  0  0  0  0  0  0  0
  1  2  1  0
  2  3  2  0
  3  4  1  0
  4  5  2  0
  4  6  1  0
  6  7  2  0
  7  8  1  0
  8  9  2  0
  9 10  1  0
  9 11  1  0
 11 12  2  0
 12 13  1  0
 13 14  2  0
 14 15  1  0
 15 16  2  0
  5  1  1  0
 10  6  1  0
 16 11  1  0
  1 17  1  0
  2 18  1  0
  3 19  1  0
  7 20  1  0
 12 21  1  0
 13 22  1  0
 14 23  1  0
 15 24  1  0
 16 25  1  0
M  END
$$$$
