
     RDKit          3D

 31 34  0  0  0  0  0  0  0  0999 V2000
   -4.6925   -1.5262   -0.1454 C   0  0  0  0  0  0  0  0  0  0  0  0
   -4.2874   -0.1922    0.0680 O   0  0  0  0  0  0  0  0  0  0  0  0
   -2.9351    0.0920    0.0596 C   0  0  0  0  0  0  0  0  0  0  0  0
   -1.9548   -0.8624   -0.1472 C   0  0  0  0  0  0  0  0  0  0  0  0
   -0.6110   -0.5514   -0.1506 C   0  0  0  0  0  0  0  0  0  0  0  0
   -0.2023    0.7480    0.0568 C   0  0  0  0  0  0  0  0  0  0  0  0
    1.1440    1.0997    0.0603 C   0  0  0  0  0  0  0  0  0  0  0  0
    1.5103    2.3747    0.2653 N   0  0  0  0  0  0  0  0  0  0  0  0
    0.6066    3.3694    0.4758 C   0  0  0  0  0  0  0  0  0  0  0  0
   -0.7160    3.0132    0.4704 C   0  0  0  0  0  0  0  0  0  0  0  0
   -1.1541    1.7300    0.2671 C   0  0  0  0  0  0  0  0  0  0  0  0
   -2.4908    1.3963    0.2663 C   0  0  0  0  0  0  0  0  0  0  0  0
    2.2003    0.1222   -0.1537 C   0  0  0  0  0  0  0  0  0  0  0  0
    3.5397    0.5056   -0.1444 C   0  0  0  0  0  0  0  0  0  0  0  0
    4.5074   -0.4550   -0.3517 C   0  0  0  0  0  0  0  0  0  0  0  0
    4.1264   -1.7622   -0.5616 C   0  0  0  0  0  0  0  0  0  0  0  0
    2.8096   -2.1593   -0.5742 C   0  0  0  0  0  0  0  0  0  0  0  0
    1.8509   -1.1902   -0.3658 C   0  0  0  0  0  0  0  0  0  0  0  0
    0.4313   -1.5495   -0.3675 C   0  0  0  0  0  0  0  0  0  0  0  0
    0.0792   -2.7428   -0.5589 O   0  0  0  0  0  0  0  0  0  0  0  0
   -4.0893   -2.2205    0.5038 H   0  0  0  0  0  0  0  0  0  0  0  0
   -5.7686   -1.6219    0.1817 H   0  0  0  0  0  0  0  0  0  0  0  0
   -4.5883   -1.7987   -1.2032 H   0  0  0  0  0  0  0  0  0  0  0  0
   -2.2447   -1.8896   -0.3125 H   0  0  0  0  0  0  0  0  0  0  0  0
    0.9276    4.3891    0.6385 H   0  0  0  0  0  0  0  0  0  0  0  0
   -1.4715    3.7785    0.6350 H   0  0  0  0  0  0  0  0  0  0  0  0
   -3.2174    2.1914    0.4348 H   0  0  0  0  0  0  0  0  0  0  0  0
    3.7688    1.5514    0.0268 H   0  0  0  0  0  0  0  0  0  0  0  0
    5.5709   -0.1708   -0.3478 H   0  0  0  0  0  0  0  0  0  0  0  0
    4.8833   -2.5089   -0.7229 H   0  0  0  0  0  0  0  0  0  0  0  0
    2.4674   -3.1599   -0.7327 H   0  0  0  0  0  0  0  0  0  0  0  0
  1  2  1  0
  2  3  1  0
  3  4  2  0
  4  5  1  0
  5  6  2  0
  6  7  1  0
  7  8  2  0
  8  9  1  0
  9 10  2  0
 10 11  1  0
 11 12  2  0
  7 13  1  0
 13 14  2  0
 14 15  1  0
 15 16  2  0
 16 17  1  0
 17 18  2  0
 18 19  1  0
 19 20  2  0
 12  3  1  0
 18 13  1  0
 19  5  1  0
 11  6  1  0
  1 21  1  0
  1 22  1  0
  1 23  1  0
  4 24  1  0
  9 25  1  0
 10 26  1  0
 12 27  1  0
 14 28  1  0
 15 29  1  0
 16 30  1  0
 17 31  1  0
M  END
$$$$
