
     RDKit          3D

 54 56  0  0  0  0  0  0  0  0999 V2000
    6.9005    2.8927    1.3407 C   0  0  0  0  0  0  0  0  0  0  0  0
    6.6446    1.5342    1.1222 O   0  0  0  0  0  0  0  0  0  0  0  0
    5.4300    1.0756    0.5882 C   0  0  0  0  0  0  0  0  0  0  0  0
    4.4251    1.9579    0.2524 C   0  0  0  0  0  0  0  0  0  0  0  0
    3.2478    1.4757   -0.2684 C   0  0  0  0  0  0  0  0  0  0  0  0
    3.0117    0.1255   -0.4781 C   0  0  0  0  0  0  0  0  0  0  0  0
    1.7715   -0.4237   -1.0285 C   0  0  0  0  0  0  0  0  0  0  0  0
    0.7508   -0.7580    0.0386 C   0  0  0  0  0  0  0  0  0  0  0  0
   -0.4649   -1.2869   -0.5133 N   0  0  0  0  0  0  0  0  0  0  0  0
   -0.6210   -2.7135   -0.7363 C   0  0  0  0  0  0  0  0  0  0  0  0
    0.2623   -3.6037   -0.6336 O   0  0  0  0  0  0  0  0  0  0  0  0
   -1.9782   -2.9869   -1.1066 N   0  0  0  0  0  0  0  0  0  0  0  0
   -2.5059   -4.0991   -1.7692 N   0  0  0  0  0  0  0  0  0  0  0  0
   -2.9842   -5.3326   -0.6613 S   0  0  0  0  0  6  0  0  0  0  0  0
   -4.2449   -4.6726    0.3770 C   0  0  0  0  0  0  0  0  0  0  0  0
   -1.7729   -5.7746    0.1011 O   0  0  0  0  0  0  0  0  0  0  0  0
   -3.4663   -6.5054   -1.4673 O   0  0  0  0  0  0  0  0  0  0  0  0
   -2.7174   -1.8106   -0.6249 C   0  0  0  0  0  0  0  0  0  0  0  0
   -1.7067   -0.7251   -0.9401 C   0  0  1  0  0  0  0  0  0  0  0  0
   -2.0831    0.5722   -0.3857 C   0  0  0  0  0  0  0  0  0  0  0  0
   -3.3078    0.7027    0.2758 C   0  0  0  0  0  0  0  0  0  0  0  0
   -3.6718    1.9213    0.7782 C   0  0  0  0  0  0  0  0  0  0  0  0
   -2.8453    3.0185    0.6388 C   0  0  0  0  0  0  0  0  0  0  0  0
   -3.2711    4.2158    1.1675 O   0  0  0  0  0  0  0  0  0  0  0  0
   -2.5345    5.4162    1.1010 C   0  0  0  0  0  0  0  0  0  0  0  0
   -1.6439    2.8882   -0.0112 C   0  0  0  0  0  0  0  0  0  0  0  0
   -1.2436    1.6504   -0.5374 C   0  0  0  0  0  0  0  0  0  0  0  0
    4.0350   -0.7309   -0.1326 C   0  0  0  0  0  0  0  0  0  0  0  0
    5.2351   -0.2631    0.3963 C   0  0  0  0  0  0  0  0  0  0  0  0
    7.2261    3.4429    0.4435 H   0  0  0  0  0  0  0  0  0  0  0  0
    7.7282    2.9908    2.0936 H   0  0  0  0  0  0  0  0  0  0  0  0
    6.0172    3.3665    1.8294 H   0  0  0  0  0  0  0  0  0  0  0  0
    4.5928    3.0228    0.4102 H   0  0  0  0  0  0  0  0  0  0  0  0
    2.4696    2.1750   -0.5271 H   0  0  0  0  0  0  0  0  0  0  0  0
    2.0252   -1.4261   -1.4959 H   0  0  0  0  0  0  0  0  0  0  0  0
    1.3921    0.1785   -1.8530 H   0  0  0  0  0  0  0  0  0  0  0  0
    1.1544   -1.5145    0.7535 H   0  0  0  0  0  0  0  0  0  0  0  0
    0.5174    0.1660    0.5931 H   0  0  0  0  0  0  0  0  0  0  0  0
   -3.2457   -3.8419   -2.4384 H   0  0  0  0  0  0  0  0  0  0  0  0
   -4.8771   -5.5214    0.7363 H   0  0  0  0  0  0  0  0  0  0  0  0
   -3.7306   -4.1788    1.2487 H   0  0  0  0  0  0  0  0  0  0  0  0
   -4.8522   -3.8909   -0.0990 H   0  0  0  0  0  0  0  0  0  0  0  0
   -2.8932   -1.9504    0.4446 H   0  0  0  0  0  0  0  0  0  0  0  0
   -3.6387   -1.6473   -1.2161 H   0  0  0  0  0  0  0  0  0  0  0  0
   -1.6742   -0.6974   -2.0695 H   0  0  0  0  0  0  0  0  0  0  0  0
   -3.9084   -0.1885    0.3524 H   0  0  0  0  0  0  0  0  0  0  0  0
   -4.6329    2.0120    1.2943 H   0  0  0  0  0  0  0  0  0  0  0  0
   -2.8900    6.1190    1.8983 H   0  0  0  0  0  0  0  0  0  0  0  0
   -1.4855    5.1669    1.3740 H   0  0  0  0  0  0  0  0  0  0  0  0
   -2.6225    5.8362    0.0879 H   0  0  0  0  0  0  0  0  0  0  0  0
   -1.0260    3.7558   -0.1031 H   0  0  0  0  0  0  0  0  0  0  0  0
   -0.2878    1.6173   -1.0510 H   0  0  0  0  0  0  0  0  0  0  0  0
    3.9528   -1.8010   -0.2560 H   0  0  0  0  0  0  0  0  0  0  0  0
    6.0379   -0.9518    0.6659 H   0  0  0  0  0  0  0  0  0  0  0  0
  1  2  1  0
  2  3  1  0
  3  4  2  0
  4  5  1  0
  5  6  2  0
  6  7  1  0
  7  8  1  0
  8  9  1  0
  9 10  1  0
 10 11  2  0
 10 12  1  0
 12 13  1  0
 13 14  1  0
 14 15  1  0
 14 16  2  0
 14 17  2  0
 12 18  1  0
 18 19  1  0
 19 20  1  0
 20 21  2  0
 21 22  1  0
 22 23  2  0
 23 24  1  0
 24 25  1  0
 23 26  1  0
 26 27  2  0
  6 28  1  0
 28 29  2  0
 29  3  1  0
 19  9  1  0
 27 20  1  0
  1 30  1  0
  1 31  1  0
  1 32  1  0
  4 33  1  0
  5 34  1  0
  7 35  1  0
  7 36  1  0
  8 37  1  0
  8 38  1  0
 13 39  1  0
 15 40  1  0
 15 41  1  0
 15 42  1  0
 18 43  1  0
 18 44  1  0
 19 45  1  6
 21 46  1  0
 22 47  1  0
 25 48  1  0
 25 49  1  0
 25 50  1  0
 26 51  1  0
 27 52  1  0
 28 53  1  0
 29 54  1  0
M  END
$$$$
