
     RDKit          3D

 32 32  0  0  0  0  0  0  0  0999 V2000
    4.4183   -2.1429   -0.8205 O   0  0  0  0  0  0  0  0  0  0  0  0
    3.5212   -1.3554   -0.4333 C   0  0  0  0  0  0  0  0  0  0  0  0
    3.8779   -0.1557    0.1583 O   0  0  0  0  0  0  0  0  0  0  0  0
    2.1072   -1.7472   -0.6279 C   0  0  0  0  0  0  0  0  0  0  0  0
    1.1931   -0.7406   -0.1327 N   0  0  0  0  0  0  0  0  0  0  0  0
    1.1908    0.5953   -0.6509 C   0  0  0  0  0  0  0  0  0  0  0  0
    2.0481    0.8000   -1.5606 O   0  0  0  0  0  0  0  0  0  0  0  0
    0.2903    1.6480   -0.1882 C   0  0  0  0  0  0  0  0  0  0  0  0
    0.4145    1.9156    1.3048 C   0  0  0  0  0  0  0  0  0  0  0  0
    2.0942    2.4357    1.7521 S   0  0  0  0  0  0  0  0  0  0  0  0
   -1.1363    1.5318   -0.5881 C   0  0  0  0  0  0  0  0  0  0  0  0
   -1.8484    0.3333   -0.1519 C   0  0  0  0  0  0  0  0  0  0  0  0
   -2.5106    0.2836    1.0573 C   0  0  0  0  0  0  0  0  0  0  0  0
   -3.1922   -0.8479    1.4757 C   0  0  0  0  0  0  0  0  0  0  0  0
   -3.2339   -1.9753    0.6915 C   0  0  0  0  0  0  0  0  0  0  0  0
   -2.5761   -1.9395   -0.5202 C   0  0  0  0  0  0  0  0  0  0  0  0
   -1.8985   -0.8160   -0.9371 C   0  0  0  0  0  0  0  0  0  0  0  0
    4.7670    0.3131   -0.0698 H   0  0  0  0  0  0  0  0  0  0  0  0
    1.8910   -2.0164   -1.6851 H   0  0  0  0  0  0  0  0  0  0  0  0
    1.9388   -2.6730   -0.0429 H   0  0  0  0  0  0  0  0  0  0  0  0
    0.5305   -0.9822    0.6083 H   0  0  0  0  0  0  0  0  0  0  0  0
    0.6472    2.6194   -0.6552 H   0  0  0  0  0  0  0  0  0  0  0  0
   -0.3634    2.5875    1.6736 H   0  0  0  0  0  0  0  0  0  0  0  0
    0.2492    0.9330    1.8362 H   0  0  0  0  0  0  0  0  0  0  0  0
    2.5089    3.5675    1.0562 H   0  0  0  0  0  0  0  0  0  0  0  0
   -1.2545    1.6746   -1.7039 H   0  0  0  0  0  0  0  0  0  0  0  0
   -1.6533    2.4439   -0.1640 H   0  0  0  0  0  0  0  0  0  0  0  0
   -2.5077    1.1500    1.7148 H   0  0  0  0  0  0  0  0  0  0  0  0
   -3.7174   -0.8792    2.4411 H   0  0  0  0  0  0  0  0  0  0  0  0
   -3.7734   -2.8574    1.0330 H   0  0  0  0  0  0  0  0  0  0  0  0
   -2.6176   -2.8451   -1.1350 H   0  0  0  0  0  0  0  0  0  0  0  0
   -1.4052   -0.8584   -1.8987 H   0  0  0  0  0  0  0  0  0  0  0  0
  1  2  2  0
  2  3  1  0
  2  4  1  0
  4  5  1  0
  5  6  1  0
  6  7  2  0
  6  8  1  0
  8  9  1  0
  9 10  1  0
  8 11  1  0
 11 12  1  0
 12 13  2  0
 13 14  1  0
 14 15  2  0
 15 16  1  0
 16 17  2  0
 17 12  1  0
  3 18  1  0
  4 19  1  0
  4 20  1  0
  5 21  1  0
  8 22  1  0
  9 23  1  0
  9 24  1  0
 10 25  1  0
 11 26  1  0
 11 27  1  0
 13 28  1  0
 14 29  1  0
 15 30  1  0
 16 31  1  0
 17 32  1  0
M  END
$$$$
