
     RDKit          3D

 35 37  0  0  0  0  0  0  0  0999 V2000
   -8.0158   -0.0776   -0.3909 O   0  0  0  0  0  0  0  0  0  0  0  0
   -6.8022   -0.1214   -0.0610 C   0  0  0  0  0  0  0  0  0  0  0  0
   -6.1758    0.9932    0.7187 C   0  0  0  0  0  0  0  0  0  0  0  0
   -4.8233    1.0821    0.3178 O   0  0  0  0  0  0  0  0  0  0  0  0
   -4.0192    0.0079   -0.0091 C   0  0  0  0  0  0  0  0  0  0  0  0
   -2.5435    0.1327    0.0363 C   0  0  0  0  0  0  0  0  0  0  0  0
   -1.9090    1.2956    0.3971 C   0  0  0  0  0  0  0  0  0  0  0  0
   -0.5253    1.4014    0.4362 C   0  0  0  0  0  0  0  0  0  0  0  0
    0.2670    0.3028    0.1018 C   0  0  0  0  0  0  0  0  0  0  0  0
    1.7143    0.4789    0.1627 C   0  0  0  0  0  0  0  0  0  0  0  0
    2.5995   -0.4562   -0.1209 C   0  0  0  0  0  0  0  0  0  0  0  0
    4.0460   -0.2850   -0.0615 C   0  0  0  0  0  0  0  0  0  0  0  0
    4.8219   -1.3933   -0.3990 C   0  0  0  0  0  0  0  0  0  0  0  0
    6.1919   -1.3952   -0.3931 C   0  0  0  0  0  0  0  0  0  0  0  0
    6.8143   -0.2193   -0.0282 C   0  0  0  0  0  0  0  0  0  0  0  0
    6.0760    0.8889    0.3094 C   0  0  0  0  0  0  0  0  0  0  0  0
    6.6774    2.0586    0.6723 F   0  0  0  0  0  0  0  0  0  0  0  0
    4.6919    0.8539    0.2921 C   0  0  0  0  0  0  0  0  0  0  0  0
   -0.3770   -0.8435   -0.2541 C   0  0  0  0  0  0  0  0  0  0  0  0
   -1.7740   -0.9541   -0.2946 C   0  0  0  0  0  0  0  0  0  0  0  0
   -4.5536   -1.1092   -0.3553 N   0  0  0  0  0  0  0  0  0  0  0  0
   -5.9399   -1.2072   -0.3917 N   0  0  0  0  0  0  0  0  0  0  0  0
   -6.7244    1.9327    0.4229 H   0  0  0  0  0  0  0  0  0  0  0  0
   -6.2628    0.8262    1.8036 H   0  0  0  0  0  0  0  0  0  0  0  0
   -2.5183    2.1489    0.6569 H   0  0  0  0  0  0  0  0  0  0  0  0
   -0.0348    2.3244    0.7225 H   0  0  0  0  0  0  0  0  0  0  0  0
    2.1404    1.4397    0.4604 H   0  0  0  0  0  0  0  0  0  0  0  0
    2.1856   -1.4136   -0.4175 H   0  0  0  0  0  0  0  0  0  0  0  0
    4.3445   -2.3368   -0.6916 H   0  0  0  0  0  0  0  0  0  0  0  0
    6.8179   -2.2355   -0.6488 H   0  0  0  0  0  0  0  0  0  0  0  0
    7.9045   -0.1507   -0.0020 H   0  0  0  0  0  0  0  0  0  0  0  0
    4.1047    1.7409    0.5624 H   0  0  0  0  0  0  0  0  0  0  0  0
    0.2202   -1.7092   -0.5177 H   0  0  0  0  0  0  0  0  0  0  0  0
   -2.2313   -1.8924   -0.5856 H   0  0  0  0  0  0  0  0  0  0  0  0
   -6.3877   -2.1090   -0.6716 H   0  0  0  0  0  0  0  0  0  0  0  0
  1  2  2  0
  2  3  1  0
  3  4  1  0
  4  5  1  0
  5  6  1  0
  6  7  2  0
  7  8  1  0
  8  9  2  0
  9 10  1  0
 10 11  2  0
 11 12  1  0
 12 13  2  0
 13 14  1  0
 14 15  2  0
 15 16  1  0
 16 17  1  0
 16 18  2  0
  9 19  1  0
 19 20  2  0
  5 21  2  0
 21 22  1  0
 22  2  1  0
 20  6  1  0
 18 12  1  0
  3 23  1  0
  3 24  1  0
  7 25  1  0
  8 26  1  0
 10 27  1  0
 11 28  1  0
 13 29  1  0
 14 30  1  0
 15 31  1  0
 18 32  1  0
 19 33  1  0
 20 34  1  0
 22 35  1  0
M  END
$$$$
