
     RDKit          3D

 44 45  0  0  0  0  0  0  0  0999 V2000
   -5.0626    0.7352   -1.9785 C   0  0  1  0  0  0  0  0  0  0  0  0
   -5.6385   -0.6079   -2.0521 N   0  0  0  0  0  0  0  0  0  0  0  0
   -5.3115    1.2412   -0.6006 C   0  0  0  0  0  0  0  0  0  0  0  0
   -4.7311    0.3959    0.4585 C   0  0  0  0  0  0  0  0  0  0  0  0
   -3.2591    0.2760    0.4814 C   0  0  0  0  0  0  0  0  0  0  0  0
   -2.0538    0.5016    0.1535 O   0  0  0  0  0  0  0  0  0  0  0  0
   -2.8478   -0.7014    1.4906 N   0  0  0  0  0  0  0  0  0  0  0  0
   -1.3980   -0.6658    1.3475 C   0  0  0  0  0  0  0  0  0  0  0  0
   -0.7927   -1.5023    0.3957 C   0  0  0  0  0  0  0  0  0  0  0  0
    0.6008   -1.4200    0.2896 C   0  0  0  0  0  0  0  0  0  0  0  0
    1.3478   -0.5614    1.0786 C   0  0  0  0  0  0  0  0  0  0  0  0
    2.6854   -0.6770    0.7701 O   0  0  0  0  0  0  0  0  0  0  0  0
    3.7478    0.0115    1.3493 C   0  0  0  0  0  0  0  0  0  0  0  0
    4.9865   -0.4675    0.6392 C   0  0  0  0  0  0  0  0  0  0  0  0
    5.7555   -1.5452    1.0240 C   0  0  0  0  0  0  0  0  0  0  0  0
    6.8552   -1.8606    0.2771 C   0  0  0  0  0  0  0  0  0  0  0  0
    7.1765   -1.1032   -0.8400 C   0  0  0  0  0  0  0  0  0  0  0  0
    6.4250   -0.0044   -1.2636 C   0  0  0  0  0  0  0  0  0  0  0  0
    5.3190    0.2699   -0.4665 C   0  0  0  0  0  0  0  0  0  0  0  0
    0.7178    0.2542    2.0139 C   0  0  0  0  0  0  0  0  0  0  0  0
   -0.6533    0.1865    2.1325 C   0  0  0  0  0  0  0  0  0  0  0  0
   -3.6592    0.7295   -2.3754 C   0  0  0  0  0  0  0  0  0  0  0  0
   -2.3615    0.4854   -2.7770 O   0  0  0  0  0  0  0  0  0  0  0  0
   -3.5562   -0.5028   -2.5812 O   0  0  0  0  0  0  0  0  0  0  0  0
   -5.6695    1.3802   -2.6969 H   0  0  0  0  0  0  0  0  0  0  0  0
   -6.6219   -0.6399   -1.7094 H   0  0  0  0  0  0  0  0  0  0  0  0
   -5.0780   -1.2738   -1.5072 H   0  0  0  0  0  0  0  0  0  0  0  0
   -4.9716    2.3051   -0.4855 H   0  0  0  0  0  0  0  0  0  0  0  0
   -6.4191    1.3059   -0.4433 H   0  0  0  0  0  0  0  0  0  0  0  0
   -5.2014   -0.6365    0.4669 H   0  0  0  0  0  0  0  0  0  0  0  0
   -5.0368    0.7930    1.4776 H   0  0  0  0  0  0  0  0  0  0  0  0
   -3.3667   -1.3108    2.1818 H   0  0  0  0  0  0  0  0  0  0  0  0
   -1.4379   -2.1389   -0.1807 H   0  0  0  0  0  0  0  0  0  0  0  0
    0.9486   -2.1060   -0.4726 H   0  0  0  0  0  0  0  0  0  0  0  0
    3.6270    1.0996    1.2038 H   0  0  0  0  0  0  0  0  0  0  0  0
    3.9043   -0.1812    2.4288 H   0  0  0  0  0  0  0  0  0  0  0  0
    5.4521   -2.0873    1.8964 H   0  0  0  0  0  0  0  0  0  0  0  0
    7.4932   -2.6845    0.5209 H   0  0  0  0  0  0  0  0  0  0  0  0
    8.0474   -1.3264   -1.4630 H   0  0  0  0  0  0  0  0  0  0  0  0
    6.7016    0.5654   -2.1404 H   0  0  0  0  0  0  0  0  0  0  0  0
    4.7391    1.1295   -0.8136 H   0  0  0  0  0  0  0  0  0  0  0  0
    1.3945    0.8693    2.5689 H   0  0  0  0  0  0  0  0  0  0  0  0
   -1.1119    0.8308    2.8690 H   0  0  0  0  0  0  0  0  0  0  0  0
   -1.6850    1.2478   -2.6682 H   0  0  0  0  0  0  0  0  0  0  0  0
  1  2  1  0
  1  3  1  0
  3  4  1  0
  4  5  1  0
  5  6  2  0
  5  7  1  0
  7  8  1  0
  8  9  2  0
  9 10  1  0
 10 11  2  0
 11 12  1  0
 12 13  1  0
 13 14  1  0
 14 15  2  0
 15 16  1  0
 16 17  2  0
 17 18  1  0
 18 19  2  0
 11 20  1  0
 20 21  2  0
  1 22  1  0
 22 23  1  0
 22 24  2  0
 21  8  1  0
 19 14  1  0
  1 25  1  6
  2 26  1  0
  2 27  1  0
  3 28  1  0
  3 29  1  0
  4 30  1  0
  4 31  1  0
  7 32  1  0
  9 33  1  0
 10 34  1  0
 13 35  1  0
 13 36  1  0
 15 37  1  0
 16 38  1  0
 17 39  1  0
 18 40  1  0
 19 41  1  0
 20 42  1  0
 21 43  1  0
 23 44  1  0
M  END
$$$$
