
     RDKit          3D

 38 40  0  0  0  0  0  0  0  0999 V2000
   -4.9302   -3.1238   -1.5386 O   0  0  0  0  0  0  0  0  0  0  0  0
   -4.0505   -2.4673   -0.7050 C   0  0  0  0  0  0  0  0  0  0  0  0
   -4.4017   -2.6189    0.5031 O   0  0  0  0  0  0  0  0  0  0  0  0
   -2.8914   -1.7218   -1.2939 C   0  0  0  0  0  0  0  0  0  0  0  0
   -2.1442   -1.0545   -0.3354 O   0  0  0  0  0  0  0  0  0  0  0  0
   -2.6929   -0.0069    0.4863 C   0  0  0  0  0  0  0  0  0  0  0  0
   -3.9645    0.4251    0.3840 C   0  0  0  0  0  0  0  0  0  0  0  0
   -4.2564    1.4397    1.2872 C   0  0  0  0  0  0  0  0  0  0  0  0
   -5.5280    1.8107    1.1257 F   0  0  0  0  0  0  0  0  0  0  0  0
   -3.2046    1.8376    2.1356 C   0  0  0  0  0  0  0  0  0  0  0  0
   -1.9458    1.1677    1.9900 C   0  0  0  0  0  0  0  0  0  0  0  0
   -1.5154    0.0561    1.0476 C   0  0  0  0  0  0  0  0  0  0  0  0
   -0.2524    0.1237    1.6497 C   0  0  0  0  0  0  0  0  0  0  0  0
   -0.0825   -0.8113    0.8080 O   0  0  0  0  0  0  0  0  0  0  0  0
    0.7177    0.5774    2.5110 N   0  0  0  0  0  0  0  0  0  0  0  0
    1.9885   -0.0658    2.4445 C   0  0  0  0  0  0  0  0  0  0  0  0
    2.6669    0.0467    1.1132 C   0  0  0  0  0  0  0  0  0  0  0  0
    2.8437   -0.4101    0.0936 N   0  0  0  0  0  0  0  0  0  0  0  0
    3.5522   -0.0447   -0.9493 C   0  0  0  0  0  0  0  0  0  0  0  0
    4.2218    1.1364   -0.7783 C   0  0  0  0  0  0  0  0  0  0  0  0
    3.7438    1.5927    0.8981 S   0  0  0  0  0  0  0  0  0  0  0  0
    5.0605    1.8190   -1.6606 C   0  0  0  0  0  0  0  0  0  0  0  0
    5.6560    2.9884   -1.3444 F   0  0  0  0  0  0  0  0  0  0  0  0
    5.2414    1.1996   -2.9078 C   0  0  0  0  0  0  0  0  0  0  0  0
    4.5684   -0.0130   -3.1144 C   0  0  0  0  0  0  0  0  0  0  0  0
    4.7829   -0.5680   -4.3476 F   0  0  0  0  0  0  0  0  0  0  0  0
    3.7655   -0.6162   -2.1989 C   0  0  0  0  0  0  0  0  0  0  0  0
    3.1868   -1.8108   -2.5717 F   0  0  0  0  0  0  0  0  0  0  0  0
   -5.5069   -3.8956   -1.2754 H   0  0  0  0  0  0  0  0  0  0  0  0
   -3.2369   -1.0784   -2.1256 H   0  0  0  0  0  0  0  0  0  0  0  0
   -2.2544   -2.4989   -1.7677 H   0  0  0  0  0  0  0  0  0  0  0  0
   -4.5080   -0.0869   -0.3824 H   0  0  0  0  0  0  0  0  0  0  0  0
   -3.7064    2.6269    2.7250 H   0  0  0  0  0  0  0  0  0  0  0  0
   -1.5549    1.8332    2.8298 H   0  0  0  0  0  0  0  0  0  0  0  0
    0.2504    1.3355    3.0346 H   0  0  0  0  0  0  0  0  0  0  0  0
    2.6292    0.3932    3.2335 H   0  0  0  0  0  0  0  0  0  0  0  0
    1.8784   -1.1760    2.6449 H   0  0  0  0  0  0  0  0  0  0  0  0
    5.8742    1.6594   -3.6479 H   0  0  0  0  0  0  0  0  0  0  0  0
  1  2  1  0
  2  3  2  0
  2  4  1  0
  4  5  1  0
  5  6  1  0
  6  7  2  0
  7  8  1  0
  8  9  1  0
  8 10  2  0
 10 11  1  0
 11 12  2  0
 12 13  1  0
 13 14  2  0
 13 15  1  0
 15 16  1  0
 16 17  1  0
 17 18  2  0
 18 19  1  0
 19 20  2  0
 20 21  1  0
 20 22  1  0
 22 23  1  0
 22 24  2  0
 24 25  1  0
 25 26  1  0
 25 27  2  0
 27 28  1  0
 12  6  1  0
 21 17  1  0
 27 19  1  0
  1 29  1  0
  4 30  1  0
  4 31  1  0
  7 32  1  0
 10 33  1  0
 11 34  1  0
 15 35  1  0
 16 36  1  0
 16 37  1  0
 24 38  1  0
M  END
$$$$
