
     RDKit          3D

 48 50  0  0  0  0  0  0  0  0999 V2000
    8.8460    0.5974    1.0547 C   0  0  0  0  0  0  0  0  0  0  0  0
    8.0010   -0.5210    0.9776 O   0  0  0  0  0  0  0  0  0  0  0  0
    6.6789   -0.3725    0.5842 C   0  0  0  0  0  0  0  0  0  0  0  0
    6.1833    0.8714    0.2659 C   0  0  0  0  0  0  0  0  0  0  0  0
    4.8464    0.9680   -0.1242 C   0  0  0  0  0  0  0  0  0  0  0  0
    4.0189   -0.1266   -0.1998 C   0  0  0  0  0  0  0  0  0  0  0  0
    2.6403    0.0704   -0.6161 C   0  0  0  0  0  0  0  0  0  0  0  0
    2.2118    1.2107   -0.9005 O   0  0  0  0  0  0  0  0  0  0  0  0
    1.6955   -0.9910   -0.7294 N   0  0  0  0  0  0  0  0  0  0  0  0
    0.3448   -0.7958   -1.1376 C   0  0  0  0  0  0  0  0  0  0  0  0
    0.0006   -0.8630   -2.4715 C   0  0  0  0  0  0  0  0  0  0  0  0
   -1.2868   -0.6838   -2.9331 C   0  0  0  0  0  0  0  0  0  0  0  0
   -2.2716   -0.4222   -1.9739 C   0  0  0  0  0  0  0  0  0  0  0  0
   -1.9807   -0.3447   -0.6275 C   0  0  0  0  0  0  0  0  0  0  0  0
   -3.0776   -0.0540    0.3443 C   0  0  2  0  0  0  0  0  0  0  0  0
   -2.5356   -0.1131    1.7738 C   0  0  0  0  0  0  0  0  0  0  0  0
   -2.0298   -1.3369    2.0838 F   0  0  0  0  0  0  0  0  0  0  0  0
   -4.1614   -1.0765    0.2550 C   0  0  0  0  0  0  0  0  0  0  0  0
   -5.5231   -0.5738   -0.0579 C   0  0  1  0  0  0  0  0  0  0  0  0
   -6.3895   -0.2560    1.1222 C   0  0  0  0  0  0  0  0  0  0  0  0
   -5.8937    0.7034    1.9547 F   0  0  0  0  0  0  0  0  0  0  0  0
   -6.7197   -1.3853    1.8530 F   0  0  0  0  0  0  0  0  0  0  0  0
   -7.5949    0.2315    0.6158 F   0  0  0  0  0  0  0  0  0  0  0  0
   -5.4962    0.5718   -0.8843 O   0  0  0  0  0  0  0  0  0  0  0  0
   -4.6390    1.5958   -0.5245 C   0  0  0  0  0  0  0  0  0  0  0  0
   -4.9856    2.9680   -0.7787 N   0  0  0  0  0  0  0  0  0  0  0  0
   -3.5336    1.2840    0.0387 N   0  0  0  0  0  0  0  0  0  0  0  0
   -0.6788   -0.5330   -0.2375 C   0  0  0  0  0  0  0  0  0  0  0  0
    4.5403   -1.3190    0.1184 N   0  0  0  0  0  0  0  0  0  0  0  0
    5.8312   -1.4569    0.5015 C   0  0  0  0  0  0  0  0  0  0  0  0
    9.9069    0.2528    1.1551 H   0  0  0  0  0  0  0  0  0  0  0  0
    8.7655    1.2453    0.1655 H   0  0  0  0  0  0  0  0  0  0  0  0
    8.6290    1.1407    2.0096 H   0  0  0  0  0  0  0  0  0  0  0  0
    6.7938    1.7480    0.3117 H   0  0  0  0  0  0  0  0  0  0  0  0
    4.4675    1.9390   -0.3704 H   0  0  0  0  0  0  0  0  0  0  0  0
    2.0236   -1.9512   -0.4990 H   0  0  0  0  0  0  0  0  0  0  0  0
    0.7860   -1.0673   -3.1903 H   0  0  0  0  0  0  0  0  0  0  0  0
   -1.5572   -0.7365   -3.9812 H   0  0  0  0  0  0  0  0  0  0  0  0
   -3.2973   -0.2737   -2.2776 H   0  0  0  0  0  0  0  0  0  0  0  0
   -1.7197    0.6615    1.8432 H   0  0  0  0  0  0  0  0  0  0  0  0
   -3.3177    0.1551    2.4865 H   0  0  0  0  0  0  0  0  0  0  0  0
   -4.1919   -1.7385    1.1515 H   0  0  0  0  0  0  0  0  0  0  0  0
   -3.8759   -1.7893   -0.5785 H   0  0  0  0  0  0  0  0  0  0  0  0
   -6.0726   -1.3839   -0.6229 H   0  0  0  0  0  0  0  0  0  0  0  0
   -5.3292    3.2211   -1.7191 H   0  0  0  0  0  0  0  0  0  0  0  0
   -4.8746    3.6374   -0.0077 H   0  0  0  0  0  0  0  0  0  0  0  0
   -0.4018   -0.4784    0.7896 H   0  0  0  0  0  0  0  0  0  0  0  0
    6.2242   -2.4296    0.7519 H   0  0  0  0  0  0  0  0  0  0  0  0
  1  2  1  0
  2  3  1  0
  3  4  2  0
  4  5  1  0
  5  6  2  0
  6  7  1  0
  7  8  2  0
  7  9  1  0
  9 10  1  0
 10 11  2  0
 11 12  1  0
 12 13  2  0
 13 14  1  0
 14 15  1  0
 15 16  1  1
 16 17  1  0
 15 18  1  0
 18 19  1  0
 19 20  1  0
 20 21  1  0
 20 22  1  0
 20 23  1  0
 19 24  1  0
 24 25  1  0
 25 26  1  0
 25 27  2  0
 14 28  2  0
  6 29  1  0
 29 30  2  0
 30  3  1  0
 28 10  1  0
 27 15  1  0
  1 31  1  0
  1 32  1  0
  1 33  1  0
  4 34  1  0
  5 35  1  0
  9 36  1  0
 11 37  1  0
 12 38  1  0
 13 39  1  0
 16 40  1  0
 16 41  1  0
 18 42  1  0
 18 43  1  0
 19 44  1  6
 26 45  1  0
 26 46  1  0
 28 47  1  0
 30 48  1  0
M  END
$$$$
