
     RDKit          3D

 46 50  0  0  0  0  0  0  0  0999 V2000
   -2.1811   -3.2968    0.2747 N   0  0  0  0  0  0  0  0  0  0  0  0
   -2.0174   -2.0213   -0.3626 C   0  0  0  0  0  0  0  0  0  0  0  0
   -2.2968   -0.9420    0.2129 N   0  0  0  0  0  0  0  0  0  0  0  0
   -2.1919    0.4111   -0.2783 C   0  0  0  0  0  0  0  0  0  0  0  0
   -1.8502    0.4181   -1.7445 C   0  0  0  0  0  0  0  0  0  0  0  0
   -1.9812   -0.8776   -2.4362 C   0  0  0  0  0  0  0  0  0  0  0  0
   -1.5338   -1.9528   -1.6642 O   0  0  0  0  0  0  0  0  0  0  0  0
   -1.1007    1.0389    0.5126 C   0  0  0  0  0  0  0  0  0  0  0  0
    0.1746    0.4808    0.3262 C   0  0  0  0  0  0  0  0  0  0  0  0
    1.2400    0.9888    0.9994 C   0  0  0  0  0  0  0  0  0  0  0  0
    2.5444    0.5081    0.8856 N   0  0  0  0  0  0  0  0  0  0  0  0
    2.9506   -0.5637    0.0666 C   0  0  0  0  0  0  0  0  0  0  0  0
    2.1701   -1.1860   -0.6385 O   0  0  0  0  0  0  0  0  0  0  0  0
    4.3861   -0.9272    0.0821 C   0  0  0  0  0  0  0  0  0  0  0  0
    4.8597   -1.9720   -0.6989 C   0  0  0  0  0  0  0  0  0  0  0  0
    6.1950   -2.3051   -0.6802 C   0  0  0  0  0  0  0  0  0  0  0  0
    7.0704   -1.5915    0.1239 C   0  0  0  0  0  0  0  0  0  0  0  0
    8.7720   -2.0380    0.1289 Cl  0  0  0  0  0  0  0  0  0  0  0  0
    6.5697   -0.5644    0.8837 C   0  0  0  0  0  0  0  0  0  0  0  0
    5.2657   -0.2675    0.8414 N   0  0  0  0  0  0  0  0  0  0  0  0
    1.0377    2.0677    1.8717 C   0  0  0  0  0  0  0  0  0  0  0  0
   -0.2038    2.6136    2.0555 C   0  0  0  0  0  0  0  0  0  0  0  0
   -1.2952    2.0802    1.3549 C   0  0  0  0  0  0  0  0  0  0  0  0
   -2.5385    2.6656    1.5731 O   0  0  0  0  0  0  0  0  0  0  0  0
   -3.5990    2.1030    0.8563 C   0  0  0  0  0  0  0  0  0  0  0  0
   -3.4842    1.0577   -0.0074 C   0  0  0  0  0  0  0  0  0  0  0  0
   -4.6430    0.5967   -0.6567 C   0  0  0  0  0  0  0  0  0  0  0  0
   -5.8716    1.1607   -0.4505 C   0  0  0  0  0  0  0  0  0  0  0  0
   -7.3097    0.5460   -1.2928 Cl  0  0  0  0  0  0  0  0  0  0  0  0
   -5.9711    2.1909    0.4030 N   0  0  0  0  0  0  0  0  0  0  0  0
   -4.8848    2.6470    1.0325 C   0  0  0  0  0  0  0  0  0  0  0  0
   -4.9671    3.7047    1.9133 F   0  0  0  0  0  0  0  0  0  0  0  0
   -1.3430   -3.8897    0.4439 H   0  0  0  0  0  0  0  0  0  0  0  0
   -3.1369   -3.5777    0.5429 H   0  0  0  0  0  0  0  0  0  0  0  0
   -0.7617    0.7217   -1.8156 H   0  0  0  0  0  0  0  0  0  0  0  0
   -2.3742    1.2480   -2.2722 H   0  0  0  0  0  0  0  0  0  0  0  0
   -1.2780   -0.8386   -3.3354 H   0  0  0  0  0  0  0  0  0  0  0  0
   -2.9794   -1.1146   -2.8639 H   0  0  0  0  0  0  0  0  0  0  0  0
    0.2637   -0.3663   -0.3755 H   0  0  0  0  0  0  0  0  0  0  0  0
    3.2996    0.9959    1.4709 H   0  0  0  0  0  0  0  0  0  0  0  0
    4.1554   -2.5117   -1.3165 H   0  0  0  0  0  0  0  0  0  0  0  0
    6.5970   -3.1176   -1.2799 H   0  0  0  0  0  0  0  0  0  0  0  0
    7.2444    0.0113    1.5253 H   0  0  0  0  0  0  0  0  0  0  0  0
    1.8770    2.4792    2.4116 H   0  0  0  0  0  0  0  0  0  0  0  0
   -0.3332    3.4323    2.7229 H   0  0  0  0  0  0  0  0  0  0  0  0
   -4.5457   -0.2458   -1.3457 H   0  0  0  0  0  0  0  0  0  0  0  0
  1  2  1  0
  2  3  2  0
  3  4  1  0
  4  5  1  0
  5  6  1  0
  6  7  1  0
  4  8  1  0
  8  9  2  0
  9 10  1  0
 10 11  1  0
 11 12  1  0
 12 13  2  0
 12 14  1  0
 14 15  2  0
 15 16  1  0
 16 17  2  0
 17 18  1  0
 17 19  1  0
 19 20  2  0
 10 21  2  0
 21 22  1  0
 22 23  2  0
 23 24  1  0
 24 25  1  0
 25 26  2  0
 26 27  1  0
 27 28  2  0
 28 29  1  0
 28 30  1  0
 30 31  2  0
 31 32  1  0
  7  2  1  0
 23  8  1  0
 31 25  1  0
 26  4  1  0
 20 14  1  0
  1 33  1  0
  1 34  1  0
  5 35  1  0
  5 36  1  0
  6 37  1  0
  6 38  1  0
  9 39  1  0
 11 40  1  0
 15 41  1  0
 16 42  1  0
 19 43  1  0
 21 44  1  0
 22 45  1  0
 27 46  1  0
M  END
$$$$
