
     RDKit          3D

 36 39  0  0  0  0  0  0  0  0999 V2000
    6.2079    3.1963    0.7529 N   0  0  0  0  0  0  0  0  0  0  0  0
    5.2536    2.5256    0.5833 C   0  0  0  0  0  0  0  0  0  0  0  0
    4.0988    1.7001    0.3994 C   0  0  0  0  0  0  0  0  0  0  0  0
    3.7812    0.6903    1.2911 C   0  0  0  0  0  0  0  0  0  0  0  0
    2.6492   -0.0654    1.1122 C   0  0  0  0  0  0  0  0  0  0  0  0
    1.7787    0.1309    0.0561 C   0  0  0  0  0  0  0  0  0  0  0  0
    0.6203   -0.7505   -0.0515 C   0  0  0  0  0  0  0  0  0  0  0  0
   -0.7020   -0.3951   -0.1287 C   0  0  0  0  0  0  0  0  0  0  0  0
   -1.3232    0.9126   -0.0701 C   0  0  0  0  0  0  0  0  0  0  0  0
   -0.7229    1.9879    0.0360 O   0  0  0  0  0  0  0  0  0  0  0  0
   -2.7443    0.9899   -0.1377 N   0  0  0  0  0  0  0  0  0  0  0  0
   -3.4329    2.2418   -0.0935 C   0  0  0  0  0  0  0  0  0  0  0  0
   -4.7850    2.2582   -0.7680 C   0  0  0  0  0  0  0  0  0  0  0  0
   -4.6612    2.4101    0.7369 C   0  0  0  0  0  0  0  0  0  0  0  0
   -1.3737   -1.5750   -0.2478 N   0  0  0  0  0  0  0  0  0  0  0  0
   -0.5263   -2.6040   -0.2443 C   0  0  0  0  0  0  0  0  0  0  0  0
   -0.7041   -3.9692   -0.3375 C   0  0  0  0  0  0  0  0  0  0  0  0
    0.4016   -4.7859   -0.3030 C   0  0  0  0  0  0  0  0  0  0  0  0
    1.6749   -4.2419   -0.1764 C   0  0  0  0  0  0  0  0  0  0  0  0
    1.7895   -2.9125   -0.0898 N   0  0  0  0  0  0  0  0  0  0  0  0
    0.7052   -2.1183   -0.1243 N   0  0  0  0  0  0  0  0  0  0  0  0
    2.1043    1.1293   -0.8204 C   0  0  0  0  0  0  0  0  0  0  0  0
    1.3529    1.3773   -1.8998 F   0  0  0  0  0  0  0  0  0  0  0  0
    3.2440    1.9121   -0.6642 C   0  0  0  0  0  0  0  0  0  0  0  0
    4.4578    0.5353    2.1134 H   0  0  0  0  0  0  0  0  0  0  0  0
    2.4080   -0.8658    1.8270 H   0  0  0  0  0  0  0  0  0  0  0  0
   -3.3170    0.1076   -0.2208 H   0  0  0  0  0  0  0  0  0  0  0  0
   -2.7632    3.1333   -0.1928 H   0  0  0  0  0  0  0  0  0  0  0  0
   -5.0923    3.1312   -1.3574 H   0  0  0  0  0  0  0  0  0  0  0  0
   -5.2327    1.3010   -1.1066 H   0  0  0  0  0  0  0  0  0  0  0  0
   -4.8564    3.4562    1.1007 H   0  0  0  0  0  0  0  0  0  0  0  0
   -4.9911    1.5720    1.3671 H   0  0  0  0  0  0  0  0  0  0  0  0
   -1.6762   -4.4069   -0.4349 H   0  0  0  0  0  0  0  0  0  0  0  0
    0.3367   -5.8755   -0.3715 H   0  0  0  0  0  0  0  0  0  0  0  0
    2.5682   -4.8389   -0.1464 H   0  0  0  0  0  0  0  0  0  0  0  0
    3.4719    2.7058   -1.3888 H   0  0  0  0  0  0  0  0  0  0  0  0
  1  2  3  0
  2  3  1  0
  3  4  2  0
  4  5  1  0
  5  6  2  0
  6  7  1  0
  7  8  2  0
  8  9  1  0
  9 10  2  0
  9 11  1  0
 11 12  1  0
 12 13  1  0
 13 14  1  0
  8 15  1  0
 15 16  2  0
 16 17  1  0
 17 18  2  0
 18 19  1  0
 19 20  2  0
 20 21  1  0
  6 22  1  0
 22 23  1  0
 22 24  2  0
 24  3  1  0
 21  7  1  0
 14 12  1  0
 21 16  1  0
  4 25  1  0
  5 26  1  0
 11 27  1  0
 12 28  1  0
 13 29  1  0
 13 30  1  0
 14 31  1  0
 14 32  1  0
 17 33  1  0
 18 34  1  0
 19 35  1  0
 24 36  1  0
M  END
$$$$
