
     RDKit          3D

 69 74  0  0  0  0  0  0  0  0999 V2000
   -2.5887   -2.6065   -3.6976 C   0  0  0  0  0  0  0  0  0  0  0  0
   -1.2721   -2.4275   -3.0194 C   0  0  0  0  0  0  0  0  0  0  0  0
   -0.1349   -3.0298   -3.5542 C   0  0  0  0  0  0  0  0  0  0  0  0
    1.0764   -2.8612   -2.9434 C   0  0  0  0  0  0  0  0  0  0  0  0
    1.2199   -2.1065   -1.8006 C   0  0  0  0  0  0  0  0  0  0  0  0
    2.5300   -1.9559   -1.1856 C   0  0  0  0  0  0  0  0  0  0  0  0
    3.5279   -2.5187   -1.7486 O   0  0  0  0  0  0  0  0  0  0  0  0
    2.7614   -1.2214    0.0017 N   0  0  0  0  0  0  0  0  0  0  0  0
    4.1040   -1.1514    0.5054 C   0  0  0  0  0  0  0  0  0  0  0  0
    4.5121   -2.1338    1.3810 C   0  0  0  0  0  0  0  0  0  0  0  0
    5.7969   -2.0648    1.8654 C   0  0  0  0  0  0  0  0  0  0  0  0
    6.6711   -1.0411    1.4934 C   0  0  0  0  0  0  0  0  0  0  0  0
    6.2765   -0.0522    0.6191 C   0  0  0  0  0  0  0  0  0  0  0  0
    7.1075    1.0139    0.2073 N   0  0  0  0  0  0  0  0  0  0  0  0
    6.6365    1.9551   -0.7767 C   0  0  0  0  0  0  0  0  0  0  0  0
    7.8604    2.7113   -1.2693 C   0  0  0  0  0  0  0  0  0  0  0  0
    8.4991    3.3808   -0.2512 O   0  0  0  0  0  0  0  0  0  0  0  0
    8.8221    2.6281    0.8437 C   0  0  0  0  0  0  0  0  0  0  0  0
    8.4235    1.1751    0.7625 C   0  0  0  0  0  0  0  0  0  0  0  0
    4.9604   -0.1573    0.1471 C   0  0  0  0  0  0  0  0  0  0  0  0
    0.0767   -1.5278   -1.3021 C   0  0  0  0  0  0  0  0  0  0  0  0
   -1.1715   -1.6707   -1.8860 C   0  0  0  0  0  0  0  0  0  0  0  0
   -2.2990   -1.0244   -1.2626 C   0  0  0  0  0  0  0  0  0  0  0  0
   -3.4390   -1.7299   -0.9982 C   0  0  0  0  0  0  0  0  0  0  0  0
   -4.5404   -1.1038   -0.3977 C   0  0  0  0  0  0  0  0  0  0  0  0
   -4.4582    0.2340   -0.0770 C   0  0  0  0  0  0  0  0  0  0  0  0
   -5.3578    1.0997    0.5068 C   0  0  0  0  0  0  0  0  0  0  0  0
   -6.7441    0.8094    0.9807 C   0  0  0  0  0  0  0  0  0  0  0  0
   -6.7718    0.3896    2.4203 C   0  0  0  0  0  0  0  0  0  0  0  0
   -7.3711    1.3917    3.3472 C   0  0  0  0  0  0  0  0  0  0  0  0
   -8.5815    1.9932    2.8979 N   0  0  0  0  0  0  0  0  0  0  0  0
   -8.9214    1.7465    1.5327 C   0  0  0  0  0  0  0  0  0  0  0  0
   -7.6721    1.9690    0.6988 C   0  0  0  0  0  0  0  0  0  0  0  0
   -4.7432    2.2860    0.5770 N   0  0  0  0  0  0  0  0  0  0  0  0
   -3.5361    2.1804    0.0722 O   0  0  0  0  0  0  0  0  0  0  0  0
   -3.3102    0.9681   -0.3369 C   0  0  0  0  0  0  0  0  0  0  0  0
   -2.2415    0.3117   -0.9325 C   0  0  0  0  0  0  0  0  0  0  0  0
   -2.4352   -2.5444   -4.8017 H   0  0  0  0  0  0  0  0  0  0  0  0
   -3.2337   -1.7659   -3.4259 H   0  0  0  0  0  0  0  0  0  0  0  0
   -3.0451   -3.5598   -3.4193 H   0  0  0  0  0  0  0  0  0  0  0  0
   -0.2495   -3.6251   -4.4563 H   0  0  0  0  0  0  0  0  0  0  0  0
    1.9319   -3.3490   -3.3968 H   0  0  0  0  0  0  0  0  0  0  0  0
    1.9710   -0.7576    0.4751 H   0  0  0  0  0  0  0  0  0  0  0  0
    3.8481   -2.9333    1.6801 H   0  0  0  0  0  0  0  0  0  0  0  0
    6.1324   -2.8174    2.5456 H   0  0  0  0  0  0  0  0  0  0  0  0
    7.6833   -1.0331    1.9051 H   0  0  0  0  0  0  0  0  0  0  0  0
    6.3041    1.3411   -1.6600 H   0  0  0  0  0  0  0  0  0  0  0  0
    5.8324    2.6068   -0.4403 H   0  0  0  0  0  0  0  0  0  0  0  0
    7.5038    3.4671   -1.9986 H   0  0  0  0  0  0  0  0  0  0  0  0
    8.5205    2.0136   -1.8194 H   0  0  0  0  0  0  0  0  0  0  0  0
    9.9165    2.7025    1.0351 H   0  0  0  0  0  0  0  0  0  0  0  0
    8.3235    3.0574    1.7468 H   0  0  0  0  0  0  0  0  0  0  0  0
    8.5231    0.7846    1.8079 H   0  0  0  0  0  0  0  0  0  0  0  0
    9.1758    0.6717    0.1207 H   0  0  0  0  0  0  0  0  0  0  0  0
    4.6261    0.6170   -0.5483 H   0  0  0  0  0  0  0  0  0  0  0  0
    0.1596   -0.9248   -0.3992 H   0  0  0  0  0  0  0  0  0  0  0  0
   -3.5372   -2.7786   -1.2320 H   0  0  0  0  0  0  0  0  0  0  0  0
   -5.4288   -1.6807   -0.1992 H   0  0  0  0  0  0  0  0  0  0  0  0
   -7.1071   -0.0531    0.3785 H   0  0  0  0  0  0  0  0  0  0  0  0
   -5.6940    0.2656    2.7362 H   0  0  0  0  0  0  0  0  0  0  0  0
   -7.2278   -0.6129    2.5851 H   0  0  0  0  0  0  0  0  0  0  0  0
   -7.6109    0.8426    4.3058 H   0  0  0  0  0  0  0  0  0  0  0  0
   -6.6247    2.1715    3.6786 H   0  0  0  0  0  0  0  0  0  0  0  0
   -8.5254    3.0402    3.0218 H   0  0  0  0  0  0  0  0  0  0  0  0
   -9.2547    0.7056    1.4358 H   0  0  0  0  0  0  0  0  0  0  0  0
   -9.7171    2.4858    1.2530 H   0  0  0  0  0  0  0  0  0  0  0  0
   -7.9396    2.0571   -0.3552 H   0  0  0  0  0  0  0  0  0  0  0  0
   -7.2036    2.9066    1.1052 H   0  0  0  0  0  0  0  0  0  0  0  0
   -1.3255    0.8401   -1.1548 H   0  0  0  0  0  0  0  0  0  0  0  0
  1  2  1  0
  2  3  2  0
  3  4  1  0
  4  5  2  0
  5  6  1  0
  6  7  2  0
  6  8  1  0
  8  9  1  0
  9 10  2  0
 10 11  1  0
 11 12  2  0
 12 13  1  0
 13 14  1  0
 14 15  1  0
 15 16  1  0
 16 17  1  0
 17 18  1  0
 18 19  1  0
 13 20  2  0
  5 21  1  0
 21 22  2  0
 22 23  1  0
 23 24  2  0
 24 25  1  0
 25 26  2  0
 26 27  1  0
 27 28  1  0
 28 29  1  0
 29 30  1  0
 30 31  1  0
 31 32  1  0
 32 33  1  0
 27 34  2  0
 34 35  1  0
 35 36  1  0
 36 37  2  0
 22  2  1  0
 37 23  1  0
 20  9  1  0
 36 26  1  0
 19 14  1  0
 33 28  1  0
  1 38  1  0
  1 39  1  0
  1 40  1  0
  3 41  1  0
  4 42  1  0
  8 43  1  0
 10 44  1  0
 11 45  1  0
 12 46  1  0
 15 47  1  0
 15 48  1  0
 16 49  1  0
 16 50  1  0
 18 51  1  0
 18 52  1  0
 19 53  1  0
 19 54  1  0
 20 55  1  0
 21 56  1  0
 24 57  1  0
 25 58  1  0
 28 59  1  0
 29 60  1  0
 29 61  1  0
 30 62  1  0
 30 63  1  0
 31 64  1  0
 32 65  1  0
 32 66  1  0
 33 67  1  0
 33 68  1  0
 37 69  1  0
M  END
$$$$
