
     RDKit          3D

 86 91  0  0  0  0  0  0  0  0999 V2000
    7.1745    1.8512   -4.0036 C   0  0  0  0  0  0  0  0  0  0  0  0
    7.2017    1.5767   -2.6323 O   0  0  0  0  0  0  0  0  0  0  0  0
    6.0214    1.4256   -1.9391 C   0  0  0  0  0  0  0  0  0  0  0  0
    4.8149    1.5476   -2.6101 C   0  0  0  0  0  0  0  0  0  0  0  0
    3.6048    1.4064   -1.9674 C   0  0  0  0  0  0  0  0  0  0  0  0
    3.6133    1.1325   -0.6009 C   0  0  0  0  0  0  0  0  0  0  0  0
    4.8178    1.0175    0.0343 C   0  0  0  0  0  0  0  0  0  0  0  0
    6.0408    1.1553   -0.5899 C   0  0  0  0  0  0  0  0  0  0  0  0
    7.0695    0.9846    0.3160 O   0  0  0  0  0  0  0  0  0  0  0  0
    6.5056    0.1467    1.3424 C   0  0  1  0  0  0  0  0  0  0  0  0
    7.3624    0.2489    2.5422 C   0  0  0  0  0  0  0  0  0  0  0  0
    6.8480    1.0159    3.7021 C   0  0  1  0  0  0  0  0  0  0  0  0
    7.9379    1.6779    4.2937 O   0  0  0  0  0  0  0  0  0  0  0  0
    5.8396    2.0446    3.3290 C   0  0  0  0  0  0  0  0  0  0  0  0
    5.0408    1.9313    2.3025 C   0  0  0  0  0  0  0  0  0  0  0  0
    5.1211    0.7363    1.4557 C   0  0  1  0  0  0  0  0  0  0  0  0
    4.1680   -0.3547    1.8996 C   0  0  0  0  0  0  0  0  0  0  0  0
    3.3373   -0.9162    0.7885 C   0  0  0  0  0  0  0  0  0  0  0  0
    2.0919   -0.2374    0.5993 N   0  0  0  0  0  0  0  0  0  0  0  0
    1.0450   -1.0365    0.0382 C   0  0  0  0  0  0  0  0  0  0  0  0
    1.3031   -1.4227   -1.3880 C   0  0  0  0  0  0  0  0  0  0  0  0
    0.1830   -2.2565   -1.9386 C   0  0  0  0  0  0  0  0  0  0  0  0
   -0.0270   -3.5308   -1.1805 C   0  0  0  0  0  0  0  0  0  0  0  0
   -1.1546   -4.3576   -1.7504 C   0  0  0  0  0  0  0  0  0  0  0  0
   -2.4630   -3.6161   -1.7215 C   0  0  0  0  0  0  0  0  0  0  0  0
   -2.7729   -3.2837   -0.3907 O   0  0  0  0  0  0  0  0  0  0  0  0
   -3.9386   -2.5937   -0.0591 C   0  0  0  0  0  0  0  0  0  0  0  0
   -4.2502   -2.2620    1.2310 C   0  0  0  0  0  0  0  0  0  0  0  0
   -5.4058   -1.5798    1.5502 C   0  0  0  0  0  0  0  0  0  0  0  0
   -6.2662   -1.2248    0.5417 C   0  0  0  0  0  0  0  0  0  0  0  0
   -7.5072   -0.5033    0.8108 C   0  0  0  0  0  0  0  0  0  0  0  0
   -7.4586    0.9044    0.7905 N   0  0  0  0  0  0  0  0  0  0  0  0
   -6.5806    1.5603    1.6912 C   0  0  0  0  0  0  0  0  0  0  0  0
   -7.1976    2.8819    2.0956 C   0  0  0  0  0  0  0  0  0  0  0  0
   -7.7417    3.6634    0.9491 C   0  0  0  0  0  0  0  0  0  0  0  0
   -8.5095    2.8451   -0.0518 C   0  0  0  0  0  0  0  0  0  0  0  0
   -7.7353    1.5731   -0.4286 C   0  0  0  0  0  0  0  0  0  0  0  0
   -5.9454   -1.5618   -0.7499 C   0  0  0  0  0  0  0  0  0  0  0  0
   -4.7999   -2.2414   -1.0942 C   0  0  0  0  0  0  0  0  0  0  0  0
    2.2046    1.0199   -0.1027 C   0  0  0  0  0  0  0  0  0  0  0  0
    6.7461    2.8514   -4.2415 H   0  0  0  0  0  0  0  0  0  0  0  0
    6.5305    1.1096   -4.5292 H   0  0  0  0  0  0  0  0  0  0  0  0
    8.2137    1.8566   -4.4284 H   0  0  0  0  0  0  0  0  0  0  0  0
    4.7793    1.7608   -3.6773 H   0  0  0  0  0  0  0  0  0  0  0  0
    2.6752    1.5043   -2.5063 H   0  0  0  0  0  0  0  0  0  0  0  0
    6.4652   -0.8773    0.9027 H   0  0  0  0  0  0  0  0  0  0  0  0
    8.3771    0.5974    2.2373 H   0  0  0  0  0  0  0  0  0  0  0  0
    7.5184   -0.8128    2.9151 H   0  0  0  0  0  0  0  0  0  0  0  0
    6.4031    0.3795    4.4846 H   0  0  0  0  0  0  0  0  0  0  0  0
    8.5279    2.0285    3.5738 H   0  0  0  0  0  0  0  0  0  0  0  0
    5.7828    2.9232    3.9547 H   0  0  0  0  0  0  0  0  0  0  0  0
    4.3293    2.7053    2.0771 H   0  0  0  0  0  0  0  0  0  0  0  0
    3.5524    0.0418    2.7366 H   0  0  0  0  0  0  0  0  0  0  0  0
    4.7665   -1.1778    2.3368 H   0  0  0  0  0  0  0  0  0  0  0  0
    3.9293   -0.9582   -0.1468 H   0  0  0  0  0  0  0  0  0  0  0  0
    3.0904   -1.9823    1.0668 H   0  0  0  0  0  0  0  0  0  0  0  0
    0.0889   -0.5253    0.1852 H   0  0  0  0  0  0  0  0  0  0  0  0
    1.0173   -1.9810    0.6281 H   0  0  0  0  0  0  0  0  0  0  0  0
    2.2420   -2.0075   -1.4400 H   0  0  0  0  0  0  0  0  0  0  0  0
    1.4422   -0.5543   -2.0639 H   0  0  0  0  0  0  0  0  0  0  0  0
   -0.7229   -1.6458   -2.0312 H   0  0  0  0  0  0  0  0  0  0  0  0
    0.4724   -2.5459   -2.9877 H   0  0  0  0  0  0  0  0  0  0  0  0
    0.8904   -4.1010   -1.0316 H   0  0  0  0  0  0  0  0  0  0  0  0
   -0.3785   -3.2345   -0.1482 H   0  0  0  0  0  0  0  0  0  0  0  0
   -0.9600   -4.6237   -2.8116 H   0  0  0  0  0  0  0  0  0  0  0  0
   -1.2872   -5.3004   -1.1952 H   0  0  0  0  0  0  0  0  0  0  0  0
   -3.2567   -4.2569   -2.1716 H   0  0  0  0  0  0  0  0  0  0  0  0
   -2.4394   -2.6855   -2.3425 H   0  0  0  0  0  0  0  0  0  0  0  0
   -3.5554   -2.5521    2.0150 H   0  0  0  0  0  0  0  0  0  0  0  0
   -5.5868   -1.3502    2.5950 H   0  0  0  0  0  0  0  0  0  0  0  0
   -7.9570   -0.8157    1.7994 H   0  0  0  0  0  0  0  0  0  0  0  0
   -8.2947   -0.8171    0.0634 H   0  0  0  0  0  0  0  0  0  0  0  0
   -5.5784    1.8244    1.2430 H   0  0  0  0  0  0  0  0  0  0  0  0
   -6.4595    0.9382    2.6011 H   0  0  0  0  0  0  0  0  0  0  0  0
   -8.0025    2.6506    2.8222 H   0  0  0  0  0  0  0  0  0  0  0  0
   -6.4282    3.5367    2.5970 H   0  0  0  0  0  0  0  0  0  0  0  0
   -6.9771    4.3004    0.4387 H   0  0  0  0  0  0  0  0  0  0  0  0
   -8.4771    4.4049    1.3790 H   0  0  0  0  0  0  0  0  0  0  0  0
   -8.7296    3.4714   -0.9276 H   0  0  0  0  0  0  0  0  0  0  0  0
   -9.4403    2.4896    0.4574 H   0  0  0  0  0  0  0  0  0  0  0  0
   -8.4290    0.9480   -1.0268 H   0  0  0  0  0  0  0  0  0  0  0  0
   -6.8550    1.9244   -0.9961 H   0  0  0  0  0  0  0  0  0  0  0  0
   -6.6129   -1.2922   -1.5770 H   0  0  0  0  0  0  0  0  0  0  0  0
   -4.6003   -2.4790   -2.1269 H   0  0  0  0  0  0  0  0  0  0  0  0
    2.0941    1.8250    0.6567 H   0  0  0  0  0  0  0  0  0  0  0  0
    1.5011    1.1358   -0.9247 H   0  0  0  0  0  0  0  0  0  0  0  0
  1  2  1  0
  2  3  1  0
  3  4  2  0
  4  5  1  0
  5  6  2  0
  6  7  1  0
  7  8  2  0
  8  9  1  0
  9 10  1  0
 10 11  1  0
 11 12  1  0
 12 13  1  0
 12 14  1  0
 14 15  2  0
 15 16  1  0
 16 17  1  1
 17 18  1  0
 18 19  1  0
 19 20  1  0
 20 21  1  0
 21 22  1  0
 22 23  1  0
 23 24  1  0
 24 25  1  0
 25 26  1  0
 26 27  1  0
 27 28  2  0
 28 29  1  0
 29 30  2  0
 30 31  1  0
 31 32  1  0
 32 33  1  0
 33 34  1  0
 34 35  1  0
 35 36  1  0
 36 37  1  0
 30 38  1  0
 38 39  2  0
 19 40  1  0
  8  3  1  0
 16 10  1  0
 39 27  1  0
 40  6  1  0
 16  7  1  0
 37 32  1  0
  1 41  1  0
  1 42  1  0
  1 43  1  0
  4 44  1  0
  5 45  1  0
 10 46  1  6
 11 47  1  0
 11 48  1  0
 12 49  1  1
 13 50  1  0
 14 51  1  0
 15 52  1  0
 17 53  1  0
 17 54  1  0
 18 55  1  0
 18 56  1  0
 20 57  1  0
 20 58  1  0
 21 59  1  0
 21 60  1  0
 22 61  1  0
 22 62  1  0
 23 63  1  0
 23 64  1  0
 24 65  1  0
 24 66  1  0
 25 67  1  0
 25 68  1  0
 28 69  1  0
 29 70  1  0
 31 71  1  0
 31 72  1  0
 33 73  1  0
 33 74  1  0
 34 75  1  0
 34 76  1  0
 35 77  1  0
 35 78  1  0
 36 79  1  0
 36 80  1  0
 37 81  1  0
 37 82  1  0
 38 83  1  0
 39 84  1  0
 40 85  1  0
 40 86  1  0
M  END
$$$$
