
     RDKit          3D

 56 59  0  0  0  0  0  0  0  0999 V2000
    0.6289   -0.4722    0.5733 C   0  0  2  0  0  0  0  0  0  0  0  0
    1.5595   -0.8593    1.6659 C   0  0  0  0  0  0  0  0  0  0  0  0
    2.7460   -1.3044    0.7920 C   0  0  2  0  0  0  0  0  0  0  0  0
    3.9600   -1.1606    1.6319 C   0  0  0  0  0  0  0  0  0  0  0  0
    2.6822   -0.5152   -0.4680 C   0  0  2  0  0  0  0  0  0  0  0  0
    2.2948   -1.4026   -1.4838 O   0  0  0  0  0  0  0  0  0  0  0  0
    3.9297    0.1235   -0.8823 C   0  0  0  0  0  0  0  0  0  0  0  0
    4.8514    0.9230   -0.6442 O   0  0  0  0  0  0  0  0  0  0  0  0
    4.6162   -0.1696   -2.1812 C   0  0  0  0  0  0  0  0  0  0  0  0
    6.1016    0.8246   -2.2863 Cl  0  0  0  0  0  0  0  0  0  0  0  0
    1.5082    0.4163   -0.2815 C   0  0  2  0  0  0  0  0  0  0  0  0
    1.9669    1.6451    0.4456 C   0  0  0  0  0  0  0  0  0  0  0  0
    0.7387    0.6676   -1.5338 C   0  0  0  0  0  0  0  0  0  0  0  0
   -0.6619    1.1620   -1.2419 C   0  0  2  0  0  0  0  0  0  0  0  0
   -0.5375    2.4533   -0.7884 O   0  0  0  0  0  0  0  0  0  0  0  0
   -1.4163    0.2203   -0.3848 C   0  0  1  0  0  0  0  0  0  0  0  0
   -1.2593   -1.0406   -0.9521 F   0  0  0  0  0  0  0  0  0  0  0  0
   -0.6752    0.1080    0.9472 C   0  0  1  0  0  0  0  0  0  0  0  0
   -1.3820   -0.8708    1.8576 C   0  0  0  0  0  0  0  0  0  0  0  0
   -2.8362   -0.4676    1.9316 C   0  0  2  0  0  0  0  0  0  0  0  0
   -3.3991   -1.3378    2.8767 F   0  0  0  0  0  0  0  0  0  0  0  0
   -3.5422   -0.5226    0.6493 C   0  0  0  0  0  0  0  0  0  0  0  0
   -4.5722   -1.3274    0.4415 C   0  0  0  0  0  0  0  0  0  0  0  0
   -5.1418   -1.2397   -0.8988 C   0  0  0  0  0  0  0  0  0  0  0  0
   -6.1092   -1.9530   -1.1918 O   0  0  0  0  0  0  0  0  0  0  0  0
   -4.5902   -0.3280   -1.8934 C   0  0  0  0  0  0  0  0  0  0  0  0
   -3.5564    0.4189   -1.5434 C   0  0  0  0  0  0  0  0  0  0  0  0
   -2.8668    0.4485   -0.2304 C   0  0  2  0  0  0  0  0  0  0  0  0
   -3.1997    1.8309    0.3403 C   0  0  0  0  0  0  0  0  0  0  0  0
    0.4257   -1.3855   -0.0375 H   0  0  0  0  0  0  0  0  0  0  0  0
    1.1529   -1.6816    2.2669 H   0  0  0  0  0  0  0  0  0  0  0  0
    1.8540   -0.0240    2.3192 H   0  0  0  0  0  0  0  0  0  0  0  0
    2.5769   -2.3922    0.6452 H   0  0  0  0  0  0  0  0  0  0  0  0
    4.2343   -0.1501    1.9403 H   0  0  0  0  0  0  0  0  0  0  0  0
    4.8426   -1.7442    1.2342 H   0  0  0  0  0  0  0  0  0  0  0  0
    3.7407   -1.6944    2.5842 H   0  0  0  0  0  0  0  0  0  0  0  0
    2.6113   -1.1537   -2.3678 H   0  0  0  0  0  0  0  0  0  0  0  0
    4.9617   -1.2304   -2.2414 H   0  0  0  0  0  0  0  0  0  0  0  0
    4.0309    0.1337   -3.0670 H   0  0  0  0  0  0  0  0  0  0  0  0
    1.4682    1.8131    1.4238 H   0  0  0  0  0  0  0  0  0  0  0  0
    3.0592    1.5492    0.7193 H   0  0  0  0  0  0  0  0  0  0  0  0
    1.9487    2.5270   -0.2276 H   0  0  0  0  0  0  0  0  0  0  0  0
    0.6325   -0.3026   -2.0541 H   0  0  0  0  0  0  0  0  0  0  0  0
    1.1828    1.4458   -2.1844 H   0  0  0  0  0  0  0  0  0  0  0  0
   -1.1837    1.1720   -2.2453 H   0  0  0  0  0  0  0  0  0  0  0  0
   -0.4158    2.5859    0.1605 H   0  0  0  0  0  0  0  0  0  0  0  0
   -0.6258    1.0614    1.4977 H   0  0  0  0  0  0  0  0  0  0  0  0
   -1.2358   -1.9129    1.5770 H   0  0  0  0  0  0  0  0  0  0  0  0
   -0.9566   -0.7207    2.8698 H   0  0  0  0  0  0  0  0  0  0  0  0
   -2.9245    0.5294    2.3815 H   0  0  0  0  0  0  0  0  0  0  0  0
   -4.9216   -1.9734    1.2288 H   0  0  0  0  0  0  0  0  0  0  0  0
   -5.0366   -0.2889   -2.8765 H   0  0  0  0  0  0  0  0  0  0  0  0
   -3.2091    1.0751   -2.3558 H   0  0  0  0  0  0  0  0  0  0  0  0
   -2.5300    2.1156    1.1756 H   0  0  0  0  0  0  0  0  0  0  0  0
   -3.2970    2.5904   -0.4509 H   0  0  0  0  0  0  0  0  0  0  0  0
   -4.2239    1.7854    0.8170 H   0  0  0  0  0  0  0  0  0  0  0  0
  1  2  1  0
  2  3  1  0
  3  4  1  0
  3  5  1  0
  5  6  1  6
  5  7  1  0
  7  8  2  0
  7  9  1  0
  9 10  1  0
  5 11  1  0
 11 12  1  1
 11 13  1  0
 13 14  1  0
 14 15  1  0
 14 16  1  0
 16 17  1  6
 16 18  1  0
 18 19  1  0
 19 20  1  0
 20 21  1  0
 20 22  1  0
 22 23  2  0
 23 24  1  0
 24 25  2  0
 24 26  1  0
 26 27  2  0
 27 28  1  0
 28 29  1  1
 11  1  1  0
 28 16  1  0
 18  1  1  0
 28 22  1  0
  1 30  1  6
  2 31  1  0
  2 32  1  0
  3 33  1  6
  4 34  1  0
  4 35  1  0
  4 36  1  0
  6 37  1  0
  9 38  1  0
  9 39  1  0
 12 40  1  0
 12 41  1  0
 12 42  1  0
 13 43  1  0
 13 44  1  0
 14 45  1  6
 15 46  1  0
 18 47  1  1
 19 48  1  0
 19 49  1  0
 20 50  1  1
 23 51  1  0
 26 52  1  0
 27 53  1  0
 29 54  1  0
 29 55  1  0
 29 56  1  0
M  END
$$$$
