
     RDKit          3D

 60 64  0  0  0  0  0  0  0  0999 V2000
    2.0405   -1.0352    2.1417 C   0  0  0  0  0  0  0  0  0  0  0  0
    3.2025   -1.3215    1.3273 N   0  0  0  0  0  0  0  0  0  0  0  0
    4.0805   -0.1732    1.2209 C   0  0  0  0  0  0  0  0  0  0  0  0
    5.5454   -0.5357    1.2419 C   0  0  2  0  0  0  0  0  0  0  0  0
    6.3130    0.7796    1.1135 C   0  0  0  0  0  0  0  0  0  0  0  0
    7.3348    0.6122    0.1706 O   0  0  0  0  0  0  0  0  0  0  0  0
    8.0037   -0.5703    0.4483 C   0  0  0  0  0  0  0  0  0  0  0  0
    7.1338   -1.7916    0.1441 C   0  0  0  0  0  0  0  0  0  0  0  0
    5.8091   -1.3750    0.1710 O   0  0  0  0  0  0  0  0  0  0  0  0
    2.7902   -1.9738   -0.2143 S   0  0  0  0  0  6  0  0  0  0  0  0
    3.8661   -2.9488   -0.6351 O   0  0  0  0  0  0  0  0  0  0  0  0
    1.5042   -2.7301   -0.0511 O   0  0  0  0  0  0  0  0  0  0  0  0
    2.5843   -0.7752   -1.4173 N   0  0  0  0  0  0  0  0  0  0  0  0
    1.5758    0.2051   -1.2728 C   0  0  0  0  0  0  0  0  0  0  0  0
    1.9042    1.5426   -1.5174 C   0  0  0  0  0  0  0  0  0  0  0  0
    0.9630    2.5341   -1.3915 C   0  0  0  0  0  0  0  0  0  0  0  0
   -0.3222    2.2171   -1.0205 C   0  0  0  0  0  0  0  0  0  0  0  0
   -1.1701    3.3227   -0.9328 C   0  0  0  0  0  0  0  0  0  0  0  0
   -2.5287    3.4189   -0.7128 C   0  0  0  0  0  0  0  0  0  0  0  0
   -3.4042    2.3544   -0.6329 C   0  0  0  0  0  0  0  0  0  0  0  0
   -4.7051    2.7271   -0.7099 N   0  0  0  0  0  0  0  0  0  0  0  0
   -5.6987    1.8325   -0.6506 C   0  0  0  0  0  0  0  0  0  0  0  0
   -5.4802    0.4693   -0.5075 C   0  0  0  0  0  0  0  0  0  0  0  0
   -6.6113   -0.4505   -0.4509 C   0  0  0  0  0  0  0  0  0  0  0  0
   -7.8243   -0.2979   -1.0951 C   0  0  0  0  0  0  0  0  0  0  0  0
   -8.5822   -1.3630   -0.7802 N   0  0  0  0  0  0  0  0  0  0  0  0
   -7.9403   -2.1923    0.0235 N   0  0  0  0  0  0  0  0  0  0  0  0
   -8.4492   -3.4580    0.5754 C   0  0  0  0  0  0  0  0  0  0  0  0
   -6.7303   -1.6459    0.2341 C   0  0  0  0  0  0  0  0  0  0  0  0
   -4.1668    0.0538   -0.4258 C   0  0  0  0  0  0  0  0  0  0  0  0
   -3.1695    1.0029   -0.4904 C   0  0  0  0  0  0  0  0  0  0  0  0
   -1.9169    0.4104   -0.3935 C   0  0  0  0  0  0  0  0  0  0  0  0
   -1.9127   -0.7332    0.1058 O   0  0  0  0  0  0  0  0  0  0  0  0
   -0.6780    0.9102   -0.7725 C   0  0  0  0  0  0  0  0  0  0  0  0
    0.2801   -0.0892   -0.9017 C   0  0  0  0  0  0  0  0  0  0  0  0
    1.0780   -1.2384    1.6319 H   0  0  0  0  0  0  0  0  0  0  0  0
    2.1150   -1.6548    3.0761 H   0  0  0  0  0  0  0  0  0  0  0  0
    2.0610    0.0465    2.4396 H   0  0  0  0  0  0  0  0  0  0  0  0
    3.9170    0.5660    2.0401 H   0  0  0  0  0  0  0  0  0  0  0  0
    3.8774    0.2839    0.2150 H   0  0  0  0  0  0  0  0  0  0  0  0
    5.8327   -0.9929    2.2104 H   0  0  0  0  0  0  0  0  0  0  0  0
    5.6585    1.5905    0.7032 H   0  0  0  0  0  0  0  0  0  0  0  0
    6.6966    1.1291    2.0928 H   0  0  0  0  0  0  0  0  0  0  0  0
    8.2221   -0.5821    1.5251 H   0  0  0  0  0  0  0  0  0  0  0  0
    8.9116   -0.6007   -0.1848 H   0  0  0  0  0  0  0  0  0  0  0  0
    7.3643   -2.0889   -0.8970 H   0  0  0  0  0  0  0  0  0  0  0  0
    7.3381   -2.6079    0.8807 H   0  0  0  0  0  0  0  0  0  0  0  0
    3.2119   -0.7702   -2.2666 H   0  0  0  0  0  0  0  0  0  0  0  0
    2.9400    1.7561   -1.8116 H   0  0  0  0  0  0  0  0  0  0  0  0
    1.2001    3.5644   -1.5759 H   0  0  0  0  0  0  0  0  0  0  0  0
   -0.6450    4.2541   -1.0642 H   0  0  0  0  0  0  0  0  0  0  0  0
   -2.9702    4.4003   -0.5891 H   0  0  0  0  0  0  0  0  0  0  0  0
   -6.7461    2.1523   -0.7145 H   0  0  0  0  0  0  0  0  0  0  0  0
   -8.1089    0.5360   -1.7398 H   0  0  0  0  0  0  0  0  0  0  0  0
   -8.9939   -4.0286   -0.1953 H   0  0  0  0  0  0  0  0  0  0  0  0
   -7.5711   -4.0033    0.9866 H   0  0  0  0  0  0  0  0  0  0  0  0
   -9.0982   -3.2149    1.4521 H   0  0  0  0  0  0  0  0  0  0  0  0
   -5.9614   -2.0975    0.8618 H   0  0  0  0  0  0  0  0  0  0  0  0
   -3.9549   -0.9994   -0.3134 H   0  0  0  0  0  0  0  0  0  0  0  0
   -0.0151   -1.1115   -0.7045 H   0  0  0  0  0  0  0  0  0  0  0  0
  1  2  1  0
  2  3  1  0
  3  4  1  0
  4  5  1  0
  5  6  1  0
  6  7  1  0
  7  8  1  0
  8  9  1  0
  2 10  1  0
 10 11  2  0
 10 12  2  0
 10 13  1  0
 13 14  1  0
 14 15  2  0
 15 16  1  0
 16 17  2  0
 17 18  1  0
 18 19  2  0
 19 20  1  0
 20 21  2  0
 21 22  1  0
 22 23  2  0
 23 24  1  0
 24 25  1  0
 25 26  2  0
 26 27  1  0
 27 28  1  0
 27 29  1  0
 23 30  1  0
 30 31  2  0
 31 32  1  0
 32 33  2  0
 32 34  1  0
 34 35  2  0
  9  4  1  0
 35 14  1  0
 34 17  1  0
 31 20  1  0
 29 24  2  0
  1 36  1  0
  1 37  1  0
  1 38  1  0
  3 39  1  0
  3 40  1  0
  4 41  1  1
  5 42  1  0
  5 43  1  0
  7 44  1  0
  7 45  1  0
  8 46  1  0
  8 47  1  0
 13 48  1  0
 15 49  1  0
 16 50  1  0
 18 51  1  0
 19 52  1  0
 22 53  1  0
 25 54  1  0
 28 55  1  0
 28 56  1  0
 28 57  1  0
 29 58  1  0
 30 59  1  0
 35 60  1  0
M  END
$$$$
