
     RDKit          3D

 36 38  0  0  0  0  0  0  0  0999 V2000
    3.4336   -0.1725    1.2642 C   0  0  0  0  0  0  0  0  0  0  0  0
    3.0776   -0.4128   -0.1252 N   0  0  0  0  0  0  0  0  0  0  0  0
    3.9529   -0.9238   -1.0231 C   0  0  0  0  0  0  0  0  0  0  0  0
    3.3955   -1.0636   -2.2724 C   0  0  0  0  0  0  0  0  0  0  0  0
    2.0924   -0.6028   -2.1094 C   0  0  0  0  0  0  0  0  0  0  0  0
    1.9023   -0.2033   -0.7851 C   0  0  0  0  0  0  0  0  0  0  0  0
    0.7225    0.3444   -0.1266 C   0  0  0  0  0  0  0  0  0  0  0  0
    0.9391    1.4325    0.6936 C   0  0  0  0  0  0  0  0  0  0  0  0
   -0.1364    1.9881    1.3384 C   0  0  0  0  0  0  0  0  0  0  0  0
   -1.3871    1.4815    1.1755 C   0  0  0  0  0  0  0  0  0  0  0  0
   -2.5546    1.9903    1.8008 N   0  0  0  0  0  0  0  0  0  0  0  0
   -3.7792    1.3358    1.5159 C   0  0  0  0  0  0  0  0  0  0  0  0
   -5.1160    1.9441    2.2521 S   0  0  0  0  0  0  0  0  0  0  0  0
   -3.9765    0.2491    0.6931 O   0  0  0  0  0  0  0  0  0  0  0  0
   -2.8902   -0.3354    0.0233 C   0  0  0  0  0  0  0  0  0  0  0  0
   -3.1385   -0.1187   -1.4709 C   0  0  0  0  0  0  0  0  0  0  0  0
   -2.7697   -1.8130    0.3285 C   0  0  0  0  0  0  0  0  0  0  0  0
   -1.6557    0.3982    0.3690 C   0  0  0  0  0  0  0  0  0  0  0  0
   -0.5638   -0.1738   -0.2919 C   0  0  0  0  0  0  0  0  0  0  0  0
    5.3249   -1.2951   -0.7489 C   0  0  0  0  0  0  0  0  0  0  0  0
    6.4294   -1.5806   -0.5185 N   0  0  0  0  0  0  0  0  0  0  0  0
    2.5093   -0.1791    1.8998 H   0  0  0  0  0  0  0  0  0  0  0  0
    3.9604    0.7789    1.3260 H   0  0  0  0  0  0  0  0  0  0  0  0
    4.0811   -1.0403    1.5833 H   0  0  0  0  0  0  0  0  0  0  0  0
    3.8701   -1.4441   -3.1644 H   0  0  0  0  0  0  0  0  0  0  0  0
    1.3368   -0.5518   -2.8614 H   0  0  0  0  0  0  0  0  0  0  0  0
    1.8887    1.9107    0.8913 H   0  0  0  0  0  0  0  0  0  0  0  0
   -0.0632    2.8470    2.0045 H   0  0  0  0  0  0  0  0  0  0  0  0
   -2.4921    2.8022    2.4317 H   0  0  0  0  0  0  0  0  0  0  0  0
   -2.5800    0.7696   -1.8337 H   0  0  0  0  0  0  0  0  0  0  0  0
   -4.1982    0.0908   -1.6678 H   0  0  0  0  0  0  0  0  0  0  0  0
   -2.8356   -0.9957   -2.0657 H   0  0  0  0  0  0  0  0  0  0  0  0
   -2.4129   -2.3246   -0.5892 H   0  0  0  0  0  0  0  0  0  0  0  0
   -2.0524   -1.9071    1.1570 H   0  0  0  0  0  0  0  0  0  0  0  0
   -3.7511   -2.1949    0.6634 H   0  0  0  0  0  0  0  0  0  0  0  0
   -0.5632   -1.0305   -0.9703 H   0  0  0  0  0  0  0  0  0  0  0  0
  1  2  1  0
  2  3  1  0
  3  4  2  0
  4  5  1  0
  5  6  2  0
  6  7  1  0
  7  8  2  0
  8  9  1  0
  9 10  2  0
 10 11  1  0
 11 12  1  0
 12 13  2  0
 12 14  1  0
 14 15  1  0
 15 16  1  0
 15 17  1  0
 15 18  1  0
 18 19  2  0
  3 20  1  0
 20 21  3  0
  6  2  1  0
 19  7  1  0
 18 10  1  0
  1 22  1  0
  1 23  1  0
  1 24  1  0
  4 25  1  0
  5 26  1  0
  8 27  1  0
  9 28  1  0
 11 29  1  0
 16 30  1  0
 16 31  1  0
 16 32  1  0
 17 33  1  0
 17 34  1  0
 17 35  1  0
 19 36  1  0
M  END
$$$$
