
     RDKit          3D

 44 47  0  0  0  0  0  0  0  0999 V2000
   -2.4284    2.2450    0.8115 N   0  0  0  0  0  0  0  0  0  0  0  0
   -1.7017    1.6307   -0.2623 C   0  0  0  0  0  0  0  0  0  0  0  0
   -1.5052    0.1413   -0.1069 C   0  0  0  0  0  0  0  0  0  0  0  0
   -0.7229   -0.3953   -1.2878 C   0  0  0  0  0  0  0  0  0  0  0  0
    0.6700    0.1824   -1.3402 C   0  0  0  0  0  0  0  0  0  0  0  0
    1.3487    0.0448   -0.0620 N   0  0  0  0  0  0  0  0  0  0  0  0
    0.6175   -0.7037    0.9426 C   0  0  0  0  0  0  0  0  0  0  0  0
   -0.7588   -0.0976    1.1812 C   0  0  0  0  0  0  0  0  0  0  0  0
    2.6214    0.5580    0.2893 C   0  0  0  0  0  0  0  0  0  0  0  0
    3.8593    0.2940   -0.2580 C   0  0  0  0  0  0  0  0  0  0  0  0
    4.1108   -0.5612   -1.2973 C   0  0  0  0  0  0  0  0  0  0  0  0
    5.4892   -0.4871   -1.4788 C   0  0  0  0  0  0  0  0  0  0  0  0
    5.9896    0.3844   -0.5663 N   0  0  0  0  0  0  0  0  0  0  0  0
    4.9954    0.8948    0.2178 C   0  0  0  0  0  0  0  0  0  0  0  0
    4.9121    1.7547    1.2318 N   0  0  0  0  0  0  0  0  0  0  0  0
    3.7013    2.0306    1.7877 C   0  0  0  0  0  0  0  0  0  0  0  0
    2.5681    1.4436    1.3273 N   0  0  0  0  0  0  0  0  0  0  0  0
   -2.8518   -0.5074   -0.0259 C   0  0  0  0  0  0  0  0  0  0  0  0
   -4.1352   -0.0074   -0.1097 C   0  0  0  0  0  0  0  0  0  0  0  0
   -5.1909   -0.8841    0.0134 C   0  0  0  0  0  0  0  0  0  0  0  0
   -5.0570   -2.2409    0.2162 C   0  0  0  0  0  0  0  0  0  0  0  0
   -6.4778   -3.2565    0.3573 Cl  0  0  0  0  0  0  0  0  0  0  0  0
   -3.7697   -2.7340    0.2988 C   0  0  0  0  0  0  0  0  0  0  0  0
   -2.6650   -1.8807    0.1797 C   0  0  0  0  0  0  0  0  0  0  0  0
   -1.8203    2.5313    1.6034 H   0  0  0  0  0  0  0  0  0  0  0  0
   -2.9561    3.0853    0.4838 H   0  0  0  0  0  0  0  0  0  0  0  0
   -0.6732    2.0993   -0.2240 H   0  0  0  0  0  0  0  0  0  0  0  0
   -2.1396    1.9033   -1.2459 H   0  0  0  0  0  0  0  0  0  0  0  0
   -0.6903   -1.4802   -1.3291 H   0  0  0  0  0  0  0  0  0  0  0  0
   -1.2512   -0.0503   -2.2086 H   0  0  0  0  0  0  0  0  0  0  0  0
    1.2133   -0.3307   -2.1327 H   0  0  0  0  0  0  0  0  0  0  0  0
    0.5990    1.2802   -1.5895 H   0  0  0  0  0  0  0  0  0  0  0  0
    0.5507   -1.7663    0.6646 H   0  0  0  0  0  0  0  0  0  0  0  0
    1.1134   -0.6872    1.9409 H   0  0  0  0  0  0  0  0  0  0  0  0
   -0.6222    0.8452    1.7462 H   0  0  0  0  0  0  0  0  0  0  0  0
   -1.3136   -0.8615    1.7586 H   0  0  0  0  0  0  0  0  0  0  0  0
    3.4334   -1.1656   -1.8653 H   0  0  0  0  0  0  0  0  0  0  0  0
    6.0691   -1.0275   -2.2179 H   0  0  0  0  0  0  0  0  0  0  0  0
    7.0121    0.6453   -0.4625 H   0  0  0  0  0  0  0  0  0  0  0  0
    3.6037    2.7360    2.6254 H   0  0  0  0  0  0  0  0  0  0  0  0
   -4.1301    1.0393   -0.2683 H   0  0  0  0  0  0  0  0  0  0  0  0
   -6.1699   -0.4036   -0.0655 H   0  0  0  0  0  0  0  0  0  0  0  0
   -3.7042   -3.8020    0.4581 H   0  0  0  0  0  0  0  0  0  0  0  0
   -1.7431   -2.4388    0.2689 H   0  0  0  0  0  0  0  0  0  0  0  0
  1  2  1  0
  2  3  1  0
  3  4  1  0
  4  5  1  0
  5  6  1  0
  6  7  1  0
  7  8  1  0
  6  9  1  0
  9 10  2  0
 10 11  1  0
 11 12  2  0
 12 13  1  0
 13 14  1  0
 14 15  2  0
 15 16  1  0
 16 17  2  0
  3 18  1  0
 18 19  2  0
 19 20  1  0
 20 21  2  0
 21 22  1  0
 21 23  1  0
 23 24  2  0
  8  3  1  0
 17  9  1  0
 24 18  1  0
 14 10  1  0
  1 25  1  0
  1 26  1  0
  2 27  1  0
  2 28  1  0
  4 29  1  0
  4 30  1  0
  5 31  1  0
  5 32  1  0
  7 33  1  0
  7 34  1  0
  8 35  1  0
  8 36  1  0
 11 37  1  0
 12 38  1  0
 13 39  1  0
 16 40  1  0
 19 41  1  0
 20 42  1  0
 23 43  1  0
 24 44  1  0
M  END
$$$$
