
     RDKit          3D

 64 69  0  0  0  0  0  0  0  0999 V2000
    5.7899    0.3736    0.1930 O   0  0  0  0  0  0  0  0  0  0  0  0
    5.8269   -0.8547    0.3470 C   0  0  0  0  0  0  0  0  0  0  0  0
    7.1404   -1.4181    0.4791 N   0  0  0  0  0  0  0  0  0  0  0  0
    8.3213   -0.6330    0.4380 C   0  0  0  0  0  0  0  0  0  0  0  0
    8.8004   -0.1249    1.6404 C   0  0  0  0  0  0  0  0  0  0  0  0
    9.9325    0.6475    1.7280 C   0  0  0  0  0  0  0  0  0  0  0  0
   10.5926    0.9116    0.5819 N   0  0  0  0  0  0  0  0  0  0  0  0
   10.1509    0.4321   -0.5977 C   0  0  0  0  0  0  0  0  0  0  0  0
    9.0080   -0.3501   -0.7018 C   0  0  0  0  0  0  0  0  0  0  0  0
    4.6630   -1.6184    0.3865 N   0  0  0  0  0  0  0  0  0  0  0  0
    3.3399   -1.1326    0.2637 C   0  0  0  0  0  0  0  0  0  0  0  0
    2.9849    0.1680    0.0837 C   0  0  0  0  0  0  0  0  0  0  0  0
    1.6548    0.5711   -0.0284 C   0  0  0  0  0  0  0  0  0  0  0  0
    0.6295   -0.3416    0.0392 C   0  0  0  0  0  0  0  0  0  0  0  0
   -0.7682    0.0103   -0.0696 C   0  0  0  0  0  0  0  0  0  0  0  0
   -1.1408    1.2902   -0.2476 N   0  0  0  0  0  0  0  0  0  0  0  0
   -2.4475    1.6457   -0.3526 C   0  0  0  0  0  0  0  0  0  0  0  0
   -2.8618    2.9765   -0.5390 N   0  0  0  0  0  0  0  0  0  0  0  0
   -1.8842    4.0244   -0.6232 C   0  0  0  0  0  0  0  0  0  0  0  0
   -2.2666    5.0896    0.3828 C   0  0  0  0  0  0  0  0  0  0  0  0
   -3.6172    5.3311    0.4284 O   0  0  0  0  0  0  0  0  0  0  0  0
   -4.3404    4.8247   -0.6397 C   0  0  0  0  0  0  0  0  0  0  0  0
   -4.2568    3.2923   -0.6458 C   0  0  0  0  0  0  0  0  0  0  0  0
   -3.3536    0.6517   -0.2694 N   0  0  0  0  0  0  0  0  0  0  0  0
   -3.0239   -0.6315   -0.0929 C   0  0  0  0  0  0  0  0  0  0  0  0
   -4.0518   -1.6164   -0.0163 N   0  0  0  0  0  0  0  0  0  0  0  0
   -3.9147   -3.0487    0.1657 C   0  0  0  0  0  0  0  0  0  0  0  0
   -4.9947   -3.2994    1.2255 C   0  0  0  0  0  0  0  0  0  0  0  0
   -5.9777   -2.1739    1.1007 C   0  0  0  0  0  0  0  0  0  0  0  0
   -5.4786   -1.3805   -0.1069 C   0  0  0  0  0  0  0  0  0  0  0  0
   -5.9986   -2.1097   -1.3316 C   0  0  0  0  0  0  0  0  0  0  0  0
   -5.0231   -2.8507   -1.9645 O   0  0  0  0  0  0  0  0  0  0  0  0
   -4.3200   -3.6956   -1.1413 C   0  0  0  0  0  0  0  0  0  0  0  0
   -1.7262   -0.9295    0.0044 N   0  0  0  0  0  0  0  0  0  0  0  0
    0.9789   -1.6592    0.2211 C   0  0  0  0  0  0  0  0  0  0  0  0
    2.2891   -2.0616    0.3322 C   0  0  0  0  0  0  0  0  0  0  0  0
    7.1886   -2.4515    0.6095 H   0  0  0  0  0  0  0  0  0  0  0  0
    8.2605   -0.3452    2.5505 H   0  0  0  0  0  0  0  0  0  0  0  0
   10.2716    1.0247    2.6917 H   0  0  0  0  0  0  0  0  0  0  0  0
   10.7078    0.6673   -1.4849 H   0  0  0  0  0  0  0  0  0  0  0  0
    8.6522   -0.7330   -1.6311 H   0  0  0  0  0  0  0  0  0  0  0  0
    4.8012   -2.6690    0.5230 H   0  0  0  0  0  0  0  0  0  0  0  0
    3.7055    0.9575    0.0174 H   0  0  0  0  0  0  0  0  0  0  0  0
    1.4048    1.6178   -0.1717 H   0  0  0  0  0  0  0  0  0  0  0  0
   -1.8398    4.4367   -1.6520 H   0  0  0  0  0  0  0  0  0  0  0  0
   -0.8576    3.6759   -0.3905 H   0  0  0  0  0  0  0  0  0  0  0  0
   -1.9601    4.6744    1.3865 H   0  0  0  0  0  0  0  0  0  0  0  0
   -1.6676    6.0164    0.2675 H   0  0  0  0  0  0  0  0  0  0  0  0
   -3.9859    5.2215   -1.6198 H   0  0  0  0  0  0  0  0  0  0  0  0
   -5.3863    5.1424   -0.5190 H   0  0  0  0  0  0  0  0  0  0  0  0
   -4.6892    2.9645   -1.6130 H   0  0  0  0  0  0  0  0  0  0  0  0
   -4.8368    2.9405    0.2191 H   0  0  0  0  0  0  0  0  0  0  0  0
   -2.9352   -3.3586    0.5284 H   0  0  0  0  0  0  0  0  0  0  0  0
   -4.5026   -3.2686    2.2171 H   0  0  0  0  0  0  0  0  0  0  0  0
   -5.4947   -4.2669    1.0788 H   0  0  0  0  0  0  0  0  0  0  0  0
   -7.0043   -2.5309    0.8782 H   0  0  0  0  0  0  0  0  0  0  0  0
   -6.0199   -1.5333    2.0041 H   0  0  0  0  0  0  0  0  0  0  0  0
   -5.7623   -0.3314   -0.0695 H   0  0  0  0  0  0  0  0  0  0  0  0
   -6.9118   -2.6971   -1.0911 H   0  0  0  0  0  0  0  0  0  0  0  0
   -6.3329   -1.3138   -2.0444 H   0  0  0  0  0  0  0  0  0  0  0  0
   -4.8562   -4.6256   -0.8847 H   0  0  0  0  0  0  0  0  0  0  0  0
   -3.3835   -3.9935   -1.6587 H   0  0  0  0  0  0  0  0  0  0  0  0
    0.2241   -2.4328    0.2837 H   0  0  0  0  0  0  0  0  0  0  0  0
    2.5540   -3.0987    0.4748 H   0  0  0  0  0  0  0  0  0  0  0  0
  1  2  2  0
  2  3  1  0
  3  4  1  0
  4  5  2  0
  5  6  1  0
  6  7  2  0
  7  8  1  0
  8  9  2  0
  2 10  1  0
 10 11  1  0
 11 12  2  0
 12 13  1  0
 13 14  2  0
 14 15  1  0
 15 16  2  0
 16 17  1  0
 17 18  1  0
 18 19  1  0
 19 20  1  0
 20 21  1  0
 21 22  1  0
 22 23  1  0
 17 24  2  0
 24 25  1  0
 25 26  1  0
 26 27  1  0
 27 28  1  0
 28 29  1  0
 29 30  1  0
 30 31  1  0
 31 32  1  0
 32 33  1  0
 25 34  2  0
 14 35  1  0
 35 36  2  0
  9  4  1  0
 36 11  1  0
 34 15  1  0
 23 18  1  0
 30 26  1  0
 33 27  1  0
  3 37  1  0
  5 38  1  0
  6 39  1  0
  8 40  1  0
  9 41  1  0
 10 42  1  0
 12 43  1  0
 13 44  1  0
 19 45  1  0
 19 46  1  0
 20 47  1  0
 20 48  1  0
 22 49  1  0
 22 50  1  0
 23 51  1  0
 23 52  1  0
 27 53  1  0
 28 54  1  0
 28 55  1  0
 29 56  1  0
 29 57  1  0
 30 58  1  0
 31 59  1  0
 31 60  1  0
 33 61  1  0
 33 62  1  0
 35 63  1  0
 36 64  1  0
M  END
$$$$
