
     RDKit          3D

 50 52  0  0  0  0  0  0  0  0999 V2000
   10.1689   -3.0501   -0.9017 N   0  0  0  0  0  0  0  0  0  0  0  0
    8.9589   -2.8921   -0.9922 C   0  0  0  0  0  0  0  0  0  0  0  0
    7.5421   -2.7074   -1.1080 C   0  0  0  0  0  0  0  0  0  0  0  0
    6.9482   -2.0532   -2.1724 C   0  0  0  0  0  0  0  0  0  0  0  0
    5.6158   -1.7937   -2.2495 C   0  0  0  0  0  0  0  0  0  0  0  0
    4.7956   -2.2090   -1.1787 C   0  0  0  0  0  0  0  0  0  0  0  0
    3.3801   -1.8583   -1.1906 C   0  0  0  0  0  0  0  0  0  0  0  0
    2.3721   -2.5894   -0.6245 C   0  0  0  0  0  0  0  0  0  0  0  0
    1.0179   -2.2289   -0.6116 C   0  0  0  0  0  0  0  0  0  0  0  0
    0.7103   -1.0088   -1.2455 C   0  0  0  0  0  0  0  0  0  0  0  0
   -0.7066   -0.5278   -1.2852 C   0  0  0  0  0  0  0  0  0  0  0  0
   -0.9595    0.2126   -0.0397 C   0  0  1  0  0  0  0  0  0  0  0  0
   -0.0493    1.3710    0.1105 C   0  0  0  0  0  0  0  0  0  0  0  0
    0.6768    2.3181    0.2179 N   0  0  0  0  0  0  0  0  0  0  0  0
   -2.3058    0.7659   -0.0294 N   0  0  0  0  0  0  0  0  0  0  0  0
   -2.9236    1.0580    1.2602 C   0  0  0  0  0  0  0  0  0  0  0  0
   -2.2644    0.8000    2.2839 O   0  0  0  0  0  0  0  0  0  0  0  0
   -4.2802    1.6321    1.2221 C   0  0  0  0  0  0  0  0  0  0  0  0
   -4.9257    1.5875   -0.0524 N   0  0  0  0  0  0  0  0  0  0  0  0
   -4.0873    3.1336    1.5929 C   0  0  0  0  0  0  0  0  0  0  0  0
   -5.4474    3.7584    1.4134 C   0  0  0  0  0  0  0  0  0  0  0  0
   -6.3771    3.2070    2.2491 O   0  0  0  0  0  0  0  0  0  0  0  0
   -5.9045    2.1979    3.0557 C   0  0  0  0  0  0  0  0  0  0  0  0
   -5.2136    1.0923    2.2747 C   0  0  0  0  0  0  0  0  0  0  0  0
    1.6759   -0.2773   -1.8036 C   0  0  0  0  0  0  0  0  0  0  0  0
    2.9925   -0.6636   -1.7978 C   0  0  0  0  0  0  0  0  0  0  0  0
    5.3346   -2.8525   -0.1314 C   0  0  0  0  0  0  0  0  0  0  0  0
    6.6774   -3.0928   -0.1026 C   0  0  0  0  0  0  0  0  0  0  0  0
    7.5636   -1.7227   -3.0107 H   0  0  0  0  0  0  0  0  0  0  0  0
    5.1524   -1.2855   -3.0667 H   0  0  0  0  0  0  0  0  0  0  0  0
    2.6461   -3.5194   -0.1430 H   0  0  0  0  0  0  0  0  0  0  0  0
    0.2633   -2.8385   -0.1362 H   0  0  0  0  0  0  0  0  0  0  0  0
   -1.4028   -1.3905   -1.4355 H   0  0  0  0  0  0  0  0  0  0  0  0
   -0.7955    0.1052   -2.2005 H   0  0  0  0  0  0  0  0  0  0  0  0
   -0.7858   -0.4702    0.8551 H   0  0  0  0  0  0  0  0  0  0  0  0
   -2.7837    0.9293   -0.9190 H   0  0  0  0  0  0  0  0  0  0  0  0
   -4.3852    2.0307   -0.8189 H   0  0  0  0  0  0  0  0  0  0  0  0
   -5.2799    0.6256   -0.2675 H   0  0  0  0  0  0  0  0  0  0  0  0
   -3.3435    3.5959    0.9148 H   0  0  0  0  0  0  0  0  0  0  0  0
   -3.6930    3.1909    2.6094 H   0  0  0  0  0  0  0  0  0  0  0  0
   -5.7103    3.5684    0.3261 H   0  0  0  0  0  0  0  0  0  0  0  0
   -5.2873    4.8651    1.5812 H   0  0  0  0  0  0  0  0  0  0  0  0
   -6.7734    1.7420    3.5828 H   0  0  0  0  0  0  0  0  0  0  0  0
   -5.2304    2.5477    3.8754 H   0  0  0  0  0  0  0  0  0  0  0  0
   -5.9973    0.4427    1.7805 H   0  0  0  0  0  0  0  0  0  0  0  0
   -4.6864    0.4716    2.9983 H   0  0  0  0  0  0  0  0  0  0  0  0
    1.4565    0.6778   -2.3055 H   0  0  0  0  0  0  0  0  0  0  0  0
    3.7693   -0.0736   -2.2566 H   0  0  0  0  0  0  0  0  0  0  0  0
    4.7121   -3.1937    0.7238 H   0  0  0  0  0  0  0  0  0  0  0  0
    7.1694   -3.6282    0.7294 H   0  0  0  0  0  0  0  0  0  0  0  0
  1  2  3  0
  2  3  1  0
  3  4  2  0
  4  5  1  0
  5  6  2  0
  6  7  1  0
  7  8  2  0
  8  9  1  0
  9 10  2  0
 10 11  1  0
 11 12  1  0
 12 13  1  0
 13 14  3  0
 12 15  1  0
 15 16  1  0
 16 17  2  0
 16 18  1  0
 18 19  1  0
 18 20  1  0
 20 21  1  0
 21 22  1  0
 22 23  1  0
 23 24  1  0
 10 25  1  0
 25 26  2  0
  6 27  1  0
 27 28  2  0
 28  3  1  0
 26  7  1  0
 24 18  1  0
  4 29  1  0
  5 30  1  0
  8 31  1  0
  9 32  1  0
 11 33  1  0
 11 34  1  0
 12 35  1  1
 15 36  1  0
 19 37  1  0
 19 38  1  0
 20 39  1  0
 20 40  1  0
 21 41  1  0
 21 42  1  0
 23 43  1  0
 23 44  1  0
 24 45  1  0
 24 46  1  0
 25 47  1  0
 26 48  1  0
 27 49  1  0
 28 50  1  0
M  END
$$$$
