
     RDKit          3D

 23 23  0  0  0  0  0  0  0  0999 V2000
    2.9732   -0.5828    0.9233 O   0  0  0  0  0  0  0  0  0  0  0  0
    1.9982    0.4076    0.7995 C   0  0  0  0  0  0  0  0  0  0  0  0
    0.8536   -0.1012   -0.0865 C   0  0  1  0  0  0  0  0  0  0  0  0
    0.2818   -1.3026    0.5600 C   0  0  0  0  0  0  0  0  0  0  0  0
   -0.9745   -1.7407    0.0932 N   0  0  0  0  0  0  0  0  0  0  0  0
   -1.6670   -0.8550   -0.7863 C   0  0  0  0  0  0  0  0  0  0  0  0
   -1.5381    0.5814   -0.3387 C   0  0  1  0  0  0  0  0  0  0  0  0
   -1.9985    0.6797    0.9530 O   0  0  0  0  0  0  0  0  0  0  0  0
   -0.1061    0.9918   -0.3891 C   0  0  2  0  0  0  0  0  0  0  0  0
    0.1598    1.5071   -1.6785 O   0  0  0  0  0  0  0  0  0  0  0  0
    3.4035   -0.6468    0.0233 H   0  0  0  0  0  0  0  0  0  0  0  0
    2.4677    1.2818    0.3241 H   0  0  0  0  0  0  0  0  0  0  0  0
    1.6414    0.6637    1.8083 H   0  0  0  0  0  0  0  0  0  0  0  0
    1.3594   -0.4286   -1.0368 H   0  0  0  0  0  0  0  0  0  0  0  0
    1.0184   -2.1479    0.4193 H   0  0  0  0  0  0  0  0  0  0  0  0
    0.2510   -1.1291    1.6605 H   0  0  0  0  0  0  0  0  0  0  0  0
   -1.5501   -2.2308    0.7840 H   0  0  0  0  0  0  0  0  0  0  0  0
   -2.7494   -1.0952   -0.8060 H   0  0  0  0  0  0  0  0  0  0  0  0
   -1.2763   -0.9499   -1.8332 H   0  0  0  0  0  0  0  0  0  0  0  0
   -2.1052    1.2138   -1.0552 H   0  0  0  0  0  0  0  0  0  0  0  0
   -2.2773    1.6268    1.1272 H   0  0  0  0  0  0  0  0  0  0  0  0
    0.0601    1.8589    0.3150 H   0  0  0  0  0  0  0  0  0  0  0  0
   -0.2255    2.3980   -1.7804 H   0  0  0  0  0  0  0  0  0  0  0  0
  1  2  1  0
  2  3  1  0
  3  4  1  0
  4  5  1  0
  5  6  1  0
  6  7  1  0
  7  8  1  0
  7  9  1  0
  9 10  1  0
  9  3  1  0
  1 11  1  0
  2 12  1  0
  2 13  1  0
  3 14  1  6
  4 15  1  0
  4 16  1  0
  5 17  1  0
  6 18  1  0
  6 19  1  0
  7 20  1  6
  8 21  1  0
  9 22  1  1
 10 23  1  0
M  END
$$$$
