
     RDKit          3D

 74 78  0  0  0  0  0  0  0  0999 V2000
   -9.8549    1.2295    0.7823 C   0  0  0  0  0  0  0  0  0  0  0  0
   -8.7166    0.2858    0.7491 C   0  0  0  0  0  0  0  0  0  0  0  0
   -8.8245   -1.0119    1.1967 C   0  0  0  0  0  0  0  0  0  0  0  0
   -7.7496   -1.8490    1.1505 C   0  0  0  0  0  0  0  0  0  0  0  0
   -6.5433   -1.4346    0.6646 C   0  0  0  0  0  0  0  0  0  0  0  0
   -6.3891   -0.1330    0.2021 C   0  0  0  0  0  0  0  0  0  0  0  0
   -5.1233    0.2819   -0.3033 N   0  0  0  0  0  0  0  0  0  0  0  0
   -4.4341    1.3534    0.3402 C   0  0  0  0  0  0  0  0  0  0  0  0
   -2.9432    1.1258    0.4016 C   0  0  0  0  0  0  0  0  0  0  0  0
   -2.4823    0.0125   -0.3505 N   0  0  0  0  0  0  0  0  0  0  0  0
   -1.7562   -0.9436    0.3128 C   0  0  0  0  0  0  0  0  0  0  0  0
   -1.3045   -2.1500   -0.4499 C   0  0  0  0  0  0  0  0  0  0  0  0
   -0.5041   -3.0708    0.4485 C   0  0  0  0  0  0  0  0  0  0  0  0
    0.6652   -2.3391    0.9388 N   0  0  0  0  0  0  0  0  0  0  0  0
    1.6636   -1.8092    0.0826 C   0  0  0  0  0  0  0  0  0  0  0  0
    1.5267   -1.9903   -1.1585 O   0  0  0  0  0  0  0  0  0  0  0  0
    2.8297   -1.0686    0.5939 C   0  0  0  0  0  0  0  0  0  0  0  0
    3.1554   -0.7704    1.8586 N   0  0  0  0  0  0  0  0  0  0  0  0
    4.3119   -0.0677    1.8881 C   0  0  0  0  0  0  0  0  0  0  0  0
    5.0292    0.4630    3.0896 C   0  0  0  0  0  0  0  0  0  0  0  0
    4.7186    0.0762    0.6133 N   0  0  0  0  0  0  0  0  0  0  0  0
    5.8938    0.7590    0.2121 C   0  0  0  0  0  0  0  0  0  0  0  0
    5.9608    2.1216    0.3821 C   0  0  0  0  0  0  0  0  0  0  0  0
    7.1099    2.8161   -0.0118 C   0  0  0  0  0  0  0  0  0  0  0  0
    8.1869    2.1617   -0.5716 C   0  0  0  0  0  0  0  0  0  0  0  0
    8.0977    0.7959   -0.7323 C   0  0  0  0  0  0  0  0  0  0  0  0
    6.9552    0.0830   -0.3439 C   0  0  0  0  0  0  0  0  0  0  0  0
    9.1782    0.1297   -1.2954 O   0  0  0  0  0  0  0  0  0  0  0  0
   10.0241    0.8835   -2.1526 C   0  0  0  0  0  0  0  0  0  0  0  0
   10.4853    2.1114   -1.4105 C   0  0  0  0  0  0  0  0  0  0  0  0
    9.3435    2.8209   -0.9741 O   0  0  0  0  0  0  0  0  0  0  0  0
    3.8225   -0.5310   -0.1924 C   0  0  0  0  0  0  0  0  0  0  0  0
    3.8779   -0.6175   -1.6635 C   0  0  0  0  0  0  0  0  0  0  0  0
   -3.1399   -0.1581   -1.5581 C   0  0  0  0  0  0  0  0  0  0  0  0
   -4.6272   -0.4356   -1.4575 C   0  0  0  0  0  0  0  0  0  0  0  0
   -7.4788    0.6954    0.2555 C   0  0  0  0  0  0  0  0  0  0  0  0
   -7.3595    2.0919   -0.2291 C   0  0  0  0  0  0  0  0  0  0  0  0
   -9.6792    2.0828    1.4772 H   0  0  0  0  0  0  0  0  0  0  0  0
  -10.7381    0.6727    1.2086 H   0  0  0  0  0  0  0  0  0  0  0  0
  -10.1633    1.5430   -0.2270 H   0  0  0  0  0  0  0  0  0  0  0  0
   -9.7625   -1.3547    1.5815 H   0  0  0  0  0  0  0  0  0  0  0  0
   -7.8673   -2.8651    1.5110 H   0  0  0  0  0  0  0  0  0  0  0  0
   -5.7021   -2.0831    0.6272 H   0  0  0  0  0  0  0  0  0  0  0  0
   -4.8653    1.5205    1.3607 H   0  0  0  0  0  0  0  0  0  0  0  0
   -4.6230    2.2951   -0.2099 H   0  0  0  0  0  0  0  0  0  0  0  0
   -2.4466    2.0467   -0.0106 H   0  0  0  0  0  0  0  0  0  0  0  0
   -2.6483    1.0923    1.4766 H   0  0  0  0  0  0  0  0  0  0  0  0
   -2.2909   -1.3355    1.2285 H   0  0  0  0  0  0  0  0  0  0  0  0
   -0.8184   -0.4792    0.7444 H   0  0  0  0  0  0  0  0  0  0  0  0
   -0.7547   -1.9783   -1.3601 H   0  0  0  0  0  0  0  0  0  0  0  0
   -2.2117   -2.7650   -0.7404 H   0  0  0  0  0  0  0  0  0  0  0  0
   -0.1213   -3.9070   -0.1760 H   0  0  0  0  0  0  0  0  0  0  0  0
   -1.1071   -3.4183    1.2982 H   0  0  0  0  0  0  0  0  0  0  0  0
    0.7966   -2.1834    1.9720 H   0  0  0  0  0  0  0  0  0  0  0  0
    5.0270    1.5682    3.0535 H   0  0  0  0  0  0  0  0  0  0  0  0
    6.0601    0.0451    3.0702 H   0  0  0  0  0  0  0  0  0  0  0  0
    4.4783    0.0860    3.9814 H   0  0  0  0  0  0  0  0  0  0  0  0
    5.1569    2.6857    0.8106 H   0  0  0  0  0  0  0  0  0  0  0  0
    7.1983    3.8912    0.1079 H   0  0  0  0  0  0  0  0  0  0  0  0
    6.9039   -0.9973   -0.4794 H   0  0  0  0  0  0  0  0  0  0  0  0
   10.9168    0.3200   -2.4766 H   0  0  0  0  0  0  0  0  0  0  0  0
    9.4675    1.2315   -3.0634 H   0  0  0  0  0  0  0  0  0  0  0  0
   11.0903    2.7077   -2.1267 H   0  0  0  0  0  0  0  0  0  0  0  0
   11.1479    1.8290   -0.5744 H   0  0  0  0  0  0  0  0  0  0  0  0
    3.7202   -1.6761   -1.9480 H   0  0  0  0  0  0  0  0  0  0  0  0
    3.1106    0.0353   -2.1312 H   0  0  0  0  0  0  0  0  0  0  0  0
    4.8667   -0.2368   -2.0314 H   0  0  0  0  0  0  0  0  0  0  0  0
   -3.0647    0.8221   -2.1290 H   0  0  0  0  0  0  0  0  0  0  0  0
   -2.6605   -0.8884   -2.2713 H   0  0  0  0  0  0  0  0  0  0  0  0
   -5.0905   -0.0877   -2.4038 H   0  0  0  0  0  0  0  0  0  0  0  0
   -4.8791   -1.5057   -1.3504 H   0  0  0  0  0  0  0  0  0  0  0  0
   -8.3834    2.5040   -0.4672 H   0  0  0  0  0  0  0  0  0  0  0  0
   -6.8658    2.7168    0.5361 H   0  0  0  0  0  0  0  0  0  0  0  0
   -6.8021    2.1811   -1.1767 H   0  0  0  0  0  0  0  0  0  0  0  0
  1  2  1  0
  2  3  2  0
  3  4  1  0
  4  5  2  0
  5  6  1  0
  6  7  1  0
  7  8  1  0
  8  9  1  0
  9 10  1  0
 10 11  1  0
 11 12  1  0
 12 13  1  0
 13 14  1  0
 14 15  1  0
 15 16  2  0
 15 17  1  0
 17 18  1  0
 18 19  2  0
 19 20  1  0
 19 21  1  0
 21 22  1  0
 22 23  2  0
 23 24  1  0
 24 25  2  0
 25 26  1  0
 26 27  2  0
 26 28  1  0
 28 29  1  0
 29 30  1  0
 30 31  1  0
 21 32  1  0
 32 33  1  0
 10 34  1  0
 34 35  1  0
  6 36  2  0
 36 37  1  0
 36  2  1  0
 35  7  1  0
 32 17  2  0
 27 22  1  0
 31 25  1  0
  1 38  1  0
  1 39  1  0
  1 40  1  0
  3 41  1  0
  4 42  1  0
  5 43  1  0
  8 44  1  0
  8 45  1  0
  9 46  1  0
  9 47  1  0
 11 48  1  0
 11 49  1  0
 12 50  1  0
 12 51  1  0
 13 52  1  0
 13 53  1  0
 14 54  1  0
 20 55  1  0
 20 56  1  0
 20 57  1  0
 23 58  1  0
 24 59  1  0
 27 60  1  0
 29 61  1  0
 29 62  1  0
 30 63  1  0
 30 64  1  0
 33 65  1  0
 33 66  1  0
 33 67  1  0
 34 68  1  0
 34 69  1  0
 35 70  1  0
 35 71  1  0
 37 72  1  0
 37 73  1  0
 37 74  1  0
M  END
$$$$
