
     RDKit          3D

 56 59  0  0  0  0  0  0  0  0999 V2000
   -8.2121    0.1697    1.3780 C   0  0  0  0  0  0  0  0  0  0  0  0
   -8.1216   -0.0318   -0.0913 C   0  0  0  0  0  0  0  0  0  0  0  0
   -6.9870   -0.8176   -0.6394 C   0  0  0  0  0  0  0  0  0  0  0  0
   -5.7081   -0.2601   -0.3999 N   0  0  0  0  0  0  0  0  0  0  0  0
   -5.0018   -0.0737    0.8055 C   0  0  0  0  0  0  0  0  0  0  0  0
   -5.5207   -0.4557    1.8743 O   0  0  0  0  0  0  0  0  0  0  0  0
   -3.6648    0.5652    0.8075 C   0  0  0  0  0  0  0  0  0  0  0  0
   -3.2436    1.7604    1.2713 C   0  0  0  0  0  0  0  0  0  0  0  0
   -1.9285    1.9386    1.0547 N   0  0  0  0  0  0  0  0  0  0  0  0
   -1.1762    2.9701    1.3748 N   0  0  0  0  0  0  0  0  0  0  0  0
    0.1298    2.9327    1.0676 C   0  0  0  0  0  0  0  0  0  0  0  0
    0.6014    1.8585    0.4551 N   0  0  0  0  0  0  0  0  0  0  0  0
   -0.1218    0.7995    0.1148 C   0  0  0  0  0  0  0  0  0  0  0  0
    0.4601   -0.2931   -0.5342 N   0  0  0  0  0  0  0  0  0  0  0  0
    1.8548   -0.5724   -0.6790 C   0  0  0  0  0  0  0  0  0  0  0  0
    2.8356    0.2194   -0.1461 C   0  0  0  0  0  0  0  0  0  0  0  0
    4.1971   -0.0667   -0.3146 C   0  0  0  0  0  0  0  0  0  0  0  0
    5.2148    0.7887    0.2561 C   0  0  0  0  0  0  0  0  0  0  0  0
    4.8500    1.7824    0.9301 O   0  0  0  0  0  0  0  0  0  0  0  0
    6.6000    0.5738    0.1003 N   0  0  0  0  0  0  0  0  0  0  0  0
    7.5937    1.4705    0.6974 C   0  0  0  0  0  0  0  0  0  0  0  0
    8.8228    0.7680    1.2053 C   0  0  0  0  0  0  0  0  0  0  0  0
    8.8675    1.7049   -0.0385 C   0  0  0  0  0  0  0  0  0  0  0  0
    4.5087   -1.1840   -1.0416 C   0  0  0  0  0  0  0  0  0  0  0  0
    3.5155   -2.0019   -1.5914 C   0  0  0  0  0  0  0  0  0  0  0  0
    2.1842   -1.7157   -1.4229 C   0  0  0  0  0  0  0  0  0  0  0  0
    1.1168   -2.5872   -2.0072 C   0  0  0  0  0  0  0  0  0  0  0  0
   -1.4814    0.8162    0.4262 C   0  0  0  0  0  0  0  0  0  0  0  0
   -2.5273   -0.0536    0.2590 C   0  0  0  0  0  0  0  0  0  0  0  0
   -2.4813   -1.3892   -0.3505 C   0  0  0  0  0  0  0  0  0  0  0  0
   -9.2998    0.5080    1.5595 H   0  0  0  0  0  0  0  0  0  0  0  0
   -8.1089   -0.7260    1.9873 H   0  0  0  0  0  0  0  0  0  0  0  0
   -7.6385    1.0499    1.7390 H   0  0  0  0  0  0  0  0  0  0  0  0
   -8.1396    1.0000   -0.5946 H   0  0  0  0  0  0  0  0  0  0  0  0
   -9.1144   -0.4785   -0.4256 H   0  0  0  0  0  0  0  0  0  0  0  0
   -7.1867   -0.9202   -1.7490 H   0  0  0  0  0  0  0  0  0  0  0  0
   -7.0514   -1.8899   -0.2659 H   0  0  0  0  0  0  0  0  0  0  0  0
   -5.1871    0.0779   -1.2743 H   0  0  0  0  0  0  0  0  0  0  0  0
   -3.9127    2.4833    1.7626 H   0  0  0  0  0  0  0  0  0  0  0  0
    0.8017    3.7457    1.3032 H   0  0  0  0  0  0  0  0  0  0  0  0
   -0.2055   -0.9671   -0.9872 H   0  0  0  0  0  0  0  0  0  0  0  0
    2.6298    1.1010    0.4386 H   0  0  0  0  0  0  0  0  0  0  0  0
    6.9108   -0.2504   -0.4580 H   0  0  0  0  0  0  0  0  0  0  0  0
    7.2525    2.3214    1.3089 H   0  0  0  0  0  0  0  0  0  0  0  0
    9.3570    1.1239    2.0957 H   0  0  0  0  0  0  0  0  0  0  0  0
    8.9712   -0.3086    0.9984 H   0  0  0  0  0  0  0  0  0  0  0  0
    9.0432    1.1929   -0.9984 H   0  0  0  0  0  0  0  0  0  0  0  0
    9.4185    2.6314    0.1146 H   0  0  0  0  0  0  0  0  0  0  0  0
    5.5310   -1.4543   -1.2042 H   0  0  0  0  0  0  0  0  0  0  0  0
    3.7841   -2.8881   -2.1681 H   0  0  0  0  0  0  0  0  0  0  0  0
    1.6281   -3.4577   -2.4730 H   0  0  0  0  0  0  0  0  0  0  0  0
    0.3884   -2.8989   -1.2297 H   0  0  0  0  0  0  0  0  0  0  0  0
    0.5712   -2.0707   -2.8278 H   0  0  0  0  0  0  0  0  0  0  0  0
   -1.7715   -2.0924    0.1191 H   0  0  0  0  0  0  0  0  0  0  0  0
   -3.4862   -1.9144   -0.1571 H   0  0  0  0  0  0  0  0  0  0  0  0
   -2.3617   -1.4026   -1.4352 H   0  0  0  0  0  0  0  0  0  0  0  0
  1  2  1  0
  2  3  1  0
  3  4  1  0
  4  5  1  0
  5  6  2  0
  5  7  1  0
  7  8  2  0
  8  9  1  0
  9 10  1  0
 10 11  2  0
 11 12  1  0
 12 13  2  0
 13 14  1  0
 14 15  1  0
 15 16  2  0
 16 17  1  0
 17 18  1  0
 18 19  2  0
 18 20  1  0
 20 21  1  0
 21 22  1  0
 22 23  1  0
 17 24  2  0
 24 25  1  0
 25 26  2  0
 26 27  1  0
 13 28  1  0
 28 29  2  0
 29 30  1  0
 29  7  1  0
 28  9  1  0
 26 15  1  0
 23 21  1  0
  1 31  1  0
  1 32  1  0
  1 33  1  0
  2 34  1  0
  2 35  1  0
  3 36  1  0
  3 37  1  0
  4 38  1  0
  8 39  1  0
 11 40  1  0
 14 41  1  0
 16 42  1  0
 20 43  1  0
 21 44  1  0
 22 45  1  0
 22 46  1  0
 23 47  1  0
 23 48  1  0
 24 49  1  0
 25 50  1  0
 27 51  1  0
 27 52  1  0
 27 53  1  0
 30 54  1  0
 30 55  1  0
 30 56  1  0
M  END
$$$$
