
     RDKit          3D

 65 65  0  0  0  0  0  0  0  0999 V2000
   -0.3504   -2.6522   -2.4945 C   0  0  0  0  0  0  0  0  0  0  0  0
    0.4700   -1.3662   -2.4269 C   0  0  0  0  0  0  0  0  0  0  0  0
    0.2740   -0.8597   -1.1180 O   0  0  0  0  0  0  0  0  0  0  0  0
    0.8785    0.3278   -0.6792 C   0  0  0  0  0  0  0  0  0  0  0  0
    1.3679    0.3751   -1.8116 O   0  0  0  0  0  0  0  0  0  0  0  0
    0.5367    0.6589    0.7046 C   0  0  0  0  0  0  0  0  0  0  0  0
   -0.9650    0.8262    0.8018 C   0  0  0  0  0  0  0  0  0  0  0  0
   -1.4411    1.9329   -0.1110 C   0  0  0  0  0  0  0  0  0  0  0  0
   -2.8896    2.0909   -0.0181 N   0  0  0  0  0  0  0  0  0  0  0  0
   -3.8212    1.0640   -0.3312 C   0  0  0  0  0  0  0  0  0  0  0  0
   -3.4595   -0.0557   -0.7117 O   0  0  0  0  0  0  0  0  0  0  0  0
   -5.1822    1.1599   -0.2607 O   0  0  0  0  0  0  0  0  0  0  0  0
   -6.0727    0.1107   -0.5824 C   0  0  0  0  0  0  0  0  0  0  0  0
   -5.9196   -0.3439   -2.0164 C   0  0  0  0  0  0  0  0  0  0  0  0
   -5.9024   -1.0895    0.2892 C   0  0  0  0  0  0  0  0  0  0  0  0
   -7.4837    0.6360   -0.4133 C   0  0  0  0  0  0  0  0  0  0  0  0
    1.2544    1.8553    1.2435 C   0  0  0  0  0  0  0  0  0  0  0  0
    2.7232    1.7022    1.2409 C   0  0  0  0  0  0  0  0  0  0  0  0
    3.3619    2.1257    0.0855 C   0  0  0  0  0  0  0  0  0  0  0  0
    4.7378    2.0505   -0.0770 C   0  0  0  0  0  0  0  0  0  0  0  0
    5.5229    1.5356    0.9420 C   0  0  0  0  0  0  0  0  0  0  0  0
    6.9202    1.4296    0.8453 N   0  0  0  0  0  0  0  0  0  0  0  0
    7.7899    0.8316   -0.5307 S   0  0  0  0  0  0  0  0  0  0  0  0
    7.4706    1.8223   -1.8489 O   0  0  0  0  0  0  0  0  0  0  0  0
    9.2574    0.8870   -0.1877 O   0  0  0  0  0  0  0  0  0  0  0  0
    7.4348   -0.5748   -0.8519 O   0  0  0  0  0  0  0  0  0  0  0  0
    4.8741    1.1123    2.0994 C   0  0  0  0  0  0  0  0  0  0  0  0
    3.5041    1.1895    2.2558 C   0  0  0  0  0  0  0  0  0  0  0  0
    0.8826   -0.5382    1.5534 C   0  0  0  0  0  0  0  0  0  0  0  0
    1.4035   -1.2655    2.4305 O   0  0  0  0  0  0  0  0  0  0  0  0
    0.1983   -1.6591    1.1760 O   0  0  0  0  0  0  0  0  0  0  0  0
    0.2830   -2.9357    1.7504 C   0  0  0  0  0  0  0  0  0  0  0  0
    1.6796   -3.4676    1.6567 C   0  0  0  0  0  0  0  0  0  0  0  0
   -1.3100   -2.5557   -1.9165 H   0  0  0  0  0  0  0  0  0  0  0  0
   -0.6113   -2.9417   -3.5140 H   0  0  0  0  0  0  0  0  0  0  0  0
    0.2029   -3.4711   -1.9791 H   0  0  0  0  0  0  0  0  0  0  0  0
    0.0003   -0.6330   -3.1310 H   0  0  0  0  0  0  0  0  0  0  0  0
    1.5045   -1.6198   -2.6567 H   0  0  0  0  0  0  0  0  0  0  0  0
   -1.4253   -0.1130    0.4224 H   0  0  0  0  0  0  0  0  0  0  0  0
   -1.2065    1.0189    1.8495 H   0  0  0  0  0  0  0  0  0  0  0  0
   -1.1216    1.7710   -1.1600 H   0  0  0  0  0  0  0  0  0  0  0  0
   -1.0278    2.9332    0.1808 H   0  0  0  0  0  0  0  0  0  0  0  0
   -3.3770    2.9789    0.2891 H   0  0  0  0  0  0  0  0  0  0  0  0
   -5.0344   -0.9902   -2.1636 H   0  0  0  0  0  0  0  0  0  0  0  0
   -6.8261   -0.9377   -2.2589 H   0  0  0  0  0  0  0  0  0  0  0  0
   -5.9354    0.5222   -2.7156 H   0  0  0  0  0  0  0  0  0  0  0  0
   -6.9036   -1.5557    0.4379 H   0  0  0  0  0  0  0  0  0  0  0  0
   -5.5067   -0.8618    1.3021 H   0  0  0  0  0  0  0  0  0  0  0  0
   -5.2781   -1.8902   -0.2043 H   0  0  0  0  0  0  0  0  0  0  0  0
   -7.5063    1.7373   -0.2976 H   0  0  0  0  0  0  0  0  0  0  0  0
   -7.9830    0.2356    0.5058 H   0  0  0  0  0  0  0  0  0  0  0  0
   -8.1477    0.3814   -1.2556 H   0  0  0  0  0  0  0  0  0  0  0  0
    0.9224    2.7689    0.7110 H   0  0  0  0  0  0  0  0  0  0  0  0
    0.9132    2.0040    2.2986 H   0  0  0  0  0  0  0  0  0  0  0  0
    2.8173    2.5385   -0.7525 H   0  0  0  0  0  0  0  0  0  0  0  0
    5.2010    2.3912   -0.9938 H   0  0  0  0  0  0  0  0  0  0  0  0
    7.4154    1.7617    1.7254 H   0  0  0  0  0  0  0  0  0  0  0  0
    6.8205    1.3444   -2.4216 H   0  0  0  0  0  0  0  0  0  0  0  0
    5.4795    0.7035    2.9130 H   0  0  0  0  0  0  0  0  0  0  0  0
    2.9794    0.8695    3.1408 H   0  0  0  0  0  0  0  0  0  0  0  0
   -0.0659   -2.8253    2.8053 H   0  0  0  0  0  0  0  0  0  0  0  0
   -0.4295   -3.6103    1.2520 H   0  0  0  0  0  0  0  0  0  0  0  0
    2.3110   -2.8660    0.9904 H   0  0  0  0  0  0  0  0  0  0  0  0
    2.1024   -3.4793    2.7036 H   0  0  0  0  0  0  0  0  0  0  0  0
    1.6883   -4.5252    1.2895 H   0  0  0  0  0  0  0  0  0  0  0  0
  1  2  1  0
  2  3  1  0
  3  4  1  0
  4  5  2  0
  4  6  1  0
  6  7  1  0
  7  8  1  0
  8  9  1  0
  9 10  1  0
 10 11  2  0
 10 12  1  0
 12 13  1  0
 13 14  1  0
 13 15  1  0
 13 16  1  0
  6 17  1  0
 17 18  1  0
 18 19  2  0
 19 20  1  0
 20 21  2  0
 21 22  1  0
 22 23  1  0
 23 24  1  0
 23 25  2  0
 23 26  2  0
 21 27  1  0
 27 28  2  0
  6 29  1  0
 29 30  2  0
 29 31  1  0
 31 32  1  0
 32 33  1  0
 28 18  1  0
  1 34  1  0
  1 35  1  0
  1 36  1  0
  2 37  1  0
  2 38  1  0
  7 39  1  0
  7 40  1  0
  8 41  1  0
  8 42  1  0
  9 43  1  0
 14 44  1  0
 14 45  1  0
 14 46  1  0
 15 47  1  0
 15 48  1  0
 15 49  1  0
 16 50  1  0
 16 51  1  0
 16 52  1  0
 17 53  1  0
 17 54  1  0
 19 55  1  0
 20 56  1  0
 22 57  1  0
 24 58  1  0
 27 59  1  0
 28 60  1  0
 32 61  1  0
 32 62  1  0
 33 63  1  0
 33 64  1  0
 33 65  1  0
M  END
$$$$
