
     RDKit          3D

 47 49  0  0  0  0  0  0  0  0999 V2000
   -0.9776   -3.6633   -2.4698 C   0  0  0  0  0  0  0  0  0  0  0  0
   -1.7445   -2.7045   -1.7794 O   0  0  0  0  0  0  0  0  0  0  0  0
   -1.1206   -1.8546   -0.8633 C   0  0  0  0  0  0  0  0  0  0  0  0
    0.2213   -1.9095   -0.5997 C   0  0  0  0  0  0  0  0  0  0  0  0
    0.8427   -1.0664    0.3092 C   0  0  0  0  0  0  0  0  0  0  0  0
    2.2983   -1.2608    0.4727 C   0  0  0  0  0  0  0  0  0  0  0  0
    3.0965   -0.5729   -0.5359 C   0  0  0  0  0  0  0  0  0  0  0  0
    3.5998   -1.2451   -1.6230 C   0  0  0  0  0  0  0  0  0  0  0  0
    4.3237   -0.6119   -2.5697 N   0  0  0  0  0  0  0  0  0  0  0  0
    4.5777    0.6926   -2.4850 C   0  0  0  0  0  0  0  0  0  0  0  0
    5.3379    1.3874   -3.4793 N   0  0  0  0  0  0  0  0  0  0  0  0
    4.1037    1.3854   -1.4383 N   0  0  0  0  0  0  0  0  0  0  0  0
    3.3671    0.7772   -0.4604 C   0  0  0  0  0  0  0  0  0  0  0  0
    2.8918    1.5398    0.6367 N   0  0  0  0  0  0  0  0  0  0  0  0
    0.0821   -0.1455    0.9667 C   0  0  0  0  0  0  0  0  0  0  0  0
   -1.2798   -0.0818    0.7066 C   0  0  0  0  0  0  0  0  0  0  0  0
   -2.0695    0.8324    1.3420 C   0  0  0  0  0  0  0  0  0  0  0  0
   -1.5697    1.7436    2.2851 N   0  0  0  0  0  0  0  0  0  0  0  0
   -1.0139    1.2758    3.5207 C   0  0  0  0  0  0  0  0  0  0  0  0
   -1.6174    3.1508    2.0000 C   0  0  0  0  0  0  0  0  0  0  0  0
   -3.4339    0.8802    1.0576 C   0  0  0  0  0  0  0  0  0  0  0  0
   -4.0154    0.0271    0.1487 C   0  0  0  0  0  0  0  0  0  0  0  0
   -5.4883    0.0790   -0.1630 C   0  0  0  0  0  0  0  0  0  0  0  0
   -3.2135   -0.8642   -0.4630 N   0  0  0  0  0  0  0  0  0  0  0  0
   -1.8921   -0.9277   -0.2035 C   0  0  0  0  0  0  0  0  0  0  0  0
   -0.3876   -4.3057   -1.7802 H   0  0  0  0  0  0  0  0  0  0  0  0
   -1.6781   -4.3528   -2.9877 H   0  0  0  0  0  0  0  0  0  0  0  0
   -0.3228   -3.2129   -3.2429 H   0  0  0  0  0  0  0  0  0  0  0  0
    0.7873   -2.6711   -1.1579 H   0  0  0  0  0  0  0  0  0  0  0  0
    2.5108   -0.8420    1.5148 H   0  0  0  0  0  0  0  0  0  0  0  0
    2.5066   -2.3359    0.5848 H   0  0  0  0  0  0  0  0  0  0  0  0
    3.4165   -2.3271   -1.7445 H   0  0  0  0  0  0  0  0  0  0  0  0
    6.2848    1.7329   -3.2420 H   0  0  0  0  0  0  0  0  0  0  0  0
    4.9454    1.5376   -4.4110 H   0  0  0  0  0  0  0  0  0  0  0  0
    2.3553    2.4148    0.5885 H   0  0  0  0  0  0  0  0  0  0  0  0
    3.1245    1.1492    1.5955 H   0  0  0  0  0  0  0  0  0  0  0  0
    0.5313    0.5106    1.6689 H   0  0  0  0  0  0  0  0  0  0  0  0
    0.0108    1.5866    3.7265 H   0  0  0  0  0  0  0  0  0  0  0  0
   -1.1344    0.1739    3.6543 H   0  0  0  0  0  0  0  0  0  0  0  0
   -1.6237    1.6995    4.3783 H   0  0  0  0  0  0  0  0  0  0  0  0
   -2.4970    3.5827    2.5410 H   0  0  0  0  0  0  0  0  0  0  0  0
   -1.8329    3.3265    0.9078 H   0  0  0  0  0  0  0  0  0  0  0  0
   -0.7006    3.6913    2.3114 H   0  0  0  0  0  0  0  0  0  0  0  0
   -4.0801    1.5986    1.5521 H   0  0  0  0  0  0  0  0  0  0  0  0
   -5.7700   -0.9776   -0.3515 H   0  0  0  0  0  0  0  0  0  0  0  0
   -6.0882    0.4590    0.6643 H   0  0  0  0  0  0  0  0  0  0  0  0
   -5.6646    0.6987   -1.0833 H   0  0  0  0  0  0  0  0  0  0  0  0
  1  2  1  0
  2  3  1  0
  3  4  2  0
  4  5  1  0
  5  6  1  0
  6  7  1  0
  7  8  2  0
  8  9  1  0
  9 10  2  0
 10 11  1  0
 10 12  1  0
 12 13  2  0
 13 14  1  0
  5 15  2  0
 15 16  1  0
 16 17  2  0
 17 18  1  0
 18 19  1  0
 18 20  1  0
 17 21  1  0
 21 22  2  0
 22 23  1  0
 22 24  1  0
 24 25  2  0
 25  3  1  0
 13  7  1  0
 25 16  1  0
  1 26  1  0
  1 27  1  0
  1 28  1  0
  4 29  1  0
  6 30  1  0
  6 31  1  0
  8 32  1  0
 11 33  1  0
 11 34  1  0
 14 35  1  0
 14 36  1  0
 15 37  1  0
 19 38  1  0
 19 39  1  0
 19 40  1  0
 20 41  1  0
 20 42  1  0
 20 43  1  0
 21 44  1  0
 23 45  1  0
 23 46  1  0
 23 47  1  0
M  END
$$$$
