
     RDKit          3D

 59 63  0  0  0  0  0  0  0  0999 V2000
   -5.3643    3.9670    2.3723 C   0  0  0  0  0  0  0  0  0  0  0  0
   -5.2191    2.6793    2.8795 O   0  0  0  0  0  0  0  0  0  0  0  0
   -4.3339    1.7337    2.4430 C   0  0  0  0  0  0  0  0  0  0  0  0
   -3.4442    1.9378    1.4145 C   0  0  0  0  0  0  0  0  0  0  0  0
   -2.5572    0.9764    0.9842 C   0  0  0  0  0  0  0  0  0  0  0  0
   -2.5453   -0.2551    1.6012 C   0  0  0  0  0  0  0  0  0  0  0  0
   -1.7918   -1.4048    1.4058 C   0  0  0  0  0  0  0  0  0  0  0  0
   -0.7703   -1.5714    0.4297 N   0  0  0  0  0  0  0  0  0  0  0  0
    0.5537   -1.5259    0.5326 C   0  0  0  0  0  0  0  0  0  0  0  0
    1.1799   -1.3093    1.6013 O   0  0  0  0  0  0  0  0  0  0  0  0
    1.1491   -1.7412   -0.6543 N   0  0  0  0  0  0  0  0  0  0  0  0
    2.5753   -1.7714   -0.9583 C   0  0  0  0  0  0  0  0  0  0  0  0
    3.0966   -0.4421   -1.3314 C   0  0  0  0  0  0  0  0  0  0  0  0
    3.1306    0.0373   -2.6200 C   0  0  0  0  0  0  0  0  0  0  0  0
    3.6328    1.2964   -2.9102 C   0  0  0  0  0  0  0  0  0  0  0  0
    4.1017    2.0737   -1.8976 C   0  0  0  0  0  0  0  0  0  0  0  0
    4.7430    3.6779   -2.2561 Cl  0  0  0  0  0  0  0  0  0  0  0  0
    4.0763    1.6065   -0.5847 C   0  0  0  0  0  0  0  0  0  0  0  0
    4.5760    2.4632    0.4004 O   0  0  0  0  0  0  0  0  0  0  0  0
    4.6350    2.1591    1.7671 C   0  0  2  0  0  0  0  0  0  0  0  0
    5.4616    0.9511    2.0562 C   0  0  0  0  0  0  0  0  0  0  0  0
    3.2842    2.0355    2.3634 C   0  0  0  0  0  0  0  0  0  0  0  0
    2.2473    2.2131    1.6600 O   0  0  0  0  0  0  0  0  0  0  0  0
    3.0735    1.7255    3.6944 O   0  0  0  0  0  0  0  0  0  0  0  0
    3.5791    0.3695   -0.3279 C   0  0  0  0  0  0  0  0  0  0  0  0
    0.1362   -1.9286   -1.5313 C   0  0  0  0  0  0  0  0  0  0  0  0
    0.1122   -2.1890   -2.8910 C   0  0  0  0  0  0  0  0  0  0  0  0
   -1.0841   -2.3423   -3.5707 C   0  0  0  0  0  0  0  0  0  0  0  0
   -2.2957   -2.2414   -2.9188 C   0  0  0  0  0  0  0  0  0  0  0  0
   -3.4922   -2.3986   -3.6191 O   0  0  0  0  0  0  0  0  0  0  0  0
   -4.0293   -3.7263   -3.7081 C   0  0  0  0  0  0  0  0  0  0  0  0
   -3.0818   -4.5314   -4.3551 F   0  0  0  0  0  0  0  0  0  0  0  0
   -5.1749   -3.7239   -4.4572 F   0  0  0  0  0  0  0  0  0  0  0  0
   -4.2021   -4.2631   -2.4539 F   0  0  0  0  0  0  0  0  0  0  0  0
   -2.2597   -1.9818   -1.5647 C   0  0  0  0  0  0  0  0  0  0  0  0
   -1.0707   -1.8263   -0.8729 C   0  0  0  0  0  0  0  0  0  0  0  0
   -2.2498   -2.2726    2.3250 N   0  0  0  0  0  0  0  0  0  0  0  0
   -3.1962   -1.7255    3.0287 O   0  0  0  0  0  0  0  0  0  0  0  0
   -3.4243   -0.4948    2.6368 C   0  0  0  0  0  0  0  0  0  0  0  0
   -4.3169    0.4981    3.0568 C   0  0  0  0  0  0  0  0  0  0  0  0
   -6.1882    4.4701    2.9565 H   0  0  0  0  0  0  0  0  0  0  0  0
   -4.4748    4.6114    2.4861 H   0  0  0  0  0  0  0  0  0  0  0  0
   -5.6378    3.9765    1.2859 H   0  0  0  0  0  0  0  0  0  0  0  0
   -3.4536    2.9017    0.9316 H   0  0  0  0  0  0  0  0  0  0  0  0
   -1.8553    1.1415    0.1707 H   0  0  0  0  0  0  0  0  0  0  0  0
    3.1646   -2.1356   -0.0905 H   0  0  0  0  0  0  0  0  0  0  0  0
    2.7882   -2.4955   -1.7841 H   0  0  0  0  0  0  0  0  0  0  0  0
    2.7619   -0.5735   -3.4174 H   0  0  0  0  0  0  0  0  0  0  0  0
    3.6389    1.6274   -3.9295 H   0  0  0  0  0  0  0  0  0  0  0  0
    5.1266    3.0562    2.2470 H   0  0  0  0  0  0  0  0  0  0  0  0
    4.8638    0.2402    2.6973 H   0  0  0  0  0  0  0  0  0  0  0  0
    6.3789    1.2567    2.6357 H   0  0  0  0  0  0  0  0  0  0  0  0
    5.8595    0.4617    1.1527 H   0  0  0  0  0  0  0  0  0  0  0  0
    2.2565    1.1722    3.9968 H   0  0  0  0  0  0  0  0  0  0  0  0
    3.5627    0.0119    0.7138 H   0  0  0  0  0  0  0  0  0  0  0  0
    1.0586   -2.2693   -3.4078 H   0  0  0  0  0  0  0  0  0  0  0  0
   -1.1022   -2.5470   -4.6392 H   0  0  0  0  0  0  0  0  0  0  0  0
   -3.2016   -1.9017   -1.0495 H   0  0  0  0  0  0  0  0  0  0  0  0
   -4.9871    0.2609    3.8742 H   0  0  0  0  0  0  0  0  0  0  0  0
  1  2  1  0
  2  3  1  0
  3  4  2  0
  4  5  1  0
  5  6  2  0
  6  7  1  0
  7  8  1  0
  8  9  1  0
  9 10  2  0
  9 11  1  0
 11 12  1  0
 12 13  1  0
 13 14  2  0
 14 15  1  0
 15 16  2  0
 16 17  1  0
 16 18  1  0
 18 19  1  0
 19 20  1  0
 20 21  1  0
 20 22  1  0
 22 23  2  0
 22 24  1  0
 18 25  2  0
 11 26  1  0
 26 27  2  0
 27 28  1  0
 28 29  2  0
 29 30  1  0
 30 31  1  0
 31 32  1  0
 31 33  1  0
 31 34  1  0
 29 35  1  0
 35 36  2  0
  7 37  2  0
 37 38  1  0
 38 39  1  0
 39 40  2  0
 40  3  1  0
 39  6  1  0
 36  8  1  0
 25 13  1  0
 36 26  1  0
  1 41  1  0
  1 42  1  0
  1 43  1  0
  4 44  1  0
  5 45  1  0
 12 46  1  0
 12 47  1  0
 14 48  1  0
 15 49  1  0
 20 50  1  1
 21 51  1  0
 21 52  1  0
 21 53  1  0
 24 54  1  0
 25 55  1  0
 27 56  1  0
 28 57  1  0
 35 58  1  0
 40 59  1  0
M  END
$$$$
