
     RDKit          3D

 36 39  0  0  0  0  0  0  0  0999 V2000
   -0.5300    2.9105    1.4415 C   0  0  0  0  0  0  0  0  0  0  0  0
   -0.2275    1.7212    0.7774 O   0  0  0  0  0  0  0  0  0  0  0  0
   -1.2151    0.9240    0.2417 C   0  0  0  0  0  0  0  0  0  0  0  0
   -2.5621    1.2179    0.3076 C   0  0  0  0  0  0  0  0  0  0  0  0
   -3.5236    0.3741   -0.2549 C   0  0  0  0  0  0  0  0  0  0  0  0
   -4.8288    0.6586   -0.1967 N   0  0  0  0  0  0  0  0  0  0  0  0
   -5.7944   -0.1299   -0.7344 C   0  0  0  0  0  0  0  0  0  0  0  0
   -5.3827   -1.2962   -1.3768 C   0  0  0  0  0  0  0  0  0  0  0  0
   -4.0440   -1.5820   -1.4308 C   0  0  0  0  0  0  0  0  0  0  0  0
   -3.0676   -0.7669   -0.8776 C   0  0  0  0  0  0  0  0  0  0  0  0
   -1.7196   -1.0626   -0.9434 C   0  0  0  0  0  0  0  0  0  0  0  0
   -0.7712   -0.2421   -0.3969 C   0  0  0  0  0  0  0  0  0  0  0  0
    0.6345   -0.4956   -0.4132 N   0  0  0  0  0  0  0  0  0  0  0  0
    1.2573   -1.1669    0.6710 C   0  0  0  0  0  0  0  0  0  0  0  0
    0.5572   -1.5294    1.6344 O   0  0  0  0  0  0  0  0  0  0  0  0
    2.7327   -1.4257    0.6365 C   0  0  0  0  0  0  0  0  0  0  0  0
    3.1757   -2.6807    0.9809 C   0  0  0  0  0  0  0  0  0  0  0  0
    4.9901   -2.4762    0.8055 S   0  0  0  0  0  0  0  0  0  0  0  0
    4.9678   -0.8010    0.3126 C   0  0  0  0  0  0  0  0  0  0  0  0
    5.9761    0.0998   -0.0105 C   0  0  0  0  0  0  0  0  0  0  0  0
    5.6971    1.3574   -0.3611 N   0  0  0  0  0  0  0  0  0  0  0  0
    4.3847    1.6752   -0.3766 C   0  0  0  0  0  0  0  0  0  0  0  0
    3.4017    0.8408   -0.0731 N   0  0  0  0  0  0  0  0  0  0  0  0
    3.6245   -0.4825    0.3008 C   0  0  0  0  0  0  0  0  0  0  0  0
    0.2439    3.6896    1.1948 H   0  0  0  0  0  0  0  0  0  0  0  0
   -1.4842    3.3831    1.1499 H   0  0  0  0  0  0  0  0  0  0  0  0
   -0.5473    2.7617    2.5551 H   0  0  0  0  0  0  0  0  0  0  0  0
   -2.9298    2.1152    0.7948 H   0  0  0  0  0  0  0  0  0  0  0  0
   -6.8098    0.1787   -0.6447 H   0  0  0  0  0  0  0  0  0  0  0  0
   -6.1444   -1.9302   -1.8124 H   0  0  0  0  0  0  0  0  0  0  0  0
   -3.6940   -2.4879   -1.9312 H   0  0  0  0  0  0  0  0  0  0  0  0
   -1.4010   -1.9705   -1.4428 H   0  0  0  0  0  0  0  0  0  0  0  0
    1.2530   -0.2073   -1.1984 H   0  0  0  0  0  0  0  0  0  0  0  0
    2.6898   -3.5917    1.2879 H   0  0  0  0  0  0  0  0  0  0  0  0
    6.9867   -0.2948    0.0465 H   0  0  0  0  0  0  0  0  0  0  0  0
    4.1044    2.7124   -0.6636 H   0  0  0  0  0  0  0  0  0  0  0  0
  1  2  1  0
  2  3  1  0
  3  4  2  0
  4  5  1  0
  5  6  2  0
  6  7  1  0
  7  8  2  0
  8  9  1  0
  9 10  2  0
 10 11  1  0
 11 12  2  0
 12 13  1  0
 13 14  1  0
 14 15  2  0
 14 16  1  0
 16 17  2  0
 17 18  1  0
 18 19  1  0
 19 20  2  0
 20 21  1  0
 21 22  2  0
 22 23  1  0
 23 24  2  0
 12  3  1  0
 24 16  1  0
 10  5  1  0
 24 19  1  0
  1 25  1  0
  1 26  1  0
  1 27  1  0
  4 28  1  0
  7 29  1  0
  8 30  1  0
  9 31  1  0
 11 32  1  0
 13 33  1  0
 17 34  1  0
 20 35  1  0
 22 36  1  0
M  END
$$$$
