
     RDKit          3D

 60 63  0  0  0  0  0  0  0  0999 V2000
   -1.8050    6.6942    3.1485 C   0  0  0  0  0  0  0  0  0  0  0  0
   -1.2310    5.3932    2.6742 C   0  0  0  0  0  0  0  0  0  0  0  0
    0.0063    4.8979    2.7488 C   0  0  0  0  0  0  0  0  0  0  0  0
    0.2030    3.7031    2.2325 N   0  0  0  0  0  0  0  0  0  0  0  0
   -0.5734    3.0082    1.7092 C   0  0  0  0  0  0  0  0  0  0  0  0
   -0.7216    1.6844    1.0440 C   0  0  0  0  0  0  0  0  0  0  0  0
   -1.9206    1.2644    0.5435 C   0  0  0  0  0  0  0  0  0  0  0  0
   -2.0314    0.0245   -0.0746 C   0  0  0  0  0  0  0  0  0  0  0  0
   -3.2527   -0.4014   -0.5832 O   0  0  0  0  0  0  0  0  0  0  0  0
   -3.4142   -1.6534   -1.2174 C   0  0  0  0  0  0  0  0  0  0  0  0
   -4.8670   -1.7463   -1.6294 C   0  0  0  0  0  0  0  0  0  0  0  0
   -5.2212   -0.6291   -2.5815 C   0  0  0  0  0  0  0  0  0  0  0  0
   -5.2045   -3.0618   -2.2897 C   0  0  0  0  0  0  0  0  0  0  0  0
   -6.5386   -3.4006   -1.7097 C   0  0  0  0  0  0  0  0  0  0  0  0
   -6.9483   -2.3116   -0.9497 O   0  0  0  0  0  0  0  0  0  0  0  0
   -5.7964   -1.7162   -0.4570 C   0  0  0  0  0  0  0  0  0  0  0  0
   -0.8842   -0.7390   -0.1502 C   0  0  0  0  0  0  0  0  0  0  0  0
    0.3358   -0.3431    0.3442 C   0  0  0  0  0  0  0  0  0  0  0  0
    1.4732   -1.2246    0.2009 C   0  0  0  0  0  0  0  0  0  0  0  0
    1.3214   -2.3064   -0.4202 O   0  0  0  0  0  0  0  0  0  0  0  0
    2.7685   -0.9584    0.7160 N   0  0  0  0  0  0  0  0  0  0  0  0
    3.9090   -1.8316    0.5773 C   0  0  2  0  0  0  0  0  0  0  0  0
    4.3159   -2.4339    1.9235 C   0  0  0  0  0  0  0  0  0  0  0  0
    5.0463   -1.1473   -0.0428 C   0  0  0  0  0  0  0  0  0  0  0  0
    4.9487   -0.3418   -1.1556 C   0  0  0  0  0  0  0  0  0  0  0  0
    6.0604    0.2597   -1.6648 N   0  0  0  0  0  0  0  0  0  0  0  0
    7.2762    0.1016   -1.1207 C   0  0  0  0  0  0  0  0  0  0  0  0
    8.4863    0.7770   -1.6973 C   0  0  0  0  0  0  0  0  0  0  0  0
    8.7537    0.3875   -2.9793 F   0  0  0  0  0  0  0  0  0  0  0  0
    9.5912    0.5647   -0.8970 F   0  0  0  0  0  0  0  0  0  0  0  0
    8.2359    2.1483   -1.6715 F   0  0  0  0  0  0  0  0  0  0  0  0
    7.3663   -0.6860   -0.0344 N   0  0  0  0  0  0  0  0  0  0  0  0
    6.3007   -1.3020    0.5071 C   0  0  0  0  0  0  0  0  0  0  0  0
    0.3964    0.8885    0.9454 C   0  0  0  0  0  0  0  0  0  0  0  0
   -2.1256    4.0841    1.8309 S   0  0  0  0  0  0  0  0  0  0  0  0
   -1.7023    7.4723    2.3516 H   0  0  0  0  0  0  0  0  0  0  0  0
   -2.8713    6.5748    3.4365 H   0  0  0  0  0  0  0  0  0  0  0  0
   -1.2935    7.0650    4.0379 H   0  0  0  0  0  0  0  0  0  0  0  0
    0.8398    5.4538    3.2196 H   0  0  0  0  0  0  0  0  0  0  0  0
   -2.8247    1.8812    0.6112 H   0  0  0  0  0  0  0  0  0  0  0  0
   -2.7696   -1.7808   -2.1114 H   0  0  0  0  0  0  0  0  0  0  0  0
   -3.1784   -2.4646   -0.5028 H   0  0  0  0  0  0  0  0  0  0  0  0
   -6.2930   -0.6535   -2.7735 H   0  0  0  0  0  0  0  0  0  0  0  0
   -4.6922   -0.8394   -3.5552 H   0  0  0  0  0  0  0  0  0  0  0  0
   -4.8768    0.3534   -2.2347 H   0  0  0  0  0  0  0  0  0  0  0  0
   -5.2050   -2.9952   -3.3971 H   0  0  0  0  0  0  0  0  0  0  0  0
   -4.4740   -3.8346   -1.9217 H   0  0  0  0  0  0  0  0  0  0  0  0
   -6.5341   -4.3445   -1.1168 H   0  0  0  0  0  0  0  0  0  0  0  0
   -7.2654   -3.5132   -2.5445 H   0  0  0  0  0  0  0  0  0  0  0  0
   -6.0768   -0.6793   -0.1513 H   0  0  0  0  0  0  0  0  0  0  0  0
   -5.4138   -2.3143    0.4000 H   0  0  0  0  0  0  0  0  0  0  0  0
   -0.9655   -1.7211   -0.6385 H   0  0  0  0  0  0  0  0  0  0  0  0
    2.8764   -0.0451    1.2335 H   0  0  0  0  0  0  0  0  0  0  0  0
    3.6165   -2.7039   -0.0400 H   0  0  0  0  0  0  0  0  0  0  0  0
    3.3680   -2.7433    2.4364 H   0  0  0  0  0  0  0  0  0  0  0  0
    4.9829   -3.2944    1.7672 H   0  0  0  0  0  0  0  0  0  0  0  0
    4.7584   -1.6355    2.5321 H   0  0  0  0  0  0  0  0  0  0  0  0
    3.9725   -0.2129   -1.5932 H   0  0  0  0  0  0  0  0  0  0  0  0
    6.4412   -1.9242    1.3828 H   0  0  0  0  0  0  0  0  0  0  0  0
    1.3211    1.2520    1.3518 H   0  0  0  0  0  0  0  0  0  0  0  0
  1  2  1  0
  2  3  2  0
  3  4  1  0
  4  5  2  0
  5  6  1  0
  6  7  2  0
  7  8  1  0
  8  9  1  0
  9 10  1  0
 10 11  1  0
 11 12  1  0
 11 13  1  0
 13 14  1  0
 14 15  1  0
 15 16  1  0
  8 17  2  0
 17 18  1  0
 18 19  1  0
 19 20  2  0
 19 21  1  0
 21 22  1  0
 22 23  1  0
 22 24  1  0
 24 25  2  0
 25 26  1  0
 26 27  2  0
 27 28  1  0
 28 29  1  0
 28 30  1  0
 28 31  1  0
 27 32  1  0
 32 33  2  0
 18 34  2  0
  5 35  1  0
 35  2  1  0
 34  6  1  0
 16 11  1  0
 33 24  1  0
  1 36  1  0
  1 37  1  0
  1 38  1  0
  3 39  1  0
  7 40  1  0
 10 41  1  0
 10 42  1  0
 12 43  1  0
 12 44  1  0
 12 45  1  0
 13 46  1  0
 13 47  1  0
 14 48  1  0
 14 49  1  0
 16 50  1  0
 16 51  1  0
 17 52  1  0
 21 53  1  0
 22 54  1  6
 23 55  1  0
 23 56  1  0
 23 57  1  0
 25 58  1  0
 33 59  1  0
 34 60  1  0
M  END
$$$$
