
     RDKit          3D

 34 36  0  0  0  0  0  0  0  0999 V2000
   -3.4486   -0.0088   -1.7693 C   0  0  0  0  0  0  0  0  0  0  0  0
   -2.5765   -0.1437   -0.6501 N   0  0  0  0  0  0  0  0  0  0  0  0
   -1.5334    0.8647   -0.6332 C   0  0  0  0  0  0  0  0  0  0  0  0
   -0.2688    0.7067   -0.0451 C   0  0  0  0  0  0  0  0  0  0  0  0
    0.6696    1.7427    0.0113 C   0  0  0  0  0  0  0  0  0  0  0  0
    0.2726    2.9344   -0.5577 C   0  0  0  0  0  0  0  0  0  0  0  0
    1.4161    4.2309   -0.5058 Cl  0  0  0  0  0  0  0  0  0  0  0  0
   -0.9787    3.0952   -1.1460 C   0  0  0  0  0  0  0  0  0  0  0  0
   -1.9108    2.0727   -1.1996 C   0  0  0  0  0  0  0  0  0  0  0  0
    0.3120   -0.5192    0.5504 C   0  0  0  0  0  0  0  0  0  0  0  0
   -0.4137   -1.3439    1.2463 N   0  0  0  0  0  0  0  0  0  0  0  0
   -1.8082   -1.3304    1.5996 C   0  0  0  0  0  0  0  0  0  0  0  0
   -2.0412   -0.3707    2.5715 O   0  0  0  0  0  0  0  0  0  0  0  0
   -2.6803   -1.1476    0.3965 C   0  0  0  0  0  0  0  0  0  0  0  0
   -3.6836   -1.8871    0.1146 O   0  0  0  0  0  0  0  0  0  0  0  0
    1.7220   -0.7866    0.3405 C   0  0  0  0  0  0  0  0  0  0  0  0
    2.7629   -0.2960   -0.3920 C   0  0  0  0  0  0  0  0  0  0  0  0
    4.0707   -0.6876   -0.3484 C   0  0  0  0  0  0  0  0  0  0  0  0
    4.4430   -1.6937    0.5154 C   0  0  0  0  0  0  0  0  0  0  0  0
    3.4744   -2.2561    1.2943 C   0  0  0  0  0  0  0  0  0  0  0  0
    2.1793   -1.8115    1.1988 C   0  0  0  0  0  0  0  0  0  0  0  0
   -3.9073   -1.0171   -1.9342 H   0  0  0  0  0  0  0  0  0  0  0  0
   -4.3415    0.6483   -1.5895 H   0  0  0  0  0  0  0  0  0  0  0  0
   -2.9253    0.2109   -2.7183 H   0  0  0  0  0  0  0  0  0  0  0  0
    1.5897    1.5738    0.5101 H   0  0  0  0  0  0  0  0  0  0  0  0
   -1.2894    4.0267   -1.5923 H   0  0  0  0  0  0  0  0  0  0  0  0
   -2.8836    2.0634   -1.6127 H   0  0  0  0  0  0  0  0  0  0  0  0
   -2.0370   -2.3205    2.0179 H   0  0  0  0  0  0  0  0  0  0  0  0
   -2.1198    0.5011    2.1062 H   0  0  0  0  0  0  0  0  0  0  0  0
    2.4002    0.4451   -1.0898 H   0  0  0  0  0  0  0  0  0  0  0  0
    4.7138   -0.1454   -1.0262 H   0  0  0  0  0  0  0  0  0  0  0  0
    5.4797   -1.9514    0.5000 H   0  0  0  0  0  0  0  0  0  0  0  0
    3.8122   -3.0341    1.9483 H   0  0  0  0  0  0  0  0  0  0  0  0
    1.5296   -2.3651    1.8886 H   0  0  0  0  0  0  0  0  0  0  0  0
  1  2  1  0
  2  3  1  0
  3  4  2  0
  4  5  1  0
  5  6  2  0
  6  7  1  0
  6  8  1  0
  8  9  2  0
  4 10  1  0
 10 11  2  0
 11 12  1  0
 12 13  1  0
 12 14  1  0
 14 15  2  0
 10 16  1  0
 16 17  2  0
 17 18  1  0
 18 19  2  0
 19 20  1  0
 20 21  2  0
 14  2  1  0
 21 16  1  0
  9  3  1  0
  1 22  1  0
  1 23  1  0
  1 24  1  0
  5 25  1  0
  8 26  1  0
  9 27  1  0
 12 28  1  0
 13 29  1  0
 17 30  1  0
 18 31  1  0
 19 32  1  0
 20 33  1  0
 21 34  1  0
M  END
$$$$
