
     RDKit          3D

 34 34  0  0  0  0  0  0  0  0999 V2000
    4.0539    0.0795   -2.1780 C   0  0  0  0  0  0  0  0  0  0  0  0
    3.8982    0.5626   -0.7793 C   0  0  0  0  0  0  0  0  0  0  0  0
    3.8805    1.8140   -0.5435 N   0  0  0  0  0  0  0  0  0  0  0  0
    3.7681   -0.4571    0.2931 C   0  0  0  0  0  0  0  0  0  0  0  0
    4.9559   -1.3256    0.3273 C   0  0  0  0  0  0  0  0  0  0  0  0
    5.8927   -2.0287    0.3405 N   0  0  0  0  0  0  0  0  0  0  0  0
    2.5191   -1.2188    0.0636 C   0  0  0  0  0  0  0  0  0  0  0  0
    1.7989   -0.9505   -0.8800 O   0  0  0  0  0  0  0  0  0  0  0  0
    2.1151   -2.3164    0.9656 C   0  0  0  0  0  0  0  0  0  0  0  0
    1.1136   -1.5505    2.2970 S   0  0  0  0  0  0  0  0  0  0  0  0
   -0.3749   -0.9313    1.5285 C   0  0  0  0  0  0  0  0  0  0  0  0
   -1.4604   -1.2368    1.2468 N   0  0  0  0  0  0  0  0  0  0  0  0
   -2.3357   -0.4832    0.6515 N   0  0  0  0  0  0  0  0  0  0  0  0
   -2.1803    0.6054    0.3070 C   0  0  0  0  0  0  0  0  0  0  0  0
   -2.8551    1.6964   -0.3389 N   0  0  0  0  0  0  0  0  0  0  0  0
   -4.2195    1.4329   -0.7327 C   0  0  0  0  0  0  0  0  0  0  0  0
   -4.9949    1.0924    0.5081 C   0  0  0  0  0  0  0  0  0  0  0  0
   -4.2038    0.2544   -1.6837 C   0  0  0  0  0  0  0  0  0  0  0  0
   -0.3844    0.8647    0.8636 S   0  0  0  0  0  0  0  0  0  0  0  0
    4.5698    0.8742   -2.7548 H   0  0  0  0  0  0  0  0  0  0  0  0
    3.0731   -0.0870   -2.6349 H   0  0  0  0  0  0  0  0  0  0  0  0
    4.6764   -0.8512   -2.1254 H   0  0  0  0  0  0  0  0  0  0  0  0
    3.7701    2.1414    0.4463 H   0  0  0  0  0  0  0  0  0  0  0  0
    3.7283    0.0161    1.3061 H   0  0  0  0  0  0  0  0  0  0  0  0
    2.9803   -2.8066    1.4589 H   0  0  0  0  0  0  0  0  0  0  0  0
    1.5209   -3.0478    0.3819 H   0  0  0  0  0  0  0  0  0  0  0  0
   -2.3628    2.5805   -0.4881 H   0  0  0  0  0  0  0  0  0  0  0  0
   -4.6922    2.3106   -1.2162 H   0  0  0  0  0  0  0  0  0  0  0  0
   -6.0794    1.2095    0.2485 H   0  0  0  0  0  0  0  0  0  0  0  0
   -4.7374    1.8567    1.2837 H   0  0  0  0  0  0  0  0  0  0  0  0
   -4.7725    0.1075    0.9177 H   0  0  0  0  0  0  0  0  0  0  0  0
   -5.2280    0.0346   -2.0776 H   0  0  0  0  0  0  0  0  0  0  0  0
   -3.8838   -0.6610   -1.1456 H   0  0  0  0  0  0  0  0  0  0  0  0
   -3.5496    0.4191   -2.5486 H   0  0  0  0  0  0  0  0  0  0  0  0
  1  2  1  0
  2  3  2  3
  2  4  1  0
  4  5  1  0
  5  6  3  0
  4  7  1  0
  7  8  2  0
  7  9  1  0
  9 10  1  0
 10 11  1  0
 11 12  2  0
 12 13  1  0
 13 14  2  0
 14 15  1  0
 15 16  1  0
 16 17  1  0
 16 18  1  0
 14 19  1  0
 19 11  1  0
  1 20  1  0
  1 21  1  0
  1 22  1  0
  3 23  1  0
  4 24  1  0
  9 25  1  0
  9 26  1  0
 15 27  1  0
 16 28  1  0
 17 29  1  0
 17 30  1  0
 17 31  1  0
 18 32  1  0
 18 33  1  0
 18 34  1  0
M  END
$$$$
