
     RDKit          3D

 35 36  0  0  0  0  0  0  0  0999 V2000
   -5.0245    2.7436   -0.1636 C   0  0  0  0  0  0  0  0  0  0  0  0
   -4.8573    1.3494   -0.2889 O   0  0  0  0  0  0  0  0  0  0  0  0
   -3.5763    0.7849   -0.2512 C   0  0  0  0  0  0  0  0  0  0  0  0
   -2.4674    1.5766   -0.0923 C   0  0  0  0  0  0  0  0  0  0  0  0
   -1.1917    0.9897   -0.0572 C   0  0  0  0  0  0  0  0  0  0  0  0
   -1.0598   -0.3687   -0.1815 C   0  0  0  0  0  0  0  0  0  0  0  0
    0.2160   -1.0292   -0.1536 C   0  0  0  0  0  0  0  0  0  0  0  0
    0.3125   -2.2964   -0.2716 O   0  0  0  0  0  0  0  0  0  0  0  0
    1.4373   -0.2396    0.0132 C   0  0  0  0  0  0  0  0  0  0  0  0
    2.6243   -0.8085    0.0437 C   0  0  0  0  0  0  0  0  0  0  0  0
    3.8221   -0.0539    0.2054 C   0  0  0  0  0  0  0  0  0  0  0  0
    5.0379   -0.7561    0.2249 C   0  0  0  0  0  0  0  0  0  0  0  0
    6.2247   -0.0782    0.3782 C   0  0  0  0  0  0  0  0  0  0  0  0
    6.2291    1.2843    0.5128 C   0  0  0  0  0  0  0  0  0  0  0  0
    5.0860    1.9502    0.4951 N   0  0  0  0  0  0  0  0  0  0  0  0
    3.9168    1.2978    0.3455 C   0  0  0  0  0  0  0  0  0  0  0  0
   -2.1989   -1.1615   -0.3427 C   0  0  0  0  0  0  0  0  0  0  0  0
   -2.0135   -2.5132   -0.4625 O   0  0  0  0  0  0  0  0  0  0  0  0
   -3.0206   -3.4670   -0.6302 C   0  0  0  0  0  0  0  0  0  0  0  0
   -3.4519   -0.5870   -0.3774 C   0  0  0  0  0  0  0  0  0  0  0  0
   -6.0595    3.0067   -0.4668 H   0  0  0  0  0  0  0  0  0  0  0  0
   -4.3301    3.2981   -0.8372 H   0  0  0  0  0  0  0  0  0  0  0  0
   -4.8978    3.0971    0.8917 H   0  0  0  0  0  0  0  0  0  0  0  0
   -2.5894    2.6450    0.0042 H   0  0  0  0  0  0  0  0  0  0  0  0
   -0.3493    1.6368    0.0681 H   0  0  0  0  0  0  0  0  0  0  0  0
    1.3946    0.8244    0.1150 H   0  0  0  0  0  0  0  0  0  0  0  0
    2.6470   -1.9017   -0.0625 H   0  0  0  0  0  0  0  0  0  0  0  0
    5.0200   -1.8299    0.1177 H   0  0  0  0  0  0  0  0  0  0  0  0
    7.1836   -0.6151    0.3952 H   0  0  0  0  0  0  0  0  0  0  0  0
    7.1693    1.8042    0.6326 H   0  0  0  0  0  0  0  0  0  0  0  0
    2.9781    1.8881    0.3353 H   0  0  0  0  0  0  0  0  0  0  0  0
   -3.3668   -3.7636    0.3853 H   0  0  0  0  0  0  0  0  0  0  0  0
   -2.6323   -4.4175   -1.0930 H   0  0  0  0  0  0  0  0  0  0  0  0
   -3.8881   -3.0754   -1.2028 H   0  0  0  0  0  0  0  0  0  0  0  0
   -4.3241   -1.2143   -0.5026 H   0  0  0  0  0  0  0  0  0  0  0  0
  1  2  1  0
  2  3  1  0
  3  4  2  0
  4  5  1  0
  5  6  2  0
  6  7  1  0
  7  8  2  0
  7  9  1  0
  9 10  2  0
 10 11  1  0
 11 12  2  0
 12 13  1  0
 13 14  2  0
 14 15  1  0
 15 16  2  0
  6 17  1  0
 17 18  1  0
 18 19  1  0
 17 20  2  0
 20  3  1  0
 16 11  1  0
  1 21  1  0
  1 22  1  0
  1 23  1  0
  4 24  1  0
  5 25  1  0
  9 26  1  0
 10 27  1  0
 12 28  1  0
 13 29  1  0
 14 30  1  0
 16 31  1  0
 19 32  1  0
 19 33  1  0
 19 34  1  0
 20 35  1  0
M  END
$$$$
