
     RDKit          3D

 51 54  0  0  0  0  0  0  0  0999 V2000
    0.9131   -1.3979    1.6737 C   0  0  0  0  0  0  0  0  0  0  0  0
    0.6451   -0.8075    0.3142 C   0  0  2  0  0  0  0  0  0  0  0  0
    1.4822    0.3405    0.0392 N   0  0  0  0  0  0  0  0  0  0  0  0
    2.8858    0.1823   -0.0667 C   0  0  0  0  0  0  0  0  0  0  0  0
    3.4884   -1.0426    0.0572 C   0  0  0  0  0  0  0  0  0  0  0  0
    4.8782   -1.1035   -0.0535 C   0  0  0  0  0  0  0  0  0  0  0  0
    5.6568    0.0075   -0.2801 C   0  0  0  0  0  0  0  0  0  0  0  0
    7.1100   -0.0797   -0.3926 C   0  0  0  0  0  0  0  0  0  0  0  0
    7.8787   -1.2161   -0.2954 C   0  0  0  0  0  0  0  0  0  0  0  0
    9.1875   -0.8360   -0.4626 C   0  0  0  0  0  0  0  0  0  0  0  0
    9.1910    0.4828   -0.6524 N   0  0  0  0  0  0  0  0  0  0  0  0
    7.9428    0.9508   -0.6123 N   0  0  0  0  0  0  0  0  0  0  0  0
    7.5481    2.3475   -0.7791 C   0  0  0  0  0  0  0  0  0  0  0  0
    5.0298    1.1873   -0.3957 N   0  0  0  0  0  0  0  0  0  0  0  0
    3.6941    1.2876   -0.2951 C   0  0  0  0  0  0  0  0  0  0  0  0
   -0.7597   -0.4199    0.1268 C   0  0  0  0  0  0  0  0  0  0  0  0
   -1.0639    0.7499   -0.2189 O   0  0  0  0  0  0  0  0  0  0  0  0
   -1.8520   -1.3148    0.3171 N   0  0  0  0  0  0  0  0  0  0  0  0
   -3.2002   -0.9037    0.1263 C   0  0  0  0  0  0  0  0  0  0  0  0
   -3.8469   -1.0001   -1.0860 C   0  0  0  0  0  0  0  0  0  0  0  0
   -5.1625   -0.5939   -1.2511 C   0  0  0  0  0  0  0  0  0  0  0  0
   -5.8455   -0.0769   -0.1679 C   0  0  0  0  0  0  0  0  0  0  0  0
   -7.2287    0.3760   -0.2415 C   0  0  0  0  0  0  0  0  0  0  0  0
   -7.7122    1.4025    0.5436 C   0  0  0  0  0  0  0  0  0  0  0  0
   -9.0266    1.8142    0.4567 C   0  0  0  0  0  0  0  0  0  0  0  0
   -9.8976    1.2080   -0.4217 C   0  0  0  0  0  0  0  0  0  0  0  0
   -9.4199    0.2085   -1.1836 N   0  0  0  0  0  0  0  0  0  0  0  0
   -8.1320   -0.2096   -1.1122 C   0  0  0  0  0  0  0  0  0  0  0  0
   -5.1851    0.0130    1.0373 C   0  0  0  0  0  0  0  0  0  0  0  0
   -3.8942   -0.3956    1.1612 N   0  0  0  0  0  0  0  0  0  0  0  0
    0.1081   -1.1449    2.4031 H   0  0  0  0  0  0  0  0  0  0  0  0
    1.0611   -2.4780    1.6280 H   0  0  0  0  0  0  0  0  0  0  0  0
    1.8270   -0.9280    2.0832 H   0  0  0  0  0  0  0  0  0  0  0  0
    0.8704   -1.5970   -0.4337 H   0  0  0  0  0  0  0  0  0  0  0  0
    1.0565    1.3036   -0.0848 H   0  0  0  0  0  0  0  0  0  0  0  0
    2.9096   -1.9514    0.2315 H   0  0  0  0  0  0  0  0  0  0  0  0
    5.3735   -2.0634    0.0419 H   0  0  0  0  0  0  0  0  0  0  0  0
    7.5438   -2.2342   -0.1204 H   0  0  0  0  0  0  0  0  0  0  0  0
   10.0840   -1.4723   -0.4483 H   0  0  0  0  0  0  0  0  0  0  0  0
    6.7311    2.3912   -1.5430 H   0  0  0  0  0  0  0  0  0  0  0  0
    7.1215    2.7510    0.1588 H   0  0  0  0  0  0  0  0  0  0  0  0
    8.3716    2.9569   -1.1806 H   0  0  0  0  0  0  0  0  0  0  0  0
    3.1840    2.2420   -0.3883 H   0  0  0  0  0  0  0  0  0  0  0  0
   -1.5976   -2.2897    0.6053 H   0  0  0  0  0  0  0  0  0  0  0  0
   -3.3259   -1.4042   -1.9493 H   0  0  0  0  0  0  0  0  0  0  0  0
   -5.6874   -0.6617   -2.1951 H   0  0  0  0  0  0  0  0  0  0  0  0
   -7.0214    1.8781    1.2355 H   0  0  0  0  0  0  0  0  0  0  0  0
   -9.4037    2.6162    1.0704 H   0  0  0  0  0  0  0  0  0  0  0  0
  -10.9484    1.5218   -0.5055 H   0  0  0  0  0  0  0  0  0  0  0  0
   -7.8309   -1.0165   -1.7580 H   0  0  0  0  0  0  0  0  0  0  0  0
   -5.7314    0.4195    1.8768 H   0  0  0  0  0  0  0  0  0  0  0  0
  1  2  1  0
  2  3  1  0
  3  4  1  0
  4  5  2  0
  5  6  1  0
  6  7  2  0
  7  8  1  0
  8  9  2  0
  9 10  1  0
 10 11  2  0
 11 12  1  0
 12 13  1  0
  7 14  1  0
 14 15  2  0
  2 16  1  0
 16 17  2  0
 16 18  1  0
 18 19  1  0
 19 20  2  0
 20 21  1  0
 21 22  2  0
 22 23  1  0
 23 24  2  0
 24 25  1  0
 25 26  2  0
 26 27  1  0
 27 28  2  0
 22 29  1  0
 29 30  2  0
 15  4  1  0
 30 19  1  0
 12  8  1  0
 28 23  1  0
  1 31  1  0
  1 32  1  0
  1 33  1  0
  2 34  1  6
  3 35  1  0
  5 36  1  0
  6 37  1  0
  9 38  1  0
 10 39  1  0
 13 40  1  0
 13 41  1  0
 13 42  1  0
 15 43  1  0
 18 44  1  0
 20 45  1  0
 21 46  1  0
 24 47  1  0
 25 48  1  0
 26 49  1  0
 28 50  1  0
 29 51  1  0
M  END
$$$$
