
     RDKit          3D

 69 74  0  0  0  0  0  0  0  0999 V2000
   -5.6099    2.7651    1.0266 C   0  0  0  0  0  0  0  0  0  0  0  0
   -6.3848    1.5848    0.5638 C   0  0  0  0  0  0  0  0  0  0  0  0
   -7.6232    1.3285    1.1187 C   0  0  0  0  0  0  0  0  0  0  0  0
   -8.3012    0.2171    0.6496 C   0  0  0  0  0  0  0  0  0  0  0  0
   -7.7624   -0.5825   -0.3171 C   0  0  0  0  0  0  0  0  0  0  0  0
   -6.5392   -0.2839   -0.8290 N   0  0  0  0  0  0  0  0  0  0  0  0
   -5.8440    0.7802   -0.4078 C   0  0  0  0  0  0  0  0  0  0  0  0
   -4.5195    1.0471   -0.9990 C   0  0  0  0  0  0  0  0  0  0  0  0
   -3.4387    0.6599   -0.1070 N   0  0  0  0  0  0  0  0  0  0  0  0
   -2.1890    0.9534   -0.7377 C   0  0  0  0  0  0  0  0  0  0  0  0
   -1.4615   -0.3177   -1.1157 C   0  0  0  0  0  0  0  0  0  0  0  0
   -1.1605   -1.1059    0.1359 C   0  0  0  0  0  0  0  0  0  0  0  0
   -2.3503   -1.1598    1.0589 C   0  0  0  0  0  0  0  0  0  0  0  0
   -3.5708   -0.7384    0.2720 C   0  0  0  0  0  0  0  0  0  0  0  0
    0.0339   -0.5212    0.8109 C   0  0  0  0  0  0  0  0  0  0  0  0
   -0.0096    0.2659    1.8167 O   0  0  0  0  0  0  0  0  0  0  0  0
    1.1713   -1.0164    0.1133 N   0  0  0  0  0  0  0  0  0  0  0  0
    2.4470   -0.4309    0.0552 C   0  0  0  0  0  0  0  0  0  0  0  0
    2.6860    0.7847    0.6861 C   0  0  0  0  0  0  0  0  0  0  0  0
    3.9178    1.4045    0.6687 C   0  0  0  0  0  0  0  0  0  0  0  0
    4.9700    0.8005   -0.0027 C   0  0  0  0  0  0  0  0  0  0  0  0
    6.2687    1.4616   -0.0211 C   0  0  0  0  0  0  0  0  0  0  0  0
    7.4490    0.7617   -0.0688 C   0  0  0  0  0  0  0  0  0  0  0  0
    8.6823    1.3839   -0.0882 C   0  0  0  0  0  0  0  0  0  0  0  0
    8.7461    2.7758   -0.0589 C   0  0  0  0  0  0  0  0  0  0  0  0
   10.0497    3.4617   -0.0788 C   0  0  0  0  0  0  0  0  0  0  0  0
   11.1279    2.8297   -0.1187 O   0  0  0  0  0  0  0  0  0  0  0  0
   10.0471    4.8525   -0.0516 O   0  0  0  0  0  0  0  0  0  0  0  0
    7.5709    3.4922   -0.0110 C   0  0  0  0  0  0  0  0  0  0  0  0
    6.3349    2.8392    0.0079 C   0  0  0  0  0  0  0  0  0  0  0  0
    4.7440   -0.4051   -0.6318 C   0  0  0  0  0  0  0  0  0  0  0  0
    3.4937   -1.0212   -0.6064 C   0  0  0  0  0  0  0  0  0  0  0  0
    0.7239   -2.2175   -0.5106 C   0  0  0  0  0  0  0  0  0  0  0  0
    1.3493   -3.0264   -1.2384 O   0  0  0  0  0  0  0  0  0  0  0  0
   -0.6684   -2.4387   -0.1905 N   0  0  0  0  0  0  0  0  0  0  0  0
   -1.3802   -3.6669   -0.2003 C   0  0  0  0  0  0  0  0  0  0  0  0
   -2.0047   -4.0417   -1.3715 C   0  0  0  0  0  0  0  0  0  0  0  0
   -2.7051   -5.2104   -1.4534 N   0  0  0  0  0  0  0  0  0  0  0  0
   -2.7852   -6.0027   -0.3781 C   0  0  0  0  0  0  0  0  0  0  0  0
   -2.1750   -5.6536    0.7952 C   0  0  0  0  0  0  0  0  0  0  0  0
   -1.4934   -4.4995    0.8469 N   0  0  0  0  0  0  0  0  0  0  0  0
   -6.2107    3.3816    1.7171 H   0  0  0  0  0  0  0  0  0  0  0  0
   -4.6581    2.4971    1.5172 H   0  0  0  0  0  0  0  0  0  0  0  0
   -5.3797    3.3940    0.1374 H   0  0  0  0  0  0  0  0  0  0  0  0
   -8.0525    1.9535    1.8787 H   0  0  0  0  0  0  0  0  0  0  0  0
   -9.2765   -0.0023    1.0723 H   0  0  0  0  0  0  0  0  0  0  0  0
   -8.3214   -1.4498   -0.6641 H   0  0  0  0  0  0  0  0  0  0  0  0
   -4.4171    0.5664   -2.0017 H   0  0  0  0  0  0  0  0  0  0  0  0
   -4.4377    2.1383   -1.1669 H   0  0  0  0  0  0  0  0  0  0  0  0
   -1.5593    1.5086   -0.0091 H   0  0  0  0  0  0  0  0  0  0  0  0
   -2.3253    1.5611   -1.6773 H   0  0  0  0  0  0  0  0  0  0  0  0
   -2.1082   -0.8672   -1.8133 H   0  0  0  0  0  0  0  0  0  0  0  0
   -0.5077   -0.0113   -1.5925 H   0  0  0  0  0  0  0  0  0  0  0  0
   -2.2320   -0.4484    1.8935 H   0  0  0  0  0  0  0  0  0  0  0  0
   -2.5088   -2.1661    1.4886 H   0  0  0  0  0  0  0  0  0  0  0  0
   -3.6829   -1.3870   -0.6242 H   0  0  0  0  0  0  0  0  0  0  0  0
   -4.4696   -0.8021    0.9348 H   0  0  0  0  0  0  0  0  0  0  0  0
    1.9111    1.3321    1.2363 H   0  0  0  0  0  0  0  0  0  0  0  0
    4.0631    2.3576    1.1766 H   0  0  0  0  0  0  0  0  0  0  0  0
    7.4345   -0.3155   -0.0928 H   0  0  0  0  0  0  0  0  0  0  0  0
    9.6050    0.8221   -0.1259 H   0  0  0  0  0  0  0  0  0  0  0  0
   10.9393    5.3456   -0.1511 H   0  0  0  0  0  0  0  0  0  0  0  0
    7.6216    4.5696    0.0110 H   0  0  0  0  0  0  0  0  0  0  0  0
    5.4196    3.4175    0.0460 H   0  0  0  0  0  0  0  0  0  0  0  0
    5.5641   -0.8533   -1.1423 H   0  0  0  0  0  0  0  0  0  0  0  0
    3.3392   -1.9620   -1.1027 H   0  0  0  0  0  0  0  0  0  0  0  0
   -1.9612   -3.4323   -2.2523 H   0  0  0  0  0  0  0  0  0  0  0  0
   -3.3578   -6.9295   -0.4892 H   0  0  0  0  0  0  0  0  0  0  0  0
   -2.2678   -6.3275    1.6392 H   0  0  0  0  0  0  0  0  0  0  0  0
  1  2  1  0
  2  3  2  0
  3  4  1  0
  4  5  2  0
  5  6  1  0
  6  7  2  0
  7  8  1  0
  8  9  1  0
  9 10  1  0
 10 11  1  0
 11 12  1  0
 12 13  1  0
 13 14  1  0
 12 15  1  0
 15 16  2  0
 15 17  1  0
 17 18  1  0
 18 19  2  0
 19 20  1  0
 20 21  2  0
 21 22  1  0
 22 23  2  0
 23 24  1  0
 24 25  2  0
 25 26  1  0
 26 27  2  0
 26 28  1  0
 25 29  1  0
 29 30  2  0
 21 31  1  0
 31 32  2  0
 17 33  1  0
 33 34  2  0
 33 35  1  0
 35 36  1  0
 36 37  2  0
 37 38  1  0
 38 39  2  0
 39 40  1  0
 40 41  2  0
  7  2  1  0
 14  9  1  0
 32 18  1  0
 41 36  1  0
 35 12  1  0
 30 22  1  0
  1 42  1  0
  1 43  1  0
  1 44  1  0
  3 45  1  0
  4 46  1  0
  5 47  1  0
  8 48  1  0
  8 49  1  0
 10 50  1  0
 10 51  1  0
 11 52  1  0
 11 53  1  0
 13 54  1  0
 13 55  1  0
 14 56  1  0
 14 57  1  0
 19 58  1  0
 20 59  1  0
 23 60  1  0
 24 61  1  0
 28 62  1  0
 29 63  1  0
 30 64  1  0
 31 65  1  0
 32 66  1  0
 37 67  1  0
 39 68  1  0
 40 69  1  0
M  END
$$$$
