
     RDKit          3D

 47 51  0  0  0  0  0  0  0  0999 V2000
    7.4392   -0.2520    2.2014 C   0  0  0  0  0  0  0  0  0  0  0  0
    6.0179   -0.1196    2.0735 O   0  0  0  0  0  0  0  0  0  0  0  0
    5.4178   -0.4219    0.8564 C   0  0  0  0  0  0  0  0  0  0  0  0
    6.1382   -0.8048   -0.1044 O   0  0  0  0  0  0  0  0  0  0  0  0
    4.0215   -0.3010    0.7010 N   0  0  0  0  0  0  0  0  0  0  0  0
    2.9053    0.0912    1.5363 C   0  0  0  0  0  0  0  0  0  0  0  0
    1.8958   -0.3426    0.4975 C   0  0  0  0  0  0  0  0  0  0  0  0
    0.9822    0.6985    0.1291 N   0  0  0  0  0  0  0  0  0  0  0  0
    1.2882    2.0075    0.1044 C   0  0  0  0  0  0  0  0  0  0  0  0
    0.1941    2.6852   -0.2872 N   0  0  0  0  0  0  0  0  0  0  0  0
   -0.8296    1.8100   -0.5184 C   0  0  0  0  0  0  0  0  0  0  0  0
   -2.1511    2.2233   -0.9544 C   0  0  0  0  0  0  0  0  0  0  0  0
   -2.9435    3.0670   -0.2000 C   0  0  0  0  0  0  0  0  0  0  0  0
   -4.2051    3.4697   -0.6013 C   0  0  0  0  0  0  0  0  0  0  0  0
   -4.6979    3.0045   -1.8190 C   0  0  0  0  0  0  0  0  0  0  0  0
   -5.9122    3.3506   -2.2761 F   0  0  0  0  0  0  0  0  0  0  0  0
   -3.9323    2.1622   -2.5944 C   0  0  0  0  0  0  0  0  0  0  0  0
   -2.6714    1.7834   -2.1527 C   0  0  0  0  0  0  0  0  0  0  0  0
   -0.3200    0.5752   -0.2536 C   0  0  0  0  0  0  0  0  0  0  0  0
   -1.0543   -0.6674   -0.3654 C   0  0  0  0  0  0  0  0  0  0  0  0
   -0.5842   -1.6074   -1.2558 C   0  0  0  0  0  0  0  0  0  0  0  0
   -1.2498   -2.8049   -1.3972 C   0  0  0  0  0  0  0  0  0  0  0  0
   -2.3921   -3.0312   -0.6258 C   0  0  0  0  0  0  0  0  0  0  0  0
   -3.2460   -4.0667   -0.5294 N   0  0  0  0  0  0  0  0  0  0  0  0
   -4.2140   -3.8226    0.3662 C   0  0  0  0  0  0  0  0  0  0  0  0
   -3.9504   -2.5672    0.8553 C   0  0  0  0  0  0  0  0  0  0  0  0
   -4.7193   -1.8506    1.8558 C   0  0  0  0  0  0  0  0  0  0  0  0
   -5.3444   -1.2724    2.6388 N   0  0  0  0  0  0  0  0  0  0  0  0
   -2.8242   -2.0997    0.2301 N   0  0  0  0  0  0  0  0  0  0  0  0
   -2.1560   -0.9672    0.3334 N   0  0  0  0  0  0  0  0  0  0  0  0
    3.0876   -0.5233   -0.3848 C   0  0  0  0  0  0  0  0  0  0  0  0
    7.7771   -1.2531    1.8550 H   0  0  0  0  0  0  0  0  0  0  0  0
    7.9695    0.5481    1.6276 H   0  0  0  0  0  0  0  0  0  0  0  0
    7.6502   -0.1726    3.2899 H   0  0  0  0  0  0  0  0  0  0  0  0
    2.9555    1.1790    1.7362 H   0  0  0  0  0  0  0  0  0  0  0  0
    2.8612   -0.5010    2.4840 H   0  0  0  0  0  0  0  0  0  0  0  0
    1.4007   -1.2914    0.7904 H   0  0  0  0  0  0  0  0  0  0  0  0
    2.2262    2.4793    0.3458 H   0  0  0  0  0  0  0  0  0  0  0  0
   -2.5342    3.4217    0.7575 H   0  0  0  0  0  0  0  0  0  0  0  0
   -4.8042    4.1338    0.0138 H   0  0  0  0  0  0  0  0  0  0  0  0
   -4.2772    1.7733   -3.5544 H   0  0  0  0  0  0  0  0  0  0  0  0
   -2.0448    1.1243   -2.7355 H   0  0  0  0  0  0  0  0  0  0  0  0
    0.3051   -1.4383   -1.8602 H   0  0  0  0  0  0  0  0  0  0  0  0
   -0.9432   -3.5820   -2.0688 H   0  0  0  0  0  0  0  0  0  0  0  0
   -5.0046   -4.4960    0.6137 H   0  0  0  0  0  0  0  0  0  0  0  0
    3.2313   -1.5797   -0.7557 H   0  0  0  0  0  0  0  0  0  0  0  0
    3.2417    0.2489   -1.1711 H   0  0  0  0  0  0  0  0  0  0  0  0
  1  2  1  0
  2  3  1  0
  3  4  2  0
  3  5  1  0
  5  6  1  0
  6  7  1  0
  7  8  1  0
  8  9  1  0
  9 10  2  0
 10 11  1  0
 11 12  1  0
 12 13  2  0
 13 14  1  0
 14 15  2  0
 15 16  1  0
 15 17  1  0
 17 18  2  0
 11 19  2  0
 19 20  1  0
 20 21  1  0
 21 22  2  0
 22 23  1  0
 23 24  2  0
 24 25  1  0
 25 26  2  0
 26 27  1  0
 27 28  3  0
 26 29  1  0
 29 30  1  0
  7 31  1  0
 31  5  1  0
 19  8  1  0
 30 20  2  0
 18 12  1  0
 29 23  1  0
  1 32  1  0
  1 33  1  0
  1 34  1  0
  6 35  1  0
  6 36  1  0
  7 37  1  0
  9 38  1  0
 13 39  1  0
 14 40  1  0
 17 41  1  0
 18 42  1  0
 21 43  1  0
 22 44  1  0
 25 45  1  0
 31 46  1  0
 31 47  1  0
M  END
$$$$
