
     RDKit          3D

 53 57  0  0  0  0  0  0  0  0999 V2000
   -4.1767   -3.4126   -2.3216 N   0  0  0  0  0  0  0  0  0  0  0  0
   -3.3415   -2.4145   -1.7495 C   0  0  0  0  0  0  0  0  0  0  0  0
   -2.7947   -1.5796   -2.5066 O   0  0  0  0  0  0  0  0  0  0  0  0
   -3.1418   -2.3844   -0.3079 C   0  0  0  0  0  0  0  0  0  0  0  0
   -3.6802   -3.2385    0.6290 C   0  0  0  0  0  0  0  0  0  0  0  0
   -3.2519   -2.8747    1.8584 N   0  0  0  0  0  0  0  0  0  0  0  0
   -2.4494   -1.8013    1.7113 C   0  0  0  0  0  0  0  0  0  0  0  0
   -1.7631   -1.0512    2.6386 C   0  0  0  0  0  0  0  0  0  0  0  0
   -1.0105    0.0054    2.1897 C   0  0  0  0  0  0  0  0  0  0  0  0
   -0.9557    0.2920    0.8438 C   0  0  0  0  0  0  0  0  0  0  0  0
   -0.1465    1.4202    0.3841 C   0  0  0  0  0  0  0  0  0  0  0  0
   -0.5680    2.5504   -0.2307 C   0  0  0  0  0  0  0  0  0  0  0  0
   -1.9002    2.9604   -0.6022 C   0  0  0  0  0  0  0  0  0  0  0  0
   -2.6685    2.2786   -1.5263 C   0  0  0  0  0  0  0  0  0  0  0  0
   -3.9361    2.7245   -1.8343 C   0  0  0  0  0  0  0  0  0  0  0  0
   -4.4715    3.8543   -1.2351 C   0  0  0  0  0  0  0  0  0  0  0  0
   -5.7327    4.2775   -1.5573 F   0  0  0  0  0  0  0  0  0  0  0  0
   -3.7241    4.5532   -0.3086 C   0  0  0  0  0  0  0  0  0  0  0  0
   -4.3937    5.9792    0.4513 Cl  0  0  0  0  0  0  0  0  0  0  0  0
   -2.4604    4.0849   -0.0202 C   0  0  0  0  0  0  0  0  0  0  0  0
    0.5392    3.2927   -0.4617 N   0  0  0  0  0  0  0  0  0  0  0  0
    1.6280    2.6633   -0.0127 C   0  0  0  0  0  0  0  0  0  0  0  0
    1.1862    1.4883    0.5165 N   0  0  0  0  0  0  0  0  0  0  0  0
    2.1163    0.5450    1.0986 C   0  0  0  0  0  0  0  0  0  0  0  0
    2.6184   -0.4239    0.0480 C   0  0  0  0  0  0  0  0  0  0  0  0
    3.5386   -1.3809    0.5680 N   0  0  0  0  0  0  0  0  0  0  0  0
    3.9675   -2.2594   -0.4980 C   0  0  0  0  0  0  0  0  0  0  0  0
    5.3667   -1.8680   -0.8330 C   0  0  0  0  0  0  0  0  0  0  0  0
    5.9082   -1.4347    0.5181 C   0  0  0  0  0  0  0  0  0  0  0  0
    4.6813   -0.8614    1.2363 C   0  0  0  0  0  0  0  0  0  0  0  0
   -1.6480   -0.4786   -0.0039 N   0  0  0  0  0  0  0  0  0  0  0  0
   -2.3806   -1.4996    0.3876 N   0  0  0  0  0  0  0  0  0  0  0  0
   -3.8552   -4.3935   -2.4832 H   0  0  0  0  0  0  0  0  0  0  0  0
   -5.1656   -3.2057   -2.6108 H   0  0  0  0  0  0  0  0  0  0  0  0
   -4.3403   -4.0613    0.3733 H   0  0  0  0  0  0  0  0  0  0  0  0
   -1.7945   -1.2614    3.6969 H   0  0  0  0  0  0  0  0  0  0  0  0
   -0.4424    0.6385    2.9013 H   0  0  0  0  0  0  0  0  0  0  0  0
   -2.2429    1.3985   -1.9894 H   0  0  0  0  0  0  0  0  0  0  0  0
   -4.5251    2.1644   -2.5715 H   0  0  0  0  0  0  0  0  0  0  0  0
   -1.9047    4.6763    0.7241 H   0  0  0  0  0  0  0  0  0  0  0  0
    2.6285    3.0601   -0.0854 H   0  0  0  0  0  0  0  0  0  0  0  0
    2.9821    1.0856    1.5643 H   0  0  0  0  0  0  0  0  0  0  0  0
    1.6425   -0.0104    1.9291 H   0  0  0  0  0  0  0  0  0  0  0  0
    3.1027    0.1062   -0.7958 H   0  0  0  0  0  0  0  0  0  0  0  0
    1.7458   -0.9650   -0.3693 H   0  0  0  0  0  0  0  0  0  0  0  0
    3.9312   -3.3340   -0.1907 H   0  0  0  0  0  0  0  0  0  0  0  0
    3.3464   -2.1031   -1.4087 H   0  0  0  0  0  0  0  0  0  0  0  0
    5.4684   -1.0397   -1.5369 H   0  0  0  0  0  0  0  0  0  0  0  0
    5.9087   -2.7987   -1.1695 H   0  0  0  0  0  0  0  0  0  0  0  0
    6.3395   -2.2814    1.0900 H   0  0  0  0  0  0  0  0  0  0  0  0
    6.7105   -0.6775    0.4158 H   0  0  0  0  0  0  0  0  0  0  0  0
    4.7950    0.2381    1.1759 H   0  0  0  0  0  0  0  0  0  0  0  0
    4.7148   -1.2428    2.2706 H   0  0  0  0  0  0  0  0  0  0  0  0
  1  2  1  0
  2  3  2  0
  2  4  1  0
  4  5  2  0
  5  6  1  0
  6  7  2  0
  7  8  1  0
  8  9  2  0
  9 10  1  0
 10 11  1  0
 11 12  2  0
 12 13  1  0
 13 14  2  0
 14 15  1  0
 15 16  2  0
 16 17  1  0
 16 18  1  0
 18 19  1  0
 18 20  2  0
 12 21  1  0
 21 22  2  0
 22 23  1  0
 23 24  1  0
 24 25  1  0
 25 26  1  0
 26 27  1  0
 27 28  1  0
 28 29  1  0
 29 30  1  0
 10 31  2  0
 31 32  1  0
 32  4  1  0
 32  7  1  0
 23 11  1  0
 30 26  1  0
 20 13  1  0
  1 33  1  0
  1 34  1  0
  5 35  1  0
  8 36  1  0
  9 37  1  0
 14 38  1  0
 15 39  1  0
 20 40  1  0
 22 41  1  0
 24 42  1  0
 24 43  1  0
 25 44  1  0
 25 45  1  0
 27 46  1  0
 27 47  1  0
 28 48  1  0
 28 49  1  0
 29 50  1  0
 29 51  1  0
 30 52  1  0
 30 53  1  0
M  END
$$$$
