
     RDKit          3D

 40 41  0  0  0  0  0  0  0  0999 V2000
   -2.1030    2.9005    0.8796 C   0  0  0  0  0  0  0  0  0  0  0  0
   -1.5102    2.3622   -0.4278 C   0  0  0  0  0  0  0  0  0  0  0  0
   -1.3197    0.9024   -0.3848 C   0  0  0  0  0  0  0  0  0  0  0  0
   -0.0469    0.4283   -0.1252 C   0  0  0  0  0  0  0  0  0  0  0  0
    0.1626   -0.9150   -0.0588 C   0  0  0  0  0  0  0  0  0  0  0  0
    1.4508   -1.5611    0.2466 C   0  0  0  0  0  0  0  0  0  0  0  0
    2.6445   -0.7592   -0.0006 C   0  0  0  0  0  0  0  0  0  0  0  0
    3.3918   -0.9162   -1.1421 C   0  0  0  0  0  0  0  0  0  0  0  0
    4.4932   -0.1464   -1.3484 N   0  0  0  0  0  0  0  0  0  0  0  0
    4.8773    0.7748   -0.4579 C   0  0  0  0  0  0  0  0  0  0  0  0
    6.0192    1.5987   -0.6253 N   0  0  0  0  0  0  0  0  0  0  0  0
    4.1217    0.9024    0.6506 N   0  0  0  0  0  0  0  0  0  0  0  0
    3.0350    0.1892    0.9218 C   0  0  0  0  0  0  0  0  0  0  0  0
    2.3587    0.4287    2.1415 N   0  0  0  0  0  0  0  0  0  0  0  0
   -0.9289   -1.7718   -0.2585 C   0  0  0  0  0  0  0  0  0  0  0  0
   -2.1982   -1.3155   -0.5172 C   0  0  0  0  0  0  0  0  0  0  0  0
   -3.3765   -2.2066   -0.7401 C   0  0  0  0  0  0  0  0  0  0  0  0
   -4.3104   -2.2132    0.4658 C   0  0  0  0  0  0  0  0  0  0  0  0
   -2.3778    0.0485   -0.5774 C   0  0  0  0  0  0  0  0  0  0  0  0
   -3.6726    0.5389   -0.8403 O   0  0  0  0  0  0  0  0  0  0  0  0
   -2.6842    2.0886    1.3568 H   0  0  0  0  0  0  0  0  0  0  0  0
   -2.7389    3.7599    0.6010 H   0  0  0  0  0  0  0  0  0  0  0  0
   -1.2841    3.2859    1.5313 H   0  0  0  0  0  0  0  0  0  0  0  0
   -2.2320    2.6049   -1.2516 H   0  0  0  0  0  0  0  0  0  0  0  0
   -0.5788    2.9128   -0.6332 H   0  0  0  0  0  0  0  0  0  0  0  0
    0.7836    1.1102    0.0146 H   0  0  0  0  0  0  0  0  0  0  0  0
    1.4911   -1.9299    1.3069 H   0  0  0  0  0  0  0  0  0  0  0  0
    1.4890   -2.5159   -0.3640 H   0  0  0  0  0  0  0  0  0  0  0  0
    3.1581   -1.6296   -1.9135 H   0  0  0  0  0  0  0  0  0  0  0  0
    6.8764    1.2851   -1.1047 H   0  0  0  0  0  0  0  0  0  0  0  0
    5.9885    2.5676   -0.2472 H   0  0  0  0  0  0  0  0  0  0  0  0
    2.4048    1.3644    2.5710 H   0  0  0  0  0  0  0  0  0  0  0  0
    1.8232   -0.3331    2.5962 H   0  0  0  0  0  0  0  0  0  0  0  0
   -0.7788   -2.8480   -0.2081 H   0  0  0  0  0  0  0  0  0  0  0  0
   -3.0366   -3.2714   -0.8563 H   0  0  0  0  0  0  0  0  0  0  0  0
   -3.9212   -1.9674   -1.6582 H   0  0  0  0  0  0  0  0  0  0  0  0
   -3.8376   -2.7785    1.2889 H   0  0  0  0  0  0  0  0  0  0  0  0
   -4.5632   -1.1835    0.7780 H   0  0  0  0  0  0  0  0  0  0  0  0
   -5.2184   -2.7736    0.1446 H   0  0  0  0  0  0  0  0  0  0  0  0
   -3.8515    0.9820   -1.7541 H   0  0  0  0  0  0  0  0  0  0  0  0
  1  2  1  0
  2  3  1  0
  3  4  2  0
  4  5  1  0
  5  6  1  0
  6  7  1  0
  7  8  2  0
  8  9  1  0
  9 10  2  0
 10 11  1  0
 10 12  1  0
 12 13  2  0
 13 14  1  0
  5 15  2  0
 15 16  1  0
 16 17  1  0
 17 18  1  0
 16 19  2  0
 19 20  1  0
 19  3  1  0
 13  7  1  0
  1 21  1  0
  1 22  1  0
  1 23  1  0
  2 24  1  0
  2 25  1  0
  4 26  1  0
  6 27  1  0
  6 28  1  0
  8 29  1  0
 11 30  1  0
 11 31  1  0
 14 32  1  0
 14 33  1  0
 15 34  1  0
 17 35  1  0
 17 36  1  0
 18 37  1  0
 18 38  1  0
 18 39  1  0
 20 40  1  0
M  END
$$$$
