
     RDKit          3D

 87 89  0  0  0  0  0  0  0  0999 V2000
    6.9370    0.5806   -0.2900 C   0  0  2  0  0  0  0  0  0  0  0  0
    7.8328    0.9010    0.6962 O   0  0  0  0  0  0  0  0  0  0  0  0
    7.5225    0.0694   -1.5572 C   0  0  0  0  0  0  0  0  0  0  0  0
    6.4255   -0.1728   -2.4297 O   0  0  0  0  0  0  0  0  0  0  0  0
    5.7801    1.4675   -0.3249 C   0  0  1  0  0  0  0  0  0  0  0  0
    4.9896    1.2747    0.8461 O   0  0  0  0  0  0  0  0  0  0  0  0
    3.7592    0.7394    0.5915 C   0  0  1  0  0  0  0  0  0  0  0  0
    3.7189   -0.4979    1.2507 O   0  0  0  0  0  0  0  0  0  0  0  0
    2.5478   -1.1964    1.0773 C   0  0  2  0  0  0  0  0  0  0  0  0
    2.4174   -1.5781   -0.3835 C   0  0  0  0  0  0  0  0  0  0  0  0
    3.5157   -2.3760   -0.7622 O   0  0  0  0  0  0  0  0  0  0  0  0
    1.3644   -0.3401    1.4649 C   0  0  1  0  0  0  0  0  0  0  0  0
    0.3699   -1.0499    2.0855 O   0  0  0  0  0  0  0  0  0  0  0  0
   -0.8426   -1.1105    1.4420 C   0  0  1  0  0  0  0  0  0  0  0  0
   -1.1439   -2.4533    1.2884 O   0  0  0  0  0  0  0  0  0  0  0  0
   -2.2614   -2.6946    0.5270 C   0  0  2  0  0  0  0  0  0  0  0  0
   -1.8247   -3.0837   -0.8617 C   0  0  0  0  0  0  0  0  0  0  0  0
   -3.2531   -1.5725    0.5076 C   0  0  1  0  0  0  0  0  0  0  0  0
   -4.5783   -2.0800    0.2965 N   0  0  0  0  0  0  0  0  0  0  0  0
   -5.6469   -1.1433    0.2837 C   0  0  1  0  0  0  0  0  0  0  0  0
   -5.4155   -0.1285   -0.7738 C   0  0  0  0  0  0  0  0  0  0  0  0
   -6.3495    0.5049   -1.5009 C   0  0  0  0  0  0  0  0  0  0  0  0
   -6.1561    1.5380   -2.5804 C   0  0  0  0  0  0  0  0  0  0  0  0
   -6.8086    2.6849   -2.1709 O   0  0  0  0  0  0  0  0  0  0  0  0
   -7.7489    0.0637   -1.1364 C   0  0  1  0  0  0  0  0  0  0  0  0
   -8.6657    0.4740   -2.0782 O   0  0  0  0  0  0  0  0  0  0  0  0
   -7.6720   -1.4678   -1.1999 C   0  0  2  0  0  0  0  0  0  0  0  0
   -8.9649   -2.0031   -1.1298 O   0  0  0  0  0  0  0  0  0  0  0  0
   -6.9264   -1.9195    0.0318 C   0  0  1  0  0  0  0  0  0  0  0  0
   -6.6622   -3.2817   -0.1583 O   0  0  0  0  0  0  0  0  0  0  0  0
   -3.2303   -0.7259    1.7432 C   0  0  2  0  0  0  0  0  0  0  0  0
   -3.8004    0.5289    1.5338 O   0  0  0  0  0  0  0  0  0  0  0  0
   -1.8830   -0.5209    2.3586 C   0  0  1  0  0  0  0  0  0  0  0  0
   -1.7411   -1.1293    3.6062 O   0  0  0  0  0  0  0  0  0  0  0  0
    1.8640    0.8715    2.1981 C   0  0  2  0  0  0  0  0  0  0  0  0
    0.7977    1.6374    2.6071 O   0  0  0  0  0  0  0  0  0  0  0  0
    2.6803    1.6504    1.1389 C   0  0  1  0  0  0  0  0  0  0  0  0
    3.2990    2.7312    1.7484 O   0  0  0  0  0  0  0  0  0  0  0  0
    5.9233    2.9120   -0.5981 C   0  0  2  0  0  0  0  0  0  0  0  0
    4.6386    3.4396   -0.9299 O   0  0  0  0  0  0  0  0  0  0  0  0
    6.8346    3.2570   -1.7146 C   0  0  1  0  0  0  0  0  0  0  0  0
    6.7321    4.6741   -1.9929 O   0  0  0  0  0  0  0  0  0  0  0  0
    8.2892    3.1639   -1.2757 C   0  0  0  0  0  0  0  0  0  0  0  0
    8.4064    4.3647   -1.4560 O   0  0  0  0  0  0  0  0  0  0  0  0
    6.4208   -0.4448    0.1117 H   0  0  0  0  0  0  0  0  0  0  0  0
    8.1523    0.0924    1.1459 H   0  0  0  0  0  0  0  0  0  0  0  0
    8.2993    0.6312   -2.0498 H   0  0  0  0  0  0  0  0  0  0  0  0
    7.9361   -0.9824   -1.3517 H   0  0  0  0  0  0  0  0  0  0  0  0
    6.0470   -1.0511   -2.2571 H   0  0  0  0  0  0  0  0  0  0  0  0
    5.0772    1.0705   -1.1313 H   0  0  0  0  0  0  0  0  0  0  0  0
    3.6063    0.6092   -0.4787 H   0  0  0  0  0  0  0  0  0  0  0  0
    2.5896   -2.1310    1.6860 H   0  0  0  0  0  0  0  0  0  0  0  0
    1.5351   -2.2712   -0.5337 H   0  0  0  0  0  0  0  0  0  0  0  0
    2.2269   -0.7421   -1.0581 H   0  0  0  0  0  0  0  0  0  0  0  0
    4.2120   -2.3076   -0.0481 H   0  0  0  0  0  0  0  0  0  0  0  0
    0.9169    0.0459    0.5212 H   0  0  0  0  0  0  0  0  0  0  0  0
   -0.8754   -0.5519    0.4902 H   0  0  0  0  0  0  0  0  0  0  0  0
   -2.7627   -3.5836    0.9682 H   0  0  0  0  0  0  0  0  0  0  0  0
   -2.7561   -3.3938   -1.4048 H   0  0  0  0  0  0  0  0  0  0  0  0
   -1.1648   -3.9594   -0.8531 H   0  0  0  0  0  0  0  0  0  0  0  0
   -1.3496   -2.2232   -1.3845 H   0  0  0  0  0  0  0  0  0  0  0  0
   -2.9872   -0.9246   -0.3513 H   0  0  0  0  0  0  0  0  0  0  0  0
   -4.6587   -2.8898   -0.3257 H   0  0  0  0  0  0  0  0  0  0  0  0
   -5.7837   -0.6092    1.2493 H   0  0  0  0  0  0  0  0  0  0  0  0
   -4.4388    0.2521   -1.1154 H   0  0  0  0  0  0  0  0  0  0  0  0
   -5.0924    1.6605   -2.7933 H   0  0  0  0  0  0  0  0  0  0  0  0
   -6.6447    1.2069   -3.5382 H   0  0  0  0  0  0  0  0  0  0  0  0
   -6.5227    2.8902   -1.2501 H   0  0  0  0  0  0  0  0  0  0  0  0
   -8.0316    0.3981   -0.1338 H   0  0  0  0  0  0  0  0  0  0  0  0
   -9.2883   -0.2702   -2.2658 H   0  0  0  0  0  0  0  0  0  0  0  0
   -7.1639   -1.7337   -2.1397 H   0  0  0  0  0  0  0  0  0  0  0  0
   -8.9634   -2.9586   -0.9234 H   0  0  0  0  0  0  0  0  0  0  0  0
   -7.6210   -1.7758    0.8880 H   0  0  0  0  0  0  0  0  0  0  0  0
   -6.5314   -3.7671    0.6695 H   0  0  0  0  0  0  0  0  0  0  0  0
   -3.8618   -1.2025    2.5564 H   0  0  0  0  0  0  0  0  0  0  0  0
   -3.8804    1.0319    2.3748 H   0  0  0  0  0  0  0  0  0  0  0  0
   -1.7223    0.5725    2.5119 H   0  0  0  0  0  0  0  0  0  0  0  0
   -2.0174   -2.0791    3.5433 H   0  0  0  0  0  0  0  0  0  0  0  0
    2.5714    0.6799    3.0004 H   0  0  0  0  0  0  0  0  0  0  0  0
    0.6375    2.3320    1.9401 H   0  0  0  0  0  0  0  0  0  0  0  0
    1.9696    1.9135    0.3527 H   0  0  0  0  0  0  0  0  0  0  0  0
    3.5976    2.5300    2.6611 H   0  0  0  0  0  0  0  0  0  0  0  0
    6.2713    3.5046    0.2969 H   0  0  0  0  0  0  0  0  0  0  0  0
    4.5478    3.2400   -1.9045 H   0  0  0  0  0  0  0  0  0  0  0  0
    6.7097    2.7491   -2.6530 H   0  0  0  0  0  0  0  0  0  0  0  0
    6.5483    4.8077   -2.9421 H   0  0  0  0  0  0  0  0  0  0  0  0
    9.1752    2.6314   -0.9248 H   0  0  0  0  0  0  0  0  0  0  0  0
  1  2  1  0
  1  3  1  0
  3  4  1  0
  1  5  1  0
  5  6  1  0
  6  7  1  0
  7  8  1  0
  8  9  1  0
  9 10  1  0
 10 11  1  0
  9 12  1  0
 12 13  1  0
 13 14  1  0
 14 15  1  0
 15 16  1  0
 16 17  1  0
 16 18  1  0
 18 19  1  0
 19 20  1  0
 20 21  1  0
 21 22  2  0
 22 23  1  0
 23 24  1  0
 22 25  1  0
 25 26  1  0
 25 27  1  0
 27 28  1  0
 27 29  1  0
 29 30  1  0
 18 31  1  0
 31 32  1  0
 31 33  1  0
 33 34  1  0
 12 35  1  0
 35 36  1  0
 35 37  1  0
 37 38  1  0
  5 39  1  0
 39 40  1  0
 39 41  1  0
 41 42  1  0
 41 43  1  0
 43 44  2  0
 37  7  1  0
 33 14  1  0
 29 20  1  0
  1 45  1  1
  2 46  1  0
  3 47  1  0
  3 48  1  0
  4 49  1  0
  5 50  1  6
  7 51  1  6
  9 52  1  1
 10 53  1  0
 10 54  1  0
 11 55  1  0
 12 56  1  6
 14 57  1  6
 16 58  1  1
 17 59  1  0
 17 60  1  0
 17 61  1  0
 18 62  1  6
 19 63  1  0
 20 64  1  1
 21 65  1  0
 23 66  1  0
 23 67  1  0
 24 68  1  0
 25 69  1  1
 26 70  1  0
 27 71  1  6
 28 72  1  0
 29 73  1  1
 30 74  1  0
 31 75  1  1
 32 76  1  0
 33 77  1  1
 34 78  1  0
 35 79  1  1
 36 80  1  0
 37 81  1  6
 38 82  1  0
 39 83  1  1
 40 84  1  0
 41 85  1  6
 42 86  1  0
 43 87  1  0
M  END
$$$$
