
     RDKit          3D

 43 46  0  0  0  0  0  0  0  0999 V2000
   -0.5752   -3.3495    0.3043 C   0  0  0  0  0  0  0  0  0  0  0  0
   -1.4627   -2.4089   -0.3971 C   0  0  0  0  0  0  0  0  0  0  0  0
   -1.0471   -1.2427   -0.7930 C   0  0  0  0  0  0  0  0  0  0  0  0
    0.2641   -0.7002   -0.6433 C   0  0  0  0  0  0  0  0  0  0  0  0
    0.3682    0.5179   -1.1517 O   0  0  0  0  0  0  0  0  0  0  0  0
    1.4224   -1.2176   -0.0711 N   0  0  0  0  0  0  0  0  0  0  0  0
    2.5903   -0.3689   -0.0955 C   0  0  0  0  0  0  0  0  0  0  0  0
    3.4884   -0.3805   -1.1216 C   0  0  0  0  0  0  0  0  0  0  0  0
    4.6049    0.4674   -1.0896 C   0  0  0  0  0  0  0  0  0  0  0  0
    4.7949    1.3059   -0.0313 C   0  0  0  0  0  0  0  0  0  0  0  0
    5.7200    2.2271    0.3266 N   0  0  0  0  0  0  0  0  0  0  0  0
    5.4124    2.7673    1.4912 N   0  0  0  0  0  0  0  0  0  0  0  0
    4.2648    2.2276    1.9615 C   0  0  0  0  0  0  0  0  0  0  0  0
    3.8795    1.3134    1.0078 C   0  0  0  0  0  0  0  0  0  0  0  0
    2.7829    0.4723    0.9639 C   0  0  0  0  0  0  0  0  0  0  0  0
   -2.0539   -0.2564   -1.4036 C   0  0  0  0  0  0  0  0  0  0  0  0
   -2.4964    0.6892   -0.3476 C   0  0  0  0  0  0  0  0  0  0  0  0
   -3.2937    0.2757    0.6910 C   0  0  0  0  0  0  0  0  0  0  0  0
   -3.7160    1.1838    1.6702 C   0  0  0  0  0  0  0  0  0  0  0  0
   -3.3382    2.5098    1.6083 C   0  0  0  0  0  0  0  0  0  0  0  0
   -3.7247    3.4239    2.5364 F   0  0  0  0  0  0  0  0  0  0  0  0
   -2.5345    2.9262    0.5608 C   0  0  0  0  0  0  0  0  0  0  0  0
   -2.1224    2.0030   -0.4092 C   0  0  0  0  0  0  0  0  0  0  0  0
   -3.1937   -0.9082   -1.9277 N   0  0  0  0  0  0  0  0  0  0  0  0
   -3.6569   -2.1581   -1.4867 C   0  0  0  0  0  0  0  0  0  0  0  0
   -4.8303   -2.5374   -1.8007 O   0  0  0  0  0  0  0  0  0  0  0  0
   -2.7849   -2.9359   -0.7092 N   0  0  0  0  0  0  0  0  0  0  0  0
   -0.2413   -3.0168    1.3067 H   0  0  0  0  0  0  0  0  0  0  0  0
   -1.2157   -4.2580    0.5926 H   0  0  0  0  0  0  0  0  0  0  0  0
    0.2114   -3.8020   -0.3255 H   0  0  0  0  0  0  0  0  0  0  0  0
    1.4371   -2.1350    0.3284 H   0  0  0  0  0  0  0  0  0  0  0  0
    3.3445   -1.0454   -1.9682 H   0  0  0  0  0  0  0  0  0  0  0  0
    5.3284    0.4740   -1.8920 H   0  0  0  0  0  0  0  0  0  0  0  0
    6.5488    2.4426   -0.2772 H   0  0  0  0  0  0  0  0  0  0  0  0
    3.7790    2.4885    2.9027 H   0  0  0  0  0  0  0  0  0  0  0  0
    2.0958    0.5242    1.8142 H   0  0  0  0  0  0  0  0  0  0  0  0
   -1.5147    0.2476   -2.2198 H   0  0  0  0  0  0  0  0  0  0  0  0
   -3.6297   -0.7459    0.8058 H   0  0  0  0  0  0  0  0  0  0  0  0
   -4.3446    0.8560    2.4884 H   0  0  0  0  0  0  0  0  0  0  0  0
   -2.2364    3.9637    0.5085 H   0  0  0  0  0  0  0  0  0  0  0  0
   -1.5075    2.4369   -1.1850 H   0  0  0  0  0  0  0  0  0  0  0  0
   -3.7113   -0.4058   -2.7025 H   0  0  0  0  0  0  0  0  0  0  0  0
   -3.1060   -3.8707   -0.3748 H   0  0  0  0  0  0  0  0  0  0  0  0
  1  2  1  0
  2  3  2  0
  3  4  1  0
  4  5  2  0
  4  6  1  0
  6  7  1  0
  7  8  2  0
  8  9  1  0
  9 10  2  0
 10 11  1  0
 11 12  1  0
 12 13  2  0
 13 14  1  0
 14 15  2  0
  3 16  1  0
 16 17  1  0
 17 18  2  0
 18 19  1  0
 19 20  2  0
 20 21  1  0
 20 22  1  0
 22 23  2  0
 16 24  1  0
 24 25  1  0
 25 26  2  0
 25 27  1  0
 27  2  1  0
 15  7  1  0
 23 17  1  0
 14 10  1  0
  1 28  1  0
  1 29  1  0
  1 30  1  0
  6 31  1  0
  8 32  1  0
  9 33  1  0
 11 34  1  0
 13 35  1  0
 15 36  1  0
 16 37  1  0
 18 38  1  0
 19 39  1  0
 22 40  1  0
 23 41  1  0
 24 42  1  0
 27 43  1  0
M  END
$$$$
