
     RDKit          3D

 52 57  0  0  0  0  0  0  0  0999 V2000
   -4.0658    1.5435   -0.4650 C   0  0  0  0  0  0  0  0  0  0  0  0
   -3.4210    0.3234    0.1370 C   0  0  0  0  0  0  0  0  0  0  0  0
   -4.0180   -0.7297    0.7171 N   0  0  0  0  0  0  0  0  0  0  0  0
   -3.0866   -1.5785    1.1095 N   0  0  0  0  0  0  0  0  0  0  0  0
   -3.2717   -2.8627    1.7896 C   0  0  0  0  0  0  0  0  0  0  0  0
   -4.2394   -3.8111    1.2018 C   0  0  0  0  0  0  0  0  0  0  0  0
   -4.5841   -3.0880    2.4782 C   0  0  0  0  0  0  0  0  0  0  0  0
   -1.8455   -1.1019    0.7944 C   0  0  0  0  0  0  0  0  0  0  0  0
   -2.0417    0.1012    0.1800 C   0  0  0  0  0  0  0  0  0  0  0  0
   -0.7097    0.6566   -0.1472 C   0  0  1  0  0  0  0  0  0  0  0  0
   -0.5656    2.0103    0.4111 C   0  0  0  0  0  0  0  0  0  0  0  0
   -0.1546    2.2100    1.7075 C   0  0  0  0  0  0  0  0  0  0  0  0
   -0.0446    3.5076    2.2069 C   0  0  0  0  0  0  0  0  0  0  0  0
   -0.3512    4.5796    1.3906 C   0  0  0  0  0  0  0  0  0  0  0  0
   -0.2117    6.2061    2.0228 Cl  0  0  0  0  0  0  0  0  0  0  0  0
   -0.7626    4.3791    0.0941 C   0  0  0  0  0  0  0  0  0  0  0  0
   -0.8687    3.0851   -0.3936 C   0  0  0  0  0  0  0  0  0  0  0  0
   -1.2828    2.9357   -1.6917 F   0  0  0  0  0  0  0  0  0  0  0  0
    0.2305   -0.3152    0.2150 N   0  0  0  0  0  0  0  0  0  0  0  0
    1.6597   -0.3690    0.0238 C   0  0  0  0  0  0  0  0  0  0  0  0
    2.5271    0.0743    0.9761 C   0  0  0  0  0  0  0  0  0  0  0  0
    3.8979   -0.0121    0.7050 C   0  0  0  0  0  0  0  0  0  0  0  0
    4.8683    0.4647    1.7277 C   0  0  0  0  0  0  0  0  0  0  0  0
    4.3226   -0.5349   -0.4981 C   0  0  0  0  0  0  0  0  0  0  0  0
    5.5674   -0.7189   -0.9825 N   0  0  0  0  0  0  0  0  0  0  0  0
    5.4441   -1.2621   -2.2010 N   0  0  0  0  0  0  0  0  0  0  0  0
    4.1435   -1.4253   -2.4969 C   0  0  0  0  0  0  0  0  0  0  0  0
    3.6125   -1.9996   -3.7632 C   0  0  0  0  0  0  0  0  0  0  0  0
    3.4666   -0.9681   -1.4277 N   0  0  0  0  0  0  0  0  0  0  0  0
    2.1510   -0.8852   -1.1678 C   0  0  0  0  0  0  0  0  0  0  0  0
   -0.4200   -1.4000    0.8396 C   0  0  0  0  0  0  0  0  0  0  0  0
    0.0971   -2.4518    1.3550 O   0  0  0  0  0  0  0  0  0  0  0  0
   -3.6936    2.4688   -0.0077 H   0  0  0  0  0  0  0  0  0  0  0  0
   -5.1573    1.4816   -0.1870 H   0  0  0  0  0  0  0  0  0  0  0  0
   -4.0167    1.5287   -1.5686 H   0  0  0  0  0  0  0  0  0  0  0  0
   -2.3925   -3.2926    2.3093 H   0  0  0  0  0  0  0  0  0  0  0  0
   -4.0140   -4.8958    1.2961 H   0  0  0  0  0  0  0  0  0  0  0  0
   -4.8249   -3.5735    0.2954 H   0  0  0  0  0  0  0  0  0  0  0  0
   -4.5869   -3.6692    3.4149 H   0  0  0  0  0  0  0  0  0  0  0  0
   -5.3058   -2.2666    2.3881 H   0  0  0  0  0  0  0  0  0  0  0  0
   -0.7020    0.7655   -1.2783 H   0  0  0  0  0  0  0  0  0  0  0  0
    0.0873    1.4053    2.3862 H   0  0  0  0  0  0  0  0  0  0  0  0
    0.2869    3.6394    3.2478 H   0  0  0  0  0  0  0  0  0  0  0  0
   -1.0010    5.2254   -0.5385 H   0  0  0  0  0  0  0  0  0  0  0  0
    2.1904    0.4759    1.9083 H   0  0  0  0  0  0  0  0  0  0  0  0
    5.8863    0.4022    1.3088 H   0  0  0  0  0  0  0  0  0  0  0  0
    4.6768    1.5426    1.9261 H   0  0  0  0  0  0  0  0  0  0  0  0
    4.7800   -0.1598    2.6375 H   0  0  0  0  0  0  0  0  0  0  0  0
    3.9878   -1.4324   -4.6525 H   0  0  0  0  0  0  0  0  0  0  0  0
    3.8280   -3.0813   -3.8649 H   0  0  0  0  0  0  0  0  0  0  0  0
    2.5061   -1.9036   -3.7844 H   0  0  0  0  0  0  0  0  0  0  0  0
    1.4225   -1.2240   -1.8915 H   0  0  0  0  0  0  0  0  0  0  0  0
  1  2  1  0
  2  3  2  0
  3  4  1  0
  4  5  1  0
  5  6  1  0
  6  7  1  0
  4  8  1  0
  8  9  2  0
  9 10  1  0
 10 11  1  0
 11 12  2  0
 12 13  1  0
 13 14  2  0
 14 15  1  0
 14 16  1  0
 16 17  2  0
 17 18  1  0
 10 19  1  0
 19 20  1  0
 20 21  1  0
 21 22  2  0
 22 23  1  0
 22 24  1  0
 24 25  2  0
 25 26  1  0
 26 27  2  0
 27 28  1  0
 27 29  1  0
 29 30  1  0
 19 31  1  0
 31 32  2  0
  9  2  1  0
 17 11  1  0
 30 20  2  0
  7  5  1  0
 31  8  1  0
 29 24  1  0
  1 33  1  0
  1 34  1  0
  1 35  1  0
  5 36  1  0
  6 37  1  0
  6 38  1  0
  7 39  1  0
  7 40  1  0
 10 41  1  6
 12 42  1  0
 13 43  1  0
 16 44  1  0
 21 45  1  0
 23 46  1  0
 23 47  1  0
 23 48  1  0
 28 49  1  0
 28 50  1  0
 28 51  1  0
 30 52  1  0
M  END
$$$$
