
     RDKit          3D

 67 70  0  0  0  0  0  0  0  0999 V2000
    8.6353   -3.3363   -1.0381 C   0  0  0  0  0  0  0  0  0  0  0  0
    7.5288   -2.3661   -0.7309 C   0  0  0  0  0  0  0  0  0  0  0  0
    6.2610   -2.8453   -1.1501 O   0  0  0  0  0  0  0  0  0  0  0  0
    5.1045   -2.0930   -0.9644 C   0  0  0  0  0  0  0  0  0  0  0  0
    3.8857   -2.5680   -1.3735 C   0  0  0  0  0  0  0  0  0  0  0  0
    2.7374   -1.8150   -1.1883 C   0  0  0  0  0  0  0  0  0  0  0  0
    2.8138   -0.5783   -0.5887 C   0  0  0  0  0  0  0  0  0  0  0  0
    1.5980    0.2235   -0.3934 C   0  0  0  0  0  0  0  0  0  0  0  0
    1.6998    1.5812   -0.4193 C   0  0  0  0  0  0  0  0  0  0  0  0
    0.5546    2.3612   -0.2284 C   0  0  0  0  0  0  0  0  0  0  0  0
   -0.6457    1.7235   -0.0196 C   0  0  0  0  0  0  0  0  0  0  0  0
   -1.8704    2.5177    0.1833 C   0  0  0  0  0  0  0  0  0  0  0  0
   -2.6984    2.8780   -0.8676 C   0  0  0  0  0  0  0  0  0  0  0  0
   -3.8493    3.6083   -0.6764 C   0  0  0  0  0  0  0  0  0  0  0  0
   -4.7414    3.9919   -1.8197 C   0  0  0  0  0  0  0  0  0  0  0  0
   -4.3653    5.3109   -2.3554 C   0  0  0  0  0  0  0  0  0  0  0  0
   -3.4101    5.9406   -1.8381 O   0  0  0  0  0  0  0  0  0  0  0  0
   -5.0498    5.8552   -3.4151 O   0  0  0  0  0  1  0  0  0  0  0  0
   -4.1680    3.9824    0.6117 C   0  0  0  0  0  0  0  0  0  0  0  0
   -3.3356    3.6195    1.6613 C   0  0  0  0  0  0  0  0  0  0  0  0
   -2.1762    2.8855    1.4798 C   0  0  0  0  0  0  0  0  0  0  0  0
   -1.3518    2.5279    2.5348 O   0  0  0  0  0  0  0  0  0  0  0  0
   -1.7328    2.9464    3.8515 C   0  0  0  0  0  0  0  0  0  0  0  0
   -0.7741    0.3540    0.0102 C   0  0  0  0  0  0  0  0  0  0  0  0
   -2.0997   -0.2455    0.2622 C   0  0  0  0  0  0  0  0  0  0  0  0
   -2.0342   -1.5413    0.9132 N   0  0  0  0  0  0  0  0  0  0  0  0
   -2.0207   -1.6991    2.3380 C   0  0  0  0  0  0  0  0  0  0  0  0
   -0.5886   -1.6433    2.8437 C   0  0  0  0  0  0  0  0  0  0  0  0
   -1.9737   -2.6813    0.0804 C   0  0  0  0  0  0  0  0  0  0  0  0
   -1.9138   -3.8148    0.6059 O   0  0  0  0  0  0  0  0  0  0  0  0
   -1.9790   -2.6394   -1.4048 C   0  0  0  0  0  0  0  0  0  0  0  0
   -1.3890   -3.8106   -2.1882 C   0  0  0  0  0  0  0  0  0  0  0  0
   -2.8589   -3.6739   -2.0847 C   0  0  0  0  0  0  0  0  0  0  0  0
    0.3733   -0.3958   -0.1811 C   0  0  0  0  0  0  0  0  0  0  0  0
    4.0504   -0.1266   -0.1881 C   0  0  0  0  0  0  0  0  0  0  0  0
    5.1395   -0.8823   -0.3833 N   0  0  0  0  0  0  0  0  0  0  0  0
    9.4624   -2.8173   -1.6097 H   0  0  0  0  0  0  0  0  0  0  0  0
    8.2178   -4.1740   -1.6363 H   0  0  0  0  0  0  0  0  0  0  0  0
    9.0562   -3.7939   -0.1202 H   0  0  0  0  0  0  0  0  0  0  0  0
    7.5496   -2.1245    0.3554 H   0  0  0  0  0  0  0  0  0  0  0  0
    7.7477   -1.4031   -1.2498 H   0  0  0  0  0  0  0  0  0  0  0  0
    3.7643   -3.5364   -1.8514 H   0  0  0  0  0  0  0  0  0  0  0  0
    1.7848   -2.2310   -1.5324 H   0  0  0  0  0  0  0  0  0  0  0  0
    2.6452    2.0733   -0.5844 H   0  0  0  0  0  0  0  0  0  0  0  0
    0.6375    3.4493   -0.2493 H   0  0  0  0  0  0  0  0  0  0  0  0
   -2.4473    2.5825   -1.8840 H   0  0  0  0  0  0  0  0  0  0  0  0
   -4.6355    3.2078   -2.6021 H   0  0  0  0  0  0  0  0  0  0  0  0
   -5.8058    4.0216   -1.5233 H   0  0  0  0  0  0  0  0  0  0  0  0
   -5.0686    4.5590    0.7983 H   0  0  0  0  0  0  0  0  0  0  0  0
   -3.5775    3.9083    2.6829 H   0  0  0  0  0  0  0  0  0  0  0  0
   -0.9445    2.7411    4.5780 H   0  0  0  0  0  0  0  0  0  0  0  0
   -1.8469    4.0712    3.8216 H   0  0  0  0  0  0  0  0  0  0  0  0
   -2.7282    2.5689    4.1387 H   0  0  0  0  0  0  0  0  0  0  0  0
   -2.6931   -0.2890   -0.6507 H   0  0  0  0  0  0  0  0  0  0  0  0
   -2.6231    0.4374    0.9940 H   0  0  0  0  0  0  0  0  0  0  0  0
   -2.4113   -2.7347    2.5517 H   0  0  0  0  0  0  0  0  0  0  0  0
   -2.6227   -0.9625    2.8864 H   0  0  0  0  0  0  0  0  0  0  0  0
    0.0963   -2.1658    2.1126 H   0  0  0  0  0  0  0  0  0  0  0  0
   -0.4616   -2.2442    3.7900 H   0  0  0  0  0  0  0  0  0  0  0  0
   -0.2502   -0.5984    3.0206 H   0  0  0  0  0  0  0  0  0  0  0  0
   -1.9709   -1.6338   -1.9150 H   0  0  0  0  0  0  0  0  0  0  0  0
   -0.8636   -4.5794   -1.5848 H   0  0  0  0  0  0  0  0  0  0  0  0
   -0.9340   -3.6024   -3.1836 H   0  0  0  0  0  0  0  0  0  0  0  0
   -3.4550   -3.3278   -2.9545 H   0  0  0  0  0  0  0  0  0  0  0  0
   -3.4450   -4.3543   -1.4264 H   0  0  0  0  0  0  0  0  0  0  0  0
    0.3376   -1.4562   -0.1665 H   0  0  0  0  0  0  0  0  0  0  0  0
    4.1301    0.8567    0.2905 H   0  0  0  0  0  0  0  0  0  0  0  0
  1  2  1  0
  2  3  1  0
  3  4  1  0
  4  5  2  0
  5  6  1  0
  6  7  2  0
  7  8  1  0
  8  9  2  0
  9 10  1  0
 10 11  2  0
 11 12  1  0
 12 13  2  0
 13 14  1  0
 14 15  1  0
 15 16  1  0
 16 17  2  0
 16 18  1  0
 14 19  2  0
 19 20  1  0
 20 21  2  0
 21 22  1  0
 22 23  1  0
 11 24  1  0
 24 25  1  0
 25 26  1  0
 26 27  1  0
 27 28  1  0
 26 29  1  0
 29 30  2  0
 29 31  1  0
 31 32  1  0
 32 33  1  0
 24 34  2  0
  7 35  1  0
 35 36  2  0
 36  4  1  0
 34  8  1  0
 21 12  1  0
 33 31  1  0
  1 37  1  0
  1 38  1  0
  1 39  1  0
  2 40  1  0
  2 41  1  0
  5 42  1  0
  6 43  1  0
  9 44  1  0
 10 45  1  0
 13 46  1  0
 15 47  1  0
 15 48  1  0
 19 49  1  0
 20 50  1  0
 23 51  1  0
 23 52  1  0
 23 53  1  0
 25 54  1  0
 25 55  1  0
 27 56  1  0
 27 57  1  0
 28 58  1  0
 28 59  1  0
 28 60  1  0
 31 61  1  0
 32 62  1  0
 32 63  1  0
 33 64  1  0
 33 65  1  0
 34 66  1  0
 35 67  1  0
M  CHG  1  18  -1
M  END
$$$$
