
     RDKit          3D

 67 69  0  0  0  0  0  0  0  0999 V2000
   11.8866    0.4578   -0.6681 C   0  0  0  0  0  0  0  0  0  0  0  0
   10.3881    0.4461   -0.9313 C   0  0  0  0  0  0  0  0  0  0  0  0
   10.0197   -0.6773   -1.8815 C   0  0  0  0  0  0  0  0  0  0  0  0
    9.6390    0.3707    0.3334 C   0  0  0  0  0  0  0  0  0  0  0  0
   10.2859    0.2865    1.4175 O   0  0  0  0  0  0  0  0  0  0  0  0
    8.1832    0.3864    0.4144 C   0  0  0  0  0  0  0  0  0  0  0  0
    7.3997    0.5099   -0.7207 C   0  0  0  0  0  0  0  0  0  0  0  0
    6.0125    0.5159   -0.6470 C   0  0  0  0  0  0  0  0  0  0  0  0
    5.3490    0.3999    0.5530 C   0  0  0  0  0  0  0  0  0  0  0  0
    3.9684    0.4013    0.6861 O   0  0  0  0  0  0  0  0  0  0  0  0
    3.1539    0.5391   -0.4641 C   0  0  0  0  0  0  0  0  0  0  0  0
    1.7105    0.4919   -0.0979 C   0  0  0  0  0  0  0  0  0  0  0  0
    0.9990   -0.6980   -0.1081 C   0  0  0  0  0  0  0  0  0  0  0  0
   -0.3310   -0.7322    0.2459 C   0  0  0  0  0  0  0  0  0  0  0  0
   -1.0299    0.4100    0.6300 C   0  0  0  0  0  0  0  0  0  0  0  0
   -2.4322    0.3058    1.0010 C   0  0  0  0  0  0  0  0  0  0  0  0
   -3.3584    1.2994    0.8072 C   0  0  0  0  0  0  0  0  0  0  0  0
   -4.6738    1.1306    1.1836 C   0  0  0  0  0  0  0  0  0  0  0  0
   -5.1232   -0.0352    1.7706 C   0  0  0  0  0  0  0  0  0  0  0  0
   -6.7891   -0.2646    2.2408 S   0  0  0  0  0  6  0  0  0  0  0  0
   -6.8818   -1.2083    3.4305 O   0  0  0  0  0  0  0  0  0  0  0  0
   -7.4160    1.0230    2.6839 O   0  0  0  0  0  0  0  0  0  0  0  0
   -7.6016   -1.0172    0.9456 N   0  0  0  0  0  0  0  0  0  0  0  0
   -7.6311   -0.2581   -0.2744 C   0  0  1  0  0  0  0  0  0  0  0  0
   -6.9629   -1.0134   -1.3829 C   0  0  0  0  0  0  0  0  0  0  0  0
   -6.9037   -0.4841   -2.5191 O   0  0  0  0  0  0  0  0  0  0  0  0
   -6.4049   -2.2683   -1.2223 O   0  0  0  0  0  0  0  0  0  0  0  0
   -9.0772   -0.1136   -0.7077 C   0  0  0  0  0  0  0  0  0  0  0  0
   -9.6862   -1.5037   -0.9434 C   0  0  0  0  0  0  0  0  0  0  0  0
   -9.9347    0.5717    0.3108 C   0  0  0  0  0  0  0  0  0  0  0  0
   -4.1986   -1.0385    1.9688 C   0  0  0  0  0  0  0  0  0  0  0  0
   -2.8808   -0.8696    1.5909 C   0  0  0  0  0  0  0  0  0  0  0  0
   -0.3140    1.5865    0.6361 C   0  0  0  0  0  0  0  0  0  0  0  0
    1.0370    1.6290    0.2773 C   0  0  0  0  0  0  0  0  0  0  0  0
    6.1504    0.2760    1.6958 C   0  0  0  0  0  0  0  0  0  0  0  0
    7.5229    0.2712    1.6156 C   0  0  0  0  0  0  0  0  0  0  0  0
   12.1263   -0.2715    0.1286 H   0  0  0  0  0  0  0  0  0  0  0  0
   12.3840    0.2472   -1.6296 H   0  0  0  0  0  0  0  0  0  0  0  0
   12.1490    1.5004   -0.3834 H   0  0  0  0  0  0  0  0  0  0  0  0
   10.1418    1.3999   -1.4347 H   0  0  0  0  0  0  0  0  0  0  0  0
    9.7443   -0.2928   -2.8701 H   0  0  0  0  0  0  0  0  0  0  0  0
    9.2457   -1.3462   -1.4539 H   0  0  0  0  0  0  0  0  0  0  0  0
   10.9264   -1.3225   -2.0287 H   0  0  0  0  0  0  0  0  0  0  0  0
    7.8685    0.6029   -1.6797 H   0  0  0  0  0  0  0  0  0  0  0  0
    5.3918    0.6129   -1.5421 H   0  0  0  0  0  0  0  0  0  0  0  0
    3.3560   -0.2739   -1.1885 H   0  0  0  0  0  0  0  0  0  0  0  0
    3.3804    1.5244   -0.9206 H   0  0  0  0  0  0  0  0  0  0  0  0
    1.5403   -1.5811   -0.4063 H   0  0  0  0  0  0  0  0  0  0  0  0
   -0.8962   -1.6792    0.2363 H   0  0  0  0  0  0  0  0  0  0  0  0
   -3.0777    2.2333    0.3551 H   0  0  0  0  0  0  0  0  0  0  0  0
   -5.4192    1.9211    1.0325 H   0  0  0  0  0  0  0  0  0  0  0  0
   -8.5395   -1.3361    1.1998 H   0  0  0  0  0  0  0  0  0  0  0  0
   -7.1346    0.7073   -0.1000 H   0  0  0  0  0  0  0  0  0  0  0  0
   -5.8472   -2.6608   -1.9691 H   0  0  0  0  0  0  0  0  0  0  0  0
   -9.1710    0.4250   -1.6682 H   0  0  0  0  0  0  0  0  0  0  0  0
  -10.0561   -1.9553   -0.0160 H   0  0  0  0  0  0  0  0  0  0  0  0
  -10.5447   -1.3560   -1.6216 H   0  0  0  0  0  0  0  0  0  0  0  0
   -8.9463   -2.1401   -1.4956 H   0  0  0  0  0  0  0  0  0  0  0  0
  -10.2509   -0.1342    1.1158 H   0  0  0  0  0  0  0  0  0  0  0  0
  -10.8358    0.9482   -0.2331 H   0  0  0  0  0  0  0  0  0  0  0  0
   -9.3682    1.3791    0.7872 H   0  0  0  0  0  0  0  0  0  0  0  0
   -4.5551   -1.9543    2.4314 H   0  0  0  0  0  0  0  0  0  0  0  0
   -2.2195   -1.7138    1.7869 H   0  0  0  0  0  0  0  0  0  0  0  0
   -0.8289    2.4787    0.9251 H   0  0  0  0  0  0  0  0  0  0  0  0
    1.5810    2.5542    0.2878 H   0  0  0  0  0  0  0  0  0  0  0  0
    5.6356    0.1839    2.6426 H   0  0  0  0  0  0  0  0  0  0  0  0
    8.1450    0.1729    2.5121 H   0  0  0  0  0  0  0  0  0  0  0  0
  1  2  1  0
  2  3  1  0
  2  4  1  0
  4  5  2  0
  4  6  1  0
  6  7  2  0
  7  8  1  0
  8  9  2  0
  9 10  1  0
 10 11  1  0
 11 12  1  0
 12 13  2  0
 13 14  1  0
 14 15  2  0
 15 16  1  0
 16 17  2  0
 17 18  1  0
 18 19  2  0
 19 20  1  0
 20 21  2  0
 20 22  2  0
 20 23  1  0
 23 24  1  0
 24 25  1  0
 25 26  2  0
 25 27  1  0
 24 28  1  0
 28 29  1  0
 28 30  1  0
 19 31  1  0
 31 32  2  0
 15 33  1  0
 33 34  2  0
  9 35  1  0
 35 36  2  0
 36  6  1  0
 34 12  1  0
 32 16  1  0
  1 37  1  0
  1 38  1  0
  1 39  1  0
  2 40  1  0
  3 41  1  0
  3 42  1  0
  3 43  1  0
  7 44  1  0
  8 45  1  0
 11 46  1  0
 11 47  1  0
 13 48  1  0
 14 49  1  0
 17 50  1  0
 18 51  1  0
 23 52  1  0
 24 53  1  1
 27 54  1  0
 28 55  1  0
 29 56  1  0
 29 57  1  0
 29 58  1  0
 30 59  1  0
 30 60  1  0
 30 61  1  0
 31 62  1  0
 32 63  1  0
 33 64  1  0
 34 65  1  0
 35 66  1  0
 36 67  1  0
M  END
$$$$
