
     RDKit          3D

 49 51  0  0  0  0  0  0  0  0999 V2000
   -3.1641   -1.7308   -3.2323 C   0  0  0  0  0  0  0  0  0  0  0  0
   -1.8909   -1.4342   -2.6802 O   0  0  0  0  0  0  0  0  0  0  0  0
   -1.8074   -0.6403   -1.5202 C   0  0  0  0  0  0  0  0  0  0  0  0
   -2.9611   -0.2058   -0.9559 C   0  0  0  0  0  0  0  0  0  0  0  0
   -2.9172    0.5711    0.1910 C   0  0  0  0  0  0  0  0  0  0  0  0
   -4.1976    1.0389    0.7383 C   0  0  0  0  0  0  0  0  0  0  0  0
   -5.2460    1.3281   -0.1131 C   0  0  0  0  0  0  0  0  0  0  0  0
   -6.4474    1.7662    0.4210 C   0  0  0  0  0  0  0  0  0  0  0  0
   -6.6272    1.9212    1.7763 C   0  0  0  0  0  0  0  0  0  0  0  0
   -5.5812    1.6343    2.6370 C   0  0  0  0  0  0  0  0  0  0  0  0
   -4.3925    1.2003    2.0873 C   0  0  0  0  0  0  0  0  0  0  0  0
   -1.6948    0.8684    0.7108 C   0  0  0  0  0  0  0  0  0  0  0  0
   -0.5006    0.4221    0.1301 C   0  0  0  0  0  0  0  0  0  0  0  0
   -0.5424   -0.3360   -0.9923 C   0  0  0  0  0  0  0  0  0  0  0  0
    0.5895   -0.8656   -1.7527 C   0  0  0  0  0  0  0  0  0  0  0  0
    0.7835   -0.0312   -3.0496 C   0  0  0  0  0  0  0  0  0  0  0  0
    1.8096   -0.7568   -0.9559 C   0  0  0  0  0  0  0  0  0  0  0  0
    2.8401   -0.6585   -0.2932 C   0  0  0  0  0  0  0  0  0  0  0  0
    4.0416   -0.5527    0.4567 C   0  0  0  0  0  0  0  0  0  0  0  0
    5.2888   -0.5323   -0.1267 C   0  0  0  0  0  0  0  0  0  0  0  0
    5.3850   -0.6247   -1.6284 C   0  0  0  0  0  0  0  0  0  0  0  0
    6.3996   -0.4265    0.6239 N   0  0  0  0  0  0  0  0  0  0  0  0
    6.3665   -0.3352    1.9679 C   0  0  0  0  0  0  0  0  0  0  0  0
    7.5664   -0.2279    2.7452 N   0  0  0  0  0  0  0  0  0  0  0  0
    5.1559   -0.3528    2.5593 N   0  0  0  0  0  0  0  0  0  0  0  0
    4.0166   -0.4572    1.8442 C   0  0  0  0  0  0  0  0  0  0  0  0
    2.7940   -0.4532    2.5540 N   0  0  0  0  0  0  0  0  0  0  0  0
   -2.9831   -2.2133   -4.2268 H   0  0  0  0  0  0  0  0  0  0  0  0
   -3.6738   -2.4663   -2.6047 H   0  0  0  0  0  0  0  0  0  0  0  0
   -3.7706   -0.8194   -3.4338 H   0  0  0  0  0  0  0  0  0  0  0  0
   -3.9252   -0.4621   -1.3942 H   0  0  0  0  0  0  0  0  0  0  0  0
   -5.1026    1.2054   -1.1990 H   0  0  0  0  0  0  0  0  0  0  0  0
   -7.2748    1.9988   -0.2653 H   0  0  0  0  0  0  0  0  0  0  0  0
   -7.6048    2.2702    2.1059 H   0  0  0  0  0  0  0  0  0  0  0  0
   -5.7230    1.7519    3.6865 H   0  0  0  0  0  0  0  0  0  0  0  0
   -3.5478    0.9672    2.7521 H   0  0  0  0  0  0  0  0  0  0  0  0
   -1.6710    1.4735    1.6099 H   0  0  0  0  0  0  0  0  0  0  0  0
    0.4543    0.6691    0.5567 H   0  0  0  0  0  0  0  0  0  0  0  0
    0.3719   -1.9127   -2.0331 H   0  0  0  0  0  0  0  0  0  0  0  0
    0.3216    0.9712   -2.9117 H   0  0  0  0  0  0  0  0  0  0  0  0
    0.4385   -0.5801   -3.9265 H   0  0  0  0  0  0  0  0  0  0  0  0
    1.8751    0.1306   -3.1664 H   0  0  0  0  0  0  0  0  0  0  0  0
    5.2426    0.3830   -2.0807 H   0  0  0  0  0  0  0  0  0  0  0  0
    4.5613   -1.2475   -2.0061 H   0  0  0  0  0  0  0  0  0  0  0  0
    6.3917   -1.0133   -1.8963 H   0  0  0  0  0  0  0  0  0  0  0  0
    8.1375    0.6277    2.6529 H   0  0  0  0  0  0  0  0  0  0  0  0
    7.8018   -1.0234    3.3662 H   0  0  0  0  0  0  0  0  0  0  0  0
    2.5232   -1.1221    3.2966 H   0  0  0  0  0  0  0  0  0  0  0  0
    2.0906    0.2829    2.3178 H   0  0  0  0  0  0  0  0  0  0  0  0
  1  2  1  0
  2  3  1  0
  3  4  2  0
  4  5  1  0
  5  6  1  0
  6  7  2  0
  7  8  1  0
  8  9  2  0
  9 10  1  0
 10 11  2  0
  5 12  2  0
 12 13  1  0
 13 14  2  0
 14 15  1  0
 15 16  1  0
 15 17  1  0
 17 18  3  0
 18 19  1  0
 19 20  2  0
 20 21  1  0
 20 22  1  0
 22 23  2  0
 23 24  1  0
 23 25  1  0
 25 26  2  0
 26 27  1  0
 14  3  1  0
 26 19  1  0
 11  6  1  0
  1 28  1  0
  1 29  1  0
  1 30  1  0
  4 31  1  0
  7 32  1  0
  8 33  1  0
  9 34  1  0
 10 35  1  0
 11 36  1  0
 12 37  1  0
 13 38  1  0
 15 39  1  0
 16 40  1  0
 16 41  1  0
 16 42  1  0
 21 43  1  0
 21 44  1  0
 21 45  1  0
 24 46  1  0
 24 47  1  0
 27 48  1  0
 27 49  1  0
M  END
$$$$
