
     RDKit          3D

 53 56  0  0  0  0  0  0  0  0999 V2000
   -3.8376    0.7901   -2.0199 C   0  0  0  0  0  0  0  0  0  0  0  0
   -4.8051    0.9654   -0.9352 C   0  0  0  0  0  0  0  0  0  0  0  0
   -5.2914    2.1742   -0.6366 N   0  0  0  0  0  0  0  0  0  0  0  0
   -6.1801    2.3719    0.3517 C   0  0  0  0  0  0  0  0  0  0  0  0
   -6.6509    3.6774    0.6106 N   0  0  0  0  0  0  0  0  0  0  0  0
   -6.6452    1.3226    1.1227 C   0  0  0  0  0  0  0  0  0  0  0  0
   -6.1453    0.0733    0.8171 C   0  0  0  0  0  0  0  0  0  0  0  0
   -5.2324   -0.1181   -0.2007 C   0  0  0  0  0  0  0  0  0  0  0  0
   -4.7402   -1.4684   -0.4703 C   0  0  0  0  0  0  0  0  0  0  0  0
   -3.4019   -1.6440    0.0464 N   0  0  0  0  0  0  0  0  0  0  0  0
   -2.6697   -2.8480   -0.0486 C   0  0  0  0  0  0  0  0  0  0  0  0
   -3.1752   -3.8374   -0.6031 O   0  0  0  0  0  0  0  0  0  0  0  0
   -1.3215   -2.9110    0.5106 C   0  0  0  0  0  0  0  0  0  0  0  0
   -0.4698   -3.9871    0.5342 C   0  0  0  0  0  0  0  0  0  0  0  0
    0.6632   -3.5807    1.1492 N   0  0  0  0  0  0  0  0  0  0  0  0
    0.5671   -2.3201    1.5080 N   0  0  0  0  0  0  0  0  0  0  0  0
    1.6193   -1.5583    2.1992 C   0  0  0  0  0  0  0  0  0  0  0  0
    2.5117   -0.9029    1.1967 C   0  0  0  0  0  0  0  0  0  0  0  0
    3.6364   -1.5453    0.7202 C   0  0  0  0  0  0  0  0  0  0  0  0
    4.4807   -0.9714   -0.2076 C   0  0  0  0  0  0  0  0  0  0  0  0
    4.2255    0.2900   -0.7019 C   0  0  0  0  0  0  0  0  0  0  0  0
    5.1460    0.9106   -1.7094 C   0  0  0  0  0  0  0  0  0  0  0  0
    6.1683    1.6666   -1.0412 N   0  0  0  0  0  0  0  0  0  0  0  0
    7.3518    1.1202   -0.6657 C   0  0  0  0  0  0  0  0  0  0  0  0
    8.0620    2.1321   -0.0650 C   0  0  0  0  0  0  0  0  0  0  0  0
    7.2611    3.2589   -0.1070 C   0  0  0  0  0  0  0  0  0  0  0  0
    6.1086    2.9260   -0.7149 N   0  0  0  0  0  0  0  0  0  0  0  0
    3.1046    0.9433   -0.2339 C   0  0  0  0  0  0  0  0  0  0  0  0
    2.2526    0.3627    0.7033 C   0  0  0  0  0  0  0  0  0  0  0  0
   -0.6264   -1.8877    1.1335 C   0  0  0  0  0  0  0  0  0  0  0  0
   -4.3651    0.6997   -2.9857 H   0  0  0  0  0  0  0  0  0  0  0  0
   -3.2146    1.7291   -2.0959 H   0  0  0  0  0  0  0  0  0  0  0  0
   -3.1005   -0.0192   -1.8458 H   0  0  0  0  0  0  0  0  0  0  0  0
   -6.4687    4.4893   -0.0101 H   0  0  0  0  0  0  0  0  0  0  0  0
   -7.2240    3.8871    1.4700 H   0  0  0  0  0  0  0  0  0  0  0  0
   -7.3601    1.4700    1.9198 H   0  0  0  0  0  0  0  0  0  0  0  0
   -6.4811   -0.7840    1.3958 H   0  0  0  0  0  0  0  0  0  0  0  0
   -4.8154   -1.7589   -1.5411 H   0  0  0  0  0  0  0  0  0  0  0  0
   -5.3726   -2.1986    0.0807 H   0  0  0  0  0  0  0  0  0  0  0  0
   -2.9497   -0.8354    0.5163 H   0  0  0  0  0  0  0  0  0  0  0  0
   -0.7207   -4.9601    0.1182 H   0  0  0  0  0  0  0  0  0  0  0  0
    2.1923   -2.2488    2.8409 H   0  0  0  0  0  0  0  0  0  0  0  0
    1.1648   -0.7950    2.8729 H   0  0  0  0  0  0  0  0  0  0  0  0
    3.8232   -2.5338    1.1170 H   0  0  0  0  0  0  0  0  0  0  0  0
    5.3594   -1.4843   -0.5747 H   0  0  0  0  0  0  0  0  0  0  0  0
    4.5428    1.5066   -2.4122 H   0  0  0  0  0  0  0  0  0  0  0  0
    5.5928    0.0528   -2.2876 H   0  0  0  0  0  0  0  0  0  0  0  0
    7.6729    0.0937   -0.8103 H   0  0  0  0  0  0  0  0  0  0  0  0
    9.0434    2.1145    0.3691 H   0  0  0  0  0  0  0  0  0  0  0  0
    7.4973    4.2381    0.2727 H   0  0  0  0  0  0  0  0  0  0  0  0
    2.8750    1.9446   -0.6060 H   0  0  0  0  0  0  0  0  0  0  0  0
    1.3654    0.8836    1.0727 H   0  0  0  0  0  0  0  0  0  0  0  0
   -1.0227   -0.8960    1.2782 H   0  0  0  0  0  0  0  0  0  0  0  0
  1  2  1  0
  2  3  2  0
  3  4  1  0
  4  5  1  0
  4  6  2  0
  6  7  1  0
  7  8  2  0
  8  9  1  0
  9 10  1  0
 10 11  1  0
 11 12  2  0
 11 13  1  0
 13 14  1  0
 14 15  2  0
 15 16  1  0
 16 17  1  0
 17 18  1  0
 18 19  2  0
 19 20  1  0
 20 21  2  0
 21 22  1  0
 22 23  1  0
 23 24  1  0
 24 25  2  0
 25 26  1  0
 26 27  2  0
 21 28  1  0
 28 29  2  0
 16 30  1  0
  8  2  1  0
 30 13  2  0
 29 18  1  0
 27 23  1  0
  1 31  1  0
  1 32  1  0
  1 33  1  0
  5 34  1  0
  5 35  1  0
  6 36  1  0
  7 37  1  0
  9 38  1  0
  9 39  1  0
 10 40  1  0
 14 41  1  0
 17 42  1  0
 17 43  1  0
 19 44  1  0
 20 45  1  0
 22 46  1  0
 22 47  1  0
 24 48  1  0
 25 49  1  0
 26 50  1  0
 28 51  1  0
 29 52  1  0
 30 53  1  0
M  END
$$$$
