
     RDKit          3D

 48 51  0  0  0  0  0  0  0  0999 V2000
    7.6518   -1.3680    0.8599 C   0  0  0  0  0  0  0  0  0  0  0  0
    6.8794   -0.2217    0.5517 O   0  0  0  0  0  0  0  0  0  0  0  0
    5.5059   -0.2763    0.3763 C   0  0  0  0  0  0  0  0  0  0  0  0
    4.8372   -1.4992    0.5045 C   0  0  0  0  0  0  0  0  0  0  0  0
    3.4754   -1.5147    0.3238 C   0  0  0  0  0  0  0  0  0  0  0  0
    2.8043   -0.3478    0.0251 C   0  0  0  0  0  0  0  0  0  0  0  0
    3.4826    0.8645   -0.0998 C   0  0  0  0  0  0  0  0  0  0  0  0
    4.8411    0.8923    0.0782 C   0  0  0  0  0  0  0  0  0  0  0  0
    5.5525    2.1924   -0.0585 C   0  0  0  0  0  0  0  0  0  0  0  0
    4.6950    3.2110   -0.3565 F   0  0  0  0  0  0  0  0  0  0  0  0
    6.2851    2.5124    1.0665 F   0  0  0  0  0  0  0  0  0  0  0  0
    6.4751    2.1028   -1.1086 F   0  0  0  0  0  0  0  0  0  0  0  0
    1.4099   -0.6336   -0.1131 N   0  0  0  0  0  0  0  0  0  0  0  0
    0.3833    0.3658    0.0077 C   0  0  0  0  0  0  0  0  0  0  0  0
    0.6470    1.5485    0.2509 O   0  0  0  0  0  0  0  0  0  0  0  0
   -0.9401   -0.0662   -0.1647 N   0  0  0  0  0  0  0  0  0  0  0  0
   -2.1048    0.7417   -0.0887 C   0  0  0  0  0  0  0  0  0  0  0  0
   -2.1089    2.0772    0.1859 C   0  0  0  0  0  0  0  0  0  0  0  0
   -3.2871    2.8359    0.2469 C   0  0  0  0  0  0  0  0  0  0  0  0
   -3.2256    4.1719    0.5268 F   0  0  0  0  0  0  0  0  0  0  0  0
   -4.4828    2.2005    0.0197 C   0  0  0  0  0  0  0  0  0  0  0  0
   -4.5284    0.8540   -0.2611 C   0  0  0  0  0  0  0  0  0  0  0  0
   -5.8092    0.1997   -0.5001 C   0  0  0  0  0  0  0  0  0  0  0  0
   -6.8623    0.8940   -1.0906 C   0  0  0  0  0  0  0  0  0  0  0  0
   -8.0862    0.3103   -1.3332 C   0  0  0  0  0  0  0  0  0  0  0  0
   -8.2418   -1.0126   -0.9656 C   0  0  0  0  0  0  0  0  0  0  0  0
   -7.2098   -1.6839   -0.3898 N   0  0  0  0  0  0  0  0  0  0  0  0
   -6.0223   -1.1161   -0.1548 C   0  0  0  0  0  0  0  0  0  0  0  0
   -3.3597    0.1528   -0.3111 C   0  0  0  0  0  0  0  0  0  0  0  0
    1.2805   -2.0501   -0.3802 C   0  0  0  0  0  0  0  0  0  0  0  0
    2.4645   -2.6203    0.3843 C   0  0  0  0  0  0  0  0  0  0  0  0
    8.7186   -1.0723    0.9069 H   0  0  0  0  0  0  0  0  0  0  0  0
    7.5457   -2.1733    0.1275 H   0  0  0  0  0  0  0  0  0  0  0  0
    7.3996   -1.7667    1.8855 H   0  0  0  0  0  0  0  0  0  0  0  0
    5.3962   -2.3962    0.7401 H   0  0  0  0  0  0  0  0  0  0  0  0
    2.9193    1.7695   -0.3371 H   0  0  0  0  0  0  0  0  0  0  0  0
   -1.1160   -1.1030   -0.3751 H   0  0  0  0  0  0  0  0  0  0  0  0
   -1.1822    2.6117    0.3719 H   0  0  0  0  0  0  0  0  0  0  0  0
   -5.4258    2.7467    0.0560 H   0  0  0  0  0  0  0  0  0  0  0  0
   -6.7018    1.9157   -1.3601 H   0  0  0  0  0  0  0  0  0  0  0  0
   -8.9227    0.8185   -1.7887 H   0  0  0  0  0  0  0  0  0  0  0  0
   -9.1823   -1.4981   -1.1402 H   0  0  0  0  0  0  0  0  0  0  0  0
   -5.2596   -1.7139    0.3031 H   0  0  0  0  0  0  0  0  0  0  0  0
   -3.4019   -0.8887   -0.5293 H   0  0  0  0  0  0  0  0  0  0  0  0
    1.4392   -2.1791   -1.4882 H   0  0  0  0  0  0  0  0  0  0  0  0
    0.3321   -2.4910   -0.0702 H   0  0  0  0  0  0  0  0  0  0  0  0
    2.9118   -3.4882   -0.1107 H   0  0  0  0  0  0  0  0  0  0  0  0
    2.1281   -2.8085    1.4148 H   0  0  0  0  0  0  0  0  0  0  0  0
  1  2  1  0
  2  3  1  0
  3  4  2  0
  4  5  1  0
  5  6  2  0
  6  7  1  0
  7  8  2  0
  8  9  1  0
  9 10  1  0
  9 11  1  0
  9 12  1  0
  6 13  1  0
 13 14  1  0
 14 15  2  0
 14 16  1  0
 16 17  1  0
 17 18  2  0
 18 19  1  0
 19 20  1  0
 19 21  2  0
 21 22  1  0
 22 23  1  0
 23 24  2  0
 24 25  1  0
 25 26  2  0
 26 27  1  0
 27 28  2  0
 22 29  2  0
 13 30  1  0
 30 31  1  0
  8  3  1  0
 29 17  1  0
 31  5  1  0
 28 23  1  0
  1 32  1  0
  1 33  1  0
  1 34  1  0
  4 35  1  0
  7 36  1  0
 16 37  1  0
 18 38  1  0
 21 39  1  0
 24 40  1  0
 25 41  1  0
 26 42  1  0
 28 43  1  0
 29 44  1  0
 30 45  1  0
 30 46  1  0
 31 47  1  0
 31 48  1  0
M  END
$$$$
