
     RDKit          3D

 75 77  0  0  0  0  0  0  0  0999 V2000
    0.4243   -4.2418    1.8911 C   0  0  0  0  0  0  0  0  0  0  0  0
   -0.2580   -3.2056    0.9837 C   0  0  0  0  0  0  0  0  0  0  0  0
   -0.8760   -4.0229   -0.1638 C   0  0  0  0  0  0  0  0  0  0  0  0
    0.7480   -2.2268    0.4573 C   0  0  0  0  0  0  0  0  0  0  0  0
    1.3988   -1.4857    1.5600 C   0  0  2  0  0  0  0  0  0  0  0  0
    0.6244   -0.6448    2.3484 N   0  0  0  0  0  0  0  0  0  0  0  0
    0.0255    0.5180    1.8708 C   0  0  1  0  0  0  0  0  0  0  0  0
   -1.1877    0.3532    1.0334 C   0  0  0  0  0  0  0  0  0  0  0  0
   -1.2841    0.9882   -0.2208 C   0  0  0  0  0  0  0  0  0  0  0  0
   -2.4327    0.8518   -0.9794 C   0  0  0  0  0  0  0  0  0  0  0  0
   -3.4866    0.1027   -0.5262 C   0  0  0  0  0  0  0  0  0  0  0  0
   -4.6954   -0.0679   -1.2972 C   0  0  0  0  0  0  0  0  0  0  0  0
   -5.8967   -0.2413   -0.6519 C   0  0  0  0  0  0  0  0  0  0  0  0
   -7.0808   -0.4249   -1.3498 C   0  0  0  0  0  0  0  0  0  0  0  0
   -7.0357   -0.4290   -2.7424 C   0  0  0  0  0  0  0  0  0  0  0  0
   -8.5168   -0.6713   -3.6193 S   0  0  0  0  0  6  0  0  0  0  0  0
   -9.3445    0.8882   -3.8436 C   0  0  0  0  0  0  0  0  0  0  0  0
   -9.4201   -1.5878   -2.8377 O   0  0  0  0  0  0  0  0  0  0  0  0
   -8.2380   -1.2436   -4.9830 O   0  0  0  0  0  0  0  0  0  0  0  0
   -5.8477   -0.2569   -3.4130 C   0  0  0  0  0  0  0  0  0  0  0  0
   -4.6809   -0.0772   -2.6734 C   0  0  0  0  0  0  0  0  0  0  0  0
   -3.3893   -0.5140    0.6961 C   0  0  0  0  0  0  0  0  0  0  0  0
   -2.2337   -0.3848    1.4732 C   0  0  0  0  0  0  0  0  0  0  0  0
   -0.4236    1.3473    3.1052 C   0  0  0  0  0  0  0  0  0  0  0  0
   -1.0273    2.5085    2.6928 F   0  0  0  0  0  0  0  0  0  0  0  0
    0.6387    1.5752    3.9472 F   0  0  0  0  0  0  0  0  0  0  0  0
   -1.3311    0.5863    3.7900 F   0  0  0  0  0  0  0  0  0  0  0  0
    2.7839   -1.0055    1.2273 C   0  0  0  0  0  0  0  0  0  0  0  0
    3.5381   -1.6808    0.4792 O   0  0  0  0  0  0  0  0  0  0  0  0
    3.2459    0.2163    1.7620 N   0  0  0  0  0  0  0  0  0  0  0  0
    4.5937    0.7135    1.4644 C   0  0  1  0  0  0  0  0  0  0  0  0
    4.4590    1.6705    0.2869 C   0  0  0  0  0  0  0  0  0  0  0  0
    5.7636    2.2519   -0.1176 C   0  0  0  0  0  0  0  0  0  0  0  0
    6.2179    3.4707    0.3481 C   0  0  0  0  0  0  0  0  0  0  0  0
    7.4371    3.9999   -0.0207 C   0  0  0  0  0  0  0  0  0  0  0  0
    8.2531    3.3111   -0.8818 C   0  0  0  0  0  0  0  0  0  0  0  0
    7.8283    2.0943   -1.3628 C   0  0  0  0  0  0  0  0  0  0  0  0
    6.5953    1.5587   -0.9922 C   0  0  0  0  0  0  0  0  0  0  0  0
    5.2653    1.2682    2.6278 C   0  0  0  0  0  0  0  0  0  0  0  0
    6.5908    1.7723    2.6196 N   0  0  0  0  0  0  0  0  0  0  0  0
    4.6332    1.3069    3.7143 O   0  0  0  0  0  0  0  0  0  0  0  0
    0.4738   -3.9063    2.9390 H   0  0  0  0  0  0  0  0  0  0  0  0
   -0.2384   -5.1328    1.8798 H   0  0  0  0  0  0  0  0  0  0  0  0
    1.3838   -4.5328    1.4513 H   0  0  0  0  0  0  0  0  0  0  0  0
   -1.0947   -2.8143    1.5429 H   0  0  0  0  0  0  0  0  0  0  0  0
   -1.5596   -3.3995   -0.7778 H   0  0  0  0  0  0  0  0  0  0  0  0
   -0.0893   -4.4983   -0.7521 H   0  0  0  0  0  0  0  0  0  0  0  0
   -1.4695   -4.8165    0.3396 H   0  0  0  0  0  0  0  0  0  0  0  0
    0.1762   -1.5509   -0.2439 H   0  0  0  0  0  0  0  0  0  0  0  0
    1.4909   -2.7706   -0.1583 H   0  0  0  0  0  0  0  0  0  0  0  0
    1.6955   -2.3790    2.2980 H   0  0  0  0  0  0  0  0  0  0  0  0
    0.4191   -0.8585    3.3081 H   0  0  0  0  0  0  0  0  0  0  0  0
    0.6799    1.2293    1.3082 H   0  0  0  0  0  0  0  0  0  0  0  0
   -0.4779    1.5719   -0.5817 H   0  0  0  0  0  0  0  0  0  0  0  0
   -2.4984    1.3465   -1.9489 H   0  0  0  0  0  0  0  0  0  0  0  0
   -5.9256   -0.2357    0.4364 H   0  0  0  0  0  0  0  0  0  0  0  0
   -8.0384   -0.5589   -0.8484 H   0  0  0  0  0  0  0  0  0  0  0  0
   -9.3076    1.5218   -2.9371 H   0  0  0  0  0  0  0  0  0  0  0  0
   -8.8182    1.4290   -4.6512 H   0  0  0  0  0  0  0  0  0  0  0  0
  -10.4275    0.7221   -4.0586 H   0  0  0  0  0  0  0  0  0  0  0  0
   -5.8297   -0.2613   -4.4981 H   0  0  0  0  0  0  0  0  0  0  0  0
   -3.7411    0.0564   -3.1914 H   0  0  0  0  0  0  0  0  0  0  0  0
   -4.2060   -1.1128    1.0806 H   0  0  0  0  0  0  0  0  0  0  0  0
   -2.2554   -0.9240    2.4368 H   0  0  0  0  0  0  0  0  0  0  0  0
    2.6672    0.8056    2.3913 H   0  0  0  0  0  0  0  0  0  0  0  0
    5.1883   -0.1341    1.0616 H   0  0  0  0  0  0  0  0  0  0  0  0
    4.1096    1.0534   -0.5868 H   0  0  0  0  0  0  0  0  0  0  0  0
    3.7631    2.4910    0.5030 H   0  0  0  0  0  0  0  0  0  0  0  0
    5.5879    4.0237    1.0278 H   0  0  0  0  0  0  0  0  0  0  0  0
    7.7588    4.9643    0.3631 H   0  0  0  0  0  0  0  0  0  0  0  0
    9.2303    3.7158   -1.1912 H   0  0  0  0  0  0  0  0  0  0  0  0
    8.4720    1.5364   -2.0449 H   0  0  0  0  0  0  0  0  0  0  0  0
    6.2567    0.6077   -1.3680 H   0  0  0  0  0  0  0  0  0  0  0  0
    6.8951    2.6758    3.0276 H   0  0  0  0  0  0  0  0  0  0  0  0
    7.3511    1.1946    2.1690 H   0  0  0  0  0  0  0  0  0  0  0  0
  1  2  1  0
  2  3  1  0
  2  4  1  0
  4  5  1  0
  5  6  1  0
  6  7  1  0
  7  8  1  0
  8  9  2  0
  9 10  1  0
 10 11  2  0
 11 12  1  0
 12 13  2  0
 13 14  1  0
 14 15  2  0
 15 16  1  0
 16 17  1  0
 16 18  2  0
 16 19  2  0
 15 20  1  0
 20 21  2  0
 11 22  1  0
 22 23  2  0
  7 24  1  0
 24 25  1  0
 24 26  1  0
 24 27  1  0
  5 28  1  0
 28 29  2  0
 28 30  1  0
 30 31  1  0
 31 32  1  0
 32 33  1  0
 33 34  2  0
 34 35  1  0
 35 36  2  0
 36 37  1  0
 37 38  2  0
 31 39  1  0
 39 40  1  0
 39 41  2  0
 23  8  1  0
 38 33  1  0
 21 12  1  0
  1 42  1  0
  1 43  1  0
  1 44  1  0
  2 45  1  0
  3 46  1  0
  3 47  1  0
  3 48  1  0
  4 49  1  0
  4 50  1  0
  5 51  1  1
  6 52  1  0
  7 53  1  6
  9 54  1  0
 10 55  1  0
 13 56  1  0
 14 57  1  0
 17 58  1  0
 17 59  1  0
 17 60  1  0
 20 61  1  0
 21 62  1  0
 22 63  1  0
 23 64  1  0
 30 65  1  0
 31 66  1  6
 32 67  1  0
 32 68  1  0
 34 69  1  0
 35 70  1  0
 36 71  1  0
 37 72  1  0
 38 73  1  0
 40 74  1  0
 40 75  1  0
M  END
$$$$
