
     RDKit          3D

 27 28  0  0  0  0  0  0  0  0999 V2000
   -1.3916   -2.2858   -0.2959 C   0  0  0  0  0  0  0  0  0  0  0  0
   -1.0665   -0.8401   -0.3595 C   0  0  1  0  0  0  0  0  0  0  0  0
   -1.8624    0.0354    0.5494 C   0  0  0  0  0  0  0  0  0  0  0  0
   -2.0358    1.3455   -0.0471 N   0  0  0  0  0  0  0  0  0  0  0  0
   -0.9416    2.2508    0.2238 C   0  0  0  0  0  0  0  0  0  0  0  0
    0.2312    2.0292   -0.7393 C   0  0  0  0  0  0  0  0  0  0  0  0
    0.9032    0.7378   -0.3491 C   0  0  0  0  0  0  0  0  0  0  0  0
    2.2638    0.8782   -0.1412 C   0  0  0  0  0  0  0  0  0  0  0  0
    3.0721   -0.1849    0.2246 C   0  0  0  0  0  0  0  0  0  0  0  0
    2.4832   -1.4218    0.3832 C   0  0  0  0  0  0  0  0  0  0  0  0
    3.4990   -2.7757    0.8466 Cl  0  0  0  0  0  0  0  0  0  0  0  0
    1.1165   -1.6238    0.1872 C   0  0  0  0  0  0  0  0  0  0  0  0
    0.3579   -0.5206   -0.1783 C   0  0  0  0  0  0  0  0  0  0  0  0
   -2.4677   -2.3797   -0.6231 H   0  0  0  0  0  0  0  0  0  0  0  0
   -1.3604   -2.7501    0.6943 H   0  0  0  0  0  0  0  0  0  0  0  0
   -0.8222   -2.8010   -1.0871 H   0  0  0  0  0  0  0  0  0  0  0  0
   -1.3260   -0.5080   -1.4073 H   0  0  0  0  0  0  0  0  0  0  0  0
   -1.3873    0.0779    1.5526 H   0  0  0  0  0  0  0  0  0  0  0  0
   -2.8754   -0.4206    0.6755 H   0  0  0  0  0  0  0  0  0  0  0  0
   -2.8779    1.7845    0.4307 H   0  0  0  0  0  0  0  0  0  0  0  0
   -0.5271    2.1170    1.2599 H   0  0  0  0  0  0  0  0  0  0  0  0
   -1.2827    3.2869    0.1109 H   0  0  0  0  0  0  0  0  0  0  0  0
   -0.1733    1.9563   -1.7663 H   0  0  0  0  0  0  0  0  0  0  0  0
    0.9440    2.8506   -0.5831 H   0  0  0  0  0  0  0  0  0  0  0  0
    2.7303    1.8491   -0.2649 H   0  0  0  0  0  0  0  0  0  0  0  0
    4.1357   -0.0877    0.3897 H   0  0  0  0  0  0  0  0  0  0  0  0
    0.6610   -2.5993    0.3139 H   0  0  0  0  0  0  0  0  0  0  0  0
  1  2  1  0
  2  3  1  0
  3  4  1  0
  4  5  1  0
  5  6  1  0
  6  7  1  0
  7  8  2  0
  8  9  1  0
  9 10  2  0
 10 11  1  0
 10 12  1  0
 12 13  2  0
 13  2  1  0
 13  7  1  0
  1 14  1  0
  1 15  1  0
  1 16  1  0
  2 17  1  6
  3 18  1  0
  3 19  1  0
  4 20  1  0
  5 21  1  0
  5 22  1  0
  6 23  1  0
  6 24  1  0
  8 25  1  0
  9 26  1  0
 12 27  1  0
M  END
$$$$
