
     RDKit          3D

 25 24  0  0  0  0  0  0  0  0999 V2000
   -2.1309    1.0318   -1.4658 N   0  0  0  0  0  0  0  0  0  0  0  0
   -2.2449   -0.1984   -0.7413 C   0  0  1  0  0  0  0  0  0  0  0  0
   -1.1943   -0.2730    0.3718 C   0  0  0  0  0  0  0  0  0  0  0  0
    0.1553   -0.1846   -0.3074 C   0  0  0  0  0  0  0  0  0  0  0  0
    1.3153   -0.2426    0.6388 C   0  0  0  0  0  0  0  0  0  0  0  0
    2.5591   -0.1514   -0.0981 N   0  0  0  0  0  0  0  0  0  0  0  0
    3.7113   -0.2017    0.7579 C   0  0  0  0  0  0  0  0  0  0  0  0
    5.0202   -0.1219    0.1667 N   0  0  0  0  0  0  0  0  0  0  0  0
    3.6314   -0.3140    2.0202 O   0  0  0  0  0  0  0  0  0  0  0  0
   -3.5643   -0.3321   -0.0725 C   0  0  0  0  0  0  0  0  0  0  0  0
   -4.8167   -0.3767    0.5173 O   0  0  0  0  0  0  0  0  0  0  0  0
   -3.6136   -1.4324    0.5518 O   0  0  0  0  0  0  0  0  0  0  0  0
   -2.7557    1.7411   -1.0099 H   0  0  0  0  0  0  0  0  0  0  0  0
   -2.4443    0.9513   -2.4582 H   0  0  0  0  0  0  0  0  0  0  0  0
   -2.1423   -1.0254   -1.4483 H   0  0  0  0  0  0  0  0  0  0  0  0
   -1.3063   -1.1918    0.9618 H   0  0  0  0  0  0  0  0  0  0  0  0
   -1.3569    0.5915    1.0465 H   0  0  0  0  0  0  0  0  0  0  0  0
    0.1794    0.8139   -0.8119 H   0  0  0  0  0  0  0  0  0  0  0  0
    0.2842   -0.9467   -1.0830 H   0  0  0  0  0  0  0  0  0  0  0  0
    1.2949   -1.1430    1.2863 H   0  0  0  0  0  0  0  0  0  0  0  0
    1.2864    0.6284    1.3557 H   0  0  0  0  0  0  0  0  0  0  0  0
    2.7238   -0.0577   -1.1287 H   0  0  0  0  0  0  0  0  0  0  0  0
    5.1595   -1.0034   -0.3928 H   0  0  0  0  0  0  0  0  0  0  0  0
    5.4816    0.7931    0.4531 H   0  0  0  0  0  0  0  0  0  0  0  0
   -5.2324    0.4840    0.8899 H   0  0  0  0  0  0  0  0  0  0  0  0
  1  2  1  0
  2  3  1  0
  3  4  1  0
  4  5  1  0
  5  6  1  0
  6  7  1  0
  7  8  1  0
  7  9  2  0
  2 10  1  0
 10 11  1  0
 10 12  2  0
  1 13  1  0
  1 14  1  0
  2 15  1  6
  3 16  1  0
  3 17  1  0
  4 18  1  0
  4 19  1  0
  5 20  1  0
  5 21  1  0
  6 22  1  0
  8 23  1  0
  8 24  1  0
 11 25  1  0
M  END
$$$$
