
     RDKit          3D

 78 82  0  0  0  0  0  0  0  0999 V2000
    5.6365   -0.7687   -1.2616 O   0  0  0  0  0  0  0  0  0  0  0  0
    6.4956   -0.1283   -0.5934 C   0  0  0  0  0  0  0  0  0  0  0  0
    5.9924    0.8360    0.3047 N   0  0  0  0  0  0  0  0  0  0  0  0
    4.5689    1.0774    0.4511 C   0  0  0  0  0  0  0  0  0  0  0  0
    3.9041    1.5205   -0.8059 C   0  0  0  0  0  0  0  0  0  0  0  0
    2.4325    1.7453   -0.5219 C   0  0  0  0  0  0  0  0  0  0  0  0
    1.7205    0.5210   -0.0356 C   0  0  0  0  0  0  0  0  0  0  0  0
    0.2703    0.8584    0.1962 C   0  0  0  0  0  0  0  0  0  0  0  0
    0.0370    1.9316    1.2063 C   0  0  0  0  0  0  0  0  0  0  0  0
   -1.4367    2.1849    1.3568 C   0  0  0  0  0  0  0  0  0  0  0  0
   -2.2362    1.0099    1.8131 C   0  0  0  0  0  0  0  0  0  0  0  0
   -3.6994    1.4692    1.9103 C   0  0  0  0  0  0  0  0  0  0  0  0
   -4.5822    0.3596    2.3333 C   0  0  0  0  0  0  0  0  0  0  0  0
   -4.7159   -0.7639    1.4491 N   0  0  0  0  0  0  0  0  0  0  0  0
   -5.6940   -0.7353    0.4257 C   0  0  0  0  0  0  0  0  0  0  0  0
   -6.9535   -1.1884    0.8171 C   0  0  0  0  0  0  0  0  0  0  0  0
   -7.9949   -1.2190   -0.0761 C   0  0  0  0  0  0  0  0  0  0  0  0
   -7.7985   -0.8098   -1.3352 N   0  0  0  0  0  0  0  0  0  0  0  0
   -6.6090   -0.3649   -1.7680 C   0  0  0  0  0  0  0  0  0  0  0  0
   -6.3856    0.0501   -3.0586 C   0  0  0  0  0  0  0  0  0  0  0  0
   -5.1556    0.4974   -3.5006 C   0  0  0  0  0  0  0  0  0  0  0  0
   -4.9460    1.0115   -5.1622 Cl  0  0  0  0  0  0  0  0  0  0  0  0
   -4.1075    0.5216   -2.5839 C   0  0  0  0  0  0  0  0  0  0  0  0
   -4.3010    0.1125   -1.2846 C   0  0  0  0  0  0  0  0  0  0  0  0
   -5.5373   -0.3280   -0.8692 C   0  0  0  0  0  0  0  0  0  0  0  0
   -9.3466   -1.6957    0.3033 C   0  0  0  0  0  0  0  0  0  0  0  0
   -9.6337   -1.6652    1.7613 C   0  0  0  0  0  0  0  0  0  0  0  0
   -8.5418   -1.0559    2.6069 C   0  0  0  0  0  0  0  0  0  0  0  0
   -7.2075   -1.6442    2.1890 C   0  0  0  0  0  0  0  0  0  0  0  0
    7.9301   -0.3871   -0.7561 C   0  0  0  0  0  0  0  0  0  0  0  0
    8.8562    0.3143   -0.0224 C   0  0  0  0  0  0  0  0  0  0  0  0
   10.2120    0.0416   -0.2030 C   0  0  0  0  0  0  0  0  0  0  0  0
   11.1071    0.6458    0.4349 O   0  0  0  0  0  0  0  0  0  0  0  0
   10.5969   -0.9184   -1.1066 C   0  0  0  0  0  0  0  0  0  0  0  0
   11.9185   -1.2345   -1.3312 C   0  0  0  0  0  0  0  0  0  0  0  0
   12.3278   -2.1952   -2.2340 C   0  0  0  0  0  0  0  0  0  0  0  0
   11.3162   -2.8403   -2.9186 C   0  0  0  0  0  0  0  0  0  0  0  0
    9.9893   -2.5487   -2.7179 C   0  0  0  0  0  0  0  0  0  0  0  0
    9.6260   -1.5836   -1.8081 C   0  0  0  0  0  0  0  0  0  0  0  0
    8.3517   -1.2889   -1.6012 O   0  0  0  0  0  0  0  0  0  0  0  0
    6.6170    1.4008    0.8862 H   0  0  0  0  0  0  0  0  0  0  0  0
    4.3293    1.7582    1.2638 H   0  0  0  0  0  0  0  0  0  0  0  0
    4.1250    0.0741    0.7151 H   0  0  0  0  0  0  0  0  0  0  0  0
    3.9433    0.7866   -1.6343 H   0  0  0  0  0  0  0  0  0  0  0  0
    4.2885    2.5197   -1.1591 H   0  0  0  0  0  0  0  0  0  0  0  0
    1.9278    2.1122   -1.4291 H   0  0  0  0  0  0  0  0  0  0  0  0
    2.3806    2.5375    0.2750 H   0  0  0  0  0  0  0  0  0  0  0  0
    1.7829   -0.2449   -0.8158 H   0  0  0  0  0  0  0  0  0  0  0  0
    2.1223    0.1414    0.9353 H   0  0  0  0  0  0  0  0  0  0  0  0
   -0.2700   -0.0718    0.5407 H   0  0  0  0  0  0  0  0  0  0  0  0
   -0.1881    1.0981   -0.7838 H   0  0  0  0  0  0  0  0  0  0  0  0
    0.5052    2.9114    0.8942 H   0  0  0  0  0  0  0  0  0  0  0  0
    0.4602    1.6560    2.1980 H   0  0  0  0  0  0  0  0  0  0  0  0
   -1.8936    2.5332    0.3917 H   0  0  0  0  0  0  0  0  0  0  0  0
   -1.6386    3.0167    2.0864 H   0  0  0  0  0  0  0  0  0  0  0  0
   -1.9378    0.7189    2.8772 H   0  0  0  0  0  0  0  0  0  0  0  0
   -2.1328    0.0876    1.2499 H   0  0  0  0  0  0  0  0  0  0  0  0
   -4.0075    1.9316    0.9414 H   0  0  0  0  0  0  0  0  0  0  0  0
   -3.6800    2.3144    2.6356 H   0  0  0  0  0  0  0  0  0  0  0  0
   -4.2150    0.0320    3.3562 H   0  0  0  0  0  0  0  0  0  0  0  0
   -5.5869    0.8088    2.5769 H   0  0  0  0  0  0  0  0  0  0  0  0
   -4.0708   -1.5702    1.6044 H   0  0  0  0  0  0  0  0  0  0  0  0
   -7.2358    0.0177   -3.7571 H   0  0  0  0  0  0  0  0  0  0  0  0
   -3.1609    0.8771   -2.9666 H   0  0  0  0  0  0  0  0  0  0  0  0
   -3.4849    0.1260   -0.5961 H   0  0  0  0  0  0  0  0  0  0  0  0
  -10.0640   -1.0098   -0.2312 H   0  0  0  0  0  0  0  0  0  0  0  0
   -9.5027   -2.7421   -0.0697 H   0  0  0  0  0  0  0  0  0  0  0  0
   -9.8529   -2.6630    2.1951 H   0  0  0  0  0  0  0  0  0  0  0  0
  -10.5450   -1.0595    1.9378 H   0  0  0  0  0  0  0  0  0  0  0  0
   -8.4990    0.0321    2.5424 H   0  0  0  0  0  0  0  0  0  0  0  0
   -8.7194   -1.3611    3.6534 H   0  0  0  0  0  0  0  0  0  0  0  0
   -6.4109   -1.4208    2.9041 H   0  0  0  0  0  0  0  0  0  0  0  0
   -7.3078   -2.7634    2.1501 H   0  0  0  0  0  0  0  0  0  0  0  0
    8.5830    1.0757    0.6962 H   0  0  0  0  0  0  0  0  0  0  0  0
   12.6727   -0.6814   -0.7512 H   0  0  0  0  0  0  0  0  0  0  0  0
   13.3751   -2.4203   -2.3875 H   0  0  0  0  0  0  0  0  0  0  0  0
   11.6336   -3.6028   -3.6355 H   0  0  0  0  0  0  0  0  0  0  0  0
    9.2509   -3.0982   -3.2935 H   0  0  0  0  0  0  0  0  0  0  0  0
  1  2  2  0
  2  3  1  0
  3  4  1  0
  4  5  1  0
  5  6  1  0
  6  7  1  0
  7  8  1  0
  8  9  1  0
  9 10  1  0
 10 11  1  0
 11 12  1  0
 12 13  1  0
 13 14  1  0
 14 15  1  0
 15 16  2  0
 16 17  1  0
 17 18  2  0
 18 19  1  0
 19 20  2  0
 20 21  1  0
 21 22  1  0
 21 23  2  0
 23 24  1  0
 24 25  2  0
 17 26  1  0
 26 27  1  0
 27 28  1  0
 28 29  1  0
  2 30  1  0
 30 31  2  0
 31 32  1  0
 32 33  2  0
 32 34  1  0
 34 35  2  0
 35 36  1  0
 36 37  2  0
 37 38  1  0
 38 39  2  0
 39 40  1  0
 25 15  1  0
 40 30  1  0
 29 16  1  0
 39 34  1  0
 25 19  1  0
  3 41  1  0
  4 42  1  0
  4 43  1  0
  5 44  1  0
  5 45  1  0
  6 46  1  0
  6 47  1  0
  7 48  1  0
  7 49  1  0
  8 50  1  0
  8 51  1  0
  9 52  1  0
  9 53  1  0
 10 54  1  0
 10 55  1  0
 11 56  1  0
 11 57  1  0
 12 58  1  0
 12 59  1  0
 13 60  1  0
 13 61  1  0
 14 62  1  0
 20 63  1  0
 23 64  1  0
 24 65  1  0
 26 66  1  0
 26 67  1  0
 27 68  1  0
 27 69  1  0
 28 70  1  0
 28 71  1  0
 29 72  1  0
 29 73  1  0
 31 74  1  0
 35 75  1  0
 36 76  1  0
 37 77  1  0
 38 78  1  0
M  END
$$$$
