
     RDKit          3D

 44 46  0  0  0  0  0  0  0  0999 V2000
   -2.9570   -0.0817    1.5391 C   0  0  0  0  0  0  0  0  0  0  0  0
   -2.4613    0.3934    0.1927 C   0  0  1  0  0  0  0  0  0  0  0  0
   -1.1737    1.0915    0.4079 C   0  0  0  0  0  0  0  0  0  0  0  0
    0.0286    0.6852   -0.0843 C   0  0  0  0  0  0  0  0  0  0  0  0
    1.2188    1.3658    0.1505 C   0  0  0  0  0  0  0  0  0  0  0  0
    2.4553    0.9150   -0.3778 N   0  0  0  0  0  0  0  0  0  0  0  0
    3.2990    0.0202    0.3178 C   0  0  0  0  0  0  0  0  0  0  0  0
    2.8714   -0.3579    1.4610 O   0  0  0  0  0  0  0  0  0  0  0  0
    4.5655   -0.4548   -0.1995 C   0  0  0  0  0  0  0  0  0  0  0  0
    5.3538   -1.3182    0.4997 C   0  0  0  0  0  0  0  0  0  0  0  0
    6.5700   -1.7635   -0.0164 C   0  0  0  0  0  0  0  0  0  0  0  0
    6.9567   -1.3076   -1.2553 C   0  0  0  0  0  0  0  0  0  0  0  0
    8.4850   -1.8677   -1.9031 Cl  0  0  0  0  0  0  0  0  0  0  0  0
    6.1463   -0.4413   -1.9358 C   0  0  0  0  0  0  0  0  0  0  0  0
    4.9725   -0.0304   -1.4035 N   0  0  0  0  0  0  0  0  0  0  0  0
    1.1719    2.5083    0.9211 C   0  0  0  0  0  0  0  0  0  0  0  0
   -0.0125    2.9478    1.4319 C   0  0  0  0  0  0  0  0  0  0  0  0
   -1.1663    2.2385    1.1711 C   0  0  0  0  0  0  0  0  0  0  0  0
   -2.3212    2.7428    1.7064 F   0  0  0  0  0  0  0  0  0  0  0  0
   -2.2998   -0.8257   -0.6860 C   0  0  0  0  0  0  0  0  0  0  0  0
   -3.6296   -1.3519   -1.1546 C   0  0  1  0  0  0  0  0  0  0  0  0
   -3.9296   -2.7526   -0.6276 C   0  0  0  0  0  0  0  0  0  0  0  0
   -3.9711   -2.8411    0.7235 F   0  0  0  0  0  0  0  0  0  0  0  0
   -5.1598   -3.1351   -1.1261 F   0  0  0  0  0  0  0  0  0  0  0  0
   -2.9958   -3.6130   -1.1885 F   0  0  0  0  0  0  0  0  0  0  0  0
   -4.7005   -0.4673   -0.8884 O   0  0  0  0  0  0  0  0  0  0  0  0
   -4.4478    0.8960   -0.9817 C   0  0  0  0  0  0  0  0  0  0  0  0
   -5.3582    1.7994   -1.6323 N   0  0  0  0  0  0  0  0  0  0  0  0
   -3.3530    1.3203   -0.4545 N   0  0  0  0  0  0  0  0  0  0  0  0
   -2.4172   -0.9872    1.8800 H   0  0  0  0  0  0  0  0  0  0  0  0
   -4.0641   -0.2465    1.4403 H   0  0  0  0  0  0  0  0  0  0  0  0
   -2.8473    0.6531    2.3531 H   0  0  0  0  0  0  0  0  0  0  0  0
    0.0744   -0.2008   -0.6829 H   0  0  0  0  0  0  0  0  0  0  0  0
    2.7487    1.2569   -1.3104 H   0  0  0  0  0  0  0  0  0  0  0  0
    5.0036   -1.6468    1.4700 H   0  0  0  0  0  0  0  0  0  0  0  0
    7.1718   -2.4376    0.5441 H   0  0  0  0  0  0  0  0  0  0  0  0
    6.4804   -0.1014   -2.9090 H   0  0  0  0  0  0  0  0  0  0  0  0
    2.1241    3.0363    1.0981 H   0  0  0  0  0  0  0  0  0  0  0  0
   -0.0162    3.8450    2.0310 H   0  0  0  0  0  0  0  0  0  0  0  0
   -1.7376   -1.6015   -0.1271 H   0  0  0  0  0  0  0  0  0  0  0  0
   -1.6984   -0.6039   -1.5923 H   0  0  0  0  0  0  0  0  0  0  0  0
   -3.6300   -1.5076   -2.2798 H   0  0  0  0  0  0  0  0  0  0  0  0
   -5.2206    2.0333   -2.6253 H   0  0  0  0  0  0  0  0  0  0  0  0
   -6.1291    2.1944   -1.0930 H   0  0  0  0  0  0  0  0  0  0  0  0
  2  1  1  1
  2  3  1  0
  3  4  2  0
  4  5  1  0
  5  6  1  0
  6  7  1  0
  7  8  2  0
  7  9  1  0
  9 10  2  0
 10 11  1  0
 11 12  2  0
 12 13  1  0
 12 14  1  0
 14 15  2  0
  5 16  2  0
 16 17  1  0
 17 18  2  0
 18 19  1  0
  2 20  1  0
 20 21  1  0
 21 22  1  0
 22 23  1  0
 22 24  1  0
 22 25  1  0
 21 26  1  0
 26 27  1  0
 27 28  1  0
 27 29  2  0
 29  2  1  0
 18  3  1  0
 15  9  1  0
  1 30  1  0
  1 31  1  0
  1 32  1  0
  4 33  1  0
  6 34  1  0
 10 35  1  0
 11 36  1  0
 14 37  1  0
 16 38  1  0
 17 39  1  0
 20 40  1  0
 20 41  1  0
 21 42  1  6
 28 43  1  0
 28 44  1  0
M  END
$$$$
