
     RDKit          3D

 51 54  0  0  0  0  0  0  0  0999 V2000
    3.4494   -2.1099   -2.6285 O   0  0  0  0  0  0  0  0  0  0  0  0
    4.1905   -1.0573   -1.7568 S   0  0  0  0  0  6  0  0  0  0  0  0
    4.7689   -0.0799   -2.8873 O   0  0  0  0  0  0  0  0  0  0  0  0
    5.5365   -1.7295   -1.0488 N   0  0  0  0  0  0  0  0  0  0  0  0
    6.6994   -1.1897   -0.4241 C   0  0  0  0  0  0  0  0  0  0  0  0
    7.6509   -1.7380    0.1925 N   0  0  0  0  0  0  0  0  0  0  0  0
    8.7230   -1.0259    0.3883 C   0  0  0  0  0  0  0  0  0  0  0  0
    8.9778    0.1709    0.0414 C   0  0  0  0  0  0  0  0  0  0  0  0
    7.2849    0.5162   -0.8028 S   0  0  0  0  0  0  0  0  0  0  0  0
    3.0208   -0.1815   -0.9270 C   0  0  0  0  0  0  0  0  0  0  0  0
    2.8068   -0.3071    0.5542 C   0  0  0  0  0  0  0  0  0  0  0  0
    1.6384    0.2394    0.7879 C   0  0  0  0  0  0  0  0  0  0  0  0
    1.7047    0.3140    2.8297 Cl  0  0  0  0  0  0  0  0  0  0  0  0
    0.5377    0.8049    0.6617 C   0  0  0  0  0  0  0  0  0  0  0  0
   -0.6579    1.4191    0.5246 N   0  0  0  0  0  0  0  0  0  0  0  0
   -1.5613    0.9382    1.8056 C   0  0  0  0  0  0  0  0  0  0  0  0
   -2.1292   -0.2936    1.2760 C   0  0  1  0  0  0  0  0  0  0  0  0
   -2.8661   -1.2278    2.1021 N   0  0  0  0  0  0  0  0  0  0  0  0
   -2.7323   -2.5147    1.3710 C   0  0  0  0  0  0  0  0  0  0  0  0
   -2.3759   -2.2779   -0.0950 C   0  0  0  0  0  0  0  0  0  0  0  0
   -3.2617   -1.1692   -0.5825 C   0  0  0  0  0  0  0  0  0  0  0  0
   -3.1568   -0.0772    0.1580 C   0  0  0  0  0  0  0  0  0  0  0  0
   -4.0869    1.0069    0.0100 C   0  0  0  0  0  0  0  0  0  0  0  0
   -5.3642    0.6868   -0.6862 C   0  0  0  0  0  0  0  0  0  0  0  0
   -6.3037    1.6201   -0.8307 C   0  0  0  0  0  0  0  0  0  0  0  0
   -6.1983    2.9013   -0.3890 C   0  0  0  0  0  0  0  0  0  0  0  0
   -7.1660    3.8023   -0.5377 F   0  0  0  0  0  0  0  0  0  0  0  0
   -4.9991    3.2622    0.2764 C   0  0  0  0  0  0  0  0  0  0  0  0
   -4.0283    2.2803    0.4196 C   0  0  0  0  0  0  0  0  0  0  0  0
    0.8410    0.9478   -1.0674 C   0  0  0  0  0  0  0  0  0  0  0  0
    1.9688    0.4437   -1.4824 C   0  0  0  0  0  0  0  0  0  0  0  0
    2.1431    0.5013   -2.9329 F   0  0  0  0  0  0  0  0  0  0  0  0
    5.5278   -2.8291   -0.9832 H   0  0  0  0  0  0  0  0  0  0  0  0
    9.5444   -1.6113    1.0075 H   0  0  0  0  0  0  0  0  0  0  0  0
    9.6697    1.0585    0.0013 H   0  0  0  0  0  0  0  0  0  0  0  0
    3.5749   -0.7808    1.0654 H   0  0  0  0  0  0  0  0  0  0  0  0
   -1.1840    1.9756   -0.0424 H   0  0  0  0  0  0  0  0  0  0  0  0
   -2.0868    1.7670    2.1395 H   0  0  0  0  0  0  0  0  0  0  0  0
   -0.7459    0.7009    2.5162 H   0  0  0  0  0  0  0  0  0  0  0  0
   -1.2566   -0.8518    0.8265 H   0  0  0  0  0  0  0  0  0  0  0  0
   -3.8427   -0.9407    2.1745 H   0  0  0  0  0  0  0  0  0  0  0  0
   -3.7403   -2.9717    1.4274 H   0  0  0  0  0  0  0  0  0  0  0  0
   -1.9487   -3.0732    1.9248 H   0  0  0  0  0  0  0  0  0  0  0  0
   -2.7848   -3.2010   -0.6260 H   0  0  0  0  0  0  0  0  0  0  0  0
   -1.3468   -2.2303   -0.3379 H   0  0  0  0  0  0  0  0  0  0  0  0
   -3.8666   -1.2355   -1.4335 H   0  0  0  0  0  0  0  0  0  0  0  0
   -5.4186   -0.3425   -0.9966 H   0  0  0  0  0  0  0  0  0  0  0  0
   -7.2375    1.3178   -1.3950 H   0  0  0  0  0  0  0  0  0  0  0  0
   -4.8847    4.2514    0.6838 H   0  0  0  0  0  0  0  0  0  0  0  0
   -3.1216    2.6747    0.8552 H   0  0  0  0  0  0  0  0  0  0  0  0
    0.0941    1.4453   -1.5055 H   0  0  0  0  0  0  0  0  0  0  0  0
  1  2  2  0
  2  3  2  0
  2  4  1  0
  4  5  1  0
  5  6  2  0
  6  7  1  0
  7  8  2  0
  8  9  1  0
  2 10  1  0
 10 11  2  0
 11 12  1  0
 12 13  1  0
 12 14  2  0
 14 15  1  0
 15 16  1  0
 16 17  1  0
 17 18  1  0
 18 19  1  0
 19 20  1  0
 20 21  1  0
 21 22  2  0
 22 23  1  0
 23 24  2  0
 24 25  1  0
 25 26  2  0
 26 27  1  0
 26 28  1  0
 28 29  2  0
 14 30  1  0
 30 31  2  0
 31 32  1  0
  9  5  1  0
 31 10  1  0
 22 17  1  0
 29 23  1  0
  4 33  1  0
  7 34  1  0
  8 35  1  0
 11 36  1  0
 15 37  1  0
 16 38  1  0
 16 39  1  0
 17 40  1  6
 18 41  1  0
 19 42  1  0
 19 43  1  0
 20 44  1  0
 20 45  1  0
 21 46  1  0
 24 47  1  0
 25 48  1  0
 28 49  1  0
 29 50  1  0
 30 51  1  0
M  END
$$$$
