
     RDKit          3D

 41 43  0  0  0  0  0  0  0  0999 V2000
    4.8561    1.5026    0.6420 C   0  0  0  0  0  0  0  0  0  0  0  0
    3.7012    1.2105   -0.1852 N   0  0  0  0  0  0  0  0  0  0  0  0
    3.4280   -0.2026   -0.0877 C   0  0  0  0  0  0  0  0  0  0  0  0
    2.2364   -0.6155   -0.9167 C   0  0  0  0  0  0  0  0  0  0  0  0
    0.9745    0.0723   -0.5168 C   0  0  0  0  0  0  0  0  0  0  0  0
   -0.2728   -0.0431   -0.0616 C   0  0  0  0  0  0  0  0  0  0  0  0
   -1.0835    1.1924    0.1341 C   0  0  0  0  0  0  0  0  0  0  0  0
   -0.2618    2.2314    0.5044 C   0  0  0  0  0  0  0  0  0  0  0  0
   -0.9083    3.4098    0.6795 C   0  0  0  0  0  0  0  0  0  0  0  0
   -2.2838    3.5164    0.4921 C   0  0  0  0  0  0  0  0  0  0  0  0
   -3.0554    2.4118    0.1158 C   0  0  0  0  0  0  0  0  0  0  0  0
   -2.4421    1.1657   -0.0805 C   0  0  0  0  0  0  0  0  0  0  0  0
   -3.4995    0.2188   -0.4425 C   0  0  0  0  0  0  0  0  0  0  0  0
   -3.1373   -1.1361   -0.8913 C   0  0  0  0  0  0  0  0  0  0  0  0
   -2.0175   -1.8120   -0.2266 C   0  0  0  0  0  0  0  0  0  0  0  0
   -2.2865   -3.1588    0.0637 C   0  0  0  0  0  0  0  0  0  0  0  0
   -1.3291   -3.9680    0.6879 C   0  0  0  0  0  0  0  0  0  0  0  0
   -0.0806   -3.4843    1.0473 C   0  0  0  0  0  0  0  0  0  0  0  0
    0.2717   -2.1756    0.8025 C   0  0  0  0  0  0  0  0  0  0  0  0
   -0.7236   -1.4401    0.1840 C   0  0  0  0  0  0  0  0  0  0  0  0
    5.4842    0.5916    0.6615 H   0  0  0  0  0  0  0  0  0  0  0  0
    4.4327    1.7358    1.6624 H   0  0  0  0  0  0  0  0  0  0  0  0
    5.4149    2.3811    0.2600 H   0  0  0  0  0  0  0  0  0  0  0  0
    3.8241    1.5066   -1.1746 H   0  0  0  0  0  0  0  0  0  0  0  0
    3.2096   -0.3921    0.9864 H   0  0  0  0  0  0  0  0  0  0  0  0
    4.3309   -0.7834   -0.3619 H   0  0  0  0  0  0  0  0  0  0  0  0
    2.5475   -0.3501   -1.9860 H   0  0  0  0  0  0  0  0  0  0  0  0
    2.1112   -1.7024   -1.0306 H   0  0  0  0  0  0  0  0  0  0  0  0
    1.3176    1.0674   -0.7526 H   0  0  0  0  0  0  0  0  0  0  0  0
    0.7954    2.0742    0.6510 H   0  0  0  0  0  0  0  0  0  0  0  0
   -0.3475    4.3005    0.9738 H   0  0  0  0  0  0  0  0  0  0  0  0
   -2.7828    4.4881    0.6415 H   0  0  0  0  0  0  0  0  0  0  0  0
   -4.1180    2.5792   -0.0087 H   0  0  0  0  0  0  0  0  0  0  0  0
   -4.0609    0.7027   -1.2918 H   0  0  0  0  0  0  0  0  0  0  0  0
   -4.2462    0.1962    0.3919 H   0  0  0  0  0  0  0  0  0  0  0  0
   -3.0267   -1.1490   -2.0012 H   0  0  0  0  0  0  0  0  0  0  0  0
   -4.0373   -1.7832   -0.7123 H   0  0  0  0  0  0  0  0  0  0  0  0
   -3.2330   -3.5965   -0.1873 H   0  0  0  0  0  0  0  0  0  0  0  0
   -1.5619   -5.0217    0.9057 H   0  0  0  0  0  0  0  0  0  0  0  0
    0.6762   -4.0857    1.5292 H   0  0  0  0  0  0  0  0  0  0  0  0
    1.1836   -1.6551    1.0296 H   0  0  0  0  0  0  0  0  0  0  0  0
  1  2  1  0
  2  3  1  0
  3  4  1  0
  4  5  1  0
  5  6  2  3
  6  7  1  0
  7  8  2  0
  8  9  1  0
  9 10  2  0
 10 11  1  0
 11 12  2  0
 12 13  1  0
 13 14  1  0
 14 15  1  0
 15 16  2  0
 16 17  1  0
 17 18  2  0
 18 19  1  0
 19 20  2  0
 20  6  1  0
 12  7  1  0
 20 15  1  0
  1 21  1  0
  1 22  1  0
  1 23  1  0
  2 24  1  0
  3 25  1  0
  3 26  1  0
  4 27  1  0
  4 28  1  0
  5 29  1  0
  8 30  1  0
  9 31  1  0
 10 32  1  0
 11 33  1  0
 13 34  1  0
 13 35  1  0
 14 36  1  0
 14 37  1  0
 16 38  1  0
 17 39  1  0
 18 40  1  0
 19 41  1  0
M  END
$$$$
