
     RDKit          3D

 33 34  0  0  0  0  0  0  0  0999 V2000
   -6.3838    0.2036    0.0007 C   0  0  0  0  0  0  0  0  0  0  0  0
   -5.4483   -0.1851    1.1270 C   0  0  0  0  0  0  0  0  0  0  0  0
   -4.0125    0.1832    0.8135 C   0  0  0  0  0  0  0  0  0  0  0  0
   -3.4274   -0.6420   -0.6747 S   0  0  0  0  0  0  0  0  0  0  0  0
   -1.7343   -0.1549   -0.9709 C   0  0  0  0  0  0  0  0  0  0  0  0
   -0.7484   -0.9526   -0.3807 C   0  0  0  0  0  0  0  0  0  0  0  0
    0.5788   -0.6101   -0.5853 C   0  0  0  0  0  0  0  0  0  0  0  0
    0.9090    0.4943   -1.3550 C   0  0  0  0  0  0  0  0  0  0  0  0
   -0.0785    1.2775   -1.9349 C   0  0  0  0  0  0  0  0  0  0  0  0
   -1.4249    0.9489   -1.7408 C   0  0  0  0  0  0  0  0  0  0  0  0
    2.2683    0.5535   -1.3587 N   0  0  0  0  0  0  0  0  0  0  0  0
    2.7737   -0.4730   -0.6207 C   0  0  0  0  0  0  0  0  0  0  0  0
    4.1859   -0.5893   -0.4993 N   0  0  0  0  0  0  0  0  0  0  0  0
    5.0075   -0.0082    0.4963 C   0  0  0  0  0  0  0  0  0  0  0  0
    4.3788    0.6698    1.3353 O   0  0  0  0  0  0  0  0  0  0  0  0
    6.3398   -0.3312    0.3067 O   0  0  0  0  0  0  0  0  0  0  0  0
    7.3647    0.1390    1.1856 C   0  0  0  0  0  0  0  0  0  0  0  0
    1.7398   -1.1630   -0.1629 N   0  0  0  0  0  0  0  0  0  0  0  0
   -7.0398   -0.6790   -0.2444 H   0  0  0  0  0  0  0  0  0  0  0  0
   -7.0738    1.0251    0.2790 H   0  0  0  0  0  0  0  0  0  0  0  0
   -5.8240    0.5070   -0.9127 H   0  0  0  0  0  0  0  0  0  0  0  0
   -5.5109   -1.2585    1.3081 H   0  0  0  0  0  0  0  0  0  0  0  0
   -5.7095    0.4041    2.0422 H   0  0  0  0  0  0  0  0  0  0  0  0
   -3.4086   -0.1058    1.6941 H   0  0  0  0  0  0  0  0  0  0  0  0
   -3.9155    1.2773    0.6611 H   0  0  0  0  0  0  0  0  0  0  0  0
   -0.9901   -1.8192    0.2237 H   0  0  0  0  0  0  0  0  0  0  0  0
    0.1793    2.1339   -2.5318 H   0  0  0  0  0  0  0  0  0  0  0  0
   -2.2208    1.5458   -2.1840 H   0  0  0  0  0  0  0  0  0  0  0  0
    4.4764   -1.1985   -1.3090 H   0  0  0  0  0  0  0  0  0  0  0  0
    8.0368    0.7639    0.5488 H   0  0  0  0  0  0  0  0  0  0  0  0
    6.9174    0.7328    2.0091 H   0  0  0  0  0  0  0  0  0  0  0  0
    7.9299   -0.6902    1.6368 H   0  0  0  0  0  0  0  0  0  0  0  0
    1.8651   -1.9991    0.4303 H   0  0  0  0  0  0  0  0  0  0  0  0
  1  2  1  0
  2  3  1  0
  3  4  1  0
  4  5  1  0
  5  6  2  0
  6  7  1  0
  7  8  2  0
  8  9  1  0
  9 10  2  0
  8 11  1  0
 11 12  2  0
 12 13  1  0
 13 14  1  0
 14 15  2  0
 14 16  1  0
 16 17  1  0
 12 18  1  0
 10  5  1  0
 18  7  1  0
  1 19  1  0
  1 20  1  0
  1 21  1  0
  2 22  1  0
  2 23  1  0
  3 24  1  0
  3 25  1  0
  6 26  1  0
  9 27  1  0
 10 28  1  0
 13 29  1  0
 17 30  1  0
 17 31  1  0
 17 32  1  0
 18 33  1  0
M  END
$$$$
