
     RDKit          3D

 45 46  0  0  0  0  0  0  0  0999 V2000
    5.2399    0.0779   -1.0277 C   0  0  0  0  0  0  0  0  0  0  0  0
    4.9067    0.3312    0.4013 C   0  0  0  0  0  0  0  0  0  0  0  0
    3.4500    0.1545    0.7540 C   0  0  0  0  0  0  0  0  0  0  0  0
    2.5365    1.0528    0.0019 C   0  0  0  0  0  0  0  0  0  0  0  0
    1.1672    0.8117    0.3912 N   0  0  0  0  0  0  0  0  0  0  0  0
    0.3366   -0.2981    0.1308 C   0  0  0  0  0  0  0  0  0  0  0  0
   -0.9764   -0.3707    0.6091 C   0  0  0  0  0  0  0  0  0  0  0  0
   -1.4291    0.6904    1.3726 O   0  0  0  0  0  0  0  0  0  0  0  0
   -2.0277    1.8038    0.7996 C   0  0  0  0  0  0  0  0  0  0  0  0
   -2.4005    2.7051    1.8037 C   0  0  0  0  0  0  0  0  0  0  0  0
   -3.0245    3.9094    1.4886 C   0  0  0  0  0  0  0  0  0  0  0  0
   -3.2782    4.2173    0.1694 C   0  0  0  0  0  0  0  0  0  0  0  0
   -2.9079    3.3264   -0.7982 C   0  0  0  0  0  0  0  0  0  0  0  0
   -2.2950    2.1388   -0.5191 C   0  0  0  0  0  0  0  0  0  0  0  0
   -1.7671   -1.4512    0.3263 C   0  0  0  0  0  0  0  0  0  0  0  0
   -1.3330   -2.5107   -0.4288 C   0  0  0  0  0  0  0  0  0  0  0  0
   -0.0526   -2.4851   -0.9206 C   0  0  0  0  0  0  0  0  0  0  0  0
    0.7285   -1.3916   -0.6269 C   0  0  0  0  0  0  0  0  0  0  0  0
    0.4354   -3.5980   -1.7264 C   0  0  0  0  0  0  0  0  0  0  0  0
   -0.3837   -4.6762   -1.9967 O   0  0  0  0  0  0  0  0  0  0  0  0
    1.6174   -3.6122   -2.2013 O   0  0  0  0  0  0  0  0  0  0  0  0
   -3.3964   -1.4799    0.9601 S   0  0  0  0  0  0  0  0  0  0  0  0
   -4.1994   -2.9444    0.4781 N   0  0  0  0  0  0  0  0  0  0  0  0
   -4.1698   -0.3643    0.3184 O   0  0  0  0  0  0  0  0  0  0  0  0
   -3.3457   -1.3770    2.4508 O   0  0  0  0  0  0  0  0  0  0  0  0
    4.3626   -0.0322   -1.6876 H   0  0  0  0  0  0  0  0  0  0  0  0
    5.8121   -0.8818   -1.1302 H   0  0  0  0  0  0  0  0  0  0  0  0
    5.9104    0.8441   -1.4907 H   0  0  0  0  0  0  0  0  0  0  0  0
    5.4788   -0.3905    1.0451 H   0  0  0  0  0  0  0  0  0  0  0  0
    5.2731    1.3390    0.6803 H   0  0  0  0  0  0  0  0  0  0  0  0
    3.3826    0.4905    1.8384 H   0  0  0  0  0  0  0  0  0  0  0  0
    3.1055   -0.8844    0.7185 H   0  0  0  0  0  0  0  0  0  0  0  0
    2.5590    0.8743   -1.1048 H   0  0  0  0  0  0  0  0  0  0  0  0
    2.8232    2.0890    0.2329 H   0  0  0  0  0  0  0  0  0  0  0  0
    0.7091    1.5850    0.9623 H   0  0  0  0  0  0  0  0  0  0  0  0
   -2.2662    2.5984    2.8714 H   0  0  0  0  0  0  0  0  0  0  0  0
   -3.3353    4.6436    2.2114 H   0  0  0  0  0  0  0  0  0  0  0  0
   -3.7600    5.1272   -0.2043 H   0  0  0  0  0  0  0  0  0  0  0  0
   -3.0550    3.4565   -1.8798 H   0  0  0  0  0  0  0  0  0  0  0  0
   -1.9542    1.3540   -1.1803 H   0  0  0  0  0  0  0  0  0  0  0  0
   -2.0059   -3.3351   -0.6170 H   0  0  0  0  0  0  0  0  0  0  0  0
    1.7162   -1.4384   -1.0582 H   0  0  0  0  0  0  0  0  0  0  0  0
   -0.2706   -5.2772   -2.8190 H   0  0  0  0  0  0  0  0  0  0  0  0
   -3.8128   -3.7889    0.9547 H   0  0  0  0  0  0  0  0  0  0  0  0
   -4.1038   -3.0332   -0.5532 H   0  0  0  0  0  0  0  0  0  0  0  0
  1  2  1  0
  2  3  1  0
  3  4  1  0
  4  5  1  0
  5  6  1  0
  6  7  2  0
  7  8  1  0
  8  9  1  0
  9 10  2  0
 10 11  1  0
 11 12  2  0
 12 13  1  0
 13 14  2  0
  7 15  1  0
 15 16  2  0
 16 17  1  0
 17 18  2  0
 17 19  1  0
 19 20  1  0
 19 21  2  0
 15 22  1  0
 22 23  1  0
 22 24  2  0
 22 25  2  0
 18  6  1  0
 14  9  1  0
  1 26  1  0
  1 27  1  0
  1 28  1  0
  2 29  1  0
  2 30  1  0
  3 31  1  0
  3 32  1  0
  4 33  1  0
  4 34  1  0
  5 35  1  0
 10 36  1  0
 11 37  1  0
 12 38  1  0
 13 39  1  0
 14 40  1  0
 16 41  1  0
 18 42  1  0
 20 43  1  0
 23 44  1  0
 23 45  1  0
M  END
$$$$
