
     RDKit          3D

 44 48  0  0  0  0  0  0  0  0999 V2000
    8.2636   -1.1503    1.4084 O   0  0  0  0  0  0  0  0  0  0  0  0
    7.8642   -0.3608    0.3258 C   0  0  0  0  0  0  0  0  0  0  0  0
    6.3680   -0.3620    0.2239 C   0  0  0  0  0  0  0  0  0  0  0  0
    5.6318    0.5899    0.8901 C   0  0  0  0  0  0  0  0  0  0  0  0
    4.2404    0.6027    0.8059 C   0  0  0  0  0  0  0  0  0  0  0  0
    3.5587   -0.3300    0.0585 C   0  0  0  0  0  0  0  0  0  0  0  0
    2.1061   -0.3508   -0.0549 C   0  0  0  0  0  0  0  0  0  0  0  0
    1.4700   -0.8022   -1.1996 C   0  0  0  0  0  0  0  0  0  0  0  0
    0.0942   -0.7741   -1.1878 C   0  0  0  0  0  0  0  0  0  0  0  0
   -0.6500   -0.3307   -0.1207 C   0  0  0  0  0  0  0  0  0  0  0  0
   -2.0328   -0.3069   -0.1197 O   0  0  0  0  0  0  0  0  0  0  0  0
   -2.6759    0.8292   -0.5738 C   0  0  0  0  0  0  0  0  0  0  0  0
   -1.9451    1.9011   -1.0128 C   0  0  0  0  0  0  0  0  0  0  0  0
   -2.4385    3.0518   -1.4741 N   0  0  0  0  0  0  0  0  0  0  0  0
   -3.7722    3.1680   -1.5104 C   0  0  0  0  0  0  0  0  0  0  0  0
   -4.5487    2.0996   -1.0725 C   0  0  0  0  0  0  0  0  0  0  0  0
   -6.3331    1.8885   -0.9729 S   0  0  0  0  0  0  0  0  0  0  0  0
   -6.3023    0.2641   -0.3166 C   0  0  0  0  0  0  0  0  0  0  0  0
   -7.4693   -0.5636    0.0272 C   0  0  0  0  0  0  0  0  0  0  0  0
   -8.7351   -0.1972   -0.1114 N   0  0  0  0  0  0  0  0  0  0  0  0
   -9.5015   -1.1767    0.2906 N   0  0  0  0  0  0  0  0  0  0  0  0
   -8.7354   -2.1818    0.6913 N   0  0  0  0  0  0  0  0  0  0  0  0
   -7.4794   -1.7998    0.5273 N   0  0  0  0  0  0  0  0  0  0  0  0
   -4.9556   -0.0207   -0.2122 C   0  0  0  0  0  0  0  0  0  0  0  0
   -4.0945    0.9268   -0.6020 C   0  0  0  0  0  0  0  0  0  0  0  0
    0.0048    0.1106    0.9997 C   0  0  0  0  0  0  0  0  0  0  0  0
    1.3823    0.0946    1.0179 C   0  0  0  0  0  0  0  0  0  0  0  0
    4.3196   -1.2708   -0.5977 C   0  0  0  0  0  0  0  0  0  0  0  0
    5.6969   -1.2964   -0.5240 C   0  0  0  0  0  0  0  0  0  0  0  0
    7.6536   -1.9272    1.5317 H   0  0  0  0  0  0  0  0  0  0  0  0
    8.2080    0.6659    0.5302 H   0  0  0  0  0  0  0  0  0  0  0  0
    8.3226   -0.7809   -0.6071 H   0  0  0  0  0  0  0  0  0  0  0  0
    6.1494    1.3337    1.4844 H   0  0  0  0  0  0  0  0  0  0  0  0
    3.7001    1.3559    1.3359 H   0  0  0  0  0  0  0  0  0  0  0  0
    2.0616   -1.1433   -2.0195 H   0  0  0  0  0  0  0  0  0  0  0  0
   -0.4344   -1.1249   -2.0789 H   0  0  0  0  0  0  0  0  0  0  0  0
   -0.8523    1.8291   -0.9925 H   0  0  0  0  0  0  0  0  0  0  0  0
   -4.2647    4.0840   -1.8768 H   0  0  0  0  0  0  0  0  0  0  0  0
   -6.6230   -2.3665    0.7501 H   0  0  0  0  0  0  0  0  0  0  0  0
   -4.6952   -1.0291    0.1934 H   0  0  0  0  0  0  0  0  0  0  0  0
   -0.5426    0.4721    1.8723 H   0  0  0  0  0  0  0  0  0  0  0  0
    1.9164    0.4447    1.9075 H   0  0  0  0  0  0  0  0  0  0  0  0
    3.7823   -2.0155   -1.1940 H   0  0  0  0  0  0  0  0  0  0  0  0
    6.2870   -2.0496   -1.0506 H   0  0  0  0  0  0  0  0  0  0  0  0
  1  2  1  0
  2  3  1  0
  3  4  2  0
  4  5  1  0
  5  6  2  0
  6  7  1  0
  7  8  2  0
  8  9  1  0
  9 10  2  0
 10 11  1  0
 11 12  1  0
 12 13  2  0
 13 14  1  0
 14 15  2  0
 15 16  1  0
 16 17  1  0
 17 18  1  0
 18 19  1  0
 19 20  2  0
 20 21  1  0
 21 22  2  0
 22 23  1  0
 18 24  2  0
 24 25  1  0
 10 26  1  0
 26 27  2  0
  6 28  1  0
 28 29  2  0
 29  3  1  0
 27  7  1  0
 25 12  1  0
 25 16  2  0
 23 19  1  0
  1 30  1  0
  2 31  1  0
  2 32  1  0
  4 33  1  0
  5 34  1  0
  8 35  1  0
  9 36  1  0
 13 37  1  0
 15 38  1  0
 23 39  1  0
 24 40  1  0
 26 41  1  0
 27 42  1  0
 28 43  1  0
 29 44  1  0
M  END
$$$$
