
     RDKit          3D

 60 62  0  0  0  0  0  0  0  0999 V2000
    0.9202    1.6909    0.5742 C   0  0  0  0  0  0  0  0  0  0  0  0
    0.7409    1.2495   -0.8872 C   0  0  0  0  0  0  0  0  0  0  0  0
   -0.4123    0.3382   -0.8818 C   0  0  0  0  0  0  0  0  0  0  0  0
   -1.6413    0.8290   -1.3237 C   0  0  0  0  0  0  0  0  0  0  0  0
   -2.7807    0.0378   -1.3070 C   0  0  0  0  0  0  0  0  0  0  0  0
   -4.0188    0.6726   -1.8062 C   0  0  0  0  0  0  0  0  0  0  0  0
   -4.6336    1.4926   -0.7331 C   0  0  0  0  0  0  0  0  0  0  0  0
   -4.4919    2.8864   -0.7522 C   0  0  0  0  0  0  0  0  0  0  0  0
   -5.0302    3.6572    0.2075 N   0  0  0  0  0  0  0  0  0  0  0  0
   -5.7267    3.1333    1.2266 C   0  0  0  0  0  0  0  0  0  0  0  0
   -6.2921    3.9751    2.2414 N   0  0  0  0  0  0  0  0  0  0  0  0
   -5.8740    1.7988    1.2629 N   0  0  0  0  0  0  0  0  0  0  0  0
   -5.3483    0.9681    0.3142 C   0  0  0  0  0  0  0  0  0  0  0  0
   -5.5404   -0.4294    0.4024 N   0  0  0  0  0  0  0  0  0  0  0  0
   -2.6586   -1.2360   -0.8440 C   0  0  0  0  0  0  0  0  0  0  0  0
   -1.4582   -1.7687   -0.3945 C   0  0  0  0  0  0  0  0  0  0  0  0
   -1.4128   -3.1486    0.1066 C   0  0  0  0  0  0  0  0  0  0  0  0
   -0.9220   -4.1774   -0.8503 C   0  0  0  0  0  0  0  0  0  0  0  0
   -0.3245   -0.9441   -0.4252 C   0  0  0  0  0  0  0  0  0  0  0  0
    0.8579   -1.4666    0.0180 O   0  0  0  0  0  0  0  0  0  0  0  0
    1.8011   -2.0912   -0.8028 C   0  0  0  0  0  0  0  0  0  0  0  0
    2.9617   -2.6542   -0.0140 C   0  0  0  0  0  0  0  0  0  0  0  0
    3.6972   -1.7768    0.7014 O   0  0  0  0  0  0  0  0  0  0  0  0
    4.3709   -0.8065    0.0089 C   0  0  0  0  0  0  0  0  0  0  0  0
    5.1833    0.0567    0.9000 C   0  0  0  0  0  0  0  0  0  0  0  0
    4.6783    1.2008    1.4599 C   0  0  0  0  0  0  0  0  0  0  0  0
    5.4724    1.9923    2.2980 C   0  0  0  0  0  0  0  0  0  0  0  0
    6.7715    1.6154    2.5598 C   0  0  0  0  0  0  0  0  0  0  0  0
    7.2938    0.4747    2.0090 C   0  0  0  0  0  0  0  0  0  0  0  0
    6.4880   -0.2841    1.1881 C   0  0  0  0  0  0  0  0  0  0  0  0
    1.3773    0.8560    1.1213 H   0  0  0  0  0  0  0  0  0  0  0  0
    1.4520    2.6395    0.6533 H   0  0  0  0  0  0  0  0  0  0  0  0
   -0.1076    1.8304    0.9942 H   0  0  0  0  0  0  0  0  0  0  0  0
    1.6658    0.8242   -1.2271 H   0  0  0  0  0  0  0  0  0  0  0  0
    0.5167    2.1718   -1.5099 H   0  0  0  0  0  0  0  0  0  0  0  0
   -1.6814    1.8559   -1.6845 H   0  0  0  0  0  0  0  0  0  0  0  0
   -4.6908   -0.1413   -2.1467 H   0  0  0  0  0  0  0  0  0  0  0  0
   -3.7559    1.3041   -2.6794 H   0  0  0  0  0  0  0  0  0  0  0  0
   -3.9219    3.2916   -1.5900 H   0  0  0  0  0  0  0  0  0  0  0  0
   -6.9925    4.7103    2.0140 H   0  0  0  0  0  0  0  0  0  0  0  0
   -5.9635    3.8140    3.2322 H   0  0  0  0  0  0  0  0  0  0  0  0
   -5.4017   -0.9078    1.3212 H   0  0  0  0  0  0  0  0  0  0  0  0
   -5.8185   -1.0384   -0.4022 H   0  0  0  0  0  0  0  0  0  0  0  0
   -3.5240   -1.8688   -0.8258 H   0  0  0  0  0  0  0  0  0  0  0  0
   -0.9119   -3.2155    1.1071 H   0  0  0  0  0  0  0  0  0  0  0  0
   -2.4822   -3.4426    0.3503 H   0  0  0  0  0  0  0  0  0  0  0  0
    0.0617   -4.5526   -0.4558 H   0  0  0  0  0  0  0  0  0  0  0  0
   -0.8165   -3.6887   -1.8478 H   0  0  0  0  0  0  0  0  0  0  0  0
   -1.6327   -5.0510   -0.9553 H   0  0  0  0  0  0  0  0  0  0  0  0
    1.3945   -2.8573   -1.4851 H   0  0  0  0  0  0  0  0  0  0  0  0
    2.2947   -1.3508   -1.5201 H   0  0  0  0  0  0  0  0  0  0  0  0
    3.6701   -3.1619   -0.7364 H   0  0  0  0  0  0  0  0  0  0  0  0
    2.5623   -3.5060    0.5867 H   0  0  0  0  0  0  0  0  0  0  0  0
    5.0637   -1.2804   -0.7521 H   0  0  0  0  0  0  0  0  0  0  0  0
    3.6833   -0.1865   -0.5910 H   0  0  0  0  0  0  0  0  0  0  0  0
    3.6791    1.5140    1.2736 H   0  0  0  0  0  0  0  0  0  0  0  0
    5.0527    2.8897    2.7279 H   0  0  0  0  0  0  0  0  0  0  0  0
    7.3363    2.2717    3.2178 H   0  0  0  0  0  0  0  0  0  0  0  0
    8.3142    0.1878    2.2214 H   0  0  0  0  0  0  0  0  0  0  0  0
    6.9060   -1.1973    0.7465 H   0  0  0  0  0  0  0  0  0  0  0  0
  1  2  1  0
  2  3  1  0
  3  4  2  0
  4  5  1  0
  5  6  1  0
  6  7  1  0
  7  8  2  0
  8  9  1  0
  9 10  2  0
 10 11  1  0
 10 12  1  0
 12 13  2  0
 13 14  1  0
  5 15  2  0
 15 16  1  0
 16 17  1  0
 17 18  1  0
 16 19  2  0
 19 20  1  0
 20 21  1  0
 21 22  1  0
 22 23  1  0
 23 24  1  0
 24 25  1  0
 25 26  2  0
 26 27  1  0
 27 28  2  0
 28 29  1  0
 29 30  2  0
 19  3  1  0
 30 25  1  0
 13  7  1  0
  1 31  1  0
  1 32  1  0
  1 33  1  0
  2 34  1  0
  2 35  1  0
  4 36  1  0
  6 37  1  0
  6 38  1  0
  8 39  1  0
 11 40  1  0
 11 41  1  0
 14 42  1  0
 14 43  1  0
 15 44  1  0
 17 45  1  0
 17 46  1  0
 18 47  1  0
 18 48  1  0
 18 49  1  0
 21 50  1  0
 21 51  1  0
 22 52  1  0
 22 53  1  0
 24 54  1  0
 24 55  1  0
 26 56  1  0
 27 57  1  0
 28 58  1  0
 29 59  1  0
 30 60  1  0
M  END
$$$$
