
     RDKit          3D

 48 48  0  0  0  0  0  0  0  0999 V2000
    6.5159    0.2958    1.3818 C   0  0  0  0  0  0  0  0  0  0  0  0
    4.9869    0.2712    1.2745 C   0  0  0  0  0  0  0  0  0  0  0  0
    4.6308    0.6708   -0.1250 C   0  0  0  0  0  0  0  0  0  0  0  0
    3.1730    0.7119   -0.4226 C   0  0  0  0  0  0  0  0  0  0  0  0
    2.4545   -0.6088   -0.2451 C   0  0  0  0  0  0  0  0  0  0  0  0
    1.0078   -0.3382   -0.5926 C   0  0  0  0  0  0  0  0  0  0  0  0
    0.1220   -1.5480   -0.4874 C   0  0  0  0  0  0  0  0  0  0  0  0
   -1.2805   -1.0560   -0.8816 C   0  0  0  0  0  0  0  0  0  0  0  0
   -1.6582   -0.0419    0.0459 N   0  0  0  0  0  0  0  0  0  0  0  0
   -1.9239   -0.5221    1.3651 C   0  0  0  0  0  0  0  0  0  0  0  0
   -3.4214   -0.4609    1.6839 C   0  0  2  0  0  0  0  0  0  0  0  0
   -3.6637   -1.4314    2.6644 O   0  0  0  0  0  0  0  0  0  0  0  0
   -4.2547   -0.7765    0.4750 C   0  0  1  0  0  0  0  0  0  0  0  0
   -5.5995   -0.6256    0.8894 O   0  0  0  0  0  0  0  0  0  0  0  0
   -3.9973    0.1891   -0.6442 C   0  0  2  0  0  0  0  0  0  0  0  0
   -4.0304   -0.4680   -1.8732 O   0  0  0  0  0  0  0  0  0  0  0  0
   -2.6711    0.8658   -0.3879 C   0  0  2  0  0  0  0  0  0  0  0  0
   -2.2298    1.7664   -1.5117 C   0  0  0  0  0  0  0  0  0  0  0  0
   -1.1251    2.5394   -1.0864 O   0  0  0  0  0  0  0  0  0  0  0  0
    6.8180    1.1978    0.7732 H   0  0  0  0  0  0  0  0  0  0  0  0
    6.9506   -0.5725    0.8570 H   0  0  0  0  0  0  0  0  0  0  0  0
    6.8648    0.4356    2.4105 H   0  0  0  0  0  0  0  0  0  0  0  0
    4.5460    0.9183    2.0333 H   0  0  0  0  0  0  0  0  0  0  0  0
    4.6897   -0.8076    1.3841 H   0  0  0  0  0  0  0  0  0  0  0  0
    5.1226    0.0346   -0.8897 H   0  0  0  0  0  0  0  0  0  0  0  0
    5.0257    1.7076   -0.3080 H   0  0  0  0  0  0  0  0  0  0  0  0
    3.0727    0.9771   -1.5080 H   0  0  0  0  0  0  0  0  0  0  0  0
    2.6111    1.5001    0.1189 H   0  0  0  0  0  0  0  0  0  0  0  0
    2.9098   -1.4013   -0.8481 H   0  0  0  0  0  0  0  0  0  0  0  0
    2.5307   -0.9363    0.8319 H   0  0  0  0  0  0  0  0  0  0  0  0
    0.6406    0.4241    0.1130 H   0  0  0  0  0  0  0  0  0  0  0  0
    0.9900   -0.0024   -1.6427 H   0  0  0  0  0  0  0  0  0  0  0  0
    0.4738   -2.3531   -1.1428 H   0  0  0  0  0  0  0  0  0  0  0  0
    0.1399   -1.9337    0.5479 H   0  0  0  0  0  0  0  0  0  0  0  0
   -1.9395   -1.9581   -0.8206 H   0  0  0  0  0  0  0  0  0  0  0  0
   -1.2781   -0.7183   -1.9190 H   0  0  0  0  0  0  0  0  0  0  0  0
   -1.6197   -1.5723    1.5029 H   0  0  0  0  0  0  0  0  0  0  0  0
   -1.3582    0.1491    2.0678 H   0  0  0  0  0  0  0  0  0  0  0  0
   -3.6686    0.5344    2.0957 H   0  0  0  0  0  0  0  0  0  0  0  0
   -2.8827   -1.5748    3.2410 H   0  0  0  0  0  0  0  0  0  0  0  0
   -4.1402   -1.8315    0.1817 H   0  0  0  0  0  0  0  0  0  0  0  0
   -6.1666   -0.7494    0.0763 H   0  0  0  0  0  0  0  0  0  0  0  0
   -4.7821    0.9717   -0.6455 H   0  0  0  0  0  0  0  0  0  0  0  0
   -3.5004   -0.0107   -2.5771 H   0  0  0  0  0  0  0  0  0  0  0  0
   -2.8614    1.5450    0.4983 H   0  0  0  0  0  0  0  0  0  0  0  0
   -3.0314    2.4910   -1.7567 H   0  0  0  0  0  0  0  0  0  0  0  0
   -1.8728    1.1994   -2.4052 H   0  0  0  0  0  0  0  0  0  0  0  0
   -1.3199    2.9031   -0.1914 H   0  0  0  0  0  0  0  0  0  0  0  0
  1  2  1  0
  2  3  1  0
  3  4  1  0
  4  5  1  0
  5  6  1  0
  6  7  1  0
  7  8  1  0
  8  9  1  0
  9 10  1  0
 10 11  1  0
 11 12  1  0
 11 13  1  0
 13 14  1  0
 13 15  1  0
 15 16  1  0
 15 17  1  0
 17 18  1  0
 18 19  1  0
 17  9  1  0
  1 20  1  0
  1 21  1  0
  1 22  1  0
  2 23  1  0
  2 24  1  0
  3 25  1  0
  3 26  1  0
  4 27  1  0
  4 28  1  0
  5 29  1  0
  5 30  1  0
  6 31  1  0
  6 32  1  0
  7 33  1  0
  7 34  1  0
  8 35  1  0
  8 36  1  0
 10 37  1  0
 10 38  1  0
 11 39  1  1
 12 40  1  0
 13 41  1  6
 14 42  1  0
 15 43  1  6
 16 44  1  0
 17 45  1  1
 18 46  1  0
 18 47  1  0
 19 48  1  0
M  END
$$$$
