
     RDKit          3D

 80 84  0  0  0  0  0  0  0  0999 V2000
    5.3982    2.1672   -1.3781 O   0  0  0  0  0  0  0  0  0  0  0  0
    5.4789    0.9209   -1.1252 C   0  0  0  0  0  0  0  0  0  0  0  0
    4.4269    0.0973   -1.5677 N   0  0  0  0  0  0  0  0  0  0  0  0
    3.2489    0.5232   -2.2859 C   0  0  0  0  0  0  0  0  0  0  0  0
    2.4448    1.4936   -1.4993 C   0  0  0  0  0  0  0  0  0  0  0  0
    1.9692    1.1173   -0.1761 C   0  0  0  0  0  0  0  0  0  0  0  0
    1.0332    0.0099    0.0865 C   0  0  0  0  0  0  0  0  0  0  0  0
    1.3983   -1.3663   -0.2573 C   0  0  0  0  0  0  0  0  0  0  0  0
    0.4768   -2.4796    0.0874 C   0  0  0  0  0  0  0  0  0  0  0  0
   -0.8416   -2.6412   -0.5339 C   0  0  0  0  0  0  0  0  0  0  0  0
   -1.8793   -1.5961   -0.4267 C   0  0  0  0  0  0  0  0  0  0  0  0
   -3.1393   -2.2139   -1.1158 C   0  0  0  0  0  0  0  0  0  0  0  0
   -4.2379   -1.2017   -1.0434 C   0  0  0  0  0  0  0  0  0  0  0  0
   -4.5955   -0.8373    0.3052 N   0  0  0  0  0  0  0  0  0  0  0  0
   -5.6358    0.0954    0.4782 C   0  0  0  0  0  0  0  0  0  0  0  0
   -6.9266   -0.3256    0.6038 C   0  0  0  0  0  0  0  0  0  0  0  0
   -7.9831    0.5675    0.7703 C   0  0  0  0  0  0  0  0  0  0  0  0
   -7.6896    1.8725    0.8041 N   0  0  0  0  0  0  0  0  0  0  0  0
   -6.4292    2.3452    0.6847 C   0  0  0  0  0  0  0  0  0  0  0  0
   -6.2287    3.7046    0.7317 C   0  0  0  0  0  0  0  0  0  0  0  0
   -4.9360    4.1630    0.6075 C   0  0  0  0  0  0  0  0  0  0  0  0
   -4.6276    5.8943    0.6607 Cl  0  0  0  0  0  0  0  0  0  0  0  0
   -3.8708    3.3021    0.4417 C   0  0  0  0  0  0  0  0  0  0  0  0
   -4.0925    1.9531    0.3976 C   0  0  0  0  0  0  0  0  0  0  0  0
   -5.3716    1.4410    0.5174 C   0  0  0  0  0  0  0  0  0  0  0  0
   -9.3672    0.0436    0.9007 C   0  0  0  0  0  0  0  0  0  0  0  0
   -9.5296   -1.0097   -0.1748 C   0  0  0  0  0  0  0  0  0  0  0  0
   -8.5298   -2.1149   -0.0889 C   0  0  0  0  0  0  0  0  0  0  0  0
   -7.2402   -1.7647    0.5727 C   0  0  0  0  0  0  0  0  0  0  0  0
    6.6508    0.4448   -0.3989 C   0  0  0  0  0  0  0  0  0  0  0  0
    6.8497   -0.8614   -0.0804 C   0  0  0  0  0  0  0  0  0  0  0  0
    7.9919   -1.2740    0.6192 C   0  0  0  0  0  0  0  0  0  0  0  0
    8.1818   -2.4790    0.9168 O   0  0  0  0  0  0  0  0  0  0  0  0
    8.9263   -0.3311    0.9876 C   0  0  0  0  0  0  0  0  0  0  0  0
   10.0710   -0.6704    1.6770 C   0  0  0  0  0  0  0  0  0  0  0  0
   10.9831    0.2969    2.0291 C   0  0  0  0  0  0  0  0  0  0  0  0
   12.1128   -0.0666    2.7139 O   0  0  0  0  0  0  0  0  0  0  0  0
   10.7080    1.6094    1.6675 C   0  0  0  0  0  0  0  0  0  0  0  0
   11.6246    2.5964    2.0191 O   0  0  0  0  0  0  0  0  0  0  0  0
    9.5734    1.9537    0.9829 C   0  0  0  0  0  0  0  0  0  0  0  0
    8.6615    0.9937    0.6296 C   0  0  0  0  0  0  0  0  0  0  0  0
    7.5763    1.3023   -0.0218 O   0  0  0  0  0  0  0  0  0  0  0  0
    4.5271   -0.9389   -1.3407 H   0  0  0  0  0  0  0  0  0  0  0  0
    3.5972    1.1114   -3.2218 H   0  0  0  0  0  0  0  0  0  0  0  0
    2.7599   -0.3325   -2.7312 H   0  0  0  0  0  0  0  0  0  0  0  0
    1.6254    1.9549   -2.1457 H   0  0  0  0  0  0  0  0  0  0  0  0
    3.1240    2.4053   -1.3634 H   0  0  0  0  0  0  0  0  0  0  0  0
    1.5043    2.0296    0.3620 H   0  0  0  0  0  0  0  0  0  0  0  0
    2.9047    0.9865    0.4971 H   0  0  0  0  0  0  0  0  0  0  0  0
    0.9220    0.0100    1.2450 H   0  0  0  0  0  0  0  0  0  0  0  0
   -0.0061    0.3217   -0.2034 H   0  0  0  0  0  0  0  0  0  0  0  0
    1.4811   -1.4102   -1.4025 H   0  0  0  0  0  0  0  0  0  0  0  0
    2.4289   -1.6588    0.0611 H   0  0  0  0  0  0  0  0  0  0  0  0
    0.3796   -2.4331    1.2425 H   0  0  0  0  0  0  0  0  0  0  0  0
    1.0268   -3.4785   -0.1087 H   0  0  0  0  0  0  0  0  0  0  0  0
   -1.3048   -3.5975   -0.0807 H   0  0  0  0  0  0  0  0  0  0  0  0
   -0.6956   -2.9332   -1.6355 H   0  0  0  0  0  0  0  0  0  0  0  0
   -2.1992   -1.2985    0.5699 H   0  0  0  0  0  0  0  0  0  0  0  0
   -1.6639   -0.6685   -1.0129 H   0  0  0  0  0  0  0  0  0  0  0  0
   -3.3506   -3.1362   -0.5394 H   0  0  0  0  0  0  0  0  0  0  0  0
   -2.8603   -2.3748   -2.1560 H   0  0  0  0  0  0  0  0  0  0  0  0
   -5.0991   -1.5789   -1.6364 H   0  0  0  0  0  0  0  0  0  0  0  0
   -3.8647   -0.2992   -1.6050 H   0  0  0  0  0  0  0  0  0  0  0  0
   -4.1294   -1.2258    1.1649 H   0  0  0  0  0  0  0  0  0  0  0  0
   -7.0092    4.4375    0.8584 H   0  0  0  0  0  0  0  0  0  0  0  0
   -2.8730    3.7056    0.3485 H   0  0  0  0  0  0  0  0  0  0  0  0
   -3.2458    1.2627    0.2652 H   0  0  0  0  0  0  0  0  0  0  0  0
   -9.5287   -0.3790    1.9143 H   0  0  0  0  0  0  0  0  0  0  0  0
  -10.1018    0.8468    0.6710 H   0  0  0  0  0  0  0  0  0  0  0  0
  -10.5538   -1.4359   -0.1435 H   0  0  0  0  0  0  0  0  0  0  0  0
   -9.3955   -0.4579   -1.1511 H   0  0  0  0  0  0  0  0  0  0  0  0
   -8.2977   -2.4438   -1.1284 H   0  0  0  0  0  0  0  0  0  0  0  0
   -9.0165   -2.9873    0.4169 H   0  0  0  0  0  0  0  0  0  0  0  0
   -6.4076   -2.3870    0.1908 H   0  0  0  0  0  0  0  0  0  0  0  0
   -7.3320   -2.0723    1.6579 H   0  0  0  0  0  0  0  0  0  0  0  0
    6.1354   -1.6253   -0.3552 H   0  0  0  0  0  0  0  0  0  0  0  0
   10.2732   -1.7156    1.9553 H   0  0  0  0  0  0  0  0  0  0  0  0
   12.9655   -0.3648    2.2650 H   0  0  0  0  0  0  0  0  0  0  0  0
   11.2501    3.5119    2.2318 H   0  0  0  0  0  0  0  0  0  0  0  0
    9.3960    2.9742    0.7231 H   0  0  0  0  0  0  0  0  0  0  0  0
  1  2  2  0
  2  3  1  0
  3  4  1  0
  4  5  1  0
  5  6  1  0
  6  7  1  0
  7  8  1  0
  8  9  1  0
  9 10  1  0
 10 11  1  0
 11 12  1  0
 12 13  1  0
 13 14  1  0
 14 15  1  0
 15 16  2  0
 16 17  1  0
 17 18  2  0
 18 19  1  0
 19 20  2  0
 20 21  1  0
 21 22  1  0
 21 23  2  0
 23 24  1  0
 24 25  2  0
 17 26  1  0
 26 27  1  0
 27 28  1  0
 28 29  1  0
  2 30  1  0
 30 31  2  0
 31 32  1  0
 32 33  2  0
 32 34  1  0
 34 35  2  0
 35 36  1  0
 36 37  1  0
 36 38  2  0
 38 39  1  0
 38 40  1  0
 40 41  2  0
 41 42  1  0
 25 15  1  0
 42 30  1  0
 29 16  1  0
 41 34  1  0
 25 19  1  0
  3 43  1  0
  4 44  1  0
  4 45  1  0
  5 46  1  0
  5 47  1  0
  6 48  1  0
  6 49  1  0
  7 50  1  0
  7 51  1  0
  8 52  1  0
  8 53  1  0
  9 54  1  0
  9 55  1  0
 10 56  1  0
 10 57  1  0
 11 58  1  0
 11 59  1  0
 12 60  1  0
 12 61  1  0
 13 62  1  0
 13 63  1  0
 14 64  1  0
 20 65  1  0
 23 66  1  0
 24 67  1  0
 26 68  1  0
 26 69  1  0
 27 70  1  0
 27 71  1  0
 28 72  1  0
 28 73  1  0
 29 74  1  0
 29 75  1  0
 31 76  1  0
 35 77  1  0
 37 78  1  0
 39 79  1  0
 40 80  1  0
M  END
$$$$
