
     RDKit          3D

 43 45  0  0  0  0  0  0  0  0999 V2000
    0.9514   -2.2473    0.5050 C   0  0  2  0  0  0  0  0  0  0  0  0
    0.1852   -3.3416    1.1547 C   0  0  0  0  0  0  0  0  0  0  0  0
    1.4008   -1.1384    1.4004 C   0  0  0  0  0  0  0  0  0  0  0  0
    2.4604   -0.3373    0.6913 C   0  0  0  0  0  0  0  0  0  0  0  0
    2.0285    0.1555   -0.5918 N   0  0  0  0  0  0  0  0  0  0  0  0
    1.5592   -0.9247   -1.3944 C   0  0  0  0  0  0  0  0  0  0  0  0
    0.4031   -1.7000   -0.7592 C   0  0  2  0  0  0  0  0  0  0  0  0
   -0.7221   -0.8381   -0.7104 N   0  0  0  0  0  0  0  0  0  0  0  0
   -0.9611   -0.3265   -2.0736 C   0  0  0  0  0  0  0  0  0  0  0  0
   -1.6127   -0.4790    0.3679 C   0  0  0  0  0  0  0  0  0  0  0  0
   -1.9401   -1.3062    1.3729 N   0  0  0  0  0  0  0  0  0  0  0  0
   -2.7793   -1.0571    2.3661 C   0  0  0  0  0  0  0  0  0  0  0  0
   -3.3872    0.1467    2.4025 N   0  0  0  0  0  0  0  0  0  0  0  0
   -3.1326    1.0620    1.4408 C   0  0  0  0  0  0  0  0  0  0  0  0
   -2.2495    0.7387    0.4366 C   0  0  0  0  0  0  0  0  0  0  0  0
   -2.2087    1.8678   -0.3493 C   0  0  0  0  0  0  0  0  0  0  0  0
   -3.0407    2.8404    0.1623 C   0  0  0  0  0  0  0  0  0  0  0  0
   -3.5973    2.3127    1.2678 N   0  0  0  0  0  0  0  0  0  0  0  0
    2.0895    1.5521   -0.9476 C   0  0  0  0  0  0  0  0  0  0  0  0
    1.7936    2.2406   -1.9554 O   0  0  0  0  0  0  0  0  0  0  0  0
    2.6173    2.4789    0.0602 C   0  0  0  0  0  0  0  0  0  0  0  0
    2.6029    3.8534   -0.4803 C   0  0  0  0  0  0  0  0  0  0  0  0
    2.5939    4.9408   -0.9265 N   0  0  0  0  0  0  0  0  0  0  0  0
    1.9391   -2.7421    0.1835 H   0  0  0  0  0  0  0  0  0  0  0  0
   -0.6984   -3.6428    0.5506 H   0  0  0  0  0  0  0  0  0  0  0  0
   -0.0675   -3.1533    2.2366 H   0  0  0  0  0  0  0  0  0  0  0  0
    0.7860   -4.3006    1.2212 H   0  0  0  0  0  0  0  0  0  0  0  0
    0.6398   -0.5047    1.8316 H   0  0  0  0  0  0  0  0  0  0  0  0
    1.9088   -1.6417    2.2757 H   0  0  0  0  0  0  0  0  0  0  0  0
    3.3172   -1.0151    0.4976 H   0  0  0  0  0  0  0  0  0  0  0  0
    2.8240    0.4859    1.3401 H   0  0  0  0  0  0  0  0  0  0  0  0
    2.3986   -1.6800   -1.4641 H   0  0  0  0  0  0  0  0  0  0  0  0
    1.3441   -0.6719   -2.4502 H   0  0  0  0  0  0  0  0  0  0  0  0
    0.1750   -2.5011   -1.5128 H   0  0  0  0  0  0  0  0  0  0  0  0
   -2.0117   -0.0060   -2.2167 H   0  0  0  0  0  0  0  0  0  0  0  0
   -0.8477   -1.1782   -2.8171 H   0  0  0  0  0  0  0  0  0  0  0  0
   -0.3019    0.5022   -2.3412 H   0  0  0  0  0  0  0  0  0  0  0  0
   -2.9937   -1.7835    3.1472 H   0  0  0  0  0  0  0  0  0  0  0  0
   -1.6469    2.0648   -1.2312 H   0  0  0  0  0  0  0  0  0  0  0  0
   -3.2333    3.8345   -0.2175 H   0  0  0  0  0  0  0  0  0  0  0  0
   -4.2811    2.7978    1.8915 H   0  0  0  0  0  0  0  0  0  0  0  0
    3.6706    2.1908    0.2741 H   0  0  0  0  0  0  0  0  0  0  0  0
    2.0247    2.4517    1.0056 H   0  0  0  0  0  0  0  0  0  0  0  0
  1  2  1  0
  1  3  1  0
  3  4  1  0
  4  5  1  0
  5  6  1  0
  6  7  1  0
  7  8  1  0
  8  9  1  0
  8 10  1  0
 10 11  2  0
 11 12  1  0
 12 13  2  0
 13 14  1  0
 14 15  2  0
 15 16  1  0
 16 17  2  0
 17 18  1  0
  5 19  1  0
 19 20  2  0
 19 21  1  0
 21 22  1  0
 22 23  3  0
  7  1  1  0
 15 10  1  0
 18 14  1  0
  1 24  1  6
  2 25  1  0
  2 26  1  0
  2 27  1  0
  3 28  1  0
  3 29  1  0
  4 30  1  0
  4 31  1  0
  6 32  1  0
  6 33  1  0
  7 34  1  6
  9 35  1  0
  9 36  1  0
  9 37  1  0
 12 38  1  0
 16 39  1  0
 17 40  1  0
 18 41  1  0
 21 42  1  0
 21 43  1  0
M  END
$$$$
