
     RDKit          3D

 55 59  0  0  0  0  0  0  0  0999 V2000
   -8.1703    1.7162    0.2976 N   0  0  0  0  0  0  0  0  0  0  0  0
   -7.6697    1.5030   -1.0461 C   0  0  0  0  0  0  0  0  0  0  0  0
   -6.7117    0.3592   -0.9936 C   0  0  0  0  0  0  0  0  0  0  0  0
   -7.1943   -0.9324   -1.1920 C   0  0  0  0  0  0  0  0  0  0  0  0
   -6.2650   -1.9628   -1.1325 C   0  0  0  0  0  0  0  0  0  0  0  0
   -4.9379   -1.7174   -0.8900 C   0  0  0  0  0  0  0  0  0  0  0  0
   -3.8677   -2.6104   -0.7944 O   0  0  0  0  0  0  0  0  0  0  0  0
   -2.6944   -1.9487   -0.3945 C   0  0  0  0  0  0  0  0  0  0  0  0
   -3.0270   -0.4936   -0.4546 C   0  0  0  0  0  0  0  0  0  0  0  0
   -2.7399    0.1221    0.9049 C   0  0  0  0  0  0  0  0  0  0  0  0
   -1.4648    0.9536    0.8358 C   0  0  0  0  0  0  0  0  0  0  0  0
   -0.4956    0.3460   -0.0222 N   0  0  0  0  0  0  0  0  0  0  0  0
   -0.8621    0.1780   -1.4118 C   0  0  0  0  0  0  0  0  0  0  0  0
   -2.3417    0.2345   -1.5579 C   0  0  0  0  0  0  0  0  0  0  0  0
    0.7074   -0.0236    0.5877 C   0  0  0  0  0  0  0  0  0  0  0  0
    0.5871    0.3021    1.8200 O   0  0  0  0  0  0  0  0  0  0  0  0
    1.9914   -0.6303    0.2913 C   0  0  0  0  0  0  0  0  0  0  0  0
    2.3186   -1.7991   -0.3478 C   0  0  0  0  0  0  0  0  0  0  0  0
    3.6901   -1.9710   -0.3994 C   0  0  0  0  0  0  0  0  0  0  0  0
    4.1330   -0.8108    0.2602 C   0  0  0  0  0  0  0  0  0  0  0  0
    3.1348   -0.0577    0.6464 O   0  0  0  0  0  0  0  0  0  0  0  0
    5.5070   -0.4595    0.5021 C   0  0  0  0  0  0  0  0  0  0  0  0
    6.6803   -0.1773    0.7206 C   0  0  0  0  0  0  0  0  0  0  0  0
    8.0664    0.1508    1.0006 C   0  0  0  0  0  0  0  0  0  0  0  0
    9.0405   -0.5647    0.3555 C   0  0  0  0  0  0  0  0  0  0  0  0
   10.3041   -0.1761    0.6949 C   0  0  0  0  0  0  0  0  0  0  0  0
   10.6615    0.8238    1.5854 C   0  0  0  0  0  0  0  0  0  0  0  0
    9.5981    1.4991    2.1955 C   0  0  0  0  0  0  0  0  0  0  0  0
    8.2919    1.1609    1.9016 C   0  0  0  0  0  0  0  0  0  0  0  0
   -4.5079   -0.4356   -0.7012 C   0  0  0  0  0  0  0  0  0  0  0  0
   -5.3898    0.6212   -0.7505 C   0  0  0  0  0  0  0  0  0  0  0  0
   -7.3755    1.7684    0.9600 H   0  0  0  0  0  0  0  0  0  0  0  0
   -8.7789    0.9367    0.6276 H   0  0  0  0  0  0  0  0  0  0  0  0
   -7.1423    2.4307   -1.3583 H   0  0  0  0  0  0  0  0  0  0  0  0
   -8.4837    1.3080   -1.7694 H   0  0  0  0  0  0  0  0  0  0  0  0
   -8.2687   -1.0730   -1.3822 H   0  0  0  0  0  0  0  0  0  0  0  0
   -6.6932   -2.9304   -1.2909 H   0  0  0  0  0  0  0  0  0  0  0  0
   -2.4100   -2.2692    0.6432 H   0  0  0  0  0  0  0  0  0  0  0  0
   -1.8486   -2.1771   -1.0540 H   0  0  0  0  0  0  0  0  0  0  0  0
   -3.5616    0.8188    1.1506 H   0  0  0  0  0  0  0  0  0  0  0  0
   -2.6601   -0.6454    1.6937 H   0  0  0  0  0  0  0  0  0  0  0  0
   -1.1261    1.1009    1.8752 H   0  0  0  0  0  0  0  0  0  0  0  0
   -1.7184    1.9698    0.4421 H   0  0  0  0  0  0  0  0  0  0  0  0
   -0.4849   -0.8341   -1.7247 H   0  0  0  0  0  0  0  0  0  0  0  0
   -0.3504    0.9611   -2.0443 H   0  0  0  0  0  0  0  0  0  0  0  0
   -2.6627   -0.2439   -2.5231 H   0  0  0  0  0  0  0  0  0  0  0  0
   -2.6581    1.2971   -1.5595 H   0  0  0  0  0  0  0  0  0  0  0  0
    1.6083   -2.5060   -0.7666 H   0  0  0  0  0  0  0  0  0  0  0  0
    4.3176   -2.7391   -0.8050 H   0  0  0  0  0  0  0  0  0  0  0  0
    8.8571   -1.3615   -0.3565 H   0  0  0  0  0  0  0  0  0  0  0  0
   11.1813   -0.6667    0.2506 H   0  0  0  0  0  0  0  0  0  0  0  0
   11.6868    1.0784    1.8073 H   0  0  0  0  0  0  0  0  0  0  0  0
    9.8160    2.2896    2.8995 H   0  0  0  0  0  0  0  0  0  0  0  0
    7.4676    1.6899    2.3784 H   0  0  0  0  0  0  0  0  0  0  0  0
   -5.0842    1.6359   -0.6056 H   0  0  0  0  0  0  0  0  0  0  0  0
  1  2  1  0
  2  3  1  0
  3  4  2  0
  4  5  1  0
  5  6  2  0
  6  7  1  0
  7  8  1  0
  8  9  1  0
  9 10  1  0
 10 11  1  0
 11 12  1  0
 12 13  1  0
 13 14  1  0
 12 15  1  0
 15 16  2  0
 15 17  1  0
 17 18  2  0
 18 19  1  0
 19 20  2  0
 20 21  1  0
 20 22  1  0
 22 23  3  0
 23 24  1  0
 24 25  2  0
 25 26  1  0
 26 27  2  0
 27 28  1  0
 28 29  2  0
  9 30  1  0
 30 31  2  0
 31  3  1  0
 30  6  1  0
 14  9  1  0
 21 17  1  0
 29 24  1  0
  1 32  1  0
  1 33  1  0
  2 34  1  0
  2 35  1  0
  4 36  1  0
  5 37  1  0
  8 38  1  0
  8 39  1  0
 10 40  1  0
 10 41  1  0
 11 42  1  0
 11 43  1  0
 13 44  1  0
 13 45  1  0
 14 46  1  0
 14 47  1  0
 18 48  1  0
 19 49  1  0
 25 50  1  0
 26 51  1  0
 27 52  1  0
 28 53  1  0
 29 54  1  0
 31 55  1  0
M  END
$$$$
