
     RDKit          3D

 73 78  0  0  0  0  0  0  0  0999 V2000
   -3.7205    7.1295    0.9588 C   0  0  0  0  0  0  0  0  0  0  0  0
   -2.9269    5.9797    1.0758 O   0  0  0  0  0  0  0  0  0  0  0  0
   -2.6688    5.1068    0.0124 C   0  0  0  0  0  0  0  0  0  0  0  0
   -1.8716    4.0236    0.2905 C   0  0  0  0  0  0  0  0  0  0  0  0
   -1.5918    3.1358   -0.7330 C   0  0  0  0  0  0  0  0  0  0  0  0
   -0.7926    1.9897   -0.5822 N   0  0  0  0  0  0  0  0  0  0  0  0
    0.6352    1.9074   -0.7770 C   0  0  0  0  0  0  0  0  0  0  0  0
    1.2858    2.6936   -1.4904 O   0  0  0  0  0  0  0  0  0  0  0  0
    1.1311    0.7930   -0.0211 N   0  0  0  0  0  0  0  0  0  0  0  0
    2.4714    0.3361    0.0801 C   0  0  0  0  0  0  0  0  0  0  0  0
    3.3421    0.8021    1.0395 C   0  0  0  0  0  0  0  0  0  0  0  0
    4.6370    0.3416    1.1269 C   0  0  0  0  0  0  0  0  0  0  0  0
    5.0951   -0.6214    0.2286 C   0  0  0  0  0  0  0  0  0  0  0  0
    6.4569   -1.1312    0.2993 C   0  0  0  0  0  0  0  0  0  0  0  0
    6.9772   -1.4981    1.5442 C   0  0  0  0  0  0  0  0  0  0  0  0
    8.2603   -1.9858    1.6432 C   0  0  0  0  0  0  0  0  0  0  0  0
    9.0695   -2.1319    0.5543 C   0  0  0  0  0  0  0  0  0  0  0  0
   10.4346   -2.6578    0.7128 C   0  0  0  0  0  0  0  0  0  0  0  0
   10.8464   -2.9696    1.8578 O   0  0  0  0  0  0  0  0  0  0  0  0
   11.2737   -2.8149   -0.3830 O   0  0  0  0  0  0  0  0  0  0  0  0
    8.5834   -1.7785   -0.6841 C   0  0  0  0  0  0  0  0  0  0  0  0
    7.2813   -1.2821   -0.7942 C   0  0  0  0  0  0  0  0  0  0  0  0
    6.6946   -0.8391   -2.3762 Cl  0  0  0  0  0  0  0  0  0  0  0  0
    4.2427   -1.0909   -0.7264 C   0  0  0  0  0  0  0  0  0  0  0  0
    2.9504   -0.6149   -0.7945 C   0  0  0  0  0  0  0  0  0  0  0  0
   -0.0329    0.2255    0.6197 C   0  0  0  0  0  0  0  0  0  0  0  0
    0.0373   -0.4651    1.6650 O   0  0  0  0  0  0  0  0  0  0  0  0
   -1.1697    0.6407   -0.2043 C   0  0  0  0  0  0  0  0  0  0  0  0
   -1.2357   -0.1921   -1.4631 C   0  0  0  0  0  0  0  0  0  0  0  0
   -1.7182   -1.5659   -1.0669 C   0  0  0  0  0  0  0  0  0  0  0  0
   -3.0336   -1.4293   -0.4880 N   0  0  0  0  0  0  0  0  0  0  0  0
   -3.6613   -2.7331   -0.3878 C   0  0  0  0  0  0  0  0  0  0  0  0
   -5.0005   -2.7160    0.1969 C   0  0  0  0  0  0  0  0  0  0  0  0
   -5.1962   -3.1184    1.4659 N   0  0  0  0  0  0  0  0  0  0  0  0
   -6.4311   -3.1119    2.0312 C   0  0  0  0  0  0  0  0  0  0  0  0
   -7.5485   -2.6950    1.3408 C   0  0  0  0  0  0  0  0  0  0  0  0
   -7.3743   -2.2774    0.0374 C   0  0  0  0  0  0  0  0  0  0  0  0
   -6.1001   -2.2944   -0.5154 C   0  0  0  0  0  0  0  0  0  0  0  0
   -5.9303   -1.8420   -1.9192 C   0  0  0  0  0  0  0  0  0  0  0  0
   -3.0406   -0.7148    0.7514 C   0  0  0  0  0  0  0  0  0  0  0  0
   -2.4760    0.6731    0.5297 C   0  0  0  0  0  0  0  0  0  0  0  0
   -2.1270    3.4033   -1.9358 N   0  0  0  0  0  0  0  0  0  0  0  0
   -2.8995    4.4616   -2.1864 C   0  0  0  0  0  0  0  0  0  0  0  0
   -3.1763    5.3251   -1.2057 N   0  0  0  0  0  0  0  0  0  0  0  0
   -4.2213    7.1002   -0.0321 H   0  0  0  0  0  0  0  0  0  0  0  0
   -3.1264    8.0554    1.0651 H   0  0  0  0  0  0  0  0  0  0  0  0
   -4.5199    7.1236    1.7299 H   0  0  0  0  0  0  0  0  0  0  0  0
   -1.4661    3.8546    1.2761 H   0  0  0  0  0  0  0  0  0  0  0  0
    3.0288    1.5448    1.7512 H   0  0  0  0  0  0  0  0  0  0  0  0
    5.3453    0.6840    1.8640 H   0  0  0  0  0  0  0  0  0  0  0  0
    6.3364   -1.3815    2.3999 H   0  0  0  0  0  0  0  0  0  0  0  0
    8.6495   -2.2657    2.6115 H   0  0  0  0  0  0  0  0  0  0  0  0
   12.0897   -3.4290   -0.2528 H   0  0  0  0  0  0  0  0  0  0  0  0
    9.1991   -1.8811   -1.5721 H   0  0  0  0  0  0  0  0  0  0  0  0
    4.5582   -1.8394   -1.4416 H   0  0  0  0  0  0  0  0  0  0  0  0
    2.3111   -1.0193   -1.5717 H   0  0  0  0  0  0  0  0  0  0  0  0
   -1.9978    0.2645   -2.1238 H   0  0  0  0  0  0  0  0  0  0  0  0
   -0.2323   -0.2197   -1.9034 H   0  0  0  0  0  0  0  0  0  0  0  0
   -1.0082   -2.0874   -0.4034 H   0  0  0  0  0  0  0  0  0  0  0  0
   -1.8125   -2.1921   -1.9815 H   0  0  0  0  0  0  0  0  0  0  0  0
   -3.0208   -3.4239    0.2036 H   0  0  0  0  0  0  0  0  0  0  0  0
   -3.7106   -3.1437   -1.4201 H   0  0  0  0  0  0  0  0  0  0  0  0
   -6.5868   -3.4361    3.0539 H   0  0  0  0  0  0  0  0  0  0  0  0
   -8.5422   -2.6945    1.8076 H   0  0  0  0  0  0  0  0  0  0  0  0
   -8.2469   -1.9504   -0.5062 H   0  0  0  0  0  0  0  0  0  0  0  0
   -5.3962   -2.6676   -2.4613 H   0  0  0  0  0  0  0  0  0  0  0  0
   -6.9193   -1.7614   -2.4319 H   0  0  0  0  0  0  0  0  0  0  0  0
   -5.3640   -0.8991   -1.9665 H   0  0  0  0  0  0  0  0  0  0  0  0
   -2.4096   -1.1855    1.5343 H   0  0  0  0  0  0  0  0  0  0  0  0
   -4.0980   -0.5868    1.0605 H   0  0  0  0  0  0  0  0  0  0  0  0
   -2.3450    1.1580    1.4940 H   0  0  0  0  0  0  0  0  0  0  0  0
   -3.1872    1.2892   -0.0638 H   0  0  0  0  0  0  0  0  0  0  0  0
   -3.2887    4.5933   -3.2010 H   0  0  0  0  0  0  0  0  0  0  0  0
  1  2  1  0
  2  3  1  0
  3  4  2  0
  4  5  1  0
  5  6  1  0
  6  7  1  0
  7  8  2  0
  7  9  1  0
  9 10  1  0
 10 11  2  0
 11 12  1  0
 12 13  2  0
 13 14  1  0
 14 15  2  0
 15 16  1  0
 16 17  2  0
 17 18  1  0
 18 19  2  0
 18 20  1  0
 17 21  1  0
 21 22  2  0
 22 23  1  0
 13 24  1  0
 24 25  2  0
  9 26  1  0
 26 27  2  0
 26 28  1  0
 28 29  1  0
 29 30  1  0
 30 31  1  0
 31 32  1  0
 32 33  1  0
 33 34  2  0
 34 35  1  0
 35 36  2  0
 36 37  1  0
 37 38  2  0
 38 39  1  0
 31 40  1  0
 40 41  1  0
  5 42  2  0
 42 43  1  0
 43 44  2  0
 44  3  1  0
 28  6  1  0
 38 33  1  0
 25 10  1  0
 41 28  1  0
 22 14  1  0
  1 45  1  0
  1 46  1  0
  1 47  1  0
  4 48  1  0
 11 49  1  0
 12 50  1  0
 15 51  1  0
 16 52  1  0
 20 53  1  0
 21 54  1  0
 24 55  1  0
 25 56  1  0
 29 57  1  0
 29 58  1  0
 30 59  1  0
 30 60  1  0
 32 61  1  0
 32 62  1  0
 35 63  1  0
 36 64  1  0
 37 65  1  0
 39 66  1  0
 39 67  1  0
 39 68  1  0
 40 69  1  0
 40 70  1  0
 41 71  1  0
 41 72  1  0
 43 73  1  0
M  END
$$$$
