
     RDKit          3D

 68 72  0  0  0  0  0  0  0  0999 V2000
    7.9813   -0.7349   -0.8059 C   0  0  0  0  0  0  0  0  0  0  0  0
    7.2492   -0.1031    0.3739 C   0  0  0  0  0  0  0  0  0  0  0  0
    8.0422   -0.4105    1.6122 C   0  0  0  0  0  0  0  0  0  0  0  0
    7.2454    1.4112    0.1936 C   0  0  0  0  0  0  0  0  0  0  0  0
    5.9204   -0.5219    0.4678 O   0  0  0  0  0  0  0  0  0  0  0  0
    5.0431   -0.2866   -0.5663 C   0  0  0  0  0  0  0  0  0  0  0  0
    5.4967    0.3202   -1.5918 O   0  0  0  0  0  0  0  0  0  0  0  0
    3.7006   -0.6868   -0.5204 N   0  0  0  0  0  0  0  0  0  0  0  0
    2.8163   -0.4192   -1.6278 C   0  0  0  0  0  0  0  0  0  0  0  0
    1.4988   -1.1037   -1.5157 C   0  0  0  0  0  0  0  0  0  0  0  0
    0.8646   -0.9989   -0.1535 C   0  0  0  0  0  0  0  0  0  0  0  0
   -0.0339    0.1645   -0.1331 N   0  0  0  0  0  0  0  0  0  0  0  0
    0.2854    1.4274   -0.2779 N   0  0  0  0  0  0  0  0  0  0  0  0
   -0.8278    2.1941   -0.1972 C   0  0  0  0  0  0  0  0  0  0  0  0
   -1.8739    1.3227    0.0102 C   0  0  0  0  0  0  0  0  0  0  0  0
   -3.2272    1.4552    0.1630 C   0  0  0  0  0  0  0  0  0  0  0  0
   -3.8477    2.7115    0.1854 N   0  0  0  0  0  0  0  0  0  0  0  0
   -5.3109    2.7868   -0.1275 C   0  0  0  0  0  0  0  0  0  0  0  0
   -5.5560    4.2177   -0.5622 C   0  0  0  0  0  0  0  0  0  0  0  0
   -4.5637    4.7410   -1.3430 O   0  0  0  0  0  0  0  0  0  0  0  0
   -3.3010    4.7806   -0.7915 C   0  0  0  0  0  0  0  0  0  0  0  0
   -3.3126    3.9978    0.5172 C   0  0  0  0  0  0  0  0  0  0  0  0
   -4.0072    0.3276    0.3426 N   0  0  0  0  0  0  0  0  0  0  0  0
   -3.4994   -0.9036    0.3766 C   0  0  0  0  0  0  0  0  0  0  0  0
   -4.3404   -2.0904    0.5682 C   0  0  0  0  0  0  0  0  0  0  0  0
   -5.7019   -1.9854    0.7229 C   0  0  0  0  0  0  0  0  0  0  0  0
   -6.5005   -3.1112    0.9048 C   0  0  0  0  0  0  0  0  0  0  0  0
   -5.9401   -4.3624    0.9339 C   0  0  0  0  0  0  0  0  0  0  0  0
   -6.6765   -5.5507    1.1132 N   0  0  0  0  0  0  0  0  0  0  0  0
   -4.5798   -4.4846    0.7807 C   0  0  0  0  0  0  0  0  0  0  0  0
   -3.8021   -3.3554    0.6010 C   0  0  0  0  0  0  0  0  0  0  0  0
   -2.1746   -1.0174    0.2274 N   0  0  0  0  0  0  0  0  0  0  0  0
   -1.3597    0.0328    0.0487 C   0  0  0  0  0  0  0  0  0  0  0  0
    1.8402   -0.8163    0.9579 C   0  0  0  0  0  0  0  0  0  0  0  0
    3.2108   -1.3785    0.6651 C   0  0  0  0  0  0  0  0  0  0  0  0
    9.0748   -0.8400   -0.5811 H   0  0  0  0  0  0  0  0  0  0  0  0
    7.9125   -0.0697   -1.6782 H   0  0  0  0  0  0  0  0  0  0  0  0
    7.6207   -1.7673   -0.9982 H   0  0  0  0  0  0  0  0  0  0  0  0
    7.7630    0.2436    2.4686 H   0  0  0  0  0  0  0  0  0  0  0  0
    9.1103   -0.1676    1.3824 H   0  0  0  0  0  0  0  0  0  0  0  0
    8.0200   -1.4646    1.9120 H   0  0  0  0  0  0  0  0  0  0  0  0
    8.1157    1.8369    0.7178 H   0  0  0  0  0  0  0  0  0  0  0  0
    7.3395    1.6019   -0.8959 H   0  0  0  0  0  0  0  0  0  0  0  0
    6.3119    1.8317    0.6033 H   0  0  0  0  0  0  0  0  0  0  0  0
    2.7530    0.6743   -1.8021 H   0  0  0  0  0  0  0  0  0  0  0  0
    3.3300   -0.8342   -2.5439 H   0  0  0  0  0  0  0  0  0  0  0  0
    0.7996   -0.5955   -2.2420 H   0  0  0  0  0  0  0  0  0  0  0  0
    1.5683   -2.1551   -1.8778 H   0  0  0  0  0  0  0  0  0  0  0  0
    0.3145   -1.9437    0.0216 H   0  0  0  0  0  0  0  0  0  0  0  0
   -0.8767    3.2741   -0.2920 H   0  0  0  0  0  0  0  0  0  0  0  0
   -5.5095    2.1398   -1.0006 H   0  0  0  0  0  0  0  0  0  0  0  0
   -5.8836    2.5647    0.7690 H   0  0  0  0  0  0  0  0  0  0  0  0
   -6.4999    4.2271   -1.1917 H   0  0  0  0  0  0  0  0  0  0  0  0
   -5.8315    4.8856    0.2943 H   0  0  0  0  0  0  0  0  0  0  0  0
   -2.6165    4.2680   -1.4952 H   0  0  0  0  0  0  0  0  0  0  0  0
   -2.9426    5.8070   -0.5876 H   0  0  0  0  0  0  0  0  0  0  0  0
   -4.0662    4.5399    1.2162 H   0  0  0  0  0  0  0  0  0  0  0  0
   -2.4018    4.0354    1.0924 H   0  0  0  0  0  0  0  0  0  0  0  0
   -6.1945   -1.0268    0.7082 H   0  0  0  0  0  0  0  0  0  0  0  0
   -7.5733   -3.0405    1.0276 H   0  0  0  0  0  0  0  0  0  0  0  0
   -7.0517   -5.7735    2.0487 H   0  0  0  0  0  0  0  0  0  0  0  0
   -6.8400   -6.1924    0.3186 H   0  0  0  0  0  0  0  0  0  0  0  0
   -4.1067   -5.4738    0.8001 H   0  0  0  0  0  0  0  0  0  0  0  0
   -2.7372   -3.4985    0.4847 H   0  0  0  0  0  0  0  0  0  0  0  0
    1.9467    0.2672    1.2394 H   0  0  0  0  0  0  0  0  0  0  0  0
    1.4486   -1.3149    1.8651 H   0  0  0  0  0  0  0  0  0  0  0  0
    3.0983   -2.4414    0.4381 H   0  0  0  0  0  0  0  0  0  0  0  0
    3.8461   -1.1676    1.5442 H   0  0  0  0  0  0  0  0  0  0  0  0
  1  2  1  0
  2  3  1  0
  2  4  1  0
  2  5  1  0
  5  6  1  0
  6  7  2  0
  6  8  1  0
  8  9  1  0
  9 10  1  0
 10 11  1  0
 11 12  1  0
 12 13  1  0
 13 14  2  0
 14 15  1  0
 15 16  2  0
 16 17  1  0
 17 18  1  0
 18 19  1  0
 19 20  1  0
 20 21  1  0
 21 22  1  0
 16 23  1  0
 23 24  2  0
 24 25  1  0
 25 26  2  0
 26 27  1  0
 27 28  2  0
 28 29  1  0
 28 30  1  0
 30 31  2  0
 24 32  1  0
 32 33  2  0
 11 34  1  0
 34 35  1  0
 35  8  1  0
 33 12  1  0
 33 15  1  0
 22 17  1  0
 31 25  1  0
  1 36  1  0
  1 37  1  0
  1 38  1  0
  3 39  1  0
  3 40  1  0
  3 41  1  0
  4 42  1  0
  4 43  1  0
  4 44  1  0
  9 45  1  0
  9 46  1  0
 10 47  1  0
 10 48  1  0
 11 49  1  0
 14 50  1  0
 18 51  1  0
 18 52  1  0
 19 53  1  0
 19 54  1  0
 21 55  1  0
 21 56  1  0
 22 57  1  0
 22 58  1  0
 26 59  1  0
 27 60  1  0
 29 61  1  0
 29 62  1  0
 30 63  1  0
 31 64  1  0
 34 65  1  0
 34 66  1  0
 35 67  1  0
 35 68  1  0
M  END
$$$$
