
     RDKit          3D

 64 68  0  0  0  0  0  0  0  0999 V2000
   -2.7026    6.8376   -0.3000 C   0  0  0  0  0  0  0  0  0  0  0  0
   -1.6221    5.8178   -0.6297 C   0  0  0  0  0  0  0  0  0  0  0  0
   -0.5878    5.7635    0.4898 C   0  0  0  0  0  0  0  0  0  0  0  0
    0.6818    4.5614    0.0927 S   0  0  0  0  0  0  0  0  0  0  0  0
    0.1061    2.8956    0.0473 C   0  0  0  0  0  0  0  0  0  0  0  0
    1.0768    1.9916   -0.2538 N   0  0  0  0  0  0  0  0  0  0  0  0
    0.7694    0.6655   -0.3244 C   0  0  0  0  0  0  0  0  0  0  0  0
   -0.5375    0.2213   -0.0897 C   0  0  0  0  0  0  0  0  0  0  0  0
   -0.5312   -1.1038   -0.2262 N   0  0  0  0  0  0  0  0  0  0  0  0
    0.7152   -1.4892   -0.5325 N   0  0  0  0  0  0  0  0  0  0  0  0
    1.4954   -0.4227   -0.5910 N   0  0  0  0  0  0  0  0  0  0  0  0
    2.8994   -0.4894   -0.8996 C   0  0  2  0  0  0  0  0  0  0  0  0
    3.3983   -1.8806   -1.0949 C   0  0  0  0  0  0  0  0  0  0  0  0
    4.8482   -1.8827   -0.5815 C   0  0  2  0  0  0  0  0  0  0  0  0
    4.8932   -2.6221    0.5645 O   0  0  0  0  0  0  0  0  0  0  0  0
    5.8032   -3.6324    0.6419 C   0  0  0  0  0  0  0  0  0  0  0  0
    7.2433   -3.2559    0.5638 C   0  0  0  0  0  0  0  0  0  0  0  0
    7.6314   -2.6212   -0.5900 O   0  0  0  0  0  0  0  0  0  0  0  0
    5.0998   -0.4177   -0.1857 C   0  0  1  0  0  0  0  0  0  0  0  0
    5.3239    0.3845   -1.3063 O   0  0  0  0  0  0  0  0  0  0  0  0
    3.7010   -0.0392    0.3055 C   0  0  1  0  0  0  0  0  0  0  0  0
    3.6148    1.3376    0.5102 O   0  0  0  0  0  0  0  0  0  0  0  0
   -1.4493    1.2126    0.2080 C   0  0  0  0  0  0  0  0  0  0  0  0
   -2.7893    0.8496    0.4550 N   0  0  0  0  0  0  0  0  0  0  0  0
   -3.3798   -0.4692    0.4382 C   0  0  2  0  0  0  0  0  0  0  0  0
   -3.3022   -1.2434   -0.8830 C   0  0  0  0  0  0  0  0  0  0  0  0
   -4.5953   -0.7055   -0.3838 C   0  0  1  0  0  0  0  0  0  0  0  0
   -5.5445   -1.7342    0.1229 C   0  0  0  0  0  0  0  0  0  0  0  0
   -6.8874   -1.6080   -0.1831 C   0  0  0  0  0  0  0  0  0  0  0  0
   -7.8107   -2.5422    0.2674 C   0  0  0  0  0  0  0  0  0  0  0  0
   -9.1242   -2.3822   -0.0578 F   0  0  0  0  0  0  0  0  0  0  0  0
   -7.3383   -3.6083    1.0367 C   0  0  0  0  0  0  0  0  0  0  0  0
   -8.2290   -4.5275    1.4818 F   0  0  0  0  0  0  0  0  0  0  0  0
   -5.9848   -3.7201    1.3352 C   0  0  0  0  0  0  0  0  0  0  0  0
   -5.0679   -2.7811    0.8805 C   0  0  0  0  0  0  0  0  0  0  0  0
   -1.1725    2.5256    0.2836 N   0  0  0  0  0  0  0  0  0  0  0  0
   -3.1077    6.6647    0.7175 H   0  0  0  0  0  0  0  0  0  0  0  0
   -3.4890    6.7766   -1.0640 H   0  0  0  0  0  0  0  0  0  0  0  0
   -2.2510    7.8559   -0.3654 H   0  0  0  0  0  0  0  0  0  0  0  0
   -1.1558    6.1010   -1.5736 H   0  0  0  0  0  0  0  0  0  0  0  0
   -2.1133    4.8257   -0.7235 H   0  0  0  0  0  0  0  0  0  0  0  0
   -0.1076    6.7563    0.6035 H   0  0  0  0  0  0  0  0  0  0  0  0
   -1.0538    5.4826    1.4466 H   0  0  0  0  0  0  0  0  0  0  0  0
    3.1778    0.1776   -1.7438 H   0  0  0  0  0  0  0  0  0  0  0  0
    2.8016   -2.6224   -0.5389 H   0  0  0  0  0  0  0  0  0  0  0  0
    3.3826   -2.2283   -2.1540 H   0  0  0  0  0  0  0  0  0  0  0  0
    5.5435   -2.1876   -1.3574 H   0  0  0  0  0  0  0  0  0  0  0  0
    5.6165   -4.4582   -0.0858 H   0  0  0  0  0  0  0  0  0  0  0  0
    5.6560   -4.1098    1.6558 H   0  0  0  0  0  0  0  0  0  0  0  0
    7.5419   -2.6615    1.4760 H   0  0  0  0  0  0  0  0  0  0  0  0
    7.8217   -4.2272    0.5938 H   0  0  0  0  0  0  0  0  0  0  0  0
    7.7629   -1.6435   -0.4074 H   0  0  0  0  0  0  0  0  0  0  0  0
    5.8629   -0.3265    0.5872 H   0  0  0  0  0  0  0  0  0  0  0  0
    5.4987   -0.2282   -2.0604 H   0  0  0  0  0  0  0  0  0  0  0  0
    3.4451   -0.6440    1.1838 H   0  0  0  0  0  0  0  0  0  0  0  0
    3.3196    1.5888    1.4222 H   0  0  0  0  0  0  0  0  0  0  0  0
   -3.5545    1.5072    0.6903 H   0  0  0  0  0  0  0  0  0  0  0  0
   -3.2792   -1.0398    1.3892 H   0  0  0  0  0  0  0  0  0  0  0  0
   -2.8453   -0.7458   -1.7538 H   0  0  0  0  0  0  0  0  0  0  0  0
   -3.0650   -2.3296   -0.7609 H   0  0  0  0  0  0  0  0  0  0  0  0
   -5.0387    0.1271   -0.9828 H   0  0  0  0  0  0  0  0  0  0  0  0
   -7.2602   -0.7859   -0.7775 H   0  0  0  0  0  0  0  0  0  0  0  0
   -5.7182   -4.5927    1.9429 H   0  0  0  0  0  0  0  0  0  0  0  0
   -4.0364   -2.9182    1.1421 H   0  0  0  0  0  0  0  0  0  0  0  0
  1  2  1  0
  2  3  1  0
  3  4  1  0
  4  5  1  0
  5  6  2  0
  6  7  1  0
  7  8  2  0
  8  9  1  0
  9 10  2  0
 10 11  1  0
 11 12  1  0
 12 13  1  0
 13 14  1  0
 14 15  1  0
 15 16  1  0
 16 17  1  0
 17 18  1  0
 14 19  1  0
 19 20  1  0
 19 21  1  0
 21 22  1  0
  8 23  1  0
 23 24  1  0
 24 25  1  0
 25 26  1  0
 26 27  1  0
 27 28  1  0
 28 29  2  0
 29 30  1  0
 30 31  1  0
 30 32  2  0
 32 33  1  0
 32 34  1  0
 34 35  2  0
 23 36  2  0
 36  5  1  0
 11  7  1  0
 21 12  1  0
 27 25  1  0
 35 28  1  0
  1 37  1  0
  1 38  1  0
  1 39  1  0
  2 40  1  0
  2 41  1  0
  3 42  1  0
  3 43  1  0
 12 44  1  6
 13 45  1  0
 13 46  1  0
 14 47  1  6
 16 48  1  0
 16 49  1  0
 17 50  1  0
 17 51  1  0
 18 52  1  0
 19 53  1  1
 20 54  1  0
 21 55  1  1
 22 56  1  0
 24 57  1  0
 25 58  1  1
 26 59  1  0
 26 60  1  0
 27 61  1  6
 29 62  1  0
 34 63  1  0
 35 64  1  0
M  END
$$$$
