
     RDKit          3D

 39 42  0  0  0  0  0  0  0  0999 V2000
   -2.7614   -3.3164    2.8075 N   0  0  0  0  0  0  0  0  0  0  0  0
   -2.7969   -2.9429    1.6858 C   0  0  0  0  0  0  0  0  0  0  0  0
   -2.8149   -2.4934    0.3358 C   0  0  0  0  0  0  0  0  0  0  0  0
   -3.5488   -3.0548   -0.6888 C   0  0  0  0  0  0  0  0  0  0  0  0
   -3.2575   -2.3497   -1.7834 N   0  0  0  0  0  0  0  0  0  0  0  0
   -2.3797   -1.3705   -1.5170 C   0  0  0  0  0  0  0  0  0  0  0  0
   -1.7605   -0.3989   -2.2650 C   0  0  0  0  0  0  0  0  0  0  0  0
   -0.8690    0.4751   -1.6741 C   0  0  0  0  0  0  0  0  0  0  0  0
   -0.5751    0.4062   -0.3358 C   0  0  0  0  0  0  0  0  0  0  0  0
    0.3442    1.2800    0.3406 C   0  0  0  0  0  0  0  0  0  0  0  0
    1.6146    0.8597    0.7337 C   0  0  0  0  0  0  0  0  0  0  0  0
    2.1864   -0.4493    0.5008 C   0  0  0  0  0  0  0  0  0  0  0  0
    2.3775   -0.9381   -0.7818 C   0  0  0  0  0  0  0  0  0  0  0  0
    2.9234   -2.1752   -1.0238 C   0  0  0  0  0  0  0  0  0  0  0  0
    3.2881   -2.9442    0.0528 C   0  0  0  0  0  0  0  0  0  0  0  0
    3.8435   -4.1914   -0.0667 F   0  0  0  0  0  0  0  0  0  0  0  0
    3.1106   -2.4847    1.3588 C   0  0  0  0  0  0  0  0  0  0  0  0
    2.5528   -1.2229    1.5693 C   0  0  0  0  0  0  0  0  0  0  0  0
    2.2035    1.8817    1.3668 N   0  0  0  0  0  0  0  0  0  0  0  0
    1.3514    2.9173    1.3820 C   0  0  0  0  0  0  0  0  0  0  0  0
    0.1904    2.5370    0.7390 N   0  0  0  0  0  0  0  0  0  0  0  0
   -0.9278    3.4249    0.5559 C   0  0  0  0  0  0  0  0  0  0  0  0
   -0.8012    4.3244   -0.6362 C   0  0  0  0  0  0  0  0  0  0  0  0
    0.3412    5.1330   -0.5390 F   0  0  0  0  0  0  0  0  0  0  0  0
   -0.7288    3.7119   -1.8505 F   0  0  0  0  0  0  0  0  0  0  0  0
   -1.2427   -0.6095    0.3669 C   0  0  0  0  0  0  0  0  0  0  0  0
   -2.1061   -1.4576   -0.2094 N   0  0  0  0  0  0  0  0  0  0  0  0
   -4.2280   -3.9036   -0.6122 H   0  0  0  0  0  0  0  0  0  0  0  0
   -1.9558   -0.2979   -3.3358 H   0  0  0  0  0  0  0  0  0  0  0  0
   -0.4073    1.1900   -2.3048 H   0  0  0  0  0  0  0  0  0  0  0  0
    2.0800   -0.3090   -1.5969 H   0  0  0  0  0  0  0  0  0  0  0  0
    3.0790   -2.5737   -2.0136 H   0  0  0  0  0  0  0  0  0  0  0  0
    3.3819   -3.0510    2.2305 H   0  0  0  0  0  0  0  0  0  0  0  0
    2.3912   -0.8199    2.5662 H   0  0  0  0  0  0  0  0  0  0  0  0
    1.5092    3.9103    1.8177 H   0  0  0  0  0  0  0  0  0  0  0  0
   -1.9070    2.9016    0.5920 H   0  0  0  0  0  0  0  0  0  0  0  0
   -0.9608    4.1092    1.4599 H   0  0  0  0  0  0  0  0  0  0  0  0
   -1.7137    4.9747   -0.6497 H   0  0  0  0  0  0  0  0  0  0  0  0
   -1.0257   -0.6825    1.4224 H   0  0  0  0  0  0  0  0  0  0  0  0
  1  2  3  0
  2  3  1  0
  3  4  2  0
  4  5  1  0
  5  6  2  0
  6  7  1  0
  7  8  2  0
  8  9  1  0
  9 10  1  0
 10 11  2  0
 11 12  1  0
 12 13  2  0
 13 14  1  0
 14 15  2  0
 15 16  1  0
 15 17  1  0
 17 18  2  0
 11 19  1  0
 19 20  2  0
 20 21  1  0
 21 22  1  0
 22 23  1  0
 23 24  1  0
 23 25  1  0
  9 26  2  0
 26 27  1  0
 27  3  1  0
 27  6  1  0
 21 10  1  0
 18 12  1  0
  4 28  1  0
  7 29  1  0
  8 30  1  0
 13 31  1  0
 14 32  1  0
 17 33  1  0
 18 34  1  0
 20 35  1  0
 22 36  1  0
 22 37  1  0
 23 38  1  0
 26 39  1  0
M  END
$$$$
