
     RDKit          3D

 51 55  0  0  0  0  0  0  0  0999 V2000
    4.4765    1.2457   -0.6215 C   0  0  0  0  0  0  0  0  0  0  0  0
    3.2240    0.5803   -0.3998 N   0  0  0  0  0  0  0  0  0  0  0  0
    2.1809    0.8668   -1.2278 C   0  0  0  0  0  0  0  0  0  0  0  0
    2.3641    1.7010   -2.1481 O   0  0  0  0  0  0  0  0  0  0  0  0
    0.9510    0.2711   -1.0790 C   0  0  0  0  0  0  0  0  0  0  0  0
    0.7784   -0.6322   -0.0713 C   0  0  0  0  0  0  0  0  0  0  0  0
   -0.4614   -1.3167    0.1535 N   0  0  0  0  0  0  0  0  0  0  0  0
   -1.5935   -1.1465   -0.6897 C   0  0  0  0  0  0  0  0  0  0  0  0
   -2.7465   -0.6012   -0.1436 C   0  0  0  0  0  0  0  0  0  0  0  0
   -3.9025   -0.4079   -0.8704 C   0  0  0  0  0  0  0  0  0  0  0  0
   -5.0843    0.1799   -0.2064 C   0  0  0  0  0  0  0  0  0  0  0  0
   -5.0136    0.4980    1.0274 O   0  0  0  0  0  0  0  0  0  0  0  0
   -6.3115    0.4182   -0.8585 N   0  0  0  0  0  0  0  0  0  0  0  0
   -7.4200    0.9999   -0.1262 C   0  0  0  0  0  0  0  0  0  0  0  0
   -8.2944    1.9838   -0.8799 C   0  0  0  0  0  0  0  0  0  0  0  0
   -8.8156    0.6386   -0.4705 C   0  0  0  0  0  0  0  0  0  0  0  0
   -3.9084   -0.7737   -2.1963 C   0  0  0  0  0  0  0  0  0  0  0  0
   -2.7604   -1.3249   -2.7680 C   0  0  0  0  0  0  0  0  0  0  0  0
   -1.6066   -1.5106   -2.0152 C   0  0  0  0  0  0  0  0  0  0  0  0
   -0.1748   -2.2263   -2.7226 Cl  0  0  0  0  0  0  0  0  0  0  0  0
    1.8198   -0.9389    0.7806 C   0  0  0  0  0  0  0  0  0  0  0  0
    1.9272   -1.7976    1.8661 C   0  0  0  0  0  0  0  0  0  0  0  0
    3.1794   -1.6840    2.3097 N   0  0  0  0  0  0  0  0  0  0  0  0
    3.8415   -0.7989    1.5492 N   0  0  0  0  0  0  0  0  0  0  0  0
    5.1992   -0.4334    1.7393 C   0  0  0  0  0  0  0  0  0  0  0  0
    6.2622   -1.2692    1.3799 C   0  0  0  0  0  0  0  0  0  0  0  0
    7.5661   -0.8880    1.5881 C   0  0  0  0  0  0  0  0  0  0  0  0
    7.8754    0.3224    2.1542 C   0  0  0  0  0  0  0  0  0  0  0  0
    9.1535    0.7284    2.3732 F   0  0  0  0  0  0  0  0  0  0  0  0
    6.8288    1.1571    2.5134 C   0  0  0  0  0  0  0  0  0  0  0  0
    5.5103    0.7810    2.3073 C   0  0  0  0  0  0  0  0  0  0  0  0
    3.0393   -0.3087    0.5860 C   0  0  0  0  0  0  0  0  0  0  0  0
    5.3661    0.6216   -0.5720 H   0  0  0  0  0  0  0  0  0  0  0  0
    4.4554    1.6496   -1.6800 H   0  0  0  0  0  0  0  0  0  0  0  0
    4.5378    2.1861   -0.0056 H   0  0  0  0  0  0  0  0  0  0  0  0
    0.1305    0.5247   -1.7460 H   0  0  0  0  0  0  0  0  0  0  0  0
   -0.5576   -1.9741    0.9683 H   0  0  0  0  0  0  0  0  0  0  0  0
   -2.7708   -0.2996    0.9137 H   0  0  0  0  0  0  0  0  0  0  0  0
   -6.4022    0.1652   -1.8822 H   0  0  0  0  0  0  0  0  0  0  0  0
   -7.2111    1.2193    0.9224 H   0  0  0  0  0  0  0  0  0  0  0  0
   -8.1267    2.1149   -1.9592 H   0  0  0  0  0  0  0  0  0  0  0  0
   -8.6003    2.8858   -0.2957 H   0  0  0  0  0  0  0  0  0  0  0  0
   -9.0577   -0.1023   -1.2543 H   0  0  0  0  0  0  0  0  0  0  0  0
   -9.5608    0.6736    0.3437 H   0  0  0  0  0  0  0  0  0  0  0  0
   -4.8031   -0.6362   -2.8038 H   0  0  0  0  0  0  0  0  0  0  0  0
   -2.7544   -1.6154   -3.8082 H   0  0  0  0  0  0  0  0  0  0  0  0
    1.1288   -2.4140    2.2392 H   0  0  0  0  0  0  0  0  0  0  0  0
    6.0103   -2.2268    0.9319 H   0  0  0  0  0  0  0  0  0  0  0  0
    8.3540   -1.5564    1.2992 H   0  0  0  0  0  0  0  0  0  0  0  0
    7.0800    2.1013    2.9553 H   0  0  0  0  0  0  0  0  0  0  0  0
    4.6976    1.4598    2.6004 H   0  0  0  0  0  0  0  0  0  0  0  0
  1  2  1  0
  2  3  1  0
  3  4  2  0
  3  5  1  0
  5  6  2  0
  6  7  1  0
  7  8  1  0
  8  9  2  0
  9 10  1  0
 10 11  1  0
 11 12  2  0
 11 13  1  0
 13 14  1  0
 14 15  1  0
 15 16  1  0
 10 17  2  0
 17 18  1  0
 18 19  2  0
 19 20  1  0
  6 21  1  0
 21 22  1  0
 22 23  2  0
 23 24  1  0
 24 25  1  0
 25 26  2  0
 26 27  1  0
 27 28  2  0
 28 29  1  0
 28 30  1  0
 30 31  2  0
 24 32  1  0
 32  2  1  0
 19  8  1  0
 32 21  2  0
 16 14  1  0
 31 25  1  0
  1 33  1  0
  1 34  1  0
  1 35  1  0
  5 36  1  0
  7 37  1  0
  9 38  1  0
 13 39  1  0
 14 40  1  0
 15 41  1  0
 15 42  1  0
 16 43  1  0
 16 44  1  0
 17 45  1  0
 18 46  1  0
 22 47  1  0
 26 48  1  0
 27 49  1  0
 30 50  1  0
 31 51  1  0
M  END
$$$$
