
     RDKit          3D

 32 33  0  0  0  0  0  0  0  0999 V2000
    3.9034    0.7807   -2.2858 C   0  0  0  0  0  0  0  0  0  0  0  0
    4.0990   -0.2749   -1.3578 O   0  0  0  0  0  0  0  0  0  0  0  0
    2.9479   -0.8789   -0.8223 C   0  0  0  0  0  0  0  0  0  0  0  0
    3.0165   -1.9188    0.0803 C   0  0  0  0  0  0  0  0  0  0  0  0
    1.8816   -2.5105    0.6004 C   0  0  0  0  0  0  0  0  0  0  0  0
    0.6300   -2.0358    0.1943 C   0  0  0  0  0  0  0  0  0  0  0  0
   -0.5835   -2.6545    0.7703 C   0  0  0  0  0  0  0  0  0  0  0  0
   -1.0049   -1.6267    2.2317 S   0  0  0  0  0  0  0  0  0  0  0  0
   -1.5399    0.0148    1.6926 C   0  0  0  0  0  0  0  0  0  0  0  0
   -0.7715    1.0577    1.5744 C   0  0  0  0  0  0  0  0  0  0  0  0
   -1.2401    2.3139    1.1445 C   0  0  0  0  0  0  0  0  0  0  0  0
   -2.5761    2.3727    0.8564 C   0  0  0  0  0  0  0  0  0  0  0  0
   -3.2052    3.6404    0.4034 C   0  0  0  0  0  0  0  0  0  0  0  0
   -3.6685    4.5475    0.0658 N   0  0  0  0  0  0  0  0  0  0  0  0
   -3.4242    1.3022    0.9647 C   0  0  0  0  0  0  0  0  0  0  0  0
   -4.8523    1.3767    0.6131 C   0  0  0  0  0  0  0  0  0  0  0  0
   -5.9647    1.4422    0.3581 N   0  0  0  0  0  0  0  0  0  0  0  0
   -2.9148    0.0835    1.3931 C   0  0  0  0  0  0  0  0  0  0  0  0
    0.5807   -0.9936   -0.7101 C   0  0  0  0  0  0  0  0  0  0  0  0
    1.6973   -0.4129   -1.2184 C   0  0  0  0  0  0  0  0  0  0  0  0
    3.2905    1.6111   -1.8203 H   0  0  0  0  0  0  0  0  0  0  0  0
    3.2872    0.3682   -3.1259 H   0  0  0  0  0  0  0  0  0  0  0  0
    4.8384    1.1645   -2.6697 H   0  0  0  0  0  0  0  0  0  0  0  0
    3.9854   -2.2887    0.3880 H   0  0  0  0  0  0  0  0  0  0  0  0
    1.9571   -3.3220    1.3055 H   0  0  0  0  0  0  0  0  0  0  0  0
   -1.4323   -2.5983    0.0557 H   0  0  0  0  0  0  0  0  0  0  0  0
   -0.3993   -3.6943    1.1438 H   0  0  0  0  0  0  0  0  0  0  0  0
    0.3053    0.9779    1.8108 H   0  0  0  0  0  0  0  0  0  0  0  0
   -0.5676    3.1338    1.0553 H   0  0  0  0  0  0  0  0  0  0  0  0
   -3.5528   -0.7762    1.4797 H   0  0  0  0  0  0  0  0  0  0  0  0
   -0.3875   -0.6188   -1.0317 H   0  0  0  0  0  0  0  0  0  0  0  0
    1.6648    0.4175   -1.9334 H   0  0  0  0  0  0  0  0  0  0  0  0
  1  2  1  0
  2  3  1  0
  3  4  2  0
  4  5  1  0
  5  6  2  0
  6  7  1  0
  7  8  1  0
  8  9  1  0
  9 10  2  0
 10 11  1  0
 11 12  2  0
 12 13  1  0
 13 14  3  0
 12 15  1  0
 15 16  1  0
 16 17  3  0
 15 18  2  0
  6 19  1  0
 19 20  2  0
 20  3  1  0
 18  9  1  0
  1 21  1  0
  1 22  1  0
  1 23  1  0
  4 24  1  0
  5 25  1  0
  7 26  1  0
  7 27  1  0
 10 28  1  0
 11 29  1  0
 18 30  1  0
 19 31  1  0
 20 32  1  0
M  END
$$$$
