
     RDKit          3D

 53 57  0  0  0  0  0  0  0  0999 V2000
    1.0757    1.2089   -0.7554 O   0  0  0  0  0  0  0  0  0  0  0  0
    0.8871    0.1817   -0.0558 C   0  0  0  0  0  0  0  0  0  0  0  0
   -0.4620   -0.2226    0.1287 N   0  0  0  0  0  0  0  0  0  0  0  0
   -1.5878    0.4880   -0.4439 C   0  0  1  0  0  0  0  0  0  0  0  0
   -2.4154   -0.3369   -1.3841 C   0  0  0  0  0  0  0  0  0  0  0  0
   -2.9716   -1.5173   -0.6569 C   0  0  0  0  0  0  0  0  0  0  0  0
   -3.8195   -1.0224    0.4803 C   0  0  1  0  0  0  0  0  0  0  0  0
   -3.0038   -0.1732    1.4306 C   0  0  0  0  0  0  0  0  0  0  0  0
   -2.4515    0.9890    0.6640 C   0  0  0  0  0  0  0  0  0  0  0  0
   -3.6092    1.8297    0.1815 C   0  0  0  0  0  0  0  0  0  0  0  0
   -4.4115    1.0121   -0.7850 C   0  0  1  0  0  0  0  0  0  0  0  0
   -5.4605    1.7693   -1.2636 O   0  0  0  0  0  0  0  0  0  0  0  0
   -3.5155    0.5766   -1.9066 C   0  0  0  0  0  0  0  0  0  0  0  0
   -4.9574   -0.2212   -0.0793 C   0  0  0  0  0  0  0  0  0  0  0  0
    2.0645   -0.5226    0.5172 C   0  0  0  0  0  0  0  0  0  0  0  0
    3.3049   -0.2408   -0.0798 N   0  0  0  0  0  0  0  0  0  0  0  0
    3.7986    1.0723   -0.0946 C   0  0  0  0  0  0  0  0  0  0  0  0
    5.3015    1.0923   -0.1532 C   0  0  0  0  0  0  0  0  0  0  0  0
    5.7168    0.4318   -1.4496 C   0  0  0  0  0  0  0  0  0  0  0  0
    4.9868   -0.8242   -1.7622 C   0  0  0  0  0  0  0  0  0  0  0  0
    4.0451   -1.2752   -0.6753 C   0  0  0  0  0  0  0  0  0  0  0  0
    1.9719   -0.6707    2.0459 C   0  0  0  0  0  0  0  0  0  0  0  0
    1.8824   -1.8442    1.1665 C   0  0  0  0  0  0  0  0  0  0  0  0
   -0.6099   -1.0782    0.7104 H   0  0  0  0  0  0  0  0  0  0  0  0
   -1.1417    1.3576   -1.0129 H   0  0  0  0  0  0  0  0  0  0  0  0
   -1.8630   -0.6898   -2.2710 H   0  0  0  0  0  0  0  0  0  0  0  0
   -2.1069   -2.0864   -0.2413 H   0  0  0  0  0  0  0  0  0  0  0  0
   -3.5971   -2.1462   -1.3175 H   0  0  0  0  0  0  0  0  0  0  0  0
   -4.2125   -1.8908    1.0311 H   0  0  0  0  0  0  0  0  0  0  0  0
   -3.7188    0.2017    2.1993 H   0  0  0  0  0  0  0  0  0  0  0  0
   -2.2288   -0.7744    1.9059 H   0  0  0  0  0  0  0  0  0  0  0  0
   -1.8411    1.6352    1.3301 H   0  0  0  0  0  0  0  0  0  0  0  0
   -3.3014    2.7876   -0.2440 H   0  0  0  0  0  0  0  0  0  0  0  0
   -4.2539    2.0168    1.0701 H   0  0  0  0  0  0  0  0  0  0  0  0
   -5.6322    2.5042   -0.6377 H   0  0  0  0  0  0  0  0  0  0  0  0
   -4.1021    0.1199   -2.7091 H   0  0  0  0  0  0  0  0  0  0  0  0
   -3.0048    1.4922   -2.2863 H   0  0  0  0  0  0  0  0  0  0  0  0
   -5.4871   -0.8076   -0.8620 H   0  0  0  0  0  0  0  0  0  0  0  0
   -5.6316    0.0870    0.7407 H   0  0  0  0  0  0  0  0  0  0  0  0
    3.4478    1.5789   -1.0423 H   0  0  0  0  0  0  0  0  0  0  0  0
    3.3957    1.6697    0.7477 H   0  0  0  0  0  0  0  0  0  0  0  0
    5.7741    0.5206    0.6656 H   0  0  0  0  0  0  0  0  0  0  0  0
    5.6127    2.1658   -0.1609 H   0  0  0  0  0  0  0  0  0  0  0  0
    5.6004    1.2199   -2.2514 H   0  0  0  0  0  0  0  0  0  0  0  0
    6.8254    0.2467   -1.3477 H   0  0  0  0  0  0  0  0  0  0  0  0
    4.4229   -0.6825   -2.7066 H   0  0  0  0  0  0  0  0  0  0  0  0
    5.7219   -1.6358   -1.9365 H   0  0  0  0  0  0  0  0  0  0  0  0
    3.3329   -1.9972   -1.1590 H   0  0  0  0  0  0  0  0  0  0  0  0
    4.6446   -1.8963    0.0257 H   0  0  0  0  0  0  0  0  0  0  0  0
    1.0304   -0.3694    2.5489 H   0  0  0  0  0  0  0  0  0  0  0  0
    2.8678   -0.4289    2.6378 H   0  0  0  0  0  0  0  0  0  0  0  0
    2.7511   -2.5339    1.1996 H   0  0  0  0  0  0  0  0  0  0  0  0
    0.9356   -2.3668    0.9909 H   0  0  0  0  0  0  0  0  0  0  0  0
  1  2  2  0
  2  3  1  0
  3  4  1  0
  4  5  1  0
  5  6  1  0
  6  7  1  0
  7  8  1  0
  8  9  1  0
  9 10  1  0
 10 11  1  0
 11 12  1  6
 11 13  1  0
 11 14  1  0
  2 15  1  0
 15 16  1  0
 16 17  1  0
 17 18  1  0
 18 19  1  0
 19 20  1  0
 20 21  1  0
 15 22  1  0
 22 23  1  0
  9  4  1  0
 23 15  1  0
 13  5  1  0
 21 16  1  0
 14  7  1  0
  3 24  1  0
  4 25  1  6
  5 26  1  0
  6 27  1  0
  6 28  1  0
  7 29  1  1
  8 30  1  0
  8 31  1  0
  9 32  1  0
 10 33  1  0
 10 34  1  0
 12 35  1  0
 13 36  1  0
 13 37  1  0
 14 38  1  0
 14 39  1  0
 17 40  1  0
 17 41  1  0
 18 42  1  0
 18 43  1  0
 19 44  1  0
 19 45  1  0
 20 46  1  0
 20 47  1  0
 21 48  1  0
 21 49  1  0
 22 50  1  0
 22 51  1  0
 23 52  1  0
 23 53  1  0
M  END
$$$$
