
     RDKit          3D

 66 70  0  0  0  0  0  0  0  0999 V2000
  -11.0518   -2.4217    0.0462 C   0  0  0  0  0  0  0  0  0  0  0  0
  -10.4498   -0.7735   -0.1504 S   0  0  0  0  0  0  0  0  0  0  0  0
  -10.0022   -0.2165    1.1784 O   0  0  0  0  0  0  0  0  0  0  0  0
  -11.5938    0.1321   -0.6049 O   0  0  0  0  0  0  0  0  0  0  0  0
   -9.1907   -0.6725   -1.3902 C   0  0  0  0  0  0  0  0  0  0  0  0
   -7.9864   -1.5221   -1.1075 C   0  0  0  0  0  0  0  0  0  0  0  0
   -6.9771   -1.3560   -2.1605 N   0  0  0  0  0  0  0  0  0  0  0  0
   -6.3704   -0.0227   -2.0430 C   0  0  0  0  0  0  0  0  0  0  0  0
   -5.0995   -0.0778   -1.2440 C   0  0  0  0  0  0  0  0  0  0  0  0
   -4.6094   -0.7848   -0.1340 C   0  0  0  0  0  0  0  0  0  0  0  0
   -3.3199   -0.2473    0.0136 C   0  0  0  0  0  0  0  0  0  0  0  0
   -3.0801    0.7263   -0.9639 C   0  0  0  0  0  0  0  0  0  0  0  0
   -4.1735    0.7194   -1.6111 O   0  0  0  0  0  0  0  0  0  0  0  0
   -1.7779    1.3369   -0.8760 C   0  0  0  0  0  0  0  0  0  0  0  0
   -0.6485    1.0516   -0.1612 C   0  0  0  0  0  0  0  0  0  0  0  0
    0.4259    1.9219   -0.2488 C   0  0  0  0  0  0  0  0  0  0  0  0
    0.3272    3.0432   -1.0453 C   0  0  0  0  0  0  0  0  0  0  0  0
   -0.7828    3.3720   -1.7803 C   0  0  0  0  0  0  0  0  0  0  0  0
   -1.8619    2.4831   -1.6839 C   0  0  0  0  0  0  0  0  0  0  0  0
    1.4176    3.8672   -1.0853 N   0  0  0  0  0  0  0  0  0  0  0  0
    2.5034    3.5619   -0.3735 C   0  0  0  0  0  0  0  0  0  0  0  0
    2.5807    2.4613    0.3926 N   0  0  0  0  0  0  0  0  0  0  0  0
    1.5350    1.5845    0.4889 C   0  0  0  0  0  0  0  0  0  0  0  0
    1.6360    0.4147    1.3071 N   0  0  0  0  0  0  0  0  0  0  0  0
    2.9760   -0.0455    1.6387 C   0  0  0  0  0  0  0  0  0  0  0  0
    3.9266    0.2422    0.6504 C   0  0  0  0  0  0  0  0  0  0  0  0
    5.2588   -0.1215    0.8619 C   0  0  0  0  0  0  0  0  0  0  0  0
    6.3902    0.2774   -0.4365 Cl  0  0  0  0  0  0  0  0  0  0  0  0
    5.6460   -0.7632    2.0296 C   0  0  0  0  0  0  0  0  0  0  0  0
    6.8955   -1.0577    2.1469 O   0  0  0  0  0  0  0  0  0  0  0  0
    8.1410   -1.3559    2.2728 C   0  0  0  0  0  0  0  0  0  0  0  0
    8.9700   -0.8327    1.1251 C   0  0  0  0  0  0  0  0  0  0  0  0
    9.3426    0.5067    1.3610 C   0  0  0  0  0  0  0  0  0  0  0  0
   10.1203    1.2365    0.4686 C   0  0  0  0  0  0  0  0  0  0  0  0
   10.4547    2.5432    0.7565 F   0  0  0  0  0  0  0  0  0  0  0  0
   10.5222    0.5939   -0.6716 C   0  0  0  0  0  0  0  0  0  0  0  0
   10.1657   -0.7288   -0.9243 C   0  0  0  0  0  0  0  0  0  0  0  0
    9.3830   -1.4519   -0.0204 C   0  0  0  0  0  0  0  0  0  0  0  0
    4.6518   -1.0295    2.9816 C   0  0  0  0  0  0  0  0  0  0  0  0
    3.3302   -0.6810    2.8045 C   0  0  0  0  0  0  0  0  0  0  0  0
  -11.3641   -2.8203   -0.9373 H   0  0  0  0  0  0  0  0  0  0  0  0
  -11.8944   -2.4366    0.7805 H   0  0  0  0  0  0  0  0  0  0  0  0
  -10.2166   -3.0456    0.4446 H   0  0  0  0  0  0  0  0  0  0  0  0
   -9.6843   -1.0583   -2.3414 H   0  0  0  0  0  0  0  0  0  0  0  0
   -8.9910    0.3940   -1.5437 H   0  0  0  0  0  0  0  0  0  0  0  0
   -7.5878   -1.2191   -0.1358 H   0  0  0  0  0  0  0  0  0  0  0  0
   -8.2510   -2.5871   -1.0982 H   0  0  0  0  0  0  0  0  0  0  0  0
   -6.2021   -2.0414   -2.0169 H   0  0  0  0  0  0  0  0  0  0  0  0
   -7.1059    0.6708   -1.6398 H   0  0  0  0  0  0  0  0  0  0  0  0
   -6.1496    0.2960   -3.0992 H   0  0  0  0  0  0  0  0  0  0  0  0
   -5.2636   -1.5147    0.3124 H   0  0  0  0  0  0  0  0  0  0  0  0
   -2.8126   -0.7358    0.8651 H   0  0  0  0  0  0  0  0  0  0  0  0
   -0.7215    0.1647    0.4068 H   0  0  0  0  0  0  0  0  0  0  0  0
   -0.7328    4.2964   -2.3709 H   0  0  0  0  0  0  0  0  0  0  0  0
   -2.6758    2.8602   -2.3217 H   0  0  0  0  0  0  0  0  0  0  0  0
    3.3304    4.2602   -0.4522 H   0  0  0  0  0  0  0  0  0  0  0  0
    0.8406   -0.1231    1.6894 H   0  0  0  0  0  0  0  0  0  0  0  0
    3.6940    0.7183   -0.3131 H   0  0  0  0  0  0  0  0  0  0  0  0
    8.6059   -0.9676    3.2361 H   0  0  0  0  0  0  0  0  0  0  0  0
    8.3795   -2.4780    2.3742 H   0  0  0  0  0  0  0  0  0  0  0  0
    9.0552    1.0807    2.2548 H   0  0  0  0  0  0  0  0  0  0  0  0
   11.1325    1.1324   -1.4066 H   0  0  0  0  0  0  0  0  0  0  0  0
   10.4685   -1.2602   -1.8179 H   0  0  0  0  0  0  0  0  0  0  0  0
    9.0479   -2.4680   -0.1018 H   0  0  0  0  0  0  0  0  0  0  0  0
    4.9388   -1.5320    3.8917 H   0  0  0  0  0  0  0  0  0  0  0  0
    2.5352   -0.8704    3.5330 H   0  0  0  0  0  0  0  0  0  0  0  0
  1  2  1  0
  2  3  2  0
  2  4  2  0
  2  5  1  0
  5  6  1  0
  6  7  1  0
  7  8  1  0
  8  9  1  0
  9 10  2  0
 10 11  1  0
 11 12  2  0
 12 13  1  0
 12 14  1  0
 14 15  2  0
 15 16  1  0
 16 17  2  0
 17 18  1  0
 18 19  2  0
 17 20  1  0
 20 21  2  0
 21 22  1  0
 22 23  2  0
 23 24  1  0
 24 25  1  0
 25 26  2  0
 26 27  1  0
 27 28  1  0
 27 29  2  0
 29 30  1  0
 30 31  1  0
 31 32  1  0
 32 33  2  0
 33 34  1  0
 34 35  1  0
 34 36  2  0
 36 37  1  0
 37 38  2  0
 29 39  1  0
 39 40  2  0
 13  9  1  0
 19 14  1  0
 40 25  1  0
 23 16  1  0
 38 32  1  0
  1 41  1  0
  1 42  1  0
  1 43  1  0
  5 44  1  0
  5 45  1  0
  6 46  1  0
  6 47  1  0
  7 48  1  0
  8 49  1  0
  8 50  1  0
 10 51  1  0
 11 52  1  0
 15 53  1  0
 18 54  1  0
 19 55  1  0
 21 56  1  0
 24 57  1  0
 26 58  1  0
 31 59  1  0
 31 60  1  0
 33 61  1  0
 36 62  1  0
 37 63  1  0
 38 64  1  0
 39 65  1  0
 40 66  1  0
M  END
$$$$
