
     RDKit          3D

 46 50  0  0  0  0  0  0  0  0999 V2000
    4.1725   -3.2077    2.0254 N   0  0  0  0  0  0  0  0  0  0  0  0
    3.1059   -2.3783    1.6011 C   0  0  0  0  0  0  0  0  0  0  0  0
    2.2639   -2.0010    2.4245 O   0  0  0  0  0  0  0  0  0  0  0  0
    3.0305   -1.9914    0.2018 C   0  0  0  0  0  0  0  0  0  0  0  0
    3.9358   -2.3660   -0.8027 C   0  0  0  0  0  0  0  0  0  0  0  0
    3.5332   -1.8169   -1.9564 N   0  0  0  0  0  0  0  0  0  0  0  0
    2.4212   -1.1156   -1.7314 C   0  0  0  0  0  0  0  0  0  0  0  0
    1.5801   -0.3507   -2.5491 C   0  0  0  0  0  0  0  0  0  0  0  0
    0.4646    0.2746   -2.0029 C   0  0  0  0  0  0  0  0  0  0  0  0
    0.1644    0.1579   -0.6609 C   0  0  0  0  0  0  0  0  0  0  0  0
   -0.9991    0.8138   -0.0868 C   0  0  0  0  0  0  0  0  0  0  0  0
   -2.1679    0.2274    0.3525 C   0  0  0  0  0  0  0  0  0  0  0  0
   -2.5135   -1.1952    0.3511 C   0  0  0  0  0  0  0  0  0  0  0  0
   -1.9050   -2.0868    1.2060 C   0  0  0  0  0  0  0  0  0  0  0  0
   -2.2329   -3.4493    1.1977 C   0  0  0  0  0  0  0  0  0  0  0  0
   -3.1816   -3.9301    0.3250 C   0  0  0  0  0  0  0  0  0  0  0  0
   -3.4897   -5.2599    0.3308 F   0  0  0  0  0  0  0  0  0  0  0  0
   -3.7976   -3.0477   -0.5351 C   0  0  0  0  0  0  0  0  0  0  0  0
   -4.9985   -3.6933   -1.6324 Cl  0  0  0  0  0  0  0  0  0  0  0  0
   -3.4636   -1.6940   -0.5186 C   0  0  0  0  0  0  0  0  0  0  0  0
   -2.9606    1.2481    0.8030 N   0  0  0  0  0  0  0  0  0  0  0  0
   -2.3429    2.4229    0.6638 C   0  0  0  0  0  0  0  0  0  0  0  0
   -1.1653    2.1524    0.1287 N   0  0  0  0  0  0  0  0  0  0  0  0
   -0.1470    3.1101   -0.2047 C   0  0  0  0  0  0  0  0  0  0  0  0
   -0.6128    4.3295   -0.9802 C   0  0  0  0  0  0  0  0  0  0  0  0
    0.3714    5.1396   -0.1260 C   0  0  0  0  0  0  0  0  0  0  0  0
   -0.0736    6.3916    0.2132 F   0  0  0  0  0  0  0  0  0  0  0  0
    1.6580    5.0756   -0.6212 F   0  0  0  0  0  0  0  0  0  0  0  0
    0.1883    4.0768    0.9407 C   0  0  0  0  0  0  0  0  0  0  0  0
    1.0200   -0.6034    0.1013 C   0  0  0  0  0  0  0  0  0  0  0  0
    2.1185   -1.2198   -0.4349 N   0  0  0  0  0  0  0  0  0  0  0  0
    4.9565   -3.4824    1.3600 H   0  0  0  0  0  0  0  0  0  0  0  0
    4.2617   -3.5945    2.9861 H   0  0  0  0  0  0  0  0  0  0  0  0
    4.7984   -2.9961   -0.6162 H   0  0  0  0  0  0  0  0  0  0  0  0
    1.8324   -0.2761   -3.5804 H   0  0  0  0  0  0  0  0  0  0  0  0
   -0.1670    0.8571   -2.6501 H   0  0  0  0  0  0  0  0  0  0  0  0
   -1.1656   -1.7699    1.9078 H   0  0  0  0  0  0  0  0  0  0  0  0
   -1.7455   -4.1432    1.8766 H   0  0  0  0  0  0  0  0  0  0  0  0
   -3.9420   -1.0071   -1.1867 H   0  0  0  0  0  0  0  0  0  0  0  0
   -2.7643    3.3791    0.9480 H   0  0  0  0  0  0  0  0  0  0  0  0
    0.7993    2.7046   -0.5943 H   0  0  0  0  0  0  0  0  0  0  0  0
   -1.6503    4.6214   -0.7007 H   0  0  0  0  0  0  0  0  0  0  0  0
   -0.3828    4.3103   -2.0435 H   0  0  0  0  0  0  0  0  0  0  0  0
   -0.7068    4.2807    1.5902 H   0  0  0  0  0  0  0  0  0  0  0  0
    1.0763    3.8199    1.5154 H   0  0  0  0  0  0  0  0  0  0  0  0
    0.8231   -0.7171    1.1642 H   0  0  0  0  0  0  0  0  0  0  0  0
  1  2  1  0
  2  3  2  0
  2  4  1  0
  4  5  2  0
  5  6  1  0
  6  7  2  0
  7  8  1  0
  8  9  2  0
  9 10  1  0
 10 11  1  0
 11 12  2  0
 12 13  1  0
 13 14  2  0
 14 15  1  0
 15 16  2  0
 16 17  1  0
 16 18  1  0
 18 19  1  0
 18 20  2  0
 12 21  1  0
 21 22  2  0
 22 23  1  0
 23 24  1  0
 24 25  1  0
 25 26  1  0
 26 27  1  0
 26 28  1  0
 26 29  1  0
 10 30  2  0
 30 31  1  0
 31  4  1  0
 31  7  1  0
 23 11  1  0
 29 24  1  0
 20 13  1  0
  1 32  1  0
  1 33  1  0
  5 34  1  0
  8 35  1  0
  9 36  1  0
 14 37  1  0
 15 38  1  0
 20 39  1  0
 22 40  1  0
 24 41  1  0
 25 42  1  0
 25 43  1  0
 29 44  1  0
 29 45  1  0
 30 46  1  0
M  END
$$$$
