
     RDKit          3D

 39 41  0  0  0  0  0  0  0  0999 V2000
    6.8947   -0.5746   -1.0377 C   0  0  0  0  0  0  0  0  0  0  0  0
    6.7388   -0.6135    0.3288 C   0  0  0  0  0  0  0  0  0  0  0  0
    5.5036   -0.4019    0.9224 C   0  0  0  0  0  0  0  0  0  0  0  0
    4.4074   -0.1479    0.1465 C   0  0  0  0  0  0  0  0  0  0  0  0
    3.1026    0.0735    0.8105 C   0  0  0  0  0  0  0  0  0  0  0  0
    2.9472    0.0367    2.1268 C   0  0  0  0  0  0  0  0  0  0  0  0
    1.1617    0.3739    2.3633 S   0  0  0  0  0  0  0  0  0  0  0  0
    0.9166    0.5158    0.5227 C   0  0  0  0  0  0  0  0  0  0  0  0
   -0.4543    0.8080    0.0520 N   0  0  0  0  0  0  0  0  0  0  0  0
   -1.5090    0.9708    0.9250 N   0  0  0  0  0  0  0  0  0  0  0  0
   -2.5521    0.2326    0.8360 C   0  0  0  0  0  0  0  0  0  0  0  0
   -3.6381    0.4887    1.8286 C   0  0  0  0  0  0  0  0  0  0  0  0
   -4.8721   -0.2145    1.3694 C   0  0  0  0  0  0  0  0  0  0  0  0
   -5.3554    0.1996    0.0180 C   0  0  0  0  0  0  0  0  0  0  0  0
   -4.3082    0.7906   -0.8672 C   0  0  0  0  0  0  0  0  0  0  0  0
   -3.3296   -0.2148   -1.4122 C   0  0  0  0  0  0  0  0  0  0  0  0
   -2.4957   -0.7634   -0.2578 C   0  0  0  0  0  0  0  0  0  0  0  0
    1.9905    0.3255    0.1351 N   0  0  0  0  0  0  0  0  0  0  0  0
    4.5332   -0.1036   -1.2098 C   0  0  0  0  0  0  0  0  0  0  0  0
    5.7643   -0.3154   -1.7842 C   0  0  0  0  0  0  0  0  0  0  0  0
    7.8685   -0.7422   -1.4926 H   0  0  0  0  0  0  0  0  0  0  0  0
    7.5913   -0.8134    0.9810 H   0  0  0  0  0  0  0  0  0  0  0  0
    5.4377   -0.4447    2.0229 H   0  0  0  0  0  0  0  0  0  0  0  0
    3.6569   -0.1482    3.0285 H   0  0  0  0  0  0  0  0  0  0  0  0
   -0.5363    0.8746   -0.9534 H   0  0  0  0  0  0  0  0  0  0  0  0
   -3.3479    0.0659    2.8069 H   0  0  0  0  0  0  0  0  0  0  0  0
   -3.8413    1.5525    1.9714 H   0  0  0  0  0  0  0  0  0  0  0  0
   -4.6432   -1.3193    1.3261 H   0  0  0  0  0  0  0  0  0  0  0  0
   -5.6781   -0.1406    2.1486 H   0  0  0  0  0  0  0  0  0  0  0  0
   -5.8234   -0.6479   -0.5052 H   0  0  0  0  0  0  0  0  0  0  0  0
   -6.1394    0.9850    0.1693 H   0  0  0  0  0  0  0  0  0  0  0  0
   -4.8427    1.2408   -1.7483 H   0  0  0  0  0  0  0  0  0  0  0  0
   -3.7654    1.6365   -0.3983 H   0  0  0  0  0  0  0  0  0  0  0  0
   -3.8801   -1.0225   -1.9400 H   0  0  0  0  0  0  0  0  0  0  0  0
   -2.6967    0.3057   -2.1603 H   0  0  0  0  0  0  0  0  0  0  0  0
   -1.4425   -0.9244   -0.5668 H   0  0  0  0  0  0  0  0  0  0  0  0
   -2.9242   -1.7358    0.0714 H   0  0  0  0  0  0  0  0  0  0  0  0
    3.6562    0.0997   -1.8357 H   0  0  0  0  0  0  0  0  0  0  0  0
    5.9047   -0.2878   -2.8666 H   0  0  0  0  0  0  0  0  0  0  0  0
  1  2  2  0
  2  3  1  0
  3  4  2  0
  4  5  1  0
  5  6  2  0
  6  7  1  0
  7  8  1  0
  8  9  1  0
  9 10  1  0
 10 11  2  3
 11 12  1  0
 12 13  1  0
 13 14  1  0
 14 15  1  0
 15 16  1  0
 16 17  1  0
  8 18  2  0
  4 19  1  0
 19 20  2  0
 20  1  1  0
 18  5  1  0
 17 11  1  0
  1 21  1  0
  2 22  1  0
  3 23  1  0
  6 24  1  0
  9 25  1  0
 12 26  1  0
 12 27  1  0
 13 28  1  0
 13 29  1  0
 14 30  1  0
 14 31  1  0
 15 32  1  0
 15 33  1  0
 16 34  1  0
 16 35  1  0
 17 36  1  0
 17 37  1  0
 19 38  1  0
 20 39  1  0
M  END
$$$$
