
     RDKit          3D

117125  0  0  0  0  0  0  0  0999 V2000
    7.7466    2.5489    2.4633 C   0  0  0  0  0  0  0  0  0  0  0  0
    7.9729    1.6809    1.3140 C   0  0  0  0  0  0  0  0  0  0  0  0
    6.9432    0.6900    0.9065 C   0  0  2  0  0  0  0  0  0  0  0  0
    7.5942    0.0876   -0.2239 O   0  0  0  0  0  0  0  0  0  0  0  0
    5.6639    1.3362    0.3472 C   0  0  0  0  0  0  0  0  0  0  0  0
    4.5785    1.5606    1.3010 C   0  0  2  0  0  0  0  0  0  0  0  0
    4.7547    0.7877    2.6340 C   0  0  0  0  0  0  0  0  0  0  0  0
    5.3101   -0.4549    2.3194 N   0  0  0  0  0  0  0  0  0  0  0  0
    4.5087   -1.5134    1.8552 C   0  0  0  0  0  0  0  0  0  0  0  0
    4.5136   -1.8573    0.4505 C   0  0  0  0  0  0  0  0  0  0  0  0
    3.4958   -1.4195   -0.5303 C   0  0  0  0  0  0  0  0  0  0  0  0
    2.7830   -0.3509   -0.8020 C   0  0  0  0  0  0  0  0  0  0  0  0
    1.9774   -0.6119   -1.9285 N   0  0  0  0  0  0  0  0  0  0  0  0
    2.1757   -1.8432   -2.3736 C   0  0  0  0  0  0  0  0  0  0  0  0
    1.6242   -2.5472   -3.4322 C   0  0  0  0  0  0  0  0  0  0  0  0
    2.0046   -3.8284   -3.6791 C   0  0  0  0  0  0  0  0  0  0  0  0
    2.9388   -4.4058   -2.8654 C   0  0  0  0  0  0  0  0  0  0  0  0
    3.4685   -3.6854   -1.8236 C   0  0  0  0  0  0  0  0  0  0  0  0
    3.1047   -2.3773   -1.5406 C   0  0  0  0  0  0  0  0  0  0  0  0
    2.5687    1.0467   -0.2884 C   0  0  1  0  0  0  0  0  0  0  0  0
    2.7949    2.0796   -1.3630 C   0  0  0  0  0  0  0  0  0  0  0  0
    3.7025    2.9337   -1.0885 O   0  0  0  0  0  0  0  0  0  0  0  0
    2.0980    2.1262   -2.5512 O   0  0  0  0  0  0  0  0  0  0  0  0
    2.4305    3.1668   -3.4656 C   0  0  0  0  0  0  0  0  0  0  0  0
    1.0636    1.2488    0.0100 C   0  0  0  0  0  0  0  0  0  0  0  0
    0.2100    0.1722   -0.0005 C   0  0  0  0  0  0  0  0  0  0  0  0
   -1.1410    0.3224    0.3659 C   0  0  0  0  0  0  0  0  0  0  0  0
   -1.6164    1.5384    0.7370 C   0  0  0  0  0  0  0  0  0  0  0  0
   -0.7652    2.6192    0.7481 C   0  0  0  0  0  0  0  0  0  0  0  0
    0.5545    2.4502    0.3831 C   0  0  0  0  0  0  0  0  0  0  0  0
    1.4301    3.5408    0.3770 O   0  0  0  0  0  0  0  0  0  0  0  0
    0.9176    4.7945    0.7631 C   0  0  0  0  0  0  0  0  0  0  0  0
   -3.0432    1.4341    1.0857 N   0  0  0  0  0  0  0  0  0  0  0  0
   -3.8447    2.6338    1.0731 C   0  0  0  0  0  0  0  0  0  0  0  0
   -3.2160    0.0554    1.3801 C   0  0  1  0  0  0  0  0  0  0  0  0
   -4.5579   -0.5583    1.2458 C   0  0  1  0  0  0  0  0  0  0  0  0
   -4.3453   -1.9631    1.0517 O   0  0  0  0  0  0  0  0  0  0  0  0
   -5.4749   -0.4422    2.3400 C   0  0  0  0  0  0  0  0  0  0  0  0
   -5.9045    0.6327    2.7873 O   0  0  0  0  0  0  0  0  0  0  0  0
   -5.9582   -1.5909    2.9940 O   0  0  0  0  0  0  0  0  0  0  0  0
   -6.8684   -1.4610    4.0790 C   0  0  0  0  0  0  0  0  0  0  0  0
   -5.0933   -0.0994   -0.1259 C   0  0  2  0  0  0  0  0  0  0  0  0
   -6.4672   -0.4400   -0.2067 O   0  0  0  0  0  0  0  0  0  0  0  0
   -7.4101    0.6071   -0.3078 C   0  0  0  0  0  0  0  0  0  0  0  0
   -8.8713    0.3383   -0.3963 C   0  0  0  0  0  0  0  0  0  0  0  0
   -7.0427    1.8096   -0.3263 O   0  0  0  0  0  0  0  0  0  0  0  0
   -4.2903   -0.8512   -1.1267 C   0  0  2  0  0  0  0  0  0  0  0  0
   -4.5156   -0.1727   -2.4900 C   0  0  0  0  0  0  0  0  0  0  0  0
   -5.9189   -0.1846   -2.9642 C   0  0  0  0  0  0  0  0  0  0  0  0
   -4.9760   -2.1982   -1.2347 C   0  0  0  0  0  0  0  0  0  0  0  0
   -4.3244   -3.1986   -1.7501 C   0  0  0  0  0  0  0  0  0  0  0  0
   -2.9469   -2.9873   -2.2079 C   0  0  0  0  0  0  0  0  0  0  0  0
   -2.1848   -2.1433   -1.3303 N   0  0  0  0  0  0  0  0  0  0  0  0
   -1.6703   -2.8209   -0.1884 C   0  0  0  0  0  0  0  0  0  0  0  0
   -1.6857   -1.9180    0.9954 C   0  0  0  0  0  0  0  0  0  0  0  0
   -2.2646   -0.6459    0.4296 C   0  0  2  0  0  0  0  0  0  0  0  0
   -2.8292   -0.9341   -0.9030 C   0  0  2  0  0  0  0  0  0  0  0  0
    3.1713    1.3883    0.9757 C   0  0  0  0  0  0  0  0  0  0  0  0
    6.6630   -0.4242    1.8448 C   0  0  0  0  0  0  0  0  0  0  0  0
    6.9655    3.3043    2.2515 H   0  0  0  0  0  0  0  0  0  0  0  0
    8.6815    3.1665    2.6183 H   0  0  0  0  0  0  0  0  0  0  0  0
    7.5654    2.0386    3.4301 H   0  0  0  0  0  0  0  0  0  0  0  0
    8.1453    2.3369    0.4097 H   0  0  0  0  0  0  0  0  0  0  0  0
    8.9658    1.1694    1.4424 H   0  0  0  0  0  0  0  0  0  0  0  0
    8.5350   -0.0885   -0.0065 H   0  0  0  0  0  0  0  0  0  0  0  0
    6.1072    2.2797   -0.1143 H   0  0  0  0  0  0  0  0  0  0  0  0
    5.3948    0.7285   -0.5306 H   0  0  0  0  0  0  0  0  0  0  0  0
    4.7809    2.6369    1.6483 H   0  0  0  0  0  0  0  0  0  0  0  0
    3.7594    0.6032    3.1211 H   0  0  0  0  0  0  0  0  0  0  0  0
    5.2823    1.3793    3.3989 H   0  0  0  0  0  0  0  0  0  0  0  0
    4.8552   -2.3973    2.5308 H   0  0  0  0  0  0  0  0  0  0  0  0
    3.4694   -1.3968    2.2890 H   0  0  0  0  0  0  0  0  0  0  0  0
    4.6575   -3.0073    0.4723 H   0  0  0  0  0  0  0  0  0  0  0  0
    5.5650   -1.6523   -0.0261 H   0  0  0  0  0  0  0  0  0  0  0  0
    1.2944    0.0318   -2.3867 H   0  0  0  0  0  0  0  0  0  0  0  0
    0.9000   -2.0632   -4.0413 H   0  0  0  0  0  0  0  0  0  0  0  0
    1.5646   -4.3963   -4.5257 H   0  0  0  0  0  0  0  0  0  0  0  0
    3.2618   -5.4101   -3.0292 H   0  0  0  0  0  0  0  0  0  0  0  0
    4.2113   -4.1610   -1.1841 H   0  0  0  0  0  0  0  0  0  0  0  0
    2.3960    4.1729   -2.9734 H   0  0  0  0  0  0  0  0  0  0  0  0
    1.6678    3.1871   -4.2739 H   0  0  0  0  0  0  0  0  0  0  0  0
    3.4668    3.0568   -3.8657 H   0  0  0  0  0  0  0  0  0  0  0  0
    0.5059   -0.8262   -0.2615 H   0  0  0  0  0  0  0  0  0  0  0  0
   -1.0935    3.5864    1.0305 H   0  0  0  0  0  0  0  0  0  0  0  0
    0.4978    4.7267    1.8072 H   0  0  0  0  0  0  0  0  0  0  0  0
    0.1222    5.1304    0.0594 H   0  0  0  0  0  0  0  0  0  0  0  0
    1.7667    5.5185    0.7478 H   0  0  0  0  0  0  0  0  0  0  0  0
   -3.8351    3.0596    0.0405 H   0  0  0  0  0  0  0  0  0  0  0  0
   -4.8200    2.5751    1.5048 H   0  0  0  0  0  0  0  0  0  0  0  0
   -3.2646    3.3571    1.7419 H   0  0  0  0  0  0  0  0  0  0  0  0
   -2.8049   -0.1882    2.4112 H   0  0  0  0  0  0  0  0  0  0  0  0
   -4.6256   -2.4412    1.8621 H   0  0  0  0  0  0  0  0  0  0  0  0
   -7.2125   -2.4372    4.4447 H   0  0  0  0  0  0  0  0  0  0  0  0
   -7.7477   -0.9167    3.6726 H   0  0  0  0  0  0  0  0  0  0  0  0
   -6.4479   -0.8169    4.8773 H   0  0  0  0  0  0  0  0  0  0  0  0
   -4.9206    0.9741   -0.2232 H   0  0  0  0  0  0  0  0  0  0  0  0
   -9.0225   -0.6422   -0.8917 H   0  0  0  0  0  0  0  0  0  0  0  0
   -9.3390    0.3618    0.6017 H   0  0  0  0  0  0  0  0  0  0  0  0
   -9.3305    1.1260   -1.0175 H   0  0  0  0  0  0  0  0  0  0  0  0
   -4.2474    0.9204   -2.3415 H   0  0  0  0  0  0  0  0  0  0  0  0
   -3.7821   -0.5107   -3.2439 H   0  0  0  0  0  0  0  0  0  0  0  0
   -5.8709   -0.4372   -4.0812 H   0  0  0  0  0  0  0  0  0  0  0  0
   -6.4360    0.7903   -2.9617 H   0  0  0  0  0  0  0  0  0  0  0  0
   -6.5768   -0.9515   -2.5246 H   0  0  0  0  0  0  0  0  0  0  0  0
   -5.9990   -2.3586   -0.8956 H   0  0  0  0  0  0  0  0  0  0  0  0
   -4.7645   -4.1889   -1.8560 H   0  0  0  0  0  0  0  0  0  0  0  0
   -2.4250   -3.9915   -2.1633 H   0  0  0  0  0  0  0  0  0  0  0  0
   -2.8932   -2.7197   -3.2797 H   0  0  0  0  0  0  0  0  0  0  0  0
   -2.1585   -3.8019    0.0056 H   0  0  0  0  0  0  0  0  0  0  0  0
   -0.5961   -3.0774   -0.4285 H   0  0  0  0  0  0  0  0  0  0  0  0
   -0.6465   -1.7564    1.3762 H   0  0  0  0  0  0  0  0  0  0  0  0
   -2.2357   -2.3595    1.8243 H   0  0  0  0  0  0  0  0  0  0  0  0
   -2.3688   -0.1452   -1.5999 H   0  0  0  0  0  0  0  0  0  0  0  0
    2.6577    2.3096    1.4265 H   0  0  0  0  0  0  0  0  0  0  0  0
    2.6479    0.6313    1.7069 H   0  0  0  0  0  0  0  0  0  0  0  0
    7.3219   -0.2807    2.7535 H   0  0  0  0  0  0  0  0  0  0  0  0
    6.9154   -1.4405    1.4773 H   0  0  0  0  0  0  0  0  0  0  0  0
  1  2  1  0
  2  3  1  0
  3  4  1  6
  3  5  1  0
  5  6  1  0
  6  7  1  0
  7  8  1  0
  8  9  1  0
  9 10  1  0
 10 11  1  0
 11 12  2  0
 12 13  1  0
 13 14  1  0
 14 15  2  0
 15 16  1  0
 16 17  2  0
 17 18  1  0
 18 19  2  0
 12 20  1  0
 20 21  1  6
 21 22  2  0
 21 23  1  0
 23 24  1  0
 20 25  1  0
 25 26  2  0
 26 27  1  0
 27 28  2  0
 28 29  1  0
 29 30  2  0
 30 31  1  0
 31 32  1  0
 28 33  1  0
 33 34  1  0
 33 35  1  0
 35 36  1  0
 36 37  1  6
 36 38  1  0
 38 39  2  0
 38 40  1  0
 40 41  1  0
 36 42  1  0
 42 43  1  0
 43 44  1  0
 44 45  1  0
 44 46  2  0
 42 47  1  0
 47 48  1  6
 48 49  1  0
 47 50  1  0
 50 51  2  0
 51 52  1  0
 52 53  1  0
 53 54  1  0
 54 55  1  0
 56 55  1  1
 56 57  1  0
 20 58  1  0
  8 59  1  0
 59  3  1  0
 58  6  1  0
 19 11  1  0
 30 25  1  0
 56 35  1  0
 19 14  1  0
 56 27  1  0
 57 47  1  0
 57 53  1  0
  1 60  1  0
  1 61  1  0
  1 62  1  0
  2 63  1  0
  2 64  1  0
  4 65  1  0
  5 66  1  0
  5 67  1  0
  6 68  1  1
  7 69  1  0
  7 70  1  0
  9 71  1  0
  9 72  1  0
 10 73  1  0
 10 74  1  0
 13 75  1  0
 15 76  1  0
 16 77  1  0
 17 78  1  0
 18 79  1  0
 24 80  1  0
 24 81  1  0
 24 82  1  0
 26 83  1  0
 29 84  1  0
 32 85  1  0
 32 86  1  0
 32 87  1  0
 34 88  1  0
 34 89  1  0
 34 90  1  0
 35 91  1  1
 37 92  1  0
 41 93  1  0
 41 94  1  0
 41 95  1  0
 42 96  1  6
 45 97  1  0
 45 98  1  0
 45 99  1  0
 48100  1  0
 48101  1  0
 49102  1  0
 49103  1  0
 49104  1  0
 50105  1  0
 51106  1  0
 52107  1  0
 52108  1  0
 54109  1  0
 54110  1  0
 55111  1  0
 55112  1  0
 57113  1  6
 58114  1  0
 58115  1  0
 59116  1  0
 59117  1  0
M  END
$$$$
