
     RDKit          3D

 42 44  0  0  0  0  0  0  0  0999 V2000
    0.7275    0.0779    3.5796 C   0  0  0  0  0  0  0  0  0  0  0  0
    0.2252   -0.0345    2.1814 N   0  0  0  0  0  0  0  0  0  0  0  0
   -0.9840   -0.0610    1.9035 N   0  0  0  0  0  0  0  0  0  0  0  0
   -1.4911   -0.1592    0.6874 C   0  0  0  0  0  0  0  0  0  0  0  0
   -2.7747   -0.2133    0.0654 C   0  0  0  0  0  0  0  0  0  0  0  0
   -3.8698   -0.1525    0.8834 C   0  0  0  0  0  0  0  0  0  0  0  0
   -5.1403   -0.1987    0.3597 C   0  0  0  0  0  0  0  0  0  0  0  0
   -5.3663   -0.3072   -0.9982 C   0  0  0  0  0  0  0  0  0  0  0  0
   -6.6992   -0.3574   -1.5679 C   0  0  0  0  0  0  0  0  0  0  0  0
   -7.8475   -0.2966   -0.7480 N   0  0  0  0  0  0  0  0  0  0  0  0
   -6.8305   -0.4559   -2.8041 O   0  0  0  0  0  0  0  0  0  0  0  0
   -4.2531   -0.3680   -1.8159 C   0  0  0  0  0  0  0  0  0  0  0  0
   -2.9846   -0.3209   -1.2824 C   0  0  0  0  0  0  0  0  0  0  0  0
    0.1363   -0.2244   -0.2113 S   0  0  0  0  0  0  0  0  0  0  0  0
    1.1726   -0.1083    1.2060 C   0  0  0  0  0  0  0  0  0  0  0  0
    2.3470   -0.1163    1.0502 N   0  0  0  0  0  0  0  0  0  0  0  0
    3.1682   -0.2060   -0.1200 C   0  0  0  0  0  0  0  0  0  0  0  0
    2.9864    0.8733   -1.1237 C   0  0  0  0  0  0  0  0  0  0  0  0
    3.8910    0.5979   -2.3027 C   0  0  0  0  0  0  0  0  0  0  0  0
    5.1728   -0.0707   -1.9246 C   0  0  0  0  0  0  0  0  0  0  0  0
    5.5704    0.4002   -0.5671 C   0  0  0  0  0  0  0  0  0  0  0  0
    4.5781   -0.1115    0.4296 C   0  0  0  0  0  0  0  0  0  0  0  0
   -0.0477    0.3935    4.2732 H   0  0  0  0  0  0  0  0  0  0  0  0
    1.2677   -0.8444    3.8648 H   0  0  0  0  0  0  0  0  0  0  0  0
    1.5053    0.8973    3.5899 H   0  0  0  0  0  0  0  0  0  0  0  0
   -3.7562   -0.0653    1.9781 H   0  0  0  0  0  0  0  0  0  0  0  0
   -5.9871   -0.1501    1.0126 H   0  0  0  0  0  0  0  0  0  0  0  0
   -8.7820   -0.6618   -1.0880 H   0  0  0  0  0  0  0  0  0  0  0  0
   -7.8595    0.1007    0.2246 H   0  0  0  0  0  0  0  0  0  0  0  0
   -4.4208   -0.4528   -2.8777 H   0  0  0  0  0  0  0  0  0  0  0  0
   -2.1565   -0.3725   -1.9711 H   0  0  0  0  0  0  0  0  0  0  0  0
    3.0273   -1.1903   -0.6284 H   0  0  0  0  0  0  0  0  0  0  0  0
    3.2942    1.8394   -0.6574 H   0  0  0  0  0  0  0  0  0  0  0  0
    1.9704    0.9282   -1.5567 H   0  0  0  0  0  0  0  0  0  0  0  0
    3.3888   -0.0659   -3.0607 H   0  0  0  0  0  0  0  0  0  0  0  0
    4.1339    1.5324   -2.8559 H   0  0  0  0  0  0  0  0  0  0  0  0
    5.0353   -1.1660   -1.8837 H   0  0  0  0  0  0  0  0  0  0  0  0
    5.9417    0.1944   -2.6971 H   0  0  0  0  0  0  0  0  0  0  0  0
    6.5590   -0.0369   -0.3104 H   0  0  0  0  0  0  0  0  0  0  0  0
    5.6996    1.5016   -0.5044 H   0  0  0  0  0  0  0  0  0  0  0  0
    4.6237    0.5591    1.3174 H   0  0  0  0  0  0  0  0  0  0  0  0
    4.8286   -1.1276    0.8141 H   0  0  0  0  0  0  0  0  0  0  0  0
  1  2  1  0
  2  3  1  0
  3  4  2  0
  4  5  1  0
  5  6  2  0
  6  7  1  0
  7  8  2  0
  8  9  1  0
  9 10  1  0
  9 11  2  0
  8 12  1  0
 12 13  2  0
  4 14  1  0
 14 15  1  0
 15 16  2  0
 16 17  1  0
 17 18  1  0
 18 19  1  0
 19 20  1  0
 20 21  1  0
 21 22  1  0
 15  2  1  0
 22 17  1  0
 13  5  1  0
  1 23  1  0
  1 24  1  0
  1 25  1  0
  6 26  1  0
  7 27  1  0
 10 28  1  0
 10 29  1  0
 12 30  1  0
 13 31  1  0
 17 32  1  0
 18 33  1  0
 18 34  1  0
 19 35  1  0
 19 36  1  0
 20 37  1  0
 20 38  1  0
 21 39  1  0
 21 40  1  0
 22 41  1  0
 22 42  1  0
M  END
$$$$
