
     RDKit          3D

 32 35  0  0  0  0  0  0  0  0999 V2000
   -1.0902    2.4892   -0.7157 O   0  0  0  0  0  0  0  0  0  0  0  0
   -2.1110    1.7904   -0.5208 C   0  0  0  0  0  0  0  0  0  0  0  0
   -3.4658    2.2955   -0.6011 N   0  0  0  0  0  0  0  0  0  0  0  0
   -4.3866    1.2364   -0.4098 C   0  0  0  0  0  0  0  0  0  0  0  0
   -3.5676    0.0663   -0.0568 C   0  0  0  0  0  0  0  0  0  0  0  0
   -3.9877   -1.1711    0.3313 C   0  0  0  0  0  0  0  0  0  0  0  0
   -3.0435   -2.1318    0.6090 C   0  0  0  0  0  0  0  0  0  0  0  0
   -1.7150   -1.8324    0.4899 C   0  0  0  0  0  0  0  0  0  0  0  0
   -1.2473   -0.5549    0.0862 C   0  0  0  0  0  0  0  0  0  0  0  0
    0.1925   -0.3686    0.0308 C   0  0  0  0  0  0  0  0  0  0  0  0
    1.0907   -1.1036    0.8408 C   0  0  0  0  0  0  0  0  0  0  0  0
    2.3664   -0.6760    0.6311 C   0  0  0  0  0  0  0  0  0  0  0  0
    3.6254   -0.9988    1.1143 C   0  0  0  0  0  0  0  0  0  0  0  0
    4.7504   -0.3397    0.6691 C   0  0  0  0  0  0  0  0  0  0  0  0
    6.0108   -0.6821    1.1707 O   0  0  0  0  0  0  0  0  0  0  0  0
    4.6593    0.6590   -0.2685 C   0  0  0  0  0  0  0  0  0  0  0  0
    3.4092    0.9946   -0.7623 C   0  0  0  0  0  0  0  0  0  0  0  0
    2.2904    0.3233   -0.3050 C   0  0  0  0  0  0  0  0  0  0  0  0
    0.9826    0.4644   -0.6278 N   0  0  0  0  0  0  0  0  0  0  0  0
   -2.2084    0.3833   -0.1795 C   0  0  0  0  0  0  0  0  0  0  0  0
   -3.6891    3.2886   -0.7738 H   0  0  0  0  0  0  0  0  0  0  0  0
   -5.1404    1.4411    0.3794 H   0  0  0  0  0  0  0  0  0  0  0  0
   -4.9592    0.9781   -1.3500 H   0  0  0  0  0  0  0  0  0  0  0  0
   -5.0542   -1.4236    0.4288 H   0  0  0  0  0  0  0  0  0  0  0  0
   -3.3945   -3.1119    0.9186 H   0  0  0  0  0  0  0  0  0  0  0  0
   -0.9626   -2.5855    0.7066 H   0  0  0  0  0  0  0  0  0  0  0  0
    0.7718   -1.8753    1.5085 H   0  0  0  0  0  0  0  0  0  0  0  0
    3.7137   -1.7696    1.8406 H   0  0  0  0  0  0  0  0  0  0  0  0
    6.6424    0.0889    1.4003 H   0  0  0  0  0  0  0  0  0  0  0  0
    5.5344    1.1989   -0.6400 H   0  0  0  0  0  0  0  0  0  0  0  0
    3.2984    1.7873   -1.5120 H   0  0  0  0  0  0  0  0  0  0  0  0
    0.6846    1.1399   -1.3636 H   0  0  0  0  0  0  0  0  0  0  0  0
  1  2  2  0
  2  3  1  0
  3  4  1  0
  4  5  1  0
  5  6  2  0
  6  7  1  0
  7  8  2  0
  8  9  1  0
  9 10  1  0
 10 11  2  0
 11 12  1  0
 12 13  2  0
 13 14  1  0
 14 15  1  0
 14 16  2  0
 16 17  1  0
 17 18  2  0
 18 19  1  0
  9 20  2  0
 20  2  1  0
 20  5  1  0
 19 10  1  0
 18 12  1  0
  3 21  1  0
  4 22  1  0
  4 23  1  0
  6 24  1  0
  7 25  1  0
  8 26  1  0
 11 27  1  0
 13 28  1  0
 15 29  1  0
 16 30  1  0
 17 31  1  0
 19 32  1  0
M  END
$$$$
