
     RDKit          3D

 59 63  0  0  0  0  0  0  0  0999 V2000
   -4.2622    1.7342    3.6991 C   0  0  0  0  0  0  0  0  0  0  0  0
   -5.0681    1.2411    2.6674 O   0  0  0  0  0  0  0  0  0  0  0  0
   -4.5843    0.5738    1.5476 C   0  0  0  0  0  0  0  0  0  0  0  0
   -3.2299    0.3721    1.4214 C   0  0  0  0  0  0  0  0  0  0  0  0
   -2.7648   -0.2899    0.3076 C   0  0  0  0  0  0  0  0  0  0  0  0
   -1.3292   -0.4986    0.1830 C   0  0  0  0  0  0  0  0  0  0  0  0
   -0.8383   -1.5385    0.6588 O   0  0  0  0  0  0  0  0  0  0  0  0
   -0.4925    0.4324   -0.4532 N   0  0  0  0  0  0  0  0  0  0  0  0
   -1.1026    1.6345   -0.9973 C   0  0  0  0  0  0  0  0  0  0  0  0
   -0.0240    2.7089   -0.9824 C   0  0  0  0  0  0  0  0  0  0  0  0
    0.8256    2.5778    0.0868 O   0  0  0  0  0  0  0  0  0  0  0  0
    1.5986    1.4488    0.0953 C   0  0  0  0  0  0  0  0  0  0  0  0
    0.9316    0.3126   -0.6268 C   0  0  1  0  0  0  0  0  0  0  0  0
    1.4979   -1.0280   -0.2233 C   0  0  0  0  0  0  0  0  0  0  0  0
    2.9687   -0.9354   -0.4914 C   0  0  0  0  0  0  0  0  0  0  0  0
    3.8850   -0.7597    0.5216 C   0  0  0  0  0  0  0  0  0  0  0  0
    5.2437   -0.6707    0.2872 C   0  0  0  0  0  0  0  0  0  0  0  0
    6.1839   -0.4881    1.3478 N   0  0  0  0  0  0  0  0  0  0  0  0
    7.1887   -1.2800    1.6118 N   0  0  0  0  0  0  0  0  0  0  0  0
    7.8693   -0.8107    2.6767 C   0  0  0  0  0  0  0  0  0  0  0  0
    7.2334    0.3332    3.0757 C   0  0  0  0  0  0  0  0  0  0  0  0
    6.2008    0.5070    2.2406 N   0  0  0  0  0  0  0  0  0  0  0  0
    5.7364   -0.7571   -0.9980 C   0  0  0  0  0  0  0  0  0  0  0  0
    4.8278   -0.9331   -2.0195 C   0  0  0  0  0  0  0  0  0  0  0  0
    3.4702   -1.0215   -1.7802 C   0  0  0  0  0  0  0  0  0  0  0  0
    2.5735   -1.1954   -2.7899 F   0  0  0  0  0  0  0  0  0  0  0  0
   -3.6231   -0.7530   -0.6798 C   0  0  0  0  0  0  0  0  0  0  0  0
   -3.1080   -1.4375   -1.8264 N   0  0  0  0  0  0  0  0  0  0  0  0
   -3.2919   -1.0408   -3.0643 N   0  0  0  0  0  0  0  0  0  0  0  0
   -2.6933   -1.8786   -3.9298 C   0  0  0  0  0  0  0  0  0  0  0  0
   -2.1028   -2.8568   -3.1508 C   0  0  0  0  0  0  0  0  0  0  0  0
   -2.3974   -2.5230   -1.8758 N   0  0  0  0  0  0  0  0  0  0  0  0
   -4.9739   -0.5347   -0.5229 C   0  0  0  0  0  0  0  0  0  0  0  0
   -5.4704    0.1335    0.5966 C   0  0  0  0  0  0  0  0  0  0  0  0
   -6.9140    0.3673    0.7648 C   0  0  0  0  0  0  0  0  0  0  0  0
   -3.4409    1.0785    4.0002 H   0  0  0  0  0  0  0  0  0  0  0  0
   -4.9067    1.8641    4.6102 H   0  0  0  0  0  0  0  0  0  0  0  0
   -3.8276    2.7288    3.3999 H   0  0  0  0  0  0  0  0  0  0  0  0
   -2.5308    0.7349    2.1999 H   0  0  0  0  0  0  0  0  0  0  0  0
   -1.9244    1.9893   -0.3572 H   0  0  0  0  0  0  0  0  0  0  0  0
   -1.3996    1.5125   -2.0643 H   0  0  0  0  0  0  0  0  0  0  0  0
   -0.5445    3.6832   -0.8855 H   0  0  0  0  0  0  0  0  0  0  0  0
    0.5094    2.7625   -1.9723 H   0  0  0  0  0  0  0  0  0  0  0  0
    2.6008    1.6995   -0.3517 H   0  0  0  0  0  0  0  0  0  0  0  0
    1.7896    1.1724    1.1693 H   0  0  0  0  0  0  0  0  0  0  0  0
    1.1760    0.4364   -1.7136 H   0  0  0  0  0  0  0  0  0  0  0  0
    1.4267   -1.1785    0.8943 H   0  0  0  0  0  0  0  0  0  0  0  0
    1.0072   -1.8303   -0.7713 H   0  0  0  0  0  0  0  0  0  0  0  0
    3.5222   -0.6891    1.5354 H   0  0  0  0  0  0  0  0  0  0  0  0
    8.7533   -1.2814    3.1078 H   0  0  0  0  0  0  0  0  0  0  0  0
    7.5556    0.9353    3.9147 H   0  0  0  0  0  0  0  0  0  0  0  0
    6.8078   -0.6843   -1.1563 H   0  0  0  0  0  0  0  0  0  0  0  0
    5.2112   -1.0012   -3.0273 H   0  0  0  0  0  0  0  0  0  0  0  0
   -2.6573   -1.8345   -4.9993 H   0  0  0  0  0  0  0  0  0  0  0  0
   -1.5338   -3.6962   -3.5094 H   0  0  0  0  0  0  0  0  0  0  0  0
   -5.6744   -0.8817   -1.2725 H   0  0  0  0  0  0  0  0  0  0  0  0
   -7.1004    0.8264    1.7513 H   0  0  0  0  0  0  0  0  0  0  0  0
   -7.4970   -0.5879    0.6919 H   0  0  0  0  0  0  0  0  0  0  0  0
   -7.2869    1.0954    0.0037 H   0  0  0  0  0  0  0  0  0  0  0  0
  1  2  1  0
  2  3  1  0
  3  4  2  0
  4  5  1  0
  5  6  1  0
  6  7  2  0
  6  8  1  0
  8  9  1  0
  9 10  1  0
 10 11  1  0
 11 12  1  0
 12 13  1  0
 13 14  1  0
 14 15  1  0
 15 16  2  0
 16 17  1  0
 17 18  1  0
 18 19  1  0
 19 20  2  0
 20 21  1  0
 21 22  2  0
 17 23  2  0
 23 24  1  0
 24 25  2  0
 25 26  1  0
  5 27  2  0
 27 28  1  0
 28 29  1  0
 29 30  2  0
 30 31  1  0
 31 32  2  0
 27 33  1  0
 33 34  2  0
 34 35  1  0
 34  3  1  0
 13  8  1  0
 25 15  1  0
 32 28  1  0
 22 18  1  0
  1 36  1  0
  1 37  1  0
  1 38  1  0
  4 39  1  0
  9 40  1  0
  9 41  1  0
 10 42  1  0
 10 43  1  0
 12 44  1  0
 12 45  1  0
 13 46  1  6
 14 47  1  0
 14 48  1  0
 16 49  1  0
 20 50  1  0
 21 51  1  0
 23 52  1  0
 24 53  1  0
 30 54  1  0
 31 55  1  0
 33 56  1  0
 35 57  1  0
 35 58  1  0
 35 59  1  0
M  END
$$$$
