
     RDKit          3D

 37 38  0  0  0  0  0  0  0  0999 V2000
   -5.9093    0.5926    0.2305 C   0  0  0  0  0  0  0  0  0  0  0  0
   -4.5945   -0.1420    0.4306 C   0  0  0  0  0  0  0  0  0  0  0  0
   -4.0514   -0.5042   -0.9317 C   0  0  0  0  0  0  0  0  0  0  0  0
   -2.7462   -1.2380   -0.8405 C   0  0  0  0  0  0  0  0  0  0  0  0
   -1.6857   -0.4276   -0.1396 C   0  0  0  0  0  0  0  0  0  0  0  0
   -1.4328    0.8491   -0.8882 C   0  0  0  0  0  0  0  0  0  0  0  0
   -0.4501    1.5883   -0.2307 O   0  0  0  0  0  0  0  0  0  0  0  0
    0.8362    1.1075   -0.0700 C   0  0  0  0  0  0  0  0  0  0  0  0
    1.7917    1.8853    0.6073 C   0  0  0  0  0  0  0  0  0  0  0  0
    3.0727    1.4169    0.7700 C   0  0  0  0  0  0  0  0  0  0  0  0
    3.4780    0.1905    0.2898 C   0  0  0  0  0  0  0  0  0  0  0  0
    4.7891   -0.3028    0.4495 N   0  0  0  0  0  0  0  0  0  0  0  0
    5.5910   -0.9355   -0.4245 C   0  0  0  0  0  0  0  0  0  0  0  0
    6.8068   -1.2498    0.1440 C   0  0  0  0  0  0  0  0  0  0  0  0
    6.7273   -0.7851    1.4108 N   0  0  0  0  0  0  0  0  0  0  0  0
    5.5311   -0.2240    1.5909 C   0  0  0  0  0  0  0  0  0  0  0  0
    2.5063   -0.5338   -0.3661 C   0  0  0  0  0  0  0  0  0  0  0  0
    1.2552   -0.0781   -0.5259 N   0  0  0  0  0  0  0  0  0  0  0  0
   -6.0213    1.3993    0.9771 H   0  0  0  0  0  0  0  0  0  0  0  0
   -5.9404    1.0021   -0.7942 H   0  0  0  0  0  0  0  0  0  0  0  0
   -6.7795   -0.0785    0.3485 H   0  0  0  0  0  0  0  0  0  0  0  0
   -4.7817   -1.0778    0.9916 H   0  0  0  0  0  0  0  0  0  0  0  0
   -3.9308    0.5474    0.9750 H   0  0  0  0  0  0  0  0  0  0  0  0
   -3.9806    0.3933   -1.5683 H   0  0  0  0  0  0  0  0  0  0  0  0
   -4.8282   -1.1675   -1.4279 H   0  0  0  0  0  0  0  0  0  0  0  0
   -2.9054   -2.1993   -0.2805 H   0  0  0  0  0  0  0  0  0  0  0  0
   -2.3739   -1.4978   -1.8442 H   0  0  0  0  0  0  0  0  0  0  0  0
   -0.7707   -1.0231   -0.0950 H   0  0  0  0  0  0  0  0  0  0  0  0
   -2.0362   -0.2128    0.9164 H   0  0  0  0  0  0  0  0  0  0  0  0
   -0.9984    0.5937   -1.9017 H   0  0  0  0  0  0  0  0  0  0  0  0
   -2.3638    1.4340   -1.0588 H   0  0  0  0  0  0  0  0  0  0  0  0
    1.4483    2.8462    0.9756 H   0  0  0  0  0  0  0  0  0  0  0  0
    3.8065    2.0250    1.2955 H   0  0  0  0  0  0  0  0  0  0  0  0
    5.3039   -1.1595   -1.4342 H   0  0  0  0  0  0  0  0  0  0  0  0
    7.6609   -1.7599   -0.3062 H   0  0  0  0  0  0  0  0  0  0  0  0
    5.1867    0.2306    2.5032 H   0  0  0  0  0  0  0  0  0  0  0  0
    2.7893   -1.5046   -0.7579 H   0  0  0  0  0  0  0  0  0  0  0  0
  1  2  1  0
  2  3  1  0
  3  4  1  0
  4  5  1  0
  5  6  1  0
  6  7  1  0
  7  8  1  0
  8  9  2  0
  9 10  1  0
 10 11  2  0
 11 12  1  0
 12 13  1  0
 13 14  2  0
 14 15  1  0
 15 16  2  0
 11 17  1  0
 17 18  2  0
 18  8  1  0
 16 12  1  0
  1 19  1  0
  1 20  1  0
  1 21  1  0
  2 22  1  0
  2 23  1  0
  3 24  1  0
  3 25  1  0
  4 26  1  0
  4 27  1  0
  5 28  1  0
  5 29  1  0
  6 30  1  0
  6 31  1  0
  9 32  1  0
 10 33  1  0
 13 34  1  0
 14 35  1  0
 16 36  1  0
 17 37  1  0
M  END
$$$$
