
     RDKit          3D

 60 61  0  0  0  0  0  0  0  0999 V2000
   -5.6425   -2.0042   -0.2496 C   0  0  0  0  0  0  0  0  0  0  0  0
   -5.2827   -0.5685    0.1574 C   0  0  0  0  0  0  0  0  0  0  0  0
   -4.2196   -0.7083    1.2328 C   0  0  0  0  0  0  0  0  0  0  0  0
   -6.4877    0.0023    0.7075 N   0  0  0  0  0  0  0  0  0  0  0  0
   -7.0938    1.0358    0.2894 C   0  0  0  0  0  0  0  0  0  0  0  0
   -8.2697    1.4684    0.9424 N   0  0  0  0  0  0  0  0  0  0  0  0
   -6.5961    1.7531   -0.8271 N   0  0  0  0  0  0  0  0  0  0  0  0
   -5.5204    1.3213   -1.3927 C   0  0  0  0  0  0  0  0  0  0  0  0
   -4.9606    2.0080   -2.5362 N   0  0  0  0  0  0  0  0  0  0  0  0
   -4.7936    0.1750   -0.9805 N   0  0  0  0  0  0  0  0  0  0  0  0
   -3.6728   -0.2388   -1.6112 O   0  0  0  0  0  0  0  0  0  0  0  0
   -2.5888    0.5713   -1.3774 C   0  0  0  0  0  0  0  0  0  0  0  0
   -1.4220   -0.0386   -2.1836 C   0  0  0  0  0  0  0  0  0  0  0  0
   -1.2588   -1.4307   -1.6244 C   0  0  0  0  0  0  0  0  0  0  0  0
   -0.9618   -1.5141   -0.2834 O   0  0  0  0  0  0  0  0  0  0  0  0
    0.1692   -1.0873    0.3392 C   0  0  0  0  0  0  0  0  0  0  0  0
    0.2182   -1.2459    1.7405 C   0  0  0  0  0  0  0  0  0  0  0  0
    1.3377   -0.8306    2.3953 C   0  0  0  0  0  0  0  0  0  0  0  0
    2.4119   -0.2632    1.7125 C   0  0  0  0  0  0  0  0  0  0  0  0
    2.4041   -0.0968    0.3646 C   0  0  0  0  0  0  0  0  0  0  0  0
    3.4638    0.3940   -0.4770 C   0  0  0  0  0  0  0  0  0  0  0  0
    3.1329    0.8054   -1.6772 O   0  0  0  0  0  0  0  0  0  0  0  0
    4.8538    0.5032   -0.2056 C   0  0  0  0  0  0  0  0  0  0  0  0
    5.5554    0.1326    0.8331 C   0  0  0  0  0  0  0  0  0  0  0  0
    7.0014    0.3383    0.9359 C   0  0  0  0  0  0  0  0  0  0  0  0
    7.7354    0.9278   -0.0376 C   0  0  0  0  0  0  0  0  0  0  0  0
    9.1139    1.0807    0.1537 C   0  0  0  0  0  0  0  0  0  0  0  0
    9.7534    0.6582    1.2868 C   0  0  0  0  0  0  0  0  0  0  0  0
    8.9674    0.0616    2.2558 C   0  0  0  0  0  0  0  0  0  0  0  0
    7.6171   -0.1070    2.1084 C   0  0  0  0  0  0  0  0  0  0  0  0
    1.2234   -0.5373   -0.3003 C   0  0  0  0  0  0  0  0  0  0  0  0
    0.6911    0.0000    0.0000 Cl  0  0  0  0  0  0  0  0  0  0  0  0
   -4.7203   -2.6305   -0.1910 H   0  0  0  0  0  0  0  0  0  0  0  0
   -6.4510   -2.3728    0.3982 H   0  0  0  0  0  0  0  0  0  0  0  0
   -5.9371   -1.9407   -1.3244 H   0  0  0  0  0  0  0  0  0  0  0  0
   -3.8489    0.2896    1.5006 H   0  0  0  0  0  0  0  0  0  0  0  0
   -4.7410   -1.1848    2.1078 H   0  0  0  0  0  0  0  0  0  0  0  0
   -3.4529   -1.3936    0.8719 H   0  0  0  0  0  0  0  0  0  0  0  0
   -8.2781    2.4264    1.3543 H   0  0  0  0  0  0  0  0  0  0  0  0
   -9.1347    0.8933    1.0419 H   0  0  0  0  0  0  0  0  0  0  0  0
   -4.8584    1.4815   -3.4307 H   0  0  0  0  0  0  0  0  0  0  0  0
   -4.6671    2.9936   -2.4775 H   0  0  0  0  0  0  0  0  0  0  0  0
   -2.2877    0.4502   -0.3155 H   0  0  0  0  0  0  0  0  0  0  0  0
   -2.7420    1.6251   -1.6442 H   0  0  0  0  0  0  0  0  0  0  0  0
   -0.5672    0.6021   -2.1929 H   0  0  0  0  0  0  0  0  0  0  0  0
   -1.8642   -0.1959   -3.2186 H   0  0  0  0  0  0  0  0  0  0  0  0
   -2.1977   -2.0235   -1.7872 H   0  0  0  0  0  0  0  0  0  0  0  0
   -0.4935   -1.9808   -2.2608 H   0  0  0  0  0  0  0  0  0  0  0  0
   -0.6255   -1.6870    2.2430 H   0  0  0  0  0  0  0  0  0  0  0  0
    1.4282   -0.9297    3.4792 H   0  0  0  0  0  0  0  0  0  0  0  0
    3.2593    0.1053    2.2950 H   0  0  0  0  0  0  0  0  0  0  0  0
    5.4748    0.9881   -1.0038 H   0  0  0  0  0  0  0  0  0  0  0  0
    5.0597   -0.3863    1.6330 H   0  0  0  0  0  0  0  0  0  0  0  0
    7.3086    1.2989   -0.9826 H   0  0  0  0  0  0  0  0  0  0  0  0
    9.6885    1.5589   -0.6439 H   0  0  0  0  0  0  0  0  0  0  0  0
   10.8085    0.7648    1.4552 H   0  0  0  0  0  0  0  0  0  0  0  0
    9.4201   -0.2951    3.1799 H   0  0  0  0  0  0  0  0  0  0  0  0
    7.0193   -0.5850    2.8971 H   0  0  0  0  0  0  0  0  0  0  0  0
    1.2121   -0.4382   -1.3912 H   0  0  0  0  0  0  0  0  0  0  0  0
   -0.6911    0.0000    0.0000 H   0  0  0  0  0  0  0  0  0  0  0  0
  1  2  1  0
  2  3  1  0
  2  4  1  0
  4  5  2  0
  5  6  1  0
  5  7  1  0
  7  8  2  0
  8  9  1  0
  8 10  1  0
 10 11  1  0
 11 12  1  0
 12 13  1  0
 13 14  1  0
 14 15  1  0
 15 16  1  0
 16 17  2  0
 17 18  1  0
 18 19  2  0
 19 20  1  0
 20 21  1  0
 21 22  2  0
 21 23  1  0
 23 24  2  0
 24 25  1  0
 25 26  2  0
 26 27  1  0
 27 28  2  0
 28 29  1  0
 29 30  2  0
 20 31  2  0
 10  2  1  0
 31 16  1  0
 30 25  1  0
  1 33  1  0
  1 34  1  0
  1 35  1  0
  3 36  1  0
  3 37  1  0
  3 38  1  0
  6 39  1  0
  6 40  1  0
  9 41  1  0
  9 42  1  0
 12 43  1  0
 12 44  1  0
 13 45  1  0
 13 46  1  0
 14 47  1  0
 14 48  1  0
 17 49  1  0
 18 50  1  0
 19 51  1  0
 23 52  1  0
 24 53  1  0
 26 54  1  0
 27 55  1  0
 28 56  1  0
 29 57  1  0
 30 58  1  0
 31 59  1  0
 32 60  1  0
M  END
$$$$
