
     RDKit          3D

 53 56  0  0  0  0  0  0  0  0999 V2000
   -6.4959   -1.2497    1.0833 C   0  0  0  0  0  0  0  0  0  0  0  0
   -5.3021   -1.7871    1.5583 O   0  0  0  0  0  0  0  0  0  0  0  0
   -4.1432   -1.0271    1.7817 C   0  0  0  0  0  0  0  0  0  0  0  0
   -4.1279    0.3352    1.5323 C   0  0  0  0  0  0  0  0  0  0  0  0
   -3.0088    1.1083    1.7420 C   0  0  0  0  0  0  0  0  0  0  0  0
   -1.8696    0.4539    2.2234 C   0  0  0  0  0  0  0  0  0  0  0  0
   -0.6886    1.2998    2.4570 C   0  0  0  0  0  0  0  0  0  0  0  0
    0.0625    1.4013    1.2111 N   0  0  0  0  0  0  0  0  0  0  0  0
    0.9655    0.3965    0.7714 C   0  0  0  0  0  0  0  0  0  0  0  0
    1.1431   -0.6434    1.4754 O   0  0  0  0  0  0  0  0  0  0  0  0
    1.6845    0.5796   -0.4935 C   0  0  0  0  0  0  0  0  0  0  0  0
    1.9180    1.8677   -0.9722 C   0  0  0  0  0  0  0  0  0  0  0  0
    2.6221    2.1139   -2.1262 C   0  0  0  0  0  0  0  0  0  0  0  0
    2.7723    3.5118   -2.5536 C   0  0  0  0  0  0  0  0  0  0  0  0
    1.7340    4.4177   -2.2896 C   0  0  0  0  0  0  0  0  0  0  0  0
    1.8313    5.7078   -2.6492 N   0  0  0  0  0  0  0  0  0  0  0  0
    2.8833    6.2162   -3.2655 C   0  0  0  0  0  0  0  0  0  0  0  0
    3.9334    5.3555   -3.5467 C   0  0  0  0  0  0  0  0  0  0  0  0
    5.3574    6.0062   -4.3622 Cl  0  0  0  0  0  0  0  0  0  0  0  0
    3.8707    4.0184   -3.1910 C   0  0  0  0  0  0  0  0  0  0  0  0
    3.1145    1.0408   -2.8292 C   0  0  0  0  0  0  0  0  0  0  0  0
    2.8850   -0.1893   -2.3628 N   0  0  0  0  0  0  0  0  0  0  0  0
    2.1869   -0.4598   -1.2217 C   0  0  0  0  0  0  0  0  0  0  0  0
    1.9974   -1.8430   -0.8056 C   0  0  0  0  0  0  0  0  0  0  0  0
    0.7761   -2.3949   -0.5159 C   0  0  0  0  0  0  0  0  0  0  0  0
    0.6475   -3.7086   -0.1162 C   0  0  0  0  0  0  0  0  0  0  0  0
    1.7507   -4.5227    0.0080 C   0  0  0  0  0  0  0  0  0  0  0  0
    2.9662   -3.9466   -0.2881 C   0  0  0  0  0  0  0  0  0  0  0  0
    3.0909   -2.6533   -0.6811 N   0  0  0  0  0  0  0  0  0  0  0  0
   -1.9104   -0.8501    2.4531 N   0  0  0  0  0  0  0  0  0  0  0  0
   -2.9948   -1.6135    2.2533 C   0  0  0  0  0  0  0  0  0  0  0  0
   -2.9172   -2.9630    2.5302 O   0  0  0  0  0  0  0  0  0  0  0  0
   -1.7691   -3.6143    3.0130 C   0  0  0  0  0  0  0  0  0  0  0  0
   -7.3489   -1.9514    1.2826 H   0  0  0  0  0  0  0  0  0  0  0  0
   -6.7332   -0.2263    1.4419 H   0  0  0  0  0  0  0  0  0  0  0  0
   -6.4186   -1.1801   -0.0282 H   0  0  0  0  0  0  0  0  0  0  0  0
   -5.0461    0.8236    1.1476 H   0  0  0  0  0  0  0  0  0  0  0  0
   -3.0160    2.1656    1.5413 H   0  0  0  0  0  0  0  0  0  0  0  0
   -0.9113    2.2999    2.8709 H   0  0  0  0  0  0  0  0  0  0  0  0
    0.0135    0.7688    3.1643 H   0  0  0  0  0  0  0  0  0  0  0  0
   -0.0620    2.2392    0.5949 H   0  0  0  0  0  0  0  0  0  0  0  0
    1.5267    2.7092   -0.3923 H   0  0  0  0  0  0  0  0  0  0  0  0
    0.8509    4.0312   -1.7876 H   0  0  0  0  0  0  0  0  0  0  0  0
    2.9826    7.2590   -3.5701 H   0  0  0  0  0  0  0  0  0  0  0  0
    4.7062    3.3496   -3.4139 H   0  0  0  0  0  0  0  0  0  0  0  0
    3.6727    1.2335   -3.7441 H   0  0  0  0  0  0  0  0  0  0  0  0
   -0.1197   -1.8050   -0.6079 H   0  0  0  0  0  0  0  0  0  0  0  0
   -0.3157   -4.1418    0.1096 H   0  0  0  0  0  0  0  0  0  0  0  0
    1.7059   -5.5561    0.3111 H   0  0  0  0  0  0  0  0  0  0  0  0
    3.8494   -4.5843   -0.1907 H   0  0  0  0  0  0  0  0  0  0  0  0
   -1.9611   -4.0962    3.9947 H   0  0  0  0  0  0  0  0  0  0  0  0
   -0.9931   -2.8381    3.1793 H   0  0  0  0  0  0  0  0  0  0  0  0
   -1.3475   -4.3405    2.2733 H   0  0  0  0  0  0  0  0  0  0  0  0
  1  2  1  0
  2  3  1  0
  3  4  2  0
  4  5  1  0
  5  6  2  0
  6  7  1  0
  7  8  1  0
  8  9  1  0
  9 10  2  0
  9 11  1  0
 11 12  2  0
 12 13  1  0
 13 14  1  0
 14 15  2  0
 15 16  1  0
 16 17  2  0
 17 18  1  0
 18 19  1  0
 18 20  2  0
 13 21  2  0
 21 22  1  0
 22 23  2  0
 23 24  1  0
 24 25  2  0
 25 26  1  0
 26 27  2  0
 27 28  1  0
 28 29  2  0
  6 30  1  0
 30 31  2  0
 31 32  1  0
 32 33  1  0
 31  3  1  0
 23 11  1  0
 29 24  1  0
 20 14  1  0
  1 34  1  0
  1 35  1  0
  1 36  1  0
  4 37  1  0
  5 38  1  0
  7 39  1  0
  7 40  1  0
  8 41  1  0
 12 42  1  0
 15 43  1  0
 17 44  1  0
 20 45  1  0
 21 46  1  0
 25 47  1  0
 26 48  1  0
 27 49  1  0
 28 50  1  0
 33 51  1  0
 33 52  1  0
 33 53  1  0
M  END
$$$$
