
     RDKit          3D

 27 27  0  0  0  0  0  0  0  0999 V2000
    4.7990    0.4220    0.6761 C   0  0  0  0  0  0  0  0  0  0  0  0
    3.8330   -0.5228    0.3336 O   0  0  0  0  0  0  0  0  0  0  0  0
    2.5120   -0.2950    0.0422 C   0  0  0  0  0  0  0  0  0  0  0  0
    1.7991   -1.4597   -0.2650 C   0  0  0  0  0  0  0  0  0  0  0  0
    0.4576   -1.3731   -0.5777 C   0  0  0  0  0  0  0  0  0  0  0  0
   -0.2250   -0.1663   -0.6014 C   0  0  0  0  0  0  0  0  0  0  0  0
   -1.6676   -0.1918   -0.9515 C   0  0  0  0  0  0  0  0  0  0  0  0
   -2.5671   -0.3587    0.2540 C   0  0  0  0  0  0  0  0  0  0  0  0
   -3.9978   -0.3721   -0.2059 C   0  0  0  0  0  0  0  0  0  0  0  0
   -2.3933    0.8116    1.0862 N   0  0  0  0  0  0  0  0  0  0  0  0
    0.5121    0.9575   -0.2932 C   0  0  0  0  0  0  0  0  0  0  0  0
    1.8481    0.9052    0.0222 C   0  0  0  0  0  0  0  0  0  0  0  0
    5.4046   -0.0446    1.5054 H   0  0  0  0  0  0  0  0  0  0  0  0
    4.3658    1.3434    1.1034 H   0  0  0  0  0  0  0  0  0  0  0  0
    5.5387    0.6421   -0.1118 H   0  0  0  0  0  0  0  0  0  0  0  0
    2.2466   -2.4591   -0.2736 H   0  0  0  0  0  0  0  0  0  0  0  0
   -0.0875   -2.2874   -0.8153 H   0  0  0  0  0  0  0  0  0  0  0  0
   -1.8400   -1.0543   -1.6491 H   0  0  0  0  0  0  0  0  0  0  0  0
   -1.9185    0.7151   -1.5260 H   0  0  0  0  0  0  0  0  0  0  0  0
   -2.3412   -1.2498    0.8369 H   0  0  0  0  0  0  0  0  0  0  0  0
   -4.0076   -0.8690   -1.2099 H   0  0  0  0  0  0  0  0  0  0  0  0
   -4.4058    0.6339   -0.3383 H   0  0  0  0  0  0  0  0  0  0  0  0
   -4.6559   -1.0138    0.4468 H   0  0  0  0  0  0  0  0  0  0  0  0
   -2.6920    1.6829    0.5654 H   0  0  0  0  0  0  0  0  0  0  0  0
   -2.9266    0.7222    1.9951 H   0  0  0  0  0  0  0  0  0  0  0  0
   -0.0167    1.9056   -0.3100 H   0  0  0  0  0  0  0  0  0  0  0  0
    2.4260    1.7655    0.2615 H   0  0  0  0  0  0  0  0  0  0  0  0
  1  2  1  0
  2  3  1  0
  3  4  2  0
  4  5  1  0
  5  6  2  0
  6  7  1  0
  7  8  1  0
  8  9  1  0
  8 10  1  0
  6 11  1  0
 11 12  2  0
 12  3  1  0
  1 13  1  0
  1 14  1  0
  1 15  1  0
  4 16  1  0
  5 17  1  0
  7 18  1  0
  7 19  1  0
  8 20  1  0
  9 21  1  0
  9 22  1  0
  9 23  1  0
 10 24  1  0
 10 25  1  0
 11 26  1  0
 12 27  1  0
M  END
$$$$
