
     RDKit          3D

 79 82  0  0  0  0  0  0  0  0999 V2000
    1.9961    2.2501   -2.5922 C   0  0  0  0  0  0  0  0  0  0  0  0
    1.0711    1.6528   -1.7403 O   0  0  0  0  0  0  0  0  0  0  0  0
    1.3883    1.1313   -0.4942 C   0  0  0  0  0  0  0  0  0  0  0  0
    2.6894    1.2295   -0.1199 N   0  0  0  0  0  0  0  0  0  0  0  0
    3.1103    0.7632    1.0570 C   0  0  0  0  0  0  0  0  0  0  0  0
    4.4653    0.8790    1.4184 N   0  0  0  0  0  0  0  0  0  0  0  0
    5.4496    1.4777    0.5778 C   0  0  0  0  0  0  0  0  0  0  0  0
    5.6151    0.7293   -0.7123 C   0  0  0  0  0  0  0  0  0  0  0  0
    6.0333   -0.6780   -0.4124 C   0  0  0  0  0  0  0  0  0  0  0  0
    7.2677   -0.6889    0.2993 N   0  0  0  0  0  0  0  0  0  0  0  0
    7.6687   -2.0429    0.6749 C   0  0  0  0  0  0  0  0  0  0  0  0
    8.8810   -1.8479    1.5923 C   0  0  0  0  0  0  0  0  0  0  0  0
    9.9865   -1.4676    0.7803 N   0  0  0  0  0  0  0  0  0  0  0  0
   11.1334   -0.9650    1.4662 C   0  0  0  0  0  0  0  0  0  0  0  0
    9.6252   -0.8167   -0.4243 C   0  0  0  0  0  0  0  0  0  0  0  0
    8.3617   -0.0073   -0.3682 C   0  0  0  0  0  0  0  0  0  0  0  0
    2.2157    0.1836    1.8847 N   0  0  0  0  0  0  0  0  0  0  0  0
    0.9264    0.0677    1.5531 C   0  0  0  0  0  0  0  0  0  0  0  0
    0.4591    0.5499    0.3218 C   0  0  0  0  0  0  0  0  0  0  0  0
   -0.9460    0.4157   -0.0267 C   0  0  0  0  0  0  0  0  0  0  0  0
   -1.6578   -0.1546    0.8735 O   0  0  0  0  0  0  0  0  0  0  0  0
   -1.5896    0.8259   -1.1963 N   0  0  0  0  0  0  0  0  0  0  0  0
   -2.9687    0.6718   -1.4836 C   0  0  0  0  0  0  0  0  0  0  0  0
   -3.9398    0.1365   -0.6977 C   0  0  0  0  0  0  0  0  0  0  0  0
   -5.2906    0.0297   -1.1024 C   0  0  0  0  0  0  0  0  0  0  0  0
   -6.2216   -0.5642   -0.1521 C   0  0  0  0  0  0  0  0  0  0  0  0
   -5.8128   -0.9327    1.0007 O   0  0  0  0  0  0  0  0  0  0  0  0
   -7.5881   -0.7629   -0.4386 N   0  0  0  0  0  0  0  0  0  0  0  0
   -8.4967   -1.3426    0.4909 C   0  0  0  0  0  0  0  0  0  0  0  0
   -8.6887   -2.7009    0.5153 C   0  0  0  0  0  0  0  0  0  0  0  0
   -9.5595   -3.3143    1.3928 C   0  0  0  0  0  0  0  0  0  0  0  0
  -10.2401   -2.4791    2.2610 C   0  0  0  0  0  0  0  0  0  0  0  0
  -10.0597   -1.1068    2.2509 C   0  0  0  0  0  0  0  0  0  0  0  0
  -10.8053   -0.2651    3.1938 C   0  0  0  0  0  0  0  0  0  0  0  0
  -11.5728    0.6268    2.4479 F   0  0  0  0  0  0  0  0  0  0  0  0
  -10.0071    0.3869    4.1058 F   0  0  0  0  0  0  0  0  0  0  0  0
  -11.6505   -1.0771    3.9542 F   0  0  0  0  0  0  0  0  0  0  0  0
   -9.1709   -0.5092    1.3513 C   0  0  0  0  0  0  0  0  0  0  0  0
   -8.9619    0.9568    1.3230 C   0  0  0  0  0  0  0  0  0  0  0  0
   -5.6476    0.4859   -2.3471 C   0  0  0  0  0  0  0  0  0  0  0  0
   -4.6897    1.0370   -3.1757 C   0  0  0  0  0  0  0  0  0  0  0  0
   -3.3942    1.1225   -2.7482 C   0  0  0  0  0  0  0  0  0  0  0  0
   -2.4146    1.7302   -3.7063 C   0  0  0  0  0  0  0  0  0  0  0  0
    1.6814    3.2966   -2.8780 H   0  0  0  0  0  0  0  0  0  0  0  0
    2.1012    1.6551   -3.5210 H   0  0  0  0  0  0  0  0  0  0  0  0
    3.0178    2.2695   -2.1360 H   0  0  0  0  0  0  0  0  0  0  0  0
    4.7753    0.5083    2.3557 H   0  0  0  0  0  0  0  0  0  0  0  0
    6.4415    1.5397    1.0700 H   0  0  0  0  0  0  0  0  0  0  0  0
    5.1064    2.5118    0.3134 H   0  0  0  0  0  0  0  0  0  0  0  0
    4.6471    0.6582   -1.2778 H   0  0  0  0  0  0  0  0  0  0  0  0
    6.3606    1.2114   -1.3690 H   0  0  0  0  0  0  0  0  0  0  0  0
    6.0383   -1.3304   -1.3099 H   0  0  0  0  0  0  0  0  0  0  0  0
    5.2501   -1.0966    0.2850 H   0  0  0  0  0  0  0  0  0  0  0  0
    8.0452   -2.5392   -0.2377 H   0  0  0  0  0  0  0  0  0  0  0  0
    6.8616   -2.5980    1.1487 H   0  0  0  0  0  0  0  0  0  0  0  0
    8.6028   -1.0626    2.3463 H   0  0  0  0  0  0  0  0  0  0  0  0
    9.1224   -2.7659    2.1413 H   0  0  0  0  0  0  0  0  0  0  0  0
   11.2596    0.1246    1.3966 H   0  0  0  0  0  0  0  0  0  0  0  0
   12.0392   -1.4054    0.9518 H   0  0  0  0  0  0  0  0  0  0  0  0
   11.1588   -1.3603    2.5067 H   0  0  0  0  0  0  0  0  0  0  0  0
   10.4327   -0.0933   -0.7458 H   0  0  0  0  0  0  0  0  0  0  0  0
    9.5319   -1.5849   -1.2507 H   0  0  0  0  0  0  0  0  0  0  0  0
    8.5646    0.9652    0.0842 H   0  0  0  0  0  0  0  0  0  0  0  0
    8.0567    0.1814   -1.4380 H   0  0  0  0  0  0  0  0  0  0  0  0
    0.2188   -0.4058    2.2382 H   0  0  0  0  0  0  0  0  0  0  0  0
   -0.9677    1.2930   -1.9195 H   0  0  0  0  0  0  0  0  0  0  0  0
   -3.6748   -0.2208    0.2767 H   0  0  0  0  0  0  0  0  0  0  0  0
   -7.9279   -0.4580   -1.3994 H   0  0  0  0  0  0  0  0  0  0  0  0
   -8.1474   -3.3454   -0.1708 H   0  0  0  0  0  0  0  0  0  0  0  0
   -9.7179   -4.3817    1.4196 H   0  0  0  0  0  0  0  0  0  0  0  0
  -10.9353   -2.9525    2.9635 H   0  0  0  0  0  0  0  0  0  0  0  0
   -7.8768    1.2154    1.3809 H   0  0  0  0  0  0  0  0  0  0  0  0
   -9.4605    1.4444    2.1562 H   0  0  0  0  0  0  0  0  0  0  0  0
   -9.3964    1.3852    0.3756 H   0  0  0  0  0  0  0  0  0  0  0  0
   -6.6898    0.4057   -2.6667 H   0  0  0  0  0  0  0  0  0  0  0  0
   -4.9888    1.3918   -4.1507 H   0  0  0  0  0  0  0  0  0  0  0  0
   -1.5873    0.9954   -3.8524 H   0  0  0  0  0  0  0  0  0  0  0  0
   -2.8685    1.9083   -4.6939 H   0  0  0  0  0  0  0  0  0  0  0  0
   -2.0447    2.6602   -3.2414 H   0  0  0  0  0  0  0  0  0  0  0  0
  1  2  1  0
  2  3  1  0
  3  4  2  0
  4  5  1  0
  5  6  1  0
  6  7  1  0
  7  8  1  0
  8  9  1  0
  9 10  1  0
 10 11  1  0
 11 12  1  0
 12 13  1  0
 13 14  1  0
 13 15  1  0
 15 16  1  0
  5 17  2  0
 17 18  1  0
 18 19  2  0
 19 20  1  0
 20 21  2  0
 20 22  1  0
 22 23  1  0
 23 24  2  0
 24 25  1  0
 25 26  1  0
 26 27  2  0
 26 28  1  0
 28 29  1  0
 29 30  2  0
 30 31  1  0
 31 32  2  0
 32 33  1  0
 33 34  1  0
 34 35  1  0
 34 36  1  0
 34 37  1  0
 33 38  2  0
 38 39  1  0
 25 40  2  0
 40 41  1  0
 41 42  2  0
 42 43  1  0
 19  3  1  0
 42 23  1  0
 16 10  1  0
 38 29  1  0
  1 44  1  0
  1 45  1  0
  1 46  1  0
  6 47  1  0
  7 48  1  0
  7 49  1  0
  8 50  1  0
  8 51  1  0
  9 52  1  0
  9 53  1  0
 11 54  1  0
 11 55  1  0
 12 56  1  0
 12 57  1  0
 14 58  1  0
 14 59  1  0
 14 60  1  0
 15 61  1  0
 15 62  1  0
 16 63  1  0
 16 64  1  0
 18 65  1  0
 22 66  1  0
 24 67  1  0
 28 68  1  0
 30 69  1  0
 31 70  1  0
 32 71  1  0
 39 72  1  0
 39 73  1  0
 39 74  1  0
 40 75  1  0
 41 76  1  0
 43 77  1  0
 43 78  1  0
 43 79  1  0
M  END
$$$$
