
     RDKit          3D

 61 65  0  0  0  0  0  0  0  0999 V2000
   -7.7660    4.2432    0.7061 C   0  0  0  0  0  0  0  0  0  0  0  0
   -6.4827    3.4609    0.7636 C   0  0  0  0  0  0  0  0  0  0  0  0
   -6.0054    2.6019   -0.2007 C   0  0  0  0  0  0  0  0  0  0  0  0
   -4.8161    2.0791    0.2036 N   0  0  0  0  0  0  0  0  0  0  0  0
   -4.0841    1.1565   -0.5902 C   0  0  0  0  0  0  0  0  0  0  0  0
   -3.2957    0.2029    0.0372 C   0  0  0  0  0  0  0  0  0  0  0  0
   -2.5612   -0.7200   -0.6581 C   0  0  0  0  0  0  0  0  0  0  0  0
   -1.7338   -1.7226   -0.0528 N   0  0  0  0  0  0  0  0  0  0  0  0
   -0.3717   -1.4874    0.2426 C   0  0  0  0  0  0  0  0  0  0  0  0
    0.0883   -0.3366   -0.0562 O   0  0  0  0  0  0  0  0  0  0  0  0
    0.5007   -2.4937    0.8621 C   0  0  0  0  0  0  0  0  0  0  0  0
    0.0479   -3.7415    1.2118 C   0  0  0  0  0  0  0  0  0  0  0  0
    0.9285   -4.6318    1.7909 C   0  0  0  0  0  0  0  0  0  0  0  0
    2.2465   -4.2926    2.0230 C   0  0  0  0  0  0  0  0  0  0  0  0
    3.1729   -5.2574    2.6420 C   0  0  0  0  0  0  0  0  0  0  0  0
    2.7461   -3.0385    1.6836 C   0  0  0  0  0  0  0  0  0  0  0  0
    4.0764   -2.7325    1.9433 N   0  0  0  0  0  0  0  0  0  0  0  0
    4.8372   -1.5937    1.6695 C   0  0  0  0  0  0  0  0  0  0  0  0
    6.1014   -1.5369    2.1005 N   0  0  0  0  0  0  0  0  0  0  0  0
    6.8679   -0.4854    1.8591 C   0  0  0  0  0  0  0  0  0  0  0  0
    6.3501    0.5837    1.1424 C   0  0  0  0  0  0  0  0  0  0  0  0
    5.0561    0.5656    0.6810 C   0  0  0  0  0  0  0  0  0  0  0  0
    4.4595    1.6634   -0.0892 C   0  0  0  0  0  0  0  0  0  0  0  0
    3.1769    1.6281   -0.5530 C   0  0  0  0  0  0  0  0  0  0  0  0
    2.6836    2.6964   -1.2654 C   0  0  0  0  0  0  0  0  0  0  0  0
    3.4667    3.8009   -1.5170 C   0  0  0  0  0  0  0  0  0  0  0  0
    4.7148    3.8449   -1.0705 N   0  0  0  0  0  0  0  0  0  0  0  0
    5.2115    2.7858   -0.3613 C   0  0  0  0  0  0  0  0  0  0  0  0
    4.3561   -0.5573    0.9823 N   0  0  0  0  0  0  0  0  0  0  0  0
    1.8459   -2.1756    1.1096 C   0  0  0  0  0  0  0  0  0  0  0  0
   -2.6182   -0.6868   -2.0320 C   0  0  0  0  0  0  0  0  0  0  0  0
   -3.4059    0.2650   -2.6981 C   0  0  0  0  0  0  0  0  0  0  0  0
   -3.4766    0.3121   -4.1782 C   0  0  0  0  0  0  0  0  0  0  0  0
   -2.3950   -0.3159   -4.7577 F   0  0  0  0  0  0  0  0  0  0  0  0
   -3.4083    1.6638   -4.5314 F   0  0  0  0  0  0  0  0  0  0  0  0
   -4.6127   -0.2847   -4.6670 F   0  0  0  0  0  0  0  0  0  0  0  0
   -4.1253    1.1704   -1.9614 C   0  0  0  0  0  0  0  0  0  0  0  0
   -4.5587    2.6020    1.3949 C   0  0  0  0  0  0  0  0  0  0  0  0
   -5.5636    3.4427    1.7456 N   0  0  0  0  0  0  0  0  0  0  0  0
   -7.8819    4.8047    1.6556 H   0  0  0  0  0  0  0  0  0  0  0  0
   -8.6342    3.5467    0.5454 H   0  0  0  0  0  0  0  0  0  0  0  0
   -7.6800    4.9764   -0.1044 H   0  0  0  0  0  0  0  0  0  0  0  0
   -6.5224    2.3938   -1.1321 H   0  0  0  0  0  0  0  0  0  0  0  0
   -3.2701    0.1998    1.0969 H   0  0  0  0  0  0  0  0  0  0  0  0
   -2.1155   -2.6657    0.1903 H   0  0  0  0  0  0  0  0  0  0  0  0
   -0.9923   -4.0372    1.0394 H   0  0  0  0  0  0  0  0  0  0  0  0
    0.5683   -5.6352    2.0734 H   0  0  0  0  0  0  0  0  0  0  0  0
    3.5927   -4.8790    3.6074 H   0  0  0  0  0  0  0  0  0  0  0  0
    3.9654   -5.6082    1.9549 H   0  0  0  0  0  0  0  0  0  0  0  0
    2.5839   -6.1571    2.9145 H   0  0  0  0  0  0  0  0  0  0  0  0
    4.6349   -3.5073    2.4487 H   0  0  0  0  0  0  0  0  0  0  0  0
    7.9023   -0.4006    2.1929 H   0  0  0  0  0  0  0  0  0  0  0  0
    6.9819    1.4565    0.9402 H   0  0  0  0  0  0  0  0  0  0  0  0
    2.5623    0.7778   -0.3669 H   0  0  0  0  0  0  0  0  0  0  0  0
    1.6696    2.7300   -1.6624 H   0  0  0  0  0  0  0  0  0  0  0  0
    3.0910    4.6574   -2.0807 H   0  0  0  0  0  0  0  0  0  0  0  0
    6.2354    2.9299   -0.0481 H   0  0  0  0  0  0  0  0  0  0  0  0
    2.1460   -1.1855    0.8208 H   0  0  0  0  0  0  0  0  0  0  0  0
   -2.0717   -1.3764   -2.6628 H   0  0  0  0  0  0  0  0  0  0  0  0
   -4.7557    1.9335   -2.4384 H   0  0  0  0  0  0  0  0  0  0  0  0
   -3.6636    2.3678    1.9755 H   0  0  0  0  0  0  0  0  0  0  0  0
  1  2  1  0
  2  3  2  0
  3  4  1  0
  4  5  1  0
  5  6  2  0
  6  7  1  0
  7  8  1  0
  8  9  1  0
  9 10  2  0
  9 11  1  0
 11 12  2  0
 12 13  1  0
 13 14  2  0
 14 15  1  0
 14 16  1  0
 16 17  1  0
 17 18  1  0
 18 19  2  0
 19 20  1  0
 20 21  2  0
 21 22  1  0
 22 23  1  0
 23 24  2  0
 24 25  1  0
 25 26  2  0
 26 27  1  0
 27 28  2  0
 22 29  2  0
 16 30  2  0
  7 31  2  0
 31 32  1  0
 32 33  1  0
 33 34  1  0
 33 35  1  0
 33 36  1  0
 32 37  2  0
  4 38  1  0
 38 39  2  0
 39  2  1  0
 37  5  1  0
 30 11  1  0
 29 18  1  0
 28 23  1  0
  1 40  1  0
  1 41  1  0
  1 42  1  0
  3 43  1  0
  6 44  1  0
  8 45  1  0
 12 46  1  0
 13 47  1  0
 15 48  1  0
 15 49  1  0
 15 50  1  0
 17 51  1  0
 20 52  1  0
 21 53  1  0
 24 54  1  0
 25 55  1  0
 26 56  1  0
 28 57  1  0
 30 58  1  0
 31 59  1  0
 37 60  1  0
 38 61  1  0
M  END
$$$$
