
     RDKit          3D

 35 37  0  0  0  0  0  0  0  0999 V2000
   -6.2450   -0.0751    1.9285 C   0  0  0  0  0  0  0  0  0  0  0  0
   -4.8448    0.0929    1.9642 O   0  0  0  0  0  0  0  0  0  0  0  0
   -4.0616    0.1188    0.8190 C   0  0  0  0  0  0  0  0  0  0  0  0
   -2.6964    0.2887    0.9576 C   0  0  0  0  0  0  0  0  0  0  0  0
   -1.8584    0.3226   -0.1629 C   0  0  0  0  0  0  0  0  0  0  0  0
   -2.4217    0.1826   -1.4139 C   0  0  0  0  0  0  0  0  0  0  0  0
   -3.7925    0.0093   -1.5990 C   0  0  0  0  0  0  0  0  0  0  0  0
   -4.5730   -0.0163   -0.4542 C   0  0  0  0  0  0  0  0  0  0  0  0
   -0.4938    0.4847   -0.1565 N   0  0  0  0  0  0  0  0  0  0  0  0
    0.3790    1.5631   -0.2074 C   0  0  0  0  0  0  0  0  0  0  0  0
    1.6811    1.6226   -0.1927 C   0  0  0  0  0  0  0  0  0  0  0  0
    2.4891    0.4255   -0.1114 C   0  0  0  0  0  0  0  0  0  0  0  0
    1.8844   -0.8762   -0.0440 C   0  0  0  0  0  0  0  0  0  0  0  0
    3.3123   -2.0003    0.0439 S   0  0  0  0  0  0  0  0  0  0  0  0
    4.5396   -0.7587   -0.0105 C   0  0  0  0  0  0  0  0  0  0  0  0
    3.8556    0.4492   -0.0920 C   0  0  0  0  0  0  0  0  0  0  0  0
    6.2273   -1.2073    0.0416 S   0  0  0  0  0  0  0  0  0  0  0  0
    7.1628    0.2264   -0.0285 N   0  0  0  0  0  0  0  0  0  0  0  0
    6.4837   -2.0765   -1.1464 O   0  0  0  0  0  0  0  0  0  0  0  0
    6.5515   -1.9118    1.3346 O   0  0  0  0  0  0  0  0  0  0  0  0
    0.1692   -1.1011   -0.0583 S   0  0  0  0  0  0  0  0  0  0  0  0
   -0.2144   -1.7430    1.2430 O   0  0  0  0  0  0  0  0  0  0  0  0
   -0.2922   -1.9261   -1.2255 O   0  0  0  0  0  0  0  0  0  0  0  0
   -6.5973   -0.7435    1.1128 H   0  0  0  0  0  0  0  0  0  0  0  0
   -6.6029   -0.5082    2.9054 H   0  0  0  0  0  0  0  0  0  0  0  0
   -6.6914    0.9225    1.7515 H   0  0  0  0  0  0  0  0  0  0  0  0
   -2.1980    0.4042    1.9220 H   0  0  0  0  0  0  0  0  0  0  0  0
   -1.8588    0.1954   -2.3357 H   0  0  0  0  0  0  0  0  0  0  0  0
   -4.2297   -0.1000   -2.5810 H   0  0  0  0  0  0  0  0  0  0  0  0
   -5.6434   -0.1511   -0.5903 H   0  0  0  0  0  0  0  0  0  0  0  0
   -0.2270    2.4769   -0.2694 H   0  0  0  0  0  0  0  0  0  0  0  0
    2.0700    2.6269   -0.2459 H   0  0  0  0  0  0  0  0  0  0  0  0
    4.5542    1.2664   -0.1295 H   0  0  0  0  0  0  0  0  0  0  0  0
    6.7968    0.9921    0.5535 H   0  0  0  0  0  0  0  0  0  0  0  0
    7.3854    0.5243   -1.0065 H   0  0  0  0  0  0  0  0  0  0  0  0
  1  2  1  0
  2  3  1  0
  3  4  2  0
  4  5  1  0
  5  6  2  0
  6  7  1  0
  7  8  2  0
  5  9  1  0
  9 10  1  0
 10 11  2  0
 11 12  1  0
 12 13  2  0
 13 14  1  0
 14 15  1  0
 15 16  2  0
 15 17  1  0
 17 18  1  0
 17 19  2  0
 17 20  2  0
 13 21  1  0
 21 22  2  0
 21 23  2  0
  8  3  1  0
 21  9  1  0
 16 12  1  0
  1 24  1  0
  1 25  1  0
  1 26  1  0
  4 27  1  0
  6 28  1  0
  7 29  1  0
  8 30  1  0
 10 31  1  0
 11 32  1  0
 16 33  1  0
 18 34  1  0
 18 35  1  0
M  END
$$$$
