
     RDKit          3D

 12 11  0  0  0  0  0  0  0  0999 V2000
    1.3638   -0.2938   -0.0680 C   0  0  0  0  0  0  0  0  0  0  0  0
   -0.0322    0.0934    0.0035 N   0  0  0  0  0  0  0  0  0  0  0  0
   -1.1456   -0.8329   -0.0892 C   0  0  0  0  0  0  0  0  0  0  0  0
   -0.3301    1.4752    0.1764 C   0  0  0  0  0  0  0  0  0  0  0  0
    0.5287    2.3726    0.2701 O   0  0  0  0  0  0  0  0  0  0  0  0
    1.4802   -1.3486    0.3191 H   0  0  0  0  0  0  0  0  0  0  0  0
    1.6976   -0.3418   -1.1235 H   0  0  0  0  0  0  0  0  0  0  0  0
    2.0145    0.3304    0.5717 H   0  0  0  0  0  0  0  0  0  0  0  0
   -1.7277   -0.8161    0.8571 H   0  0  0  0  0  0  0  0  0  0  0  0
   -0.7585   -1.8771   -0.1734 H   0  0  0  0  0  0  0  0  0  0  0  0
   -1.7662   -0.6371   -0.9864 H   0  0  0  0  0  0  0  0  0  0  0  0
   -1.3245    1.8758    0.2425 H   0  0  0  0  0  0  0  0  0  0  0  0
  1  2  1  0
  2  3  1  0
  2  4  1  0
  4  5  2  0
  1  6  1  0
  1  7  1  0
  1  8  1  0
  3  9  1  0
  3 10  1  0
  3 11  1  0
  4 12  1  0
M  END
$$$$
