
     RDKit          3D

 56 59  0  0  0  0  0  0  0  0999 V2000
    6.7984   -0.3471   -0.8983 C   0  0  1  0  0  0  0  0  0  0  0  0
    6.2807    0.4736    0.2617 C   0  0  0  0  0  0  0  0  0  0  0  0
    5.4234    1.6093   -0.2699 C   0  0  0  0  0  0  0  0  0  0  0  0
    4.1605    1.1162   -0.9132 C   0  0  1  0  0  0  0  0  0  0  0  0
    4.3779   -0.2496   -1.5285 C   0  0  0  0  0  0  0  0  0  0  0  0
    5.8098   -0.4271   -2.0167 C   0  0  0  0  0  0  0  0  0  0  0  0
    3.0958    1.0829    0.1239 C   0  0  0  0  0  0  0  0  0  0  0  0
    3.4684    1.4443    1.2691 O   0  0  0  0  0  0  0  0  0  0  0  0
    1.7456    0.6939   -0.0572 N   0  0  0  0  0  0  0  0  0  0  0  0
    0.8196    0.7061    1.0235 C   0  0  0  0  0  0  0  0  0  0  0  0
   -0.4874    0.3226    0.7719 C   0  0  0  0  0  0  0  0  0  0  0  0
   -1.3590    0.3424    1.8306 C   0  0  0  0  0  0  0  0  0  0  0  0
   -0.8582    0.7469    3.0743 C   0  0  0  0  0  0  0  0  0  0  0  0
    0.4478    1.1269    3.3117 C   0  0  0  0  0  0  0  0  0  0  0  0
    1.2575    1.0881    2.2371 N   0  0  0  0  0  0  0  0  0  0  0  0
   -2.7715   -0.0173    1.7917 C   0  0  0  0  0  0  0  0  0  0  0  0
   -3.5454    0.1917    0.6748 C   0  0  0  0  0  0  0  0  0  0  0  0
   -4.8844   -0.1226    0.5691 C   0  0  0  0  0  0  0  0  0  0  0  0
   -5.5814    0.1407   -0.6385 N   0  0  0  0  0  0  0  0  0  0  0  0
   -6.9311   -0.1057   -0.9169 C   0  0  0  0  0  0  0  0  0  0  0  0
   -7.8737   -0.6453   -0.0890 C   0  0  0  0  0  0  0  0  0  0  0  0
   -9.1947   -0.8736   -0.3964 C   0  0  0  0  0  0  0  0  0  0  0  0
   -9.6297   -0.5310   -1.6593 C   0  0  0  0  0  0  0  0  0  0  0  0
  -10.9192   -0.7336   -2.0152 F   0  0  0  0  0  0  0  0  0  0  0  0
   -8.7350    0.0173   -2.5459 C   0  0  0  0  0  0  0  0  0  0  0  0
   -7.4425    0.2139   -2.1710 C   0  0  0  0  0  0  0  0  0  0  0  0
   -5.4250   -0.6711    1.6654 N   0  0  0  0  0  0  0  0  0  0  0  0
   -4.6903   -0.8835    2.7638 C   0  0  0  0  0  0  0  0  0  0  0  0
   -3.3540   -0.5831    2.9056 C   0  0  0  0  0  0  0  0  0  0  0  0
    8.0014    0.1176   -1.3828 O   0  0  0  0  0  0  0  0  0  0  0  0
    9.0575   -0.7587   -1.2608 C   0  0  0  0  0  0  0  0  0  0  0  0
    6.9695   -1.3694   -0.5052 H   0  0  0  0  0  0  0  0  0  0  0  0
    5.6400   -0.1131    0.9523 H   0  0  0  0  0  0  0  0  0  0  0  0
    7.1187    0.9259    0.8060 H   0  0  0  0  0  0  0  0  0  0  0  0
    5.1495    2.2297    0.6072 H   0  0  0  0  0  0  0  0  0  0  0  0
    5.9773    2.2115   -1.0264 H   0  0  0  0  0  0  0  0  0  0  0  0
    3.8598    1.8505   -1.6882 H   0  0  0  0  0  0  0  0  0  0  0  0
    3.7288   -0.3324   -2.4244 H   0  0  0  0  0  0  0  0  0  0  0  0
    4.1451   -1.0667   -0.8316 H   0  0  0  0  0  0  0  0  0  0  0  0
    6.0419    0.2944   -2.8332 H   0  0  0  0  0  0  0  0  0  0  0  0
    5.8635   -1.4397   -2.4657 H   0  0  0  0  0  0  0  0  0  0  0  0
    1.4810    0.4024   -1.0232 H   0  0  0  0  0  0  0  0  0  0  0  0
   -0.8733    0.0148   -0.1693 H   0  0  0  0  0  0  0  0  0  0  0  0
   -1.5211    0.7745    3.9375 H   0  0  0  0  0  0  0  0  0  0  0  0
    0.7664    1.4273    4.2949 H   0  0  0  0  0  0  0  0  0  0  0  0
   -3.0226    0.6407   -0.1645 H   0  0  0  0  0  0  0  0  0  0  0  0
   -5.0057    0.5743   -1.4152 H   0  0  0  0  0  0  0  0  0  0  0  0
   -7.5945   -0.9282    0.8985 H   0  0  0  0  0  0  0  0  0  0  0  0
   -9.8906   -1.3049    0.3054 H   0  0  0  0  0  0  0  0  0  0  0  0
   -9.1211    0.2684   -3.5192 H   0  0  0  0  0  0  0  0  0  0  0  0
   -6.8226    0.6510   -2.9441 H   0  0  0  0  0  0  0  0  0  0  0  0
   -5.1852   -1.3359    3.6334 H   0  0  0  0  0  0  0  0  0  0  0  0
   -2.8327   -0.7871    3.8299 H   0  0  0  0  0  0  0  0  0  0  0  0
    9.2890   -1.0502   -0.2353 H   0  0  0  0  0  0  0  0  0  0  0  0
    8.8287   -1.6887   -1.8516 H   0  0  0  0  0  0  0  0  0  0  0  0
    9.9483   -0.2419   -1.6824 H   0  0  0  0  0  0  0  0  0  0  0  0
  1  2  1  0
  2  3  1  0
  3  4  1  0
  4  5  1  0
  5  6  1  0
  4  7  1  0
  7  8  2  0
  7  9  1  0
  9 10  1  0
 10 11  2  0
 11 12  1  0
 12 13  2  0
 13 14  1  0
 14 15  2  0
 12 16  1  0
 16 17  2  0
 17 18  1  0
 18 19  1  0
 19 20  1  0
 20 21  2  0
 21 22  1  0
 22 23  2  0
 23 24  1  0
 23 25  1  0
 25 26  2  0
 18 27  2  0
 27 28  1  0
 28 29  2  0
  1 30  1  0
 30 31  1  0
  6  1  1  0
 15 10  1  0
 29 16  1  0
 26 20  1  0
  1 32  1  1
  2 33  1  0
  2 34  1  0
  3 35  1  0
  3 36  1  0
  4 37  1  6
  5 38  1  0
  5 39  1  0
  6 40  1  0
  6 41  1  0
  9 42  1  0
 11 43  1  0
 13 44  1  0
 14 45  1  0
 17 46  1  0
 19 47  1  0
 21 48  1  0
 22 49  1  0
 25 50  1  0
 26 51  1  0
 28 52  1  0
 29 53  1  0
 31 54  1  0
 31 55  1  0
 31 56  1  0
M  END
$$$$
