
     RDKit          3D

 19 18  0  0  0  0  0  0  0  0999 V2000
    2.9461   -0.4866   -0.2706 C   0  0  0  0  0  0  0  0  0  0  0  0
    1.5248   -0.2132   -0.6744 C   0  0  0  0  0  0  0  0  0  0  0  0
    1.2181   -0.2239   -1.9055 O   0  0  0  0  0  0  0  0  0  0  0  0
    0.5386    0.0535    0.3111 N   0  0  0  0  0  0  0  0  0  0  0  0
   -0.8097    0.3104   -0.1128 C   0  0  1  0  0  0  0  0  0  0  0  0
   -1.7258   -0.7691    0.4370 C   0  0  0  0  0  0  0  0  0  0  0  0
   -1.2730   -2.4044   -0.1264 S   0  0  0  0  0  0  0  0  0  0  0  0
   -1.2980    1.6394    0.3000 C   0  0  0  0  0  0  0  0  0  0  0  0
   -0.5803    2.5756    1.0176 O   0  0  0  0  0  0  0  0  0  0  0  0
   -2.4715    1.9629   -0.0233 O   0  0  0  0  0  0  0  0  0  0  0  0
    2.9589   -0.8033    0.7742 H   0  0  0  0  0  0  0  0  0  0  0  0
    3.4578    0.5114   -0.3887 H   0  0  0  0  0  0  0  0  0  0  0  0
    3.4289   -1.2480   -0.8988 H   0  0  0  0  0  0  0  0  0  0  0  0
    0.7520    0.0708    1.3297 H   0  0  0  0  0  0  0  0  0  0  0  0
   -0.8287    0.2474   -1.2111 H   0  0  0  0  0  0  0  0  0  0  0  0
   -1.7118   -0.7031    1.5491 H   0  0  0  0  0  0  0  0  0  0  0  0
   -2.7606   -0.5454    0.0984 H   0  0  0  0  0  0  0  0  0  0  0  0
   -2.3655   -3.1437   -0.6122 H   0  0  0  0  0  0  0  0  0  0  0  0
   -1.0005    3.1694    1.7364 H   0  0  0  0  0  0  0  0  0  0  0  0
  1  2  1  0
  2  3  2  0
  2  4  1  0
  4  5  1  0
  5  6  1  0
  6  7  1  0
  5  8  1  0
  8  9  1  0
  8 10  2  0
  1 11  1  0
  1 12  1  0
  1 13  1  0
  4 14  1  0
  5 15  1  6
  6 16  1  0
  6 17  1  0
  7 18  1  0
  9 19  1  0
M  END
$$$$
