
     RDKit          3D

 22 21  0  0  0  0  0  0  0  0999 V2000
   -2.5465    0.4510   -1.1665 N   0  0  0  0  0  0  0  0  0  0  0  0
   -2.1364   -0.7721   -0.5053 C   0  0  0  0  0  0  0  0  0  0  0  0
   -1.6921   -0.4805    0.9039 C   0  0  0  0  0  0  0  0  0  0  0  0
   -0.5247    0.4798    0.9460 C   0  0  0  0  0  0  0  0  0  0  0  0
    0.6236   -0.1301    0.2007 C   0  0  0  0  0  0  0  0  0  0  0  0
    1.8512    0.7514    0.1825 C   0  0  0  0  0  0  0  0  0  0  0  0
    2.9012    0.0243   -0.5850 C   0  0  0  0  0  0  0  0  0  0  0  0
    4.1737    0.5251   -0.8136 O   0  0  0  0  0  0  0  0  0  0  0  0
    2.8345   -1.1238   -1.1425 O   0  0  0  0  0  0  0  0  0  0  0  0
   -3.2095    0.2091   -1.9310 H   0  0  0  0  0  0  0  0  0  0  0  0
   -2.9795    1.1072   -0.5000 H   0  0  0  0  0  0  0  0  0  0  0  0
   -1.3758   -1.3352   -1.0455 H   0  0  0  0  0  0  0  0  0  0  0  0
   -3.0410   -1.4409   -0.4129 H   0  0  0  0  0  0  0  0  0  0  0  0
   -1.4068   -1.4800    1.3408 H   0  0  0  0  0  0  0  0  0  0  0  0
   -2.5240   -0.1127    1.5331 H   0  0  0  0  0  0  0  0  0  0  0  0
   -0.2953    0.8002    1.9542 H   0  0  0  0  0  0  0  0  0  0  0  0
   -0.8423    1.3839    0.3721 H   0  0  0  0  0  0  0  0  0  0  0  0
    0.9261   -1.0971    0.6518 H   0  0  0  0  0  0  0  0  0  0  0  0
    0.3682   -0.3046   -0.8640 H   0  0  0  0  0  0  0  0  0  0  0  0
    1.6648    1.7363   -0.2656 H   0  0  0  0  0  0  0  0  0  0  0  0
    2.2143    0.8553    1.2140 H   0  0  0  0  0  0  0  0  0  0  0  0
    5.0164   -0.0466   -0.6714 H   0  0  0  0  0  0  0  0  0  0  0  0
  1  2  1  0
  2  3  1  0
  3  4  1  0
  4  5  1  0
  5  6  1  0
  6  7  1  0
  7  8  1  0
  7  9  2  0
  1 10  1  0
  1 11  1  0
  2 12  1  0
  2 13  1  0
  3 14  1  0
  3 15  1  0
  4 16  1  0
  4 17  1  0
  5 18  1  0
  5 19  1  0
  6 20  1  0
  6 21  1  0
  8 22  1  0
M  END
$$$$
