
     RDKit          3D

 46 50  0  0  0  0  0  0  0  0999 V2000
    5.3055    0.7340   -0.2115 N   0  0  0  0  0  0  0  0  0  0  0  0
    3.8964    0.5391   -0.1986 C   0  0  0  0  0  0  0  0  0  0  0  0
    3.3053    0.5889   -1.2840 O   0  0  0  0  0  0  0  0  0  0  0  0
    3.1903    0.2910    1.0560 C   0  0  0  0  0  0  0  0  0  0  0  0
    3.8057    0.2247    2.3084 C   0  0  0  0  0  0  0  0  0  0  0  0
    2.8279   -0.0148    3.1789 N   0  0  0  0  0  0  0  0  0  0  0  0
    1.6642   -0.0952    2.5180 C   0  0  0  0  0  0  0  0  0  0  0  0
    0.3785   -0.3264    2.9660 C   0  0  0  0  0  0  0  0  0  0  0  0
   -0.6987   -0.3668    2.0701 C   0  0  0  0  0  0  0  0  0  0  0  0
   -0.4583   -0.1722    0.7315 C   0  0  0  0  0  0  0  0  0  0  0  0
   -1.5322   -0.2044   -0.2223 C   0  0  0  0  0  0  0  0  0  0  0  0
   -1.8729    0.8863   -1.0273 C   0  0  0  0  0  0  0  0  0  0  0  0
   -1.2102    2.1878   -1.0234 C   0  0  0  0  0  0  0  0  0  0  0  0
   -1.2034    3.0004    0.0927 C   0  0  0  0  0  0  0  0  0  0  0  0
   -0.5870    4.2332    0.1303 C   0  0  0  0  0  0  0  0  0  0  0  0
    0.0519    4.6654   -1.0119 C   0  0  0  0  0  0  0  0  0  0  0  0
    0.6754    5.8764   -1.0253 F   0  0  0  0  0  0  0  0  0  0  0  0
    0.0727    3.8903   -2.1508 C   0  0  0  0  0  0  0  0  0  0  0  0
   -0.5570    2.6488   -2.1641 C   0  0  0  0  0  0  0  0  0  0  0  0
   -2.9112    0.4567   -1.7680 N   0  0  0  0  0  0  0  0  0  0  0  0
   -3.1953   -0.8332   -1.4359 C   0  0  0  0  0  0  0  0  0  0  0  0
   -2.3361   -1.2259   -0.4814 N   0  0  0  0  0  0  0  0  0  0  0  0
   -2.3326   -2.5239    0.1148 C   0  0  0  0  0  0  0  0  0  0  0  0
   -1.0203   -3.2157    0.2642 C   0  0  0  0  0  0  0  0  0  0  0  0
   -1.6996   -4.5010   -0.1694 C   0  0  0  0  0  0  0  0  0  0  0  0
   -2.1763   -5.2592    0.8907 F   0  0  0  0  0  0  0  0  0  0  0  0
   -1.0281   -5.2204   -1.1154 F   0  0  0  0  0  0  0  0  0  0  0  0
   -2.7752   -3.6219   -0.8170 C   0  0  0  0  0  0  0  0  0  0  0  0
    0.8345    0.0550    0.3242 C   0  0  0  0  0  0  0  0  0  0  0  0
    1.8679    0.0919    1.1982 N   0  0  0  0  0  0  0  0  0  0  0  0
    5.9910   -0.0728   -0.1687 H   0  0  0  0  0  0  0  0  0  0  0  0
    5.7237    1.6813   -0.2637 H   0  0  0  0  0  0  0  0  0  0  0  0
    4.8785    0.3479    2.5101 H   0  0  0  0  0  0  0  0  0  0  0  0
    0.2335   -0.4745    4.0278 H   0  0  0  0  0  0  0  0  0  0  0  0
   -1.6825   -0.5517    2.4808 H   0  0  0  0  0  0  0  0  0  0  0  0
   -1.7037    2.6636    0.9894 H   0  0  0  0  0  0  0  0  0  0  0  0
   -0.5731    4.8801    0.9964 H   0  0  0  0  0  0  0  0  0  0  0  0
    0.5593    4.1853   -3.0684 H   0  0  0  0  0  0  0  0  0  0  0  0
   -0.5534    2.0225   -3.0486 H   0  0  0  0  0  0  0  0  0  0  0  0
   -3.9952   -1.3937   -1.9017 H   0  0  0  0  0  0  0  0  0  0  0  0
   -2.9200   -2.6047    1.0653 H   0  0  0  0  0  0  0  0  0  0  0  0
   -0.2212   -2.9472   -0.4468 H   0  0  0  0  0  0  0  0  0  0  0  0
   -0.6737   -3.2256    1.3253 H   0  0  0  0  0  0  0  0  0  0  0  0
   -2.6451   -3.4437   -1.8845 H   0  0  0  0  0  0  0  0  0  0  0  0
   -3.7728   -4.0695   -0.5579 H   0  0  0  0  0  0  0  0  0  0  0  0
    1.0729    0.2137   -0.7176 H   0  0  0  0  0  0  0  0  0  0  0  0
  1  2  1  0
  2  3  2  0
  2  4  1  0
  4  5  2  0
  5  6  1  0
  6  7  2  0
  7  8  1  0
  8  9  2  0
  9 10  1  0
 10 11  1  0
 11 12  2  0
 12 13  1  0
 13 14  2  0
 14 15  1  0
 15 16  2  0
 16 17  1  0
 16 18  1  0
 18 19  2  0
 12 20  1  0
 20 21  2  0
 21 22  1  0
 22 23  1  0
 23 24  1  0
 24 25  1  0
 25 26  1  0
 25 27  1  0
 25 28  1  0
 10 29  2  0
 29 30  1  0
 30  4  1  0
 30  7  1  0
 22 11  1  0
 28 23  1  0
 19 13  1  0
  1 31  1  0
  1 32  1  0
  5 33  1  0
  8 34  1  0
  9 35  1  0
 14 36  1  0
 15 37  1  0
 18 38  1  0
 19 39  1  0
 21 40  1  0
 23 41  1  0
 24 42  1  0
 24 43  1  0
 28 44  1  0
 28 45  1  0
 29 46  1  0
M  END
$$$$
