
     RDKit          3D

 24 25  0  0  0  0  0  0  0  0999 V2000
   -1.0470    0.2438    1.8787 O   0  0  0  0  0  0  0  0  0  0  0  0
   -1.7346    0.2347    0.6633 C   0  0  0  0  0  0  0  0  0  0  0  0
   -2.9022    0.9597    0.5556 C   0  0  0  0  0  0  0  0  0  0  0  0
   -3.6231    0.9858   -0.6197 C   0  0  0  0  0  0  0  0  0  0  0  0
   -5.1095    1.9079   -0.7589 Cl  0  0  0  0  0  0  0  0  0  0  0  0
   -3.1123    0.2517   -1.6697 C   0  0  0  0  0  0  0  0  0  0  0  0
   -1.9467   -0.4726   -1.5644 C   0  0  0  0  0  0  0  0  0  0  0  0
   -1.2171   -0.5012   -0.3811 C   0  0  0  0  0  0  0  0  0  0  0  0
   -0.0440   -1.2319   -0.2771 O   0  0  0  0  0  0  0  0  0  0  0  0
    1.2006   -0.7413   -0.0092 C   0  0  0  0  0  0  0  0  0  0  0  0
    1.4798    0.6027    0.1816 C   0  0  0  0  0  0  0  0  0  0  0  0
    2.7603    1.0629    0.4536 C   0  0  0  0  0  0  0  0  0  0  0  0
    3.7901    0.1702    0.5386 C   0  0  0  0  0  0  0  0  0  0  0  0
    5.4074    0.7278    0.8797 Cl  0  0  0  0  0  0  0  0  0  0  0  0
    3.5377   -1.1863    0.3510 C   0  0  0  0  0  0  0  0  0  0  0  0
    2.2617   -1.6280    0.0818 C   0  0  0  0  0  0  0  0  0  0  0  0
    2.0208   -3.3466   -0.1422 Cl  0  0  0  0  0  0  0  0  0  0  0  0
   -1.2920   -0.3983    2.6249 H   0  0  0  0  0  0  0  0  0  0  0  0
   -3.2715    1.5273    1.4119 H   0  0  0  0  0  0  0  0  0  0  0  0
   -3.6897    0.2795   -2.5926 H   0  0  0  0  0  0  0  0  0  0  0  0
   -1.5652   -1.0406   -2.4005 H   0  0  0  0  0  0  0  0  0  0  0  0
    0.7159    1.3350    0.1207 H   0  0  0  0  0  0  0  0  0  0  0  0
    2.9898    2.1110    0.6046 H   0  0  0  0  0  0  0  0  0  0  0  0
    4.3908   -1.8533    0.4290 H   0  0  0  0  0  0  0  0  0  0  0  0
  1  2  1  0
  2  3  2  0
  3  4  1  0
  4  5  1  0
  4  6  2  0
  6  7  1  0
  7  8  2  0
  8  9  1  0
  9 10  1  0
 10 11  2  0
 11 12  1  0
 12 13  2  0
 13 14  1  0
 13 15  1  0
 15 16  2  0
 16 17  1  0
  8  2  1  0
 16 10  1  0
  1 18  1  0
  3 19  1  0
  6 20  1  0
  7 21  1  0
 11 22  1  0
 12 23  1  0
 15 24  1  0
M  END
$$$$
