
     RDKit          3D

 35 36  0  0  0  0  0  0  0  0999 V2000
   -5.6104   -2.1733    0.4570 C   0  0  0  0  0  0  0  0  0  0  0  0
   -4.3512   -1.3985    0.2592 C   0  0  0  0  0  0  0  0  0  0  0  0
   -4.4687   -0.1331   -0.3126 C   0  0  0  0  0  0  0  0  0  0  0  0
   -3.3114    0.5990   -0.5032 C   0  0  0  0  0  0  0  0  0  0  0  0
   -2.0580    0.1494   -0.1613 C   0  0  0  0  0  0  0  0  0  0  0  0
   -0.9343    1.0588   -0.4340 C   0  0  0  0  0  0  0  0  0  0  0  0
   -0.6504    1.9478    0.6978 N   0  0  0  0  0  0  0  0  0  0  0  0
    0.6887    2.9282    0.1847 S   0  0  0  0  0  0  0  0  0  0  0  0
    0.3356    3.7898   -0.9840 O   0  0  0  0  0  0  0  0  0  0  0  0
    1.0550    3.8542    1.3099 O   0  0  0  0  0  0  0  0  0  0  0  0
    2.0297    1.8886   -0.1277 C   0  0  0  0  0  0  0  0  0  0  0  0
    2.8558    1.5516   -1.1893 C   0  0  0  0  0  0  0  0  0  0  0  0
    3.8250    0.6376   -0.9495 C   0  0  0  0  0  0  0  0  0  0  0  0
    3.9568    0.0887    0.2986 C   0  0  0  0  0  0  0  0  0  0  0  0
    2.6634    0.8696    1.2352 S   0  0  0  0  0  0  0  0  0  0  0  0
    5.0975   -1.0805    0.8483 S   0  0  0  0  0  0  0  0  0  0  0  0
    6.1215   -1.5030   -0.4539 N   0  0  0  0  0  0  0  0  0  0  0  0
    5.9639   -0.3924    1.8911 O   0  0  0  0  0  0  0  0  0  0  0  0
    4.4572   -2.2733    1.4849 O   0  0  0  0  0  0  0  0  0  0  0  0
   -1.9674   -1.0913    0.3966 C   0  0  0  0  0  0  0  0  0  0  0  0
   -3.1116   -1.8618    0.6056 C   0  0  0  0  0  0  0  0  0  0  0  0
   -6.0742   -2.2734   -0.5621 H   0  0  0  0  0  0  0  0  0  0  0  0
   -6.3059   -1.6132    1.0981 H   0  0  0  0  0  0  0  0  0  0  0  0
   -5.3778   -3.1381    0.9057 H   0  0  0  0  0  0  0  0  0  0  0  0
   -5.4309    0.2441   -0.5892 H   0  0  0  0  0  0  0  0  0  0  0  0
   -3.4593    1.5723   -0.9496 H   0  0  0  0  0  0  0  0  0  0  0  0
    0.0195    0.5001   -0.6498 H   0  0  0  0  0  0  0  0  0  0  0  0
   -1.1032    1.6998   -1.3230 H   0  0  0  0  0  0  0  0  0  0  0  0
   -0.2757    1.3169    1.4476 H   0  0  0  0  0  0  0  0  0  0  0  0
    2.6346    2.0635   -2.1123 H   0  0  0  0  0  0  0  0  0  0  0  0
    4.5087    0.3335   -1.7558 H   0  0  0  0  0  0  0  0  0  0  0  0
    6.6427   -2.3962   -0.3248 H   0  0  0  0  0  0  0  0  0  0  0  0
    5.6670   -1.4588   -1.3839 H   0  0  0  0  0  0  0  0  0  0  0  0
   -0.9869   -1.4521    0.6681 H   0  0  0  0  0  0  0  0  0  0  0  0
   -3.0452   -2.8545    1.0513 H   0  0  0  0  0  0  0  0  0  0  0  0
  1  2  1  0
  2  3  2  0
  3  4  1  0
  4  5  2  0
  5  6  1  0
  6  7  1  0
  7  8  1  0
  8  9  2  0
  8 10  2  0
  8 11  1  0
 11 12  2  0
 12 13  1  0
 13 14  2  0
 14 15  1  0
 14 16  1  0
 16 17  1  0
 16 18  2  0
 16 19  2  0
  5 20  1  0
 20 21  2  0
 21  2  1  0
 15 11  1  0
  1 22  1  0
  1 23  1  0
  1 24  1  0
  3 25  1  0
  4 26  1  0
  6 27  1  0
  6 28  1  0
  7 29  1  0
 12 30  1  0
 13 31  1  0
 17 32  1  0
 17 33  1  0
 20 34  1  0
 21 35  1  0
M  END
$$$$
