
     RDKit          3D

 82 83  0  0  0  0  0  0  0  0999 V2000
   -2.5668   -0.4917   -0.3136 C   0  0  2  0  0  0  0  0  0  0  0  0
   -2.1443    0.8381    0.1365 C   0  0  0  0  0  0  0  0  0  0  0  0
   -2.1479    1.2643    1.5216 C   0  0  0  0  0  0  0  0  0  0  0  0
   -1.3319    0.5867    2.5441 C   0  0  0  0  0  0  0  0  0  0  0  0
   -1.7692    2.7606    1.5447 C   0  0  0  0  0  0  0  0  0  0  0  0
   -3.8690   -0.9372   -0.0723 N   0  0  0  0  0  0  0  0  0  0  0  0
   -4.4726   -1.6886    0.6934 C   0  0  0  0  0  0  0  0  0  0  0  0
   -3.7981   -2.3862    1.6857 O   0  0  0  0  0  0  0  0  0  0  0  0
   -5.8572   -1.7398    0.4376 O   0  0  0  0  0  0  0  0  0  0  0  0
   -6.4308   -1.2252   -0.7483 C   0  0  0  0  0  0  0  0  0  0  0  0
   -7.8791   -1.5969   -0.8419 C   0  0  0  0  0  0  0  0  0  0  0  0
   -8.9668   -0.8930   -0.3702 C   0  0  0  0  0  0  0  0  0  0  0  0
  -10.2153   -1.4367   -0.5735 C   0  0  0  0  0  0  0  0  0  0  0  0
  -10.3992   -2.6384   -1.2213 C   0  0  0  0  0  0  0  0  0  0  0  0
   -9.3214   -3.3601   -1.7022 C   0  0  0  0  0  0  0  0  0  0  0  0
   -8.0750   -2.8117   -1.4962 C   0  0  0  0  0  0  0  0  0  0  0  0
   -1.5883   -1.5808   -0.0109 C   0  0  0  0  0  0  0  0  0  0  0  0
   -1.0430   -2.0197    1.1875 O   0  0  0  0  0  0  0  0  0  0  0  0
   -1.0972   -2.3018   -0.9243 N   0  0  0  0  0  0  0  0  0  0  0  0
   -0.2057   -3.3363   -0.8934 N   0  0  0  0  0  0  0  0  0  0  0  0
    0.6050   -3.5122   -2.0781 C   0  0  0  0  0  0  0  0  0  0  0  0
    0.8124   -4.7760   -2.6683 O   0  0  0  0  0  0  0  0  0  0  0  0
    1.1878   -2.5265   -2.6674 N   0  0  0  0  0  0  0  0  0  0  0  0
    1.0736   -1.2269   -2.1971 N   0  0  0  0  0  0  0  0  0  0  0  0
    2.1608   -0.4910   -2.1315 C   0  0  0  0  0  0  0  0  0  0  0  0
    2.4371   -1.7545   -2.6182 O   0  0  0  0  0  0  0  0  0  0  0  0
    2.4707    0.8977   -1.7042 C   0  0  2  0  0  0  0  0  0  0  0  0
    3.0199    1.6313   -2.9018 C   0  0  0  0  0  0  0  0  0  0  0  0
    3.3854    3.0647   -2.6251 C   0  0  0  0  0  0  0  0  0  0  0  0
    4.4384    3.1947   -1.5580 C   0  0  0  0  0  0  0  0  0  0  0  0
    2.2215    3.9460   -2.3196 C   0  0  0  0  0  0  0  0  0  0  0  0
    3.5306    0.8955   -0.6894 N   0  0  0  0  0  0  0  0  0  0  0  0
    3.3530    0.2580    0.4150 C   0  0  0  0  0  0  0  0  0  0  0  0
    2.1335   -0.4121    0.5936 O   0  0  0  0  0  0  0  0  0  0  0  0
    4.3225    0.2210    1.4070 O   0  0  0  0  0  0  0  0  0  0  0  0
    5.4478    1.0405    1.2820 C   0  0  0  0  0  0  0  0  0  0  0  0
    6.4248    0.8306    2.3961 C   0  0  0  0  0  0  0  0  0  0  0  0
    7.3682   -0.1491    2.1273 C   0  0  0  0  0  0  0  0  0  0  0  0
    8.3122   -0.4074    3.1088 C   0  0  0  0  0  0  0  0  0  0  0  0
    8.3641    0.2487    4.3228 C   0  0  0  0  0  0  0  0  0  0  0  0
    7.3899    1.2257    4.5402 C   0  0  0  0  0  0  0  0  0  0  0  0
    6.4245    1.5206    3.5904 C   0  0  0  0  0  0  0  0  0  0  0  0
   -2.5101   -0.4636   -1.4827 H   0  0  0  0  0  0  0  0  0  0  0  0
   -2.7545    1.6063   -0.4433 H   0  0  0  0  0  0  0  0  0  0  0  0
   -1.1124    1.0153   -0.3130 H   0  0  0  0  0  0  0  0  0  0  0  0
   -3.2122    1.2833    1.9280 H   0  0  0  0  0  0  0  0  0  0  0  0
   -0.2826    0.3707    2.2360 H   0  0  0  0  0  0  0  0  0  0  0  0
   -1.8239   -0.2396    3.0920 H   0  0  0  0  0  0  0  0  0  0  0  0
   -1.1718    1.3489    3.3798 H   0  0  0  0  0  0  0  0  0  0  0  0
   -2.1625    3.2774    0.6687 H   0  0  0  0  0  0  0  0  0  0  0  0
   -2.1382    3.1711    2.5210 H   0  0  0  0  0  0  0  0  0  0  0  0
   -0.6641    2.7707    1.6389 H   0  0  0  0  0  0  0  0  0  0  0  0
   -3.4023   -1.8783    2.4957 H   0  0  0  0  0  0  0  0  0  0  0  0
   -6.4373   -0.0993   -0.6996 H   0  0  0  0  0  0  0  0  0  0  0  0
   -5.8689   -1.5322   -1.6291 H   0  0  0  0  0  0  0  0  0  0  0  0
   -8.7167    0.0286    0.1205 H   0  0  0  0  0  0  0  0  0  0  0  0
  -11.0542   -0.8533   -0.1889 H   0  0  0  0  0  0  0  0  0  0  0  0
  -11.3905   -3.0533   -1.3724 H   0  0  0  0  0  0  0  0  0  0  0  0
   -9.4726   -4.3106   -2.2131 H   0  0  0  0  0  0  0  0  0  0  0  0
   -7.2596   -3.4255   -1.8969 H   0  0  0  0  0  0  0  0  0  0  0  0
   -0.0678   -1.9552    1.3633 H   0  0  0  0  0  0  0  0  0  0  0  0
    0.0083   -4.0595   -0.1431 H   0  0  0  0  0  0  0  0  0  0  0  0
    1.6738   -4.9035   -3.1999 H   0  0  0  0  0  0  0  0  0  0  0  0
    3.3636   -2.0429   -2.9695 H   0  0  0  0  0  0  0  0  0  0  0  0
    1.5453    1.3382   -1.3420 H   0  0  0  0  0  0  0  0  0  0  0  0
    3.9682    1.1066   -3.1835 H   0  0  0  0  0  0  0  0  0  0  0  0
    2.3579    1.5462   -3.7771 H   0  0  0  0  0  0  0  0  0  0  0  0
    3.8725    3.4505   -3.5680 H   0  0  0  0  0  0  0  0  0  0  0  0
    3.9937    3.2264   -0.5235 H   0  0  0  0  0  0  0  0  0  0  0  0
    5.1610    2.3792   -1.5643 H   0  0  0  0  0  0  0  0  0  0  0  0
    5.0101    4.1465   -1.6607 H   0  0  0  0  0  0  0  0  0  0  0  0
    1.2940    3.7009   -2.8736 H   0  0  0  0  0  0  0  0  0  0  0  0
    2.4897    4.9922   -2.6492 H   0  0  0  0  0  0  0  0  0  0  0  0
    2.0335    4.0614   -1.2235 H   0  0  0  0  0  0  0  0  0  0  0  0
    1.2650    0.0175    0.2968 H   0  0  0  0  0  0  0  0  0  0  0  0
    5.1094    2.1047    1.4036 H   0  0  0  0  0  0  0  0  0  0  0  0
    5.9754    0.9829    0.3245 H   0  0  0  0  0  0  0  0  0  0  0  0
    7.4188   -0.7282    1.1995 H   0  0  0  0  0  0  0  0  0  0  0  0
    9.0877   -1.1680    2.9651 H   0  0  0  0  0  0  0  0  0  0  0  0
    9.1245    0.0077    5.0552 H   0  0  0  0  0  0  0  0  0  0  0  0
    7.3839    1.7815    5.4926 H   0  0  0  0  0  0  0  0  0  0  0  0
    5.6605    2.2734    3.7345 H   0  0  0  0  0  0  0  0  0  0  0  0
  1  2  1  0
  2  3  1  0
  3  4  1  0
  3  5  1  0
  1  6  1  0
  6  7  2  3
  7  8  1  0
  7  9  1  0
  9 10  1  0
 10 11  1  0
 11 12  2  0
 12 13  1  0
 13 14  2  0
 14 15  1  0
 15 16  2  0
  1 17  1  0
 17 18  1  0
 17 19  2  3
 19 20  1  0
 20 21  1  0
 21 22  1  0
 21 23  2  3
 23 24  1  0
 24 25  2  3
 25 26  1  0
 25 27  1  0
 27 28  1  0
 28 29  1  0
 29 30  1  0
 29 31  1  0
 27 32  1  0
 32 33  2  3
 33 34  1  0
 33 35  1  0
 35 36  1  0
 36 37  1  0
 37 38  2  0
 38 39  1  0
 39 40  2  0
 40 41  1  0
 41 42  2  0
 16 11  1  0
 42 37  1  0
  1 43  1  6
  2 44  1  0
  2 45  1  0
  3 46  1  0
  4 47  1  0
  4 48  1  0
  4 49  1  0
  5 50  1  0
  5 51  1  0
  5 52  1  0
  8 53  1  0
 10 54  1  0
 10 55  1  0
 12 56  1  0
 13 57  1  0
 14 58  1  0
 15 59  1  0
 16 60  1  0
 18 61  1  0
 20 62  1  0
 22 63  1  0
 26 64  1  0
 27 65  1  1
 28 66  1  0
 28 67  1  0
 29 68  1  0
 30 69  1  0
 30 70  1  0
 30 71  1  0
 31 72  1  0
 31 73  1  0
 31 74  1  0
 34 75  1  0
 36 76  1  0
 36 77  1  0
 38 78  1  0
 39 79  1  0
 40 80  1  0
 41 81  1  0
 42 82  1  0
M  END
$$$$
