
     RDKit          3D

 57 60  0  0  0  0  0  0  0  0999 V2000
    0.4792    0.3019   -1.0276 C   0  0  2  0  0  0  0  0  0  0  0  0
    1.3563    0.0631   -2.1975 C   0  0  0  0  0  0  0  0  0  0  0  0
    2.7146    0.5174   -1.6939 C   0  0  0  0  0  0  0  0  0  0  0  0
    2.6106    0.5594   -0.1640 C   0  0  2  0  0  0  0  0  0  0  0  0
    3.7571   -0.0541    0.3845 O   0  0  0  0  0  0  0  0  0  0  0  0
    4.5363    0.7208    1.2410 C   0  0  0  0  0  0  0  0  0  0  0  0
    4.2379    1.9108    1.5150 O   0  0  0  0  0  0  0  0  0  0  0  0
    5.7534    0.0584    1.8196 C   0  0  0  0  0  0  0  0  0  0  0  0
    6.9589    0.5495    1.0200 C   0  0  0  0  0  0  0  0  0  0  0  0
    1.3536   -0.1857    0.1163 C   0  0  2  0  0  0  0  0  0  0  0  0
    1.5833   -1.6709    0.0588 C   0  0  0  0  0  0  0  0  0  0  0  0
    0.6837    0.1761    1.4016 C   0  0  0  0  0  0  0  0  0  0  0  0
   -0.7152   -0.3827    1.4448 C   0  0  0  0  0  0  0  0  0  0  0  0
   -1.4969    0.1042    0.2643 C   0  0  1  0  0  0  0  0  0  0  0  0
   -0.8079   -0.4290   -0.9902 C   0  0  1  0  0  0  0  0  0  0  0  0
   -1.6716   -0.3075   -2.1981 C   0  0  0  0  0  0  0  0  0  0  0  0
   -2.7428    0.7344   -2.1090 C   0  0  0  0  0  0  0  0  0  0  0  0
   -3.5583    0.4920   -0.8907 C   0  0  0  0  0  0  0  0  0  0  0  0
   -4.8226    0.9114   -0.8942 C   0  0  0  0  0  0  0  0  0  0  0  0
   -5.6276    0.6666    0.3212 C   0  0  0  0  0  0  0  0  0  0  0  0
   -6.8784    0.8033    0.2871 O   0  0  0  0  0  0  0  0  0  0  0  0
   -5.0290    0.2574    1.6146 C   0  0  0  0  0  0  0  0  0  0  0  0
   -3.5184    0.3279    1.5842 C   0  0  0  0  0  0  0  0  0  0  0  0
   -2.9497   -0.2076    0.2972 C   0  0  2  0  0  0  0  0  0  0  0  0
   -3.2254   -1.6906    0.2403 C   0  0  0  0  0  0  0  0  0  0  0  0
    0.3511    1.3924   -0.9035 H   0  0  0  0  0  0  0  0  0  0  0  0
    1.3741   -0.9593   -2.5959 H   0  0  0  0  0  0  0  0  0  0  0  0
    1.1250    0.7351   -3.0710 H   0  0  0  0  0  0  0  0  0  0  0  0
    2.9427    1.5594   -2.0232 H   0  0  0  0  0  0  0  0  0  0  0  0
    3.5324   -0.1192   -2.0475 H   0  0  0  0  0  0  0  0  0  0  0  0
    2.5097    1.6044    0.1890 H   0  0  0  0  0  0  0  0  0  0  0  0
    5.8154    0.3836    2.8877 H   0  0  0  0  0  0  0  0  0  0  0  0
    5.6549   -1.0317    1.7891 H   0  0  0  0  0  0  0  0  0  0  0  0
    6.6739    0.9313    0.0251 H   0  0  0  0  0  0  0  0  0  0  0  0
    7.5181    1.3431    1.5581 H   0  0  0  0  0  0  0  0  0  0  0  0
    7.6560   -0.3330    0.9458 H   0  0  0  0  0  0  0  0  0  0  0  0
    1.0368   -2.2412    0.8467 H   0  0  0  0  0  0  0  0  0  0  0  0
    2.6789   -1.8303    0.2833 H   0  0  0  0  0  0  0  0  0  0  0  0
    1.3845   -2.1219   -0.9143 H   0  0  0  0  0  0  0  0  0  0  0  0
    1.2543   -0.3016    2.2241 H   0  0  0  0  0  0  0  0  0  0  0  0
    0.6698    1.2540    1.6139 H   0  0  0  0  0  0  0  0  0  0  0  0
   -0.7386   -1.4775    1.5510 H   0  0  0  0  0  0  0  0  0  0  0  0
   -1.1810    0.0365    2.3675 H   0  0  0  0  0  0  0  0  0  0  0  0
   -1.3914    1.2085    0.2119 H   0  0  0  0  0  0  0  0  0  0  0  0
   -0.5807   -1.5099   -0.7574 H   0  0  0  0  0  0  0  0  0  0  0  0
   -1.0826   -0.1977   -3.1383 H   0  0  0  0  0  0  0  0  0  0  0  0
   -2.2036   -1.2959   -2.3191 H   0  0  0  0  0  0  0  0  0  0  0  0
   -3.3655    0.6383   -3.0292 H   0  0  0  0  0  0  0  0  0  0  0  0
   -2.2616    1.7525   -2.0696 H   0  0  0  0  0  0  0  0  0  0  0  0
   -5.2418    1.4149   -1.7609 H   0  0  0  0  0  0  0  0  0  0  0  0
   -5.3656    0.9412    2.4222 H   0  0  0  0  0  0  0  0  0  0  0  0
   -5.3675   -0.7634    1.9076 H   0  0  0  0  0  0  0  0  0  0  0  0
   -3.1965    1.3598    1.7249 H   0  0  0  0  0  0  0  0  0  0  0  0
   -3.1775   -0.3759    2.3881 H   0  0  0  0  0  0  0  0  0  0  0  0
   -2.3597   -2.2876   -0.1302 H   0  0  0  0  0  0  0  0  0  0  0  0
   -4.1267   -1.8666   -0.4126 H   0  0  0  0  0  0  0  0  0  0  0  0
   -3.5186   -2.0688    1.2382 H   0  0  0  0  0  0  0  0  0  0  0  0
  1  2  1  0
  2  3  1  0
  3  4  1  0
  4  5  1  0
  5  6  1  0
  6  7  2  0
  6  8  1  0
  8  9  1  0
  4 10  1  0
 10 11  1  6
 10 12  1  0
 12 13  1  0
 13 14  1  0
 14 15  1  0
 15 16  1  0
 16 17  1  0
 17 18  1  0
 18 19  2  0
 19 20  1  0
 20 21  2  0
 20 22  1  0
 22 23  1  0
 23 24  1  0
 24 25  1  6
 10  1  1  0
 24 14  1  0
 15  1  1  0
 24 18  1  0
  1 26  1  1
  2 27  1  0
  2 28  1  0
  3 29  1  0
  3 30  1  0
  4 31  1  1
  8 32  1  0
  8 33  1  0
  9 34  1  0
  9 35  1  0
  9 36  1  0
 11 37  1  0
 11 38  1  0
 11 39  1  0
 12 40  1  0
 12 41  1  0
 13 42  1  0
 13 43  1  0
 14 44  1  6
 15 45  1  1
 16 46  1  0
 16 47  1  0
 17 48  1  0
 17 49  1  0
 19 50  1  0
 22 51  1  0
 22 52  1  0
 23 53  1  0
 23 54  1  0
 25 55  1  0
 25 56  1  0
 25 57  1  0
M  END
$$$$
