
     RDKit          3D

 35 37  0  0  0  0  0  0  0  0999 V2000
   -2.6886   -3.0157    0.2288 C   0  0  0  0  0  0  0  0  0  0  0  0
   -2.5145   -1.7072   -0.1955 O   0  0  0  0  0  0  0  0  0  0  0  0
   -1.3485   -1.1649    0.3002 C   0  0  2  0  0  0  0  0  0  0  0  0
   -1.6575    0.1457    0.9902 C   0  0  2  0  0  0  0  0  0  0  0  0
   -2.6572    0.0855    1.9018 O   0  0  0  0  0  0  0  0  0  0  0  0
   -2.0410    0.9304   -0.2727 C   0  0  1  0  0  0  0  0  0  0  0  0
   -2.2590    2.3585    0.0796 C   0  0  0  0  0  0  0  0  0  0  0  0
   -2.4297    3.1219   -1.0637 O   0  0  0  0  0  0  0  0  0  0  0  0
   -0.9409    0.6896   -1.0569 O   0  0  0  0  0  0  0  0  0  0  0  0
   -0.5515   -0.6229   -0.8692 C   0  0  1  0  0  0  0  0  0  0  0  0
    0.8487   -0.7317   -0.4965 N   0  0  0  0  0  0  0  0  0  0  0  0
    1.4403   -1.8390   -0.0343 C   0  0  0  0  0  0  0  0  0  0  0  0
    2.7407   -1.6061    0.2159 N   0  0  0  0  0  0  0  0  0  0  0  0
    2.9463   -0.3017   -0.1086 C   0  0  0  0  0  0  0  0  0  0  0  0
    4.0851    0.4790   -0.0551 C   0  0  0  0  0  0  0  0  0  0  0  0
    5.2926   -0.1061    0.4074 N   0  0  0  0  0  0  0  0  0  0  0  0
    3.9829    1.7565   -0.4470 N   0  0  0  0  0  0  0  0  0  0  0  0
    2.8178    2.2788   -0.8811 C   0  0  0  0  0  0  0  0  0  0  0  0
    1.7056    1.5291   -0.9369 N   0  0  0  0  0  0  0  0  0  0  0  0
    1.7538    0.2353   -0.5536 C   0  0  0  0  0  0  0  0  0  0  0  0
   -2.7292   -3.0134    1.3284 H   0  0  0  0  0  0  0  0  0  0  0  0
   -3.6605   -3.3668   -0.2000 H   0  0  0  0  0  0  0  0  0  0  0  0
   -1.9142   -3.7007   -0.1446 H   0  0  0  0  0  0  0  0  0  0  0  0
   -0.7698   -1.8529    0.9347 H   0  0  0  0  0  0  0  0  0  0  0  0
   -0.7091    0.5750    1.3397 H   0  0  0  0  0  0  0  0  0  0  0  0
   -2.5679    0.8517    2.5256 H   0  0  0  0  0  0  0  0  0  0  0  0
   -2.9332    0.4357   -0.6896 H   0  0  0  0  0  0  0  0  0  0  0  0
   -3.1868    2.4357    0.6731 H   0  0  0  0  0  0  0  0  0  0  0  0
   -1.4149    2.7377    0.6706 H   0  0  0  0  0  0  0  0  0  0  0  0
   -3.2162    3.7093   -0.9942 H   0  0  0  0  0  0  0  0  0  0  0  0
   -0.7087   -1.1910   -1.7969 H   0  0  0  0  0  0  0  0  0  0  0  0
    0.9872   -2.8174    0.1363 H   0  0  0  0  0  0  0  0  0  0  0  0
    5.9123   -0.5627   -0.2883 H   0  0  0  0  0  0  0  0  0  0  0  0
    5.5570   -0.0822    1.4168 H   0  0  0  0  0  0  0  0  0  0  0  0
    2.8286    3.3272   -1.1795 H   0  0  0  0  0  0  0  0  0  0  0  0
  1  2  1  0
  2  3  1  0
  3  4  1  0
  4  5  1  0
  4  6  1  0
  6  7  1  0
  7  8  1  0
  6  9  1  0
  9 10  1  0
 10 11  1  0
 11 12  1  0
 12 13  2  0
 13 14  1  0
 14 15  2  0
 15 16  1  0
 15 17  1  0
 17 18  2  0
 18 19  1  0
 19 20  2  0
 10  3  1  0
 20 11  1  0
 20 14  1  0
  1 21  1  0
  1 22  1  0
  1 23  1  0
  3 24  1  1
  4 25  1  1
  5 26  1  0
  6 27  1  6
  7 28  1  0
  7 29  1  0
  8 30  1  0
 10 31  1  6
 12 32  1  0
 16 33  1  0
 16 34  1  0
 18 35  1  0
M  END
$$$$
