
     RDKit          3D

 49 53  0  0  0  0  0  0  0  0999 V2000
   -6.9831    1.7591   -0.7852 C   0  0  0  0  0  0  0  0  0  0  0  0
   -6.3202    0.4736   -0.4566 C   0  0  0  0  0  0  0  0  0  0  0  0
   -7.1132   -0.6128   -0.1760 C   0  0  0  0  0  0  0  0  0  0  0  0
   -6.5110   -1.8099    0.1300 C   0  0  0  0  0  0  0  0  0  0  0  0
   -5.1675   -1.9316    0.1583 N   0  0  0  0  0  0  0  0  0  0  0  0
   -4.4099   -0.8703   -0.1158 C   0  0  0  0  0  0  0  0  0  0  0  0
   -3.0466   -0.7103   -0.1598 C   0  0  0  0  0  0  0  0  0  0  0  0
   -2.8408    0.6116   -0.4996 C   0  0  0  0  0  0  0  0  0  0  0  0
   -4.0375    1.2276   -0.6552 N   0  0  0  0  0  0  0  0  0  0  0  0
   -4.9777    0.3281   -0.4222 N   0  0  0  0  0  0  0  0  0  0  0  0
   -1.3854    0.8078   -0.5532 C   0  0  0  0  0  0  0  0  0  0  0  0
   -0.8967   -0.2001    0.3725 N   0  0  0  0  0  0  0  0  0  0  0  0
    0.5107   -0.3683    0.0933 C   0  0  2  0  0  0  0  0  0  0  0  0
    1.1389   -1.3822    0.9801 C   0  0  0  0  0  0  0  0  0  0  0  0
    2.5018   -1.2795    1.1022 O   0  0  0  0  0  0  0  0  0  0  0  0
    3.0847   -0.4031    0.2001 C   0  0  2  0  0  0  0  0  0  0  0  0
    4.5370   -0.3974    0.3881 C   0  0  0  0  0  0  0  0  0  0  0  0
    5.1905   -0.7300    1.5606 C   0  0  0  0  0  0  0  0  0  0  0  0
    6.5569   -0.7072    1.6781 C   0  0  0  0  0  0  0  0  0  0  0  0
    7.1519   -1.0422    2.8504 F   0  0  0  0  0  0  0  0  0  0  0  0
    7.3328   -0.3437    0.6052 C   0  0  0  0  0  0  0  0  0  0  0  0
    8.6986   -0.3190    0.7163 F   0  0  0  0  0  0  0  0  0  0  0  0
    6.7174   -0.0070   -0.5754 C   0  0  0  0  0  0  0  0  0  0  0  0
    5.3537   -0.0388   -0.6632 C   0  0  0  0  0  0  0  0  0  0  0  0
    4.7658    0.3005   -1.8485 F   0  0  0  0  0  0  0  0  0  0  0  0
    2.5737    0.9890    0.5604 C   0  0  1  0  0  0  0  0  0  0  0  0
    3.2336    2.0014   -0.2600 N   0  0  0  0  0  0  0  0  0  0  0  0
    1.1196    1.0137    0.2219 C   0  0  0  0  0  0  0  0  0  0  0  0
   -1.6898   -1.3476    0.0009 C   0  0  0  0  0  0  0  0  0  0  0  0
   -6.3598    2.6355   -0.5120 H   0  0  0  0  0  0  0  0  0  0  0  0
   -7.9507    1.7960   -0.2586 H   0  0  0  0  0  0  0  0  0  0  0  0
   -7.2088    1.7606   -1.8871 H   0  0  0  0  0  0  0  0  0  0  0  0
   -8.2065   -0.5298   -0.1949 H   0  0  0  0  0  0  0  0  0  0  0  0
   -7.1798   -2.6510    0.3474 H   0  0  0  0  0  0  0  0  0  0  0  0
   -1.0325    0.6010   -1.5962 H   0  0  0  0  0  0  0  0  0  0  0  0
   -1.0660    1.8228   -0.2492 H   0  0  0  0  0  0  0  0  0  0  0  0
    0.6682   -0.7107   -0.9699 H   0  0  0  0  0  0  0  0  0  0  0  0
    0.9308   -2.3969    0.5306 H   0  0  0  0  0  0  0  0  0  0  0  0
    0.6999   -1.4335    2.0006 H   0  0  0  0  0  0  0  0  0  0  0  0
    2.7761   -0.5971   -0.8440 H   0  0  0  0  0  0  0  0  0  0  0  0
    4.5344   -1.0142    2.3927 H   0  0  0  0  0  0  0  0  0  0  0  0
    7.3355    0.2784   -1.4164 H   0  0  0  0  0  0  0  0  0  0  0  0
    2.7470    1.1917    1.6287 H   0  0  0  0  0  0  0  0  0  0  0  0
    3.0634    2.9196    0.2282 H   0  0  0  0  0  0  0  0  0  0  0  0
    2.7224    2.0127   -1.1717 H   0  0  0  0  0  0  0  0  0  0  0  0
    0.6055    1.5999    1.0387 H   0  0  0  0  0  0  0  0  0  0  0  0
    0.9172    1.5430   -0.7349 H   0  0  0  0  0  0  0  0  0  0  0  0
   -1.6817   -2.0473    0.8503 H   0  0  0  0  0  0  0  0  0  0  0  0
   -1.4029   -1.7921   -0.9598 H   0  0  0  0  0  0  0  0  0  0  0  0
  1  2  1  0
  2  3  2  0
  3  4  1  0
  4  5  2  0
  5  6  1  0
  6  7  2  0
  7  8  1  0
  8  9  2  0
  9 10  1  0
  8 11  1  0
 11 12  1  0
 12 13  1  0
 13 14  1  0
 14 15  1  0
 15 16  1  0
 16 17  1  0
 17 18  2  0
 18 19  1  0
 19 20  1  0
 19 21  2  0
 21 22  1  0
 21 23  1  0
 23 24  2  0
 24 25  1  0
 16 26  1  0
 26 27  1  0
 26 28  1  0
 12 29  1  0
 10  2  1  0
 28 13  1  0
 10  6  1  0
 24 17  1  0
 29  7  1  0
  1 30  1  0
  1 31  1  0
  1 32  1  0
  3 33  1  0
  4 34  1  0
 11 35  1  0
 11 36  1  0
 13 37  1  6
 14 38  1  0
 14 39  1  0
 16 40  1  6
 18 41  1  0
 23 42  1  0
 26 43  1  1
 27 44  1  0
 27 45  1  0
 28 46  1  0
 28 47  1  0
 29 48  1  0
 29 49  1  0
M  END
$$$$
