
     RDKit          3D

 76 78  0  0  0  0  0  0  0  0999 V2000
    9.5700    1.5493   -1.6157 C   0  0  0  0  0  0  0  0  0  0  0  0
    9.2818    1.7231   -0.2815 O   0  0  0  0  0  0  0  0  0  0  0  0
    7.9943    1.3501    0.0022 C   0  0  0  0  0  0  0  0  0  0  0  0
    6.9526    2.1067   -0.7719 C   0  0  0  0  0  0  0  0  0  0  0  0
    5.5986    1.6164   -0.3129 C   0  0  0  0  0  0  0  0  0  0  0  0
    5.4839    0.2328   -0.5446 O   0  0  0  0  0  0  0  0  0  0  0  0
    4.3123   -0.4596   -0.1986 C   0  0  0  0  0  0  0  0  0  0  0  0
    3.2362    0.1933    0.3602 C   0  0  0  0  0  0  0  0  0  0  0  0
    2.0440   -0.4587    0.7244 C   0  0  0  0  0  0  0  0  0  0  0  0
    1.0054    0.3398    1.3301 C   0  0  0  0  0  0  0  0  0  0  0  0
    1.3098    0.7110    2.5457 O   0  0  0  0  0  0  0  0  0  0  0  0
   -0.2245    0.7772    0.8607 N   0  0  0  0  0  0  0  0  0  0  0  0
   -1.0359    1.6066    1.7098 C   0  0  0  0  0  0  0  0  0  0  0  0
   -1.9894    0.9743    2.6248 C   0  0  2  0  0  0  0  0  0  0  0  0
   -1.3449   -0.0050    3.6070 C   0  0  0  0  0  0  0  0  0  0  0  0
   -2.5060   -0.4708    4.3392 N   0  0  0  0  0  0  0  0  0  0  0  0
   -3.6017   -0.5004    3.4374 C   0  0  0  0  0  0  0  0  0  0  0  0
   -3.1518    0.2442    2.1539 C   0  0  1  0  0  0  0  0  0  0  0  0
   -4.2678    1.0648    1.7087 N   0  0  0  0  0  0  0  0  0  0  0  0
   -5.4108    0.5964    1.0519 C   0  0  0  0  0  0  0  0  0  0  0  0
   -5.4673   -0.6452    0.8287 O   0  0  0  0  0  0  0  0  0  0  0  0
   -6.4644    1.3651    0.6398 O   0  0  0  0  0  0  0  0  0  0  0  0
   -7.6526    0.9904    0.0326 C   0  0  0  0  0  0  0  0  0  0  0  0
   -7.4551    0.2495   -1.2138 C   0  0  0  0  0  0  0  0  0  0  0  0
   -7.2459    0.8289   -2.4407 C   0  0  0  0  0  0  0  0  0  0  0  0
   -7.1330    0.0592   -3.5971 C   0  0  0  0  0  0  0  0  0  0  0  0
   -7.2325   -1.3065   -3.4944 C   0  0  0  0  0  0  0  0  0  0  0  0
   -7.4444   -1.9515   -2.2623 C   0  0  0  0  0  0  0  0  0  0  0  0
   -7.5494   -1.1324   -1.1518 C   0  0  0  0  0  0  0  0  0  0  0  0
   -0.7201    0.4428   -0.4468 C   0  0  0  0  0  0  0  0  0  0  0  0
    0.2803    0.8191   -1.5497 C   0  0  0  0  0  0  0  0  0  0  0  0
   -0.9808   -1.0327   -0.6388 C   0  0  0  0  0  0  0  0  0  0  0  0
    1.9822   -1.8043    0.5026 C   0  0  0  0  0  0  0  0  0  0  0  0
    3.0642   -2.4999   -0.0662 C   0  0  0  0  0  0  0  0  0  0  0  0
    4.2136   -1.8059   -0.4056 C   0  0  0  0  0  0  0  0  0  0  0  0
    5.3209   -2.4675   -0.9762 O   0  0  0  0  0  0  0  0  0  0  0  0
    5.2704   -3.8597   -1.2147 C   0  0  0  0  0  0  0  0  0  0  0  0
    9.4235    0.4831   -1.8900 H   0  0  0  0  0  0  0  0  0  0  0  0
    8.9593    2.1985   -2.2718 H   0  0  0  0  0  0  0  0  0  0  0  0
   10.6628    1.8099   -1.7509 H   0  0  0  0  0  0  0  0  0  0  0  0
    7.8190    0.2596   -0.1893 H   0  0  0  0  0  0  0  0  0  0  0  0
    7.7551    1.5200    1.0970 H   0  0  0  0  0  0  0  0  0  0  0  0
    7.0361    1.9205   -1.8795 H   0  0  0  0  0  0  0  0  0  0  0  0
    7.0331    3.1934   -0.6530 H   0  0  0  0  0  0  0  0  0  0  0  0
    4.8149    2.1918   -0.8758 H   0  0  0  0  0  0  0  0  0  0  0  0
    5.4383    1.8453    0.7586 H   0  0  0  0  0  0  0  0  0  0  0  0
    3.2943    1.2535    0.5335 H   0  0  0  0  0  0  0  0  0  0  0  0
   -1.6232    2.3582    1.0943 H   0  0  0  0  0  0  0  0  0  0  0  0
   -0.3888    2.2977    2.3474 H   0  0  0  0  0  0  0  0  0  0  0  0
   -2.3533    1.8018    3.3692 H   0  0  0  0  0  0  0  0  0  0  0  0
   -0.7157    0.5246    4.3389 H   0  0  0  0  0  0  0  0  0  0  0  0
   -0.8635   -0.8596    3.1107 H   0  0  0  0  0  0  0  0  0  0  0  0
   -2.3786   -1.3937    4.7901 H   0  0  0  0  0  0  0  0  0  0  0  0
   -4.4967    0.0743    3.8437 H   0  0  0  0  0  0  0  0  0  0  0  0
   -3.9991   -1.4625    3.1312 H   0  0  0  0  0  0  0  0  0  0  0  0
   -2.9441   -0.5453    1.4520 H   0  0  0  0  0  0  0  0  0  0  0  0
   -4.2005    2.1052    1.9024 H   0  0  0  0  0  0  0  0  0  0  0  0
   -8.2565    0.3839    0.7717 H   0  0  0  0  0  0  0  0  0  0  0  0
   -8.2193    1.9428   -0.1899 H   0  0  0  0  0  0  0  0  0  0  0  0
   -7.1603    1.9170   -2.5606 H   0  0  0  0  0  0  0  0  0  0  0  0
   -6.9698    0.5108   -4.5888 H   0  0  0  0  0  0  0  0  0  0  0  0
   -7.1516   -1.9233   -4.4080 H   0  0  0  0  0  0  0  0  0  0  0  0
   -7.5147   -3.0214   -2.2102 H   0  0  0  0  0  0  0  0  0  0  0  0
   -7.7249   -1.5941   -0.1969 H   0  0  0  0  0  0  0  0  0  0  0  0
   -1.7213    0.9326   -0.6327 H   0  0  0  0  0  0  0  0  0  0  0  0
   -0.1710    0.9034   -2.5328 H   0  0  0  0  0  0  0  0  0  0  0  0
    0.8533    1.6884   -1.2183 H   0  0  0  0  0  0  0  0  0  0  0  0
    1.0407   -0.0238   -1.6022 H   0  0  0  0  0  0  0  0  0  0  0  0
   -1.0796   -1.5875    0.3174 H   0  0  0  0  0  0  0  0  0  0  0  0
   -0.2348   -1.4921   -1.3171 H   0  0  0  0  0  0  0  0  0  0  0  0
   -1.9604   -1.1488   -1.1398 H   0  0  0  0  0  0  0  0  0  0  0  0
    1.0948   -2.3836    0.7771 H   0  0  0  0  0  0  0  0  0  0  0  0
    3.0159   -3.5582   -0.2392 H   0  0  0  0  0  0  0  0  0  0  0  0
    6.3302   -4.1440   -1.4794 H   0  0  0  0  0  0  0  0  0  0  0  0
    4.9227   -4.3801   -0.3289 H   0  0  0  0  0  0  0  0  0  0  0  0
    4.5917   -4.0395   -2.0586 H   0  0  0  0  0  0  0  0  0  0  0  0
  1  2  1  0
  2  3  1  0
  3  4  1  0
  4  5  1  0
  5  6  1  0
  6  7  1  0
  7  8  2  0
  8  9  1  0
  9 10  1  0
 10 11  2  0
 10 12  1  0
 12 13  1  0
 13 14  1  0
 14 15  1  0
 15 16  1  0
 16 17  1  0
 17 18  1  0
 18 19  1  0
 19 20  1  0
 20 21  2  0
 20 22  1  0
 22 23  1  0
 23 24  1  0
 24 25  2  0
 25 26  1  0
 26 27  2  0
 27 28  1  0
 28 29  2  0
 12 30  1  0
 30 31  1  0
 30 32  1  0
  9 33  2  0
 33 34  1  0
 34 35  2  0
 35 36  1  0
 36 37  1  0
 35  7  1  0
 18 14  1  0
 29 24  1  0
  1 38  1  0
  1 39  1  0
  1 40  1  0
  3 41  1  0
  3 42  1  0
  4 43  1  0
  4 44  1  0
  5 45  1  0
  5 46  1  0
  8 47  1  0
 13 48  1  0
 13 49  1  0
 14 50  1  1
 15 51  1  0
 15 52  1  0
 16 53  1  0
 17 54  1  0
 17 55  1  0
 18 56  1  6
 19 57  1  0
 23 58  1  0
 23 59  1  0
 25 60  1  0
 26 61  1  0
 27 62  1  0
 28 63  1  0
 29 64  1  0
 30 65  1  0
 31 66  1  0
 31 67  1  0
 31 68  1  0
 32 69  1  0
 32 70  1  0
 32 71  1  0
 33 72  1  0
 34 73  1  0
 37 74  1  0
 37 75  1  0
 37 76  1  0
M  END
$$$$
