
     RDKit          3D

 37 38  0  0  0  0  0  0  0  0999 V2000
    0.3750   -1.0269    0.1217 C   0  0  1  0  0  0  0  0  0  0  0  0
    0.0000   -0.2356   -1.0567 N   0  0  0  0  0  0  0  0  0  0  0  0
    1.2355   -0.0677    0.9563 C   0  0  0  0  0  0  0  0  0  0  0  0
    2.4383    0.3803    0.1903 C   0  0  0  0  0  0  0  0  0  0  0  0
    3.2966   -0.8006   -0.1908 C   0  0  0  0  0  0  0  0  0  0  0  0
    4.4630   -0.3598   -0.9339 N   0  0  0  0  0  0  0  0  0  0  0  0
    5.5228    0.4073   -0.3503 C   0  0  0  0  0  0  0  0  0  0  0  0
    6.6401    0.8368   -1.1499 N   0  0  0  0  0  0  0  0  0  0  0  0
    5.4219    0.6848    0.9019 N   0  0  0  0  0  0  0  0  0  0  0  0
   -0.8664   -1.2502    0.9067 C   0  0  0  0  0  0  0  0  0  0  0  0
   -0.6458   -1.9568    1.9235 O   0  0  0  0  0  0  0  0  0  0  0  0
   -2.1636   -0.6786    0.4808 C   0  0  0  0  0  0  0  0  0  0  0  0
   -2.8014   -0.0543   -0.2566 N   0  0  0  0  0  0  0  0  0  0  0  0
   -4.0823    0.2295   -0.2410 C   0  0  0  0  0  0  0  0  0  0  0  0
   -4.8036    0.9799   -1.1419 C   0  0  0  0  0  0  0  0  0  0  0  0
   -6.1335    1.1716   -0.9647 C   0  0  0  0  0  0  0  0  0  0  0  0
   -6.8872    0.6637    0.0862 C   0  0  0  0  0  0  0  0  0  0  0  0
   -6.2065   -0.0918    1.0092 C   0  0  0  0  0  0  0  0  0  0  0  0
   -4.8082   -0.2898    0.8179 C   0  0  0  0  0  0  0  0  0  0  0  0
   -3.5156   -1.1700    1.7182 S   0  0  0  0  0  0  0  0  0  0  0  0
    0.8984   -1.9482   -0.1129 H   0  0  0  0  0  0  0  0  0  0  0  0
    0.7816   -0.0996   -1.7180 H   0  0  0  0  0  0  0  0  0  0  0  0
   -0.8631   -0.6183   -1.5070 H   0  0  0  0  0  0  0  0  0  0  0  0
    1.5630   -0.5274    1.8975 H   0  0  0  0  0  0  0  0  0  0  0  0
    0.6198    0.8176    1.2493 H   0  0  0  0  0  0  0  0  0  0  0  0
    2.1741    0.9906   -0.7087 H   0  0  0  0  0  0  0  0  0  0  0  0
    3.0594    1.0018    0.8797 H   0  0  0  0  0  0  0  0  0  0  0  0
    3.5573   -1.3713    0.7073 H   0  0  0  0  0  0  0  0  0  0  0  0
    2.7155   -1.4570   -0.8633 H   0  0  0  0  0  0  0  0  0  0  0  0
    4.5974   -0.5796   -1.9495 H   0  0  0  0  0  0  0  0  0  0  0  0
    6.6438    1.7520   -1.6562 H   0  0  0  0  0  0  0  0  0  0  0  0
    7.2509    0.0084   -1.0002 H   0  0  0  0  0  0  0  0  0  0  0  0
    6.1372    1.2399    1.4347 H   0  0  0  0  0  0  0  0  0  0  0  0
   -4.3943    1.4665   -2.0364 H   0  0  0  0  0  0  0  0  0  0  0  0
   -6.7406    1.7666   -1.6662 H   0  0  0  0  0  0  0  0  0  0  0  0
   -7.9332    0.7724    0.2897 H   0  0  0  0  0  0  0  0  0  0  0  0
   -6.5466   -0.5862    1.8925 H   0  0  0  0  0  0  0  0  0  0  0  0
  1  2  1  0
  1  3  1  0
  3  4  1  0
  4  5  1  0
  5  6  1  0
  6  7  1  0
  7  8  1  0
  7  9  2  3
  1 10  1  0
 10 11  2  0
 10 12  1  0
 12 13  2  0
 13 14  1  0
 14 15  2  0
 15 16  1  0
 16 17  2  0
 17 18  1  0
 18 19  2  0
 19 20  1  0
 20 12  1  0
 19 14  1  0
  1 21  1  6
  2 22  1  0
  2 23  1  0
  3 24  1  0
  3 25  1  0
  4 26  1  0
  4 27  1  0
  5 28  1  0
  5 29  1  0
  6 30  1  0
  8 31  1  0
  8 32  1  0
  9 33  1  0
 15 34  1  0
 16 35  1  0
 17 36  1  0
 18 37  1  0
M  END
$$$$
