
     RDKit          3D

 75 80  0  0  0  0  0  0  0  0999 V2000
   -6.7988    5.0555   -0.1813 C   0  0  0  0  0  0  0  0  0  0  0  0
   -5.9277    5.7429    0.7348 N   0  0  0  0  0  0  0  0  0  0  0  0
   -4.5403    5.6212    0.3495 C   0  0  1  0  0  0  0  0  0  0  0  0
   -3.6187    6.3011    1.3298 C   0  0  0  0  0  0  0  0  0  0  0  0
   -4.1983    4.1548    0.3520 C   0  0  0  0  0  0  0  0  0  0  0  0
   -5.1180    3.3605    0.6212 O   0  0  0  0  0  0  0  0  0  0  0  0
   -2.8868    3.7180    0.0598 N   0  0  0  0  0  0  0  0  0  0  0  0
   -2.5069    2.3547    0.0410 C   0  0  0  0  0  0  0  0  0  0  0  0
   -3.3171    1.2828    0.1878 C   0  0  0  0  0  0  0  0  0  0  0  0
   -2.7571   -0.0020    0.1685 C   0  0  0  0  0  0  0  0  0  0  0  0
   -1.4202   -0.1899    0.0056 C   0  0  0  0  0  0  0  0  0  0  0  0
   -0.8519   -1.5042   -0.0075 C   0  0  0  0  0  0  0  0  0  0  0  0
   -0.8200   -2.4050    1.0504 C   0  0  0  0  0  0  0  0  0  0  0  0
   -1.3736   -2.1856    2.3869 C   0  0  0  0  0  0  0  0  0  0  0  0
   -1.0051   -1.1472    3.2105 C   0  0  0  0  0  0  0  0  0  0  0  0
   -1.5597   -0.9866    4.4770 C   0  0  0  0  0  0  0  0  0  0  0  0
   -2.4938   -1.8713    4.9316 C   0  0  0  0  0  0  0  0  0  0  0  0
   -2.8553   -2.8944    4.1179 N   0  0  0  0  0  0  0  0  0  0  0  0
   -2.3153   -3.0569    2.8753 C   0  0  0  0  0  0  0  0  0  0  0  0
   -2.7708   -4.1436    2.1459 O   0  0  0  0  0  0  0  0  0  0  0  0
   -3.7411   -5.0435    2.6478 C   0  0  0  0  0  0  0  0  0  0  0  0
   -0.1902   -3.4903    0.5820 N   0  0  0  0  0  0  0  0  0  0  0  0
    0.1782   -3.3375   -0.6989 C   0  0  0  0  0  0  0  0  0  0  0  0
    0.8359   -4.1060   -1.6493 C   0  0  0  0  0  0  0  0  0  0  0  0
    1.0864   -3.6761   -2.9331 C   0  0  0  0  0  0  0  0  0  0  0  0
    1.7975   -4.5147   -3.9403 C   0  0  0  0  0  0  0  0  0  0  0  0
    0.6486   -2.4000   -3.2764 C   0  0  0  0  0  0  0  0  0  0  0  0
   -0.0021   -1.6596   -2.3106 C   0  0  0  0  0  0  0  0  0  0  0  0
   -0.2313   -2.1171   -1.0523 N   0  0  0  0  0  0  0  0  0  0  0  0
   -0.6136    0.9148   -0.1422 C   0  0  0  0  0  0  0  0  0  0  0  0
    0.8247    0.7145   -0.2967 C   0  0  0  0  0  0  0  0  0  0  0  0
    2.0010    0.5312   -0.4312 C   0  0  0  0  0  0  0  0  0  0  0  0
    3.4078    0.3297   -0.6073 C   0  0  0  0  0  0  0  0  0  0  0  0
    4.2911    0.2961    0.4738 C   0  0  0  0  0  0  0  0  0  0  0  0
    5.6435    0.1104    0.3006 C   0  0  0  0  0  0  0  0  0  0  0  0
    6.1871   -0.0499   -0.9350 C   0  0  0  0  0  0  0  0  0  0  0  0
    7.5460   -0.2296   -1.0600 C   0  0  0  0  0  0  0  0  0  0  0  0
    8.4165   -0.2502    0.1435 C   0  0  0  0  0  0  0  0  0  0  0  0
    8.0709   -0.3830   -2.2725 N   0  0  0  0  0  0  0  0  0  0  0  0
    7.2805   -0.3639   -3.3839 C   0  0  0  0  0  0  0  0  0  0  0  0
    5.9187   -0.1847   -3.2717 C   0  0  0  0  0  0  0  0  0  0  0  0
    5.3368   -0.0225   -2.0384 C   0  0  0  0  0  0  0  0  0  0  0  0
    3.9973    0.1630   -1.8443 C   0  0  0  0  0  0  0  0  0  0  0  0
   -1.1592    2.1363   -0.1224 N   0  0  0  0  0  0  0  0  0  0  0  0
   -7.3235    4.1844    0.2885 H   0  0  0  0  0  0  0  0  0  0  0  0
   -6.2958    4.7114   -1.1115 H   0  0  0  0  0  0  0  0  0  0  0  0
   -7.6065    5.7531   -0.4893 H   0  0  0  0  0  0  0  0  0  0  0  0
   -6.0226    5.2706    1.6809 H   0  0  0  0  0  0  0  0  0  0  0  0
   -4.4259    6.0289   -0.6812 H   0  0  0  0  0  0  0  0  0  0  0  0
   -3.0444    5.5452    1.8840 H   0  0  0  0  0  0  0  0  0  0  0  0
   -4.2770    6.7909    2.1063 H   0  0  0  0  0  0  0  0  0  0  0  0
   -2.9642    7.0580    0.8466 H   0  0  0  0  0  0  0  0  0  0  0  0
   -2.1830    4.4861   -0.1527 H   0  0  0  0  0  0  0  0  0  0  0  0
   -4.3670    1.3907    0.3119 H   0  0  0  0  0  0  0  0  0  0  0  0
   -3.4701   -0.8264    0.2932 H   0  0  0  0  0  0  0  0  0  0  0  0
   -0.2844   -0.4392    2.8954 H   0  0  0  0  0  0  0  0  0  0  0  0
   -1.2693   -0.1624    5.1322 H   0  0  0  0  0  0  0  0  0  0  0  0
   -2.9733   -1.8049    5.9213 H   0  0  0  0  0  0  0  0  0  0  0  0
   -3.4589   -6.0909    2.4494 H   0  0  0  0  0  0  0  0  0  0  0  0
   -3.8861   -4.8611    3.7537 H   0  0  0  0  0  0  0  0  0  0  0  0
   -4.7449   -4.8090    2.2025 H   0  0  0  0  0  0  0  0  0  0  0  0
    1.1714   -5.0901   -1.3772 H   0  0  0  0  0  0  0  0  0  0  0  0
    1.6357   -4.0551   -4.9410 H   0  0  0  0  0  0  0  0  0  0  0  0
    2.8671   -4.6434   -3.6958 H   0  0  0  0  0  0  0  0  0  0  0  0
    1.2916   -5.5014   -3.9687 H   0  0  0  0  0  0  0  0  0  0  0  0
    0.8178   -2.0043   -4.2768 H   0  0  0  0  0  0  0  0  0  0  0  0
   -0.3426   -0.6715   -2.5731 H   0  0  0  0  0  0  0  0  0  0  0  0
    3.9309    0.4166    1.4845 H   0  0  0  0  0  0  0  0  0  0  0  0
    6.3174    0.0867    1.1632 H   0  0  0  0  0  0  0  0  0  0  0  0
    8.0805   -1.0167    0.8772 H   0  0  0  0  0  0  0  0  0  0  0  0
    8.5060    0.7398    0.6320 H   0  0  0  0  0  0  0  0  0  0  0  0
    9.4412   -0.5626   -0.1565 H   0  0  0  0  0  0  0  0  0  0  0  0
    7.7888   -0.4961   -4.3249 H   0  0  0  0  0  0  0  0  0  0  0  0
    5.3155   -0.1747   -4.1618 H   0  0  0  0  0  0  0  0  0  0  0  0
    3.3795    0.1754   -2.7506 H   0  0  0  0  0  0  0  0  0  0  0  0
  1  2  1  0
  2  3  1  0
  3  4  1  0
  3  5  1  0
  5  6  2  0
  5  7  1  0
  7  8  1  0
  8  9  2  0
  9 10  1  0
 10 11  2  0
 11 12  1  0
 12 13  2  0
 13 14  1  0
 14 15  2  0
 15 16  1  0
 16 17  2  0
 17 18  1  0
 18 19  2  0
 19 20  1  0
 20 21  1  0
 13 22  1  0
 22 23  2  0
 23 24  1  0
 24 25  2  0
 25 26  1  0
 25 27  1  0
 27 28  2  0
 28 29  1  0
 11 30  1  0
 30 31  1  0
 31 32  3  0
 32 33  1  0
 33 34  2  0
 34 35  1  0
 35 36  2  0
 36 37  1  0
 37 38  1  0
 37 39  2  0
 39 40  1  0
 40 41  2  0
 41 42  1  0
 42 43  2  0
 30 44  2  0
 44  8  1  0
 29 12  1  0
 43 33  1  0
 19 14  1  0
 29 23  1  0
 42 36  1  0
  1 45  1  0
  1 46  1  0
  1 47  1  0
  2 48  1  0
  3 49  1  6
  4 50  1  0
  4 51  1  0
  4 52  1  0
  7 53  1  0
  9 54  1  0
 10 55  1  0
 15 56  1  0
 16 57  1  0
 17 58  1  0
 21 59  1  0
 21 60  1  0
 21 61  1  0
 24 62  1  0
 26 63  1  0
 26 64  1  0
 26 65  1  0
 27 66  1  0
 28 67  1  0
 34 68  1  0
 35 69  1  0
 38 70  1  0
 38 71  1  0
 38 72  1  0
 40 73  1  0
 41 74  1  0
 43 75  1  0
M  END
$$$$
