
     RDKit          3D

 54 58  0  0  0  0  0  0  0  0999 V2000
   -3.7379   -0.3586    1.8899 C   0  0  0  0  0  0  0  0  0  0  0  0
   -3.3565    0.0497    0.4549 C   0  0  1  0  0  0  0  0  0  0  0  0
   -2.0435    0.2133    0.3649 O   0  0  0  0  0  0  0  0  0  0  0  0
   -1.0331    1.0253    0.0530 C   0  0  0  0  0  0  0  0  0  0  0  0
    0.2646    0.5167    0.2012 C   0  0  0  0  0  0  0  0  0  0  0  0
    1.4097    1.2089   -0.0715 C   0  0  0  0  0  0  0  0  0  0  0  0
    2.7108    0.5627    0.1254 C   0  0  0  0  0  0  0  0  0  0  0  0
    3.8458    1.2254    0.4819 C   0  0  0  0  0  0  0  0  0  0  0  0
    5.0624    0.5758    0.6594 C   0  0  0  0  0  0  0  0  0  0  0  0
    5.1551   -0.7958    0.4740 C   0  0  0  0  0  0  0  0  0  0  0  0
    4.0109   -1.4800    0.1122 C   0  0  0  0  0  0  0  0  0  0  0  0
    2.8133   -0.8141   -0.0586 C   0  0  0  0  0  0  0  0  0  0  0  0
    4.3369   -2.8144   -0.0149 C   0  0  0  0  0  0  0  0  0  0  0  0
    3.5262   -3.9242   -0.3654 N   0  0  0  0  0  0  0  0  0  0  0  0
    5.6475   -2.9131    0.2668 N   0  0  0  0  0  0  0  0  0  0  0  0
    6.1322   -1.7019    0.5587 N   0  0  0  0  0  0  0  0  0  0  0  0
    7.5017   -1.3918    0.9155 C   0  0  0  0  0  0  0  0  0  0  0  0
    1.2874    2.4825   -0.5189 C   0  0  0  0  0  0  0  0  0  0  0  0
    0.0458    3.0682   -0.6956 C   0  0  0  0  0  0  0  0  0  0  0  0
   -0.3733    4.2716   -1.1109 N   0  0  0  0  0  0  0  0  0  0  0  0
   -1.6870    4.3262   -1.0982 N   0  0  0  0  0  0  0  0  0  0  0  0
   -2.5660    5.4230   -1.4645 C   0  0  0  0  0  0  0  0  0  0  0  0
   -2.1778    3.1296   -0.6631 C   0  0  0  0  0  0  0  0  0  0  0  0
   -1.1054    2.3389   -0.4096 C   0  0  0  0  0  0  0  0  0  0  0  0
   -3.8135   -1.0633   -0.5037 C   0  0  1  0  0  0  0  0  0  0  0  0
   -3.1726   -2.3758   -0.1968 C   0  0  0  0  0  0  0  0  0  0  0  0
   -4.2959   -3.2611    0.1217 N   0  0  0  0  0  0  0  0  0  0  0  0
   -5.4785   -2.7095   -0.4086 C   0  0  0  0  0  0  0  0  0  0  0  0
   -6.4960   -3.3332   -0.7614 O   0  0  0  0  0  0  0  0  0  0  0  0
   -5.2921   -1.2438   -0.4712 C   0  0  0  0  0  0  0  0  0  0  0  0
   -3.6135   -1.4420    2.0105 H   0  0  0  0  0  0  0  0  0  0  0  0
   -4.7923   -0.0680    2.0164 H   0  0  0  0  0  0  0  0  0  0  0  0
   -3.0520    0.1895    2.5831 H   0  0  0  0  0  0  0  0  0  0  0  0
   -3.9822    0.9140    0.1646 H   0  0  0  0  0  0  0  0  0  0  0  0
    0.3521   -0.5096    0.5617 H   0  0  0  0  0  0  0  0  0  0  0  0
    3.8139    2.2815    0.6335 H   0  0  0  0  0  0  0  0  0  0  0  0
    5.9679    1.0950    0.9423 H   0  0  0  0  0  0  0  0  0  0  0  0
    1.9521   -1.4009   -0.3418 H   0  0  0  0  0  0  0  0  0  0  0  0
    2.5390   -4.0108   -0.0375 H   0  0  0  0  0  0  0  0  0  0  0  0
    3.8908   -4.6940   -0.9651 H   0  0  0  0  0  0  0  0  0  0  0  0
    7.5965   -1.0397    1.9636 H   0  0  0  0  0  0  0  0  0  0  0  0
    7.9215   -0.5785    0.2737 H   0  0  0  0  0  0  0  0  0  0  0  0
    8.1461   -2.2825    0.7351 H   0  0  0  0  0  0  0  0  0  0  0  0
    2.1407    3.0842   -0.7525 H   0  0  0  0  0  0  0  0  0  0  0  0
   -2.9641    5.1813   -2.4699 H   0  0  0  0  0  0  0  0  0  0  0  0
   -3.3923    5.4642   -0.7103 H   0  0  0  0  0  0  0  0  0  0  0  0
   -2.0062    6.3701   -1.4949 H   0  0  0  0  0  0  0  0  0  0  0  0
   -3.2164    2.8736   -0.5472 H   0  0  0  0  0  0  0  0  0  0  0  0
   -3.5290   -0.6979   -1.5192 H   0  0  0  0  0  0  0  0  0  0  0  0
   -2.4530   -2.3739    0.6192 H   0  0  0  0  0  0  0  0  0  0  0  0
   -2.7052   -2.8347   -1.1170 H   0  0  0  0  0  0  0  0  0  0  0  0
   -4.1698   -4.1398    0.6565 H   0  0  0  0  0  0  0  0  0  0  0  0
   -5.7924   -0.7129    0.3601 H   0  0  0  0  0  0  0  0  0  0  0  0
   -5.7733   -0.9055   -1.4310 H   0  0  0  0  0  0  0  0  0  0  0  0
  1  2  1  0
  2  3  1  0
  3  4  1  0
  4  5  2  0
  5  6  1  0
  6  7  1  0
  7  8  2  0
  8  9  1  0
  9 10  2  0
 10 11  1  0
 11 12  2  0
 11 13  1  0
 13 14  1  0
 13 15  2  0
 15 16  1  0
 16 17  1  0
  6 18  2  0
 18 19  1  0
 19 20  2  0
 20 21  1  0
 21 22  1  0
 21 23  1  0
 23 24  2  0
  2 25  1  0
 25 26  1  0
 26 27  1  0
 27 28  1  0
 28 29  2  0
 28 30  1  0
 24  4  1  0
 30 25  1  0
 12  7  1  0
 24 19  1  0
 16 10  1  0
  1 31  1  0
  1 32  1  0
  1 33  1  0
  2 34  1  6
  5 35  1  0
  8 36  1  0
  9 37  1  0
 12 38  1  0
 14 39  1  0
 14 40  1  0
 17 41  1  0
 17 42  1  0
 17 43  1  0
 18 44  1  0
 22 45  1  0
 22 46  1  0
 22 47  1  0
 23 48  1  0
 25 49  1  6
 26 50  1  0
 26 51  1  0
 27 52  1  0
 30 53  1  0
 30 54  1  0
M  END
$$$$
