
     RDKit          3D

 62 65  0  0  0  0  0  0  0  0999 V2000
    5.0657    0.7301   -2.9101 C   0  0  0  0  0  0  0  0  0  0  0  0
    4.3319    0.6258   -1.6119 C   0  0  0  0  0  0  0  0  0  0  0  0
    4.3456    1.6375   -0.8782 O   0  0  0  0  0  0  0  0  0  0  0  0
    3.6814   -0.5370   -1.2641 O   0  0  0  0  0  0  0  0  0  0  0  0
    2.9613   -0.6901   -0.0423 C   0  0  2  0  0  0  0  0  0  0  0  0
    3.8607   -0.4822    1.1045 C   0  0  0  0  0  0  0  0  0  0  0  0
    5.3029   -0.3000    0.9181 C   0  0  0  0  0  0  0  0  0  0  0  0
    3.4186   -0.4624    2.2235 O   0  0  0  0  0  0  0  0  0  0  0  0
    2.6493   -2.2233    0.0686 C   0  0  0  0  0  0  0  0  0  0  0  0
    1.3804   -2.1463    0.9357 C   0  0  0  0  0  0  0  0  0  0  0  0
    0.6539   -1.1593    0.1278 C   0  0  1  0  0  0  0  0  0  0  0  0
   -0.6148   -0.5982    0.6063 C   0  0  2  0  0  0  0  0  0  0  0  0
   -1.6332   -1.6313    1.0353 C   0  0  0  0  0  0  0  0  0  0  0  0
   -2.7400   -0.8325    1.7251 C   0  0  2  0  0  0  0  0  0  0  0  0
   -3.7437   -1.7586    2.3225 C   0  0  0  0  0  0  0  0  0  0  0  0
   -3.3074    0.0629    0.6898 C   0  0  0  0  0  0  0  0  0  0  0  0
   -4.6139    0.2779    0.7070 C   0  0  0  0  0  0  0  0  0  0  0  0
   -5.3071    1.1337   -0.2483 C   0  0  0  0  0  0  0  0  0  0  0  0
   -6.4484    1.6167   -0.0336 O   0  0  0  0  0  0  0  0  0  0  0  0
   -4.6240    1.4413   -1.5288 C   0  0  0  0  0  0  0  0  0  0  0  0
   -3.3366    0.6656   -1.6400 C   0  0  0  0  0  0  0  0  0  0  0  0
   -2.5216    0.7285   -0.3540 C   0  0  1  0  0  0  0  0  0  0  0  0
   -2.4147    2.2029    0.0364 C   0  0  0  0  0  0  0  0  0  0  0  0
   -1.1903    0.1353   -0.6183 C   0  0  1  0  0  0  0  0  0  0  0  0
   -0.2335    1.1393   -1.1588 C   0  0  0  0  0  0  0  0  0  0  0  0
    1.2042    0.7089   -1.2312 C   0  0  0  0  0  0  0  0  0  0  0  0
    1.6579   -0.0051   -0.0005 C   0  0  2  0  0  0  0  0  0  0  0  0
    1.5553    0.9562    1.1577 C   0  0  0  0  0  0  0  0  0  0  0  0
    6.1644    0.6488   -2.7718 H   0  0  0  0  0  0  0  0  0  0  0  0
    4.8738    1.7442   -3.3125 H   0  0  0  0  0  0  0  0  0  0  0  0
    4.7790   -0.0831   -3.5997 H   0  0  0  0  0  0  0  0  0  0  0  0
    5.8357   -1.0181    1.6369 H   0  0  0  0  0  0  0  0  0  0  0  0
    5.6429    0.6925    1.2871 H   0  0  0  0  0  0  0  0  0  0  0  0
    5.7099   -0.5937   -0.0598 H   0  0  0  0  0  0  0  0  0  0  0  0
    3.4599   -2.7659    0.5369 H   0  0  0  0  0  0  0  0  0  0  0  0
    2.3860   -2.5261   -0.9454 H   0  0  0  0  0  0  0  0  0  0  0  0
    1.6019   -1.8649    1.9588 H   0  0  0  0  0  0  0  0  0  0  0  0
    0.8524   -3.1272    0.9183 H   0  0  0  0  0  0  0  0  0  0  0  0
    0.5302   -1.5605   -0.9096 H   0  0  0  0  0  0  0  0  0  0  0  0
   -0.5405    0.1319    1.4280 H   0  0  0  0  0  0  0  0  0  0  0  0
   -1.1300   -2.3126    1.7334 H   0  0  0  0  0  0  0  0  0  0  0  0
   -2.0619   -2.1480    0.1637 H   0  0  0  0  0  0  0  0  0  0  0  0
   -2.2508   -0.2312    2.5173 H   0  0  0  0  0  0  0  0  0  0  0  0
   -3.2085   -2.6064    2.8150 H   0  0  0  0  0  0  0  0  0  0  0  0
   -4.3861   -2.2127    1.5462 H   0  0  0  0  0  0  0  0  0  0  0  0
   -4.3298   -1.2641    3.1342 H   0  0  0  0  0  0  0  0  0  0  0  0
   -5.2283   -0.2003    1.4684 H   0  0  0  0  0  0  0  0  0  0  0  0
   -5.2993    1.0584   -2.3396 H   0  0  0  0  0  0  0  0  0  0  0  0
   -4.5088    2.5193   -1.6397 H   0  0  0  0  0  0  0  0  0  0  0  0
   -3.6277   -0.4173   -1.7465 H   0  0  0  0  0  0  0  0  0  0  0  0
   -2.7737    0.9801   -2.5178 H   0  0  0  0  0  0  0  0  0  0  0  0
   -2.2469    2.8473   -0.8404 H   0  0  0  0  0  0  0  0  0  0  0  0
   -1.6770    2.3562    0.8526 H   0  0  0  0  0  0  0  0  0  0  0  0
   -3.3977    2.5178    0.4658 H   0  0  0  0  0  0  0  0  0  0  0  0
   -1.3025   -0.6716   -1.3929 H   0  0  0  0  0  0  0  0  0  0  0  0
   -0.5465    1.3411   -2.2267 H   0  0  0  0  0  0  0  0  0  0  0  0
   -0.3368    2.1530   -0.6707 H   0  0  0  0  0  0  0  0  0  0  0  0
    1.7723    1.6121   -1.5010 H   0  0  0  0  0  0  0  0  0  0  0  0
    1.2698   -0.0204   -2.0868 H   0  0  0  0  0  0  0  0  0  0  0  0
    2.5309    1.5255    1.1804 H   0  0  0  0  0  0  0  0  0  0  0  0
    0.7864    1.7534    0.9814 H   0  0  0  0  0  0  0  0  0  0  0  0
    1.3175    0.5063    2.1195 H   0  0  0  0  0  0  0  0  0  0  0  0
  1  2  1  0
  2  3  2  0
  2  4  1  0
  5  4  1  6
  5  6  1  0
  6  7  1  0
  6  8  2  0
  5  9  1  0
  9 10  1  0
 10 11  1  0
 11 12  1  0
 12 13  1  0
 13 14  1  0
 14 15  1  0
 14 16  1  0
 16 17  2  0
 17 18  1  0
 18 19  2  0
 18 20  1  0
 20 21  1  0
 21 22  1  0
 22 23  1  1
 22 24  1  0
 24 25  1  0
 25 26  1  0
 26 27  1  0
 27 28  1  1
 27  5  1  0
 27 11  1  0
 24 12  1  0
 22 16  1  0
  1 29  1  0
  1 30  1  0
  1 31  1  0
  7 32  1  0
  7 33  1  0
  7 34  1  0
  9 35  1  0
  9 36  1  0
 10 37  1  0
 10 38  1  0
 11 39  1  6
 12 40  1  1
 13 41  1  0
 13 42  1  0
 14 43  1  1
 15 44  1  0
 15 45  1  0
 15 46  1  0
 17 47  1  0
 20 48  1  0
 20 49  1  0
 21 50  1  0
 21 51  1  0
 23 52  1  0
 23 53  1  0
 23 54  1  0
 24 55  1  6
 25 56  1  0
 25 57  1  0
 26 58  1  0
 26 59  1  0
 28 60  1  0
 28 61  1  0
 28 62  1  0
M  END
$$$$
