
     RDKit          3D

 47 49  0  0  0  0  0  0  0  0999 V2000
   -3.6890    2.3186    0.9896 C   0  0  0  0  0  0  0  0  0  0  0  0
   -2.6301    1.4247    0.5444 N   0  0  0  0  0  0  0  0  0  0  0  0
   -2.8073    0.0106    0.8179 C   0  0  0  0  0  0  0  0  0  0  0  0
   -4.2735   -0.2762    0.7101 C   0  0  0  0  0  0  0  0  0  0  0  0
   -5.0187   -0.3524    1.9081 C   0  0  0  0  0  0  0  0  0  0  0  0
   -6.3712   -0.5715    1.9234 C   0  0  0  0  0  0  0  0  0  0  0  0
   -7.0780   -0.7287    0.7505 C   0  0  0  0  0  0  0  0  0  0  0  0
   -6.3546   -0.6564   -0.4301 C   0  0  0  0  0  0  0  0  0  0  0  0
   -4.9765   -0.4345   -0.4470 C   0  0  0  0  0  0  0  0  0  0  0  0
   -1.5235    1.8420   -0.2195 C   0  0  0  0  0  0  0  0  0  0  0  0
   -1.5029    3.0655   -0.5516 O   0  0  0  0  0  0  0  0  0  0  0  0
   -0.4826    0.9153   -0.5776 C   0  0  0  0  0  0  0  0  0  0  0  0
   -0.5430   -0.0381   -1.5508 C   0  0  0  0  0  0  0  0  0  0  0  0
    0.4880   -0.8987   -1.8201 C   0  0  0  0  0  0  0  0  0  0  0  0
    1.6926   -0.8417   -1.0902 C   0  0  0  0  0  0  0  0  0  0  0  0
    2.9070   -1.9885   -1.4753 S   0  0  0  0  0  6  0  0  0  0  0  0
    3.3223   -1.6857   -2.9238 O   0  0  0  0  0  0  0  0  0  0  0  0
    2.2869   -3.3748   -1.5175 O   0  0  0  0  0  0  0  0  0  0  0  0
    4.2791   -1.9972   -0.5143 N   0  0  0  0  0  0  0  0  0  0  0  0
    5.2225   -0.9733   -0.3478 C   0  0  0  0  0  0  0  0  0  0  0  0
    5.1032    0.2865   -0.8636 C   0  0  0  0  0  0  0  0  0  0  0  0
    6.0815    1.2755   -0.7097 C   0  0  0  0  0  0  0  0  0  0  0  0
    7.2322    0.9921   -0.0062 C   0  0  0  0  0  0  0  0  0  0  0  0
    7.3913   -0.2715    0.5332 C   0  0  0  0  0  0  0  0  0  0  0  0
    6.4123   -1.2171    0.3621 C   0  0  0  0  0  0  0  0  0  0  0  0
    1.7532    0.1099   -0.1192 C   0  0  0  0  0  0  0  0  0  0  0  0
    0.6999    0.9848    0.1516 C   0  0  0  0  0  0  0  0  0  0  0  0
   -3.3619    3.3584    1.0949 H   0  0  0  0  0  0  0  0  0  0  0  0
   -4.1726    1.9986    1.9284 H   0  0  0  0  0  0  0  0  0  0  0  0
   -4.5067    2.3329    0.1914 H   0  0  0  0  0  0  0  0  0  0  0  0
   -2.2731   -0.6187    0.0728 H   0  0  0  0  0  0  0  0  0  0  0  0
   -2.4801   -0.1829    1.8467 H   0  0  0  0  0  0  0  0  0  0  0  0
   -4.4408   -0.2268    2.8261 H   0  0  0  0  0  0  0  0  0  0  0  0
   -6.8636   -0.6181    2.9084 H   0  0  0  0  0  0  0  0  0  0  0  0
   -8.1513   -0.9011    0.7902 H   0  0  0  0  0  0  0  0  0  0  0  0
   -6.9200   -0.7746   -1.3443 H   0  0  0  0  0  0  0  0  0  0  0  0
   -4.4358   -0.3815   -1.3946 H   0  0  0  0  0  0  0  0  0  0  0  0
   -1.4474   -0.1234   -2.1299 H   0  0  0  0  0  0  0  0  0  0  0  0
    0.4250   -1.6559   -2.6029 H   0  0  0  0  0  0  0  0  0  0  0  0
    4.4874   -2.8974    0.0536 H   0  0  0  0  0  0  0  0  0  0  0  0
    4.2403    0.5563   -1.4178 H   0  0  0  0  0  0  0  0  0  0  0  0
    5.9364    2.2576   -1.1383 H   0  0  0  0  0  0  0  0  0  0  0  0
    8.0304    1.7220    0.1434 H   0  0  0  0  0  0  0  0  0  0  0  0
    8.2957   -0.4928    1.0878 H   0  0  0  0  0  0  0  0  0  0  0  0
    6.5628   -2.1978    0.7952 H   0  0  0  0  0  0  0  0  0  0  0  0
    2.6517    0.1982    0.4809 H   0  0  0  0  0  0  0  0  0  0  0  0
    0.8026    1.7279    0.9353 H   0  0  0  0  0  0  0  0  0  0  0  0
  1  2  1  0
  2  3  1  0
  3  4  1  0
  4  5  2  0
  5  6  1  0
  6  7  2  0
  7  8  1  0
  8  9  2  0
  2 10  1  0
 10 11  2  0
 10 12  1  0
 12 13  2  0
 13 14  1  0
 14 15  2  0
 15 16  1  0
 16 17  2  0
 16 18  2  0
 16 19  1  0
 19 20  1  0
 20 21  2  0
 21 22  1  0
 22 23  2  0
 23 24  1  0
 24 25  2  0
 15 26  1  0
 26 27  2  0
  9  4  1  0
 27 12  1  0
 25 20  1  0
  1 28  1  0
  1 29  1  0
  1 30  1  0
  3 31  1  0
  3 32  1  0
  5 33  1  0
  6 34  1  0
  7 35  1  0
  8 36  1  0
  9 37  1  0
 13 38  1  0
 14 39  1  0
 19 40  1  0
 21 41  1  0
 22 42  1  0
 23 43  1  0
 24 44  1  0
 25 45  1  0
 26 46  1  0
 27 47  1  0
M  END
$$$$
