
     RDKit          3D

 49 50  0  0  0  0  0  0  0  0999 V2000
   -5.0937   -1.6365   -0.3159 C   0  0  0  0  0  0  0  0  0  0  0  0
   -3.6655   -1.2018   -0.2250 C   0  0  0  0  0  0  0  0  0  0  0  0
   -3.3237   -0.7847    1.2018 C   0  0  0  0  0  0  0  0  0  0  0  0
   -1.8862   -0.3477    1.3051 C   0  0  0  0  0  0  0  0  0  0  0  0
   -1.6290    0.7444    0.4634 N   0  0  0  0  0  0  0  0  0  0  0  0
   -2.2301    1.9328    0.8369 C   0  0  0  0  0  0  0  0  0  0  0  0
   -2.2042    2.9888   -0.2786 C   0  0  0  0  0  0  0  0  0  0  0  0
   -0.7418    3.1188   -0.6450 C   0  0  0  0  0  0  0  0  0  0  0  0
   -0.3953    1.8361   -1.3623 C   0  0  0  0  0  0  0  0  0  0  0  0
   -0.6875    0.6102   -0.5453 C   0  0  0  0  0  0  0  0  0  0  0  0
    0.6393    0.0645   -0.0792 C   0  0  0  0  0  0  0  0  0  0  0  0
    0.7897   -0.1309    1.1724 O   0  0  0  0  0  0  0  0  0  0  0  0
    1.7258   -0.2463   -0.9397 N   0  0  0  0  0  0  0  0  0  0  0  0
    2.8853   -0.7469   -0.3157 C   0  0  0  0  0  0  0  0  0  0  0  0
    3.8680    0.1464    0.0729 C   0  0  0  0  0  0  0  0  0  0  0  0
    3.7055    1.6010   -0.1722 C   0  0  0  0  0  0  0  0  0  0  0  0
    5.0523   -0.2529    0.7041 C   0  0  0  0  0  0  0  0  0  0  0  0
    5.2320   -1.6001    0.9417 C   0  0  0  0  0  0  0  0  0  0  0  0
    4.2594   -2.5329    0.5627 C   0  0  0  0  0  0  0  0  0  0  0  0
    3.1121   -2.0835   -0.0558 C   0  0  0  0  0  0  0  0  0  0  0  0
    2.0522   -3.0519   -0.4719 C   0  0  0  0  0  0  0  0  0  0  0  0
   -5.1175   -2.7298   -0.5423 H   0  0  0  0  0  0  0  0  0  0  0  0
   -5.7108   -1.3809    0.5547 H   0  0  0  0  0  0  0  0  0  0  0  0
   -5.5935   -1.1757   -1.2181 H   0  0  0  0  0  0  0  0  0  0  0  0
   -3.5119   -0.2876   -0.8602 H   0  0  0  0  0  0  0  0  0  0  0  0
   -2.9796   -2.0165   -0.5695 H   0  0  0  0  0  0  0  0  0  0  0  0
   -4.0490   -0.0090    1.4912 H   0  0  0  0  0  0  0  0  0  0  0  0
   -3.4633   -1.7077    1.8413 H   0  0  0  0  0  0  0  0  0  0  0  0
   -1.2559   -1.2466    1.1060 H   0  0  0  0  0  0  0  0  0  0  0  0
   -1.7235   -0.0877    2.3965 H   0  0  0  0  0  0  0  0  0  0  0  0
   -1.7955    2.4420    1.7351 H   0  0  0  0  0  0  0  0  0  0  0  0
   -3.3107    1.8055    1.0643 H   0  0  0  0  0  0  0  0  0  0  0  0
   -2.6289    3.9455    0.0834 H   0  0  0  0  0  0  0  0  0  0  0  0
   -2.7287    2.5937   -1.1702 H   0  0  0  0  0  0  0  0  0  0  0  0
   -0.5944    3.9555   -1.3286 H   0  0  0  0  0  0  0  0  0  0  0  0
   -0.1722    3.2274    0.3078 H   0  0  0  0  0  0  0  0  0  0  0  0
   -0.9872    1.8416   -2.2995 H   0  0  0  0  0  0  0  0  0  0  0  0
    0.6713    1.8924   -1.6352 H   0  0  0  0  0  0  0  0  0  0  0  0
   -1.0666   -0.1594   -1.2663 H   0  0  0  0  0  0  0  0  0  0  0  0
    1.5610   -0.0729   -1.9684 H   0  0  0  0  0  0  0  0  0  0  0  0
    3.4613    2.1872    0.7097 H   0  0  0  0  0  0  0  0  0  0  0  0
    2.9893    1.7095   -1.0056 H   0  0  0  0  0  0  0  0  0  0  0  0
    4.6913    1.9719   -0.5830 H   0  0  0  0  0  0  0  0  0  0  0  0
    5.8031    0.4589    0.9965 H   0  0  0  0  0  0  0  0  0  0  0  0
    6.1459   -1.9683    1.4358 H   0  0  0  0  0  0  0  0  0  0  0  0
    4.4187   -3.6037    0.7601 H   0  0  0  0  0  0  0  0  0  0  0  0
    1.4355   -2.6267   -1.3147 H   0  0  0  0  0  0  0  0  0  0  0  0
    2.5740   -3.9373   -0.9323 H   0  0  0  0  0  0  0  0  0  0  0  0
    1.4735   -3.4484    0.3569 H   0  0  0  0  0  0  0  0  0  0  0  0
  1  2  1  0
  2  3  1  0
  3  4  1  0
  4  5  1  0
  5  6  1  0
  6  7  1  0
  7  8  1  0
  8  9  1  0
  9 10  1  0
 10 11  1  0
 11 12  2  0
 11 13  1  0
 13 14  1  0
 14 15  2  0
 15 16  1  0
 15 17  1  0
 17 18  2  0
 18 19  1  0
 19 20  2  0
 20 21  1  0
 10  5  1  0
 20 14  1  0
  1 22  1  0
  1 23  1  0
  1 24  1  0
  2 25  1  0
  2 26  1  0
  3 27  1  0
  3 28  1  0
  4 29  1  0
  4 30  1  0
  6 31  1  0
  6 32  1  0
  7 33  1  0
  7 34  1  0
  8 35  1  0
  8 36  1  0
  9 37  1  0
  9 38  1  0
 10 39  1  0
 13 40  1  0
 16 41  1  0
 16 42  1  0
 16 43  1  0
 17 44  1  0
 18 45  1  0
 19 46  1  0
 21 47  1  0
 21 48  1  0
 21 49  1  0
M  END
$$$$
