
     RDKit          3D

258257  0  0  0  0  0  0  0  0999 V2000
   -4.4812   -5.7331   -5.3618 C   0  0  0  0  0  0  0  0  0  0  0  0
   -3.0975   -6.3748   -5.2308 C   0  0  0  0  0  0  0  0  0  0  0  0
   -2.2069   -5.4417   -4.4907 C   0  0  0  0  0  0  0  0  0  0  0  0
   -0.7901   -5.9931   -4.2756 C   0  0  0  0  0  0  0  0  0  0  0  0
   -0.8573   -7.2614   -3.5021 C   0  0  0  0  0  0  0  0  0  0  0  0
    0.3848   -7.9478   -3.1664 C   0  0  0  0  0  0  0  0  0  0  0  0
    1.3450   -7.2251   -2.3173 C   0  0  0  0  0  0  0  0  0  0  0  0
    0.7046   -6.7142   -1.0283 C   0  0  0  0  0  0  0  0  0  0  0  0
    1.7657   -6.2596   -0.1357 C   0  0  0  0  0  0  0  0  0  0  0  0
    2.7516   -5.2006   -0.6514 C   0  0  0  0  0  0  0  0  0  0  0  0
    3.7145   -5.0349    0.5105 C   0  0  0  0  0  0  0  0  0  0  0  0
    4.8848   -4.1832    0.3961 C   0  0  0  0  0  0  0  0  0  0  0  0
    4.7522   -2.7348    0.1173 C   0  0  0  0  0  0  0  0  0  0  0  0
    3.9164   -1.9505    1.1102 C   0  0  0  0  0  0  0  0  0  0  0  0
    3.9372   -0.4889    0.8075 C   0  0  0  0  0  0  0  0  0  0  0  0
    3.1110    0.4137    1.6429 C   0  0  0  0  0  0  0  0  0  0  0  0
    3.3345    0.5014    3.0976 C   0  0  0  0  0  0  0  0  0  0  0  0
    2.4379    1.4385    3.8496 C   0  0  0  0  0  0  0  0  0  0  0  0
    1.2782    1.0322    4.1940 O   0  0  0  0  0  0  0  0  0  0  0  0
    2.2147    2.6814    4.4372 O   0  0  0  0  0  0  0  0  0  0  0  0
    1.0564    3.0072    5.1001 C   0  0  0  0  0  0  0  0  0  0  0  0
   -0.2460    3.2388    4.3813 C   0  0  2  0  0  0  0  0  0  0  0  0
   -0.3325    4.6231    3.7390 C   0  0  0  0  0  0  0  0  0  0  0  0
    0.5441    4.8041    2.7384 O   0  0  0  0  0  0  0  0  0  0  0  0
    0.3003    6.1296    1.7067 P   0  0  1  0  0  5  0  0  0  0  0  0
   -0.0929    7.4552    2.6871 O   0  0  0  0  0  0  0  0  0  0  0  0
    1.6654    6.4305    1.1046 O   0  0  0  0  0  0  0  0  0  0  0  0
   -0.7577    5.8862    0.4735 O   0  0  0  0  0  0  0  0  0  0  0  0
   -0.6035    6.4264   -0.7426 C   0  0  0  0  0  0  0  0  0  0  0  0
   -1.8057    5.9805   -1.6282 C   0  0  0  0  0  0  0  0  0  0  0  0
   -2.9823    6.3314   -0.9818 O   0  0  0  0  0  0  0  0  0  0  0  0
   -1.7079    4.5000   -1.9586 C   0  0  0  0  0  0  0  0  0  0  0  0
   -2.8083    4.0840   -2.6504 O   0  0  0  0  0  0  0  0  0  0  0  0
   -2.6449    2.7510   -3.6492 P   0  0  2  0  0  5  0  0  0  0  0  0
   -1.6136    3.2201   -4.9835 O   0  0  0  0  0  0  0  0  0  0  0  0
   -4.0176    2.5658   -4.3390 O   0  0  0  0  0  0  0  0  0  0  0  0
   -2.1623    1.3970   -2.9943 O   0  0  0  0  0  0  0  0  0  0  0  0
   -2.7310    0.2389   -2.6735 C   0  0  0  0  0  0  0  0  0  0  0  0
   -1.7156   -0.9145   -2.7701 C   0  0  1  0  0  0  0  0  0  0  0  0
   -1.5946   -1.9209   -1.7566 C   0  0  0  0  0  0  0  0  0  0  0  0
   -1.9237   -1.5166   -0.4463 O   0  0  0  0  0  0  0  0  0  0  0  0
   -1.6350   -2.3842    0.6188 C   0  0  0  0  0  0  0  0  0  0  0  0
   -1.1031   -3.4050    0.0470 O   0  0  0  0  0  0  0  0  0  0  0  0
   -1.6921   -2.5836    2.0756 C   0  0  0  0  0  0  0  0  0  0  0  0
   -0.2865   -2.5240    2.7101 C   0  0  0  0  0  0  0  0  0  0  0  0
   -0.2830   -2.7237    4.1839 C   0  0  0  0  0  0  0  0  0  0  0  0
    1.0830   -2.5855    4.8154 C   0  0  0  0  0  0  0  0  0  0  0  0
    2.0926   -3.5684    4.3328 C   0  0  0  0  0  0  0  0  0  0  0  0
    3.4808   -3.2970    4.9016 C   0  0  0  0  0  0  0  0  0  0  0  0
    4.4810   -4.3185    4.4487 C   0  0  0  0  0  0  0  0  0  0  0  0
    5.9170   -4.0163    4.8125 C   0  0  0  0  0  0  0  0  0  0  0  0
    6.4189   -2.7777    4.1236 C   0  0  0  0  0  0  0  0  0  0  0  0
    7.8778   -2.4842    4.3915 C   0  0  0  0  0  0  0  0  0  0  0  0
    8.3041   -1.2639    3.6009 C   0  0  0  0  0  0  0  0  0  0  0  0
    7.5814   -0.0140    3.9313 C   0  0  0  0  0  0  0  0  0  0  0  0
    8.0862    1.0769    2.9696 C   0  0  0  0  0  0  0  0  0  0  0  0
    7.3552    2.3644    3.3213 C   0  0  0  0  0  0  0  0  0  0  0  0
    7.6923    3.5097    2.4185 C   0  0  0  0  0  0  0  0  0  0  0  0
    7.3079    3.2647    0.9783 C   0  0  0  0  0  0  0  0  0  0  0  0
    7.6055    4.4023    0.0507 C   0  0  0  0  0  0  0  0  0  0  0  0
   -1.3345   -1.2981   -4.0635 O   0  0  0  0  0  0  0  0  0  0  0  0
   -0.4724   -0.6087   -4.8367 C   0  0  0  0  0  0  0  0  0  0  0  0
   -0.1383    0.4565   -4.3182 O   0  0  0  0  0  0  0  0  0  0  0  0
    0.2969   -0.6556   -6.1768 C   0  0  0  0  0  0  0  0  0  0  0  0
    0.9802    0.7093   -6.2156 C   0  0  0  0  0  0  0  0  0  0  0  0
    1.9121    0.9262   -5.0378 C   0  0  0  0  0  0  0  0  0  0  0  0
    2.2409    2.3749   -4.9947 C   0  0  0  0  0  0  0  0  0  0  0  0
    2.8066    2.8144   -3.6062 C   0  0  0  0  0  0  0  0  0  0  0  0
    1.7844    2.4200   -2.6134 C   0  0  0  0  0  0  0  0  0  0  0  0
    1.8351    2.8602   -1.1770 C   0  0  0  0  0  0  0  0  0  0  0  0
    0.6524    2.0685   -0.6016 C   0  0  0  0  0  0  0  0  0  0  0  0
    0.3458    2.2704    0.8197 C   0  0  0  0  0  0  0  0  0  0  0  0
   -0.7594    1.2937    1.2133 C   0  0  0  0  0  0  0  0  0  0  0  0
   -2.1385    1.6876    0.6808 C   0  0  0  0  0  0  0  0  0  0  0  0
   -2.6026    2.9650    1.3414 C   0  0  0  0  0  0  0  0  0  0  0  0
   -3.9225    3.5034    0.8688 C   0  0  0  0  0  0  0  0  0  0  0  0
   -4.2611    4.8060    1.6489 C   0  0  0  0  0  0  0  0  0  0  0  0
   -4.4307    4.4772    3.1114 C   0  0  0  0  0  0  0  0  0  0  0  0
   -4.7356    5.7507    3.9141 C   0  0  0  0  0  0  0  0  0  0  0  0
   -4.9301    5.3265    5.3435 C   0  0  0  0  0  0  0  0  0  0  0  0
   -1.3033    3.2077    5.4183 O   0  0  0  0  0  0  0  0  0  0  0  0
   -2.2338    2.1666    5.3489 C   0  0  0  0  0  0  0  0  0  0  0  0
   -2.4172    1.2238    4.5713 O   0  0  0  0  0  0  0  0  0  0  0  0
   -3.4149    1.5220    5.9630 C   0  0  0  0  0  0  0  0  0  0  0  0
   -4.0739    0.4318    5.1603 C   0  0  0  0  0  0  0  0  0  0  0  0
   -4.7491    0.7928    3.9103 C   0  0  0  0  0  0  0  0  0  0  0  0
   -5.3326   -0.4139    3.1218 C   0  0  0  0  0  0  0  0  0  0  0  0
   -6.0176    0.2121    1.9380 C   0  0  0  0  0  0  0  0  0  0  0  0
   -6.6075   -0.7405    0.9248 C   0  0  0  0  0  0  0  0  0  0  0  0
   -7.3525    0.1513   -0.0635 C   0  0  0  0  0  0  0  0  0  0  0  0
   -7.9746   -0.5543   -1.2018 C   0  0  0  0  0  0  0  0  0  0  0  0
   -7.0437   -1.1554   -2.2305 C   0  0  0  0  0  0  0  0  0  0  0  0
   -7.7931   -1.9050   -3.2713 C   0  0  0  0  0  0  0  0  0  0  0  0
   -6.9713   -2.4263   -4.4042 C   0  0  0  0  0  0  0  0  0  0  0  0
   -6.3961   -1.3307   -5.2940 C   0  0  0  0  0  0  0  0  0  0  0  0
   -5.6274   -2.0445   -6.3796 C   0  0  0  0  0  0  0  0  0  0  0  0
   -5.0508   -1.2125   -7.4533 C   0  0  0  0  0  0  0  0  0  0  0  0
   -4.0545   -0.1642   -7.1134 C   0  0  0  0  0  0  0  0  0  0  0  0
   -3.5794    0.5407   -8.3872 C   0  0  0  0  0  0  0  0  0  0  0  0
   -2.5658    1.6190   -8.0995 C   0  0  0  0  0  0  0  0  0  0  0  0
   -5.2373   -6.4181   -4.8984 H   0  0  0  0  0  0  0  0  0  0  0  0
   -4.5352   -4.7431   -4.9047 H   0  0  0  0  0  0  0  0  0  0  0  0
   -4.8027   -5.6717   -6.4393 H   0  0  0  0  0  0  0  0  0  0  0  0
   -3.2043   -7.3527   -4.7518 H   0  0  0  0  0  0  0  0  0  0  0  0
   -2.7277   -6.5227   -6.2722 H   0  0  0  0  0  0  0  0  0  0  0  0
   -2.0468   -4.5284   -5.1098 H   0  0  0  0  0  0  0  0  0  0  0  0
   -2.6687   -5.1665   -3.5363 H   0  0  0  0  0  0  0  0  0  0  0  0
   -0.2351   -5.1939   -3.7875 H   0  0  0  0  0  0  0  0  0  0  0  0
   -0.3347   -6.1483   -5.2697 H   0  0  0  0  0  0  0  0  0  0  0  0
   -1.5138   -8.0178   -4.0514 H   0  0  0  0  0  0  0  0  0  0  0  0
   -1.4447   -7.0884   -2.5589 H   0  0  0  0  0  0  0  0  0  0  0  0
    0.1112   -8.8992   -2.5998 H   0  0  0  0  0  0  0  0  0  0  0  0
    0.9678   -8.2738   -4.0867 H   0  0  0  0  0  0  0  0  0  0  0  0
    1.7794   -6.3017   -2.7909 H   0  0  0  0  0  0  0  0  0  0  0  0
    2.1927   -7.8839   -1.9868 H   0  0  0  0  0  0  0  0  0  0  0  0
    0.0297   -5.8451   -1.2741 H   0  0  0  0  0  0  0  0  0  0  0  0
    0.1357   -7.5241   -0.5286 H   0  0  0  0  0  0  0  0  0  0  0  0
    1.3509   -5.8773    0.8590 H   0  0  0  0  0  0  0  0  0  0  0  0
    2.3768   -7.1591    0.1933 H   0  0  0  0  0  0  0  0  0  0  0  0
    2.2265   -4.2425   -0.8289 H   0  0  0  0  0  0  0  0  0  0  0  0
    3.2674   -5.5523   -1.5511 H   0  0  0  0  0  0  0  0  0  0  0  0
    3.1240   -4.7104    1.4111 H   0  0  0  0  0  0  0  0  0  0  0  0
    4.0827   -6.0983    0.6792 H   0  0  0  0  0  0  0  0  0  0  0  0
    5.5518   -4.3165    1.3302 H   0  0  0  0  0  0  0  0  0  0  0  0
    5.5674   -4.6636   -0.3824 H   0  0  0  0  0  0  0  0  0  0  0  0
    4.4205   -2.5228   -0.9279 H   0  0  0  0  0  0  0  0  0  0  0  0
    5.8073   -2.3113    0.1610 H   0  0  0  0  0  0  0  0  0  0  0  0
    4.1965   -2.2515    2.1112 H   0  0  0  0  0  0  0  0  0  0  0  0
    2.8608   -2.2887    0.9537 H   0  0  0  0  0  0  0  0  0  0  0  0
    4.9904   -0.1176    0.8170 H   0  0  0  0  0  0  0  0  0  0  0  0
    3.5307   -0.4115   -0.2516 H   0  0  0  0  0  0  0  0  0  0  0  0
    3.2848    1.4858    1.2643 H   0  0  0  0  0  0  0  0  0  0  0  0
    2.0548    0.1898    1.3676 H   0  0  0  0  0  0  0  0  0  0  0  0
    4.3814    0.7382    3.3252 H   0  0  0  0  0  0  0  0  0  0  0  0
    3.0419   -0.5102    3.5180 H   0  0  0  0  0  0  0  0  0  0  0  0
    0.8600    2.2334    5.9188 H   0  0  0  0  0  0  0  0  0  0  0  0
    1.3177    3.9457    5.6933 H   0  0  0  0  0  0  0  0  0  0  0  0
   -0.4473    2.4392    3.7274 H   0  0  0  0  0  0  0  0  0  0  0  0
    0.0018    5.3143    4.5859 H   0  0  0  0  0  0  0  0  0  0  0  0
   -1.3674    4.9450    3.5444 H   0  0  0  0  0  0  0  0  0  0  0  0
   -0.5772    7.2017    3.5063 H   0  0  0  0  0  0  0  0  0  0  0  0
   -0.6108    7.5268   -0.7070 H   0  0  0  0  0  0  0  0  0  0  0  0
    0.3390    6.1520   -1.2688 H   0  0  0  0  0  0  0  0  0  0  0  0
   -1.7669    6.5353   -2.5785 H   0  0  0  0  0  0  0  0  0  0  0  0
   -3.6534    6.5977   -1.6862 H   0  0  0  0  0  0  0  0  0  0  0  0
   -1.5727    3.9935   -1.0197 H   0  0  0  0  0  0  0  0  0  0  0  0
   -0.8282    4.3346   -2.6534 H   0  0  0  0  0  0  0  0  0  0  0  0
   -2.0880    4.0035   -5.3422 H   0  0  0  0  0  0  0  0  0  0  0  0
   -3.6342   -0.0325   -3.2779 H   0  0  0  0  0  0  0  0  0  0  0  0
   -3.0749    0.2135   -1.6333 H   0  0  0  0  0  0  0  0  0  0  0  0
   -0.7678   -0.1967   -2.5357 H   0  0  0  0  0  0  0  0  0  0  0  0
   -2.1448   -2.8893   -1.9749 H   0  0  0  0  0  0  0  0  0  0  0  0
   -0.4827   -2.1975   -1.6731 H   0  0  0  0  0  0  0  0  0  0  0  0
   -2.3132   -1.7560    2.5055 H   0  0  0  0  0  0  0  0  0  0  0  0
   -2.1232   -3.5298    2.3822 H   0  0  0  0  0  0  0  0  0  0  0  0
    0.2230   -3.4385    2.2814 H   0  0  0  0  0  0  0  0  0  0  0  0
    0.2580   -1.6228    2.4117 H   0  0  0  0  0  0  0  0  0  0  0  0
   -0.6883   -3.6959    4.4904 H   0  0  0  0  0  0  0  0  0  0  0  0
   -0.9356   -1.9389    4.6529 H   0  0  0  0  0  0  0  0  0  0  0  0
    0.8925   -2.8742    5.9101 H   0  0  0  0  0  0  0  0  0  0  0  0
    1.4337   -1.5608    4.8842 H   0  0  0  0  0  0  0  0  0  0  0  0
    1.7942   -4.5915    4.5500 H   0  0  0  0  0  0  0  0  0  0  0  0
    2.1836   -3.4013    3.2329 H   0  0  0  0  0  0  0  0  0  0  0  0
    3.3347   -3.4771    6.0222 H   0  0  0  0  0  0  0  0  0  0  0  0
    3.7987   -2.2595    4.8522 H   0  0  0  0  0  0  0  0  0  0  0  0
    4.2408   -5.3016    4.9581 H   0  0  0  0  0  0  0  0  0  0  0  0
    4.3622   -4.5418    3.3782 H   0  0  0  0  0  0  0  0  0  0  0  0
    5.9433   -3.8776    5.9150 H   0  0  0  0  0  0  0  0  0  0  0  0
    6.5980   -4.8500    4.5645 H   0  0  0  0  0  0  0  0  0  0  0  0
    5.8496   -1.9117    4.5436 H   0  0  0  0  0  0  0  0  0  0  0  0
    6.3145   -2.8492    3.0214 H   0  0  0  0  0  0  0  0  0  0  0  0
    8.4441   -3.3425    3.9791 H   0  0  0  0  0  0  0  0  0  0  0  0
    8.0904   -2.3227    5.4358 H   0  0  0  0  0  0  0  0  0  0  0  0
    8.1970   -1.4501    2.5010 H   0  0  0  0  0  0  0  0  0  0  0  0
    9.3751   -1.1186    3.8402 H   0  0  0  0  0  0  0  0  0  0  0  0
    6.5185   -0.1689    3.6504 H   0  0  0  0  0  0  0  0  0  0  0  0
    7.7063    0.3377    4.9593 H   0  0  0  0  0  0  0  0  0  0  0  0
    9.1743    1.2402    3.0458 H   0  0  0  0  0  0  0  0  0  0  0  0
    7.7725    0.7761    1.9584 H   0  0  0  0  0  0  0  0  0  0  0  0
    7.6380    2.6680    4.3766 H   0  0  0  0  0  0  0  0  0  0  0  0
    6.2707    2.2299    3.3596 H   0  0  0  0  0  0  0  0  0  0  0  0
    8.7914    3.7201    2.4222 H   0  0  0  0  0  0  0  0  0  0  0  0
    7.2051    4.4449    2.7370 H   0  0  0  0  0  0  0  0  0  0  0  0
    7.8716    2.3793    0.5661 H   0  0  0  0  0  0  0  0  0  0  0  0
    6.2336    2.9959    0.8710 H   0  0  0  0  0  0  0  0  0  0  0  0
    6.7076    5.0134   -0.1865 H   0  0  0  0  0  0  0  0  0  0  0  0
    8.3438    5.1240    0.4457 H   0  0  0  0  0  0  0  0  0  0  0  0
    8.0196    4.0889   -0.9349 H   0  0  0  0  0  0  0  0  0  0  0  0
    1.0743   -1.4189   -6.0959 H   0  0  0  0  0  0  0  0  0  0  0  0
   -0.4174   -0.7873   -6.9711 H   0  0  0  0  0  0  0  0  0  0  0  0
    0.1878    1.5169   -6.1598 H   0  0  0  0  0  0  0  0  0  0  0  0
    1.5200    0.8565   -7.1497 H   0  0  0  0  0  0  0  0  0  0  0  0
    1.8228    0.3477   -4.1616 H   0  0  0  0  0  0  0  0  0  0  0  0
    2.9086    0.4247   -5.4881 H   0  0  0  0  0  0  0  0  0  0  0  0
    3.0308    2.6393   -5.7126 H   0  0  0  0  0  0  0  0  0  0  0  0
    1.3886    3.0605   -5.2084 H   0  0  0  0  0  0  0  0  0  0  0  0
    3.7404    2.2437   -3.4758 H   0  0  0  0  0  0  0  0  0  0  0  0
    2.9830    3.8959   -3.6932 H   0  0  0  0  0  0  0  0  0  0  0  0
    1.7575    1.2787   -2.6076 H   0  0  0  0  0  0  0  0  0  0  0  0
    0.7754    2.6780   -3.0339 H   0  0  0  0  0  0  0  0  0  0  0  0
    2.7681    2.7114   -0.6625 H   0  0  0  0  0  0  0  0  0  0  0  0
    1.5644    3.9342   -1.0990 H   0  0  0  0  0  0  0  0  0  0  0  0
    1.0593    0.9917   -0.6536 H   0  0  0  0  0  0  0  0  0  0  0  0
   -0.1879    2.1833   -1.2570 H   0  0  0  0  0  0  0  0  0  0  0  0
    1.1850    2.3476    1.4521 H   0  0  0  0  0  0  0  0  0  0  0  0
   -0.2352    3.2674    0.8057 H   0  0  0  0  0  0  0  0  0  0  0  0
   -0.5296    0.3335    0.6077 H   0  0  0  0  0  0  0  0  0  0  0  0
   -0.7806    0.9445    2.2174 H   0  0  0  0  0  0  0  0  0  0  0  0
   -2.8828    0.9103    0.9275 H   0  0  0  0  0  0  0  0  0  0  0  0
   -2.0036    1.8683   -0.3712 H   0  0  0  0  0  0  0  0  0  0  0  0
   -1.9014    3.8028    1.2866 H   0  0  0  0  0  0  0  0  0  0  0  0
   -2.6685    2.7462    2.4224 H   0  0  0  0  0  0  0  0  0  0  0  0
   -3.8613    3.7831   -0.1836 H   0  0  0  0  0  0  0  0  0  0  0  0
   -4.7879    2.8661    1.0685 H   0  0  0  0  0  0  0  0  0  0  0  0
   -3.4325    5.5217    1.5667 H   0  0  0  0  0  0  0  0  0  0  0  0
   -5.2001    5.1422    1.2059 H   0  0  0  0  0  0  0  0  0  0  0  0
   -3.5443    4.0537    3.5986 H   0  0  0  0  0  0  0  0  0  0  0  0
   -5.2713    3.7470    3.2776 H   0  0  0  0  0  0  0  0  0  0  0  0
   -3.7673    6.3202    3.8709 H   0  0  0  0  0  0  0  0  0  0  0  0
   -5.5124    6.3699    3.4808 H   0  0  0  0  0  0  0  0  0  0  0  0
   -5.5056    6.0519    5.9266 H   0  0  0  0  0  0  0  0  0  0  0  0
   -5.4170    4.3222    5.3433 H   0  0  0  0  0  0  0  0  0  0  0  0
   -3.9200    5.1863    5.8069 H   0  0  0  0  0  0  0  0  0  0  0  0
   -3.1024    1.1526    6.9690 H   0  0  0  0  0  0  0  0  0  0  0  0
   -4.1454    2.3530    6.1613 H   0  0  0  0  0  0  0  0  0  0  0  0
   -4.7944   -0.0621    5.8868 H   0  0  0  0  0  0  0  0  0  0  0  0
   -3.3034   -0.3831    4.9892 H   0  0  0  0  0  0  0  0  0  0  0  0
   -4.1519    1.3078    3.1561 H   0  0  0  0  0  0  0  0  0  0  0  0
   -5.6765    1.3670    4.1797 H   0  0  0  0  0  0  0  0  0  0  0  0
   -4.5564   -1.0869    2.7669 H   0  0  0  0  0  0  0  0  0  0  0  0
   -6.0483   -0.9865    3.7328 H   0  0  0  0  0  0  0  0  0  0  0  0
   -5.1867    0.7238    1.3562 H   0  0  0  0  0  0  0  0  0  0  0  0
   -6.7819    0.9552    2.1697 H   0  0  0  0  0  0  0  0  0  0  0  0
   -5.8796   -1.3739    0.4254 H   0  0  0  0  0  0  0  0  0  0  0  0
   -7.3620   -1.3786    1.4255 H   0  0  0  0  0  0  0  0  0  0  0  0
   -6.6277    0.9098   -0.4317 H   0  0  0  0  0  0  0  0  0  0  0  0
   -8.1821    0.6308    0.5333 H   0  0  0  0  0  0  0  0  0  0  0  0
   -8.7071    0.0614   -1.7597 H   0  0  0  0  0  0  0  0  0  0  0  0
   -8.6225   -1.3903   -0.7760 H   0  0  0  0  0  0  0  0  0  0  0  0
   -6.4148   -1.8975   -1.6481 H   0  0  0  0  0  0  0  0  0  0  0  0
   -6.4229   -0.3538   -2.6520 H   0  0  0  0  0  0  0  0  0  0  0  0
   -8.4138   -2.7244   -2.8587 H   0  0  0  0  0  0  0  0  0  0  0  0
   -8.5362   -1.1980   -3.7437 H   0  0  0  0  0  0  0  0  0  0  0  0
   -6.0639   -2.9120   -3.9143 H   0  0  0  0  0  0  0  0  0  0  0  0
   -7.4442   -3.1959   -4.9988 H   0  0  0  0  0  0  0  0  0  0  0  0
   -5.8648   -0.5655   -4.7542 H   0  0  0  0  0  0  0  0  0  0  0  0
   -7.2690   -0.8448   -5.8213 H   0  0  0  0  0  0  0  0  0  0  0  0
   -4.7876   -2.6498   -5.9463 H   0  0  0  0  0  0  0  0  0  0  0  0
   -6.3158   -2.8207   -6.8222 H   0  0  0  0  0  0  0  0  0  0  0  0
   -5.8423   -0.7142   -8.0789 H   0  0  0  0  0  0  0  0  0  0  0  0
   -4.5456   -1.8916   -8.2023 H   0  0  0  0  0  0  0  0  0  0  0  0
   -4.4161    0.6161   -6.4355 H   0  0  0  0  0  0  0  0  0  0  0  0
   -3.1687   -0.6425   -6.6950 H   0  0  0  0  0  0  0  0  0  0  0  0
   -3.0740   -0.2119   -9.0620 H   0  0  0  0  0  0  0  0  0  0  0  0
   -4.3865    0.9690   -8.9749 H   0  0  0  0  0  0  0  0  0  0  0  0
   -2.8826    2.5945   -8.5394 H   0  0  0  0  0  0  0  0  0  0  0  0
   -2.3092    1.6738   -7.0248 H   0  0  0  0  0  0  0  0  0  0  0  0
   -1.5941    1.3884   -8.6256 H   0  0  0  0  0  0  0  0  0  0  0  0
  1  2  1  0
  2  3  1  0
  3  4  1  0
  4  5  1  0
  5  6  1  0
  6  7  1  0
  7  8  1  0
  8  9  1  0
  9 10  1  0
 10 11  1  0
 11 12  1  0
 12 13  1  0
 13 14  1  0
 14 15  1  0
 15 16  1  0
 16 17  1  0
 17 18  1  0
 18 19  2  0
 18 20  1  0
 20 21  1  0
 21 22  1  0
 22 23  1  0
 23 24  1  0
 25 24  1  1
 25 26  1  0
 25 27  2  0
 25 28  1  0
 28 29  1  0
 29 30  1  0
 30 31  1  0
 30 32  1  0
 32 33  1  0
 34 33  1  1
 34 35  1  0
 34 36  2  0
 34 37  1  0
 37 38  1  0
 38 39  1  0
 39 40  1  0
 40 41  1  0
 41 42  1  0
 42 43  2  0
 42 44  1  0
 44 45  1  0
 45 46  1  0
 46 47  1  0
 47 48  1  0
 48 49  1  0
 49 50  1  0
 50 51  1  0
 51 52  1  0
 52 53  1  0
 53 54  1  0
 54 55  1  0
 55 56  1  0
 56 57  1  0
 57 58  1  0
 58 59  1  0
 59 60  1  0
 39 61  1  0
 61 62  1  0
 62 63  2  0
 62 64  1  0
 64 65  1  0
 65 66  1  0
 66 67  1  0
 67 68  1  0
 68 69  1  0
 69 70  1  0
 70 71  1  0
 71 72  1  0
 72 73  1  0
 73 74  1  0
 74 75  1  0
 75 76  1  0
 76 77  1  0
 77 78  1  0
 78 79  1  0
 79 80  1  0
 22 81  1  0
 81 82  1  0
 82 83  2  0
 82 84  1  0
 84 85  1  0
 85 86  1  0
 86 87  1  0
 87 88  1  0
 88 89  1  0
 89 90  1  0
 90 91  1  0
 91 92  1  0
 92 93  1  0
 93 94  1  0
 94 95  1  0
 95 96  1  0
 96 97  1  0
 97 98  1  0
 98 99  1  0
 99100  1  0
  1101  1  0
  1102  1  0
  1103  1  0
  2104  1  0
  2105  1  0
  3106  1  0
  3107  1  0
  4108  1  0
  4109  1  0
  5110  1  0
  5111  1  0
  6112  1  0
  6113  1  0
  7114  1  0
  7115  1  0
  8116  1  0
  8117  1  0
  9118  1  0
  9119  1  0
 10120  1  0
 10121  1  0
 11122  1  0
 11123  1  0
 12124  1  0
 12125  1  0
 13126  1  0
 13127  1  0
 14128  1  0
 14129  1  0
 15130  1  0
 15131  1  0
 16132  1  0
 16133  1  0
 17134  1  0
 17135  1  0
 21136  1  0
 21137  1  0
 22138  1  6
 23139  1  0
 23140  1  0
 26141  1  0
 29142  1  0
 29143  1  0
 30144  1  0
 31145  1  0
 32146  1  0
 32147  1  0
 35148  1  0
 38149  1  0
 38150  1  0
 39151  1  1
 40152  1  0
 40153  1  0
 44154  1  0
 44155  1  0
 45156  1  0
 45157  1  0
 46158  1  0
 46159  1  0
 47160  1  0
 47161  1  0
 48162  1  0
 48163  1  0
 49164  1  0
 49165  1  0
 50166  1  0
 50167  1  0
 51168  1  0
 51169  1  0
 52170  1  0
 52171  1  0
 53172  1  0
 53173  1  0
 54174  1  0
 54175  1  0
 55176  1  0
 55177  1  0
 56178  1  0
 56179  1  0
 57180  1  0
 57181  1  0
 58182  1  0
 58183  1  0
 59184  1  0
 59185  1  0
 60186  1  0
 60187  1  0
 60188  1  0
 64189  1  0
 64190  1  0
 65191  1  0
 65192  1  0
 66193  1  0
 66194  1  0
 67195  1  0
 67196  1  0
 68197  1  0
 68198  1  0
 69199  1  0
 69200  1  0
 70201  1  0
 70202  1  0
 71203  1  0
 71204  1  0
 72205  1  0
 72206  1  0
 73207  1  0
 73208  1  0
 74209  1  0
 74210  1  0
 75211  1  0
 75212  1  0
 76213  1  0
 76214  1  0
 77215  1  0
 77216  1  0
 78217  1  0
 78218  1  0
 79219  1  0
 79220  1  0
 80221  1  0
 80222  1  0
 80223  1  0
 84224  1  0
 84225  1  0
 85226  1  0
 85227  1  0
 86228  1  0
 86229  1  0
 87230  1  0
 87231  1  0
 88232  1  0
 88233  1  0
 89234  1  0
 89235  1  0
 90236  1  0
 90237  1  0
 91238  1  0
 91239  1  0
 92240  1  0
 92241  1  0
 93242  1  0
 93243  1  0
 94244  1  0
 94245  1  0
 95246  1  0
 95247  1  0
 96248  1  0
 96249  1  0
 97250  1  0
 97251  1  0
 98252  1  0
 98253  1  0
 99254  1  0
 99255  1  0
100256  1  0
100257  1  0
100258  1  0
M  END
$$$$
