
     RDKit          3D

 56 55  0  0  0  0  0  0  0  0999 V2000
   -6.2161    0.4449    2.5321 C   0  0  0  0  0  0  0  0  0  0  0  0
   -5.3013   -0.5106    1.7536 C   0  0  0  0  0  0  0  0  0  0  0  0
   -6.0160   -1.1489    0.6126 C   0  0  0  0  0  0  0  0  0  0  0  0
   -5.2152   -2.0956   -0.2119 C   0  0  0  0  0  0  0  0  0  0  0  0
   -4.0161   -1.5167   -0.8908 C   0  0  0  0  0  0  0  0  0  0  0  0
   -4.4127   -0.4389   -1.8074 C   0  0  0  0  0  0  0  0  0  0  0  0
   -4.1463    0.8545   -1.9362 C   0  0  0  0  0  0  0  0  0  0  0  0
   -3.2190    1.6026   -1.0012 C   0  0  0  0  0  0  0  0  0  0  0  0
   -2.1058    2.1650   -1.7816 C   0  0  0  0  0  0  0  0  0  0  0  0
   -0.8024    1.9785   -1.7217 C   0  0  0  0  0  0  0  0  0  0  0  0
   -0.3389    1.0208   -0.6752 C   0  0  0  0  0  0  0  0  0  0  0  0
    0.5684    1.7340    0.2646 C   0  0  0  0  0  0  0  0  0  0  0  0
    1.7998    1.2757    0.3808 C   0  0  0  0  0  0  0  0  0  0  0  0
    2.5119    0.1559   -0.2466 C   0  0  0  0  0  0  0  0  0  0  0  0
    2.9524   -0.7751    0.8995 C   0  0  0  0  0  0  0  0  0  0  0  0
    3.6991   -1.9664    0.3475 C   0  0  0  0  0  0  0  0  0  0  0  0
    4.9331   -1.5755   -0.4129 C   0  0  0  0  0  0  0  0  0  0  0  0
    5.9330   -0.8226    0.4087 C   0  0  0  0  0  0  0  0  0  0  0  0
    7.1573   -0.4639   -0.4419 C   0  0  0  0  0  0  0  0  0  0  0  0
    8.0963    0.2757    0.4377 C   0  0  0  0  0  0  0  0  0  0  0  0
    8.9484    0.9607    1.2817 O   0  0  0  0  0  0  0  0  0  0  0  0
    9.1003    0.5688   -0.2666 O   0  0  0  0  0  0  0  0  0  0  0  0
   -6.8244   -0.1311    3.2549 H   0  0  0  0  0  0  0  0  0  0  0  0
   -6.8821    0.9950    1.8154 H   0  0  0  0  0  0  0  0  0  0  0  0
   -5.5748    1.1313    3.1320 H   0  0  0  0  0  0  0  0  0  0  0  0
   -4.3643   -0.0265    1.4937 H   0  0  0  0  0  0  0  0  0  0  0  0
   -5.0165   -1.3406    2.4674 H   0  0  0  0  0  0  0  0  0  0  0  0
   -6.3974   -0.3072   -0.0332 H   0  0  0  0  0  0  0  0  0  0  0  0
   -6.9385   -1.6699    0.9462 H   0  0  0  0  0  0  0  0  0  0  0  0
   -4.9490   -2.9971    0.3826 H   0  0  0  0  0  0  0  0  0  0  0  0
   -5.8847   -2.4744   -1.0177 H   0  0  0  0  0  0  0  0  0  0  0  0
   -3.5295   -2.3550   -1.4415 H   0  0  0  0  0  0  0  0  0  0  0  0
   -3.2383   -1.1666   -0.1733 H   0  0  0  0  0  0  0  0  0  0  0  0
   -5.0994   -0.9010   -2.5350 H   0  0  0  0  0  0  0  0  0  0  0  0
   -4.6185    1.3917   -2.7504 H   0  0  0  0  0  0  0  0  0  0  0  0
   -2.9871    1.0497   -0.1084 H   0  0  0  0  0  0  0  0  0  0  0  0
   -3.8772    2.4693   -0.6599 H   0  0  0  0  0  0  0  0  0  0  0  0
   -2.4499    2.8701   -2.5531 H   0  0  0  0  0  0  0  0  0  0  0  0
   -0.0800    2.4596   -2.3610 H   0  0  0  0  0  0  0  0  0  0  0  0
    0.2031    0.2256   -1.2493 H   0  0  0  0  0  0  0  0  0  0  0  0
   -1.1495    0.5021   -0.1452 H   0  0  0  0  0  0  0  0  0  0  0  0
    0.2080    2.5787    0.8082 H   0  0  0  0  0  0  0  0  0  0  0  0
    2.4382    1.8327    1.0866 H   0  0  0  0  0  0  0  0  0  0  0  0
    3.4575    0.5823   -0.7072 H   0  0  0  0  0  0  0  0  0  0  0  0
    2.0094   -0.4021   -1.0244 H   0  0  0  0  0  0  0  0  0  0  0  0
    2.0494   -1.1617    1.4149 H   0  0  0  0  0  0  0  0  0  0  0  0
    3.5141   -0.1762    1.6209 H   0  0  0  0  0  0  0  0  0  0  0  0
    3.0229   -2.5040   -0.3164 H   0  0  0  0  0  0  0  0  0  0  0  0
    4.0098   -2.5758    1.2158 H   0  0  0  0  0  0  0  0  0  0  0  0
    4.7070   -1.0273   -1.3378 H   0  0  0  0  0  0  0  0  0  0  0  0
    5.4213   -2.5233   -0.7301 H   0  0  0  0  0  0  0  0  0  0  0  0
    6.3210   -1.4010    1.2536 H   0  0  0  0  0  0  0  0  0  0  0  0
    5.4727    0.1557    0.6830 H   0  0  0  0  0  0  0  0  0  0  0  0
    6.8639    0.1716   -1.2861 H   0  0  0  0  0  0  0  0  0  0  0  0
    7.6517   -1.3933   -0.8066 H   0  0  0  0  0  0  0  0  0  0  0  0
    8.6008    1.3871    2.1367 H   0  0  0  0  0  0  0  0  0  0  0  0
  1  2  1  0
  2  3  1  0
  3  4  1  0
  4  5  1  0
  5  6  1  0
  6  7  2  0
  7  8  1  0
  8  9  1  0
  9 10  2  0
 10 11  1  0
 11 12  1  0
 12 13  2  0
 13 14  1  0
 14 15  1  0
 15 16  1  0
 16 17  1  0
 17 18  1  0
 18 19  1  0
 19 20  1  0
 20 21  1  0
 20 22  2  0
  1 23  1  0
  1 24  1  0
  1 25  1  0
  2 26  1  0
  2 27  1  0
  3 28  1  0
  3 29  1  0
  4 30  1  0
  4 31  1  0
  5 32  1  0
  5 33  1  0
  6 34  1  0
  7 35  1  0
  8 36  1  0
  8 37  1  0
  9 38  1  0
 10 39  1  0
 11 40  1  0
 11 41  1  0
 12 42  1  0
 13 43  1  0
 14 44  1  0
 14 45  1  0
 15 46  1  0
 15 47  1  0
 16 48  1  0
 16 49  1  0
 17 50  1  0
 17 51  1  0
 18 52  1  0
 18 53  1  0
 19 54  1  0
 19 55  1  0
 21 56  1  0
M  END
$$$$
