
     RDKit          3D

 65 68  0  0  0  0  0  0  0  0999 V2000
    4.1734    0.6083    2.6574 O   0  0  0  0  0  0  0  0  0  0  0  0
    4.7523    0.8814    1.5770 C   0  0  0  0  0  0  0  0  0  0  0  0
    4.2109    0.3523    0.4065 N   0  0  0  0  0  0  0  0  0  0  0  0
    3.0377   -0.4846    0.3247 C   0  0  2  0  0  0  0  0  0  0  0  0
    3.4685   -1.8340   -0.1760 C   0  0  0  0  0  0  0  0  0  0  0  0
    3.3538   -1.7775   -1.6536 C   0  0  2  0  0  0  0  0  0  0  0  0
    4.6833   -1.8457   -2.3821 C   0  0  0  0  0  0  0  0  0  0  0  0
    5.3350   -3.0312   -2.0772 O   0  0  0  0  0  0  0  0  0  0  0  0
    2.6207   -0.5158   -1.9877 C   0  0  0  0  0  0  0  0  0  0  0  0
    2.0295   -0.0388   -0.6550 C   0  0  1  0  0  0  0  0  0  0  0  0
    0.7226   -0.4152   -0.4837 O   0  0  0  0  0  0  0  0  0  0  0  0
   -0.3639    0.4260   -0.3368 C   0  0  0  0  0  0  0  0  0  0  0  0
   -0.1229    1.6427   -0.3589 O   0  0  0  0  0  0  0  0  0  0  0  0
   -1.7340   -0.0078   -0.1623 C   0  0  0  0  0  0  0  0  0  0  0  0
   -2.0430   -1.3474   -0.1628 C   0  0  0  0  0  0  0  0  0  0  0  0
   -3.3099   -1.8325    0.0007 C   0  0  0  0  0  0  0  0  0  0  0  0
   -3.5892   -3.2128   -0.0052 O   0  0  0  0  0  0  0  0  0  0  0  0
   -4.3639   -0.9378    0.1801 C   0  0  0  0  0  0  0  0  0  0  0  0
   -5.6865   -1.4646    0.4607 C   0  0  0  0  0  0  0  0  0  0  0  0
   -5.7437   -2.6640    0.9610 O   0  0  0  0  0  0  0  0  0  0  0  0
   -6.9453   -0.8328    0.2700 C   0  0  0  0  0  0  0  0  0  0  0  0
   -7.8976   -1.0356    1.2949 C   0  0  0  0  0  0  0  0  0  0  0  0
   -7.5178   -1.7920    2.3834 O   0  0  0  0  0  0  0  0  0  0  0  0
   -9.1491   -0.4945    1.1961 C   0  0  0  0  0  0  0  0  0  0  0  0
   -9.4971    0.2551    0.0964 C   0  0  0  0  0  0  0  0  0  0  0  0
   -8.5672    0.4443   -0.8964 C   0  0  0  0  0  0  0  0  0  0  0  0
   -7.2695   -0.0988   -0.8346 C   0  0  0  0  0  0  0  0  0  0  0  0
   -6.4465   -0.0035   -2.0455 C   0  0  0  0  0  0  0  0  0  0  0  0
   -5.4191   -0.6423   -2.2565 O   0  0  0  0  0  0  0  0  0  0  0  0
   -6.8748    0.8967   -3.0429 O   0  0  0  0  0  0  0  0  0  0  0  0
   -4.0713    0.4175    0.1853 C   0  0  0  0  0  0  0  0  0  0  0  0
   -5.0921    1.3699    0.3695 O   0  0  0  0  0  0  0  0  0  0  0  0
   -2.7750    0.8645    0.0153 C   0  0  0  0  0  0  0  0  0  0  0  0
    5.9398    1.7293    1.6448 C   0  0  0  0  0  0  0  0  0  0  0  0
    6.4189    2.2229    2.8398 C   0  0  0  0  0  0  0  0  0  0  0  0
    7.5389    3.0284    2.9309 C   0  0  0  0  0  0  0  0  0  0  0  0
    8.2388    3.3773    1.7889 C   0  0  0  0  0  0  0  0  0  0  0  0
    9.3745    4.1905    1.8525 O   0  0  0  0  0  0  0  0  0  0  0  0
    7.7735    2.8932    0.5914 C   0  0  0  0  0  0  0  0  0  0  0  0
    6.6409    2.0804    0.5129 C   0  0  0  0  0  0  0  0  0  0  0  0
    4.6673    0.5586   -0.5083 H   0  0  0  0  0  0  0  0  0  0  0  0
    2.6658   -0.6356    1.3530 H   0  0  0  0  0  0  0  0  0  0  0  0
    4.5491   -2.0394    0.0547 H   0  0  0  0  0  0  0  0  0  0  0  0
    2.8315   -2.6508    0.2497 H   0  0  0  0  0  0  0  0  0  0  0  0
    2.7798   -2.6867   -2.0191 H   0  0  0  0  0  0  0  0  0  0  0  0
    5.2955   -0.9470   -2.2688 H   0  0  0  0  0  0  0  0  0  0  0  0
    4.4110   -1.9049   -3.4709 H   0  0  0  0  0  0  0  0  0  0  0  0
    6.0495   -2.8812   -1.4037 H   0  0  0  0  0  0  0  0  0  0  0  0
    3.2843    0.2676   -2.4224 H   0  0  0  0  0  0  0  0  0  0  0  0
    1.7361   -0.7147   -2.6396 H   0  0  0  0  0  0  0  0  0  0  0  0
    2.0852    1.0758   -0.6815 H   0  0  0  0  0  0  0  0  0  0  0  0
   -1.2091   -2.0507   -0.3058 H   0  0  0  0  0  0  0  0  0  0  0  0
   -2.8828   -3.8839    0.2491 H   0  0  0  0  0  0  0  0  0  0  0  0
   -7.5926   -2.8051    2.4367 H   0  0  0  0  0  0  0  0  0  0  0  0
   -9.8455   -0.6872    2.0229 H   0  0  0  0  0  0  0  0  0  0  0  0
  -10.4967    0.6719    0.0511 H   0  0  0  0  0  0  0  0  0  0  0  0
   -8.8327    1.0286   -1.7539 H   0  0  0  0  0  0  0  0  0  0  0  0
   -6.3563    0.9334   -3.9085 H   0  0  0  0  0  0  0  0  0  0  0  0
   -4.9772    2.0154    1.1393 H   0  0  0  0  0  0  0  0  0  0  0  0
   -2.5674    1.9445    0.0189 H   0  0  0  0  0  0  0  0  0  0  0  0
    5.8483    1.9361    3.7382 H   0  0  0  0  0  0  0  0  0  0  0  0
    7.8742    3.3868    3.8702 H   0  0  0  0  0  0  0  0  0  0  0  0
   10.2473    3.8341    1.4910 H   0  0  0  0  0  0  0  0  0  0  0  0
    8.2941    3.1432   -0.3221 H   0  0  0  0  0  0  0  0  0  0  0  0
    6.3076    1.7199   -0.4535 H   0  0  0  0  0  0  0  0  0  0  0  0
  1  2  2  0
  2  3  1  0
  3  4  1  0
  4  5  1  0
  5  6  1  0
  6  7  1  0
  7  8  1  0
  6  9  1  0
  9 10  1  0
 10 11  1  0
 11 12  1  0
 12 13  2  0
 12 14  1  0
 14 15  2  0
 15 16  1  0
 16 17  1  0
 16 18  2  0
 18 19  1  0
 19 20  2  0
 19 21  1  0
 21 22  2  0
 22 23  1  0
 22 24  1  0
 24 25  2  0
 25 26  1  0
 26 27  2  0
 27 28  1  0
 28 29  2  0
 28 30  1  0
 18 31  1  0
 31 32  1  0
 31 33  2  0
  2 34  1  0
 34 35  2  0
 35 36  1  0
 36 37  2  0
 37 38  1  0
 37 39  1  0
 39 40  2  0
 10  4  1  0
 33 14  1  0
 40 34  1  0
 27 21  1  0
  3 41  1  0
  4 42  1  1
  5 43  1  0
  5 44  1  0
  6 45  1  6
  7 46  1  0
  7 47  1  0
  8 48  1  0
  9 49  1  0
  9 50  1  0
 10 51  1  6
 15 52  1  0
 17 53  1  0
 23 54  1  0
 24 55  1  0
 25 56  1  0
 26 57  1  0
 30 58  1  0
 32 59  1  0
 33 60  1  0
 35 61  1  0
 36 62  1  0
 38 63  1  0
 39 64  1  0
 40 65  1  0
M  END
$$$$
