
     RDKit          3D

 44 46  0  0  0  0  0  0  0  0999 V2000
   -5.9701    0.4530   -0.0826 C   0  0  0  0  0  0  0  0  0  0  0  0
   -4.5461    0.5819   -0.0944 N   0  0  0  0  0  0  0  0  0  0  0  0
   -3.9455   -0.3344    0.8510 C   0  0  0  0  0  0  0  0  0  0  0  0
   -2.4707   -0.0887    1.0153 C   0  0  0  0  0  0  0  0  0  0  0  0
   -1.8788    0.5667   -0.1362 N   0  0  0  0  0  0  0  0  0  0  0  0
   -2.5835    0.9935   -1.3357 C   0  0  0  0  0  0  0  0  0  0  0  0
   -3.9395    0.2990   -1.3742 C   0  0  0  0  0  0  0  0  0  0  0  0
   -0.4757    0.7661    0.0175 C   0  0  0  0  0  0  0  0  0  0  0  0
   -0.0467    1.9612    0.6063 C   0  0  0  0  0  0  0  0  0  0  0  0
   -0.9154    2.9134    1.0249 F   0  0  0  0  0  0  0  0  0  0  0  0
    1.3074    2.1560    0.7559 C   0  0  0  0  0  0  0  0  0  0  0  0
    2.2123    1.2029    0.3383 C   0  0  0  0  0  0  0  0  0  0  0  0
    3.5331    1.4616    0.5202 C   0  0  0  0  0  0  0  0  0  0  0  0
    3.9188    2.5151    1.0399 O   0  0  0  0  0  0  0  0  0  0  0  0
    4.4479    0.5254    0.1141 C   0  0  0  0  0  0  0  0  0  0  0  0
    3.9620   -0.6257   -0.4568 C   0  0  0  0  0  0  0  0  0  0  0  0
    2.6507   -0.9583   -0.6737 N   0  0  0  0  0  0  0  0  0  0  0  0
    2.2369   -2.1804   -1.2834 C   0  0  0  0  0  0  0  0  0  0  0  0
    1.9746   -3.3151   -0.3160 C   0  0  0  0  0  0  0  0  0  0  0  0
    1.5732   -4.4787   -0.9481 F   0  0  0  0  0  0  0  0  0  0  0  0
    1.8246    0.0210   -0.2427 C   0  0  0  0  0  0  0  0  0  0  0  0
    0.4659   -0.1578   -0.3846 C   0  0  0  0  0  0  0  0  0  0  0  0
   -0.0385   -1.2568   -0.9253 F   0  0  0  0  0  0  0  0  0  0  0  0
    5.8855    0.7085    0.2653 C   0  0  0  0  0  0  0  0  0  0  0  0
    6.3524    1.8779    0.8440 O   0  0  0  0  0  0  0  0  0  0  0  0
    6.7280   -0.1605   -0.1119 O   0  0  0  0  0  0  0  0  0  0  0  0
   -6.3103   -0.4403   -0.6374 H   0  0  0  0  0  0  0  0  0  0  0  0
   -6.2995    0.4302    0.9806 H   0  0  0  0  0  0  0  0  0  0  0  0
   -6.4498    1.3759   -0.4990 H   0  0  0  0  0  0  0  0  0  0  0  0
   -4.1030   -1.3572    0.4420 H   0  0  0  0  0  0  0  0  0  0  0  0
   -4.4341   -0.2210    1.8404 H   0  0  0  0  0  0  0  0  0  0  0  0
   -2.2822    0.5255    1.9231 H   0  0  0  0  0  0  0  0  0  0  0  0
   -2.0028   -1.0952    1.2198 H   0  0  0  0  0  0  0  0  0  0  0  0
   -2.8171    2.0786   -1.2440 H   0  0  0  0  0  0  0  0  0  0  0  0
   -2.0042    0.7639   -2.2472 H   0  0  0  0  0  0  0  0  0  0  0  0
   -4.5192    0.6881   -2.2347 H   0  0  0  0  0  0  0  0  0  0  0  0
   -3.7338   -0.7863   -1.4361 H   0  0  0  0  0  0  0  0  0  0  0  0
    1.6439    3.0831    1.2129 H   0  0  0  0  0  0  0  0  0  0  0  0
    4.7051   -1.3674   -0.7776 H   0  0  0  0  0  0  0  0  0  0  0  0
    1.5919   -2.1314   -2.1549 H   0  0  0  0  0  0  0  0  0  0  0  0
    3.1969   -2.5529   -1.7915 H   0  0  0  0  0  0  0  0  0  0  0  0
    2.9390   -3.6307    0.1891 H   0  0  0  0  0  0  0  0  0  0  0  0
    1.3400   -3.0339    0.5479 H   0  0  0  0  0  0  0  0  0  0  0  0
    7.2763    2.2243    0.5455 H   0  0  0  0  0  0  0  0  0  0  0  0
  1  2  1  0
  2  3  1  0
  3  4  1  0
  4  5  1  0
  5  6  1  0
  6  7  1  0
  5  8  1  0
  8  9  2  0
  9 10  1  0
  9 11  1  0
 11 12  2  0
 12 13  1  0
 13 14  2  0
 13 15  1  0
 15 16  2  0
 16 17  1  0
 17 18  1  0
 18 19  1  0
 19 20  1  0
 17 21  1  0
 21 22  2  0
 22 23  1  0
 15 24  1  0
 24 25  1  0
 24 26  2  0
  7  2  1  0
 22  8  1  0
 21 12  1  0
  1 27  1  0
  1 28  1  0
  1 29  1  0
  3 30  1  0
  3 31  1  0
  4 32  1  0
  4 33  1  0
  6 34  1  0
  6 35  1  0
  7 36  1  0
  7 37  1  0
 11 38  1  0
 16 39  1  0
 18 40  1  0
 18 41  1  0
 19 42  1  0
 19 43  1  0
 25 44  1  0
M  END
$$$$
