
     RDKit          3D

 52 56  0  0  0  0  0  0  0  0999 V2000
   -1.8881    1.0544    0.9473 O   0  0  0  0  0  0  0  0  0  0  0  0
   -1.9863    0.8207   -0.3033 C   0  0  0  0  0  0  0  0  0  0  0  0
   -3.2087    1.2485   -0.9401 C   0  0  0  0  0  0  0  0  0  0  0  0
   -3.3427    2.4956   -1.5060 C   0  0  0  0  0  0  0  0  0  0  0  0
   -4.5403    2.8810   -2.1176 C   0  0  0  0  0  0  0  0  0  0  0  0
   -5.6058    2.0119   -2.1610 C   0  0  0  0  0  0  0  0  0  0  0  0
   -5.4807    0.7456   -1.5904 C   0  0  0  0  0  0  0  0  0  0  0  0
   -6.8353   -0.3653   -1.6413 Cl  0  0  0  0  0  0  0  0  0  0  0  0
   -4.2778    0.3936   -0.9906 C   0  0  0  0  0  0  0  0  0  0  0  0
   -4.1594   -0.8899   -0.4142 N   0  0  0  0  0  0  0  0  0  0  0  0
   -3.6790   -1.9500   -1.0289 N   0  0  0  0  0  0  0  0  0  0  0  0
   -3.7114   -3.0143   -0.1802 C   0  0  0  0  0  0  0  0  0  0  0  0
   -4.2461   -2.5457    1.0093 C   0  0  0  0  0  0  0  0  0  0  0  0
   -4.4951   -1.2412    0.7914 N   0  0  0  0  0  0  0  0  0  0  0  0
   -0.9263    0.1777   -0.9697 N   0  0  0  0  0  0  0  0  0  0  0  0
   -1.0694   -0.0775   -2.4146 C   0  0  0  0  0  0  0  0  0  0  0  0
    0.3700   -0.0771   -2.9401 C   0  0  0  0  0  0  0  0  0  0  0  0
    1.1526    0.8581   -2.3118 O   0  0  0  0  0  0  0  0  0  0  0  0
    1.4069    0.6092   -0.9885 C   0  0  0  0  0  0  0  0  0  0  0  0
    0.3040   -0.2704   -0.4025 C   0  0  1  0  0  0  0  0  0  0  0  0
    0.4086   -0.2348    1.0794 C   0  0  0  0  0  0  0  0  0  0  0  0
    1.7821   -0.7535    1.4114 C   0  0  0  0  0  0  0  0  0  0  0  0
    2.7952    0.1087    1.7721 C   0  0  0  0  0  0  0  0  0  0  0  0
    4.0618   -0.3641    2.0718 C   0  0  0  0  0  0  0  0  0  0  0  0
    5.1166    0.5464    2.4466 N   0  0  0  0  0  0  0  0  0  0  0  0
    5.9265    1.2152    1.6512 N   0  0  0  0  0  0  0  0  0  0  0  0
    6.7882    1.9699    2.3555 C   0  0  0  0  0  0  0  0  0  0  0  0
    6.4831    1.7469    3.6944 C   0  0  0  0  0  0  0  0  0  0  0  0
    5.4615    0.8748    3.6794 N   0  0  0  0  0  0  0  0  0  0  0  0
    4.3420   -1.7124    2.0169 C   0  0  0  0  0  0  0  0  0  0  0  0
    3.3422   -2.5870    1.6586 C   0  0  0  0  0  0  0  0  0  0  0  0
    2.0886   -2.0867    1.3652 C   0  0  0  0  0  0  0  0  0  0  0  0
    0.8235   -3.2328    0.9093 Cl  0  0  0  0  0  0  0  0  0  0  0  0
   -2.5445    3.2191   -1.5032 H   0  0  0  0  0  0  0  0  0  0  0  0
   -4.6578    3.8517   -2.5622 H   0  0  0  0  0  0  0  0  0  0  0  0
   -6.5504    2.2429   -2.6138 H   0  0  0  0  0  0  0  0  0  0  0  0
   -3.3962   -4.0319   -0.3545 H   0  0  0  0  0  0  0  0  0  0  0  0
   -4.4412   -3.0674    1.9340 H   0  0  0  0  0  0  0  0  0  0  0  0
   -1.4499   -1.0944   -2.5367 H   0  0  0  0  0  0  0  0  0  0  0  0
   -1.6442    0.7023   -2.9166 H   0  0  0  0  0  0  0  0  0  0  0  0
    0.7857   -1.1031   -2.9401 H   0  0  0  0  0  0  0  0  0  0  0  0
    0.2953    0.2191   -4.0120 H   0  0  0  0  0  0  0  0  0  0  0  0
    2.3837    0.1679   -0.7773 H   0  0  0  0  0  0  0  0  0  0  0  0
    1.3119    1.5838   -0.4361 H   0  0  0  0  0  0  0  0  0  0  0  0
    0.5776   -1.3086   -0.7336 H   0  0  0  0  0  0  0  0  0  0  0  0
    0.3567    0.7993    1.4849 H   0  0  0  0  0  0  0  0  0  0  0  0
   -0.3103   -0.8547    1.6117 H   0  0  0  0  0  0  0  0  0  0  0  0
    2.6161    1.1826    1.8281 H   0  0  0  0  0  0  0  0  0  0  0  0
    7.5693    2.6274    2.0294 H   0  0  0  0  0  0  0  0  0  0  0  0
    6.9852    2.1993    4.5412 H   0  0  0  0  0  0  0  0  0  0  0  0
    5.3483   -2.0395    2.2596 H   0  0  0  0  0  0  0  0  0  0  0  0
    3.5640   -3.6514    1.6153 H   0  0  0  0  0  0  0  0  0  0  0  0
  1  2  2  0
  2  3  1  0
  3  4  2  0
  4  5  1  0
  5  6  2  0
  6  7  1  0
  7  8  1  0
  7  9  2  0
  9 10  1  0
 10 11  1  0
 11 12  2  0
 12 13  1  0
 13 14  2  0
  2 15  1  0
 15 16  1  0
 16 17  1  0
 17 18  1  0
 18 19  1  0
 19 20  1  0
 20 21  1  0
 21 22  1  0
 22 23  2  0
 23 24  1  0
 24 25  1  0
 25 26  1  0
 26 27  2  0
 27 28  1  0
 28 29  2  0
 24 30  2  0
 30 31  1  0
 31 32  2  0
 32 33  1  0
  9  3  1  0
 14 10  1  0
 20 15  1  0
 32 22  1  0
 29 25  1  0
  4 34  1  0
  5 35  1  0
  6 36  1  0
 12 37  1  0
 13 38  1  0
 16 39  1  0
 16 40  1  0
 17 41  1  0
 17 42  1  0
 19 43  1  0
 19 44  1  0
 20 45  1  6
 21 46  1  0
 21 47  1  0
 23 48  1  0
 27 49  1  0
 28 50  1  0
 30 51  1  0
 31 52  1  0
M  END
$$$$
