
     RDKit          3D

150151  0  0  0  0  0  0  0  0999 V2000
   -1.1557    2.0889    0.4862 C   0  0  0  0  0  0  0  0  0  0  0  0
   -1.1775    1.6768    1.7276 C   0  0  0  0  0  0  0  0  0  0  0  0
   -0.1635    0.7104    2.0978 C   0  0  0  0  0  0  0  0  0  0  0  0
   -0.3578    0.5336    3.3349 O   0  0  0  0  0  0  0  0  0  0  0  0
    0.7313    0.1824    1.2296 O   0  0  0  0  0  0  0  0  0  0  0  0
    1.7151   -0.7702    1.6963 C   0  0  2  0  0  0  0  0  0  0  0  0
    3.0716   -0.2639    1.4070 C   0  0  1  0  0  0  0  0  0  0  0  0
    3.1397    1.0846    2.1634 C   0  0  0  0  0  0  0  0  0  0  0  0
    4.2358   -1.1065    1.7504 C   0  0  1  0  0  0  0  0  0  0  0  0
    4.3909   -2.3140    1.2197 O   0  0  0  0  0  0  0  0  0  0  0  0
    4.6173   -3.4620    1.8380 C   0  0  0  0  0  0  0  0  0  0  0  0
    5.5583   -0.3245    1.4671 C   0  0  1  0  0  0  0  0  0  0  0  0
    6.6551   -1.2413    1.8653 C   0  0  0  0  0  0  0  0  0  0  0  0
    5.6257    0.2591    0.1495 C   0  0  0  0  0  0  0  0  0  0  0  0
    6.8487    1.0430   -0.1886 C   0  0  0  0  0  0  0  0  0  0  0  0
    8.1207    0.3032   -0.2876 C   0  0  0  0  0  0  0  0  0  0  0  0
    8.5229   -0.8272   -0.2757 O   0  0  0  0  0  0  0  0  0  0  0  0
    9.2490    1.2030   -0.4515 C   0  0  2  0  0  0  0  0  0  0  0  0
    9.2583    1.8639   -1.8382 C   0  0  0  0  0  0  0  0  0  0  0  0
   10.6445    0.6841   -0.2185 C   0  0  1  0  0  0  0  0  0  0  0  0
   11.5691    1.8917   -0.4591 C   0  0  0  0  0  0  0  0  0  0  0  0
   12.9856    1.6165   -0.2451 C   0  0  0  0  0  0  0  0  0  0  0  0
   13.3336    1.3497    1.1762 C   0  0  0  0  0  0  0  0  0  0  0  0
   14.6330    0.9295    1.2972 O   0  0  0  0  0  0  0  0  0  0  0  0
   12.6069    1.4621    2.2100 O   0  0  0  0  0  0  0  0  0  0  0  0
   10.8292    0.1024    0.9722 O   0  0  0  0  0  0  0  0  0  0  0  0
   11.3573   -1.1626    0.9050 C   0  0  0  0  0  0  0  0  0  0  0  0
    1.3121   -2.1441    1.3187 C   0  0  1  0  0  0  0  0  0  0  0  0
   -0.0876   -2.3265    1.9861 C   0  0  0  0  0  0  0  0  0  0  0  0
    1.1874   -2.4917   -0.0878 C   0  0  0  0  0  0  0  0  0  0  0  0
    0.0219   -2.8873   -0.6386 C   0  0  0  0  0  0  0  0  0  0  0  0
   -0.4618   -3.3089   -1.9865 C   0  0  1  0  0  0  0  0  0  0  0  0
   -1.3838   -4.4716   -1.9109 C   0  0  0  0  0  0  0  0  0  0  0  0
   -2.6655   -4.2808   -1.1839 C   0  0  2  0  0  0  0  0  0  0  0  0
   -3.3404   -5.5058   -1.1785 O   0  0  0  0  0  0  0  0  0  0  0  0
   -3.5542   -5.9671    0.1190 C   0  0  0  0  0  0  0  0  0  0  0  0
   -3.5959   -3.3008   -1.8553 C   0  0  1  0  0  0  0  0  0  0  0  0
   -3.9724   -3.7687   -3.2532 C   0  0  0  0  0  0  0  0  0  0  0  0
   -4.8801   -3.2954   -1.0768 C   0  0  0  0  0  0  0  0  0  0  0  0
   -5.3935   -2.1869   -0.5204 C   0  0  0  0  0  0  0  0  0  0  0  0
   -6.6347   -1.8124    0.3116 C   0  0  2  0  0  0  0  0  0  0  0  0
   -7.3116   -0.6481   -0.3156 C   0  0  0  0  0  0  0  0  0  0  0  0
   -8.5643   -0.1798    0.3225 C   0  0  2  0  0  0  0  0  0  0  0  0
   -9.6444   -1.0138    0.2569 O   0  0  0  0  0  0  0  0  0  0  0  0
  -10.3060   -1.3099    1.4065 C   0  0  0  0  0  0  0  0  0  0  0  0
   -8.9001    1.2151   -0.2476 C   0  0  1  0  0  0  0  0  0  0  0  0
  -10.2157    1.7320    0.3113 C   0  0  0  0  0  0  0  0  0  0  0  0
   -7.8226    2.1457    0.1989 C   0  0  1  0  0  0  0  0  0  0  0  0
   -7.3477    3.0903   -0.9016 C   0  0  0  0  0  0  0  0  0  0  0  0
   -6.0720    3.6790   -0.3308 C   0  0  0  0  0  0  0  0  0  0  0  0
   -4.9009    3.5166   -1.1834 C   0  0  0  0  0  0  0  0  0  0  0  0
   -4.0728    4.7619   -1.2972 C   0  0  1  0  0  0  0  0  0  0  0  0
   -2.8781    4.4335   -2.2360 C   0  0  0  0  0  0  0  0  0  0  0  0
   -1.9758    3.4949   -1.5763 C   0  0  0  0  0  0  0  0  0  0  0  0
   -0.9524    3.1224   -2.6157 C   0  0  0  0  0  0  0  0  0  0  0  0
   -1.9011    2.9926   -0.3690 C   0  0  0  0  0  0  0  0  0  0  0  0
   -4.7389    5.8690   -1.7472 O   0  0  0  0  0  0  0  0  0  0  0  0
   -4.5975    7.0068   -0.9702 C   0  0  0  0  0  0  0  0  0  0  0  0
   -6.2683    4.2157    0.8563 C   0  0  0  0  0  0  0  0  0  0  0  0
   -7.3975    3.9310    1.7716 C   0  0  0  0  0  0  0  0  0  0  0  0
   -7.4731    4.5117    2.8809 O   0  0  0  0  0  0  0  0  0  0  0  0
   -8.3450    2.9724    1.2787 O   0  0  0  0  0  0  0  0  0  0  0  0
   -6.1555   -1.5086    1.5840 O   0  0  0  0  0  0  0  0  0  0  0  0
   -6.5152   -2.4426    2.5175 C   0  0  0  0  0  0  0  0  0  0  0  0
   -0.9406   -2.2220   -2.6917 O   0  0  0  0  0  0  0  0  0  0  0  0
   -0.1305   -2.0687   -3.8070 C   0  0  0  0  0  0  0  0  0  0  0  0
   -0.4864    1.7970   -0.2865 H   0  0  0  0  0  0  0  0  0  0  0  0
   -1.9787    2.1570    2.2588 H   0  0  0  0  0  0  0  0  0  0  0  0
    1.5651   -0.7541    2.8124 H   0  0  0  0  0  0  0  0  0  0  0  0
    3.0531    0.0459    0.3280 H   0  0  0  0  0  0  0  0  0  0  0  0
    3.2966    1.9289    1.4677 H   0  0  0  0  0  0  0  0  0  0  0  0
    3.8392    1.0435    3.0117 H   0  0  0  0  0  0  0  0  0  0  0  0
    2.1602    1.3337    2.6422 H   0  0  0  0  0  0  0  0  0  0  0  0
    4.2890   -1.1873    2.8491 H   0  0  0  0  0  0  0  0  0  0  0  0
    3.8555   -3.8028    2.6118 H   0  0  0  0  0  0  0  0  0  0  0  0
    4.4415   -4.2777    1.0397 H   0  0  0  0  0  0  0  0  0  0  0  0
    5.5674   -3.7564    2.2547 H   0  0  0  0  0  0  0  0  0  0  0  0
    5.6163    0.5244    2.2231 H   0  0  0  0  0  0  0  0  0  0  0  0
    6.8285   -2.1157    1.2542 H   0  0  0  0  0  0  0  0  0  0  0  0
    7.5926   -0.6776    2.1652 H   0  0  0  0  0  0  0  0  0  0  0  0
    6.3820   -1.6882    2.8926 H   0  0  0  0  0  0  0  0  0  0  0  0
    4.7768    0.9867   -0.0845 H   0  0  0  0  0  0  0  0  0  0  0  0
    5.5115   -0.4731   -0.7043 H   0  0  0  0  0  0  0  0  0  0  0  0
    6.9567    1.9364    0.5008 H   0  0  0  0  0  0  0  0  0  0  0  0
    6.7146    1.5690   -1.1931 H   0  0  0  0  0  0  0  0  0  0  0  0
    9.0872    2.0926    0.2550 H   0  0  0  0  0  0  0  0  0  0  0  0
   10.0249    1.2975   -2.4563 H   0  0  0  0  0  0  0  0  0  0  0  0
    9.5019    2.9153   -1.7362 H   0  0  0  0  0  0  0  0  0  0  0  0
    8.2867    1.6753   -2.3325 H   0  0  0  0  0  0  0  0  0  0  0  0
   10.9405   -0.0176   -1.0764 H   0  0  0  0  0  0  0  0  0  0  0  0
   11.4221    2.3070   -1.4930 H   0  0  0  0  0  0  0  0  0  0  0  0
   11.2234    2.7115    0.2334 H   0  0  0  0  0  0  0  0  0  0  0  0
   13.5855    2.5047   -0.5673 H   0  0  0  0  0  0  0  0  0  0  0  0
   13.3584    0.7852   -0.8977 H   0  0  0  0  0  0  0  0  0  0  0  0
   15.0364    0.8188    2.2222 H   0  0  0  0  0  0  0  0  0  0  0  0
   11.4758   -1.5156    1.9669 H   0  0  0  0  0  0  0  0  0  0  0  0
   10.7571   -1.8896    0.3413 H   0  0  0  0  0  0  0  0  0  0  0  0
   12.3773   -1.1532    0.4581 H   0  0  0  0  0  0  0  0  0  0  0  0
    1.9075   -2.8859    1.8379 H   0  0  0  0  0  0  0  0  0  0  0  0
   -0.3694   -3.3766    1.9309 H   0  0  0  0  0  0  0  0  0  0  0  0
   -0.8031   -1.6007    1.6173 H   0  0  0  0  0  0  0  0  0  0  0  0
    0.1451   -2.1405    3.0741 H   0  0  0  0  0  0  0  0  0  0  0  0
    2.1870   -2.3580   -0.5341 H   0  0  0  0  0  0  0  0  0  0  0  0
   -0.8226   -2.9170    0.0362 H   0  0  0  0  0  0  0  0  0  0  0  0
    0.4266   -3.6715   -2.5892 H   0  0  0  0  0  0  0  0  0  0  0  0
   -0.8191   -5.2667   -1.3373 H   0  0  0  0  0  0  0  0  0  0  0  0
   -1.5059   -4.9038   -2.9259 H   0  0  0  0  0  0  0  0  0  0  0  0
   -2.5022   -3.9846   -0.1577 H   0  0  0  0  0  0  0  0  0  0  0  0
   -2.5799   -6.1163    0.6582 H   0  0  0  0  0  0  0  0  0  0  0  0
   -4.0124   -6.9744    0.0291 H   0  0  0  0  0  0  0  0  0  0  0  0
   -4.2472   -5.3478    0.7128 H   0  0  0  0  0  0  0  0  0  0  0  0
   -3.2360   -2.2557   -1.8273 H   0  0  0  0  0  0  0  0  0  0  0  0
   -4.4620   -2.8647   -3.7245 H   0  0  0  0  0  0  0  0  0  0  0  0
   -4.7957   -4.5147   -3.1505 H   0  0  0  0  0  0  0  0  0  0  0  0
   -3.1436   -4.1372   -3.8461 H   0  0  0  0  0  0  0  0  0  0  0  0
   -5.5375   -4.1382   -0.8724 H   0  0  0  0  0  0  0  0  0  0  0  0
   -4.8237   -1.2497   -0.6549 H   0  0  0  0  0  0  0  0  0  0  0  0
   -7.2578   -2.6980    0.3179 H   0  0  0  0  0  0  0  0  0  0  0  0
   -6.5944    0.1963   -0.4812 H   0  0  0  0  0  0  0  0  0  0  0  0
   -7.6124   -0.9961   -1.3731 H   0  0  0  0  0  0  0  0  0  0  0  0
   -8.3992    0.0459    1.4239 H   0  0  0  0  0  0  0  0  0  0  0  0
  -11.1415   -2.0186    1.1130 H   0  0  0  0  0  0  0  0  0  0  0  0
   -9.6937   -1.8595    2.1079 H   0  0  0  0  0  0  0  0  0  0  0  0
  -10.7916   -0.4136    1.8632 H   0  0  0  0  0  0  0  0  0  0  0  0
   -8.9893    1.1307   -1.3549 H   0  0  0  0  0  0  0  0  0  0  0  0
  -11.0901    1.1544    0.0137 H   0  0  0  0  0  0  0  0  0  0  0  0
  -10.1968    1.8382    1.4110 H   0  0  0  0  0  0  0  0  0  0  0  0
  -10.3083    2.7879   -0.0801 H   0  0  0  0  0  0  0  0  0  0  0  0
   -6.9340    1.6673    0.6308 H   0  0  0  0  0  0  0  0  0  0  0  0
   -8.0428    3.9177   -1.0930 H   0  0  0  0  0  0  0  0  0  0  0  0
   -7.1016    2.4932   -1.7684 H   0  0  0  0  0  0  0  0  0  0  0  0
   -4.2937    2.6836   -0.8029 H   0  0  0  0  0  0  0  0  0  0  0  0
   -5.2064    3.1660   -2.2279 H   0  0  0  0  0  0  0  0  0  0  0  0
   -3.5894    4.9813   -0.3396 H   0  0  0  0  0  0  0  0  0  0  0  0
   -3.3604    3.9731   -3.1222 H   0  0  0  0  0  0  0  0  0  0  0  0
   -2.3621    5.3344   -2.5640 H   0  0  0  0  0  0  0  0  0  0  0  0
   -0.3532    4.0594   -2.7479 H   0  0  0  0  0  0  0  0  0  0  0  0
   -0.3275    2.3062   -2.2244 H   0  0  0  0  0  0  0  0  0  0  0  0
   -1.3979    2.7883   -3.5519 H   0  0  0  0  0  0  0  0  0  0  0  0
   -2.5858    3.3496    0.3802 H   0  0  0  0  0  0  0  0  0  0  0  0
   -3.4899    7.2300   -0.9829 H   0  0  0  0  0  0  0  0  0  0  0  0
   -4.8462    6.8992    0.0869 H   0  0  0  0  0  0  0  0  0  0  0  0
   -5.0938    7.8826   -1.4054 H   0  0  0  0  0  0  0  0  0  0  0  0
   -5.4841    4.9044    1.1129 H   0  0  0  0  0  0  0  0  0  0  0  0
   -6.0771   -2.0904    3.4990 H   0  0  0  0  0  0  0  0  0  0  0  0
   -7.5775   -2.6081    2.6745 H   0  0  0  0  0  0  0  0  0  0  0  0
   -6.0428   -3.4406    2.2803 H   0  0  0  0  0  0  0  0  0  0  0  0
   -0.4984   -1.2100   -4.3757 H   0  0  0  0  0  0  0  0  0  0  0  0
    0.9123   -1.9051   -3.4441 H   0  0  0  0  0  0  0  0  0  0  0  0
   -0.2068   -3.0293   -4.3824 H   0  0  0  0  0  0  0  0  0  0  0  0
  1  2  2  0
  2  3  1  0
  3  4  2  0
  3  5  1  0
  5  6  1  0
  6  7  1  0
  7  8  1  0
  7  9  1  0
  9 10  1  0
 10 11  1  0
  9 12  1  0
 12 13  1  0
 12 14  1  0
 14 15  1  0
 15 16  1  0
 16 17  2  0
 16 18  1  0
 18 19  1  0
 18 20  1  0
 20 21  1  0
 21 22  1  0
 22 23  1  0
 23 24  1  0
 23 25  2  0
 20 26  1  0
 26 27  1  0
  6 28  1  0
 28 29  1  0
 28 30  1  0
 30 31  2  0
 31 32  1  0
 32 33  1  0
 33 34  1  0
 34 35  1  0
 35 36  1  0
 34 37  1  0
 37 38  1  0
 37 39  1  0
 39 40  2  0
 40 41  1  0
 41 42  1  0
 42 43  1  0
 43 44  1  0
 44 45  1  0
 43 46  1  0
 46 47  1  0
 46 48  1  0
 48 49  1  0
 49 50  1  0
 50 51  1  0
 51 52  1  0
 52 53  1  0
 53 54  1  0
 54 55  1  0
 54 56  2  0
 52 57  1  0
 57 58  1  0
 50 59  2  0
 59 60  1  0
 60 61  2  0
 60 62  1  0
 41 63  1  0
 63 64  1  0
 32 65  1  0
 65 66  1  0
 56  1  1  0
 62 48  1  0
  1 67  1  0
  2 68  1  0
  6 69  1  1
  7 70  1  6
  8 71  1  0
  8 72  1  0
  8 73  1  0
  9 74  1  1
 11 75  1  0
 11 76  1  0
 11 77  1  0
 12 78  1  1
 13 79  1  0
 13 80  1  0
 13 81  1  0
 14 82  1  0
 14 83  1  0
 15 84  1  0
 15 85  1  0
 18 86  1  1
 19 87  1  0
 19 88  1  0
 19 89  1  0
 20 90  1  6
 21 91  1  0
 21 92  1  0
 22 93  1  0
 22 94  1  0
 24 95  1  0
 27 96  1  0
 27 97  1  0
 27 98  1  0
 28 99  1  1
 29100  1  0
 29101  1  0
 29102  1  0
 30103  1  0
 31104  1  0
 32105  1  6
 33106  1  0
 33107  1  0
 34108  1  1
 36109  1  0
 36110  1  0
 36111  1  0
 37112  1  6
 38113  1  0
 38114  1  0
 38115  1  0
 39116  1  0
 40117  1  0
 41118  1  1
 42119  1  0
 42120  1  0
 43121  1  1
 45122  1  0
 45123  1  0
 45124  1  0
 46125  1  6
 47126  1  0
 47127  1  0
 47128  1  0
 48129  1  1
 49130  1  0
 49131  1  0
 51132  1  0
 51133  1  0
 52134  1  1
 53135  1  0
 53136  1  0
 55137  1  0
 55138  1  0
 55139  1  0
 56140  1  0
 58141  1  0
 58142  1  0
 58143  1  0
 59144  1  0
 64145  1  0
 64146  1  0
 64147  1  0
 66148  1  0
 66149  1  0
 66150  1  0
M  END
$$$$
