
     RDKit          3D

 33 34  0  0  0  0  0  0  0  0999 V2000
   -4.6923    2.1105   -0.5343 C   0  0  0  0  0  0  0  0  0  0  0  0
   -3.3243    1.7997   -0.5730 O   0  0  0  0  0  0  0  0  0  0  0  0
   -2.8296    0.6108   -0.1120 C   0  0  0  0  0  0  0  0  0  0  0  0
   -1.4869    0.3184   -0.1558 C   0  0  0  0  0  0  0  0  0  0  0  0
   -1.0436   -0.8758    0.3141 C   0  0  0  0  0  0  0  0  0  0  0  0
   -1.8916   -1.8244    0.8419 C   0  0  0  0  0  0  0  0  0  0  0  0
   -1.0667   -2.8232    1.1767 N   0  0  0  0  0  0  0  0  0  0  0  0
    0.2224   -2.5730    0.9004 C   0  0  0  0  0  0  0  0  0  0  0  0
    0.2709   -1.2918    0.3286 C   0  0  0  0  0  0  0  0  0  0  0  0
    1.5833   -0.7976   -0.0603 C   0  0  0  0  0  0  0  0  0  0  0  0
    1.6821    0.5251   -0.7060 C   0  0  0  0  0  0  0  0  0  0  0  0
    3.0916    0.8498   -1.0236 N   0  0  0  0  0  0  0  0  0  0  0  0
    4.1001    0.9407   -0.0107 C   0  0  0  0  0  0  0  0  0  0  0  0
    5.5109    1.2672   -0.3473 C   0  0  0  0  0  0  0  0  0  0  0  0
    3.8834    0.7578    1.2086 O   0  0  0  0  0  0  0  0  0  0  0  0
   -3.2296   -1.5497    0.8928 C   0  0  0  0  0  0  0  0  0  0  0  0
   -3.6925   -0.3324    0.4152 C   0  0  0  0  0  0  0  0  0  0  0  0
   -5.1520    1.7908    0.4027 H   0  0  0  0  0  0  0  0  0  0  0  0
   -5.1626    1.6471   -1.4398 H   0  0  0  0  0  0  0  0  0  0  0  0
   -4.7923    3.2295   -0.6354 H   0  0  0  0  0  0  0  0  0  0  0  0
   -0.8603    1.0654   -0.5653 H   0  0  0  0  0  0  0  0  0  0  0  0
   -1.4442   -3.7109    1.6171 H   0  0  0  0  0  0  0  0  0  0  0  0
    1.0058   -3.3146    1.1270 H   0  0  0  0  0  0  0  0  0  0  0  0
    1.9936   -1.5383   -0.8136 H   0  0  0  0  0  0  0  0  0  0  0  0
    2.2724   -0.8783    0.8078 H   0  0  0  0  0  0  0  0  0  0  0  0
    1.4173    1.3099    0.0435 H   0  0  0  0  0  0  0  0  0  0  0  0
    1.1780    0.6176   -1.6714 H   0  0  0  0  0  0  0  0  0  0  0  0
    3.4575    1.0367   -2.0052 H   0  0  0  0  0  0  0  0  0  0  0  0
    5.7147    1.1621   -1.4315 H   0  0  0  0  0  0  0  0  0  0  0  0
    5.7213    2.3368   -0.0925 H   0  0  0  0  0  0  0  0  0  0  0  0
    6.1908    0.6570    0.2620 H   0  0  0  0  0  0  0  0  0  0  0  0
   -3.8696   -2.3153    1.3130 H   0  0  0  0  0  0  0  0  0  0  0  0
   -4.7581   -0.2073    0.4971 H   0  0  0  0  0  0  0  0  0  0  0  0
  1  2  1  0
  2  3  1  0
  3  4  2  0
  4  5  1  0
  5  6  2  0
  6  7  1  0
  7  8  1  0
  8  9  2  0
  9 10  1  0
 10 11  1  0
 11 12  1  0
 12 13  1  0
 13 14  1  0
 13 15  2  0
  6 16  1  0
 16 17  2  0
 17  3  1  0
  9  5  1  0
  1 18  1  0
  1 19  1  0
  1 20  1  0
  4 21  1  0
  7 22  1  0
  8 23  1  0
 10 24  1  0
 10 25  1  0
 11 26  1  0
 11 27  1  0
 12 28  1  0
 14 29  1  0
 14 30  1  0
 14 31  1  0
 16 32  1  0
 17 33  1  0
M  END
$$$$
