
     RDKit          3D

 43 46  0  0  0  0  0  0  0  0999 V2000
    5.4588   -0.7776   -0.4338 C   0  0  0  0  0  0  0  0  0  0  0  0
    4.2082   -1.3016    0.2409 C   0  0  0  0  0  0  0  0  0  0  0  0
    4.2789   -2.4854    0.9265 C   0  0  0  0  0  0  0  0  0  0  0  0
    2.6578   -2.7362    1.5460 S   0  0  0  0  0  0  0  0  0  0  0  0
    1.9684   -1.2438    0.8567 C   0  0  0  0  0  0  0  0  0  0  0  0
    0.5888   -0.8639    1.0368 N   0  0  0  0  0  0  0  0  0  0  0  0
    0.1689   -0.1342    2.1694 C   0  0  0  0  0  0  0  0  0  0  0  0
    1.0249    0.2157    3.0317 O   0  0  0  0  0  0  0  0  0  0  0  0
   -1.2324    0.2475    2.4221 C   0  0  0  0  0  0  0  0  0  0  0  0
   -2.0475   -0.2376    1.3329 N   0  0  0  0  0  0  0  0  0  0  0  0
   -2.5864   -1.5759    1.4188 C   0  0  0  0  0  0  0  0  0  0  0  0
   -2.0321   -2.4895    2.0653 O   0  0  0  0  0  0  0  0  0  0  0  0
   -3.8506   -1.8279    0.6940 C   0  0  0  0  0  0  0  0  0  0  0  0
   -3.6387   -1.3500   -0.7165 C   0  0  0  0  0  0  0  0  0  0  0  0
   -3.1405    0.0266   -0.7777 C   0  0  0  0  0  0  0  0  0  0  0  0
   -3.4441    0.8627   -1.8576 C   0  0  0  0  0  0  0  0  0  0  0  0
   -2.9931    2.1505   -1.9687 C   0  0  0  0  0  0  0  0  0  0  0  0
   -2.1866    2.6750   -0.9621 C   0  0  0  0  0  0  0  0  0  0  0  0
   -1.8725    1.8768    0.1099 C   0  0  0  0  0  0  0  0  0  0  0  0
   -2.3324    0.5793    0.2139 C   0  0  0  0  0  0  0  0  0  0  0  0
    3.0274   -0.6540    0.1967 C   0  0  0  0  0  0  0  0  0  0  0  0
    2.8194    0.6281   -0.5451 C   0  0  0  0  0  0  0  0  0  0  0  0
    3.7463    1.3149   -1.2191 N   0  0  0  0  0  0  0  0  0  0  0  0
    3.2054    2.4003   -1.7717 N   0  0  0  0  0  0  0  0  0  0  0  0
    1.9104    2.4175   -1.4519 C   0  0  0  0  0  0  0  0  0  0  0  0
    1.6912    1.3227   -0.6993 N   0  0  0  0  0  0  0  0  0  0  0  0
    6.3031   -1.4441   -0.3146 H   0  0  0  0  0  0  0  0  0  0  0  0
    5.2306   -0.5217   -1.4954 H   0  0  0  0  0  0  0  0  0  0  0  0
    5.6928    0.1720    0.0946 H   0  0  0  0  0  0  0  0  0  0  0  0
    5.1385   -3.1443    1.0701 H   0  0  0  0  0  0  0  0  0  0  0  0
   -0.0908   -1.1411    0.3107 H   0  0  0  0  0  0  0  0  0  0  0  0
   -1.5994   -0.2284    3.3826 H   0  0  0  0  0  0  0  0  0  0  0  0
   -1.2796    1.3418    2.5105 H   0  0  0  0  0  0  0  0  0  0  0  0
   -4.6703   -1.1842    1.1223 H   0  0  0  0  0  0  0  0  0  0  0  0
   -4.1642   -2.8762    0.7157 H   0  0  0  0  0  0  0  0  0  0  0  0
   -4.6057   -1.4574   -1.2499 H   0  0  0  0  0  0  0  0  0  0  0  0
   -2.9102   -1.9975   -1.2613 H   0  0  0  0  0  0  0  0  0  0  0  0
   -4.0745    0.4286   -2.6284 H   0  0  0  0  0  0  0  0  0  0  0  0
   -3.2577    2.7584   -2.8276 H   0  0  0  0  0  0  0  0  0  0  0  0
   -1.8455    3.6916   -1.0755 H   0  0  0  0  0  0  0  0  0  0  0  0
   -1.2443    2.3013    0.8678 H   0  0  0  0  0  0  0  0  0  0  0  0
    1.2221    3.1758   -1.7587 H   0  0  0  0  0  0  0  0  0  0  0  0
    0.7569    1.0855   -0.3175 H   0  0  0  0  0  0  0  0  0  0  0  0
  1  2  1  0
  2  3  2  0
  3  4  1  0
  4  5  1  0
  5  6  1  0
  6  7  1  0
  7  8  2  0
  7  9  1  0
  9 10  1  0
 10 11  1  0
 11 12  2  0
 11 13  1  0
 13 14  1  0
 14 15  1  0
 15 16  2  0
 16 17  1  0
 17 18  2  0
 18 19  1  0
 19 20  2  0
  5 21  2  0
 21 22  1  0
 22 23  2  0
 23 24  1  0
 24 25  2  0
 25 26  1  0
 21  2  1  0
 26 22  1  0
 20 10  1  0
 20 15  1  0
  1 27  1  0
  1 28  1  0
  1 29  1  0
  3 30  1  0
  6 31  1  0
  9 32  1  0
  9 33  1  0
 13 34  1  0
 13 35  1  0
 14 36  1  0
 14 37  1  0
 16 38  1  0
 17 39  1  0
 18 40  1  0
 19 41  1  0
 25 42  1  0
 26 43  1  0
M  END
$$$$
