
     RDKit          3D

 23 24  0  0  0  0  0  0  0  0999 V2000
   -4.7329   -1.8023    0.0619 N   0  0  0  0  0  0  0  0  0  0  0  0
   -3.5268   -0.9462    0.0113 C   0  0  0  0  0  0  0  0  0  0  0  0
   -3.0891   -0.4357   -0.9794 N   0  0  0  0  0  0  0  0  0  0  0  0
   -2.0102    0.3277   -1.0125 C   0  0  0  0  0  0  0  0  0  0  0  0
   -1.2996    0.5893    0.1398 C   0  0  0  0  0  0  0  0  0  0  0  0
   -0.1319    1.3673    0.3387 C   0  0  0  0  0  0  0  0  0  0  0  0
    1.1780    0.7290    0.2274 C   0  0  0  0  0  0  0  0  0  0  0  0
    1.7884    0.7095   -1.0180 C   0  0  0  0  0  0  0  0  0  0  0  0
    3.0341    0.1372   -1.2729 C   0  0  0  0  0  0  0  0  0  0  0  0
    3.6961   -0.4488   -0.1981 C   0  0  0  0  0  0  0  0  0  0  0  0
    3.1284   -0.4532    1.0567 C   0  0  0  0  0  0  0  0  0  0  0  0
    1.8925    0.1270    1.2566 C   0  0  0  0  0  0  0  0  0  0  0  0
   -2.2710   -0.3342    1.3191 S   0  0  0  0  0  0  0  0  0  0  0  0
   -5.5803   -1.2220   -0.1380 H   0  0  0  0  0  0  0  0  0  0  0  0
   -4.5797   -2.8136    0.2786 H   0  0  0  0  0  0  0  0  0  0  0  0
   -1.6766    0.7587   -1.9720 H   0  0  0  0  0  0  0  0  0  0  0  0
   -0.1495    2.2390   -0.3494 H   0  0  0  0  0  0  0  0  0  0  0  0
   -0.1619    1.8209    1.3741 H   0  0  0  0  0  0  0  0  0  0  0  0
    1.2781    1.1690   -1.8798 H   0  0  0  0  0  0  0  0  0  0  0  0
    3.4586    0.1526   -2.2633 H   0  0  0  0  0  0  0  0  0  0  0  0
    4.6709   -0.8928   -0.4144 H   0  0  0  0  0  0  0  0  0  0  0  0
    3.6605   -0.9178    1.8928 H   0  0  0  0  0  0  0  0  0  0  0  0
    1.4239    0.1393    2.2237 H   0  0  0  0  0  0  0  0  0  0  0  0
  1  2  1  0
  2  3  2  0
  3  4  1  0
  4  5  2  0
  5  6  1  0
  6  7  1  0
  7  8  2  0
  8  9  1  0
  9 10  2  0
 10 11  1  0
 11 12  2  0
  5 13  1  0
 13  2  1  0
 12  7  1  0
  1 14  1  0
  1 15  1  0
  4 16  1  0
  6 17  1  0
  6 18  1  0
  8 19  1  0
  9 20  1  0
 10 21  1  0
 11 22  1  0
 12 23  1  0
M  END
$$$$
