
     RDKit          3D

 64 68  0  0  0  0  0  0  0  0999 V2000
    2.2416   -2.6395   -1.6830 C   0  0  0  0  0  0  0  0  0  0  0  0
    3.3101   -1.7871   -1.0788 C   0  0  0  0  0  0  0  0  0  0  0  0
    4.5991   -2.2377   -0.8821 C   0  0  0  0  0  0  0  0  0  0  0  0
    5.5849   -1.4317   -0.3176 C   0  0  0  0  0  0  0  0  0  0  0  0
    6.9339   -1.9541   -0.1301 C   0  0  0  0  0  0  0  0  0  0  0  0
    7.7992   -1.2073    0.3796 O   0  0  0  0  0  0  0  0  0  0  0  0
    7.2281   -3.2475   -0.5136 O   0  0  0  0  0  0  0  0  0  0  0  0
    5.2540   -0.1451    0.0532 C   0  0  0  0  0  0  0  0  0  0  0  0
    3.9805    0.3326   -0.1294 C   0  0  0  0  0  0  0  0  0  0  0  0
    3.0373   -0.4923   -0.6888 C   0  0  0  0  0  0  0  0  0  0  0  0
    1.6897    0.0040   -0.8854 N   0  0  0  0  0  0  0  0  0  0  0  0
    0.7072   -0.1451    0.1214 C   0  0  0  0  0  0  0  0  0  0  0  0
    1.1209   -0.7459    1.1726 O   0  0  0  0  0  0  0  0  0  0  0  0
   -0.6654    0.3036    0.0601 C   0  0  2  0  0  0  0  0  0  0  0  0
   -0.8282    1.8121    0.0137 C   0  0  0  0  0  0  0  0  0  0  0  0
   -2.3035    2.1824   -0.0362 C   0  0  0  0  0  0  0  0  0  0  0  0
   -2.3623    3.6057    0.5420 C   0  0  0  0  0  0  0  0  0  0  0  0
   -1.1244    4.3683    0.0891 C   0  0  0  0  0  0  0  0  0  0  0  0
   -0.6761    3.8892   -1.2741 C   0  0  0  0  0  0  0  0  0  0  0  0
   -0.1510    2.4760   -1.1346 C   0  0  0  0  0  0  0  0  0  0  0  0
   -1.5742   -0.3351    0.9652 N   0  0  0  0  0  0  0  0  0  0  0  0
   -2.6024   -1.1520    0.6206 C   0  0  0  0  0  0  0  0  0  0  0  0
   -2.9409   -1.5078   -0.7523 C   0  0  0  0  0  0  0  0  0  0  0  0
   -3.7707   -0.7030   -1.4986 C   0  0  0  0  0  0  0  0  0  0  0  0
   -4.0749   -1.0612   -2.7923 C   0  0  0  0  0  0  0  0  0  0  0  0
   -3.5608   -2.2171   -3.3568 C   0  0  0  0  0  0  0  0  0  0  0  0
   -3.9481   -2.6795   -5.0141 Cl  0  0  0  0  0  0  0  0  0  0  0  0
   -2.7283   -3.0375   -2.6285 C   0  0  0  0  0  0  0  0  0  0  0  0
   -2.4322   -2.6661   -1.3337 C   0  0  0  0  0  0  0  0  0  0  0  0
   -3.2119   -1.5446    1.7487 N   0  0  0  0  0  0  0  0  0  0  0  0
   -2.5912   -0.9922    2.8197 C   0  0  0  0  0  0  0  0  0  0  0  0
   -2.7841   -1.0481    4.1713 C   0  0  0  0  0  0  0  0  0  0  0  0
   -1.9868   -0.3723    5.0590 C   0  0  0  0  0  0  0  0  0  0  0  0
   -2.1977   -0.4427    6.4022 F   0  0  0  0  0  0  0  0  0  0  0  0
   -0.9531    0.3916    4.5716 C   0  0  0  0  0  0  0  0  0  0  0  0
   -0.1805    1.0498    5.4787 F   0  0  0  0  0  0  0  0  0  0  0  0
   -0.7396    0.4633    3.2171 C   0  0  0  0  0  0  0  0  0  0  0  0
   -1.5359   -0.2119    2.3277 C   0  0  0  0  0  0  0  0  0  0  0  0
    1.5744   -2.0267   -2.3313 H   0  0  0  0  0  0  0  0  0  0  0  0
    1.6795   -3.2057   -0.9152 H   0  0  0  0  0  0  0  0  0  0  0  0
    2.7595   -3.3457   -2.3777 H   0  0  0  0  0  0  0  0  0  0  0  0
    4.8698   -3.2407   -1.1677 H   0  0  0  0  0  0  0  0  0  0  0  0
    8.1446   -3.6595   -0.3848 H   0  0  0  0  0  0  0  0  0  0  0  0
    5.9966    0.5124    0.4965 H   0  0  0  0  0  0  0  0  0  0  0  0
    3.7019    1.3411    0.1559 H   0  0  0  0  0  0  0  0  0  0  0  0
    1.4304    0.4672   -1.7824 H   0  0  0  0  0  0  0  0  0  0  0  0
   -1.0183    0.0015   -0.9935 H   0  0  0  0  0  0  0  0  0  0  0  0
   -0.4181    2.2604    0.9370 H   0  0  0  0  0  0  0  0  0  0  0  0
   -2.8333    1.4656    0.6234 H   0  0  0  0  0  0  0  0  0  0  0  0
   -2.6984    2.2304   -1.0606 H   0  0  0  0  0  0  0  0  0  0  0  0
   -2.3375    3.5900    1.6483 H   0  0  0  0  0  0  0  0  0  0  0  0
   -3.2391    4.1278    0.1642 H   0  0  0  0  0  0  0  0  0  0  0  0
   -1.4256    5.4267   -0.0148 H   0  0  0  0  0  0  0  0  0  0  0  0
   -0.3046    4.3193    0.8069 H   0  0  0  0  0  0  0  0  0  0  0  0
    0.0750    4.5858   -1.6701 H   0  0  0  0  0  0  0  0  0  0  0  0
   -1.5541    3.8689   -1.9508 H   0  0  0  0  0  0  0  0  0  0  0  0
   -0.3659    1.9566   -2.0750 H   0  0  0  0  0  0  0  0  0  0  0  0
    0.9286    2.5708   -0.8861 H   0  0  0  0  0  0  0  0  0  0  0  0
   -4.1676    0.1996   -1.0468 H   0  0  0  0  0  0  0  0  0  0  0  0
   -4.7249   -0.4486   -3.4047 H   0  0  0  0  0  0  0  0  0  0  0  0
   -2.3265   -3.9466   -3.0785 H   0  0  0  0  0  0  0  0  0  0  0  0
   -1.7673   -3.3266   -0.7602 H   0  0  0  0  0  0  0  0  0  0  0  0
   -3.6067   -1.6582    4.5280 H   0  0  0  0  0  0  0  0  0  0  0  0
    0.0654    1.0593    2.8564 H   0  0  0  0  0  0  0  0  0  0  0  0
  1  2  1  0
  2  3  2  0
  3  4  1  0
  4  5  1  0
  5  6  2  0
  5  7  1  0
  4  8  2  0
  8  9  1  0
  9 10  2  0
 10 11  1  0
 11 12  1  0
 12 13  2  0
 12 14  1  0
 14 15  1  0
 15 16  1  0
 16 17  1  0
 17 18  1  0
 18 19  1  0
 19 20  1  0
 14 21  1  0
 21 22  1  0
 22 23  1  0
 23 24  2  0
 24 25  1  0
 25 26  2  0
 26 27  1  0
 26 28  1  0
 28 29  2  0
 22 30  2  0
 30 31  1  0
 31 32  2  0
 32 33  1  0
 33 34  1  0
 33 35  2  0
 35 36  1  0
 35 37  1  0
 37 38  2  0
 10  2  1  0
 20 15  1  0
 38 21  1  0
 29 23  1  0
 38 31  1  0
  1 39  1  0
  1 40  1  0
  1 41  1  0
  3 42  1  0
  7 43  1  0
  8 44  1  0
  9 45  1  0
 11 46  1  0
 14 47  1  6
 15 48  1  0
 16 49  1  0
 16 50  1  0
 17 51  1  0
 17 52  1  0
 18 53  1  0
 18 54  1  0
 19 55  1  0
 19 56  1  0
 20 57  1  0
 20 58  1  0
 24 59  1  0
 25 60  1  0
 28 61  1  0
 29 62  1  0
 32 63  1  0
 37 64  1  0
M  END
$$$$
