
     RDKit          3D

 34 36  0  0  0  0  0  0  0  0999 V2000
    3.0650   -2.0674   -2.5610 O   0  0  0  0  0  0  0  0  0  0  0  0
    3.8425   -1.7838   -1.6146 C   0  0  0  0  0  0  0  0  0  0  0  0
    5.0977   -2.3332   -1.5596 O   0  0  0  0  0  0  0  0  0  0  0  0
    3.3924   -0.8637   -0.5772 C   0  0  0  0  0  0  0  0  0  0  0  0
    4.2108   -0.5241    0.4791 C   0  0  0  0  0  0  0  0  0  0  0  0
    3.8037    0.3408    1.4652 C   0  0  0  0  0  0  0  0  0  0  0  0
    2.5373    0.8787    1.3854 C   0  0  0  0  0  0  0  0  0  0  0  0
    1.6894    0.5696    0.3537 C   0  0  0  0  0  0  0  0  0  0  0  0
    0.0779    1.2313    0.2163 S   0  0  0  0  0  6  0  0  0  0  0  0
    0.1091    2.6011    0.8753 O   0  0  0  0  0  0  0  0  0  0  0  0
   -0.2906    1.4560   -1.2146 O   0  0  0  0  0  0  0  0  0  0  0  0
   -1.0871    0.2829    1.0051 N   0  0  0  0  0  0  0  0  0  0  0  0
   -1.1684   -1.0208    0.4531 C   0  0  0  0  0  0  0  0  0  0  0  0
   -2.5795   -1.5173    0.2355 C   0  0  0  0  0  0  0  0  0  0  0  0
   -3.3794   -0.4206   -0.3394 C   0  0  0  0  0  0  0  0  0  0  0  0
   -4.5524   -0.2332   -1.6297 S   0  0  0  0  0  0  0  0  0  0  0  0
   -4.8626    1.4990   -1.4414 C   0  0  0  0  0  0  0  0  0  0  0  0
   -4.0164    1.8392   -0.3609 C   0  0  0  0  0  0  0  0  0  0  0  0
   -3.2859    0.9001    0.1836 C   0  0  0  0  0  0  0  0  0  0  0  0
   -2.3023    0.9426    1.3247 C   0  0  0  0  0  0  0  0  0  0  0  0
    2.1303   -0.2996   -0.6156 C   0  0  0  0  0  0  0  0  0  0  0  0
    5.5159   -2.6701   -2.4233 H   0  0  0  0  0  0  0  0  0  0  0  0
    5.2090   -0.9544    0.5326 H   0  0  0  0  0  0  0  0  0  0  0  0
    4.4407    0.6160    2.3032 H   0  0  0  0  0  0  0  0  0  0  0  0
    2.1509    1.5723    2.1352 H   0  0  0  0  0  0  0  0  0  0  0  0
   -0.6886   -1.0316   -0.5690 H   0  0  0  0  0  0  0  0  0  0  0  0
   -0.5748   -1.7277    1.0811 H   0  0  0  0  0  0  0  0  0  0  0  0
   -2.5351   -2.3224   -0.5266 H   0  0  0  0  0  0  0  0  0  0  0  0
   -3.0381   -1.9465    1.1344 H   0  0  0  0  0  0  0  0  0  0  0  0
   -5.5304    2.1432   -2.0070 H   0  0  0  0  0  0  0  0  0  0  0  0
   -4.0248    2.9283   -0.0269 H   0  0  0  0  0  0  0  0  0  0  0  0
   -2.7576    0.4881    2.2431 H   0  0  0  0  0  0  0  0  0  0  0  0
   -2.0846    2.0058    1.5256 H   0  0  0  0  0  0  0  0  0  0  0  0
    1.4860   -0.5786   -1.4656 H   0  0  0  0  0  0  0  0  0  0  0  0
  1  2  2  0
  2  3  1  0
  2  4  1  0
  4  5  2  0
  5  6  1  0
  6  7  2  0
  7  8  1  0
  8  9  1  0
  9 10  2  0
  9 11  2  0
  9 12  1  0
 12 13  1  0
 13 14  1  0
 14 15  1  0
 15 16  1  0
 16 17  1  0
 17 18  2  0
 18 19  1  0
 19 20  1  0
  8 21  2  0
 21  4  1  0
 20 12  1  0
 19 15  2  0
  3 22  1  0
  5 23  1  0
  6 24  1  0
  7 25  1  0
 13 26  1  0
 13 27  1  0
 14 28  1  0
 14 29  1  0
 17 30  1  0
 18 31  1  0
 20 32  1  0
 20 33  1  0
 21 34  1  0
M  END
$$$$
