
     RDKit          3D

 33 33  0  0  0  0  0  0  0  0999 V2000
   -0.8697   -0.5450   -0.0639 C   0  0  2  0  0  0  0  0  0  0  0  0
    0.1619   -0.9751    0.9431 C   0  0  0  0  0  0  0  0  0  0  0  0
    1.4792   -0.3368    0.7091 C   0  0  0  0  0  0  0  0  0  0  0  0
    1.8886    0.8460    1.2432 C   0  0  0  0  0  0  0  0  0  0  0  0
    3.1286    1.3985    0.9930 C   0  0  0  0  0  0  0  0  0  0  0  0
    3.9966    0.7355    0.1707 C   0  0  0  0  0  0  0  0  0  0  0  0
    3.6792   -0.4781   -0.4262 C   0  0  0  0  0  0  0  0  0  0  0  0
    2.4156   -0.9566   -0.1191 C   0  0  0  0  0  0  0  0  0  0  0  0
   -1.0979    0.8902   -0.0416 N   0  0  0  0  0  0  0  0  0  0  0  0
   -0.9790    1.8312   -1.1000 C   0  0  0  0  0  0  0  0  0  0  0  0
   -1.3053    3.2048   -0.6471 C   0  0  0  0  0  0  0  0  0  0  0  0
   -0.6319    1.4443   -2.2474 O   0  0  0  0  0  0  0  0  0  0  0  0
   -2.1771   -1.1959    0.2351 C   0  0  0  0  0  0  0  0  0  0  0  0
   -3.1281   -0.8266   -0.7446 O   0  0  0  0  0  0  0  0  0  0  0  0
   -2.7252   -0.7279    1.4417 O   0  0  0  0  0  0  0  0  0  0  0  0
   -2.1808   -2.6822    0.3063 C   0  0  0  0  0  0  0  0  0  0  0  0
   -1.7778   -3.2792   -0.8808 F   0  0  0  0  0  0  0  0  0  0  0  0
   -3.5308   -3.0483    0.4242 F   0  0  0  0  0  0  0  0  0  0  0  0
   -1.5775   -3.2127    1.4162 F   0  0  0  0  0  0  0  0  0  0  0  0
   -0.5720   -0.7967   -1.0976 H   0  0  0  0  0  0  0  0  0  0  0  0
   -0.1576   -0.6671    1.9446 H   0  0  0  0  0  0  0  0  0  0  0  0
    0.3134   -2.0591    0.8156 H   0  0  0  0  0  0  0  0  0  0  0  0
    1.2087    1.3766    1.8943 H   0  0  0  0  0  0  0  0  0  0  0  0
    3.4645    2.3303    1.4075 H   0  0  0  0  0  0  0  0  0  0  0  0
    4.9968    1.1136   -0.0727 H   0  0  0  0  0  0  0  0  0  0  0  0
    4.3023   -1.0547   -1.0786 H   0  0  0  0  0  0  0  0  0  0  0  0
    2.1164   -1.9150   -0.5675 H   0  0  0  0  0  0  0  0  0  0  0  0
   -1.3807    1.0952    0.9618 H   0  0  0  0  0  0  0  0  0  0  0  0
   -2.3825    3.3397   -0.4258 H   0  0  0  0  0  0  0  0  0  0  0  0
   -1.0631    3.9290   -1.4549 H   0  0  0  0  0  0  0  0  0  0  0  0
   -0.6780    3.4866    0.2217 H   0  0  0  0  0  0  0  0  0  0  0  0
   -2.7636   -1.1562   -1.6256 H   0  0  0  0  0  0  0  0  0  0  0  0
   -2.1733   -1.1085    2.1632 H   0  0  0  0  0  0  0  0  0  0  0  0
  1  2  1  0
  2  3  1  0
  3  4  2  0
  4  5  1  0
  5  6  2  0
  6  7  1  0
  7  8  2  0
  1  9  1  0
  9 10  1  0
 10 11  1  0
 10 12  2  0
  1 13  1  0
 13 14  1  0
 13 15  1  0
 13 16  1  0
 16 17  1  0
 16 18  1  0
 16 19  1  0
  8  3  1  0
  1 20  1  6
  2 21  1  0
  2 22  1  0
  4 23  1  0
  5 24  1  0
  6 25  1  0
  7 26  1  0
  8 27  1  0
  9 28  1  0
 11 29  1  0
 11 30  1  0
 11 31  1  0
 14 32  1  0
 15 33  1  0
M  END
$$$$
