
     RDKit          3D

 49 52  0  0  0  0  0  0  0  0999 V2000
    2.5202    1.8285   -0.6052 C   0  0  0  0  0  0  0  0  0  0  0  0
    1.9223    0.5527   -0.4582 N   0  0  0  0  0  0  0  0  0  0  0  0
    0.4976    0.4720   -0.6690 C   0  0  2  0  0  0  0  0  0  0  0  0
   -0.1816    1.6928   -1.1376 C   0  0  0  0  0  0  0  0  0  0  0  0
   -1.2531    2.1813   -0.1452 C   0  0  0  0  0  0  0  0  0  0  0  0
   -2.0946    0.9940    0.1482 C   0  0  0  0  0  0  0  0  0  0  0  0
   -3.4620    0.7238    0.1079 C   0  0  0  0  0  0  0  0  0  0  0  0
   -4.4241    1.7539   -0.2876 C   0  0  0  0  0  0  0  0  0  0  0  0
   -5.7890    1.3591   -0.5573 C   0  0  0  0  0  0  0  0  0  0  0  0
   -6.0738    0.6535   -1.5594 O   0  0  0  0  0  0  0  0  0  0  0  0
   -6.8428    1.7442    0.2794 O   0  0  0  0  0  0  0  0  0  0  0  0
   -3.6877   -0.5804    0.4887 C   0  0  0  0  0  0  0  0  0  0  0  0
   -4.7992   -1.3783    0.6421 C   0  0  0  0  0  0  0  0  0  0  0  0
   -4.6612   -2.6808    1.0538 C   0  0  0  0  0  0  0  0  0  0  0  0
   -3.3898   -3.1972    1.3160 C   0  0  0  0  0  0  0  0  0  0  0  0
   -2.3429   -2.3793    1.1537 N   0  0  0  0  0  0  0  0  0  0  0  0
   -2.4149   -1.1022    0.7599 C   0  0  0  0  0  0  0  0  0  0  0  0
   -1.4931   -0.1260    0.5452 N   0  0  0  0  0  0  0  0  0  0  0  0
   -0.0504   -0.0713    0.6685 C   0  0  0  0  0  0  0  0  0  0  0  0
    2.7611   -0.7309   -1.2365 S   0  0  0  0  0  6  0  0  0  0  0  0
    2.0210   -2.0062   -0.9533 O   0  0  0  0  0  0  0  0  0  0  0  0
    2.7805   -0.5196   -2.7049 O   0  0  0  0  0  0  0  0  0  0  0  0
    4.3760   -0.9119   -0.5852 C   0  0  0  0  0  0  0  0  0  0  0  0
    5.4956   -0.8524   -1.4100 C   0  0  0  0  0  0  0  0  0  0  0  0
    6.7630   -0.9665   -0.9144 C   0  0  0  0  0  0  0  0  0  0  0  0
    6.9407   -1.1471    0.4453 C   0  0  0  0  0  0  0  0  0  0  0  0
    8.1955   -1.2675    0.9656 F   0  0  0  0  0  0  0  0  0  0  0  0
    5.8499   -1.2084    1.2784 C   0  0  0  0  0  0  0  0  0  0  0  0
    4.5791   -1.0907    0.7651 C   0  0  0  0  0  0  0  0  0  0  0  0
    2.4193    2.3366   -1.5640 H   0  0  0  0  0  0  0  0  0  0  0  0
    2.2037    2.5587    0.1929 H   0  0  0  0  0  0  0  0  0  0  0  0
    3.6360    1.6746   -0.4699 H   0  0  0  0  0  0  0  0  0  0  0  0
    0.3373   -0.4338   -1.3436 H   0  0  0  0  0  0  0  0  0  0  0  0
   -0.8190    1.3873   -2.0342 H   0  0  0  0  0  0  0  0  0  0  0  0
    0.4344    2.5231   -1.4853 H   0  0  0  0  0  0  0  0  0  0  0  0
   -0.7935    2.5192    0.7992 H   0  0  0  0  0  0  0  0  0  0  0  0
   -1.8361    2.9479   -0.6747 H   0  0  0  0  0  0  0  0  0  0  0  0
   -4.0159    2.3146   -1.1774 H   0  0  0  0  0  0  0  0  0  0  0  0
   -4.4394    2.5395    0.5206 H   0  0  0  0  0  0  0  0  0  0  0  0
   -7.5687    1.0331    0.4514 H   0  0  0  0  0  0  0  0  0  0  0  0
   -5.7778   -0.9950    0.4519 H   0  0  0  0  0  0  0  0  0  0  0  0
   -5.5015   -3.3381    1.1903 H   0  0  0  0  0  0  0  0  0  0  0  0
   -3.2919   -4.2436    1.6480 H   0  0  0  0  0  0  0  0  0  0  0  0
    0.4244   -1.0634    0.7976 H   0  0  0  0  0  0  0  0  0  0  0  0
    0.1608    0.6126    1.5083 H   0  0  0  0  0  0  0  0  0  0  0  0
    5.3097   -0.7146   -2.4809 H   0  0  0  0  0  0  0  0  0  0  0  0
    7.6124   -0.9172   -1.6156 H   0  0  0  0  0  0  0  0  0  0  0  0
    6.0443   -1.3483    2.3303 H   0  0  0  0  0  0  0  0  0  0  0  0
    3.7192   -1.1323    1.4639 H   0  0  0  0  0  0  0  0  0  0  0  0
  1  2  1  0
  2  3  1  0
  3  4  1  0
  4  5  1  0
  5  6  1  0
  6  7  2  0
  7  8  1  0
  8  9  1  0
  9 10  2  0
  9 11  1  0
  7 12  1  0
 12 13  2  0
 13 14  1  0
 14 15  2  0
 15 16  1  0
 16 17  2  0
 17 18  1  0
 18 19  1  0
  2 20  1  0
 20 21  2  0
 20 22  2  0
 20 23  1  0
 23 24  2  0
 24 25  1  0
 25 26  2  0
 26 27  1  0
 26 28  1  0
 28 29  2  0
 19  3  1  0
 29 23  1  0
 18  6  1  0
 17 12  1  0
  1 30  1  0
  1 31  1  0
  1 32  1  0
  3 33  1  6
  4 34  1  0
  4 35  1  0
  5 36  1  0
  5 37  1  0
  8 38  1  0
  8 39  1  0
 11 40  1  0
 13 41  1  0
 14 42  1  0
 15 43  1  0
 19 44  1  0
 19 45  1  0
 24 46  1  0
 25 47  1  0
 28 48  1  0
 29 49  1  0
M  END
$$$$
