
     RDKit          3D

 30 33  0  0  0  0  0  0  0  0999 V2000
   -5.7339    2.1754   -0.9115 Cl  0  0  0  0  0  0  0  0  0  0  0  0
   -4.2342    1.2987   -0.6903 C   0  0  0  0  0  0  0  0  0  0  0  0
   -4.2178   -0.0830   -0.6694 C   0  0  0  0  0  0  0  0  0  0  0  0
   -3.0666   -0.8198   -0.4988 C   0  0  0  0  0  0  0  0  0  0  0  0
   -1.8578   -0.1736   -0.3389 C   0  0  0  0  0  0  0  0  0  0  0  0
   -1.8573    1.2008   -0.3573 C   0  0  0  0  0  0  0  0  0  0  0  0
   -3.0200    1.9317   -0.5294 C   0  0  0  0  0  0  0  0  0  0  0  0
   -0.5669    1.5708   -0.1822 N   0  0  0  0  0  0  0  0  0  0  0  0
    0.1918    0.4484   -0.0612 C   0  0  0  0  0  0  0  0  0  0  0  0
   -0.5895   -0.6393   -0.1556 N   0  0  0  0  0  0  0  0  0  0  0  0
   -0.2278   -2.0150   -0.0869 C   0  0  0  0  0  0  0  0  0  0  0  0
    0.6854   -2.3768    1.0404 C   0  0  0  0  0  0  0  0  0  0  0  0
    1.9907   -1.8650    0.8938 O   0  0  0  0  0  0  0  0  0  0  0  0
    2.4453   -0.5811    0.5663 C   0  0  0  0  0  0  0  0  0  0  0  0
    3.8017   -0.4195    0.7063 C   0  0  0  0  0  0  0  0  0  0  0  0
    4.3598    0.7934    0.4149 C   0  0  0  0  0  0  0  0  0  0  0  0
    3.5668    1.8159   -0.0069 C   0  0  0  0  0  0  0  0  0  0  0  0
    4.3339    3.5199   -0.4186 Br  0  0  0  0  0  0  0  0  0  0  0  0
    2.2023    1.6683   -0.1522 C   0  0  0  0  0  0  0  0  0  0  0  0
    1.6360    0.4478    0.1403 C   0  0  0  0  0  0  0  0  0  0  0  0
   -5.1628   -0.6255   -0.7940 H   0  0  0  0  0  0  0  0  0  0  0  0
   -3.0588   -1.9032   -0.4831 H   0  0  0  0  0  0  0  0  0  0  0  0
   -3.0117    3.0103   -0.5428 H   0  0  0  0  0  0  0  0  0  0  0  0
    0.1794   -2.3210   -1.0712 H   0  0  0  0  0  0  0  0  0  0  0  0
   -1.1648   -2.6104    0.0459 H   0  0  0  0  0  0  0  0  0  0  0  0
    0.2180   -2.0824    1.9947 H   0  0  0  0  0  0  0  0  0  0  0  0
    0.7747   -3.4834    1.0594 H   0  0  0  0  0  0  0  0  0  0  0  0
    4.3677   -1.2719    1.0446 H   0  0  0  0  0  0  0  0  0  0  0  0
    5.4493    0.8894    0.5376 H   0  0  0  0  0  0  0  0  0  0  0  0
    1.5672    2.5001   -0.4938 H   0  0  0  0  0  0  0  0  0  0  0  0
  1  2  1  0
  2  3  2  0
  3  4  1  0
  4  5  2  0
  5  6  1  0
  6  7  2  0
  6  8  1  0
  8  9  2  0
  9 10  1  0
 10 11  1  0
 11 12  1  0
 12 13  1  0
 13 14  1  0
 14 15  2  0
 15 16  1  0
 16 17  2  0
 17 18  1  0
 17 19  1  0
 19 20  2  0
  7  2  1  0
 20  9  1  0
 10  5  1  0
 20 14  1  0
  3 21  1  0
  4 22  1  0
  7 23  1  0
 11 24  1  0
 11 25  1  0
 12 26  1  0
 12 27  1  0
 15 28  1  0
 16 29  1  0
 19 30  1  0
M  END
$$$$
