
     RDKit          3D

 51 55  0  0  0  0  0  0  0  0999 V2000
   -2.9356   -1.0587   -2.1529 C   0  0  0  0  0  0  0  0  0  0  0  0
   -2.4884   -0.7178   -0.7437 C   0  0  1  0  0  0  0  0  0  0  0  0
   -2.4814    0.6889   -0.6439 O   0  0  0  0  0  0  0  0  0  0  0  0
   -1.2704    1.3290   -0.3990 C   0  0  0  0  0  0  0  0  0  0  0  0
   -0.1142    0.6628   -0.2547 N   0  0  0  0  0  0  0  0  0  0  0  0
    1.0544    1.3225   -0.0154 C   0  0  0  0  0  0  0  0  0  0  0  0
    2.2904    0.5626    0.1355 C   0  0  0  0  0  0  0  0  0  0  0  0
    2.2614   -0.8371    0.0325 C   0  0  0  0  0  0  0  0  0  0  0  0
    3.4445   -1.5198    0.1801 C   0  0  0  0  0  0  0  0  0  0  0  0
    4.6464   -0.9146    0.4211 C   0  0  0  0  0  0  0  0  0  0  0  0
    5.9196   -1.6674    0.5786 C   0  0  0  0  0  0  0  0  0  0  0  0
    5.9062   -3.0435    1.1288 C   0  0  0  0  0  0  0  0  0  0  0  0
    6.1097   -2.8919   -0.3409 C   0  0  0  0  0  0  0  0  0  0  0  0
    4.6365    0.4243    0.5134 N   0  0  0  0  0  0  0  0  0  0  0  0
    3.4907    1.1611    0.3758 C   0  0  0  0  0  0  0  0  0  0  0  0
    1.0177    2.6701    0.0731 C   0  0  0  0  0  0  0  0  0  0  0  0
   -0.1574    3.4192   -0.0685 C   0  0  0  0  0  0  0  0  0  0  0  0
   -0.4840    4.7198   -0.0312 N   0  0  0  0  0  0  0  0  0  0  0  0
   -1.7939    4.8630   -0.2376 N   0  0  0  0  0  0  0  0  0  0  0  0
   -2.5273    6.1141   -0.2710 C   0  0  0  0  0  0  0  0  0  0  0  0
   -2.3465    3.6279   -0.4155 C   0  0  0  0  0  0  0  0  0  0  0  0
   -1.3126    2.7089   -0.3092 C   0  0  0  0  0  0  0  0  0  0  0  0
   -3.4340   -1.3706    0.2086 C   0  0  1  0  0  0  0  0  0  0  0  0
   -3.3828   -2.8667   -0.0272 C   0  0  0  0  0  0  0  0  0  0  0  0
   -3.7386   -3.4357    1.2629 N   0  0  0  0  0  0  0  0  0  0  0  0
   -3.7526   -2.4107    2.2625 C   0  0  0  0  0  0  0  0  0  0  0  0
   -4.2615   -2.4751    3.3941 O   0  0  0  0  0  0  0  0  0  0  0  0
   -3.0276   -1.2589    1.6503 C   0  0  0  0  0  0  0  0  0  0  0  0
   -2.9822   -2.1401   -2.3307 H   0  0  0  0  0  0  0  0  0  0  0  0
   -3.9925   -0.6795   -2.2647 H   0  0  0  0  0  0  0  0  0  0  0  0
   -2.2586   -0.5155   -2.8365 H   0  0  0  0  0  0  0  0  0  0  0  0
   -1.4898   -1.1608   -0.6096 H   0  0  0  0  0  0  0  0  0  0  0  0
    1.3171   -1.3178   -0.1572 H   0  0  0  0  0  0  0  0  0  0  0  0
    3.4552   -2.6043    0.1057 H   0  0  0  0  0  0  0  0  0  0  0  0
    6.8116   -1.0699    0.7680 H   0  0  0  0  0  0  0  0  0  0  0  0
    6.8042   -3.3804    1.6888 H   0  0  0  0  0  0  0  0  0  0  0  0
    4.9422   -3.5009    1.4740 H   0  0  0  0  0  0  0  0  0  0  0  0
    5.2438   -3.1322   -0.9793 H   0  0  0  0  0  0  0  0  0  0  0  0
    7.0962   -3.0071   -0.8094 H   0  0  0  0  0  0  0  0  0  0  0  0
    3.5481    2.2515    0.4618 H   0  0  0  0  0  0  0  0  0  0  0  0
    1.8917    3.2711    0.2596 H   0  0  0  0  0  0  0  0  0  0  0  0
   -1.9483    6.8645   -0.8725 H   0  0  0  0  0  0  0  0  0  0  0  0
   -3.4812    5.9684   -0.8394 H   0  0  0  0  0  0  0  0  0  0  0  0
   -2.6842    6.5482    0.7207 H   0  0  0  0  0  0  0  0  0  0  0  0
   -3.3674    3.3752   -0.6019 H   0  0  0  0  0  0  0  0  0  0  0  0
   -4.4774   -1.0247    0.1068 H   0  0  0  0  0  0  0  0  0  0  0  0
   -4.0927   -3.1938   -0.7974 H   0  0  0  0  0  0  0  0  0  0  0  0
   -2.3357   -3.2026   -0.2342 H   0  0  0  0  0  0  0  0  0  0  0  0
   -3.9604   -4.4250    1.4920 H   0  0  0  0  0  0  0  0  0  0  0  0
   -3.3690   -0.3063    2.1182 H   0  0  0  0  0  0  0  0  0  0  0  0
   -1.9394   -1.4239    1.7960 H   0  0  0  0  0  0  0  0  0  0  0  0
  1  2  1  0
  2  3  1  0
  3  4  1  0
  4  5  2  0
  5  6  1  0
  6  7  1  0
  7  8  2  0
  8  9  1  0
  9 10  2  0
 10 11  1  0
 11 12  1  0
 12 13  1  0
 10 14  1  0
 14 15  2  0
  6 16  2  0
 16 17  1  0
 17 18  2  0
 18 19  1  0
 19 20  1  0
 19 21  1  0
 21 22  2  0
  2 23  1  0
 23 24  1  0
 24 25  1  0
 25 26  1  0
 26 27  2  0
 26 28  1  0
 22  4  1  0
 28 23  1  0
 15  7  1  0
 22 17  1  0
 13 11  1  0
  1 29  1  0
  1 30  1  0
  1 31  1  0
  2 32  1  1
  8 33  1  0
  9 34  1  0
 11 35  1  0
 12 36  1  0
 12 37  1  0
 13 38  1  0
 13 39  1  0
 15 40  1  0
 16 41  1  0
 20 42  1  0
 20 43  1  0
 20 44  1  0
 21 45  1  0
 23 46  1  1
 24 47  1  0
 24 48  1  0
 25 49  1  0
 28 50  1  0
 28 51  1  0
M  END
$$$$
