
     RDKit          3D

 44 46  0  0  0  0  0  0  0  0999 V2000
   -5.7681   -3.0775    0.2388 N   0  0  0  0  0  0  0  0  0  0  0  0
   -5.7541   -1.6689    0.0716 C   0  0  0  0  0  0  0  0  0  0  0  0
   -6.8579   -1.1002   -0.1146 O   0  0  0  0  0  0  0  0  0  0  0  0
   -4.5247   -0.8857    0.1095 C   0  0  0  0  0  0  0  0  0  0  0  0
   -3.3057   -1.4848    0.3117 C   0  0  0  0  0  0  0  0  0  0  0  0
   -2.1473   -0.7027    0.3421 C   0  0  0  0  0  0  0  0  0  0  0  0
   -2.1852    0.6590    0.1745 C   0  0  0  0  0  0  0  0  0  0  0  0
   -1.0176    1.4168    0.2359 N   0  0  0  0  0  0  0  0  0  0  0  0
    0.3146    0.8812    0.4173 C   0  0  0  0  0  0  0  0  0  0  0  0
    0.8584    0.2056   -0.7896 C   0  0  0  0  0  0  0  0  0  0  0  0
    2.2350   -0.3407   -0.5305 C   0  0  0  0  0  0  0  0  0  0  0  0
    3.2278    0.7023   -0.1486 C   0  0  0  0  0  0  0  0  0  0  0  0
    4.5643    0.1128    0.0935 C   0  0  0  0  0  0  0  0  0  0  0  0
    5.4799   -0.0151   -0.9266 C   0  0  0  0  0  0  0  0  0  0  0  0
    6.7401   -0.5623   -0.7355 C   0  0  0  0  0  0  0  0  0  0  0  0
    7.0765   -0.9922    0.5354 C   0  0  0  0  0  0  0  0  0  0  0  0
    6.1908   -0.8813    1.5773 C   0  0  0  0  0  0  0  0  0  0  0  0
    4.9502   -0.3331    1.3479 C   0  0  0  0  0  0  0  0  0  0  0  0
   -3.4033    1.2587   -0.0274 C   0  0  0  0  0  0  0  0  0  0  0  0
   -3.5785    2.6085   -0.2086 C   0  0  0  0  0  0  0  0  0  0  0  0
   -4.8210    3.1060   -0.4015 N   0  0  0  0  0  0  0  0  0  0  0  0
   -5.9272    2.3500   -0.4290 C   0  0  0  0  0  0  0  0  0  0  0  0
   -5.7905    1.0311   -0.2558 N   0  0  0  0  0  0  0  0  0  0  0  0
   -4.5740    0.4792   -0.0591 C   0  0  0  0  0  0  0  0  0  0  0  0
   -5.6908   -3.4460    1.2148 H   0  0  0  0  0  0  0  0  0  0  0  0
   -5.8504   -3.7545   -0.5506 H   0  0  0  0  0  0  0  0  0  0  0  0
   -3.2692   -2.5637    0.4447 H   0  0  0  0  0  0  0  0  0  0  0  0
   -1.2387   -1.2542    0.5208 H   0  0  0  0  0  0  0  0  0  0  0  0
   -1.0515    2.4689    0.1476 H   0  0  0  0  0  0  0  0  0  0  0  0
    0.1986    0.0826    1.2043 H   0  0  0  0  0  0  0  0  0  0  0  0
    0.9765    1.6871    0.7562 H   0  0  0  0  0  0  0  0  0  0  0  0
    0.9212    0.9693   -1.6133 H   0  0  0  0  0  0  0  0  0  0  0  0
    0.1608   -0.5523   -1.1677 H   0  0  0  0  0  0  0  0  0  0  0  0
    2.1452   -1.1405    0.2411 H   0  0  0  0  0  0  0  0  0  0  0  0
    2.6087   -0.8471   -1.4437 H   0  0  0  0  0  0  0  0  0  0  0  0
    2.9702    1.2833    0.7499 H   0  0  0  0  0  0  0  0  0  0  0  0
    3.2793    1.4374   -0.9959 H   0  0  0  0  0  0  0  0  0  0  0  0
    5.2408    0.3132   -1.9278 H   0  0  0  0  0  0  0  0  0  0  0  0
    7.4412   -0.6517   -1.5532 H   0  0  0  0  0  0  0  0  0  0  0  0
    8.0562   -1.4165    0.6795 H   0  0  0  0  0  0  0  0  0  0  0  0
    6.4897   -1.2260    2.5460 H   0  0  0  0  0  0  0  0  0  0  0  0
    4.2509   -0.2450    2.1681 H   0  0  0  0  0  0  0  0  0  0  0  0
   -2.7293    3.2678   -0.1979 H   0  0  0  0  0  0  0  0  0  0  0  0
   -6.8918    2.8211   -0.5889 H   0  0  0  0  0  0  0  0  0  0  0  0
  1  2  1  0
  2  3  2  0
  2  4  1  0
  4  5  2  0
  5  6  1  0
  6  7  2  0
  7  8  1  0
  8  9  1  0
  9 10  1  0
 10 11  1  0
 11 12  1  0
 12 13  1  0
 13 14  2  0
 14 15  1  0
 15 16  2  0
 16 17  1  0
 17 18  2  0
  7 19  1  0
 19 20  2  0
 20 21  1  0
 21 22  2  0
 22 23  1  0
 23 24  2  0
 24  4  1  0
 18 13  1  0
 24 19  1  0
  1 25  1  0
  1 26  1  0
  5 27  1  0
  6 28  1  0
  8 29  1  0
  9 30  1  0
  9 31  1  0
 10 32  1  0
 10 33  1  0
 11 34  1  0
 11 35  1  0
 12 36  1  0
 12 37  1  0
 14 38  1  0
 15 39  1  0
 16 40  1  0
 17 41  1  0
 18 42  1  0
 20 43  1  0
 22 44  1  0
M  END
$$$$
