
     RDKit          3D

 34 37  0  0  0  0  0  0  0  0999 V2000
    2.2902   -0.9415   -0.3973 C   0  0  2  0  0  0  0  0  0  0  0  0
    3.2766   -1.1160    0.7195 C   0  0  0  0  0  0  0  0  0  0  0  0
    4.3870   -0.3151    0.3989 O   0  0  0  0  0  0  0  0  0  0  0  0
    3.8628    1.2972    0.4163 P   0  0  1  0  0  5  0  0  0  0  0  0
    3.2039    1.5822    1.9542 O   0  0  0  0  0  0  0  0  0  0  0  0
    5.1209    2.3912    0.0715 S   0  0  0  0  0  0  0  0  0  0  0  0
    2.5950    1.4146   -0.7273 O   0  0  0  0  0  0  0  0  0  0  0  0
    1.6903    0.4523   -0.3568 C   0  0  1  0  0  0  0  0  0  0  0  0
    0.6026    0.2297   -1.4094 C   0  0  1  0  0  0  0  0  0  0  0  0
    1.2589    0.1197   -2.6303 O   0  0  0  0  0  0  0  0  0  0  0  0
    0.1232   -1.1315   -0.9489 C   0  0  1  0  0  0  0  0  0  0  0  0
    1.1576   -1.7240   -0.2684 O   0  0  0  0  0  0  0  0  0  0  0  0
   -1.0296   -0.9118   -0.0953 N   0  0  0  0  0  0  0  0  0  0  0  0
   -1.2194   -1.4031    1.1423 C   0  0  0  0  0  0  0  0  0  0  0  0
   -2.4023   -1.0015    1.6517 N   0  0  0  0  0  0  0  0  0  0  0  0
   -2.9589   -0.2346    0.6893 C   0  0  0  0  0  0  0  0  0  0  0  0
   -4.1579    0.4725    0.5815 C   0  0  0  0  0  0  0  0  0  0  0  0
   -5.0265    0.3977    1.7245 N   0  0  0  0  0  0  0  0  0  0  0  0
   -4.5103    1.1802   -0.4900 N   0  0  0  0  0  0  0  0  0  0  0  0
   -3.6551    1.2132   -1.5307 C   0  0  0  0  0  0  0  0  0  0  0  0
   -2.4875    0.5506   -1.4796 N   0  0  0  0  0  0  0  0  0  0  0  0
   -2.1076   -0.1714   -0.4099 C   0  0  0  0  0  0  0  0  0  0  0  0
    2.7807   -1.0995   -1.3795 H   0  0  0  0  0  0  0  0  0  0  0  0
    2.8026   -0.7563    1.6583 H   0  0  0  0  0  0  0  0  0  0  0  0
    3.5839   -2.1663    0.7934 H   0  0  0  0  0  0  0  0  0  0  0  0
    3.9748    1.9033    2.5032 H   0  0  0  0  0  0  0  0  0  0  0  0
    1.2371    0.6228    0.6378 H   0  0  0  0  0  0  0  0  0  0  0  0
   -0.1542    1.0106   -1.3881 H   0  0  0  0  0  0  0  0  0  0  0  0
    1.0210   -0.6889   -3.1342 H   0  0  0  0  0  0  0  0  0  0  0  0
   -0.1433   -1.7972   -1.7956 H   0  0  0  0  0  0  0  0  0  0  0  0
   -0.5008   -2.0429    1.6563 H   0  0  0  0  0  0  0  0  0  0  0  0
   -5.2159   -0.3985    2.3498 H   0  0  0  0  0  0  0  0  0  0  0  0
   -5.5284    1.2943    1.9319 H   0  0  0  0  0  0  0  0  0  0  0  0
   -3.8714    1.7681   -2.4389 H   0  0  0  0  0  0  0  0  0  0  0  0
  1  2  1  0
  2  3  1  0
  3  4  1  0
  4  5  1  1
  4  6  2  0
  4  7  1  0
  7  8  1  0
  8  9  1  0
  9 10  1  0
  9 11  1  0
 11 12  1  0
 11 13  1  0
 13 14  1  0
 14 15  2  0
 15 16  1  0
 16 17  2  0
 17 18  1  0
 17 19  1  0
 19 20  2  0
 20 21  1  0
 21 22  2  0
  8  1  1  0
 22 13  1  0
 12  1  1  0
 22 16  1  0
  1 23  1  6
  2 24  1  0
  2 25  1  0
  5 26  1  0
  8 27  1  1
  9 28  1  6
 10 29  1  0
 11 30  1  6
 14 31  1  0
 18 32  1  0
 18 33  1  0
 20 34  1  0
M  END
$$$$
