
     RDKit          3D

 62 66  0  0  0  0  0  0  0  0999 V2000
   -4.6552   -5.3854    0.7051 C   0  0  0  0  0  0  0  0  0  0  0  0
   -3.8383   -4.1469    0.6150 C   0  0  0  0  0  0  0  0  0  0  0  0
   -2.4940   -4.0484    0.3757 C   0  0  0  0  0  0  0  0  0  0  0  0
   -2.1543   -2.6791    0.3783 C   0  0  0  0  0  0  0  0  0  0  0  0
   -0.7873   -2.2259    0.1520 C   0  0  0  0  0  0  0  0  0  0  0  0
    0.1194   -3.1065   -0.0455 O   0  0  0  0  0  0  0  0  0  0  0  0
   -0.3333   -0.8970    0.1239 N   0  0  0  0  0  0  0  0  0  0  0  0
    1.0533   -0.5689   -0.1107 C   0  0  0  0  0  0  0  0  0  0  0  0
    1.4923   -0.3684   -1.3977 C   0  0  0  0  0  0  0  0  0  0  0  0
    2.8155   -0.0529   -1.6419 C   0  0  0  0  0  0  0  0  0  0  0  0
    3.7353    0.0711   -0.6126 C   0  0  0  0  0  0  0  0  0  0  0  0
    5.1348    0.3637   -0.8548 C   0  0  0  0  0  0  0  0  0  0  0  0
    5.9620   -0.6100   -1.4411 C   0  0  0  0  0  0  0  0  0  0  0  0
    7.3005   -0.3736   -1.6516 C   0  0  0  0  0  0  0  0  0  0  0  0
    7.8725    0.8286   -1.2930 C   0  0  0  0  0  0  0  0  0  0  0  0
    7.0516    1.7657   -0.7239 C   0  0  0  0  0  0  0  0  0  0  0  0
    5.6857    1.5636   -0.4938 C   0  0  0  0  0  0  0  0  0  0  0  0
    4.7422    2.8306    0.1895 S   0  0  0  0  0  6  0  0  0  0  0  0
    5.7906    4.2127    0.4592 N   0  0  0  0  0  0  0  0  0  0  0  0
    3.6926    3.3443   -0.7890 O   0  0  0  0  0  0  0  0  0  0  0  0
    4.1216    2.5457    1.5017 O   0  0  0  0  0  0  0  0  0  0  0  0
    3.2788   -0.1335    0.6640 C   0  0  0  0  0  0  0  0  0  0  0  0
    1.9430   -0.4531    0.9317 C   0  0  0  0  0  0  0  0  0  0  0  0
   -3.2857   -2.0128    0.6149 N   0  0  0  0  0  0  0  0  0  0  0  0
   -3.4162   -0.5922    0.7059 C   0  0  0  0  0  0  0  0  0  0  0  0
   -3.2779    0.0749    1.9171 C   0  0  0  0  0  0  0  0  0  0  0  0
   -3.4330    1.4342    1.9758 C   0  0  0  0  0  0  0  0  0  0  0  0
   -3.3003    2.1280    3.1732 C   0  0  0  0  0  0  0  0  0  0  0  0
   -3.4559    3.4834    3.2261 C   0  0  0  0  0  0  0  0  0  0  0  0
   -3.7495    4.1481    2.0550 C   0  0  0  0  0  0  0  0  0  0  0  0
   -3.8851    3.4817    0.8598 C   0  0  0  0  0  0  0  0  0  0  0  0
   -3.7260    2.1159    0.8192 C   0  0  0  0  0  0  0  0  0  0  0  0
   -3.8649    1.4458   -0.3967 C   0  0  0  0  0  0  0  0  0  0  0  0
   -3.7127    0.0768   -0.4779 C   0  0  0  0  0  0  0  0  0  0  0  0
   -3.8811   -0.7858   -1.9828 S   0  0  0  0  0  6  0  0  0  0  0  0
   -5.1619   -1.9496   -1.8622 N   0  0  0  0  0  0  0  0  0  0  0  0
   -2.6182   -1.3975   -2.4590 O   0  0  0  0  0  0  0  0  0  0  0  0
   -4.3223    0.2139   -3.0358 O   0  0  0  0  0  0  0  0  0  0  0  0
   -4.2728   -2.8926    0.7527 N   0  0  0  0  0  0  0  0  0  0  0  0
   -5.1650   -5.4353    1.6849 H   0  0  0  0  0  0  0  0  0  0  0  0
   -5.4447   -5.4228   -0.0648 H   0  0  0  0  0  0  0  0  0  0  0  0
   -3.9870   -6.2531    0.5317 H   0  0  0  0  0  0  0  0  0  0  0  0
   -1.8137   -4.8871    0.2130 H   0  0  0  0  0  0  0  0  0  0  0  0
   -1.0067   -0.1303    0.2745 H   0  0  0  0  0  0  0  0  0  0  0  0
    0.7873   -0.4606   -2.2231 H   0  0  0  0  0  0  0  0  0  0  0  0
    3.1850    0.1096   -2.6464 H   0  0  0  0  0  0  0  0  0  0  0  0
    5.4861   -1.5391   -1.7105 H   0  0  0  0  0  0  0  0  0  0  0  0
    7.9018   -1.1460   -2.1042 H   0  0  0  0  0  0  0  0  0  0  0  0
    8.9271    0.9798   -1.4726 H   0  0  0  0  0  0  0  0  0  0  0  0
    7.4894    2.7112   -0.4390 H   0  0  0  0  0  0  0  0  0  0  0  0
    6.3344    4.4346   -0.4023 H   0  0  0  0  0  0  0  0  0  0  0  0
    6.4085    4.0354    1.2825 H   0  0  0  0  0  0  0  0  0  0  0  0
    3.9301   -0.0813    1.5323 H   0  0  0  0  0  0  0  0  0  0  0  0
    1.5926   -0.6115    1.9396 H   0  0  0  0  0  0  0  0  0  0  0  0
   -3.0472   -0.4804    2.8147 H   0  0  0  0  0  0  0  0  0  0  0  0
   -3.0732    1.5740    4.0533 H   0  0  0  0  0  0  0  0  0  0  0  0
   -3.3613    4.0556    4.1318 H   0  0  0  0  0  0  0  0  0  0  0  0
   -3.8767    5.2322    2.0820 H   0  0  0  0  0  0  0  0  0  0  0  0
   -4.1156    3.9796   -0.0751 H   0  0  0  0  0  0  0  0  0  0  0  0
   -4.0952    1.9601   -1.3194 H   0  0  0  0  0  0  0  0  0  0  0  0
   -5.1529   -2.5592   -2.7110 H   0  0  0  0  0  0  0  0  0  0  0  0
   -6.0691   -1.5142   -1.6788 H   0  0  0  0  0  0  0  0  0  0  0  0
  1  2  1  0
  2  3  1  0
  3  4  2  0
  4  5  1  0
  5  6  2  0
  5  7  1  0
  7  8  1  0
  8  9  2  0
  9 10  1  0
 10 11  2  0
 11 12  1  0
 12 13  2  0
 13 14  1  0
 14 15  2  0
 15 16  1  0
 16 17  2  0
 17 18  1  0
 18 19  1  0
 18 20  2  0
 18 21  2  0
 11 22  1  0
 22 23  2  0
  4 24  1  0
 24 25  1  0
 25 26  2  0
 26 27  1  0
 27 28  2  0
 28 29  1  0
 29 30  2  0
 30 31  1  0
 31 32  2  0
 32 33  1  0
 33 34  2  0
 34 35  1  0
 35 36  1  0
 35 37  2  0
 35 38  2  0
 24 39  1  0
 39  2  2  0
 23  8  1  0
 34 25  1  0
 17 12  1  0
 32 27  1  0
  1 40  1  0
  1 41  1  0
  1 42  1  0
  3 43  1  0
  7 44  1  0
  9 45  1  0
 10 46  1  0
 13 47  1  0
 14 48  1  0
 15 49  1  0
 16 50  1  0
 19 51  1  0
 19 52  1  0
 22 53  1  0
 23 54  1  0
 26 55  1  0
 28 56  1  0
 29 57  1  0
 30 58  1  0
 31 59  1  0
 33 60  1  0
 36 61  1  0
 36 62  1  0
M  END
$$$$
