
     RDKit          3D

 44 45  0  0  0  0  0  0  0  0999 V2000
    4.5925   -1.6701    0.7214 C   0  0  0  0  0  0  0  0  0  0  0  0
    4.0625   -0.3154    0.2863 C   0  0  0  0  0  0  0  0  0  0  0  0
    4.7176    0.0691   -1.0091 C   0  0  0  0  0  0  0  0  0  0  0  0
    4.4635    0.6811    1.3324 C   0  0  0  0  0  0  0  0  0  0  0  0
    2.5684   -0.4418    0.1430 C   0  0  0  0  0  0  0  0  0  0  0  0
    1.9278    0.8586   -0.2904 C   0  0  0  0  0  0  0  0  0  0  0  0
    0.4460    0.6416   -0.4075 C   0  0  0  0  0  0  0  0  0  0  0  0
   -0.4814    0.8169    0.5949 C   0  0  0  0  0  0  0  0  0  0  0  0
   -1.7092    0.5197    0.0920 N   0  0  0  0  0  0  0  0  0  0  0  0
   -1.5459    0.1747   -1.1707 C   0  0  0  0  0  0  0  0  0  0  0  0
   -0.2456    0.2449   -1.4835 N   0  0  0  0  0  0  0  0  0  0  0  0
   -2.6824   -0.2261   -2.0689 C   0  0  0  0  0  0  0  0  0  0  0  0
   -3.0763    0.8428   -2.8719 O   0  0  0  0  0  0  0  0  0  0  0  0
   -3.7922   -0.6762   -1.1398 C   0  0  0  0  0  0  0  0  0  0  0  0
   -4.9311   -1.0555   -1.8423 O   0  0  0  0  0  0  0  0  0  0  0  0
   -4.0829    0.4798   -0.2142 C   0  0  0  0  0  0  0  0  0  0  0  0
   -5.3388    0.3854    0.3678 O   0  0  0  0  0  0  0  0  0  0  0  0
   -2.9750    0.5664    0.7926 C   0  0  0  0  0  0  0  0  0  0  0  0
   -3.0514   -0.5368    1.8283 C   0  0  0  0  0  0  0  0  0  0  0  0
   -4.2336   -0.5380    2.5213 O   0  0  0  0  0  0  0  0  0  0  0  0
    5.6835   -1.6872    0.5167 H   0  0  0  0  0  0  0  0  0  0  0  0
    4.0497   -2.4780    0.1803 H   0  0  0  0  0  0  0  0  0  0  0  0
    4.4738   -1.7927    1.8223 H   0  0  0  0  0  0  0  0  0  0  0  0
    5.8111    0.1305   -0.8359 H   0  0  0  0  0  0  0  0  0  0  0  0
    4.4507   -0.6272   -1.8364 H   0  0  0  0  0  0  0  0  0  0  0  0
    4.3889    1.0975   -1.2659 H   0  0  0  0  0  0  0  0  0  0  0  0
    3.7787    0.6489    2.2011 H   0  0  0  0  0  0  0  0  0  0  0  0
    5.4689    0.3969    1.7066 H   0  0  0  0  0  0  0  0  0  0  0  0
    4.4413    1.6859    0.8667 H   0  0  0  0  0  0  0  0  0  0  0  0
    2.1145   -0.7523    1.0848 H   0  0  0  0  0  0  0  0  0  0  0  0
    2.3312   -1.2005   -0.6279 H   0  0  0  0  0  0  0  0  0  0  0  0
    2.1419    1.6975    0.3742 H   0  0  0  0  0  0  0  0  0  0  0  0
    2.3355    1.0928   -1.2980 H   0  0  0  0  0  0  0  0  0  0  0  0
   -0.2185    1.1384    1.5942 H   0  0  0  0  0  0  0  0  0  0  0  0
   -2.4002   -1.1187   -2.6832 H   0  0  0  0  0  0  0  0  0  0  0  0
   -2.8291    1.6971   -2.4415 H   0  0  0  0  0  0  0  0  0  0  0  0
   -3.4174   -1.5735   -0.6088 H   0  0  0  0  0  0  0  0  0  0  0  0
   -4.6905   -1.8644   -2.3736 H   0  0  0  0  0  0  0  0  0  0  0  0
   -4.0485    1.4358   -0.8068 H   0  0  0  0  0  0  0  0  0  0  0  0
   -5.7183    1.2839    0.5430 H   0  0  0  0  0  0  0  0  0  0  0  0
   -3.0457    1.5244    1.3905 H   0  0  0  0  0  0  0  0  0  0  0  0
   -2.8659   -1.5012    1.3438 H   0  0  0  0  0  0  0  0  0  0  0  0
   -2.2329   -0.4125    2.5827 H   0  0  0  0  0  0  0  0  0  0  0  0
   -4.6349    0.3574    2.6559 H   0  0  0  0  0  0  0  0  0  0  0  0
  1  2  1  0
  2  3  1  0
  2  4  1  0
  2  5  1  0
  5  6  1  0
  6  7  1  0
  7  8  2  0
  8  9  1  0
  9 10  1  0
 10 11  2  0
 10 12  1  0
 12 13  1  0
 12 14  1  0
 14 15  1  0
 14 16  1  0
 16 17  1  0
 16 18  1  0
 18 19  1  0
 19 20  1  0
 11  7  1  0
 18  9  1  0
  1 21  1  0
  1 22  1  0
  1 23  1  0
  3 24  1  0
  3 25  1  0
  3 26  1  0
  4 27  1  0
  4 28  1  0
  4 29  1  0
  5 30  1  0
  5 31  1  0
  6 32  1  0
  6 33  1  0
  8 34  1  0
 12 35  1  0
 13 36  1  0
 14 37  1  0
 15 38  1  0
 16 39  1  0
 17 40  1  0
 18 41  1  0
 19 42  1  0
 19 43  1  0
 20 44  1  0
M  END
$$$$
