
     RDKit          3D

 52 55  0  0  0  0  0  0  0  0999 V2000
    1.0946   -5.1221    0.5446 C   0  0  0  0  0  0  0  0  0  0  0  0
    0.1935   -4.3977    1.4874 C   0  0  0  0  0  0  0  0  0  0  0  0
   -0.2659   -3.2012    0.9434 O   0  0  0  0  0  0  0  0  0  0  0  0
    0.5642   -2.1624    0.6136 C   0  0  0  0  0  0  0  0  0  0  0  0
    1.9391   -2.2849    0.8503 C   0  0  0  0  0  0  0  0  0  0  0  0
    2.7725   -1.2423    0.5214 C   0  0  0  0  0  0  0  0  0  0  0  0
    2.2625   -0.0940   -0.0319 C   0  0  0  0  0  0  0  0  0  0  0  0
    3.1807    1.0422   -0.3885 C   0  0  0  0  0  0  0  0  0  0  0  0
    4.6101    0.6850   -0.7850 C   0  0  0  0  0  0  0  0  0  0  0  0
    4.3304    1.3384    0.5196 C   0  0  0  0  0  0  0  0  0  0  0  0
    4.7250    2.7542    0.7107 C   0  0  0  0  0  0  0  0  0  0  0  0
    4.6117    3.5965   -0.2424 O   0  0  0  0  0  0  0  0  0  0  0  0
    5.2305    3.1600    1.9677 N   0  0  0  0  0  0  0  0  0  0  0  0
    5.6052    4.4535    2.1855 O   0  0  0  0  0  0  0  0  0  0  0  0
    0.9115   -0.0115   -0.2476 C   0  0  0  0  0  0  0  0  0  0  0  0
    0.0090   -1.0317    0.0621 C   0  0  0  0  0  0  0  0  0  0  0  0
   -1.3972   -0.8152   -0.2176 C   0  0  0  0  0  0  0  0  0  0  0  0
   -1.7607    0.3810   -0.7703 N   0  0  0  0  0  0  0  0  0  0  0  0
   -3.0153    0.7137   -1.0784 C   0  0  0  0  0  0  0  0  0  0  0  0
   -3.5804    1.8593   -1.6369 C   0  0  0  0  0  0  0  0  0  0  0  0
   -2.7710    3.0460   -2.0291 C   0  0  0  0  0  0  0  0  0  0  0  0
   -2.3709    3.8293   -0.8236 C   0  0  0  0  0  0  0  0  0  0  0  0
   -4.8830    1.6345   -1.7165 N   0  0  0  0  0  0  0  0  0  0  0  0
   -5.1630    0.4331   -1.2475 N   0  0  0  0  0  0  0  0  0  0  0  0
   -6.4695   -0.1524   -1.1754 C   0  0  0  0  0  0  0  0  0  0  0  0
   -4.0421   -0.1758   -0.8408 C   0  0  0  0  0  0  0  0  0  0  0  0
   -3.7038   -1.3811   -0.2876 C   0  0  0  0  0  0  0  0  0  0  0  0
   -4.6019   -2.2228   -0.0530 O   0  0  0  0  0  0  0  0  0  0  0  0
   -2.3993   -1.6595    0.0042 N   0  0  0  0  0  0  0  0  0  0  0  0
    2.0119   -5.4916    1.0458 H   0  0  0  0  0  0  0  0  0  0  0  0
    1.3664   -4.5034   -0.3537 H   0  0  0  0  0  0  0  0  0  0  0  0
    0.5131   -5.9932    0.1198 H   0  0  0  0  0  0  0  0  0  0  0  0
   -0.6862   -5.0590    1.7255 H   0  0  0  0  0  0  0  0  0  0  0  0
    0.7223   -4.1285    2.4376 H   0  0  0  0  0  0  0  0  0  0  0  0
    2.3647   -3.1818    1.3044 H   0  0  0  0  0  0  0  0  0  0  0  0
    3.8581   -1.3030    0.6924 H   0  0  0  0  0  0  0  0  0  0  0  0
    2.6940    1.9149   -0.8247 H   0  0  0  0  0  0  0  0  0  0  0  0
    4.9185   -0.3678   -0.7885 H   0  0  0  0  0  0  0  0  0  0  0  0
    4.9866    1.2782   -1.6510 H   0  0  0  0  0  0  0  0  0  0  0  0
    4.4712    0.6966    1.4131 H   0  0  0  0  0  0  0  0  0  0  0  0
    5.3401    2.5067    2.7738 H   0  0  0  0  0  0  0  0  0  0  0  0
    6.1674    4.6936    1.3932 H   0  0  0  0  0  0  0  0  0  0  0  0
    0.5041    0.8980   -0.6861 H   0  0  0  0  0  0  0  0  0  0  0  0
   -3.4426    3.7138   -2.6441 H   0  0  0  0  0  0  0  0  0  0  0  0
   -1.8911    2.7368   -2.6170 H   0  0  0  0  0  0  0  0  0  0  0  0
   -2.2660    4.8973   -1.1284 H   0  0  0  0  0  0  0  0  0  0  0  0
   -3.1299    3.6987   -0.0449 H   0  0  0  0  0  0  0  0  0  0  0  0
   -1.3923    3.4234   -0.4705 H   0  0  0  0  0  0  0  0  0  0  0  0
   -6.5447   -0.9987   -0.4900 H   0  0  0  0  0  0  0  0  0  0  0  0
   -7.2228    0.6089   -0.8279 H   0  0  0  0  0  0  0  0  0  0  0  0
   -6.7655   -0.4293   -2.2196 H   0  0  0  0  0  0  0  0  0  0  0  0
   -2.1937   -2.5828    0.4206 H   0  0  0  0  0  0  0  0  0  0  0  0
  1  2  1  0
  2  3  1  0
  3  4  1  0
  4  5  2  0
  5  6  1  0
  6  7  2  0
  7  8  1  0
  8  9  1  0
  9 10  1  0
 10 11  1  0
 11 12  2  0
 11 13  1  0
 13 14  1  0
  7 15  1  0
 15 16  2  0
 16 17  1  0
 17 18  2  0
 18 19  1  0
 19 20  1  0
 20 21  1  0
 21 22  1  0
 20 23  2  0
 23 24  1  0
 24 25  1  0
 24 26  1  0
 26 27  1  0
 27 28  2  0
 27 29  1  0
 16  4  1  0
 29 17  1  0
 10  8  1  0
 26 19  2  0
  1 30  1  0
  1 31  1  0
  1 32  1  0
  2 33  1  0
  2 34  1  0
  5 35  1  0
  6 36  1  0
  8 37  1  0
  9 38  1  0
  9 39  1  0
 10 40  1  0
 13 41  1  0
 14 42  1  0
 15 43  1  0
 21 44  1  0
 21 45  1  0
 22 46  1  0
 22 47  1  0
 22 48  1  0
 25 49  1  0
 25 50  1  0
 25 51  1  0
 29 52  1  0
M  END
$$$$
