
     RDKit          3D

 70 75  0  0  0  0  0  0  0  0999 V2000
   -6.0073    2.9901   -1.5931 N   0  0  0  0  0  0  0  0  0  0  0  0
   -6.3643    2.0971   -0.5630 C   0  0  0  0  0  0  0  0  0  0  0  0
   -7.4937    2.2061   -0.0278 O   0  0  0  0  0  0  0  0  0  0  0  0
   -5.4638    1.0241   -0.0743 C   0  0  2  0  0  0  0  0  0  0  0  0
   -6.1214    0.2328    1.0330 C   0  0  0  0  0  0  0  0  0  0  0  0
   -5.1970   -0.8367    1.5248 C   0  0  0  0  0  0  0  0  0  0  0  0
   -3.9268   -0.2384    2.0905 C   0  0  0  0  0  0  0  0  0  0  0  0
   -3.3196    0.6306    1.0379 C   0  0  0  0  0  0  0  0  0  0  0  0
   -4.2553    1.7055    0.5297 C   0  0  0  0  0  0  0  0  0  0  0  0
   -2.9099   -0.1884   -0.1981 C   0  0  1  0  0  0  0  0  0  0  0  0
   -1.7600   -0.9937    0.0850 N   0  0  0  0  0  0  0  0  0  0  0  0
   -0.5000   -0.7048   -0.5351 C   0  0  0  0  0  0  0  0  0  0  0  0
   -0.4794    0.2744   -1.3234 O   0  0  0  0  0  0  0  0  0  0  0  0
    0.6392   -1.5650   -0.1940 C   0  0  0  0  0  0  0  0  0  0  0  0
    0.4630   -2.9050   -0.8156 C   0  0  0  0  0  0  0  0  0  0  0  0
    0.3622   -3.1824   -2.2447 C   0  0  0  0  0  0  0  0  0  0  0  0
   -0.8952   -3.2141   -1.4568 C   0  0  0  0  0  0  0  0  0  0  0  0
    1.8869   -0.9617   -0.6301 N   0  0  0  0  0  0  0  0  0  0  0  0
    3.0246   -1.7768   -0.3526 C   0  0  0  0  0  0  0  0  0  0  0  0
    4.3350   -1.0681   -0.6006 C   0  0  0  0  0  0  0  0  0  0  0  0
    4.4101    0.1844    0.1273 N   0  0  0  0  0  0  0  0  0  0  0  0
    5.6559    0.8113    0.3533 C   0  0  0  0  0  0  0  0  0  0  0  0
    5.7952    1.9691    1.0790 C   0  0  0  0  0  0  0  0  0  0  0  0
    7.0409    2.5624    1.2805 C   0  0  0  0  0  0  0  0  0  0  0  0
    8.1638    1.9744    0.7391 C   0  0  0  0  0  0  0  0  0  0  0  0
    9.5195    2.5731    0.9280 C   0  0  0  0  0  0  0  0  0  0  0  0
   10.4187    2.0097    0.0600 F   0  0  0  0  0  0  0  0  0  0  0  0
    9.3950    3.9293    0.6943 F   0  0  0  0  0  0  0  0  0  0  0  0
    9.8630    2.4032    2.2468 F   0  0  0  0  0  0  0  0  0  0  0  0
    7.9940    0.8169    0.0182 C   0  0  0  0  0  0  0  0  0  0  0  0
    6.7757    0.2706   -0.1571 N   0  0  0  0  0  0  0  0  0  0  0  0
    3.1902    0.7525    0.6007 C   0  0  0  0  0  0  0  0  0  0  0  0
    2.0263    0.4102   -0.2763 C   0  0  0  0  0  0  0  0  0  0  0  0
   -4.1027   -0.9243   -0.7092 C   0  0  0  0  0  0  0  0  0  0  0  0
   -4.8224   -1.7119    0.3632 C   0  0  0  0  0  0  0  0  0  0  0  0
   -5.0977    0.1266   -1.2205 C   0  0  0  0  0  0  0  0  0  0  0  0
   -5.0878    3.4937   -1.5922 H   0  0  0  0  0  0  0  0  0  0  0  0
   -6.6783    3.1466   -2.3678 H   0  0  0  0  0  0  0  0  0  0  0  0
   -6.3082    0.9572    1.8633 H   0  0  0  0  0  0  0  0  0  0  0  0
   -7.0635   -0.2399    0.6880 H   0  0  0  0  0  0  0  0  0  0  0  0
   -5.6913   -1.4211    2.3010 H   0  0  0  0  0  0  0  0  0  0  0  0
   -3.2356   -1.0624    2.3005 H   0  0  0  0  0  0  0  0  0  0  0  0
   -4.1511    0.3761    2.9627 H   0  0  0  0  0  0  0  0  0  0  0  0
   -2.3784    1.1271    1.4062 H   0  0  0  0  0  0  0  0  0  0  0  0
   -3.7164    2.2983   -0.2215 H   0  0  0  0  0  0  0  0  0  0  0  0
   -4.6240    2.2987    1.3902 H   0  0  0  0  0  0  0  0  0  0  0  0
   -2.6568    0.6112   -0.9555 H   0  0  0  0  0  0  0  0  0  0  0  0
   -1.8787   -1.7885    0.7531 H   0  0  0  0  0  0  0  0  0  0  0  0
    0.6885   -1.6479    0.9094 H   0  0  0  0  0  0  0  0  0  0  0  0
    0.8217   -3.7586   -0.1618 H   0  0  0  0  0  0  0  0  0  0  0  0
    0.4879   -2.4191   -3.0228 H   0  0  0  0  0  0  0  0  0  0  0  0
    0.7044   -4.1933   -2.6014 H   0  0  0  0  0  0  0  0  0  0  0  0
   -1.3778   -4.1841   -1.2248 H   0  0  0  0  0  0  0  0  0  0  0  0
   -1.6037   -2.4302   -1.7022 H   0  0  0  0  0  0  0  0  0  0  0  0
    2.9918   -2.6653   -1.0166 H   0  0  0  0  0  0  0  0  0  0  0  0
    3.0349   -2.0794    0.7200 H   0  0  0  0  0  0  0  0  0  0  0  0
    4.4027   -0.8299   -1.6816 H   0  0  0  0  0  0  0  0  0  0  0  0
    5.2054   -1.7009   -0.3512 H   0  0  0  0  0  0  0  0  0  0  0  0
    4.9459    2.4542    1.5163 H   0  0  0  0  0  0  0  0  0  0  0  0
    7.1369    3.4735    1.8534 H   0  0  0  0  0  0  0  0  0  0  0  0
    8.8956    0.3658   -0.4028 H   0  0  0  0  0  0  0  0  0  0  0  0
    3.2374    1.8821    0.6129 H   0  0  0  0  0  0  0  0  0  0  0  0
    2.9438    0.4568    1.6454 H   0  0  0  0  0  0  0  0  0  0  0  0
    1.1168    0.7183    0.3051 H   0  0  0  0  0  0  0  0  0  0  0  0
    2.1121    1.0112   -1.2053 H   0  0  0  0  0  0  0  0  0  0  0  0
   -3.8338   -1.6253   -1.5069 H   0  0  0  0  0  0  0  0  0  0  0  0
   -5.7812   -2.0602   -0.1071 H   0  0  0  0  0  0  0  0  0  0  0  0
   -4.2833   -2.6214    0.6511 H   0  0  0  0  0  0  0  0  0  0  0  0
   -6.0021   -0.3623   -1.5852 H   0  0  0  0  0  0  0  0  0  0  0  0
   -4.6156    0.7357   -1.9909 H   0  0  0  0  0  0  0  0  0  0  0  0
  1  2  1  0
  2  3  2  0
  4  2  1  6
  4  5  1  0
  5  6  1  0
  6  7  1  0
  7  8  1  0
  8  9  1  0
  8 10  1  0
 10 11  1  0
 11 12  1  0
 12 13  2  0
 12 14  1  0
 14 15  1  0
 15 16  1  0
 16 17  1  0
 14 18  1  0
 18 19  1  0
 19 20  1  0
 20 21  1  0
 21 22  1  0
 22 23  2  0
 23 24  1  0
 24 25  2  0
 25 26  1  0
 26 27  1  0
 26 28  1  0
 26 29  1  0
 25 30  1  0
 30 31  2  0
 21 32  1  0
 32 33  1  0
 10 34  1  0
 34 35  1  0
 34 36  1  0
  9  4  1  0
 17 15  1  0
 33 18  1  0
 36  4  1  0
 35  6  1  0
 31 22  1  0
  1 37  1  0
  1 38  1  0
  5 39  1  0
  5 40  1  0
  6 41  1  0
  7 42  1  0
  7 43  1  0
  8 44  1  0
  9 45  1  0
  9 46  1  0
 10 47  1  6
 11 48  1  0
 14 49  1  0
 15 50  1  0
 16 51  1  0
 16 52  1  0
 17 53  1  0
 17 54  1  0
 19 55  1  0
 19 56  1  0
 20 57  1  0
 20 58  1  0
 23 59  1  0
 24 60  1  0
 30 61  1  0
 32 62  1  0
 32 63  1  0
 33 64  1  0
 33 65  1  0
 34 66  1  0
 35 67  1  0
 35 68  1  0
 36 69  1  0
 36 70  1  0
M  END
$$$$
