
     RDKit          3D

 41 44  0  0  0  0  0  0  0  0999 V2000
    7.2222    0.2890   -0.1365 N   0  0  0  0  0  0  0  0  0  0  0  0
    5.8612    0.6341   -0.0613 C   0  0  0  0  0  0  0  0  0  0  0  0
    5.5900    1.8175   -0.2842 O   0  0  0  0  0  0  0  0  0  0  0  0
    4.9229   -0.4165    0.2655 C   0  0  0  0  0  0  0  0  0  0  0  0
    3.5760   -0.1452    0.3715 C   0  0  0  0  0  0  0  0  0  0  0  0
    2.5831   -1.0417    0.6756 C   0  0  0  0  0  0  0  0  0  0  0  0
    1.2100   -0.7628    0.7801 N   0  0  0  0  0  0  0  0  0  0  0  0
    0.5379    0.4545    0.5250 C   0  0  0  0  0  0  0  0  0  0  0  0
   -0.7992    0.5663    0.7169 N   0  0  0  0  0  0  0  0  0  0  0  0
   -1.5051    1.6777    0.4900 C   0  0  0  0  0  0  0  0  0  0  0  0
   -2.9036    1.5280    0.7825 N   0  0  0  0  0  0  0  0  0  0  0  0
   -3.9396    1.0059   -0.0418 C   0  0  0  0  0  0  0  0  0  0  0  0
   -4.7012    1.6958   -0.9649 C   0  0  0  0  0  0  0  0  0  0  0  0
   -4.3331    3.4062   -1.1305 Cl  0  0  0  0  0  0  0  0  0  0  0  0
   -5.6819    1.0526   -1.6988 C   0  0  0  0  0  0  0  0  0  0  0  0
   -5.9089   -0.3120   -1.5074 C   0  0  0  0  0  0  0  0  0  0  0  0
   -5.1391   -0.9858   -0.5814 C   0  0  0  0  0  0  0  0  0  0  0  0
   -4.1415   -0.3608    0.1741 C   0  0  0  0  0  0  0  0  0  0  0  0
   -3.5897   -1.3573    0.9914 O   0  0  0  0  0  0  0  0  0  0  0  0
   -4.5842   -2.3882    1.1083 C   0  0  0  0  0  0  0  0  0  0  0  0
   -5.1576   -2.3325   -0.1975 O   0  0  0  0  0  0  0  0  0  0  0  0
   -0.8772    2.8068    0.0308 C   0  0  0  0  0  0  0  0  0  0  0  0
    0.4759    2.7313   -0.1753 C   0  0  0  0  0  0  0  0  0  0  0  0
    1.1110    1.5796    0.0767 N   0  0  0  0  0  0  0  0  0  0  0  0
    3.0386   -2.3250    0.8854 C   0  0  0  0  0  0  0  0  0  0  0  0
    4.3653   -2.6767    0.7985 C   0  0  0  0  0  0  0  0  0  0  0  0
    5.3070   -1.7199    0.4879 C   0  0  0  0  0  0  0  0  0  0  0  0
    8.2143    0.0821   -0.0390 H   0  0  0  0  0  0  0  0  0  0  0  0
    7.8580    0.3847    0.7070 H   0  0  0  0  0  0  0  0  0  0  0  0
    3.3221    0.8843    0.1893 H   0  0  0  0  0  0  0  0  0  0  0  0
    0.5812   -1.5625    1.0885 H   0  0  0  0  0  0  0  0  0  0  0  0
   -2.9194    1.9081    1.7557 H   0  0  0  0  0  0  0  0  0  0  0  0
   -6.2572    1.6345   -2.4130 H   0  0  0  0  0  0  0  0  0  0  0  0
   -6.6750   -0.7879   -2.0882 H   0  0  0  0  0  0  0  0  0  0  0  0
   -5.3539   -2.0742    1.8354 H   0  0  0  0  0  0  0  0  0  0  0  0
   -4.1543   -3.3557    1.3657 H   0  0  0  0  0  0  0  0  0  0  0  0
   -1.5036    3.6616   -0.1295 H   0  0  0  0  0  0  0  0  0  0  0  0
    0.9821    3.6178   -0.5399 H   0  0  0  0  0  0  0  0  0  0  0  0
    2.3452   -3.1191    1.1313 H   0  0  0  0  0  0  0  0  0  0  0  0
    4.6644   -3.7124    0.9758 H   0  0  0  0  0  0  0  0  0  0  0  0
    6.3569   -1.9822    0.4178 H   0  0  0  0  0  0  0  0  0  0  0  0
  1  2  1  0
  2  3  2  0
  2  4  1  0
  4  5  2  0
  5  6  1  0
  6  7  1  0
  7  8  1  0
  8  9  2  0
  9 10  1  0
 10 11  1  0
 11 12  1  0
 12 13  2  0
 13 14  1  0
 13 15  1  0
 15 16  2  0
 16 17  1  0
 17 18  2  0
 18 19  1  0
 19 20  1  0
 20 21  1  0
 10 22  2  0
 22 23  1  0
 23 24  2  0
  6 25  2  0
 25 26  1  0
 26 27  2  0
 27  4  1  0
 24  8  1  0
 18 12  1  0
 21 17  1  0
  1 28  1  0
  1 29  1  0
  5 30  1  0
  7 31  1  0
 11 32  1  0
 15 33  1  0
 16 34  1  0
 20 35  1  0
 20 36  1  0
 22 37  1  0
 23 38  1  0
 25 39  1  0
 26 40  1  0
 27 41  1  0
M  END
$$$$
