
     RDKit          3D

 44 47  0  0  0  0  0  0  0  0999 V2000
    6.5425    2.6032    1.5037 C   0  0  0  0  0  0  0  0  0  0  0  0
    5.8345    1.4892    0.9278 N   0  0  0  0  0  0  0  0  0  0  0  0
    4.4193    1.4631    0.9948 C   0  0  0  0  0  0  0  0  0  0  0  0
    3.8367    2.4202    1.5580 O   0  0  0  0  0  0  0  0  0  0  0  0
    3.6586    0.3477    0.4212 C   0  0  0  0  0  0  0  0  0  0  0  0
    2.3432    0.2668    0.4524 N   0  0  0  0  0  0  0  0  0  0  0  0
    1.9845   -0.9082   -0.1744 C   0  0  0  0  0  0  0  0  0  0  0  0
    0.5785   -1.2516   -0.3926 C   0  0  0  0  0  0  0  0  0  0  0  0
   -0.3157   -0.2207   -0.1754 N   0  0  0  0  0  0  0  0  0  0  0  0
   -1.6103   -0.2444   -0.4336 C   0  0  0  0  0  0  0  0  0  0  0  0
   -2.4370    0.9405   -0.1834 C   0  0  0  0  0  0  0  0  0  0  0  0
   -2.1582    2.2156   -0.6908 C   0  0  0  0  0  0  0  0  0  0  0  0
   -3.0797    3.0848   -0.2598 N   0  0  0  0  0  0  0  0  0  0  0  0
   -3.9461    2.3798    0.5196 C   0  0  0  0  0  0  0  0  0  0  0  0
   -5.0619    2.8028    1.2082 C   0  0  0  0  0  0  0  0  0  0  0  0
   -5.7853    1.8951    1.9515 C   0  0  0  0  0  0  0  0  0  0  0  0
   -5.3777    0.5870    1.9902 C   0  0  0  0  0  0  0  0  0  0  0  0
   -4.2537    0.2158    1.2824 C   0  0  0  0  0  0  0  0  0  0  0  0
   -3.5432    1.0903    0.5549 N   0  0  0  0  0  0  0  0  0  0  0  0
   -2.1337   -1.4022   -0.9722 C   0  0  0  0  0  0  0  0  0  0  0  0
   -3.5589   -1.5503   -1.3441 C   0  0  0  0  0  0  0  0  0  0  0  0
   -1.3171   -2.4402   -1.2032 N   0  0  0  0  0  0  0  0  0  0  0  0
    0.0365   -2.3563   -0.9081 C   0  0  0  0  0  0  0  0  0  0  0  0
    0.7396   -3.5713   -1.0796 N   0  0  0  0  0  0  0  0  0  0  0  0
    3.0788   -1.5089   -0.5732 N   0  0  0  0  0  0  0  0  0  0  0  0
    3.3461   -2.6954   -1.3375 C   0  0  0  0  0  0  0  0  0  0  0  0
    4.1184   -0.7155   -0.1932 N   0  0  0  0  0  0  0  0  0  0  0  0
    6.1225    3.5572    1.0896 H   0  0  0  0  0  0  0  0  0  0  0  0
    6.3721    2.6690    2.6088 H   0  0  0  0  0  0  0  0  0  0  0  0
    7.6216    2.5797    1.3050 H   0  0  0  0  0  0  0  0  0  0  0  0
    6.3115    0.6796    0.4523 H   0  0  0  0  0  0  0  0  0  0  0  0
   -1.3072    2.4171   -1.3350 H   0  0  0  0  0  0  0  0  0  0  0  0
   -5.3623    3.8601    1.1565 H   0  0  0  0  0  0  0  0  0  0  0  0
   -6.6661    2.2507    2.4892 H   0  0  0  0  0  0  0  0  0  0  0  0
   -5.9495   -0.1395    2.5807 H   0  0  0  0  0  0  0  0  0  0  0  0
   -3.9451   -0.8194    1.3430 H   0  0  0  0  0  0  0  0  0  0  0  0
   -4.0455   -2.2075   -0.5973 H   0  0  0  0  0  0  0  0  0  0  0  0
   -3.5907   -2.1319   -2.3118 H   0  0  0  0  0  0  0  0  0  0  0  0
   -4.0858   -0.5935   -1.4845 H   0  0  0  0  0  0  0  0  0  0  0  0
    1.1194   -4.1280   -0.2759 H   0  0  0  0  0  0  0  0  0  0  0  0
    0.8751   -3.9537   -2.0290 H   0  0  0  0  0  0  0  0  0  0  0  0
    4.4650   -2.6210   -1.6699 H   0  0  0  0  0  0  0  0  0  0  0  0
    3.3159   -3.6449   -0.8140 H   0  0  0  0  0  0  0  0  0  0  0  0
    2.8101   -2.7108   -2.2979 H   0  0  0  0  0  0  0  0  0  0  0  0
  1  2  1  0
  2  3  1  0
  3  4  2  0
  3  5  1  0
  5  6  1  0
  6  7  2  0
  7  8  1  0
  8  9  2  0
  9 10  1  0
 10 11  1  0
 11 12  2  0
 12 13  1  0
 13 14  2  0
 14 15  1  0
 15 16  2  0
 16 17  1  0
 17 18  2  0
 18 19  1  0
 10 20  2  0
 20 21  1  0
 20 22  1  0
 22 23  2  0
 23 24  1  0
  7 25  1  0
 25 26  1  0
 25 27  1  0
 27  5  2  0
 23  8  1  0
 19 11  1  0
 19 14  1  0
  1 28  1  0
  1 29  1  0
  1 30  1  0
  2 31  1  0
 12 32  1  0
 15 33  1  0
 16 34  1  0
 17 35  1  0
 18 36  1  0
 21 37  1  0
 21 38  1  0
 21 39  1  0
 24 40  1  0
 24 41  1  0
 26 42  1  0
 26 43  1  0
 26 44  1  0
M  END
$$$$
