
     RDKit          3D

 48 52  0  0  0  0  0  0  0  0999 V2000
   -4.8539   -3.0059    1.6141 C   0  0  0  0  0  0  0  0  0  0  0  0
   -4.0556   -2.3128    0.5624 C   0  0  0  0  0  0  0  0  0  0  0  0
   -4.6167   -2.2414   -0.6928 C   0  0  0  0  0  0  0  0  0  0  0  0
   -3.9064   -1.6081   -1.6871 C   0  0  0  0  0  0  0  0  0  0  0  0
   -2.6733   -1.0822   -1.3660 C   0  0  0  0  0  0  0  0  0  0  0  0
   -2.1154   -1.1553   -0.1103 C   0  0  0  0  0  0  0  0  0  0  0  0
   -0.8112   -0.5764    0.1477 C   0  0  0  0  0  0  0  0  0  0  0  0
    0.3276   -1.1943    0.5298 N   0  0  0  0  0  0  0  0  0  0  0  0
    1.3080   -0.2860    0.6574 C   0  0  0  0  0  0  0  0  0  0  0  0
    2.7244   -0.4503    1.0476 C   0  0  0  0  0  0  0  0  0  0  0  0
    3.5931   -0.6885   -0.0569 N   0  0  0  0  0  0  0  0  0  0  0  0
    4.9826   -0.8651    0.1719 C   0  0  0  0  0  0  0  0  0  0  0  0
    5.5233   -0.8110    1.4541 C   0  0  0  0  0  0  0  0  0  0  0  0
    6.8673   -0.9784    1.7058 C   0  0  0  0  0  0  0  0  0  0  0  0
    7.7174   -1.2092    0.6486 C   0  0  0  0  0  0  0  0  0  0  0  0
    7.2163   -1.2709   -0.6526 C   0  0  0  0  0  0  0  0  0  0  0  0
    5.8651   -1.0986   -0.8653 C   0  0  0  0  0  0  0  0  0  0  0  0
    5.3786   -1.1567   -2.1107 F   0  0  0  0  0  0  0  0  0  0  0  0
    0.7642    0.9060    0.3497 N   0  0  0  0  0  0  0  0  0  0  0  0
   -0.5282    0.7688    0.0333 C   0  0  0  0  0  0  0  0  0  0  0  0
   -1.4152    1.8659   -0.3506 C   0  0  0  0  0  0  0  0  0  0  0  0
   -1.1320    2.6109   -1.4766 C   0  0  0  0  0  0  0  0  0  0  0  0
   -1.9242    3.6538   -1.8915 C   0  0  0  0  0  0  0  0  0  0  0  0
   -3.0408    3.9385   -1.1250 C   0  0  0  0  0  0  0  0  0  0  0  0
   -3.9584    4.8986   -1.3232 N   0  0  0  0  0  0  0  0  0  0  0  0
   -4.8413    4.7775   -0.3225 C   0  0  0  0  0  0  0  0  0  0  0  0
   -4.4485    3.7589    0.4550 N   0  0  0  0  0  0  0  0  0  0  0  0
   -3.3354    3.2216   -0.0199 N   0  0  0  0  0  0  0  0  0  0  0  0
   -2.5386    2.1925    0.3747 C   0  0  0  0  0  0  0  0  0  0  0  0
   -2.8487   -1.7850    0.8301 N   0  0  0  0  0  0  0  0  0  0  0  0
   -4.7199   -4.0974    1.6045 H   0  0  0  0  0  0  0  0  0  0  0  0
   -4.5831   -2.6453    2.6144 H   0  0  0  0  0  0  0  0  0  0  0  0
   -5.9296   -2.7534    1.4435 H   0  0  0  0  0  0  0  0  0  0  0  0
   -5.5987   -2.6665   -0.9257 H   0  0  0  0  0  0  0  0  0  0  0  0
   -4.2698   -1.5044   -2.7054 H   0  0  0  0  0  0  0  0  0  0  0  0
   -2.0702   -0.5672   -2.1294 H   0  0  0  0  0  0  0  0  0  0  0  0
    0.4441   -2.2320    0.7052 H   0  0  0  0  0  0  0  0  0  0  0  0
    3.0939    0.4318    1.6369 H   0  0  0  0  0  0  0  0  0  0  0  0
    2.7682   -1.3054    1.7563 H   0  0  0  0  0  0  0  0  0  0  0  0
    3.2310   -0.7351   -1.0228 H   0  0  0  0  0  0  0  0  0  0  0  0
    4.8385   -0.6296    2.2622 H   0  0  0  0  0  0  0  0  0  0  0  0
    7.2947   -0.9379    2.6985 H   0  0  0  0  0  0  0  0  0  0  0  0
    8.7839   -1.3453    0.8143 H   0  0  0  0  0  0  0  0  0  0  0  0
    7.8885   -1.4532   -1.4842 H   0  0  0  0  0  0  0  0  0  0  0  0
   -0.2491    2.3706   -2.0652 H   0  0  0  0  0  0  0  0  0  0  0  0
   -1.6540    4.1956   -2.7732 H   0  0  0  0  0  0  0  0  0  0  0  0
   -5.7077    5.4303   -0.2204 H   0  0  0  0  0  0  0  0  0  0  0  0
   -2.7843    1.6275    1.2591 H   0  0  0  0  0  0  0  0  0  0  0  0
  1  2  1  0
  2  3  2  0
  3  4  1  0
  4  5  2  0
  5  6  1  0
  6  7  1  0
  7  8  1  0
  8  9  1  0
  9 10  1  0
 10 11  1  0
 11 12  1  0
 12 13  2  0
 13 14  1  0
 14 15  2  0
 15 16  1  0
 16 17  2  0
 17 18  1  0
  9 19  2  0
 19 20  1  0
 20 21  1  0
 21 22  1  0
 22 23  2  0
 23 24  1  0
 24 25  2  0
 25 26  1  0
 26 27  2  0
 27 28  1  0
 28 29  1  0
  6 30  2  0
 30  2  1  0
 20  7  2  0
 29 21  2  0
 17 12  1  0
 28 24  1  0
  1 31  1  0
  1 32  1  0
  1 33  1  0
  3 34  1  0
  4 35  1  0
  5 36  1  0
  8 37  1  0
 10 38  1  0
 10 39  1  0
 11 40  1  0
 13 41  1  0
 14 42  1  0
 15 43  1  0
 16 44  1  0
 22 45  1  0
 23 46  1  0
 26 47  1  0
 29 48  1  0
M  END
$$$$
