
     RDKit          3D

 53 55  0  0  0  0  0  0  0  0999 V2000
    7.0408   -2.2937   -0.2125 C   0  0  0  0  0  0  0  0  0  0  0  0
    5.6509   -2.7031    0.1771 C   0  0  0  0  0  0  0  0  0  0  0  0
    4.7270   -1.5149    0.3626 C   0  0  0  0  0  0  0  0  0  0  0  0
    4.6108   -0.7066   -0.9191 C   0  0  0  0  0  0  0  0  0  0  0  0
    3.7164    0.3987   -0.6504 N   0  0  0  0  0  0  0  0  0  0  0  0
    4.1556    1.6652   -0.1680 C   0  0  0  0  0  0  0  0  0  0  0  0
    5.3405    2.0113    0.0907 O   0  0  0  0  0  0  0  0  0  0  0  0
    2.9452    2.4633   -0.0412 C   0  0  0  0  0  0  0  0  0  0  0  0
    2.8951    3.6573    0.3583 O   0  0  0  0  0  0  0  0  0  0  0  0
    1.7972    1.6655   -0.4489 C   0  0  0  0  0  0  0  0  0  0  0  0
    0.4307    1.9536   -0.5140 C   0  0  0  0  0  0  0  0  0  0  0  0
   -0.4362    0.9994   -0.9411 C   0  0  0  0  0  0  0  0  0  0  0  0
   -2.1856    1.2572   -1.0553 S   0  0  0  0  0  6  0  0  0  0  0  0
   -2.7079    0.4810   -2.2137 O   0  0  0  0  0  0  0  0  0  0  0  0
   -2.4659    2.7061   -1.3436 O   0  0  0  0  0  0  0  0  0  0  0  0
   -2.8752    0.7041    0.4123 N   0  0  0  0  0  0  0  0  0  0  0  0
   -2.3140    1.5267    1.5085 C   0  0  0  0  0  0  0  0  0  0  0  0
   -3.0690    2.8548    1.3550 C   0  0  0  0  0  0  0  0  0  0  0  0
   -4.3748    2.4852    0.6295 C   0  0  0  0  0  0  0  0  0  0  0  0
   -4.2640    0.9910    0.5863 C   0  0  1  0  0  0  0  0  0  0  0  0
   -5.2303    0.2730   -0.2725 C   0  0  0  0  0  0  0  0  0  0  0  0
   -5.2788   -1.0927   -0.1188 O   0  0  0  0  0  0  0  0  0  0  0  0
   -4.1594   -1.8140   -0.3690 C   0  0  0  0  0  0  0  0  0  0  0  0
   -4.4914   -3.2973   -0.0794 C   0  0  0  0  0  0  0  0  0  0  0  0
    0.0572   -0.2310   -1.3002 C   0  0  0  0  0  0  0  0  0  0  0  0
    1.4026   -0.5291   -1.2412 C   0  0  0  0  0  0  0  0  0  0  0  0
    2.2944    0.4325   -0.8084 C   0  0  0  0  0  0  0  0  0  0  0  0
    7.3003   -2.6829   -1.2014 H   0  0  0  0  0  0  0  0  0  0  0  0
    7.7452   -2.7145    0.5534 H   0  0  0  0  0  0  0  0  0  0  0  0
    7.1482   -1.1732   -0.2273 H   0  0  0  0  0  0  0  0  0  0  0  0
    5.2039   -3.3321   -0.6227 H   0  0  0  0  0  0  0  0  0  0  0  0
    5.6214   -3.2782    1.1281 H   0  0  0  0  0  0  0  0  0  0  0  0
    3.7240   -1.9218    0.5864 H   0  0  0  0  0  0  0  0  0  0  0  0
    5.0965   -0.8536    1.1707 H   0  0  0  0  0  0  0  0  0  0  0  0
    4.2554   -1.3511   -1.7453 H   0  0  0  0  0  0  0  0  0  0  0  0
    5.5959   -0.3077   -1.2292 H   0  0  0  0  0  0  0  0  0  0  0  0
    0.0763    2.9191   -0.2323 H   0  0  0  0  0  0  0  0  0  0  0  0
   -1.2431    1.7215    1.3421 H   0  0  0  0  0  0  0  0  0  0  0  0
   -2.5463    1.0032    2.4338 H   0  0  0  0  0  0  0  0  0  0  0  0
   -2.4927    3.6026    0.8140 H   0  0  0  0  0  0  0  0  0  0  0  0
   -3.3586    3.1418    2.3798 H   0  0  0  0  0  0  0  0  0  0  0  0
   -5.2604    2.8032    1.2681 H   0  0  0  0  0  0  0  0  0  0  0  0
   -4.4943    2.9879   -0.3257 H   0  0  0  0  0  0  0  0  0  0  0  0
   -4.4526    0.6961    1.6936 H   0  0  0  0  0  0  0  0  0  0  0  0
   -5.0829    0.5120   -1.3699 H   0  0  0  0  0  0  0  0  0  0  0  0
   -6.2656    0.6589   -0.0443 H   0  0  0  0  0  0  0  0  0  0  0  0
   -3.8522   -1.8057   -1.4514 H   0  0  0  0  0  0  0  0  0  0  0  0
   -3.2787   -1.6156    0.2697 H   0  0  0  0  0  0  0  0  0  0  0  0
   -5.5434   -3.4256   -0.4019 H   0  0  0  0  0  0  0  0  0  0  0  0
   -4.4192   -3.4721    1.0135 H   0  0  0  0  0  0  0  0  0  0  0  0
   -3.8442   -3.9543   -0.6789 H   0  0  0  0  0  0  0  0  0  0  0  0
   -0.6431   -1.0031   -1.6458 H   0  0  0  0  0  0  0  0  0  0  0  0
    1.7982   -1.4981   -1.5231 H   0  0  0  0  0  0  0  0  0  0  0  0
  1  2  1  0
  2  3  1  0
  3  4  1  0
  4  5  1  0
  5  6  1  0
  6  7  2  0
  6  8  1  0
  8  9  2  0
  8 10  1  0
 10 11  2  0
 11 12  1  0
 12 13  1  0
 13 14  2  0
 13 15  2  0
 13 16  1  0
 16 17  1  0
 17 18  1  0
 18 19  1  0
 19 20  1  0
 20 21  1  0
 21 22  1  0
 22 23  1  0
 23 24  1  0
 12 25  2  0
 25 26  1  0
 26 27  2  0
 27  5  1  0
 27 10  1  0
 20 16  1  0
  1 28  1  0
  1 29  1  0
  1 30  1  0
  2 31  1  0
  2 32  1  0
  3 33  1  0
  3 34  1  0
  4 35  1  0
  4 36  1  0
 11 37  1  0
 17 38  1  0
 17 39  1  0
 18 40  1  0
 18 41  1  0
 19 42  1  0
 19 43  1  0
 20 44  1  1
 21 45  1  0
 21 46  1  0
 23 47  1  0
 23 48  1  0
 24 49  1  0
 24 50  1  0
 24 51  1  0
 25 52  1  0
 26 53  1  0
M  END
$$$$
