
     RDKit          3D

 62 64  0  0  0  0  0  0  0  0999 V2000
   -7.2792   -2.4879    3.8545 C   0  0  0  0  0  0  0  0  0  0  0  0
   -7.3677   -1.2125    3.2532 O   0  0  0  0  0  0  0  0  0  0  0  0
   -6.6477   -0.8810    2.1162 C   0  0  0  0  0  0  0  0  0  0  0  0
   -5.7884   -1.7299    1.4647 C   0  0  0  0  0  0  0  0  0  0  0  0
   -5.0879   -1.3516    0.3257 C   0  0  0  0  0  0  0  0  0  0  0  0
   -5.2156   -0.1075   -0.2125 C   0  0  0  0  0  0  0  0  0  0  0  0
   -4.5261    0.3755   -1.3944 C   0  0  0  0  0  0  0  0  0  0  0  0
   -4.7627    1.5334   -1.8038 O   0  0  0  0  0  0  0  0  0  0  0  0
   -3.6095   -0.4269   -2.0760 N   0  0  0  0  0  0  0  0  0  0  0  0
   -2.8772   -0.0287   -3.2589 C   0  0  0  0  0  0  0  0  0  0  0  0
   -1.7741    0.8615   -2.8680 C   0  0  0  0  0  0  0  0  0  0  0  0
   -1.8685    2.2313   -2.8819 C   0  0  0  0  0  0  0  0  0  0  0  0
   -0.7711    2.9650   -2.4826 C   0  0  0  0  0  0  0  0  0  0  0  0
    0.4050    2.3199   -2.0753 C   0  0  0  0  0  0  0  0  0  0  0  0
    0.5082    0.9550   -2.0588 C   0  0  0  0  0  0  0  0  0  0  0  0
    1.7420    0.3068   -1.6332 C   0  0  0  0  0  0  0  0  0  0  0  0
    1.7105   -0.9483   -1.6031 O   0  0  0  0  0  0  0  0  0  0  0  0
    2.9288    0.9422   -1.2649 N   0  0  0  0  0  0  0  0  0  0  0  0
    4.1483    0.3653   -0.8434 C   0  0  0  0  0  0  0  0  0  0  0  0
    4.3954   -0.9810   -0.7001 C   0  0  0  0  0  0  0  0  0  0  0  0
    5.6496   -1.4500   -0.2741 C   0  0  0  0  0  0  0  0  0  0  0  0
    6.6636   -0.6012    0.0122 C   0  0  0  0  0  0  0  0  0  0  0  0
    8.0115   -1.0104    0.4637 C   0  0  0  0  0  0  0  0  0  0  0  0
    8.1730   -1.1268    1.8692 N   0  0  0  0  0  0  0  0  0  0  0  0
    7.9428    0.0575    2.6306 C   0  0  0  0  0  0  0  0  0  0  0  0
    7.7470   -2.3518    2.4607 C   0  0  0  0  0  0  0  0  0  0  0  0
    6.4215    0.7541   -0.1296 C   0  0  0  0  0  0  0  0  0  0  0  0
    5.1951    1.2233   -0.5469 C   0  0  0  0  0  0  0  0  0  0  0  0
   -0.5941    0.2344   -2.4594 C   0  0  0  0  0  0  0  0  0  0  0  0
   -6.0878    0.7595    0.4458 C   0  0  0  0  0  0  0  0  0  0  0  0
   -6.7791    0.3836    1.5710 C   0  0  0  0  0  0  0  0  0  0  0  0
   -7.6481    1.2610    2.2206 O   0  0  0  0  0  0  0  0  0  0  0  0
   -7.7936    2.5564    1.6796 C   0  0  0  0  0  0  0  0  0  0  0  0
   -6.3468   -2.5168    4.4441 H   0  0  0  0  0  0  0  0  0  0  0  0
   -7.1669   -3.2985    3.0778 H   0  0  0  0  0  0  0  0  0  0  0  0
   -8.1803   -2.7233    4.4610 H   0  0  0  0  0  0  0  0  0  0  0  0
   -5.6491   -2.7342    1.8519 H   0  0  0  0  0  0  0  0  0  0  0  0
   -4.4141   -2.0613   -0.1615 H   0  0  0  0  0  0  0  0  0  0  0  0
   -3.4245   -1.4020   -1.7139 H   0  0  0  0  0  0  0  0  0  0  0  0
   -3.5767    0.4583   -3.9707 H   0  0  0  0  0  0  0  0  0  0  0  0
   -2.4736   -0.9166   -3.8005 H   0  0  0  0  0  0  0  0  0  0  0  0
   -2.7899    2.7025   -3.2093 H   0  0  0  0  0  0  0  0  0  0  0  0
   -0.8328    4.0517   -2.4884 H   0  0  0  0  0  0  0  0  0  0  0  0
    1.2398    2.9220   -1.7691 H   0  0  0  0  0  0  0  0  0  0  0  0
    2.9029    2.0063   -1.3128 H   0  0  0  0  0  0  0  0  0  0  0  0
    3.6408   -1.6935   -0.9092 H   0  0  0  0  0  0  0  0  0  0  0  0
    5.8170   -2.5221   -0.1698 H   0  0  0  0  0  0  0  0  0  0  0  0
    8.7567   -0.2531    0.0917 H   0  0  0  0  0  0  0  0  0  0  0  0
    8.3160   -1.9729    0.0006 H   0  0  0  0  0  0  0  0  0  0  0  0
    6.8758    0.3291    2.7446 H   0  0  0  0  0  0  0  0  0  0  0  0
    8.4304    0.8987    2.0888 H   0  0  0  0  0  0  0  0  0  0  0  0
    8.4713    0.0210    3.6234 H   0  0  0  0  0  0  0  0  0  0  0  0
    8.6685   -2.9766    2.6528 H   0  0  0  0  0  0  0  0  0  0  0  0
    7.2837   -2.2106    3.4730 H   0  0  0  0  0  0  0  0  0  0  0  0
    7.1012   -2.9725    1.8087 H   0  0  0  0  0  0  0  0  0  0  0  0
    7.2335    1.4624    0.0969 H   0  0  0  0  0  0  0  0  0  0  0  0
    5.1009    2.3043   -0.6284 H   0  0  0  0  0  0  0  0  0  0  0  0
   -0.5106   -0.8467   -2.4463 H   0  0  0  0  0  0  0  0  0  0  0  0
   -6.2073    1.7657    0.0309 H   0  0  0  0  0  0  0  0  0  0  0  0
   -6.8238    3.0925    1.8646 H   0  0  0  0  0  0  0  0  0  0  0  0
   -7.9948    2.5729    0.6062 H   0  0  0  0  0  0  0  0  0  0  0  0
   -8.6111    3.1230    2.1789 H   0  0  0  0  0  0  0  0  0  0  0  0
  1  2  1  0
  2  3  1  0
  3  4  2  0
  4  5  1  0
  5  6  2  0
  6  7  1  0
  7  8  2  0
  7  9  1  0
  9 10  1  0
 10 11  1  0
 11 12  2  0
 12 13  1  0
 13 14  2  0
 14 15  1  0
 15 16  1  0
 16 17  2  0
 16 18  1  0
 18 19  1  0
 19 20  2  0
 20 21  1  0
 21 22  2  0
 22 23  1  0
 23 24  1  0
 24 25  1  0
 24 26  1  0
 22 27  1  0
 27 28  2  0
 15 29  2  0
  6 30  1  0
 30 31  2  0
 31 32  1  0
 32 33  1  0
 31  3  1  0
 29 11  1  0
 28 19  1  0
  1 34  1  0
  1 35  1  0
  1 36  1  0
  4 37  1  0
  5 38  1  0
  9 39  1  0
 10 40  1  0
 10 41  1  0
 12 42  1  0
 13 43  1  0
 14 44  1  0
 18 45  1  0
 20 46  1  0
 21 47  1  0
 23 48  1  0
 23 49  1  0
 25 50  1  0
 25 51  1  0
 25 52  1  0
 26 53  1  0
 26 54  1  0
 26 55  1  0
 27 56  1  0
 28 57  1  0
 29 58  1  0
 30 59  1  0
 33 60  1  0
 33 61  1  0
 33 62  1  0
M  END
$$$$
