
     RDKit          3D

 50 53  0  0  0  0  0  0  0  0999 V2000
    6.8288    2.3356   -1.7727 N   0  0  0  0  0  0  0  0  0  0  0  0
    7.1684    1.1542   -0.5636 S   0  0  0  0  0  0  0  0  0  0  0  0
    8.0940    1.7182    0.4796 O   0  0  0  0  0  0  0  0  0  0  0  0
    7.7406   -0.0893   -1.1924 O   0  0  0  0  0  0  0  0  0  0  0  0
    5.6348    0.7905    0.2355 C   0  0  0  0  0  0  0  0  0  0  0  0
    5.2352    1.5269    1.3394 C   0  0  0  0  0  0  0  0  0  0  0  0
    4.0362    1.2557    1.9802 C   0  0  0  0  0  0  0  0  0  0  0  0
    3.2115    0.2440    1.5322 C   0  0  0  0  0  0  0  0  0  0  0  0
    3.6218   -0.4810    0.4325 C   0  0  0  0  0  0  0  0  0  0  0  0
    2.8002   -1.5318   -0.0557 N   0  0  0  0  0  0  0  0  0  0  0  0
    1.5601   -1.8468    0.5638 C   0  0  0  0  0  0  0  0  0  0  0  0
    0.4049   -1.2758    0.1317 N   0  0  0  0  0  0  0  0  0  0  0  0
   -0.7772   -1.5598    0.7082 C   0  0  0  0  0  0  0  0  0  0  0  0
   -2.0174   -1.0499    0.3651 O   0  0  0  0  0  0  0  0  0  0  0  0
   -2.1183   -0.1255   -0.7005 C   0  0  0  0  0  0  0  0  0  0  0  0
   -3.5566    0.2975   -0.9007 C   0  0  0  0  0  0  0  0  0  0  0  0
   -4.0983    0.9540    0.3504 C   0  0  0  0  0  0  0  0  0  0  0  0
   -5.5995    1.0724    0.1899 C   0  0  0  0  0  0  0  0  0  0  0  0
   -5.9962    1.7428   -1.0830 C   0  0  0  0  0  0  0  0  0  0  0  0
   -5.2575    1.2795   -2.3045 C   0  0  0  0  0  0  0  0  0  0  0  0
   -3.7456    1.2520   -2.0414 C   0  0  0  0  0  0  0  0  0  0  0  0
   -0.8045   -2.4652    1.7759 C   0  0  0  0  0  0  0  0  0  0  0  0
   -1.7898   -2.9598    2.5597 N   0  0  0  0  0  0  0  0  0  0  0  0
   -1.2495   -3.8268    3.4659 C   0  0  0  0  0  0  0  0  0  0  0  0
    0.0712   -3.8612    3.2339 N   0  0  0  0  0  0  0  0  0  0  0  0
    0.3661   -3.0397    2.2087 C   0  0  0  0  0  0  0  0  0  0  0  0
    1.5219   -2.7275    1.6045 N   0  0  0  0  0  0  0  0  0  0  0  0
    4.8160   -0.2237   -0.2196 C   0  0  0  0  0  0  0  0  0  0  0  0
    6.7270    3.2548   -1.3023 H   0  0  0  0  0  0  0  0  0  0  0  0
    5.9228    2.0846   -2.2245 H   0  0  0  0  0  0  0  0  0  0  0  0
    5.8858    2.3107    1.6776 H   0  0  0  0  0  0  0  0  0  0  0  0
    3.7211    1.8265    2.8412 H   0  0  0  0  0  0  0  0  0  0  0  0
    2.2848    0.0377    2.0305 H   0  0  0  0  0  0  0  0  0  0  0  0
    3.0424   -2.1174   -0.8667 H   0  0  0  0  0  0  0  0  0  0  0  0
   -1.7722   -0.5421   -1.6653 H   0  0  0  0  0  0  0  0  0  0  0  0
   -1.5149    0.7900   -0.5332 H   0  0  0  0  0  0  0  0  0  0  0  0
   -4.2191   -0.5727   -1.0982 H   0  0  0  0  0  0  0  0  0  0  0  0
   -3.9045    0.3459    1.2476 H   0  0  0  0  0  0  0  0  0  0  0  0
   -3.6318    1.9759    0.4061 H   0  0  0  0  0  0  0  0  0  0  0  0
   -6.0115    0.0316    0.2396 H   0  0  0  0  0  0  0  0  0  0  0  0
   -5.9962    1.6891    1.0291 H   0  0  0  0  0  0  0  0  0  0  0  0
   -5.9875    2.8465   -0.9869 H   0  0  0  0  0  0  0  0  0  0  0  0
   -7.0801    1.4864   -1.2559 H   0  0  0  0  0  0  0  0  0  0  0  0
   -5.4782    2.0054   -3.1124 H   0  0  0  0  0  0  0  0  0  0  0  0
   -5.5459    0.2662   -2.5933 H   0  0  0  0  0  0  0  0  0  0  0  0
   -3.2301    0.9736   -2.9752 H   0  0  0  0  0  0  0  0  0  0  0  0
   -3.5054    2.2986   -1.7254 H   0  0  0  0  0  0  0  0  0  0  0  0
   -1.7902   -4.3809    4.2269 H   0  0  0  0  0  0  0  0  0  0  0  0
    0.7986   -4.4088    3.7268 H   0  0  0  0  0  0  0  0  0  0  0  0
    5.1838   -0.7610   -1.0841 H   0  0  0  0  0  0  0  0  0  0  0  0
  1  2  1  0
  2  3  2  0
  2  4  2  0
  2  5  1  0
  5  6  2  0
  6  7  1  0
  7  8  2  0
  8  9  1  0
  9 10  1  0
 10 11  1  0
 11 12  2  0
 12 13  1  0
 13 14  1  0
 14 15  1  0
 15 16  1  0
 16 17  1  0
 17 18  1  0
 18 19  1  0
 19 20  1  0
 20 21  1  0
 13 22  2  0
 22 23  1  0
 23 24  2  0
 24 25  1  0
 25 26  1  0
 26 27  2  0
  9 28  2  0
 28  5  1  0
 27 11  1  0
 21 16  1  0
 26 22  1  0
  1 29  1  0
  1 30  1  0
  6 31  1  0
  7 32  1  0
  8 33  1  0
 10 34  1  0
 15 35  1  0
 15 36  1  0
 16 37  1  0
 17 38  1  0
 17 39  1  0
 18 40  1  0
 18 41  1  0
 19 42  1  0
 19 43  1  0
 20 44  1  0
 20 45  1  0
 21 46  1  0
 21 47  1  0
 24 48  1  0
 25 49  1  0
 28 50  1  0
M  END
$$$$
