
     RDKit          3D

 58 61  0  0  0  0  0  0  0  0999 V2000
    7.5836    1.0479    0.1169 C   0  0  0  0  0  0  0  0  0  0  0  0
    6.3342    1.5591   -0.3665 N   0  0  0  0  0  0  0  0  0  0  0  0
    5.7783    0.6466   -1.3439 C   0  0  0  0  0  0  0  0  0  0  0  0
    4.2950    0.8040   -1.4014 C   0  0  0  0  0  0  0  0  0  0  0  0
    3.6855    0.2530   -0.1386 C   0  0  0  0  0  0  0  0  0  0  0  0
    2.2712    0.6097   -0.0325 N   0  0  0  0  0  0  0  0  0  0  0  0
    1.2631   -0.4071    0.1195 C   0  0  0  0  0  0  0  0  0  0  0  0
    1.7269   -1.5830    0.1514 O   0  0  0  0  0  0  0  0  0  0  0  0
   -0.1473   -0.1424    0.2285 C   0  0  0  0  0  0  0  0  0  0  0  0
   -0.6110    1.1824    0.0847 C   0  0  0  0  0  0  0  0  0  0  0  0
   -1.9099    1.4859    0.1519 N   0  0  0  0  0  0  0  0  0  0  0  0
   -2.8210    0.5547    0.3567 C   0  0  0  0  0  0  0  0  0  0  0  0
   -4.2155    0.8038    0.4365 N   0  0  0  0  0  0  0  0  0  0  0  0
   -4.8189    2.0519    0.2237 C   0  0  0  0  0  0  0  0  0  0  0  0
   -6.1077    2.2155    0.7464 C   0  0  0  0  0  0  0  0  0  0  0  0
   -6.7467    3.4016    0.5506 C   0  0  0  0  0  0  0  0  0  0  0  0
   -8.3497    3.6403    1.1859 Cl  0  0  0  0  0  0  0  0  0  0  0  0
   -6.1360    4.4216   -0.1489 C   0  0  0  0  0  0  0  0  0  0  0  0
   -4.8699    4.2589   -0.6619 C   0  0  0  0  0  0  0  0  0  0  0  0
   -4.0571    5.5334   -1.5587 Cl  0  0  0  0  0  0  0  0  0  0  0  0
   -4.1980    3.0391   -0.4680 C   0  0  0  0  0  0  0  0  0  0  0  0
   -2.3966   -0.7127    0.4965 N   0  0  0  0  0  0  0  0  0  0  0  0
   -1.0808   -1.1013    0.4401 C   0  0  0  0  0  0  0  0  0  0  0  0
   -0.7539   -2.4580    0.6241 N   0  0  0  0  0  0  0  0  0  0  0  0
   -1.8508   -3.4001    0.8241 C   0  0  2  0  0  0  0  0  0  0  0  0
   -1.3166   -4.8012    1.0631 C   0  0  0  0  0  0  0  0  0  0  0  0
   -2.2653   -5.6888    0.6369 O   0  0  0  0  0  0  0  0  0  0  0  0
   -3.1781   -5.0466   -0.1494 C   0  0  0  0  0  0  0  0  0  0  0  0
   -2.6569   -3.6357   -0.4347 C   0  0  1  0  0  0  0  0  0  0  0  0
   -3.7195   -2.7459   -0.5780 O   0  0  0  0  0  0  0  0  0  0  0  0
    4.4713    0.7882    1.0323 C   0  0  0  0  0  0  0  0  0  0  0  0
    5.4049    1.9038    0.6757 C   0  0  0  0  0  0  0  0  0  0  0  0
    8.3983    1.6665   -0.3601 H   0  0  0  0  0  0  0  0  0  0  0  0
    7.7098    1.1648    1.2074 H   0  0  0  0  0  0  0  0  0  0  0  0
    7.7742    0.0044   -0.2257 H   0  0  0  0  0  0  0  0  0  0  0  0
    6.1916    0.8712   -2.3720 H   0  0  0  0  0  0  0  0  0  0  0  0
    6.0265   -0.3889   -1.0768 H   0  0  0  0  0  0  0  0  0  0  0  0
    4.0765    1.8923   -1.4803 H   0  0  0  0  0  0  0  0  0  0  0  0
    3.9090    0.2774   -2.2993 H   0  0  0  0  0  0  0  0  0  0  0  0
    3.7796   -0.8487   -0.1136 H   0  0  0  0  0  0  0  0  0  0  0  0
    1.9595    1.5924   -0.0619 H   0  0  0  0  0  0  0  0  0  0  0  0
    0.0870    1.9650   -0.0840 H   0  0  0  0  0  0  0  0  0  0  0  0
   -4.8531   -0.0162    0.6700 H   0  0  0  0  0  0  0  0  0  0  0  0
   -6.5805    1.3958    1.3003 H   0  0  0  0  0  0  0  0  0  0  0  0
   -6.6584    5.3493   -0.2918 H   0  0  0  0  0  0  0  0  0  0  0  0
   -3.2185    2.9180   -0.8838 H   0  0  0  0  0  0  0  0  0  0  0  0
    0.2036   -2.8075    0.6298 H   0  0  0  0  0  0  0  0  0  0  0  0
   -2.5172   -3.1431    1.6430 H   0  0  0  0  0  0  0  0  0  0  0  0
   -0.9422   -4.9307    2.0780 H   0  0  0  0  0  0  0  0  0  0  0  0
   -0.4267   -4.9284    0.3780 H   0  0  0  0  0  0  0  0  0  0  0  0
   -3.4435   -5.5847   -1.0749 H   0  0  0  0  0  0  0  0  0  0  0  0
   -4.0999   -4.8856    0.4699 H   0  0  0  0  0  0  0  0  0  0  0  0
   -2.0013   -3.6593   -1.3284 H   0  0  0  0  0  0  0  0  0  0  0  0
   -3.7856   -2.5030   -1.5347 H   0  0  0  0  0  0  0  0  0  0  0  0
    3.7958    1.1690    1.8440 H   0  0  0  0  0  0  0  0  0  0  0  0
    5.0937   -0.0137    1.5126 H   0  0  0  0  0  0  0  0  0  0  0  0
    4.8967    2.8644    0.4507 H   0  0  0  0  0  0  0  0  0  0  0  0
    6.0181    2.1006    1.6038 H   0  0  0  0  0  0  0  0  0  0  0  0
  1  2  1  0
  2  3  1  0
  3  4  1  0
  4  5  1  0
  5  6  1  0
  6  7  1  0
  7  8  2  0
  7  9  1  0
  9 10  2  0
 10 11  1  0
 11 12  2  0
 12 13  1  0
 13 14  1  0
 14 15  2  0
 15 16  1  0
 16 17  1  0
 16 18  2  0
 18 19  1  0
 19 20  1  0
 19 21  2  0
 12 22  1  0
 22 23  2  0
 23 24  1  0
 24 25  1  0
 25 26  1  0
 26 27  1  0
 27 28  1  0
 28 29  1  0
 29 30  1  0
  5 31  1  0
 31 32  1  0
 32  2  1  0
 23  9  1  0
 29 25  1  0
 21 14  1  0
  1 33  1  0
  1 34  1  0
  1 35  1  0
  3 36  1  0
  3 37  1  0
  4 38  1  0
  4 39  1  0
  5 40  1  0
  6 41  1  0
 10 42  1  0
 13 43  1  0
 15 44  1  0
 18 45  1  0
 21 46  1  0
 24 47  1  0
 25 48  1  1
 26 49  1  0
 26 50  1  0
 28 51  1  0
 28 52  1  0
 29 53  1  6
 30 54  1  0
 31 55  1  0
 31 56  1  0
 32 57  1  0
 32 58  1  0
M  END
$$$$
