
     RDKit          3D

117118  0  0  0  0  0  0  0  0999 V2000
    8.8755    0.8675   -4.3379 C   0  0  0  0  0  0  0  0  0  0  0  0
    9.3720   -0.0206   -3.2338 C   0  0  0  0  0  0  0  0  0  0  0  0
    8.7559    0.3775   -1.9533 C   0  0  0  0  0  0  0  0  0  0  0  0
    7.5002   -0.0791   -1.6348 C   0  0  0  0  0  0  0  0  0  0  0  0
    7.0045    0.2760   -0.3968 C   0  0  0  0  0  0  0  0  0  0  0  0
    7.6870    1.0404    0.5076 C   0  0  0  0  0  0  0  0  0  0  0  0
    7.0814    1.3716    1.7882 C   0  0  0  0  0  0  0  0  0  0  0  0
    7.7292    1.5608    2.8380 O   0  0  0  0  0  0  0  0  0  0  0  0
    5.6621    1.4993    1.8983 N   0  0  0  0  0  0  0  0  0  0  0  0
    4.9967    1.7861    3.1220 C   0  0  1  0  0  0  0  0  0  0  0  0
    4.6453    3.2642    3.2489 C   0  0  0  0  0  0  0  0  0  0  0  0
    5.8936    4.0316    3.1785 C   0  0  0  0  0  0  0  0  0  0  0  0
    6.5576    4.3279    4.3481 C   0  0  0  0  0  0  0  0  0  0  0  0
    7.7411    5.0358    4.3867 C   0  0  0  0  0  0  0  0  0  0  0  0
    8.2775    5.4613    3.1965 C   0  0  0  0  0  0  0  0  0  0  0  0
    7.6272    5.1751    1.9950 C   0  0  0  0  0  0  0  0  0  0  0  0
    6.4525    4.4683    2.0040 C   0  0  0  0  0  0  0  0  0  0  0  0
    3.7098    1.0407    3.3076 C   0  0  0  0  0  0  0  0  0  0  0  0
    3.1932    0.9378    4.4544 O   0  0  0  0  0  0  0  0  0  0  0  0
    3.0280    0.4380    2.2436 N   0  0  0  0  0  0  0  0  0  0  0  0
    1.7872   -0.3232    2.3147 C   0  0  1  0  0  0  0  0  0  0  0  0
    0.6706    0.7230    2.7514 C   0  0  0  0  0  0  0  0  0  0  0  0
    1.3450   -0.7626    1.0103 C   0  0  0  0  0  0  0  0  0  0  0  0
    1.9669   -0.2678   -0.0100 O   0  0  0  0  0  0  0  0  0  0  0  0
    0.3114   -1.6686    0.6977 N   0  0  0  0  0  0  0  0  0  0  0  0
   -0.0063   -1.9598   -0.7119 C   0  0  1  0  0  0  0  0  0  0  0  0
    0.4458   -3.3113   -1.1305 C   0  0  0  0  0  0  0  0  0  0  0  0
   -0.0730   -4.5033   -0.4206 C   0  0  0  0  0  0  0  0  0  0  0  0
    0.6257   -5.7180   -1.1036 C   0  0  0  0  0  0  0  0  0  0  0  0
   -1.5514   -4.7454   -0.5496 C   0  0  0  0  0  0  0  0  0  0  0  0
   -1.4299   -1.7040   -0.9693 C   0  0  0  0  0  0  0  0  0  0  0  0
   -1.7237   -1.6085   -2.2063 O   0  0  0  0  0  0  0  0  0  0  0  0
   -2.4095   -1.5696    0.0119 N   0  0  0  0  0  0  0  0  0  0  0  0
   -3.8373   -1.2833   -0.1560 C   0  0  1  0  0  0  0  0  0  0  0  0
   -4.2085   -1.6190   -1.5893 C   0  0  0  0  0  0  0  0  0  0  0  0
   -5.6672   -1.3863   -1.9044 C   0  0  0  0  0  0  0  0  0  0  0  0
   -6.1194    0.0223   -1.7124 C   0  0  0  0  0  0  0  0  0  0  0  0
   -5.3781    1.0204   -2.5921 C   0  0  0  0  0  0  0  0  0  0  0  0
   -5.8435    2.3448   -2.3655 N   0  0  0  0  0  0  0  0  0  0  0  0
   -7.1429    2.6886   -2.7668 C   0  0  0  0  0  0  0  0  0  0  0  0
   -7.4948    4.1264   -2.4517 C   0  0  0  0  0  0  0  0  0  0  0  0
   -4.9530    3.3311   -1.9464 C   0  0  0  0  0  0  0  0  0  0  0  0
   -3.9261    3.7499   -2.9843 C   0  0  0  0  0  0  0  0  0  0  0  0
   -4.5369   -2.0295    0.8733 C   0  0  0  0  0  0  0  0  0  0  0  0
   -3.8507   -2.8468    1.5881 O   0  0  0  0  0  0  0  0  0  0  0  0
   -5.9039   -1.9891    1.2184 N   0  0  0  0  0  0  0  0  0  0  0  0
   -6.4673   -2.8213    2.2926 C   0  0  1  0  0  0  0  0  0  0  0  0
   -7.2237   -1.9579    3.2533 C   0  0  0  0  0  0  0  0  0  0  0  0
   -7.7385   -2.7926    4.2470 O   0  0  0  0  0  0  0  0  0  0  0  0
   -7.4210   -3.8132    1.6901 C   0  0  0  0  0  0  0  0  0  0  0  0
   -8.0512   -4.6210    2.3894 O   0  0  0  0  0  0  0  0  0  0  0  0
   -7.6031   -3.8309    0.3064 O   0  0  0  0  0  0  0  0  0  0  0  0
   -8.5080   -4.7758   -0.2769 C   0  0  0  0  0  0  0  0  0  0  0  0
    8.9478    1.4876    0.1621 C   0  0  0  0  0  0  0  0  0  0  0  0
    9.5069    1.1673   -1.0717 C   0  0  0  0  0  0  0  0  0  0  0  0
    9.3680    1.8373   -4.2812 H   0  0  0  0  0  0  0  0  0  0  0  0
    7.7726    0.9955   -4.2014 H   0  0  0  0  0  0  0  0  0  0  0  0
    9.0794    0.4345   -5.3482 H   0  0  0  0  0  0  0  0  0  0  0  0
   10.4928    0.1406   -3.1352 H   0  0  0  0  0  0  0  0  0  0  0  0
    9.2651   -1.1134   -3.4507 H   0  0  0  0  0  0  0  0  0  0  0  0
    6.9563   -0.6909   -2.3390 H   0  0  0  0  0  0  0  0  0  0  0  0
    6.0117   -0.0775   -0.1269 H   0  0  0  0  0  0  0  0  0  0  0  0
    5.1288    1.3850    1.0229 H   0  0  0  0  0  0  0  0  0  0  0  0
    5.6616    1.5943    3.9603 H   0  0  0  0  0  0  0  0  0  0  0  0
    3.8697    3.5914    2.5454 H   0  0  0  0  0  0  0  0  0  0  0  0
    4.2227    3.3837    4.2664 H   0  0  0  0  0  0  0  0  0  0  0  0
    6.1679    4.0097    5.3286 H   0  0  0  0  0  0  0  0  0  0  0  0
    8.2320    5.2468    5.3499 H   0  0  0  0  0  0  0  0  0  0  0  0
    9.1979    6.0101    3.2466 H   0  0  0  0  0  0  0  0  0  0  0  0
    8.1025    5.5427    1.0790 H   0  0  0  0  0  0  0  0  0  0  0  0
    5.9437    4.2439    1.0745 H   0  0  0  0  0  0  0  0  0  0  0  0
    3.4329    0.5358    1.2824 H   0  0  0  0  0  0  0  0  0  0  0  0
    1.7328   -1.0267    3.1282 H   0  0  0  0  0  0  0  0  0  0  0  0
    0.5988    1.5100    2.0091 H   0  0  0  0  0  0  0  0  0  0  0  0
   -0.2557    0.1470    2.8124 H   0  0  0  0  0  0  0  0  0  0  0  0
    0.9489    1.1024    3.7616 H   0  0  0  0  0  0  0  0  0  0  0  0
   -0.1869   -2.1185    1.4717 H   0  0  0  0  0  0  0  0  0  0  0  0
    0.5601   -1.1985   -1.3468 H   0  0  0  0  0  0  0  0  0  0  0  0
    0.1440   -3.4350   -2.2192 H   0  0  0  0  0  0  0  0  0  0  0  0
    1.5708   -3.3710   -1.1601 H   0  0  0  0  0  0  0  0  0  0  0  0
    0.1843   -4.5429    0.6535 H   0  0  0  0  0  0  0  0  0  0  0  0
    0.4668   -5.6420   -2.2040 H   0  0  0  0  0  0  0  0  0  0  0  0
    0.1612   -6.6448   -0.7583 H   0  0  0  0  0  0  0  0  0  0  0  0
    1.7070   -5.6711   -0.9543 H   0  0  0  0  0  0  0  0  0  0  0  0
   -2.0840   -4.0396   -1.1782 H   0  0  0  0  0  0  0  0  0  0  0  0
   -1.7181   -5.7548   -1.0425 H   0  0  0  0  0  0  0  0  0  0  0  0
   -2.0401   -4.8618    0.4578 H   0  0  0  0  0  0  0  0  0  0  0  0
   -2.0485   -1.6915    1.0207 H   0  0  0  0  0  0  0  0  0  0  0  0
   -3.9370   -0.1777   -0.0529 H   0  0  0  0  0  0  0  0  0  0  0  0
   -3.6151   -0.8827   -2.2087 H   0  0  0  0  0  0  0  0  0  0  0  0
   -3.8679   -2.6163   -1.8322 H   0  0  0  0  0  0  0  0  0  0  0  0
   -5.7290   -1.5800   -3.0317 H   0  0  0  0  0  0  0  0  0  0  0  0
   -6.3366   -2.1157   -1.4307 H   0  0  0  0  0  0  0  0  0  0  0  0
   -7.2041    0.0681   -1.8905 H   0  0  0  0  0  0  0  0  0  0  0  0
   -5.8760    0.3546   -0.6649 H   0  0  0  0  0  0  0  0  0  0  0  0
   -5.5307    0.7536   -3.6537 H   0  0  0  0  0  0  0  0  0  0  0  0
   -4.2806    1.0084   -2.3971 H   0  0  0  0  0  0  0  0  0  0  0  0
   -7.2855    2.5299   -3.8801 H   0  0  0  0  0  0  0  0  0  0  0  0
   -7.9156    2.0002   -2.3204 H   0  0  0  0  0  0  0  0  0  0  0  0
   -7.5202    4.2758   -1.3521 H   0  0  0  0  0  0  0  0  0  0  0  0
   -8.5783    4.2760   -2.7610 H   0  0  0  0  0  0  0  0  0  0  0  0
   -6.8816    4.8490   -2.9984 H   0  0  0  0  0  0  0  0  0  0  0  0
   -4.3622    3.0704   -1.0294 H   0  0  0  0  0  0  0  0  0  0  0  0
   -5.5204    4.2455   -1.6327 H   0  0  0  0  0  0  0  0  0  0  0  0
   -3.9641    4.8648   -3.1183 H   0  0  0  0  0  0  0  0  0  0  0  0
   -2.8850    3.5322   -2.6854 H   0  0  0  0  0  0  0  0  0  0  0  0
   -4.1092    3.2832   -3.9679 H   0  0  0  0  0  0  0  0  0  0  0  0
   -6.5302   -1.3444    0.7098 H   0  0  0  0  0  0  0  0  0  0  0  0
   -5.6198   -3.3478    2.7659 H   0  0  0  0  0  0  0  0  0  0  0  0
   -6.5623   -1.1712    3.7147 H   0  0  0  0  0  0  0  0  0  0  0  0
   -8.0508   -1.4511    2.7304 H   0  0  0  0  0  0  0  0  0  0  0  0
   -8.6787   -2.5386    4.3975 H   0  0  0  0  0  0  0  0  0  0  0  0
   -7.9016   -5.6217   -0.6844 H   0  0  0  0  0  0  0  0  0  0  0  0
   -9.0583   -4.2106   -1.0542 H   0  0  0  0  0  0  0  0  0  0  0  0
   -9.1731   -5.1386    0.5183 H   0  0  0  0  0  0  0  0  0  0  0  0
    9.5024    2.1046    0.8812 H   0  0  0  0  0  0  0  0  0  0  0  0
   10.4951    1.5367   -1.3189 H   0  0  0  0  0  0  0  0  0  0  0  0
  1  2  1  0
  2  3  1  0
  3  4  2  0
  4  5  1  0
  5  6  2  0
  6  7  1  0
  7  8  2  0
  7  9  1  0
  9 10  1  0
 10 11  1  0
 11 12  1  0
 12 13  2  0
 13 14  1  0
 14 15  2  0
 15 16  1  0
 16 17  2  0
 10 18  1  0
 18 19  2  0
 18 20  1  0
 20 21  1  0
 21 22  1  0
 21 23  1  0
 23 24  2  0
 23 25  1  0
 25 26  1  0
 26 27  1  0
 27 28  1  0
 28 29  1  0
 28 30  1  0
 26 31  1  0
 31 32  2  0
 31 33  1  0
 33 34  1  0
 34 35  1  0
 35 36  1  0
 36 37  1  0
 37 38  1  0
 38 39  1  0
 39 40  1  0
 40 41  1  0
 39 42  1  0
 42 43  1  0
 34 44  1  0
 44 45  2  0
 44 46  1  0
 46 47  1  0
 47 48  1  0
 48 49  1  0
 47 50  1  0
 50 51  2  0
 50 52  1  0
 52 53  1  0
  6 54  1  0
 54 55  2  0
 55  3  1  0
 17 12  1  0
  1 56  1  0
  1 57  1  0
  1 58  1  0
  2 59  1  0
  2 60  1  0
  4 61  1  0
  5 62  1  0
  9 63  1  0
 10 64  1  1
 11 65  1  0
 11 66  1  0
 13 67  1  0
 14 68  1  0
 15 69  1  0
 16 70  1  0
 17 71  1  0
 20 72  1  0
 21 73  1  1
 22 74  1  0
 22 75  1  0
 22 76  1  0
 25 77  1  0
 26 78  1  6
 27 79  1  0
 27 80  1  0
 28 81  1  0
 29 82  1  0
 29 83  1  0
 29 84  1  0
 30 85  1  0
 30 86  1  0
 30 87  1  0
 33 88  1  0
 34 89  1  1
 35 90  1  0
 35 91  1  0
 36 92  1  0
 36 93  1  0
 37 94  1  0
 37 95  1  0
 38 96  1  0
 38 97  1  0
 40 98  1  0
 40 99  1  0
 41100  1  0
 41101  1  0
 41102  1  0
 42103  1  0
 42104  1  0
 43105  1  0
 43106  1  0
 43107  1  0
 46108  1  0
 47109  1  1
 48110  1  0
 48111  1  0
 49112  1  0
 53113  1  0
 53114  1  0
 53115  1  0
 54116  1  0
 55117  1  0
M  END
$$$$
