
     RDKit          3D

 46 49  0  0  0  0  0  0  0  0999 V2000
   -1.5646   -2.8411   -1.2489 C   0  0  0  0  0  0  0  0  0  0  0  0
   -1.1631   -1.4412   -0.8580 C   0  0  1  0  0  0  0  0  0  0  0  0
   -1.4906   -0.4886   -1.8402 O   0  0  0  0  0  0  0  0  0  0  0  0
   -1.9809    0.6251   -1.1831 C   0  0  0  0  0  0  0  0  0  0  0  0
   -2.1583    1.7428   -1.7776 O   0  0  0  0  0  0  0  0  0  0  0  0
   -2.2644    0.4127    0.1940 N   0  0  0  0  0  0  0  0  0  0  0  0
   -2.7566    1.2521    1.1729 N   0  0  0  0  0  0  0  0  0  0  0  0
   -4.1762    1.0528    1.0589 C   0  0  0  0  0  0  0  0  0  0  0  0
   -4.9655    0.1167    1.6968 C   0  0  0  0  0  0  0  0  0  0  0  0
   -6.3108    0.0897    1.4525 C   0  0  0  0  0  0  0  0  0  0  0  0
   -6.9569    0.9526    0.5917 C   0  0  0  0  0  0  0  0  0  0  0  0
   -6.1449    1.8949   -0.0471 C   0  0  0  0  0  0  0  0  0  0  0  0
   -4.7860    1.9484    0.1773 C   0  0  0  0  0  0  0  0  0  0  0  0
   -1.8985   -0.9556    0.3304 C   0  0  0  0  0  0  0  0  0  0  0  0
   -2.1396   -1.7286    1.3228 O   0  0  0  0  0  0  0  0  0  0  0  0
    0.3192   -1.3884   -0.6932 C   0  0  0  0  0  0  0  0  0  0  0  0
    1.1272   -0.8887   -1.7221 C   0  0  0  0  0  0  0  0  0  0  0  0
    2.4852   -0.7873   -1.7019 C   0  0  0  0  0  0  0  0  0  0  0  0
    3.1338   -1.2159   -0.5616 C   0  0  0  0  0  0  0  0  0  0  0  0
    4.5214   -1.1057   -0.5568 O   0  0  0  0  0  0  0  0  0  0  0  0
    5.1013    0.0456   -0.0835 C   0  0  0  0  0  0  0  0  0  0  0  0
    6.4902   -0.0149   -0.1587 C   0  0  0  0  0  0  0  0  0  0  0  0
    7.2757    1.0503    0.2704 C   0  0  0  0  0  0  0  0  0  0  0  0
    6.6899    2.1928    0.7813 C   0  0  0  0  0  0  0  0  0  0  0  0
    5.3115    2.2322    0.8472 C   0  0  0  0  0  0  0  0  0  0  0  0
    4.5338    1.1818    0.4241 C   0  0  0  0  0  0  0  0  0  0  0  0
    2.3906   -1.7195    0.4899 C   0  0  0  0  0  0  0  0  0  0  0  0
    1.0239   -1.8050    0.4300 C   0  0  0  0  0  0  0  0  0  0  0  0
   -1.2612   -3.0195   -2.2958 H   0  0  0  0  0  0  0  0  0  0  0  0
   -0.9570   -3.5277   -0.6243 H   0  0  0  0  0  0  0  0  0  0  0  0
   -2.6392   -3.0314   -1.0473 H   0  0  0  0  0  0  0  0  0  0  0  0
   -2.3149    1.8884    1.8522 H   0  0  0  0  0  0  0  0  0  0  0  0
   -4.4233   -0.5282    2.3516 H   0  0  0  0  0  0  0  0  0  0  0  0
   -6.9109   -0.6615    1.9711 H   0  0  0  0  0  0  0  0  0  0  0  0
   -8.0326    0.9124    0.4117 H   0  0  0  0  0  0  0  0  0  0  0  0
   -6.6923    2.5583   -0.7190 H   0  0  0  0  0  0  0  0  0  0  0  0
   -4.3201    2.7377   -0.3998 H   0  0  0  0  0  0  0  0  0  0  0  0
    0.5902   -0.5564   -2.6123 H   0  0  0  0  0  0  0  0  0  0  0  0
    3.0247   -0.3867   -2.5480 H   0  0  0  0  0  0  0  0  0  0  0  0
    7.0880   -0.8505   -0.5385 H   0  0  0  0  0  0  0  0  0  0  0  0
    8.3583    1.0473    0.2304 H   0  0  0  0  0  0  0  0  0  0  0  0
    7.2746    3.0350    1.1217 H   0  0  0  0  0  0  0  0  0  0  0  0
    4.7812    3.0910    1.2346 H   0  0  0  0  0  0  0  0  0  0  0  0
    3.4474    1.1329    0.4414 H   0  0  0  0  0  0  0  0  0  0  0  0
    2.9188   -2.0528    1.3811 H   0  0  0  0  0  0  0  0  0  0  0  0
    0.4216   -2.1980    1.2460 H   0  0  0  0  0  0  0  0  0  0  0  0
  2  1  1  6
  2  3  1  0
  3  4  1  0
  4  5  2  0
  4  6  1  0
  6  7  1  0
  7  8  1  0
  8  9  2  0
  9 10  1  0
 10 11  2  0
 11 12  1  0
 12 13  2  0
  6 14  1  0
 14 15  2  0
  2 16  1  0
 16 17  2  0
 17 18  1  0
 18 19  2  0
 19 20  1  0
 20 21  1  0
 21 22  2  0
 22 23  1  0
 23 24  2  0
 24 25  1  0
 25 26  2  0
 19 27  1  0
 27 28  2  0
 14  2  1  0
 28 16  1  0
 13  8  1  0
 26 21  1  0
  1 29  1  0
  1 30  1  0
  1 31  1  0
  7 32  1  0
  9 33  1  0
 10 34  1  0
 11 35  1  0
 12 36  1  0
 13 37  1  0
 17 38  1  0
 18 39  1  0
 22 40  1  0
 23 41  1  0
 24 42  1  0
 25 43  1  0
 26 44  1  0
 27 45  1  0
 28 46  1  0
M  END
$$$$
