
     RDKit          3D

 65 70  0  0  0  0  0  0  0  0999 V2000
    1.1319    0.4730    2.5672 O   0  0  0  0  0  0  0  0  0  0  0  0
    0.6697    0.3897    1.3826 C   0  0  0  0  0  0  0  0  0  0  0  0
    1.6706    0.2763    0.3631 N   0  0  0  0  0  0  0  0  0  0  0  0
    3.0800    0.2590    0.6676 C   0  0  1  0  0  0  0  0  0  0  0  0
    3.7962   -0.9840    0.2345 C   0  0  0  0  0  0  0  0  0  0  0  0
    3.8992   -1.0730   -1.2599 C   0  0  0  0  0  0  0  0  0  0  0  0
    4.6362    0.1281   -1.7960 C   0  0  0  0  0  0  0  0  0  0  0  0
    3.8437    1.3453   -1.4538 C   0  0  0  0  0  0  0  0  0  0  0  0
    3.7191    1.4698    0.0482 C   0  0  0  0  0  0  0  0  0  0  0  0
    5.1302    1.5842    0.6183 C   0  0  0  0  0  0  0  0  0  0  0  0
    5.9034    0.3361    0.2825 C   0  0  2  0  0  0  0  0  0  0  0  0
    7.1538    0.4269    0.8752 O   0  0  0  0  0  0  0  0  0  0  0  0
    6.0196    0.2556   -1.2274 C   0  0  0  0  0  0  0  0  0  0  0  0
    5.2074   -0.8853    0.7969 C   0  0  0  0  0  0  0  0  0  0  0  0
   -0.7608    0.4111    1.1234 C   0  0  0  0  0  0  0  0  0  0  0  0
   -1.4887    1.5386    0.8076 C   0  0  0  0  0  0  0  0  0  0  0  0
   -2.8005    1.5179    0.5845 N   0  0  0  0  0  0  0  0  0  0  0  0
   -3.4897    0.3754    0.6582 C   0  0  0  0  0  0  0  0  0  0  0  0
   -4.8771    0.3654    0.4304 N   0  0  0  0  0  0  0  0  0  0  0  0
   -5.5585    1.5936    0.1058 C   0  0  0  0  0  0  0  0  0  0  0  0
   -7.0497    1.3058    0.0799 C   0  0  0  0  0  0  0  0  0  0  0  0
   -7.4419    0.6634   -1.2087 C   0  0  0  0  0  0  0  0  0  0  0  0
   -6.3004    0.0861   -1.7933 O   0  0  0  0  0  0  0  0  0  0  0  0
   -5.5995    1.1678   -2.3706 C   0  0  0  0  0  0  0  0  0  0  0  0
   -5.1193    2.0728   -1.2570 C   0  0  0  0  0  0  0  0  0  0  0  0
   -2.8052   -0.7644    0.9680 N   0  0  0  0  0  0  0  0  0  0  0  0
   -1.4856   -0.7756    1.1978 C   0  0  0  0  0  0  0  0  0  0  0  0
   -0.7549   -2.0189    1.5325 C   0  0  0  0  0  0  0  0  0  0  0  0
   -0.2235   -2.7979    0.3745 C   0  0  0  0  0  0  0  0  0  0  0  0
   -1.0565   -3.9714    0.7736 C   0  0  0  0  0  0  0  0  0  0  0  0
   -1.7295   -3.1384    1.8146 C   0  0  0  0  0  0  0  0  0  0  0  0
    1.3117    0.2069   -0.6197 H   0  0  0  0  0  0  0  0  0  0  0  0
    3.2085    0.3592    1.7650 H   0  0  0  0  0  0  0  0  0  0  0  0
    3.3264   -1.8727    0.6648 H   0  0  0  0  0  0  0  0  0  0  0  0
    2.8694   -1.0192   -1.6927 H   0  0  0  0  0  0  0  0  0  0  0  0
    4.3721   -2.0245   -1.5187 H   0  0  0  0  0  0  0  0  0  0  0  0
    4.7166    0.0259   -2.9071 H   0  0  0  0  0  0  0  0  0  0  0  0
    2.8553    1.2760   -1.9176 H   0  0  0  0  0  0  0  0  0  0  0  0
    4.3178    2.2849   -1.8275 H   0  0  0  0  0  0  0  0  0  0  0  0
    3.1926    2.3937    0.3545 H   0  0  0  0  0  0  0  0  0  0  0  0
    5.6491    2.4213    0.0870 H   0  0  0  0  0  0  0  0  0  0  0  0
    5.0859    1.7810    1.7004 H   0  0  0  0  0  0  0  0  0  0  0  0
    7.2410    1.1913    1.5064 H   0  0  0  0  0  0  0  0  0  0  0  0
    6.6636   -0.6073   -1.4940 H   0  0  0  0  0  0  0  0  0  0  0  0
    6.4940    1.1618   -1.6046 H   0  0  0  0  0  0  0  0  0  0  0  0
    5.7468   -1.7963    0.5365 H   0  0  0  0  0  0  0  0  0  0  0  0
    5.1944   -0.8034    1.9082 H   0  0  0  0  0  0  0  0  0  0  0  0
   -0.9346    2.4665    0.7459 H   0  0  0  0  0  0  0  0  0  0  0  0
   -5.4235   -0.5412    0.4954 H   0  0  0  0  0  0  0  0  0  0  0  0
   -5.3584    2.4149    0.8266 H   0  0  0  0  0  0  0  0  0  0  0  0
   -7.6171    2.2366    0.2686 H   0  0  0  0  0  0  0  0  0  0  0  0
   -7.2472    0.6261    0.9459 H   0  0  0  0  0  0  0  0  0  0  0  0
   -8.2598   -0.0845   -1.0946 H   0  0  0  0  0  0  0  0  0  0  0  0
   -7.8366    1.4557   -1.8995 H   0  0  0  0  0  0  0  0  0  0  0  0
   -4.7648    0.7578   -2.9772 H   0  0  0  0  0  0  0  0  0  0  0  0
   -6.2770    1.7164   -3.0596 H   0  0  0  0  0  0  0  0  0  0  0  0
   -5.5230    3.1021   -1.4296 H   0  0  0  0  0  0  0  0  0  0  0  0
   -4.0355    2.1451   -1.2936 H   0  0  0  0  0  0  0  0  0  0  0  0
   -0.0166   -1.8534    2.3467 H   0  0  0  0  0  0  0  0  0  0  0  0
    0.8546   -3.0256    0.4584 H   0  0  0  0  0  0  0  0  0  0  0  0
   -0.5073   -2.4149   -0.6263 H   0  0  0  0  0  0  0  0  0  0  0  0
   -0.4812   -4.7986    1.2264 H   0  0  0  0  0  0  0  0  0  0  0  0
   -1.7300   -4.3668   -0.0222 H   0  0  0  0  0  0  0  0  0  0  0  0
   -1.6240   -3.5463    2.8443 H   0  0  0  0  0  0  0  0  0  0  0  0
   -2.7826   -2.9020    1.5629 H   0  0  0  0  0  0  0  0  0  0  0  0
  1  2  2  0
  2  3  1  0
  3  4  1  0
  4  5  1  0
  5  6  1  0
  6  7  1  0
  7  8  1  0
  8  9  1  0
  9 10  1  0
 10 11  1  0
 11 12  1  1
 11 13  1  0
 11 14  1  0
  2 15  1  0
 15 16  2  0
 16 17  1  0
 17 18  2  0
 18 19  1  0
 19 20  1  0
 20 21  1  0
 21 22  1  0
 22 23  1  0
 23 24  1  0
 24 25  1  0
 18 26  1  0
 26 27  2  0
 27 28  1  0
 28 29  1  0
 29 30  1  0
 30 31  1  0
  9  4  1  0
 27 15  1  0
 31 28  1  0
 14  5  1  0
 25 20  1  0
 13  7  1  0
  3 32  1  0
  4 33  1  1
  5 34  1  0
  6 35  1  0
  6 36  1  0
  7 37  1  0
  8 38  1  0
  8 39  1  0
  9 40  1  0
 10 41  1  0
 10 42  1  0
 12 43  1  0
 13 44  1  0
 13 45  1  0
 14 46  1  0
 14 47  1  0
 16 48  1  0
 19 49  1  0
 20 50  1  0
 21 51  1  0
 21 52  1  0
 22 53  1  0
 22 54  1  0
 24 55  1  0
 24 56  1  0
 25 57  1  0
 25 58  1  0
 28 59  1  0
 29 60  1  0
 29 61  1  0
 30 62  1  0
 30 63  1  0
 31 64  1  0
 31 65  1  0
M  END
$$$$
