
     RDKit          3D

 74 79  0  0  0  0  0  0  0  0999 V2000
   -6.4723    4.5630    0.2720 C   0  0  0  0  0  0  0  0  0  0  0  0
   -5.7997    5.1117   -0.8704 N   0  0  0  0  0  0  0  0  0  0  0  0
   -5.3927    4.1079   -1.8259 C   0  0  1  0  0  0  0  0  0  0  0  0
   -4.6986    4.7868   -2.9816 C   0  0  0  0  0  0  0  0  0  0  0  0
   -4.5489    3.1146   -1.1436 C   0  0  0  0  0  0  0  0  0  0  0  0
   -4.3011    3.2380    0.0808 O   0  0  0  0  0  0  0  0  0  0  0  0
   -3.9756    1.9879   -1.7944 N   0  0  0  0  0  0  0  0  0  0  0  0
   -3.1636    1.0356   -1.1246 C   0  0  0  0  0  0  0  0  0  0  0  0
   -3.7920   -0.0528   -0.5594 C   0  0  0  0  0  0  0  0  0  0  0  0
   -3.0657   -1.0378    0.1175 C   0  0  0  0  0  0  0  0  0  0  0  0
   -1.6974   -0.9091    0.2158 C   0  0  0  0  0  0  0  0  0  0  0  0
   -0.9576   -1.9493    0.9226 C   0  0  0  0  0  0  0  0  0  0  0  0
   -0.7115   -3.2152    0.4391 C   0  0  0  0  0  0  0  0  0  0  0  0
   -1.1185   -3.7690   -0.8700 C   0  0  0  0  0  0  0  0  0  0  0  0
   -0.6464   -3.2115   -2.0382 C   0  0  0  0  0  0  0  0  0  0  0  0
   -1.0338   -3.7376   -3.1911 N   0  0  0  0  0  0  0  0  0  0  0  0
   -1.8641   -4.7893   -3.3111 C   0  0  0  0  0  0  0  0  0  0  0  0
   -2.2376   -5.3051   -4.6752 C   0  0  0  0  0  0  0  0  0  0  0  0
   -2.3343   -5.3456   -2.1812 N   0  0  0  0  0  0  0  0  0  0  0  0
   -1.9695   -4.8461   -0.9718 C   0  0  0  0  0  0  0  0  0  0  0  0
   -0.0178   -3.8430    1.4032 N   0  0  0  0  0  0  0  0  0  0  0  0
    0.1856   -3.0414    2.4652 C   0  0  0  0  0  0  0  0  0  0  0  0
    0.8268   -3.2074    3.6892 C   0  0  0  0  0  0  0  0  0  0  0  0
    0.8873   -2.1952    4.6219 C   0  0  0  0  0  0  0  0  0  0  0  0
    1.5720   -2.3655    5.9362 C   0  0  0  0  0  0  0  0  0  0  0  0
    0.2814   -1.0025    4.2887 C   0  0  0  0  0  0  0  0  0  0  0  0
   -0.3430   -0.8697    3.0744 C   0  0  0  0  0  0  0  0  0  0  0  0
   -0.4030   -1.8744    2.1490 N   0  0  0  0  0  0  0  0  0  0  0  0
   -1.1011    0.1835   -0.3566 C   0  0  0  0  0  0  0  0  0  0  0  0
    0.3211    0.3304   -0.2798 C   0  0  0  0  0  0  0  0  0  0  0  0
    1.5273    0.4715   -0.2023 C   0  0  0  0  0  0  0  0  0  0  0  0
    2.9661    0.6245   -0.1192 C   0  0  0  0  0  0  0  0  0  0  0  0
    3.7929   -0.4519    0.1230 C   0  0  0  0  0  0  0  0  0  0  0  0
    5.1745   -0.3142    0.2037 C   0  0  0  0  0  0  0  0  0  0  0  0
    5.7520    0.9381    0.0376 C   0  0  0  0  0  0  0  0  0  0  0  0
    4.9366    2.0089   -0.2027 C   0  0  0  0  0  0  0  0  0  0  0  0
    5.5357    3.2576   -0.3664 C   0  0  0  0  0  0  0  0  0  0  0  0
    6.8974    3.4360   -0.2937 C   0  0  0  0  0  0  0  0  0  0  0  0
    7.6617    2.3201   -0.0497 C   0  0  0  0  0  0  0  0  0  0  0  0
    8.9245    2.4586    0.0222 O   0  0  0  0  0  0  0  0  0  0  0  0
    7.0897    1.1047    0.1103 N   0  0  0  0  0  0  0  0  0  0  0  0
    7.8858   -0.0586    0.3639 C   0  0  0  0  0  0  0  0  0  0  0  0
    3.5658    1.8573   -0.2804 C   0  0  0  0  0  0  0  0  0  0  0  0
   -1.8350    1.1310   -1.0118 N   0  0  0  0  0  0  0  0  0  0  0  0
   -5.8343    4.6375    1.1507 H   0  0  0  0  0  0  0  0  0  0  0  0
   -6.7701    3.5046    0.0377 H   0  0  0  0  0  0  0  0  0  0  0  0
   -7.3720    5.1873    0.4598 H   0  0  0  0  0  0  0  0  0  0  0  0
   -5.0308    5.7255   -0.5434 H   0  0  0  0  0  0  0  0  0  0  0  0
   -6.3254    3.6629   -2.2443 H   0  0  0  0  0  0  0  0  0  0  0  0
   -4.8014    4.1571   -3.8955 H   0  0  0  0  0  0  0  0  0  0  0  0
   -3.6208    4.9123   -2.8091 H   0  0  0  0  0  0  0  0  0  0  0  0
   -5.2207    5.7500   -3.1585 H   0  0  0  0  0  0  0  0  0  0  0  0
   -4.1744    1.8767   -2.8125 H   0  0  0  0  0  0  0  0  0  0  0  0
   -4.8697   -0.1936   -0.6128 H   0  0  0  0  0  0  0  0  0  0  0  0
   -3.5372   -1.8948    0.5652 H   0  0  0  0  0  0  0  0  0  0  0  0
    0.0224   -2.3638   -1.9297 H   0  0  0  0  0  0  0  0  0  0  0  0
   -2.9966   -6.0951   -4.5284 H   0  0  0  0  0  0  0  0  0  0  0  0
   -1.3756   -5.7606   -5.1898 H   0  0  0  0  0  0  0  0  0  0  0  0
   -2.7265   -4.5056   -5.2681 H   0  0  0  0  0  0  0  0  0  0  0  0
   -2.3363   -5.2795   -0.0525 H   0  0  0  0  0  0  0  0  0  0  0  0
    1.2747   -4.1628    3.8760 H   0  0  0  0  0  0  0  0  0  0  0  0
    1.1141   -3.2390    6.4851 H   0  0  0  0  0  0  0  0  0  0  0  0
    1.3335   -1.4802    6.5622 H   0  0  0  0  0  0  0  0  0  0  0  0
    2.6403   -2.5664    5.8482 H   0  0  0  0  0  0  0  0  0  0  0  0
    0.3212   -0.1919    5.0155 H   0  0  0  0  0  0  0  0  0  0  0  0
   -0.8273    0.0525    2.7839 H   0  0  0  0  0  0  0  0  0  0  0  0
    3.3386   -1.4310    0.2523 H   0  0  0  0  0  0  0  0  0  0  0  0
    5.8391   -1.1468    0.3931 H   0  0  0  0  0  0  0  0  0  0  0  0
    4.9070    4.1043   -0.5551 H   0  0  0  0  0  0  0  0  0  0  0  0
    7.3476    4.4088   -0.4227 H   0  0  0  0  0  0  0  0  0  0  0  0
    7.7813   -0.4575    1.3934 H   0  0  0  0  0  0  0  0  0  0  0  0
    8.9557    0.2089    0.2487 H   0  0  0  0  0  0  0  0  0  0  0  0
    7.6835   -0.8277   -0.4121 H   0  0  0  0  0  0  0  0  0  0  0  0
    2.9566    2.7321   -0.4722 H   0  0  0  0  0  0  0  0  0  0  0  0
  1  2  1  0
  2  3  1  0
  3  4  1  0
  3  5  1  0
  5  6  2  0
  5  7  1  0
  7  8  1  0
  8  9  2  0
  9 10  1  0
 10 11  2  0
 11 12  1  0
 12 13  2  0
 13 14  1  0
 14 15  2  0
 15 16  1  0
 16 17  2  0
 17 18  1  0
 17 19  1  0
 19 20  2  0
 13 21  1  0
 21 22  2  0
 22 23  1  0
 23 24  2  0
 24 25  1  0
 24 26  1  0
 26 27  2  0
 27 28  1  0
 11 29  1  0
 29 30  1  0
 30 31  3  0
 31 32  1  0
 32 33  2  0
 33 34  1  0
 34 35  2  0
 35 36  1  0
 36 37  1  0
 37 38  2  0
 38 39  1  0
 39 40  2  0
 39 41  1  0
 41 42  1  0
 36 43  2  0
 29 44  2  0
 44  8  1  0
 28 12  1  0
 43 32  1  0
 20 14  1  0
 28 22  1  0
 41 35  1  0
  1 45  1  0
  1 46  1  0
  1 47  1  0
  2 48  1  0
  3 49  1  6
  4 50  1  0
  4 51  1  0
  4 52  1  0
  7 53  1  0
  9 54  1  0
 10 55  1  0
 15 56  1  0
 18 57  1  0
 18 58  1  0
 18 59  1  0
 20 60  1  0
 23 61  1  0
 25 62  1  0
 25 63  1  0
 25 64  1  0
 26 65  1  0
 27 66  1  0
 33 67  1  0
 34 68  1  0
 37 69  1  0
 38 70  1  0
 42 71  1  0
 42 72  1  0
 42 73  1  0
 43 74  1  0
M  END
$$$$
