
     RDKit          3D

 60 64  0  0  0  0  0  0  0  0999 V2000
   -3.5464    4.2048    2.2386 C   0  0  0  0  0  0  0  0  0  0  0  0
   -4.6461    3.3795    1.6415 C   0  0  2  0  0  0  0  0  0  0  0  0
   -5.4175    2.7682    2.8202 C   0  0  0  0  0  0  0  0  0  0  0  0
   -6.2917    1.7921    2.3987 O   0  0  0  0  0  0  0  0  0  0  0  0
   -6.4913    1.8313    1.0239 C   0  0  0  0  0  0  0  0  0  0  0  0
   -5.2140    1.4152    0.2795 C   0  0  0  0  0  0  0  0  0  0  0  0
   -4.1533    2.2825    0.8252 N   0  0  0  0  0  0  0  0  0  0  0  0
   -2.7872    2.0721    0.5575 C   0  0  0  0  0  0  0  0  0  0  0  0
   -1.8645    2.7341    0.9537 O   0  0  0  0  0  0  0  0  0  0  0  0
   -2.4638    0.8777   -0.3281 C   0  0  2  0  0  0  0  0  0  0  0  0
   -2.7519   -0.4946    0.2620 C   0  0  0  0  0  0  0  0  0  0  0  0
   -1.3891   -0.0671   -0.0871 C   0  0  1  0  0  0  0  0  0  0  0  0
   -0.6449   -0.5330   -1.2894 C   0  0  1  0  0  0  0  0  0  0  0  0
   -0.0826    0.6987   -2.0064 C   0  0  0  0  0  0  0  0  0  0  0  0
    0.4091   -1.5078   -1.0201 C   0  0  0  0  0  0  0  0  0  0  0  0
    1.7734   -1.3162   -1.0561 C   0  0  0  0  0  0  0  0  0  0  0  0
    2.6901   -2.3336   -0.7322 C   0  0  0  0  0  0  0  0  0  0  0  0
    4.0884   -2.0381   -0.6569 C   0  0  0  0  0  0  0  0  0  0  0  0
    5.0739   -2.5767   -0.0535 C   0  0  0  0  0  0  0  0  0  0  0  0
    4.8191   -3.6921    0.7024 F   0  0  0  0  0  0  0  0  0  0  0  0
    6.4313   -2.0634   -0.0694 C   0  0  0  0  0  0  0  0  0  0  0  0
    7.3805   -2.7663    0.7733 C   0  0  0  0  0  0  0  0  0  0  0  0
    8.6097   -2.2623    0.8035 C   0  0  0  0  0  0  0  0  0  0  0  0
    9.1065   -1.1694    0.1492 C   0  0  0  0  0  0  0  0  0  0  0  0
   10.3817   -0.6628    0.3211 C   0  0  0  0  0  0  0  0  0  0  0  0
   11.5392   -0.2256    0.4796 N   0  0  0  0  0  0  0  0  0  0  0  0
    8.1220   -0.5304   -0.6658 C   0  0  0  0  0  0  0  0  0  0  0  0
    6.8670   -0.9956   -0.7343 N   0  0  0  0  0  0  0  0  0  0  0  0
    2.1960   -3.6114   -0.3530 C   0  0  0  0  0  0  0  0  0  0  0  0
    0.8878   -3.7133   -0.3392 N   0  0  0  0  0  0  0  0  0  0  0  0
   -0.0070   -2.8013   -0.6270 C   0  0  0  0  0  0  0  0  0  0  0  0
   -1.3321   -3.0027   -0.5688 F   0  0  0  0  0  0  0  0  0  0  0  0
   -1.5319   -1.1885   -2.3059 N   0  0  0  0  0  0  0  0  0  0  0  0
   -2.5572   -0.6477   -2.7614 C   0  0  0  0  0  0  0  0  0  0  0  0
   -3.4765   -1.1102   -3.6861 N   0  0  0  0  0  0  0  0  0  0  0  0
   -2.9646    1.0230   -2.0643 S   0  0  0  0  0  0  0  0  0  0  0  0
   -2.8389    3.5874    2.8588 H   0  0  0  0  0  0  0  0  0  0  0  0
   -2.9971    4.7685    1.4519 H   0  0  0  0  0  0  0  0  0  0  0  0
   -4.0199    4.9688    2.9032 H   0  0  0  0  0  0  0  0  0  0  0  0
   -5.3247    4.0587    1.0772 H   0  0  0  0  0  0  0  0  0  0  0  0
   -4.6398    2.4025    3.5236 H   0  0  0  0  0  0  0  0  0  0  0  0
   -5.9995    3.5714    3.2949 H   0  0  0  0  0  0  0  0  0  0  0  0
   -7.2329    1.0490    0.7789 H   0  0  0  0  0  0  0  0  0  0  0  0
   -6.8287    2.8037    0.6436 H   0  0  0  0  0  0  0  0  0  0  0  0
   -5.0539    0.3708    0.5206 H   0  0  0  0  0  0  0  0  0  0  0  0
   -5.3780    1.6155   -0.7952 H   0  0  0  0  0  0  0  0  0  0  0  0
   -3.0417   -0.5189    1.3502 H   0  0  0  0  0  0  0  0  0  0  0  0
   -3.3002   -1.2283   -0.3601 H   0  0  0  0  0  0  0  0  0  0  0  0
   -0.7145    0.1256    0.8074 H   0  0  0  0  0  0  0  0  0  0  0  0
    0.9272    0.9094   -1.7608 H   0  0  0  0  0  0  0  0  0  0  0  0
   -0.3056    0.6439   -3.1191 H   0  0  0  0  0  0  0  0  0  0  0  0
   -0.6615    1.6358   -1.6973 H   0  0  0  0  0  0  0  0  0  0  0  0
    2.1767   -0.3815   -1.3357 H   0  0  0  0  0  0  0  0  0  0  0  0
    4.4100   -1.1207   -1.2535 H   0  0  0  0  0  0  0  0  0  0  0  0
    7.0655   -3.6222    1.3128 H   0  0  0  0  0  0  0  0  0  0  0  0
    9.3856   -2.7929    1.4669 H   0  0  0  0  0  0  0  0  0  0  0  0
    8.4495    0.3274   -1.2112 H   0  0  0  0  0  0  0  0  0  0  0  0
    2.9086   -4.3572   -0.1375 H   0  0  0  0  0  0  0  0  0  0  0  0
   -4.4239   -1.3950   -3.2880 H   0  0  0  0  0  0  0  0  0  0  0  0
   -3.3240   -1.1910   -4.6936 H   0  0  0  0  0  0  0  0  0  0  0  0
  1  2  1  0
  2  3  1  0
  3  4  1  0
  4  5  1  0
  5  6  1  0
  6  7  1  0
  7  8  1  0
  8  9  2  0
 10  8  1  1
 10 11  1  0
 11 12  1  0
 12 13  1  0
 13 14  1  6
 13 15  1  0
 15 16  2  0
 16 17  1  0
 17 18  1  0
 18 19  2  0
 19 20  1  0
 19 21  1  0
 21 22  2  0
 22 23  1  0
 23 24  2  0
 24 25  1  0
 25 26  3  0
 24 27  1  0
 27 28  2  0
 17 29  2  0
 29 30  1  0
 30 31  2  0
 31 32  1  0
 13 33  1  0
 33 34  2  0
 34 35  1  0
 34 36  1  0
  7  2  1  0
 12 10  1  0
 31 15  1  0
 36 10  1  0
 28 21  1  0
  1 37  1  0
  1 38  1  0
  1 39  1  0
  2 40  1  6
  3 41  1  0
  3 42  1  0
  5 43  1  0
  5 44  1  0
  6 45  1  0
  6 46  1  0
 11 47  1  0
 11 48  1  0
 12 49  1  1
 14 50  1  0
 14 51  1  0
 14 52  1  0
 16 53  1  0
 18 54  1  0
 22 55  1  0
 23 56  1  0
 27 57  1  0
 29 58  1  0
 35 59  1  0
 35 60  1  0
M  END
$$$$
