
     RDKit          3D

 51 53  0  0  0  0  0  0  0  0999 V2000
    1.0631    0.3413   -2.6178 C   0  0  0  0  0  0  0  0  0  0  0  0
    1.3511   -0.5382   -1.4018 C   0  0  1  0  0  0  0  0  0  0  0  0
    2.6866   -0.1864   -0.9072 C   0  0  0  0  0  0  0  0  0  0  0  0
    3.7066   -1.1241   -1.0164 C   0  0  0  0  0  0  0  0  0  0  0  0
    5.0079   -0.8775   -0.5975 C   0  0  0  0  0  0  0  0  0  0  0  0
    5.3619    0.3285   -0.0427 C   0  0  0  0  0  0  0  0  0  0  0  0
    6.6350    0.6381    0.3941 O   0  0  0  0  0  0  0  0  0  0  0  0
    7.7705   -0.1672    0.3668 C   0  0  0  0  0  0  0  0  0  0  0  0
    8.3773   -0.2515    1.6137 F   0  0  0  0  0  0  0  0  0  0  0  0
    8.7667    0.3795   -0.4619 F   0  0  0  0  0  0  0  0  0  0  0  0
    4.3368    1.2779    0.0694 C   0  0  0  0  0  0  0  0  0  0  0  0
    3.0496    1.0151   -0.3527 C   0  0  0  0  0  0  0  0  0  0  0  0
    0.2799   -0.4793   -0.4529 N   0  0  0  0  0  0  0  0  0  0  0  0
   -0.1080    0.6977    0.2983 C   0  0  0  0  0  0  0  0  0  0  0  0
   -1.4211    0.5304    0.9864 C   0  0  0  0  0  0  0  0  0  0  0  0
   -2.4150   -0.3133    0.2362 C   0  0  2  0  0  0  0  0  0  0  0  0
   -2.7309    0.2320   -1.1094 C   0  0  0  0  0  0  0  0  0  0  0  0
   -3.3365    1.5842   -1.1724 C   0  0  0  0  0  0  0  0  0  0  0  0
   -2.5669    2.5993   -0.6336 O   0  0  0  0  0  0  0  0  0  0  0  0
   -3.6131   -0.5425    1.0665 C   0  0  0  0  0  0  0  0  0  0  0  0
   -3.7166   -0.0052    2.3206 C   0  0  0  0  0  0  0  0  0  0  0  0
   -4.8376   -0.2122    3.1165 C   0  0  0  0  0  0  0  0  0  0  0  0
   -5.8731   -0.9747    2.6393 C   0  0  0  0  0  0  0  0  0  0  0  0
   -7.0005   -1.2049    3.3907 F   0  0  0  0  0  0  0  0  0  0  0  0
   -5.7765   -1.5216    1.3722 C   0  0  0  0  0  0  0  0  0  0  0  0
   -4.6397   -1.3046    0.5803 C   0  0  0  0  0  0  0  0  0  0  0  0
   -1.8698   -1.6310    0.0117 O   0  0  0  0  0  0  0  0  0  0  0  0
   -0.4936   -1.6763   -0.2120 C   0  0  0  0  0  0  0  0  0  0  0  0
    0.1464   -2.7849   -0.2139 O   0  0  0  0  0  0  0  0  0  0  0  0
    0.3259   -0.1944   -3.2512 H   0  0  0  0  0  0  0  0  0  0  0  0
    0.7350    1.3519   -2.3308 H   0  0  0  0  0  0  0  0  0  0  0  0
    2.0155    0.3656   -3.2153 H   0  0  0  0  0  0  0  0  0  0  0  0
    1.4036   -1.5705   -1.8218 H   0  0  0  0  0  0  0  0  0  0  0  0
    3.4934   -2.1079   -1.4503 H   0  0  0  0  0  0  0  0  0  0  0  0
    5.7754   -1.6575   -0.7086 H   0  0  0  0  0  0  0  0  0  0  0  0
    7.5634   -1.1618   -0.0553 H   0  0  0  0  0  0  0  0  0  0  0  0
    4.5881    2.2217    0.4972 H   0  0  0  0  0  0  0  0  0  0  0  0
    2.2761    1.7817   -0.2660 H   0  0  0  0  0  0  0  0  0  0  0  0
   -0.0638    1.6169   -0.3287 H   0  0  0  0  0  0  0  0  0  0  0  0
    0.6460    0.8734    1.1265 H   0  0  0  0  0  0  0  0  0  0  0  0
   -1.2021   -0.0361    1.9372 H   0  0  0  0  0  0  0  0  0  0  0  0
   -1.8724    1.4846    1.2508 H   0  0  0  0  0  0  0  0  0  0  0  0
   -1.7463    0.2962   -1.6610 H   0  0  0  0  0  0  0  0  0  0  0  0
   -3.3012   -0.5318   -1.6792 H   0  0  0  0  0  0  0  0  0  0  0  0
   -3.4245    1.8390   -2.2717 H   0  0  0  0  0  0  0  0  0  0  0  0
   -4.3487    1.6452   -0.7167 H   0  0  0  0  0  0  0  0  0  0  0  0
   -1.9561    3.0120   -1.3125 H   0  0  0  0  0  0  0  0  0  0  0  0
   -2.9283    0.6161    2.7668 H   0  0  0  0  0  0  0  0  0  0  0  0
   -4.9088    0.2124    4.0954 H   0  0  0  0  0  0  0  0  0  0  0  0
   -6.5709   -2.1222    0.9727 H   0  0  0  0  0  0  0  0  0  0  0  0
   -4.6397   -1.7630   -0.3928 H   0  0  0  0  0  0  0  0  0  0  0  0
  1  2  1  0
  2  3  1  0
  3  4  2  0
  4  5  1  0
  5  6  2  0
  6  7  1  0
  7  8  1  0
  8  9  1  0
  8 10  1  0
  6 11  1  0
 11 12  2  0
  2 13  1  0
 13 14  1  0
 14 15  1  0
 15 16  1  0
 16 17  1  6
 17 18  1  0
 18 19  1  0
 16 20  1  0
 20 21  2  0
 21 22  1  0
 22 23  2  0
 23 24  1  0
 23 25  1  0
 25 26  2  0
 16 27  1  0
 27 28  1  0
 28 29  2  0
 12  3  1  0
 28 13  1  0
 26 20  1  0
  1 30  1  0
  1 31  1  0
  1 32  1  0
  2 33  1  6
  4 34  1  0
  5 35  1  0
  8 36  1  0
 11 37  1  0
 12 38  1  0
 14 39  1  0
 14 40  1  0
 15 41  1  0
 15 42  1  0
 17 43  1  0
 17 44  1  0
 18 45  1  0
 18 46  1  0
 19 47  1  0
 21 48  1  0
 22 49  1  0
 25 50  1  0
 26 51  1  0
M  END
$$$$
