
     RDKit          3D

 37 39  0  0  0  0  0  0  0  0999 V2000
   -2.2411   -0.9906   -1.6177 C   0  0  0  0  0  0  0  0  0  0  0  0
   -2.0028   -0.8063   -0.1131 C   0  0  0  0  0  0  0  0  0  0  0  0
   -3.3129   -1.0203    0.5457 C   0  0  0  0  0  0  0  0  0  0  0  0
   -3.6779   -0.0311    1.5263 N   0  0  0  0  0  0  0  0  0  0  0  0
   -3.1321    1.2822    1.2866 C   0  0  0  0  0  0  0  0  0  0  0  0
   -1.6314    1.1139    1.3293 C   0  0  0  0  0  0  0  0  0  0  0  0
   -1.2519    0.3112    0.2421 N   0  0  0  0  0  0  0  0  0  0  0  0
   -0.1761    0.9834   -0.8367 S   0  0  0  0  0  0  0  0  0  0  0  0
   -0.8219    1.0087   -2.2120 O   0  0  0  0  0  0  0  0  0  0  0  0
   -0.0414    2.4644   -0.4765 O   0  0  0  0  0  0  0  0  0  0  0  0
    1.3869    0.2757   -0.9882 C   0  0  0  0  0  0  0  0  0  0  0  0
    2.3703    0.1739   -0.0344 C   0  0  0  0  0  0  0  0  0  0  0  0
    2.1061    0.7229    1.1944 C   0  0  0  0  0  0  0  0  0  0  0  0
    2.9662    0.7247    2.2721 C   0  0  0  0  0  0  0  0  0  0  0  0
    4.1795    0.1254    2.0826 N   0  0  0  0  0  0  0  0  0  0  0  0
    4.4900   -0.4348    0.8781 C   0  0  0  0  0  0  0  0  0  0  0  0
    3.6026   -0.4211   -0.1894 C   0  0  0  0  0  0  0  0  0  0  0  0
    3.8978   -0.9741   -1.4157 C   0  0  0  0  0  0  0  0  0  0  0  0
    2.9876   -0.9312   -2.4501 C   0  0  0  0  0  0  0  0  0  0  0  0
    1.7808   -0.3150   -2.1996 C   0  0  0  0  0  0  0  0  0  0  0  0
   -1.3309   -1.2720   -2.1617 H   0  0  0  0  0  0  0  0  0  0  0  0
   -2.9183   -1.8939   -1.6762 H   0  0  0  0  0  0  0  0  0  0  0  0
   -2.8289   -0.1789   -2.0546 H   0  0  0  0  0  0  0  0  0  0  0  0
   -1.3591   -1.7051    0.1336 H   0  0  0  0  0  0  0  0  0  0  0  0
   -3.3801   -1.9974    1.0893 H   0  0  0  0  0  0  0  0  0  0  0  0
   -4.1764   -1.0590   -0.1643 H   0  0  0  0  0  0  0  0  0  0  0  0
   -4.6899   -0.0187    1.7081 H   0  0  0  0  0  0  0  0  0  0  0  0
   -3.3951    1.6710    0.2994 H   0  0  0  0  0  0  0  0  0  0  0  0
   -3.4194    1.9109    2.1390 H   0  0  0  0  0  0  0  0  0  0  0  0
   -1.2694    0.7765    2.3183 H   0  0  0  0  0  0  0  0  0  0  0  0
   -1.1899    2.1413    1.1728 H   0  0  0  0  0  0  0  0  0  0  0  0
    1.1724    1.2018    1.3625 H   0  0  0  0  0  0  0  0  0  0  0  0
    2.7348    1.1623    3.2266 H   0  0  0  0  0  0  0  0  0  0  0  0
    5.4606   -0.9078    0.7442 H   0  0  0  0  0  0  0  0  0  0  0  0
    4.8542   -1.4484   -1.5722 H   0  0  0  0  0  0  0  0  0  0  0  0
    3.1845   -1.3536   -3.4240 H   0  0  0  0  0  0  0  0  0  0  0  0
    1.0725   -0.2908   -3.0312 H   0  0  0  0  0  0  0  0  0  0  0  0
  1  2  1  0
  2  3  1  0
  3  4  1  0
  4  5  1  0
  5  6  1  0
  6  7  1  0
  7  8  1  0
  8  9  2  0
  8 10  2  0
  8 11  1  0
 11 12  1  0
 12 13  2  0
 13 14  1  0
 14 15  2  0
 15 16  1  0
 16 17  2  0
 17 18  1  0
 18 19  2  0
 19 20  1  0
  7  2  1  0
 20 11  2  0
 17 12  1  0
  1 21  1  0
  1 22  1  0
  1 23  1  0
  2 24  1  0
  3 25  1  0
  3 26  1  0
  4 27  1  0
  5 28  1  0
  5 29  1  0
  6 30  1  0
  6 31  1  0
 13 32  1  0
 14 33  1  0
 16 34  1  0
 18 35  1  0
 19 36  1  0
 20 37  1  0
M  END
$$$$
