
     RDKit          3D

 46 48  0  0  0  0  0  0  0  0999 V2000
   -0.5715   -0.4142    0.4765 O   0  0  0  0  0  0  0  0  0  0  0  0
   -0.2014    0.7356    0.1803 C   0  0  0  0  0  0  0  0  0  0  0  0
   -1.0977    1.6110   -0.4412 N   0  0  0  0  0  0  0  0  0  0  0  0
   -2.4546    1.4537   -0.8161 C   0  0  0  0  0  0  0  0  0  0  0  0
   -3.4157    1.3081    0.2859 C   0  0  0  0  0  0  0  0  0  0  0  0
   -3.3550    0.1930    1.2359 C   0  0  0  0  0  0  0  0  0  0  0  0
   -3.6160   -1.1241    0.5256 C   0  0  0  0  0  0  0  0  0  0  0  0
   -5.0143   -1.1038    0.0981 N   0  0  0  0  0  0  0  0  0  0  0  0
   -5.1875   -0.0378   -0.8741 C   0  0  0  0  0  0  0  0  0  0  0  0
   -4.8603    1.3100   -0.2896 C   0  0  0  0  0  0  0  0  0  0  0  0
    1.1920    1.1033    0.5139 C   0  0  2  0  0  0  0  0  0  0  0  0
    2.0563    1.1449   -0.8356 C   0  0  0  0  0  0  0  0  0  0  0  0
    3.3541    0.4309   -0.6491 C   0  0  0  0  0  0  0  0  0  0  0  0
    3.4155   -0.9416   -0.0914 C   0  0  2  0  0  0  0  0  0  0  0  0
    1.8966   -1.2243    0.2690 C   0  0  0  0  0  0  0  0  0  0  0  0
    1.9275    0.0360    1.0746 N   0  0  0  0  0  0  0  0  0  0  0  0
    2.8708   -0.3061    2.0361 C   0  0  0  0  0  0  0  0  0  0  0  0
    2.8689   -0.0622    3.2542 O   0  0  0  0  0  0  0  0  0  0  0  0
    3.9184   -1.0413    1.2936 N   0  0  0  0  0  0  0  0  0  0  0  0
    4.9656   -1.5883    1.8611 O   0  0  0  0  0  0  0  0  0  0  0  0
    5.9218   -2.3242    0.7304 S   0  0  0  0  0  6  0  0  0  0  0  0
    5.1649   -3.4311    0.0612 O   0  0  0  0  0  0  0  0  0  0  0  0
    7.0911   -2.9601    1.4457 O   0  0  0  0  0  0  0  0  0  0  0  0
    6.4859   -1.2748   -0.4471 O   0  0  0  0  0  0  0  0  0  0  0  0
   -0.6641    2.5827   -0.6716 H   0  0  0  0  0  0  0  0  0  0  0  0
   -2.4770    0.5186   -1.4945 H   0  0  0  0  0  0  0  0  0  0  0  0
   -2.7792    2.2792   -1.5321 H   0  0  0  0  0  0  0  0  0  0  0  0
   -3.4321    2.2634    0.9380 H   0  0  0  0  0  0  0  0  0  0  0  0
   -2.5678    0.1717    1.9831 H   0  0  0  0  0  0  0  0  0  0  0  0
   -4.3182    0.3093    1.8811 H   0  0  0  0  0  0  0  0  0  0  0  0
   -3.0335   -1.2219   -0.4167 H   0  0  0  0  0  0  0  0  0  0  0  0
   -3.4073   -1.9975    1.1453 H   0  0  0  0  0  0  0  0  0  0  0  0
   -5.6634   -0.9634    0.8906 H   0  0  0  0  0  0  0  0  0  0  0  0
   -6.2420   -0.0289   -1.1589 H   0  0  0  0  0  0  0  0  0  0  0  0
   -4.5189   -0.2488   -1.7250 H   0  0  0  0  0  0  0  0  0  0  0  0
   -5.5237    1.5281    0.5694 H   0  0  0  0  0  0  0  0  0  0  0  0
   -4.9011    2.0687   -1.0703 H   0  0  0  0  0  0  0  0  0  0  0  0
    1.3120    2.0576    1.0128 H   0  0  0  0  0  0  0  0  0  0  0  0
    1.4876    0.7137   -1.6345 H   0  0  0  0  0  0  0  0  0  0  0  0
    2.2401    2.2071   -0.9831 H   0  0  0  0  0  0  0  0  0  0  0  0
    3.8478    0.4162   -1.6398 H   0  0  0  0  0  0  0  0  0  0  0  0
    4.0062    1.0950   -0.0102 H   0  0  0  0  0  0  0  0  0  0  0  0
    3.7996   -1.6527   -0.7757 H   0  0  0  0  0  0  0  0  0  0  0  0
    1.8121   -2.1163    0.8470 H   0  0  0  0  0  0  0  0  0  0  0  0
    1.3134   -1.1402   -0.6314 H   0  0  0  0  0  0  0  0  0  0  0  0
    6.3539   -0.3340   -0.2164 H   0  0  0  0  0  0  0  0  0  0  0  0
  1  2  2  0
  2  3  1  0
  3  4  1  0
  4  5  1  0
  5  6  1  0
  6  7  1  0
  7  8  1  0
  8  9  1  0
  9 10  1  0
  2 11  1  0
 11 12  1  0
 12 13  1  0
 13 14  1  0
 14 15  1  0
 15 16  1  0
 16 17  1  0
 17 18  2  0
 17 19  1  0
 19 20  1  0
 20 21  1  0
 21 22  2  0
 21 23  2  0
 21 24  1  0
 10  5  1  0
 16 11  1  0
 19 14  1  0
  3 25  1  0
  4 26  1  0
  4 27  1  0
  5 28  1  0
  6 29  1  0
  6 30  1  0
  7 31  1  0
  7 32  1  0
  8 33  1  0
  9 34  1  0
  9 35  1  0
 10 36  1  0
 10 37  1  0
 11 38  1  1
 12 39  1  0
 12 40  1  0
 13 41  1  0
 13 42  1  0
 14 43  1  6
 15 44  1  0
 15 45  1  0
 24 46  1  0
M  END
$$$$
