
     RDKit          3D

 39 42  0  0  0  0  0  0  0  0999 V2000
    3.7636   -3.2995   -0.3323 C   0  0  0  0  0  0  0  0  0  0  0  0
    3.3516   -1.8992    0.0075 C   0  0  0  0  0  0  0  0  0  0  0  0
    4.1138   -0.9969    0.7511 C   0  0  0  0  0  0  0  0  0  0  0  0
    3.3991    0.1195    0.8248 N   0  0  0  0  0  0  0  0  0  0  0  0
    2.2212   -0.0055    0.1744 C   0  0  0  0  0  0  0  0  0  0  0  0
    1.2262    1.0497    0.0809 C   0  0  0  0  0  0  0  0  0  0  0  0
    1.3088    2.3045    0.6149 N   0  0  0  0  0  0  0  0  0  0  0  0
    0.2193    3.0160    0.3342 C   0  0  0  0  0  0  0  0  0  0  0  0
   -0.1933    4.3032    0.6265 C   0  0  0  0  0  0  0  0  0  0  0  0
   -1.4013    4.8081    0.2039 C   0  0  0  0  0  0  0  0  0  0  0  0
   -2.2147    3.9917   -0.5334 C   0  0  0  0  0  0  0  0  0  0  0  0
   -3.7595    4.5563   -1.1054 Cl  0  0  0  0  0  0  0  0  0  0  0  0
   -1.8125    2.7091   -0.8292 C   0  0  0  0  0  0  0  0  0  0  0  0
   -0.6018    2.1952   -0.4088 C   0  0  0  0  0  0  0  0  0  0  0  0
    0.0277    0.9539   -0.5717 C   0  0  0  0  0  0  0  0  0  0  0  0
   -0.6844   -0.3445   -1.4355 S   0  0  0  0  0  6  0  0  0  0  0  0
   -1.5917    0.2114   -2.5295 O   0  0  0  0  0  0  0  0  0  0  0  0
    0.2868   -1.2316   -2.1429 O   0  0  0  0  0  0  0  0  0  0  0  0
   -1.7027   -1.3717   -0.4527 C   0  0  0  0  0  0  0  0  0  0  0  0
   -1.1357   -2.4613    0.1407 C   0  0  0  0  0  0  0  0  0  0  0  0
   -1.9275   -3.2801    0.9210 C   0  0  0  0  0  0  0  0  0  0  0  0
   -3.2601   -3.0193    1.1076 C   0  0  0  0  0  0  0  0  0  0  0  0
   -3.8338   -1.9301    0.5162 C   0  0  0  0  0  0  0  0  0  0  0  0
   -3.0432   -1.1176   -0.2594 C   0  0  0  0  0  0  0  0  0  0  0  0
    2.2262   -1.2495   -0.3118 N   0  0  0  0  0  0  0  0  0  0  0  0
    4.8158   -3.4389   -0.0870 H   0  0  0  0  0  0  0  0  0  0  0  0
    3.1144   -3.9994    0.2282 H   0  0  0  0  0  0  0  0  0  0  0  0
    3.6195   -3.3878   -1.4367 H   0  0  0  0  0  0  0  0  0  0  0  0
    5.0886   -1.1916    1.1723 H   0  0  0  0  0  0  0  0  0  0  0  0
    3.7507    0.9803    1.3425 H   0  0  0  0  0  0  0  0  0  0  0  0
    2.1335    2.6322    1.1667 H   0  0  0  0  0  0  0  0  0  0  0  0
    0.4801    4.9155    1.2120 H   0  0  0  0  0  0  0  0  0  0  0  0
   -1.7209    5.8241    0.4378 H   0  0  0  0  0  0  0  0  0  0  0  0
   -2.4658    2.0913   -1.4066 H   0  0  0  0  0  0  0  0  0  0  0  0
   -0.0965   -2.7344    0.0411 H   0  0  0  0  0  0  0  0  0  0  0  0
   -1.4820   -4.1417    1.3910 H   0  0  0  0  0  0  0  0  0  0  0  0
   -3.8902   -3.6551    1.7177 H   0  0  0  0  0  0  0  0  0  0  0  0
   -4.8878   -1.6693    0.6263 H   0  0  0  0  0  0  0  0  0  0  0  0
   -3.4416   -0.2370   -0.7554 H   0  0  0  0  0  0  0  0  0  0  0  0
  1  2  1  0
  2  3  2  0
  3  4  1  0
  4  5  1  0
  5  6  1  0
  6  7  1  0
  7  8  1  0
  8  9  2  0
  9 10  1  0
 10 11  2  0
 11 12  1  0
 11 13  1  0
 13 14  2  0
 14 15  1  0
 15 16  1  0
 16 17  2  0
 16 18  2  0
 16 19  1  0
 19 20  2  0
 20 21  1  0
 21 22  2  0
 22 23  1  0
 23 24  2  0
  5 25  2  0
 25  2  1  0
 15  6  2  0
 24 19  1  0
 14  8  1  0
  1 26  1  0
  1 27  1  0
  1 28  1  0
  3 29  1  0
  4 30  1  0
  7 31  1  0
  9 32  1  0
 10 33  1  0
 13 34  1  0
 20 35  1  0
 21 36  1  0
 22 37  1  0
 23 38  1  0
 24 39  1  0
M  END
$$$$
