
     RDKit          3D

 49 53  0  0  0  0  0  0  0  0999 V2000
    6.5816   -1.0351    1.8225 C   0  0  0  0  0  0  0  0  0  0  0  0
    5.8244   -0.3809    0.7332 C   0  0  0  0  0  0  0  0  0  0  0  0
    6.3562    0.7116    0.0936 C   0  0  0  0  0  0  0  0  0  0  0  0
    5.6174    1.3043   -0.9278 C   0  0  0  0  0  0  0  0  0  0  0  0
    4.4138    0.8188   -1.2786 N   0  0  0  0  0  0  0  0  0  0  0  0
    3.5652    1.2158   -2.1950 N   0  0  0  0  0  0  0  0  0  0  0  0
    2.4775    0.4010   -2.1717 C   0  0  0  0  0  0  0  0  0  0  0  0
    2.6972   -0.5353   -1.1800 C   0  0  0  0  0  0  0  0  0  0  0  0
    3.9169   -0.2572   -0.6310 C   0  0  0  0  0  0  0  0  0  0  0  0
    4.6246   -0.8437    0.3645 N   0  0  0  0  0  0  0  0  0  0  0  0
    1.4941   -1.4343   -1.1557 C   0  0  0  0  0  0  0  0  0  0  0  0
    0.4381   -0.6318   -1.7634 N   0  0  0  0  0  0  0  0  0  0  0  0
   -0.1989    0.1912   -0.7746 C   0  0  1  0  0  0  0  0  0  0  0  0
   -1.2932    1.0495   -1.2747 C   0  0  0  0  0  0  0  0  0  0  0  0
   -2.5233    0.4328   -1.3868 O   0  0  0  0  0  0  0  0  0  0  0  0
   -2.9563   -0.2129   -0.2605 C   0  0  2  0  0  0  0  0  0  0  0  0
   -4.3218    0.1307    0.1483 C   0  0  0  0  0  0  0  0  0  0  0  0
   -4.7943    1.4196    0.0361 C   0  0  0  0  0  0  0  0  0  0  0  0
   -6.0845    1.7594    0.4190 C   0  0  0  0  0  0  0  0  0  0  0  0
   -6.5723    3.0181    0.3188 F   0  0  0  0  0  0  0  0  0  0  0  0
   -6.9283    0.7777    0.9306 C   0  0  0  0  0  0  0  0  0  0  0  0
   -6.4699   -0.5146    1.0485 C   0  0  0  0  0  0  0  0  0  0  0  0
   -5.1723   -0.8256    0.6567 C   0  0  0  0  0  0  0  0  0  0  0  0
   -4.7974   -2.1270    0.8062 F   0  0  0  0  0  0  0  0  0  0  0  0
   -1.9589   -0.0679    0.8790 C   0  0  1  0  0  0  0  0  0  0  0  0
   -2.4235   -0.7893    2.0435 N   0  0  0  0  0  0  0  0  0  0  0  0
   -0.6656   -0.6754    0.3751 C   0  0  0  0  0  0  0  0  0  0  0  0
    1.1699    0.0997   -2.7578 C   0  0  0  0  0  0  0  0  0  0  0  0
    7.6587   -1.0591    1.5326 H   0  0  0  0  0  0  0  0  0  0  0  0
    6.4871   -0.4816    2.7645 H   0  0  0  0  0  0  0  0  0  0  0  0
    6.2572   -2.0980    1.9414 H   0  0  0  0  0  0  0  0  0  0  0  0
    7.3258    1.0824    0.3947 H   0  0  0  0  0  0  0  0  0  0  0  0
    6.0508    2.1632   -1.4206 H   0  0  0  0  0  0  0  0  0  0  0  0
    1.2256   -1.7293   -0.1302 H   0  0  0  0  0  0  0  0  0  0  0  0
    1.7445   -2.3168   -1.7580 H   0  0  0  0  0  0  0  0  0  0  0  0
    0.6019    0.8588   -0.3496 H   0  0  0  0  0  0  0  0  0  0  0  0
   -1.4190    1.9387   -0.5884 H   0  0  0  0  0  0  0  0  0  0  0  0
   -1.0734    1.5037   -2.2679 H   0  0  0  0  0  0  0  0  0  0  0  0
   -2.9584   -1.3171   -0.5027 H   0  0  0  0  0  0  0  0  0  0  0  0
   -4.1830    2.2259   -0.3551 H   0  0  0  0  0  0  0  0  0  0  0  0
   -7.9506    1.0372    1.2361 H   0  0  0  0  0  0  0  0  0  0  0  0
   -7.1414   -1.2601    1.4478 H   0  0  0  0  0  0  0  0  0  0  0  0
   -1.7895    0.9778    1.1705 H   0  0  0  0  0  0  0  0  0  0  0  0
   -1.6948   -0.6162    2.7984 H   0  0  0  0  0  0  0  0  0  0  0  0
   -2.3157   -1.8235    1.8254 H   0  0  0  0  0  0  0  0  0  0  0  0
    0.0760   -0.6975    1.1995 H   0  0  0  0  0  0  0  0  0  0  0  0
   -0.9279   -1.7095    0.0317 H   0  0  0  0  0  0  0  0  0  0  0  0
    0.6522    0.9463   -3.1964 H   0  0  0  0  0  0  0  0  0  0  0  0
    1.3570   -0.6246   -3.6053 H   0  0  0  0  0  0  0  0  0  0  0  0
  1  2  1  0
  2  3  1  0
  3  4  2  0
  4  5  1  0
  5  6  1  0
  6  7  2  0
  7  8  1  0
  8  9  2  0
  9 10  1  0
  8 11  1  0
 11 12  1  0
 12 13  1  0
 13 14  1  0
 14 15  1  0
 15 16  1  0
 16 17  1  0
 17 18  2  0
 18 19  1  0
 19 20  1  0
 19 21  2  0
 21 22  1  0
 22 23  2  0
 23 24  1  0
 16 25  1  0
 25 26  1  0
 25 27  1  0
 12 28  1  0
 10  2  2  0
 27 13  1  0
  9  5  1  0
 23 17  1  0
 28  7  1  0
  1 29  1  0
  1 30  1  0
  1 31  1  0
  3 32  1  0
  4 33  1  0
 11 34  1  0
 11 35  1  0
 13 36  1  1
 14 37  1  0
 14 38  1  0
 16 39  1  6
 18 40  1  0
 21 41  1  0
 22 42  1  0
 25 43  1  1
 26 44  1  0
 26 45  1  0
 27 46  1  0
 27 47  1  0
 28 48  1  0
 28 49  1  0
M  END
$$$$
