
     RDKit          3D

 53 58  0  0  0  0  0  0  0  0999 V2000
   -9.8843   -2.1745   -1.1115 C   0  0  0  0  0  0  0  0  0  0  0  0
   -8.6082   -1.5973   -0.5583 C   0  0  0  0  0  0  0  0  0  0  0  0
   -7.3569   -1.8314   -0.9901 N   0  0  0  0  0  0  0  0  0  0  0  0
   -6.4952   -1.1180   -0.2226 C   0  0  0  0  0  0  0  0  0  0  0  0
   -5.1043   -1.0057   -0.2490 C   0  0  0  0  0  0  0  0  0  0  0  0
   -4.4635   -0.1951    0.6628 C   0  0  0  0  0  0  0  0  0  0  0  0
   -3.0421   -0.0543    0.6672 N   0  0  0  0  0  0  0  0  0  0  0  0
   -2.1612   -0.9683    1.0140 N   0  0  0  0  0  0  0  0  0  0  0  0
   -0.9130   -0.4249    0.8741 C   0  0  0  0  0  0  0  0  0  0  0  0
   -1.0089    0.8701    0.4249 C   0  0  0  0  0  0  0  0  0  0  0  0
   -0.0088    1.8770    0.1534 C   0  0  0  0  0  0  0  0  0  0  0  0
   -0.3899    3.0693   -0.0690 O   0  0  0  0  0  0  0  0  0  0  0  0
    1.4163    1.6231    0.1164 C   0  0  0  0  0  0  0  0  0  0  0  0
    2.4107    2.6276    0.2067 C   0  0  0  0  0  0  0  0  0  0  0  0
    3.6497    2.0521    0.0981 C   0  0  0  0  0  0  0  0  0  0  0  0
    4.9289    2.5600    0.1196 C   0  0  0  0  0  0  0  0  0  0  0  0
    5.9776    1.6900   -0.0186 C   0  0  0  0  0  0  0  0  0  0  0  0
    5.8117    0.3361   -0.1775 C   0  0  0  0  0  0  0  0  0  0  0  0
    6.9524   -0.5631   -0.3220 C   0  0  0  0  0  0  0  0  0  0  0  0
    6.9224   -1.7188   -1.0536 C   0  0  0  0  0  0  0  0  0  0  0  0
    8.0201   -2.5435   -1.1672 C   0  0  0  0  0  0  0  0  0  0  0  0
    9.2110   -2.2292   -0.5367 C   0  0  0  0  0  0  0  0  0  0  0  0
    9.2255   -1.0608    0.1971 C   0  0  0  0  0  0  0  0  0  0  0  0
    8.1371   -0.2290    0.3186 C   0  0  0  0  0  0  0  0  0  0  0  0
    4.5363   -0.1680   -0.1987 C   0  0  0  0  0  0  0  0  0  0  0  0
    3.4509    0.7047   -0.0590 C   0  0  0  0  0  0  0  0  0  0  0  0
    2.1054    0.4922   -0.0429 N   0  0  0  0  0  0  0  0  0  0  0  0
   -2.4010    1.0620    0.3075 C   0  0  0  0  0  0  0  0  0  0  0  0
   -2.9736    2.2783   -0.1325 N   0  0  0  0  0  0  0  0  0  0  0  0
   -5.2427    0.4806    1.5770 C   0  0  0  0  0  0  0  0  0  0  0  0
   -6.6171    0.3708    1.6045 C   0  0  0  0  0  0  0  0  0  0  0  0
   -7.2842   -0.4485    0.6851 C   0  0  0  0  0  0  0  0  0  0  0  0
   -8.5693   -0.7433    0.4769 N   0  0  0  0  0  0  0  0  0  0  0  0
  -10.6923   -2.0882   -0.3647 H   0  0  0  0  0  0  0  0  0  0  0  0
   -9.7418   -3.2703   -1.2850 H   0  0  0  0  0  0  0  0  0  0  0  0
  -10.2004   -1.6383   -2.0097 H   0  0  0  0  0  0  0  0  0  0  0  0
   -4.5325   -1.5505   -0.9796 H   0  0  0  0  0  0  0  0  0  0  0  0
   -0.0266   -0.9658    1.1087 H   0  0  0  0  0  0  0  0  0  0  0  0
    2.1669    3.6782    0.3422 H   0  0  0  0  0  0  0  0  0  0  0  0
    5.0582    3.6236    0.2444 H   0  0  0  0  0  0  0  0  0  0  0  0
    6.9759    2.0843   -0.0021 H   0  0  0  0  0  0  0  0  0  0  0  0
    5.9883   -1.9743   -1.5538 H   0  0  0  0  0  0  0  0  0  0  0  0
    7.9683   -3.4609   -1.7583 H   0  0  0  0  0  0  0  0  0  0  0  0
   10.1000   -2.8555   -0.6029 H   0  0  0  0  0  0  0  0  0  0  0  0
   10.1498   -0.7871    0.7050 H   0  0  0  0  0  0  0  0  0  0  0  0
    8.1757    0.6940    0.9082 H   0  0  0  0  0  0  0  0  0  0  0  0
    4.3423   -1.2242   -0.3206 H   0  0  0  0  0  0  0  0  0  0  0  0
    1.7225   -0.4699   -0.1645 H   0  0  0  0  0  0  0  0  0  0  0  0
   -3.5118    2.3922   -1.0165 H   0  0  0  0  0  0  0  0  0  0  0  0
   -2.8531    3.1233    0.4629 H   0  0  0  0  0  0  0  0  0  0  0  0
   -4.7302    1.1191    2.2942 H   0  0  0  0  0  0  0  0  0  0  0  0
   -7.2338    0.9003    2.3216 H   0  0  0  0  0  0  0  0  0  0  0  0
   -9.3569   -0.3502    1.0480 H   0  0  0  0  0  0  0  0  0  0  0  0
  1  2  1  0
  2  3  2  0
  3  4  1  0
  4  5  2  0
  5  6  1  0
  6  7  1  0
  7  8  1  0
  8  9  2  0
  9 10  1  0
 10 11  1  0
 11 12  2  0
 11 13  1  0
 13 14  2  0
 14 15  1  0
 15 16  2  0
 16 17  1  0
 17 18  2  0
 18 19  1  0
 19 20  2  0
 20 21  1  0
 21 22  2  0
 22 23  1  0
 23 24  2  0
 18 25  1  0
 25 26  2  0
 26 27  1  0
 10 28  2  0
 28 29  1  0
  6 30  2  0
 30 31  1  0
 31 32  2  0
 32 33  1  0
 33  2  1  0
 32  4  1  0
 28  7  1  0
 27 13  1  0
 26 15  1  0
 24 19  1  0
  1 34  1  0
  1 35  1  0
  1 36  1  0
  5 37  1  0
  9 38  1  0
 14 39  1  0
 16 40  1  0
 17 41  1  0
 20 42  1  0
 21 43  1  0
 22 44  1  0
 23 45  1  0
 24 46  1  0
 25 47  1  0
 27 48  1  0
 29 49  1  0
 29 50  1  0
 30 51  1  0
 31 52  1  0
 33 53  1  0
M  END
$$$$
