
     RDKit          3D

 72 77  0  0  0  0  0  0  0  0999 V2000
    5.0952    4.9651    0.7173 C   0  0  0  0  0  0  0  0  0  0  0  0
    5.4242    3.6722    0.3017 O   0  0  0  0  0  0  0  0  0  0  0  0
    4.4062    2.7800    0.5260 C   0  0  0  0  0  0  0  0  0  0  0  0
    4.7922    1.3598    0.0623 C   0  0  0  0  0  0  0  0  0  0  0  0
    3.5293    0.4932    0.3956 C   0  0  0  0  0  0  0  0  0  0  0  0
    3.8927   -0.8558   -0.0089 C   0  0  0  0  0  0  0  0  0  0  0  0
    5.1499   -1.1172   -0.5787 C   0  0  0  0  0  0  0  0  0  0  0  0
    5.5740   -2.3945   -0.8327 C   0  0  0  0  0  0  0  0  0  0  0  0
    4.7572   -3.4548   -0.5264 C   0  0  0  0  0  0  0  0  0  0  0  0
    3.5030   -3.1970    0.0397 C   0  0  0  0  0  0  0  0  0  0  0  0
    2.7461   -4.3024    0.3815 C   0  0  0  0  0  0  0  0  0  0  0  0
    1.5459   -4.1262    0.9786 C   0  0  0  0  0  0  0  0  0  0  0  0
    1.1123   -2.8744    1.2226 C   0  0  0  0  0  0  0  0  0  0  0  0
    1.8158   -1.6864    0.9038 C   0  0  0  0  0  0  0  0  0  0  0  0
    1.2239   -0.3836    0.9550 C   0  0  0  0  0  0  0  0  0  0  0  0
    0.0953   -0.2220   -0.0841 N   0  0  0  0  0  0  0  0  0  0  0  0
   -1.2257   -0.3801    0.3467 C   0  0  0  0  0  0  0  0  0  0  0  0
   -1.3042   -0.6337    1.6493 O   0  0  0  0  0  0  0  0  0  0  0  0
   -2.5491   -0.3351   -0.2371 C   0  0  1  0  0  0  0  0  0  0  0  0
   -2.9158   -1.5369   -1.0043 C   0  0  0  0  0  0  0  0  0  0  0  0
   -4.2321   -2.0663   -0.8130 N   0  0  0  0  0  0  0  0  0  0  0  0
   -4.6538   -2.2939    0.5102 C   0  0  0  0  0  0  0  0  0  0  0  0
   -4.2759   -1.1826    1.4235 C   0  0  0  0  0  0  0  0  0  0  0  0
   -3.6308   -0.0072    0.8013 C   0  0  1  0  0  0  0  0  0  0  0  0
   -3.0400    0.7076    1.8726 O   0  0  0  0  0  0  0  0  0  0  0  0
   -2.7568    1.9833    1.3596 C   0  0  0  0  0  0  0  0  0  0  0  0
   -4.0220    2.2269    0.6054 C   0  0  0  0  0  0  0  0  0  0  0  0
   -4.5951    3.4261    0.2795 C   0  0  0  0  0  0  0  0  0  0  0  0
   -5.7964    3.4391   -0.4234 C   0  0  0  0  0  0  0  0  0  0  0  0
   -6.3752    4.6191   -0.7515 F   0  0  0  0  0  0  0  0  0  0  0  0
   -6.3742    2.2379   -0.7723 C   0  0  0  0  0  0  0  0  0  0  0  0
   -7.5535    2.2076   -1.4650 F   0  0  0  0  0  0  0  0  0  0  0  0
   -5.7671    1.0279   -0.4275 C   0  0  0  0  0  0  0  0  0  0  0  0
   -4.5701    1.0017    0.2734 C   0  0  0  0  0  0  0  0  0  0  0  0
    0.4644   -0.0406   -1.4363 C   0  0  0  0  0  0  0  0  0  0  0  0
   -0.3844    0.3165   -2.5818 C   0  0  0  0  0  0  0  0  0  0  0  0
    0.1211   -1.0697   -2.4871 C   0  0  0  0  0  0  0  0  0  0  0  0
    3.0383   -1.9202    0.3069 C   0  0  0  0  0  0  0  0  0  0  0  0
    5.9874    5.6070    0.4961 H   0  0  0  0  0  0  0  0  0  0  0  0
    4.2791    5.3747    0.0620 H   0  0  0  0  0  0  0  0  0  0  0  0
    4.7834    4.9993    1.7670 H   0  0  0  0  0  0  0  0  0  0  0  0
    4.0611    2.7519    1.5833 H   0  0  0  0  0  0  0  0  0  0  0  0
    3.5132    3.1235   -0.0649 H   0  0  0  0  0  0  0  0  0  0  0  0
    5.6354    1.0454    0.6657 H   0  0  0  0  0  0  0  0  0  0  0  0
    4.9305    1.4333   -1.0167 H   0  0  0  0  0  0  0  0  0  0  0  0
    3.6568    0.5964    1.4963 H   0  0  0  0  0  0  0  0  0  0  0  0
    2.8465    1.0850   -0.1440 H   0  0  0  0  0  0  0  0  0  0  0  0
    5.8027   -0.3093   -0.8218 H   0  0  0  0  0  0  0  0  0  0  0  0
    6.5287   -2.6062   -1.2640 H   0  0  0  0  0  0  0  0  0  0  0  0
    5.0759   -4.4571   -0.7152 H   0  0  0  0  0  0  0  0  0  0  0  0
    3.1550   -5.2916    0.1544 H   0  0  0  0  0  0  0  0  0  0  0  0
    0.9314   -4.9720    1.2610 H   0  0  0  0  0  0  0  0  0  0  0  0
    0.1485   -2.7194    1.7134 H   0  0  0  0  0  0  0  0  0  0  0  0
    0.4844   -0.6146    1.8650 H   0  0  0  0  0  0  0  0  0  0  0  0
    1.4623    0.4978    1.4348 H   0  0  0  0  0  0  0  0  0  0  0  0
   -2.5848    0.5846   -0.8946 H   0  0  0  0  0  0  0  0  0  0  0  0
   -2.2154   -2.3858   -0.6873 H   0  0  0  0  0  0  0  0  0  0  0  0
   -2.7651   -1.4751   -2.0902 H   0  0  0  0  0  0  0  0  0  0  0  0
   -4.9090   -1.9488   -1.5544 H   0  0  0  0  0  0  0  0  0  0  0  0
   -4.1823   -3.2298    0.9302 H   0  0  0  0  0  0  0  0  0  0  0  0
   -5.7390   -2.5113    0.5184 H   0  0  0  0  0  0  0  0  0  0  0  0
   -3.6791   -1.5250    2.3170 H   0  0  0  0  0  0  0  0  0  0  0  0
   -5.2371   -0.8113    1.8964 H   0  0  0  0  0  0  0  0  0  0  0  0
   -1.8869    2.0134    0.6939 H   0  0  0  0  0  0  0  0  0  0  0  0
   -2.6384    2.6722    2.2039 H   0  0  0  0  0  0  0  0  0  0  0  0
   -4.1398    4.3686    0.5556 H   0  0  0  0  0  0  0  0  0  0  0  0
   -6.2225    0.0781   -0.7034 H   0  0  0  0  0  0  0  0  0  0  0  0
    1.5935    0.1873   -1.6033 H   0  0  0  0  0  0  0  0  0  0  0  0
   -1.4725    0.3497   -2.6564 H   0  0  0  0  0  0  0  0  0  0  0  0
    0.0787    0.9770   -3.4032 H   0  0  0  0  0  0  0  0  0  0  0  0
   -0.4734   -1.9471   -2.2479 H   0  0  0  0  0  0  0  0  0  0  0  0
    0.9259   -1.3238   -3.2299 H   0  0  0  0  0  0  0  0  0  0  0  0
  1  2  1  0
  2  3  1  0
  3  4  1  0
  4  5  1  0
  5  6  1  0
  6  7  2  0
  7  8  1  0
  8  9  2  0
  9 10  1  0
 10 11  2  0
 11 12  1  0
 12 13  2  0
 13 14  1  0
 14 15  1  0
 15 16  1  0
 16 17  1  0
 17 18  2  0
 17 19  1  0
 19 20  1  0
 20 21  1  0
 21 22  1  0
 22 23  1  0
 23 24  1  0
 24 25  1  1
 25 26  1  0
 26 27  1  0
 27 28  2  0
 28 29  1  0
 29 30  1  0
 29 31  2  0
 31 32  1  0
 31 33  1  0
 33 34  2  0
 16 35  1  0
 35 36  1  0
 36 37  1  0
 14 38  2  0
 38  6  1  0
 38 10  1  0
 24 19  1  0
 34 27  1  0
 37 35  1  0
 34 24  1  0
  1 39  1  0
  1 40  1  0
  1 41  1  0
  3 42  1  0
  3 43  1  0
  4 44  1  0
  4 45  1  0
  5 46  1  0
  5 47  1  0
  7 48  1  0
  8 49  1  0
  9 50  1  0
 11 51  1  0
 12 52  1  0
 13 53  1  0
 15 54  1  0
 15 55  1  0
 19 56  1  6
 20 57  1  0
 20 58  1  0
 21 59  1  0
 22 60  1  0
 22 61  1  0
 23 62  1  0
 23 63  1  0
 26 64  1  0
 26 65  1  0
 28 66  1  0
 33 67  1  0
 35 68  1  0
 36 69  1  0
 36 70  1  0
 37 71  1  0
 37 72  1  0
M  END
$$$$
