
     RDKit          3D

 56 58  0  0  0  0  0  0  0  0999 V2000
    8.1469   -1.6712    0.5060 O   0  0  0  0  0  0  0  0  0  0  0  0
    7.0943   -0.9589    0.3248 C   0  0  0  0  0  0  0  0  0  0  0  0
    7.2395    0.4083    0.4672 O   0  0  0  0  0  0  0  0  0  0  0  0
    5.8559   -1.6743   -0.0110 C   0  0  0  0  0  0  0  0  0  0  0  0
    4.8276   -0.8143   -0.2312 O   0  0  0  0  0  0  0  0  0  0  0  0
    4.9249    0.0603   -1.2705 C   0  0  0  0  0  0  0  0  0  0  0  0
    3.6331    0.8813   -1.2740 C   0  0  1  0  0  0  0  0  0  0  0  0
    2.4200   -0.0365   -1.4572 C   0  0  0  0  0  0  0  0  0  0  0  0
    1.2246    0.7886   -0.9669 C   0  0  0  0  0  0  0  0  0  0  0  0
    1.2064    0.6308    0.5451 C   0  0  2  0  0  0  0  0  0  0  0  0
    0.2449    1.5662    1.1928 C   0  0  0  0  0  0  0  0  0  0  0  0
   -1.0585    1.3622    0.7467 O   0  0  0  0  0  0  0  0  0  0  0  0
   -1.7713    0.2001    0.9039 C   0  0  0  0  0  0  0  0  0  0  0  0
   -1.1502   -0.7446    1.5199 O   0  0  0  0  0  0  0  0  0  0  0  0
   -3.0798   -0.0656    0.4739 N   0  0  0  0  0  0  0  0  0  0  0  0
   -3.6168   -1.3737    0.7588 C   0  0  0  0  0  0  0  0  0  0  0  0
   -3.4660   -2.4174   -0.1256 C   0  0  0  0  0  0  0  0  0  0  0  0
   -3.9775   -3.6598    0.1478 C   0  0  0  0  0  0  0  0  0  0  0  0
   -4.6586   -3.8950    1.3208 C   0  0  0  0  0  0  0  0  0  0  0  0
   -4.8176   -2.8682    2.2112 C   0  0  0  0  0  0  0  0  0  0  0  0
   -4.3040   -1.6269    1.9332 C   0  0  0  0  0  0  0  0  0  0  0  0
   -3.9100    0.8394   -0.2120 C   0  0  0  0  0  0  0  0  0  0  0  0
   -3.5674    2.1178   -0.5647 C   0  0  0  0  0  0  0  0  0  0  0  0
   -4.4386    2.9600   -1.2431 C   0  0  0  0  0  0  0  0  0  0  0  0
   -5.7065    2.5373   -1.5961 C   0  0  0  0  0  0  0  0  0  0  0  0
   -6.8205    3.5743   -2.4482 Cl  0  0  0  0  0  0  0  0  0  0  0  0
   -6.0748    1.2595   -1.2542 C   0  0  0  0  0  0  0  0  0  0  0  0
   -5.2002    0.4388   -0.5826 C   0  0  0  0  0  0  0  0  0  0  0  0
    2.6279    0.8598    1.0192 C   0  0  0  0  0  0  0  0  0  0  0  0
    3.4529    1.6273    0.0094 C   0  0  0  0  0  0  0  0  0  0  0  0
    8.1578    0.8055    0.5526 H   0  0  0  0  0  0  0  0  0  0  0  0
    6.0070   -2.3897   -0.8705 H   0  0  0  0  0  0  0  0  0  0  0  0
    5.5452   -2.3272    0.8627 H   0  0  0  0  0  0  0  0  0  0  0  0
    5.0337   -0.4326   -2.2623 H   0  0  0  0  0  0  0  0  0  0  0  0
    5.7431    0.7899   -1.1786 H   0  0  0  0  0  0  0  0  0  0  0  0
    3.6237    1.5776   -2.1368 H   0  0  0  0  0  0  0  0  0  0  0  0
    2.3015   -0.3747   -2.4855 H   0  0  0  0  0  0  0  0  0  0  0  0
    2.5653   -0.9084   -0.7856 H   0  0  0  0  0  0  0  0  0  0  0  0
    0.3379    0.3390   -1.4409 H   0  0  0  0  0  0  0  0  0  0  0  0
    1.3823    1.8543   -1.2317 H   0  0  0  0  0  0  0  0  0  0  0  0
    0.9839   -0.4285    0.7601 H   0  0  0  0  0  0  0  0  0  0  0  0
    0.2319    1.3706    2.3023 H   0  0  0  0  0  0  0  0  0  0  0  0
    0.5820    2.6189    1.0758 H   0  0  0  0  0  0  0  0  0  0  0  0
   -2.9274   -2.2532   -1.0656 H   0  0  0  0  0  0  0  0  0  0  0  0
   -3.8427   -4.4439   -0.5577 H   0  0  0  0  0  0  0  0  0  0  0  0
   -5.0731   -4.8781    1.5559 H   0  0  0  0  0  0  0  0  0  0  0  0
   -5.3460   -3.0396    3.1275 H   0  0  0  0  0  0  0  0  0  0  0  0
   -4.4215   -0.8051    2.6271 H   0  0  0  0  0  0  0  0  0  0  0  0
   -2.5961    2.5146   -0.3223 H   0  0  0  0  0  0  0  0  0  0  0  0
   -4.1042    3.9412   -1.4847 H   0  0  0  0  0  0  0  0  0  0  0  0
   -7.0621    0.9184   -1.5245 H   0  0  0  0  0  0  0  0  0  0  0  0
   -5.5244   -0.5713   -0.3258 H   0  0  0  0  0  0  0  0  0  0  0  0
    2.5658    1.4867    1.9318 H   0  0  0  0  0  0  0  0  0  0  0  0
    3.1359   -0.0773    1.3246 H   0  0  0  0  0  0  0  0  0  0  0  0
    4.4435    1.7913    0.4653 H   0  0  0  0  0  0  0  0  0  0  0  0
    2.9762    2.6160   -0.1318 H   0  0  0  0  0  0  0  0  0  0  0  0
  1  2  2  0
  2  3  1  0
  2  4  1  0
  4  5  1  0
  5  6  1  0
  6  7  1  0
  7  8  1  0
  8  9  1  0
  9 10  1  0
 10 11  1  0
 11 12  1  0
 12 13  1  0
 13 14  2  0
 13 15  1  0
 15 16  1  0
 16 17  2  0
 17 18  1  0
 18 19  2  0
 19 20  1  0
 20 21  2  0
 15 22  1  0
 22 23  2  0
 23 24  1  0
 24 25  2  0
 25 26  1  0
 25 27  1  0
 27 28  2  0
 10 29  1  0
 29 30  1  0
 30  7  1  0
 21 16  1  0
 28 22  1  0
  3 31  1  0
  4 32  1  0
  4 33  1  0
  6 34  1  0
  6 35  1  0
  7 36  1  6
  8 37  1  0
  8 38  1  0
  9 39  1  0
  9 40  1  0
 10 41  1  6
 11 42  1  0
 11 43  1  0
 17 44  1  0
 18 45  1  0
 19 46  1  0
 20 47  1  0
 21 48  1  0
 23 49  1  0
 24 50  1  0
 27 51  1  0
 28 52  1  0
 29 53  1  0
 29 54  1  0
 30 55  1  0
 30 56  1  0
M  END
$$$$
