
     RDKit          3D

 55 59  0  0  0  0  0  0  0  0999 V2000
   -3.1258   -3.1384    1.2907 N   0  0  0  0  0  0  0  0  0  0  0  0
   -4.1454   -2.1921    1.0466 C   0  0  0  0  0  0  0  0  0  0  0  0
   -5.4650   -2.5961    1.0506 C   0  0  0  0  0  0  0  0  0  0  0  0
   -6.4145   -1.6286    0.8064 C   0  0  0  0  0  0  0  0  0  0  0  0
   -6.1220   -0.3181    0.5656 C   0  0  0  0  0  0  0  0  0  0  0  0
   -7.1708    0.5965    0.3258 C   0  0  0  0  0  0  0  0  0  0  0  0
   -8.5149    0.6087    0.2462 C   0  0  0  0  0  0  0  0  0  0  0  0
   -9.2241    1.7043   -0.0098 C   0  0  0  0  0  0  0  0  0  0  0  0
   -8.5329    2.8919   -0.2034 C   0  0  0  0  0  0  0  0  0  0  0  0
   -6.8170    2.4063   -0.0095 S   0  0  0  0  0  0  0  0  0  0  0  0
   -4.7861    0.0501    0.5695 C   0  0  0  0  0  0  0  0  0  0  0  0
   -3.8172   -0.8911    0.8098 C   0  0  0  0  0  0  0  0  0  0  0  0
   -2.4509   -0.4724    0.8056 N   0  0  0  0  0  0  0  0  0  0  0  0
   -1.7554   -0.5226   -0.4222 C   0  0  0  0  0  0  0  0  0  0  0  0
   -2.3574   -0.9280   -1.4483 O   0  0  0  0  0  0  0  0  0  0  0  0
   -0.3813   -0.1161   -0.4937 C   0  0  0  0  0  0  0  0  0  0  0  0
    0.2772    0.3261    0.6196 C   0  0  0  0  0  0  0  0  0  0  0  0
    1.6175    0.7144    0.5120 C   0  0  0  0  0  0  0  0  0  0  0  0
    2.2640    0.6518   -0.6989 C   0  0  0  0  0  0  0  0  0  0  0  0
    3.6473    1.0471   -0.8317 N   0  0  0  0  0  0  0  0  0  0  0  0
    4.2819    0.9730   -2.1297 C   0  0  0  0  0  0  0  0  0  0  0  0
    5.6639    0.4114   -2.1114 C   0  0  0  0  0  0  0  0  0  0  0  0
    6.0809    0.1465   -0.7012 C   0  0  0  0  0  0  0  0  0  0  0  0
    5.8657    1.4123    0.1011 C   0  0  0  0  0  0  0  0  0  0  0  0
    4.3575    1.5048    0.3321 C   0  0  0  0  0  0  0  0  0  0  0  0
    7.4832   -0.3416   -0.5592 C   0  0  0  0  0  0  0  0  0  0  0  0
    7.4493   -1.0487    0.7073 N   0  0  0  0  0  0  0  0  0  0  0  0
    6.0726   -1.3116    0.9955 C   0  0  0  0  0  0  0  0  0  0  0  0
    5.6035   -1.8126    2.0707 O   0  0  0  0  0  0  0  0  0  0  0  0
    5.3269   -0.9184   -0.1208 O   0  0  0  0  0  0  0  0  0  0  0  0
    1.5678    0.2093   -1.7605 N   0  0  0  0  0  0  0  0  0  0  0  0
    0.2863   -0.1695   -1.6926 C   0  0  0  0  0  0  0  0  0  0  0  0
   -2.7108   -3.6374    0.4692 H   0  0  0  0  0  0  0  0  0  0  0  0
   -2.8400   -3.2901    2.2787 H   0  0  0  0  0  0  0  0  0  0  0  0
   -5.7415   -3.6201    1.2360 H   0  0  0  0  0  0  0  0  0  0  0  0
   -7.4582   -1.9403    0.8080 H   0  0  0  0  0  0  0  0  0  0  0  0
   -9.0428   -0.3911    0.4121 H   0  0  0  0  0  0  0  0  0  0  0  0
  -10.3528    1.6849   -0.0709 H   0  0  0  0  0  0  0  0  0  0  0  0
   -8.9236    3.9275   -0.4294 H   0  0  0  0  0  0  0  0  0  0  0  0
   -4.5645    1.0937    0.3771 H   0  0  0  0  0  0  0  0  0  0  0  0
   -2.0636   -0.1598    1.7073 H   0  0  0  0  0  0  0  0  0  0  0  0
   -0.1561    0.4066    1.6106 H   0  0  0  0  0  0  0  0  0  0  0  0
    2.1505    1.0642    1.3743 H   0  0  0  0  0  0  0  0  0  0  0  0
    3.6631    0.2809   -2.7723 H   0  0  0  0  0  0  0  0  0  0  0  0
    4.2113    1.9576   -2.6350 H   0  0  0  0  0  0  0  0  0  0  0  0
    5.7697   -0.5198   -2.7418 H   0  0  0  0  0  0  0  0  0  0  0  0
    6.3564    1.1683   -2.5307 H   0  0  0  0  0  0  0  0  0  0  0  0
    6.2075    2.2524   -0.5396 H   0  0  0  0  0  0  0  0  0  0  0  0
    6.4276    1.3591    1.0436 H   0  0  0  0  0  0  0  0  0  0  0  0
    4.1383    2.5471    0.6129 H   0  0  0  0  0  0  0  0  0  0  0  0
    4.1719    0.8680    1.2354 H   0  0  0  0  0  0  0  0  0  0  0  0
    8.1818    0.5397   -0.4822 H   0  0  0  0  0  0  0  0  0  0  0  0
    7.7879   -1.0114   -1.3893 H   0  0  0  0  0  0  0  0  0  0  0  0
    8.2769   -1.3071    1.2822 H   0  0  0  0  0  0  0  0  0  0  0  0
   -0.2538   -0.5216   -2.5565 H   0  0  0  0  0  0  0  0  0  0  0  0
  1  2  1  0
  2  3  2  0
  3  4  1  0
  4  5  2  0
  5  6  1  0
  6  7  2  0
  7  8  1  0
  8  9  2  0
  9 10  1  0
  5 11  1  0
 11 12  2  0
 12 13  1  0
 13 14  1  0
 14 15  2  0
 14 16  1  0
 16 17  2  0
 17 18  1  0
 18 19  2  0
 19 20  1  0
 20 21  1  0
 21 22  1  0
 22 23  1  0
 23 24  1  0
 24 25  1  0
 23 26  1  0
 26 27  1  0
 27 28  1  0
 28 29  2  0
 28 30  1  0
 19 31  1  0
 31 32  2  0
 12  2  1  0
 32 16  1  0
 10  6  1  0
 25 20  1  0
 30 23  1  0
  1 33  1  0
  1 34  1  0
  3 35  1  0
  4 36  1  0
  7 37  1  0
  8 38  1  0
  9 39  1  0
 11 40  1  0
 13 41  1  0
 17 42  1  0
 18 43  1  0
 21 44  1  0
 21 45  1  0
 22 46  1  0
 22 47  1  0
 24 48  1  0
 24 49  1  0
 25 50  1  0
 25 51  1  0
 26 52  1  0
 26 53  1  0
 27 54  1  0
 32 55  1  0
M  END
$$$$
