
     RDKit          3D

 55 59  0  0  0  0  0  0  0  0999 V2000
   -2.8465    0.9230    4.5832 C   0  0  0  0  0  0  0  0  0  0  0  0
   -3.1661    0.4955    3.1793 C   0  0  0  0  0  0  0  0  0  0  0  0
   -4.1836   -0.3895    2.9024 C   0  0  0  0  0  0  0  0  0  0  0  0
   -4.4874   -0.7889    1.6093 C   0  0  0  0  0  0  0  0  0  0  0  0
   -3.7546   -0.2918    0.5542 C   0  0  0  0  0  0  0  0  0  0  0  0
   -4.0513   -0.6735   -0.7741 N   0  0  0  0  0  0  0  0  0  0  0  0
   -3.5106   -1.6014   -1.5049 N   0  0  0  0  0  0  0  0  0  0  0  0
   -4.0938   -1.6384   -2.7325 C   0  0  0  0  0  0  0  0  0  0  0  0
   -5.0551   -0.6507   -2.7192 C   0  0  0  0  0  0  0  0  0  0  0  0
   -4.9925   -0.0921   -1.5098 N   0  0  0  0  0  0  0  0  0  0  0  0
   -2.7198    0.6054    0.8163 C   0  0  0  0  0  0  0  0  0  0  0  0
   -1.9924    1.1022   -0.3233 C   0  0  0  0  0  0  0  0  0  0  0  0
   -2.4203    2.1594   -0.8491 O   0  0  0  0  0  0  0  0  0  0  0  0
   -0.8524    0.4688   -0.8615 N   0  0  0  0  0  0  0  0  0  0  0  0
   -0.2512    1.1161   -2.0306 C   0  0  0  0  0  0  0  0  0  0  0  0
    0.3438    0.0666   -2.9419 C   0  0  0  0  0  0  0  0  0  0  0  0
    1.1015   -0.8496   -2.2366 O   0  0  0  0  0  0  0  0  0  0  0  0
    0.2059   -1.6189   -1.4638 C   0  0  0  0  0  0  0  0  0  0  0  0
   -0.3234   -0.7489   -0.3255 C   0  0  1  0  0  0  0  0  0  0  0  0
    0.6189   -0.6664    0.8065 C   0  0  0  0  0  0  0  0  0  0  0  0
    1.8708    0.0871    0.5855 C   0  0  0  0  0  0  0  0  0  0  0  0
    3.0760   -0.5711    0.3050 C   0  0  0  0  0  0  0  0  0  0  0  0
    4.2618    0.0925    0.0945 C   0  0  0  0  0  0  0  0  0  0  0  0
    5.4874   -0.5659   -0.1909 N   0  0  0  0  0  0  0  0  0  0  0  0
    5.6440   -1.8265   -0.5937 N   0  0  0  0  0  0  0  0  0  0  0  0
    6.9472   -2.0917   -0.7628 C   0  0  0  0  0  0  0  0  0  0  0  0
    7.6357   -0.9468   -0.4522 C   0  0  0  0  0  0  0  0  0  0  0  0
    6.6969   -0.0369   -0.1068 N   0  0  0  0  0  0  0  0  0  0  0  0
    4.2350    1.4782    0.1692 C   0  0  0  0  0  0  0  0  0  0  0  0
    3.0519    2.1311    0.4448 C   0  0  0  0  0  0  0  0  0  0  0  0
    1.8545    1.4585    0.6574 C   0  0  0  0  0  0  0  0  0  0  0  0
    0.7138    2.1494    0.9321 F   0  0  0  0  0  0  0  0  0  0  0  0
   -2.4354    0.9905    2.1232 C   0  0  0  0  0  0  0  0  0  0  0  0
   -1.9267    0.4208    4.9283 H   0  0  0  0  0  0  0  0  0  0  0  0
   -2.7588    2.0304    4.5770 H   0  0  0  0  0  0  0  0  0  0  0  0
   -3.6715    0.6613    5.2706 H   0  0  0  0  0  0  0  0  0  0  0  0
   -4.7468   -0.7693    3.7271 H   0  0  0  0  0  0  0  0  0  0  0  0
   -5.2964   -1.4864    1.4466 H   0  0  0  0  0  0  0  0  0  0  0  0
   -3.8279   -2.3201   -3.5300 H   0  0  0  0  0  0  0  0  0  0  0  0
   -5.7227   -0.3931   -3.5413 H   0  0  0  0  0  0  0  0  0  0  0  0
    0.4987    1.8681   -1.7989 H   0  0  0  0  0  0  0  0  0  0  0  0
   -1.0698    1.6270   -2.6174 H   0  0  0  0  0  0  0  0  0  0  0  0
    0.9130    0.6034   -3.7306 H   0  0  0  0  0  0  0  0  0  0  0  0
   -0.5247   -0.4426   -3.4242 H   0  0  0  0  0  0  0  0  0  0  0  0
    0.6886   -2.5194   -1.0507 H   0  0  0  0  0  0  0  0  0  0  0  0
   -0.6761   -1.9015   -2.0730 H   0  0  0  0  0  0  0  0  0  0  0  0
   -1.2256   -1.3239    0.0553 H   0  0  0  0  0  0  0  0  0  0  0  0
    0.9355   -1.6919    1.1738 H   0  0  0  0  0  0  0  0  0  0  0  0
    0.0807   -0.2230    1.6967 H   0  0  0  0  0  0  0  0  0  0  0  0
    3.0690   -1.6428    0.2515 H   0  0  0  0  0  0  0  0  0  0  0  0
    7.3972   -3.0169   -1.0806 H   0  0  0  0  0  0  0  0  0  0  0  0
    8.7210   -0.8011   -0.4783 H   0  0  0  0  0  0  0  0  0  0  0  0
    5.1631    2.0104    0.0057 H   0  0  0  0  0  0  0  0  0  0  0  0
    2.9967    3.2030    0.5097 H   0  0  0  0  0  0  0  0  0  0  0  0
   -1.6250    1.6902    2.2988 H   0  0  0  0  0  0  0  0  0  0  0  0
  1  2  1  0
  2  3  2  0
  3  4  1  0
  4  5  2  0
  5  6  1  0
  6  7  1  0
  7  8  2  0
  8  9  1  0
  9 10  2  0
  5 11  1  0
 11 12  1  0
 12 13  2  0
 12 14  1  0
 14 15  1  0
 15 16  1  0
 16 17  1  0
 17 18  1  0
 18 19  1  0
 19 20  1  0
 20 21  1  0
 21 22  2  0
 22 23  1  0
 23 24  1  0
 24 25  1  0
 25 26  2  0
 26 27  1  0
 27 28  2  0
 23 29  2  0
 29 30  1  0
 30 31  2  0
 31 32  1  0
 11 33  2  0
 33  2  1  0
 10  6  1  0
 19 14  1  0
 31 21  1  0
 28 24  1  0
  1 34  1  0
  1 35  1  0
  1 36  1  0
  3 37  1  0
  4 38  1  0
  8 39  1  0
  9 40  1  0
 15 41  1  0
 15 42  1  0
 16 43  1  0
 16 44  1  0
 18 45  1  0
 18 46  1  0
 19 47  1  1
 20 48  1  0
 20 49  1  0
 22 50  1  0
 26 51  1  0
 27 52  1  0
 29 53  1  0
 30 54  1  0
 33 55  1  0
M  END
$$$$
