
     RDKit          3D

 39 40  0  0  0  0  0  0  0  0999 V2000
    6.3822    0.1173   -0.6308 C   0  0  0  0  0  0  0  0  0  0  0  0
    5.5044   -0.9848   -0.5912 O   0  0  0  0  0  0  0  0  0  0  0  0
    4.2011   -0.8430   -0.1649 C   0  0  0  0  0  0  0  0  0  0  0  0
    3.7575    0.3861    0.2242 C   0  0  0  0  0  0  0  0  0  0  0  0
    2.4431    0.5525    0.6590 C   0  0  0  0  0  0  0  0  0  0  0  0
    1.5488   -0.4992    0.7141 C   0  0  0  0  0  0  0  0  0  0  0  0
   -0.0864   -0.2640    1.2610 S   0  0  0  0  0  6  0  0  0  0  0  0
   -0.0691    0.8852    2.2574 O   0  0  0  0  0  0  0  0  0  0  0  0
   -0.5211   -1.4719    2.0057 O   0  0  0  0  0  0  0  0  0  0  0  0
   -1.1140    0.1205    0.0029 N   0  0  0  0  0  0  0  0  0  0  0  0
   -0.8957    1.2791   -0.7297 C   0  0  0  0  0  0  0  0  0  0  0  0
   -2.1046    2.1807   -0.9118 C   0  0  0  0  0  0  0  0  0  0  0  0
   -3.2701    1.2200   -1.8865 S   0  0  0  0  0  6  0  0  0  0  0  0
   -3.0991    1.5423   -3.3338 O   0  0  0  0  0  0  0  0  0  0  0  0
   -4.6747    1.5159   -1.4915 O   0  0  0  0  0  0  0  0  0  0  0  0
   -2.8305   -0.4823   -1.6001 C   0  0  0  0  0  0  0  0  0  0  0  0
   -2.2468   -0.6616   -0.2058 C   0  0  0  0  0  0  0  0  0  0  0  0
   -3.3160   -0.4955    0.8130 C   0  0  0  0  0  0  0  0  0  0  0  0
   -3.1508    0.3051    1.7667 O   0  0  0  0  0  0  0  0  0  0  0  0
   -4.5439   -1.2058    0.7713 N   0  0  0  0  0  0  0  0  0  0  0  0
   -5.5037   -1.0289    1.7233 O   0  0  0  0  0  0  0  0  0  0  0  0
    2.0226   -1.7324    0.3150 C   0  0  0  0  0  0  0  0  0  0  0  0
    3.3293   -1.9095   -0.1196 C   0  0  0  0  0  0  0  0  0  0  0  0
    6.3264    0.6032    0.3682 H   0  0  0  0  0  0  0  0  0  0  0  0
    6.0409    0.7868   -1.4383 H   0  0  0  0  0  0  0  0  0  0  0  0
    7.4208   -0.1613   -0.8278 H   0  0  0  0  0  0  0  0  0  0  0  0
    4.4073    1.2748    0.2098 H   0  0  0  0  0  0  0  0  0  0  0  0
    2.0702    1.5232    0.9731 H   0  0  0  0  0  0  0  0  0  0  0  0
   -0.5711    1.0077   -1.7755 H   0  0  0  0  0  0  0  0  0  0  0  0
   -0.0851    1.8811   -0.2874 H   0  0  0  0  0  0  0  0  0  0  0  0
   -1.7590    3.0706   -1.4931 H   0  0  0  0  0  0  0  0  0  0  0  0
   -2.5404    2.5175    0.0320 H   0  0  0  0  0  0  0  0  0  0  0  0
   -2.0285   -0.7548   -2.3192 H   0  0  0  0  0  0  0  0  0  0  0  0
   -3.7060   -1.1279   -1.7631 H   0  0  0  0  0  0  0  0  0  0  0  0
   -1.9503   -1.7482   -0.1542 H   0  0  0  0  0  0  0  0  0  0  0  0
   -4.6721   -1.8706   -0.0273 H   0  0  0  0  0  0  0  0  0  0  0  0
   -5.7725   -0.0793    1.7175 H   0  0  0  0  0  0  0  0  0  0  0  0
    1.3687   -2.5876    0.3376 H   0  0  0  0  0  0  0  0  0  0  0  0
    3.6882   -2.8606   -0.4255 H   0  0  0  0  0  0  0  0  0  0  0  0
  1  2  1  0
  2  3  1  0
  3  4  2  0
  4  5  1  0
  5  6  2  0
  6  7  1  0
  7  8  2  0
  7  9  2  0
  7 10  1  0
 10 11  1  0
 11 12  1  0
 12 13  1  0
 13 14  2  0
 13 15  2  0
 13 16  1  0
 16 17  1  0
 17 18  1  0
 18 19  2  0
 18 20  1  0
 20 21  1  0
  6 22  1  0
 22 23  2  0
 23  3  1  0
 17 10  1  0
  1 24  1  0
  1 25  1  0
  1 26  1  0
  4 27  1  0
  5 28  1  0
 11 29  1  0
 11 30  1  0
 12 31  1  0
 12 32  1  0
 16 33  1  0
 16 34  1  0
 17 35  1  0
 20 36  1  0
 21 37  1  0
 22 38  1  0
 23 39  1  0
M  END
$$$$
