
     RDKit          3D

 52 55  0  0  0  0  0  0  0  0999 V2000
    4.7545    0.9984    2.2191 C   0  0  0  0  0  0  0  0  0  0  0  0
    4.3488    0.0943    1.0536 C   0  0  1  0  0  0  0  0  0  0  0  0
    3.0338    0.1640    0.7564 O   0  0  0  0  0  0  0  0  0  0  0  0
    2.0097   -0.7311    0.7709 C   0  0  0  0  0  0  0  0  0  0  0  0
    0.7137   -0.3156    0.3873 C   0  0  0  0  0  0  0  0  0  0  0  0
   -0.3724   -1.1396    0.3705 C   0  0  0  0  0  0  0  0  0  0  0  0
   -1.7063   -0.6964   -0.0277 C   0  0  0  0  0  0  0  0  0  0  0  0
   -1.9402    0.2858   -0.9747 C   0  0  0  0  0  0  0  0  0  0  0  0
   -3.2676    0.4407   -1.0912 N   0  0  0  0  0  0  0  0  0  0  0  0
   -3.8783   -0.3897   -0.2698 N   0  0  0  0  0  0  0  0  0  0  0  0
   -5.3136   -0.5552   -0.0720 C   0  0  0  0  0  0  0  0  0  0  0  0
   -5.7813    0.6224    0.7604 C   0  0  0  0  0  0  0  0  0  0  0  0
   -5.4113    1.8861    0.0143 C   0  0  0  0  0  0  0  0  0  0  0  0
   -5.6445    1.7246   -1.4014 N   0  0  0  0  0  0  0  0  0  0  0  0
   -6.6627    0.7139   -1.6497 C   0  0  0  0  0  0  0  0  0  0  0  0
   -6.0097   -0.6231   -1.4018 C   0  0  0  0  0  0  0  0  0  0  0  0
   -2.9365   -1.1017    0.3970 C   0  0  0  0  0  0  0  0  0  0  0  0
   -0.2156   -2.4618    0.7473 C   0  0  0  0  0  0  0  0  0  0  0  0
    1.0010   -2.8863    1.1164 N   0  0  0  0  0  0  0  0  0  0  0  0
    2.0866   -2.0553    1.1314 C   0  0  0  0  0  0  0  0  0  0  0  0
    3.2888   -2.6726    1.5480 N   0  0  0  0  0  0  0  0  0  0  0  0
    5.1790    0.4223   -0.1508 C   0  0  0  0  0  0  0  0  0  0  0  0
    6.3872   -0.2003   -0.4015 C   0  0  0  0  0  0  0  0  0  0  0  0
    6.9544   -1.4181    0.7408 Cl  0  0  0  0  0  0  0  0  0  0  0  0
    7.1464    0.1146   -1.5204 C   0  0  0  0  0  0  0  0  0  0  0  0
    6.7181    1.0640   -2.4236 C   0  0  0  0  0  0  0  0  0  0  0  0
    5.5120    1.6814   -2.1679 C   0  0  0  0  0  0  0  0  0  0  0  0
    5.0427    2.6324   -3.0368 F   0  0  0  0  0  0  0  0  0  0  0  0
    4.7516    1.3705   -1.0533 C   0  0  0  0  0  0  0  0  0  0  0  0
    3.2130    2.1595   -0.7285 Cl  0  0  0  0  0  0  0  0  0  0  0  0
    4.6146    0.4429    3.1783 H   0  0  0  0  0  0  0  0  0  0  0  0
    5.8141    1.2399    2.1469 H   0  0  0  0  0  0  0  0  0  0  0  0
    4.0801    1.8620    2.2578 H   0  0  0  0  0  0  0  0  0  0  0  0
    4.6694   -0.9133    1.3600 H   0  0  0  0  0  0  0  0  0  0  0  0
    0.5871    0.7167    0.0918 H   0  0  0  0  0  0  0  0  0  0  0  0
   -1.1650    0.8209   -1.5133 H   0  0  0  0  0  0  0  0  0  0  0  0
   -5.5146   -1.5169    0.4607 H   0  0  0  0  0  0  0  0  0  0  0  0
   -6.8667    0.5653    0.9915 H   0  0  0  0  0  0  0  0  0  0  0  0
   -5.1807    0.5916    1.7019 H   0  0  0  0  0  0  0  0  0  0  0  0
   -4.3412    2.1225    0.1974 H   0  0  0  0  0  0  0  0  0  0  0  0
   -6.0735    2.7271    0.3425 H   0  0  0  0  0  0  0  0  0  0  0  0
   -5.8781    2.6317   -1.8602 H   0  0  0  0  0  0  0  0  0  0  0  0
   -7.0079    0.8015   -2.6818 H   0  0  0  0  0  0  0  0  0  0  0  0
   -7.4936    0.8731   -0.9335 H   0  0  0  0  0  0  0  0  0  0  0  0
   -5.2400   -0.7657   -2.1867 H   0  0  0  0  0  0  0  0  0  0  0  0
   -6.7280   -1.4640   -1.4743 H   0  0  0  0  0  0  0  0  0  0  0  0
   -3.0862   -1.8730    1.1494 H   0  0  0  0  0  0  0  0  0  0  0  0
   -1.0716   -3.1277    0.7380 H   0  0  0  0  0  0  0  0  0  0  0  0
    3.6057   -2.7045    2.5456 H   0  0  0  0  0  0  0  0  0  0  0  0
    3.8970   -3.1205    0.8406 H   0  0  0  0  0  0  0  0  0  0  0  0
    8.0908   -0.3751   -1.7105 H   0  0  0  0  0  0  0  0  0  0  0  0
    7.2870    1.3373   -3.3114 H   0  0  0  0  0  0  0  0  0  0  0  0
  1  2  1  0
  2  3  1  0
  3  4  1  0
  4  5  2  0
  5  6  1  0
  6  7  1  0
  7  8  1  0
  8  9  2  0
  9 10  1  0
 10 11  1  0
 11 12  1  0
 12 13  1  0
 13 14  1  0
 14 15  1  0
 15 16  1  0
 10 17  1  0
  6 18  2  0
 18 19  1  0
 19 20  2  0
 20 21  1  0
  2 22  1  0
 22 23  2  0
 23 24  1  0
 23 25  1  0
 25 26  2  0
 26 27  1  0
 27 28  1  0
 27 29  2  0
 29 30  1  0
 20  4  1  0
 29 22  1  0
 17  7  2  0
 16 11  1  0
  1 31  1  0
  1 32  1  0
  1 33  1  0
  2 34  1  1
  5 35  1  0
  8 36  1  0
 11 37  1  0
 12 38  1  0
 12 39  1  0
 13 40  1  0
 13 41  1  0
 14 42  1  0
 15 43  1  0
 15 44  1  0
 16 45  1  0
 16 46  1  0
 17 47  1  0
 18 48  1  0
 21 49  1  0
 21 50  1  0
 25 51  1  0
 26 52  1  0
M  END
$$$$
