
     RDKit          3D

 49 51  0  0  0  0  0  0  0  0999 V2000
   -5.3258    0.7315    1.7511 C   0  0  0  0  0  0  0  0  0  0  0  0
   -4.6902    0.6156    0.4049 C   0  0  0  0  0  0  0  0  0  0  0  0
   -4.4411   -0.8246   -0.0135 C   0  0  0  0  0  0  0  0  0  0  0  0
   -5.7399   -1.6004   -0.0713 C   0  0  0  0  0  0  0  0  0  0  0  0
   -3.8124   -0.7778   -1.3128 N   0  0  0  0  0  0  0  0  0  0  0  0
   -2.5842   -0.1586   -1.6509 C   0  0  0  0  0  0  0  0  0  0  0  0
   -2.3689    0.1192   -2.8652 O   0  0  0  0  0  0  0  0  0  0  0  0
   -1.4563    0.2368   -0.7802 C   0  0  0  0  0  0  0  0  0  0  0  0
   -0.5408    1.0335   -1.4310 C   0  0  0  0  0  0  0  0  0  0  0  0
    0.5639    1.4781   -0.7426 C   0  0  0  0  0  0  0  0  0  0  0  0
    1.7228    2.4891   -1.5732 S   0  0  0  0  0  6  0  0  0  0  0  0
    1.0152    3.2404   -2.6570 O   0  0  0  0  0  0  0  0  0  0  0  0
    2.3529    3.4665   -0.6222 O   0  0  0  0  0  0  0  0  0  0  0  0
    2.8926    1.4515   -2.2864 N   0  0  0  0  0  0  0  0  0  0  0  0
    3.7063    0.5990   -1.4927 C   0  0  0  0  0  0  0  0  0  0  0  0
    4.3021    1.0824   -0.3535 C   0  0  0  0  0  0  0  0  0  0  0  0
    5.1064    0.2847    0.4530 C   0  0  0  0  0  0  0  0  0  0  0  0
    5.3371   -1.0363    0.1334 C   0  0  0  0  0  0  0  0  0  0  0  0
    6.1454   -1.8491    0.9383 O   0  0  0  0  0  0  0  0  0  0  0  0
    6.7320   -1.3170    2.0884 C   0  0  0  0  0  0  0  0  0  0  0  0
    4.7403   -1.5244   -1.0098 C   0  0  0  0  0  0  0  0  0  0  0  0
    3.9419   -0.7291   -1.8086 C   0  0  0  0  0  0  0  0  0  0  0  0
    0.7112    1.1076    0.5746 C   0  0  0  0  0  0  0  0  0  0  0  0
   -0.2190    0.2998    1.2311 C   0  0  0  0  0  0  0  0  0  0  0  0
   -1.3261   -0.1491    0.5510 C   0  0  0  0  0  0  0  0  0  0  0  0
   -2.2122   -0.9686    1.3196 N   0  0  0  0  0  0  0  0  0  0  0  0
   -3.5071   -1.4007    0.9698 C   0  0  0  0  0  0  0  0  0  0  0  0
   -3.9174   -2.4098    1.5772 O   0  0  0  0  0  0  0  0  0  0  0  0
   -5.7872   -0.2308    2.0454 H   0  0  0  0  0  0  0  0  0  0  0  0
   -4.5432    0.9510    2.4973 H   0  0  0  0  0  0  0  0  0  0  0  0
   -6.0406    1.5822    1.7708 H   0  0  0  0  0  0  0  0  0  0  0  0
   -3.7543    1.2052    0.3999 H   0  0  0  0  0  0  0  0  0  0  0  0
   -5.3730    1.1157   -0.3370 H   0  0  0  0  0  0  0  0  0  0  0  0
   -5.5506   -2.4902   -0.7014 H   0  0  0  0  0  0  0  0  0  0  0  0
   -6.4873   -0.9619   -0.5587 H   0  0  0  0  0  0  0  0  0  0  0  0
   -5.9950   -1.9324    0.9353 H   0  0  0  0  0  0  0  0  0  0  0  0
   -4.3148   -1.2478   -2.0837 H   0  0  0  0  0  0  0  0  0  0  0  0
   -0.7359    1.2726   -2.4580 H   0  0  0  0  0  0  0  0  0  0  0  0
    2.9976    1.4569   -3.3198 H   0  0  0  0  0  0  0  0  0  0  0  0
    4.1598    2.1024   -0.0533 H   0  0  0  0  0  0  0  0  0  0  0  0
    5.5686    0.6939    1.3542 H   0  0  0  0  0  0  0  0  0  0  0  0
    7.2536   -0.3638    1.8432 H   0  0  0  0  0  0  0  0  0  0  0  0
    5.9359   -1.1649    2.8611 H   0  0  0  0  0  0  0  0  0  0  0  0
    7.4690   -2.0634    2.4983 H   0  0  0  0  0  0  0  0  0  0  0  0
    4.9086   -2.5559   -1.2772 H   0  0  0  0  0  0  0  0  0  0  0  0
    3.4606   -1.0965   -2.7174 H   0  0  0  0  0  0  0  0  0  0  0  0
    1.5977    1.4676    1.1179 H   0  0  0  0  0  0  0  0  0  0  0  0
   -0.0940    0.0210    2.2475 H   0  0  0  0  0  0  0  0  0  0  0  0
   -1.8041   -1.2514    2.2360 H   0  0  0  0  0  0  0  0  0  0  0  0
  1  2  1  0
  2  3  1  0
  3  4  1  0
  3  5  1  0
  5  6  1  0
  6  7  2  0
  6  8  1  0
  8  9  2  0
  9 10  1  0
 10 11  1  0
 11 12  2  0
 11 13  2  0
 11 14  1  0
 14 15  1  0
 15 16  2  0
 16 17  1  0
 17 18  2  0
 18 19  1  0
 19 20  1  0
 18 21  1  0
 21 22  2  0
 10 23  2  0
 23 24  1  0
 24 25  2  0
 25 26  1  0
 26 27  1  0
 27 28  2  0
 27  3  1  0
 25  8  1  0
 22 15  1  0
  1 29  1  0
  1 30  1  0
  1 31  1  0
  2 32  1  0
  2 33  1  0
  4 34  1  0
  4 35  1  0
  4 36  1  0
  5 37  1  0
  9 38  1  0
 14 39  1  0
 16 40  1  0
 17 41  1  0
 20 42  1  0
 20 43  1  0
 20 44  1  0
 21 45  1  0
 22 46  1  0
 23 47  1  0
 24 48  1  0
 26 49  1  0
M  END
$$$$
