
     RDKit          3D

 55 58  0  0  0  0  0  0  0  0999 V2000
   -6.6479   -0.8302   -0.2218 C   0  0  1  0  0  0  0  0  0  0  0  0
   -7.0244   -0.8442    1.2590 C   0  0  0  0  0  0  0  0  0  0  0  0
   -7.9357   -0.9077   -1.0051 C   0  0  0  0  0  0  0  0  0  0  0  0
   -8.6673    0.3462   -0.9015 N   0  0  0  0  0  0  0  0  0  0  0  0
   -7.9797    1.5586   -1.1817 C   0  0  0  0  0  0  0  0  0  0  0  0
   -8.6027    2.5551   -1.5930 O   0  0  0  0  0  0  0  0  0  0  0  0
   -6.5371    1.5935   -0.9730 C   0  0  0  0  0  0  0  0  0  0  0  0
   -5.9418    0.4365   -0.5149 C   0  0  0  0  0  0  0  0  0  0  0  0
   -4.5938    0.7644   -0.4122 C   0  0  0  0  0  0  0  0  0  0  0  0
   -3.4718    0.0437   -0.0116 C   0  0  0  0  0  0  0  0  0  0  0  0
   -2.2173    0.6113    0.0007 C   0  0  0  0  0  0  0  0  0  0  0  0
   -2.0740    1.9231   -0.3933 C   0  0  0  0  0  0  0  0  0  0  0  0
   -3.1685    2.6841   -0.8025 C   0  0  0  0  0  0  0  0  0  0  0  0
   -4.4175    2.0767   -0.8014 C   0  0  0  0  0  0  0  0  0  0  0  0
   -5.6123    2.5599   -1.1378 N   0  0  0  0  0  0  0  0  0  0  0  0
   -1.1092   -0.2243    0.4369 C   0  0  0  0  0  0  0  0  0  0  0  0
   -1.3557   -1.4079    0.7762 O   0  0  0  0  0  0  0  0  0  0  0  0
    0.1950    0.2815    0.4759 N   0  0  0  0  0  0  0  0  0  0  0  0
    1.2583   -0.5791    0.9133 C   0  0  0  0  0  0  0  0  0  0  0  0
    2.6558   -0.2090    1.0101 N   0  0  0  0  0  0  0  0  0  0  0  0
    3.3231   -1.2727    1.4524 C   0  0  0  0  0  0  0  0  0  0  0  0
    2.8816   -2.5956    1.8070 C   0  0  0  0  0  0  0  0  0  0  0  0
    1.0529   -2.2689    1.4213 S   0  0  0  0  0  0  0  0  0  0  0  0
    4.7695   -1.0242    1.5959 C   0  0  0  0  0  0  0  0  0  0  0  0
    5.6012   -1.9010    2.0090 O   0  0  0  0  0  0  0  0  0  0  0  0
    5.4955    0.1612    1.3242 N   0  0  0  0  0  0  0  0  0  0  0  0
    6.9171    0.3219    1.4922 C   0  0  0  0  0  0  0  0  0  0  0  0
    7.7576   -0.5982    0.6745 C   0  0  0  0  0  0  0  0  0  0  0  0
    7.5473   -0.4589   -0.7462 N   0  0  0  0  0  0  0  0  0  0  0  0
    8.0235    0.8117   -1.2518 C   0  0  0  0  0  0  0  0  0  0  0  0
    8.0763   -1.5845   -1.4894 C   0  0  0  0  0  0  0  0  0  0  0  0
   -6.0502   -1.7267   -0.4896 H   0  0  0  0  0  0  0  0  0  0  0  0
   -7.7623   -1.6542    1.3887 H   0  0  0  0  0  0  0  0  0  0  0  0
   -7.5387    0.1093    1.4700 H   0  0  0  0  0  0  0  0  0  0  0  0
   -6.1287   -0.9516    1.9062 H   0  0  0  0  0  0  0  0  0  0  0  0
   -7.7295   -1.0942   -2.0926 H   0  0  0  0  0  0  0  0  0  0  0  0
   -8.5454   -1.7602   -0.6424 H   0  0  0  0  0  0  0  0  0  0  0  0
   -9.6806    0.3608   -0.6265 H   0  0  0  0  0  0  0  0  0  0  0  0
   -3.6627   -0.9751    0.2824 H   0  0  0  0  0  0  0  0  0  0  0  0
   -1.0963    2.3806   -0.3884 H   0  0  0  0  0  0  0  0  0  0  0  0
   -3.0652    3.7253   -1.1170 H   0  0  0  0  0  0  0  0  0  0  0  0
   -5.8504    3.5253   -1.4802 H   0  0  0  0  0  0  0  0  0  0  0  0
    0.4697    1.2296    0.2161 H   0  0  0  0  0  0  0  0  0  0  0  0
    3.3772   -3.3854    2.1356 H   0  0  0  0  0  0  0  0  0  0  0  0
    4.9004    0.9720    0.9695 H   0  0  0  0  0  0  0  0  0  0  0  0
    7.1800    1.3781    1.3144 H   0  0  0  0  0  0  0  0  0  0  0  0
    7.2174    0.1409    2.5670 H   0  0  0  0  0  0  0  0  0  0  0  0
    8.8434   -0.3412    0.8528 H   0  0  0  0  0  0  0  0  0  0  0  0
    7.6602   -1.6501    0.9685 H   0  0  0  0  0  0  0  0  0  0  0  0
    7.2534    1.4081   -1.7699 H   0  0  0  0  0  0  0  0  0  0  0  0
    8.5144    1.3556   -0.4209 H   0  0  0  0  0  0  0  0  0  0  0  0
    8.8149    0.5830   -1.9960 H   0  0  0  0  0  0  0  0  0  0  0  0
    9.0467   -1.8639   -0.9857 H   0  0  0  0  0  0  0  0  0  0  0  0
    8.2412   -1.3497   -2.5443 H   0  0  0  0  0  0  0  0  0  0  0  0
    7.3936   -2.4394   -1.3414 H   0  0  0  0  0  0  0  0  0  0  0  0
  1  2  1  0
  1  3  1  0
  3  4  1  0
  4  5  1  0
  5  6  2  0
  5  7  1  0
  7  8  2  0
  8  9  1  0
  9 10  2  0
 10 11  1  0
 11 12  2  0
 12 13  1  0
 13 14  2  0
 14 15  1  0
 11 16  1  0
 16 17  2  0
 16 18  1  0
 18 19  1  0
 19 20  2  0
 20 21  1  0
 21 22  2  0
 22 23  1  0
 21 24  1  0
 24 25  2  0
 24 26  1  0
 26 27  1  0
 27 28  1  0
 28 29  1  0
 29 30  1  0
 29 31  1  0
  8  1  1  0
 14  9  1  0
 23 19  1  0
 15  7  1  0
  1 32  1  1
  2 33  1  0
  2 34  1  0
  2 35  1  0
  3 36  1  0
  3 37  1  0
  4 38  1  0
 10 39  1  0
 12 40  1  0
 13 41  1  0
 15 42  1  0
 18 43  1  0
 22 44  1  0
 26 45  1  0
 27 46  1  0
 27 47  1  0
 28 48  1  0
 28 49  1  0
 30 50  1  0
 30 51  1  0
 30 52  1  0
 31 53  1  0
 31 54  1  0
 31 55  1  0
M  END
$$$$
