
     RDKit          3D

 50 53  0  0  0  0  0  0  0  0999 V2000
    1.6813    0.0995   -0.9523 C   0  0  2  0  0  0  0  0  0  0  0  0
    1.4733    1.2407   -1.9426 C   0  0  0  0  0  0  0  0  0  0  0  0
    0.1322    1.4775   -2.0516 O   0  0  0  0  0  0  0  0  0  0  0  0
   -0.5631    0.5174   -1.3659 C   0  0  2  0  0  0  0  0  0  0  0  0
   -1.7551    1.1088   -0.6020 C   0  0  2  0  0  0  0  0  0  0  0  0
   -1.0113    1.8428    0.4933 C   0  0  0  0  0  0  0  0  0  0  0  0
    0.2747    1.3728    0.5427 O   0  0  0  0  0  0  0  0  0  0  0  0
    0.3543    0.2164   -0.1983 C   0  0  2  0  0  0  0  0  0  0  0  0
   -2.4053    0.0301   -0.0002 O   0  0  0  0  0  0  0  0  0  0  0  0
   -3.7382   -0.2595   -0.1256 C   0  0  0  0  0  0  0  0  0  0  0  0
   -4.1366   -1.3836    0.5705 C   0  0  0  0  0  0  0  0  0  0  0  0
   -5.4550   -1.8001    0.5385 C   0  0  0  0  0  0  0  0  0  0  0  0
   -6.4459   -1.1294   -0.1812 C   0  0  0  0  0  0  0  0  0  0  0  0
   -6.0165   -0.0048   -0.8700 C   0  0  0  0  0  0  0  0  0  0  0  0
   -4.6984    0.4016   -0.8309 C   0  0  0  0  0  0  0  0  0  0  0  0
   -6.9125    0.8223   -1.6767 C   0  0  0  0  0  0  0  0  0  0  0  0
   -6.6594    2.2287   -1.8337 N   0  0  0  0  0  0  0  0  0  0  0  0
   -7.9777    0.5223   -2.3345 N   0  0  0  0  0  0  0  0  0  0  0  0
    2.7749    0.3011   -0.1254 O   0  0  0  0  0  0  0  0  0  0  0  0
    3.7818   -0.6272   -0.0473 C   0  0  0  0  0  0  0  0  0  0  0  0
    4.7579   -0.1817    0.8538 C   0  0  0  0  0  0  0  0  0  0  0  0
    5.8981   -0.9496    1.1161 C   0  0  0  0  0  0  0  0  0  0  0  0
    6.0940   -2.1636    0.4973 C   0  0  0  0  0  0  0  0  0  0  0  0
    5.1147   -2.5817   -0.3890 C   0  0  0  0  0  0  0  0  0  0  0  0
    3.9923   -1.8333   -0.6518 C   0  0  0  0  0  0  0  0  0  0  0  0
    6.9464   -0.5433    2.0396 C   0  0  0  0  0  0  0  0  0  0  0  0
    7.1699    0.8522    2.1932 N   0  0  0  0  0  0  0  0  0  0  0  0
    7.6797   -1.3578    2.7219 N   0  0  0  0  0  0  0  0  0  0  0  0
    1.6477   -0.8158   -1.5350 H   0  0  0  0  0  0  0  0  0  0  0  0
    1.9637    1.0014   -2.9150 H   0  0  0  0  0  0  0  0  0  0  0  0
    1.9867    2.1233   -1.4999 H   0  0  0  0  0  0  0  0  0  0  0  0
   -0.8479   -0.3630   -1.9434 H   0  0  0  0  0  0  0  0  0  0  0  0
   -2.3677    1.7654   -1.2180 H   0  0  0  0  0  0  0  0  0  0  0  0
   -1.5635    1.7895    1.4614 H   0  0  0  0  0  0  0  0  0  0  0  0
   -1.0222    2.9287    0.2083 H   0  0  0  0  0  0  0  0  0  0  0  0
    0.0949   -0.7092    0.3284 H   0  0  0  0  0  0  0  0  0  0  0  0
   -3.4915   -2.0271    1.1853 H   0  0  0  0  0  0  0  0  0  0  0  0
   -5.7990   -2.6834    1.0778 H   0  0  0  0  0  0  0  0  0  0  0  0
   -7.4693   -1.4099   -0.2363 H   0  0  0  0  0  0  0  0  0  0  0  0
   -4.3453    1.2881   -1.3702 H   0  0  0  0  0  0  0  0  0  0  0  0
   -6.6503    3.0125   -1.1159 H   0  0  0  0  0  0  0  0  0  0  0  0
   -6.5621    3.2103   -1.4588 H   0  0  0  0  0  0  0  0  0  0  0  0
   -8.3000   -0.4669   -2.3228 H   0  0  0  0  0  0  0  0  0  0  0  0
    4.7660    0.7442    1.4270 H   0  0  0  0  0  0  0  0  0  0  0  0
    6.9648   -2.7783    0.6803 H   0  0  0  0  0  0  0  0  0  0  0  0
    5.1927   -3.5203   -0.9146 H   0  0  0  0  0  0  0  0  0  0  0  0
    3.1970   -2.0958   -1.3243 H   0  0  0  0  0  0  0  0  0  0  0  0
    7.8369    1.4855    1.6670 H   0  0  0  0  0  0  0  0  0  0  0  0
    6.8883    1.6863    2.7226 H   0  0  0  0  0  0  0  0  0  0  0  0
    7.5298   -2.3840    2.6218 H   0  0  0  0  0  0  0  0  0  0  0  0
  1  2  1  0
  2  3  1  0
  3  4  1  0
  4  5  1  0
  5  6  1  0
  6  7  1  0
  7  8  1  0
  5  9  1  0
  9 10  1  0
 10 11  2  0
 11 12  1  0
 12 13  2  0
 13 14  1  0
 14 15  2  0
 14 16  1  0
 16 17  1  0
 16 18  2  3
  1 19  1  0
 19 20  1  0
 20 21  2  0
 21 22  1  0
 22 23  2  0
 23 24  1  0
 24 25  2  0
 22 26  1  0
 26 27  1  0
 26 28  2  3
  8  1  1  0
 15 10  1  0
 25 20  1  0
  8  4  1  0
  1 29  1  6
  2 30  1  0
  2 31  1  0
  4 32  1  6
  5 33  1  6
  6 34  1  0
  6 35  1  0
  8 36  1  1
 11 37  1  0
 12 38  1  0
 13 39  1  0
 15 40  1  0
 17 41  1  0
 17 42  1  0
 18 43  1  0
 21 44  1  0
 23 45  1  0
 24 46  1  0
 25 47  1  0
 27 48  1  0
 27 49  1  0
 28 50  1  0
M  END
$$$$
