
     RDKit          3D

 36 37  0  0  0  0  0  0  0  0999 V2000
    1.8374    1.0912    1.5847 C   0  0  2  0  0  0  0  0  0  0  0  0
    2.9620    0.3482    1.8646 F   0  0  0  0  0  0  0  0  0  0  0  0
    1.2675    1.7326    2.7795 C   0  0  0  0  0  0  0  0  0  0  0  0
    2.2128    2.4833    3.3931 F   0  0  0  0  0  0  0  0  0  0  0  0
    0.0416    1.6460    3.2522 C   0  0  0  0  0  0  0  0  0  0  0  0
   -0.9200    0.8175    2.5352 C   0  0  0  0  0  0  0  0  0  0  0  0
   -0.6030    0.1562    1.4351 C   0  0  0  0  0  0  0  0  0  0  0  0
   -1.4786   -0.6978    0.6398 C   0  0  0  0  0  0  0  0  0  0  0  0
   -1.1457   -1.3086   -0.3958 O   0  0  0  0  0  0  0  0  0  0  0  0
   -2.8364   -0.9010    1.0100 N   0  0  0  0  0  0  0  0  0  0  0  0
   -3.7493   -1.6635    0.3638 O   0  0  0  0  0  0  0  0  0  0  0  0
   -4.3786   -0.8356   -0.5647 C   0  0  0  0  0  0  0  0  0  0  0  0
   -5.4380   -1.5524   -1.3743 C   0  0  0  0  0  0  0  0  0  0  0  0
   -5.9879   -0.6032   -2.2661 O   0  0  0  0  0  0  0  0  0  0  0  0
    0.7698    0.2766    0.9393 C   0  0  0  0  0  0  0  0  0  0  0  0
    1.1661   -0.3454   -0.1433 N   0  0  0  0  0  0  0  0  0  0  0  0
    2.5099   -0.2015   -0.5914 C   0  0  0  0  0  0  0  0  0  0  0  0
    3.4805   -1.1648   -0.3356 C   0  0  0  0  0  0  0  0  0  0  0  0
    3.1019   -2.2453    0.3554 F   0  0  0  0  0  0  0  0  0  0  0  0
    4.7777   -1.0071   -0.7784 C   0  0  0  0  0  0  0  0  0  0  0  0
    5.1609    0.1132   -1.4922 C   0  0  0  0  0  0  0  0  0  0  0  0
    7.1728    0.2221   -2.1054 I   0  0  0  0  0  0  0  0  0  0  0  0
    4.1952    1.0775   -1.7500 C   0  0  0  0  0  0  0  0  0  0  0  0
    2.9038    0.9240   -1.3110 C   0  0  0  0  0  0  0  0  0  0  0  0
    2.1451    1.8571    0.8437 H   0  0  0  0  0  0  0  0  0  0  0  0
   -0.2649    2.1678    4.1477 H   0  0  0  0  0  0  0  0  0  0  0  0
   -1.9262    0.7086    2.8691 H   0  0  0  0  0  0  0  0  0  0  0  0
   -3.2586   -0.4551    1.8532 H   0  0  0  0  0  0  0  0  0  0  0  0
   -3.5774   -0.4584   -1.2647 H   0  0  0  0  0  0  0  0  0  0  0  0
   -4.8124    0.0481   -0.0544 H   0  0  0  0  0  0  0  0  0  0  0  0
   -5.0153   -2.3323   -2.0096 H   0  0  0  0  0  0  0  0  0  0  0  0
   -6.2431   -1.8796   -0.6854 H   0  0  0  0  0  0  0  0  0  0  0  0
   -6.3257    0.1523   -1.7152 H   0  0  0  0  0  0  0  0  0  0  0  0
    5.4684   -1.8117   -0.5316 H   0  0  0  0  0  0  0  0  0  0  0  0
    4.5750    1.9243   -2.3145 H   0  0  0  0  0  0  0  0  0  0  0  0
    2.2126    1.7166   -1.5512 H   0  0  0  0  0  0  0  0  0  0  0  0
  1  2  1  0
  1  3  1  0
  3  4  1  0
  3  5  2  0
  5  6  1  0
  6  7  2  0
  7  8  1  0
  8  9  2  0
  8 10  1  0
 10 11  1  0
 11 12  1  0
 12 13  1  0
 13 14  1  0
  7 15  1  0
 15 16  2  0
 16 17  1  0
 17 18  2  0
 18 19  1  0
 18 20  1  0
 20 21  2  0
 21 22  1  0
 21 23  1  0
 23 24  2  0
 15  1  1  0
 24 17  1  0
  1 25  1  6
  5 26  1  0
  6 27  1  0
 10 28  1  0
 12 29  1  0
 12 30  1  0
 13 31  1  0
 13 32  1  0
 14 33  1  0
 20 34  1  0
 23 35  1  0
 24 36  1  0
M  END
$$$$
