
     RDKit          3D

 39 41  0  0  0  0  0  0  0  0999 V2000
   -2.4508    0.5673    1.8321 O   0  0  0  0  0  0  0  0  0  0  0  0
   -2.9348   -0.2009    0.9205 C   0  0  0  0  0  0  0  0  0  0  0  0
   -2.3535   -1.4680    0.8046 N   0  0  0  0  0  0  0  0  0  0  0  0
   -1.2436   -1.8867    1.6558 C   0  0  0  0  0  0  0  0  0  0  0  0
    0.0615   -1.3686    1.1974 C   0  0  0  0  0  0  0  0  0  0  0  0
    0.6551   -0.2042    1.6141 C   0  0  0  0  0  0  0  0  0  0  0  0
    1.8855    0.2436    1.1439 C   0  0  0  0  0  0  0  0  0  0  0  0
    2.5555   -0.5092    0.2126 C   0  0  0  0  0  0  0  0  0  0  0  0
    3.8485   -0.0449   -0.2888 C   0  0  0  0  0  0  0  0  0  0  0  0
    4.0942    1.2425   -0.7098 C   0  0  0  0  0  0  0  0  0  0  0  0
    5.3556    1.6152   -1.1834 C   0  0  0  0  0  0  0  0  0  0  0  0
    5.5644    2.7939   -1.5643 O   0  0  0  0  0  0  0  0  0  0  0  0
    6.3606    0.7305   -1.2406 N   0  0  0  0  0  0  0  0  0  0  0  0
    6.1278   -0.5312   -0.8301 C   0  0  0  0  0  0  0  0  0  0  0  0
    4.9026   -0.9485   -0.3554 C   0  0  0  0  0  0  0  0  0  0  0  0
    4.6767   -2.2207    0.0560 F   0  0  0  0  0  0  0  0  0  0  0  0
    1.9983   -1.7026   -0.2457 C   0  0  0  0  0  0  0  0  0  0  0  0
    0.7818   -2.1020    0.2474 C   0  0  0  0  0  0  0  0  0  0  0  0
   -4.0184    0.2690    0.0977 C   0  0  0  0  0  0  0  0  0  0  0  0
   -4.7239    1.3721    0.6140 C   0  0  0  0  0  0  0  0  0  0  0  0
   -4.3014    2.0648    2.1786 Cl  0  0  0  0  0  0  0  0  0  0  0  0
   -5.7523    1.9461   -0.0582 C   0  0  0  0  0  0  0  0  0  0  0  0
   -6.1494    1.4639   -1.2874 C   0  0  0  0  0  0  0  0  0  0  0  0
   -5.4858    0.3909   -1.8231 C   0  0  0  0  0  0  0  0  0  0  0  0
   -4.4250   -0.1856   -1.1090 C   0  0  0  0  0  0  0  0  0  0  0  0
   -3.6106   -1.5135   -1.8741 Cl  0  0  0  0  0  0  0  0  0  0  0  0
   -2.6636   -2.1999    0.1368 H   0  0  0  0  0  0  0  0  0  0  0  0
   -1.4190   -1.4817    2.6856 H   0  0  0  0  0  0  0  0  0  0  0  0
   -1.1707   -2.9807    1.7634 H   0  0  0  0  0  0  0  0  0  0  0  0
    0.1588    0.4071    2.3554 H   0  0  0  0  0  0  0  0  0  0  0  0
    2.3044    1.1818    1.5150 H   0  0  0  0  0  0  0  0  0  0  0  0
    3.2736    1.9420   -0.6569 H   0  0  0  0  0  0  0  0  0  0  0  0
    7.3200    0.9773   -1.5905 H   0  0  0  0  0  0  0  0  0  0  0  0
    6.9616   -1.2322   -0.8867 H   0  0  0  0  0  0  0  0  0  0  0  0
    2.5388   -2.2734   -0.9725 H   0  0  0  0  0  0  0  0  0  0  0  0
    0.3192   -3.0332   -0.0918 H   0  0  0  0  0  0  0  0  0  0  0  0
   -6.2872    2.8000    0.3573 H   0  0  0  0  0  0  0  0  0  0  0  0
   -6.9619    1.9042   -1.8363 H   0  0  0  0  0  0  0  0  0  0  0  0
   -5.7928    0.0116   -2.7836 H   0  0  0  0  0  0  0  0  0  0  0  0
  1  2  2  0
  2  3  1  0
  3  4  1  0
  4  5  1  0
  5  6  2  0
  6  7  1  0
  7  8  2  0
  8  9  1  0
  9 10  2  0
 10 11  1  0
 11 12  2  0
 11 13  1  0
 13 14  1  0
 14 15  2  0
 15 16  1  0
  8 17  1  0
 17 18  2  0
  2 19  1  0
 19 20  2  0
 20 21  1  0
 20 22  1  0
 22 23  2  0
 23 24  1  0
 24 25  2  0
 25 26  1  0
 18  5  1  0
 25 19  1  0
 15  9  1  0
  3 27  1  0
  4 28  1  0
  4 29  1  0
  6 30  1  0
  7 31  1  0
 10 32  1  0
 13 33  1  0
 14 34  1  0
 17 35  1  0
 18 36  1  0
 22 37  1  0
 23 38  1  0
 24 39  1  0
M  END
$$$$
