
     RDKit          3D

 63 67  0  0  0  0  0  0  0  0999 V2000
    5.0565    1.9144   -2.0739 C   0  0  0  0  0  0  0  0  0  0  0  0
    3.8318    1.7778   -1.3884 O   0  0  0  0  0  0  0  0  0  0  0  0
    3.8255    1.2262   -0.1243 C   0  0  0  0  0  0  0  0  0  0  0  0
    5.0206    0.8269    0.4252 C   0  0  0  0  0  0  0  0  0  0  0  0
    5.0733    0.2698    1.6840 C   0  0  0  0  0  0  0  0  0  0  0  0
    3.9357    0.0908    2.4405 C   0  0  0  0  0  0  0  0  0  0  0  0
    2.7482    0.5079    1.8481 C   0  0  0  0  0  0  0  0  0  0  0  0
    2.6733    1.0627    0.6010 C   0  0  0  0  0  0  0  0  0  0  0  0
    1.3723    1.5059    0.0857 C   0  0  0  0  0  0  0  0  0  0  0  0
    0.7406    0.8639   -0.9338 N   0  0  0  0  0  0  0  0  0  0  0  0
    0.2979   -0.4132   -1.1021 C   0  0  1  0  0  0  0  0  0  0  0  0
    1.2239   -1.5990   -1.0852 C   0  0  0  0  0  0  0  0  0  0  0  0
    0.4187   -2.6768   -1.8712 C   0  0  0  0  0  0  0  0  0  0  0  0
   -0.6364   -3.1339   -0.8521 C   0  0  0  0  0  0  0  0  0  0  0  0
   -0.8519   -2.1658    0.1904 N   0  0  0  0  0  0  0  0  0  0  0  0
    0.3024   -2.1377    1.0956 C   0  0  0  0  0  0  0  0  0  0  0  0
    1.5087   -2.2442    0.2113 C   0  0  0  0  0  0  0  0  0  0  0  0
   -0.9951   -0.8582   -0.4812 C   0  0  1  0  0  0  0  0  0  0  0  0
   -1.6309    0.0517    0.4973 C   0  0  0  0  0  0  0  0  0  0  0  0
   -2.0027    1.3864    0.0071 C   0  0  0  0  0  0  0  0  0  0  0  0
   -2.2756    1.7109   -1.3041 C   0  0  0  0  0  0  0  0  0  0  0  0
   -2.6261    2.9964   -1.6654 C   0  0  0  0  0  0  0  0  0  0  0  0
   -2.7167    3.9995   -0.7361 C   0  0  0  0  0  0  0  0  0  0  0  0
   -2.4476    3.6948    0.5806 C   0  0  0  0  0  0  0  0  0  0  0  0
   -2.1006    2.4124    0.9228 C   0  0  0  0  0  0  0  0  0  0  0  0
   -2.8901   -0.5837    0.9685 C   0  0  0  0  0  0  0  0  0  0  0  0
   -3.1456   -0.8113    2.3082 C   0  0  0  0  0  0  0  0  0  0  0  0
   -4.3212   -1.3901    2.7343 C   0  0  0  0  0  0  0  0  0  0  0  0
   -5.2907   -1.7651    1.8324 C   0  0  0  0  0  0  0  0  0  0  0  0
   -5.0526   -1.5454    0.4925 C   0  0  0  0  0  0  0  0  0  0  0  0
   -3.8516   -0.9550    0.0711 C   0  0  0  0  0  0  0  0  0  0  0  0
    5.5486    0.9048   -2.1285 H   0  0  0  0  0  0  0  0  0  0  0  0
    5.7146    2.5584   -1.4518 H   0  0  0  0  0  0  0  0  0  0  0  0
    4.9156    2.3393   -3.0921 H   0  0  0  0  0  0  0  0  0  0  0  0
    5.9713    0.9443   -0.1332 H   0  0  0  0  0  0  0  0  0  0  0  0
    6.0385   -0.0450    2.1097 H   0  0  0  0  0  0  0  0  0  0  0  0
    3.9548   -0.3473    3.4371 H   0  0  0  0  0  0  0  0  0  0  0  0
    1.8653    0.3505    2.4871 H   0  0  0  0  0  0  0  0  0  0  0  0
    1.5945    2.5808   -0.2613 H   0  0  0  0  0  0  0  0  0  0  0  0
    0.7030    1.7572    0.9789 H   0  0  0  0  0  0  0  0  0  0  0  0
    0.5748    1.5329   -1.7502 H   0  0  0  0  0  0  0  0  0  0  0  0
    0.0162   -0.4236   -2.2474 H   0  0  0  0  0  0  0  0  0  0  0  0
    2.1401   -1.4650   -1.6598 H   0  0  0  0  0  0  0  0  0  0  0  0
   -0.0279   -2.2482   -2.7676 H   0  0  0  0  0  0  0  0  0  0  0  0
    1.1006   -3.5127   -2.0143 H   0  0  0  0  0  0  0  0  0  0  0  0
   -0.3819   -4.1235   -0.4288 H   0  0  0  0  0  0  0  0  0  0  0  0
   -1.6012   -3.2143   -1.4163 H   0  0  0  0  0  0  0  0  0  0  0  0
    0.3014   -1.2946    1.7752 H   0  0  0  0  0  0  0  0  0  0  0  0
    0.1770   -3.0582    1.7384 H   0  0  0  0  0  0  0  0  0  0  0  0
    2.4725   -2.0215    0.6879 H   0  0  0  0  0  0  0  0  0  0  0  0
    1.6048   -3.3709    0.0280 H   0  0  0  0  0  0  0  0  0  0  0  0
   -1.7943   -1.0855   -1.2545 H   0  0  0  0  0  0  0  0  0  0  0  0
   -1.0113    0.2101    1.4168 H   0  0  0  0  0  0  0  0  0  0  0  0
   -2.2031    0.9100   -2.0444 H   0  0  0  0  0  0  0  0  0  0  0  0
   -2.8432    3.2583   -2.7024 H   0  0  0  0  0  0  0  0  0  0  0  0
   -2.9958    5.0262   -1.0182 H   0  0  0  0  0  0  0  0  0  0  0  0
   -2.5229    4.4944    1.3019 H   0  0  0  0  0  0  0  0  0  0  0  0
   -1.8997    2.2412    1.9907 H   0  0  0  0  0  0  0  0  0  0  0  0
   -2.3613   -0.5050    2.9989 H   0  0  0  0  0  0  0  0  0  0  0  0
   -4.4868   -1.5527    3.7866 H   0  0  0  0  0  0  0  0  0  0  0  0
   -6.2284   -2.2242    2.1378 H   0  0  0  0  0  0  0  0  0  0  0  0
   -5.7989   -1.8293   -0.2614 H   0  0  0  0  0  0  0  0  0  0  0  0
   -3.7312   -0.8062   -0.9698 H   0  0  0  0  0  0  0  0  0  0  0  0
  1  2  1  0
  2  3  1  0
  3  4  2  0
  4  5  1  0
  5  6  2  0
  6  7  1  0
  7  8  2  0
  8  9  1  0
  9 10  1  0
 10 11  1  0
 11 12  1  0
 12 13  1  0
 13 14  1  0
 14 15  1  0
 15 16  1  0
 16 17  1  0
 15 18  1  0
 18 19  1  0
 19 20  1  0
 20 21  2  0
 21 22  1  0
 22 23  2  0
 23 24  1  0
 24 25  2  0
 19 26  1  0
 26 27  2  0
 27 28  1  0
 28 29  2  0
 29 30  1  0
 30 31  2  0
  8  3  1  0
 18 11  1  0
 25 20  1  0
 31 26  1  0
 17 12  1  0
  1 32  1  0
  1 33  1  0
  1 34  1  0
  4 35  1  0
  5 36  1  0
  6 37  1  0
  7 38  1  0
  9 39  1  0
  9 40  1  0
 10 41  1  0
 11 42  1  6
 12 43  1  0
 13 44  1  0
 13 45  1  0
 14 46  1  0
 14 47  1  0
 16 48  1  0
 16 49  1  0
 17 50  1  0
 17 51  1  0
 18 52  1  6
 19 53  1  0
 21 54  1  0
 22 55  1  0
 23 56  1  0
 24 57  1  0
 25 58  1  0
 27 59  1  0
 28 60  1  0
 29 61  1  0
 30 62  1  0
 31 63  1  0
M  END
$$$$
