
     RDKit          3D

 42 43  0  0  0  0  0  0  0  0999 V2000
    7.3406    0.3927   -0.3212 C   0  0  0  0  0  0  0  0  0  0  0  0
    6.4958    1.0099   -1.3953 C   0  0  0  0  0  0  0  0  0  0  0  0
    5.1433    1.0335   -1.0651 O   0  0  0  0  0  0  0  0  0  0  0  0
    4.4602   -0.1454   -0.8266 C   0  0  0  0  0  0  0  0  0  0  0  0
    3.1321    0.1688   -0.5153 C   0  0  0  0  0  0  0  0  0  0  0  0
    2.2009   -0.8371   -0.2255 C   0  0  0  0  0  0  0  0  0  0  0  0
    2.6033   -2.1719   -0.2476 C   0  0  0  0  0  0  0  0  0  0  0  0
    3.9160   -2.4537   -0.5571 C   0  0  0  0  0  0  0  0  0  0  0  0
    4.8382   -1.4705   -0.8434 C   0  0  0  0  0  0  0  0  0  0  0  0
    0.8029   -0.5896    0.1083 C   0  0  0  0  0  0  0  0  0  0  0  0
   -0.1595   -1.5405   -0.2524 C   0  0  0  0  0  0  0  0  0  0  0  0
   -1.4823   -1.2711    0.0835 C   0  0  0  0  0  0  0  0  0  0  0  0
   -1.8481   -0.1072    0.7513 C   0  0  0  0  0  0  0  0  0  0  0  0
   -3.2354   -0.0571    0.9816 N   0  0  0  0  0  0  0  0  0  0  0  0
   -4.3190    0.4646    0.2217 C   0  0  0  0  0  0  0  0  0  0  0  0
   -4.0817    1.0057   -0.8881 O   0  0  0  0  0  0  0  0  0  0  0  0
   -5.6738    0.3566    0.7522 C   0  0  0  0  0  0  0  0  0  0  0  0
   -5.9158   -0.2634    2.0155 C   0  0  0  0  0  0  0  0  0  0  0  0
   -6.1061   -0.7868    3.0398 N   0  0  0  0  0  0  0  0  0  0  0  0
   -6.6637    0.8502    0.0254 C   0  0  0  0  0  0  0  0  0  0  0  0
   -8.0298    0.7174    0.6066 C   0  0  0  0  0  0  0  0  0  0  0  0
   -6.4273    1.4445   -1.1871 O   0  0  0  0  0  0  0  0  0  0  0  0
   -0.8565    0.7906    1.0798 C   0  0  0  0  0  0  0  0  0  0  0  0
    0.4593    0.5706    0.7709 C   0  0  0  0  0  0  0  0  0  0  0  0
    6.6679    0.0178    0.4996 H   0  0  0  0  0  0  0  0  0  0  0  0
    7.9482   -0.4345   -0.7323 H   0  0  0  0  0  0  0  0  0  0  0  0
    8.0247    1.1609    0.1256 H   0  0  0  0  0  0  0  0  0  0  0  0
    6.6204    0.4993   -2.3811 H   0  0  0  0  0  0  0  0  0  0  0  0
    6.8160    2.0780   -1.5335 H   0  0  0  0  0  0  0  0  0  0  0  0
    2.6572    1.1503   -0.4549 H   0  0  0  0  0  0  0  0  0  0  0  0
    1.9641   -3.0160   -0.0395 H   0  0  0  0  0  0  0  0  0  0  0  0
    4.3247   -3.4463   -0.6006 H   0  0  0  0  0  0  0  0  0  0  0  0
    5.8807   -1.5714   -1.0993 H   0  0  0  0  0  0  0  0  0  0  0  0
    0.1514   -2.4391   -0.7723 H   0  0  0  0  0  0  0  0  0  0  0  0
   -2.1576   -2.0663   -0.2372 H   0  0  0  0  0  0  0  0  0  0  0  0
   -3.3502   -0.5249    1.9200 H   0  0  0  0  0  0  0  0  0  0  0  0
   -8.7423    1.0591   -0.1705 H   0  0  0  0  0  0  0  0  0  0  0  0
   -8.1463    1.2976    1.5398 H   0  0  0  0  0  0  0  0  0  0  0  0
   -8.1830   -0.3784    0.8090 H   0  0  0  0  0  0  0  0  0  0  0  0
   -7.0098    2.1071   -1.6450 H   0  0  0  0  0  0  0  0  0  0  0  0
   -1.2409    1.6631    1.5963 H   0  0  0  0  0  0  0  0  0  0  0  0
    1.1813    1.3260    1.0640 H   0  0  0  0  0  0  0  0  0  0  0  0
  1  2  1  0
  2  3  1  0
  3  4  1  0
  4  5  2  0
  5  6  1  0
  6  7  2  0
  7  8  1  0
  8  9  2  0
  6 10  1  0
 10 11  2  0
 11 12  1  0
 12 13  2  0
 13 14  1  0
 14 15  1  0
 15 16  2  0
 15 17  1  0
 17 18  1  0
 18 19  3  0
 17 20  2  0
 20 21  1  0
 20 22  1  0
 13 23  1  0
 23 24  2  0
  9  4  1  0
 24 10  1  0
  1 25  1  0
  1 26  1  0
  1 27  1  0
  2 28  1  0
  2 29  1  0
  5 30  1  0
  7 31  1  0
  8 32  1  0
  9 33  1  0
 11 34  1  0
 12 35  1  0
 14 36  1  0
 21 37  1  0
 21 38  1  0
 21 39  1  0
 22 40  1  0
 23 41  1  0
 24 42  1  0
M  END
$$$$
