
     RDKit          3D

 33 34  0  0  0  0  0  0  0  0999 V2000
    1.1091   -0.7829   -1.2167 C   0  0  1  0  0  0  0  0  0  0  0  0
    1.1328   -2.2945   -1.1083 C   0  0  0  0  0  0  0  0  0  0  0  0
    0.5023   -2.8984   -2.2075 O   0  0  0  0  0  0  0  0  0  0  0  0
   -0.2067   -0.3867   -1.2618 O   0  0  0  0  0  0  0  0  0  0  0  0
   -0.4407    0.4351   -0.1629 C   0  0  1  0  0  0  0  0  0  0  0  0
   -1.8343    0.3908    0.1337 N   0  0  0  0  0  0  0  0  0  0  0  0
   -2.4465   -0.4204    0.9840 C   0  0  0  0  0  0  0  0  0  0  0  0
   -3.8226   -0.3146    1.1409 C   0  0  0  0  0  0  0  0  0  0  0  0
   -4.5636    0.6146    0.4323 C   0  0  0  0  0  0  0  0  0  0  0  0
   -5.9344    0.6190    0.6804 O   0  0  0  0  0  0  0  0  0  0  0  0
   -3.9096    1.4077   -0.4092 N   0  0  0  0  0  0  0  0  0  0  0  0
   -2.5796    1.2848   -0.5421 C   0  0  0  0  0  0  0  0  0  0  0  0
   -2.0841    2.1093   -1.3830 O   0  0  0  0  0  0  0  0  0  0  0  0
    0.4545   -0.1834    0.8929 C   0  0  2  0  0  0  0  0  0  0  0  0
    0.6000    0.5878    2.0139 F   0  0  0  0  0  0  0  0  0  0  0  0
    1.7169   -0.2193    0.0362 C   0  0  2  0  0  0  0  0  0  0  0  0
    2.1683    1.0504   -0.0434 O   0  0  0  0  0  0  0  0  0  0  0  0
    3.6740    1.4379    0.4950 P   0  0  0  0  0  0  0  0  0  0  0  0
    4.5717    0.0975    1.0404 O   0  0  0  0  0  0  0  0  0  0  0  0
    4.6429    2.2666   -0.6054 O   0  0  0  0  0  0  0  0  0  0  0  0
    3.5315    2.3606    1.6898 O   0  0  0  0  0  0  0  0  0  0  0  0
    1.6842   -0.5432   -2.1272 H   0  0  0  0  0  0  0  0  0  0  0  0
    0.6366   -2.6900   -0.2130 H   0  0  0  0  0  0  0  0  0  0  0  0
    2.1744   -2.6886   -1.0973 H   0  0  0  0  0  0  0  0  0  0  0  0
   -0.4433   -3.0587   -2.0602 H   0  0  0  0  0  0  0  0  0  0  0  0
   -0.1012    1.4701   -0.3161 H   0  0  0  0  0  0  0  0  0  0  0  0
   -1.8513   -1.1247    1.5150 H   0  0  0  0  0  0  0  0  0  0  0  0
   -4.2389   -1.0202    1.8592 H   0  0  0  0  0  0  0  0  0  0  0  0
   -6.4570    1.4120    0.3001 H   0  0  0  0  0  0  0  0  0  0  0  0
    0.1469   -1.2225    1.1167 H   0  0  0  0  0  0  0  0  0  0  0  0
    2.4594   -0.9266    0.4893 H   0  0  0  0  0  0  0  0  0  0  0  0
    5.5011    0.1034    0.7008 H   0  0  0  0  0  0  0  0  0  0  0  0
    4.2071    3.1270   -0.7955 H   0  0  0  0  0  0  0  0  0  0  0  0
  1  2  1  0
  2  3  1  0
  1  4  1  0
  4  5  1  0
  5  6  1  0
  6  7  1  0
  7  8  2  0
  8  9  1  0
  9 10  1  0
  9 11  2  0
 11 12  1  0
 12 13  2  0
  5 14  1  0
 14 15  1  0
 14 16  1  0
 16 17  1  0
 17 18  1  0
 18 19  1  0
 18 20  1  0
 18 21  2  0
 16  1  1  0
 12  6  1  0
  1 22  1  6
  2 23  1  0
  2 24  1  0
  3 25  1  0
  5 26  1  6
  7 27  1  0
  8 28  1  0
 10 29  1  0
 14 30  1  1
 16 31  1  1
 19 32  1  0
 20 33  1  0
M  END
$$$$
