
     RDKit          3D

 33 35  0  0  0  0  0  0  0  0999 V2000
    7.7665   -0.4121    0.7912 O   0  0  0  0  0  0  0  0  0  0  0  0
    6.5816   -0.3060    0.3611 C   0  0  0  0  0  0  0  0  0  0  0  0
    5.7271   -1.5228    0.1138 C   0  0  0  0  0  0  0  0  0  0  0  0
    4.4073   -1.1732    0.4809 O   0  0  0  0  0  0  0  0  0  0  0  0
    3.8304    0.0533    0.2032 C   0  0  0  0  0  0  0  0  0  0  0  0
    2.3533    0.1870    0.1307 C   0  0  0  0  0  0  0  0  0  0  0  0
    1.5619   -0.9088    0.3399 C   0  0  0  0  0  0  0  0  0  0  0  0
    0.1640   -0.8193    0.2791 C   0  0  0  0  0  0  0  0  0  0  0  0
   -0.4229    0.3856    0.0057 C   0  0  0  0  0  0  0  0  0  0  0  0
   -1.8280    0.5560   -0.0725 N   0  0  0  0  0  0  0  0  0  0  0  0
   -2.6711   -0.3159    0.2864 N   0  0  0  0  0  0  0  0  0  0  0  0
   -4.0757   -0.1274    0.2007 C   0  0  0  0  0  0  0  0  0  0  0  0
   -4.8283    0.4931    1.1745 C   0  0  0  0  0  0  0  0  0  0  0  0
   -6.2054    0.6478    1.0313 C   0  0  0  0  0  0  0  0  0  0  0  0
   -6.8085    0.1675   -0.1069 C   0  0  0  0  0  0  0  0  0  0  0  0
   -6.0930   -0.4540   -1.0947 C   0  0  0  0  0  0  0  0  0  0  0  0
   -4.7306   -0.5883   -0.9164 C   0  0  0  0  0  0  0  0  0  0  0  0
    0.3657    1.4999   -0.2075 C   0  0  0  0  0  0  0  0  0  0  0  0
    1.7478    1.3878   -0.1424 C   0  0  0  0  0  0  0  0  0  0  0  0
    4.5858    1.0670    0.0104 N   0  0  0  0  0  0  0  0  0  0  0  0
    5.9627    0.9371    0.0789 N   0  0  0  0  0  0  0  0  0  0  0  0
    5.8005   -1.7338   -0.9811 H   0  0  0  0  0  0  0  0  0  0  0  0
    6.1000   -2.3756    0.7113 H   0  0  0  0  0  0  0  0  0  0  0  0
    2.0482   -1.8537    0.5551 H   0  0  0  0  0  0  0  0  0  0  0  0
   -0.4442   -1.6885    0.4456 H   0  0  0  0  0  0  0  0  0  0  0  0
   -4.3246    0.8581    2.0542 H   0  0  0  0  0  0  0  0  0  0  0  0
   -6.8158    1.1338    1.7872 H   0  0  0  0  0  0  0  0  0  0  0  0
   -7.8770    0.2906   -0.2120 H   0  0  0  0  0  0  0  0  0  0  0  0
   -6.6179   -0.8134   -1.9703 H   0  0  0  0  0  0  0  0  0  0  0  0
   -4.1656   -1.0772   -1.6926 H   0  0  0  0  0  0  0  0  0  0  0  0
   -0.0442    2.4757   -0.4270 H   0  0  0  0  0  0  0  0  0  0  0  0
    2.3364    2.2688   -0.3120 H   0  0  0  0  0  0  0  0  0  0  0  0
    6.6141    1.7608   -0.0766 H   0  0  0  0  0  0  0  0  0  0  0  0
  1  2  2  0
  2  3  1  0
  3  4  1  0
  4  5  1  0
  5  6  1  0
  6  7  2  0
  7  8  1  0
  8  9  2  0
  9 10  1  0
 10 11  2  0
 11 12  1  0
 12 13  2  0
 13 14  1  0
 14 15  2  0
 15 16  1  0
 16 17  2  0
  9 18  1  0
 18 19  2  0
  5 20  2  0
 20 21  1  0
 21  2  1  0
 19  6  1  0
 17 12  1  0
  3 22  1  0
  3 23  1  0
  7 24  1  0
  8 25  1  0
 13 26  1  0
 14 27  1  0
 15 28  1  0
 16 29  1  0
 17 30  1  0
 18 31  1  0
 19 32  1  0
 21 33  1  0
M  END
$$$$
