
     RDKit          3D

 64 65  0  0  0  0  0  0  0  0999 V2000
    7.6982    1.2044    1.6936 C   0  0  0  0  0  0  0  0  0  0  0  0
    6.5835    1.2676    0.6635 C   0  0  0  0  0  0  0  0  0  0  0  0
    7.0364    0.8009   -0.6835 C   0  0  0  0  0  0  0  0  0  0  0  0
    7.5470   -0.5690   -0.7960 C   0  0  0  0  0  0  0  0  0  0  0  0
    6.7577   -1.7626   -0.5048 C   0  0  0  0  0  0  0  0  0  0  0  0
    5.5509   -2.0933   -1.2725 C   0  0  0  0  0  0  0  0  0  0  0  0
    4.3378   -1.2556   -1.1926 C   0  0  0  0  0  0  0  0  0  0  0  0
    3.7157   -1.2423    0.1890 C   0  0  0  0  0  0  0  0  0  0  0  0
    2.5372   -0.3168    0.2021 C   0  0  0  0  0  0  0  0  0  0  0  0
    1.5078   -0.7847   -0.7935 C   0  0  0  0  0  0  0  0  0  0  0  0
    0.3860    0.1512   -0.6975 N   0  0  0  0  0  0  0  0  0  0  0  0
   -0.6670    0.0131    0.1269 C   0  0  0  0  0  0  0  0  0  0  0  0
   -1.5062    1.0865   -0.0708 C   0  0  0  0  0  0  0  0  0  0  0  0
   -2.8065    1.3749    0.6155 C   0  0  0  0  0  0  0  0  0  0  0  0
   -3.8448    0.7945   -0.1011 N   0  0  0  0  0  0  0  0  0  0  0  0
   -5.1709    0.8837    0.2792 C   0  0  1  0  0  0  0  0  0  0  0  0
   -5.9720    0.1281   -0.7540 C   0  0  2  0  0  0  0  0  0  0  0  0
   -5.8268    0.8488   -1.9622 O   0  0  0  0  0  0  0  0  0  0  0  0
   -7.4087   -0.0040   -0.4705 C   0  0  1  0  0  0  0  0  0  0  0  0
   -7.9266   -1.0339   -1.2799 O   0  0  0  0  0  0  0  0  0  0  0  0
   -7.7446   -0.3783    0.9540 C   0  0  2  0  0  0  0  0  0  0  0  0
   -9.1092   -0.3822    1.1321 O   0  0  0  0  0  0  0  0  0  0  0  0
   -7.0485    0.6704    1.8133 C   0  0  1  0  0  0  0  0  0  0  0  0
   -7.4254    0.5863    3.1410 O   0  0  0  0  0  0  0  0  0  0  0  0
   -5.5508    0.4034    1.6414 C   0  0  2  0  0  0  0  0  0  0  0  0
   -4.9476    1.0921    2.6678 O   0  0  0  0  0  0  0  0  0  0  0  0
   -0.9259    1.8471   -1.0195 N   0  0  0  0  0  0  0  0  0  0  0  0
    0.2089    1.2626   -1.3783 N   0  0  0  0  0  0  0  0  0  0  0  0
    8.6710    1.5217    1.2622 H   0  0  0  0  0  0  0  0  0  0  0  0
    7.7668    0.1835    2.1487 H   0  0  0  0  0  0  0  0  0  0  0  0
    7.4264    1.8970    2.5130 H   0  0  0  0  0  0  0  0  0  0  0  0
    5.6919    0.8211    1.0656 H   0  0  0  0  0  0  0  0  0  0  0  0
    6.3663    2.3648    0.5487 H   0  0  0  0  0  0  0  0  0  0  0  0
    6.2322    1.0214   -1.4206 H   0  0  0  0  0  0  0  0  0  0  0  0
    7.9239    1.4831   -0.9443 H   0  0  0  0  0  0  0  0  0  0  0  0
    8.5342   -0.6137   -0.2026 H   0  0  0  0  0  0  0  0  0  0  0  0
    7.9396   -0.6746   -1.8676 H   0  0  0  0  0  0  0  0  0  0  0  0
    7.4597   -2.6541   -0.6179 H   0  0  0  0  0  0  0  0  0  0  0  0
    6.5683   -1.7666    0.6168 H   0  0  0  0  0  0  0  0  0  0  0  0
    5.8548   -2.1067   -2.3751 H   0  0  0  0  0  0  0  0  0  0  0  0
    5.2286   -3.1635   -1.1115 H   0  0  0  0  0  0  0  0  0  0  0  0
    4.3761   -0.2362   -1.5761 H   0  0  0  0  0  0  0  0  0  0  0  0
    3.5902   -1.7728   -1.9040 H   0  0  0  0  0  0  0  0  0  0  0  0
    4.4321   -1.0429    0.9773 H   0  0  0  0  0  0  0  0  0  0  0  0
    3.2545   -2.2774    0.3917 H   0  0  0  0  0  0  0  0  0  0  0  0
    2.0750   -0.2699    1.2226 H   0  0  0  0  0  0  0  0  0  0  0  0
    2.8522    0.7464   -0.0166 H   0  0  0  0  0  0  0  0  0  0  0  0
    1.2129   -1.8132   -0.5508 H   0  0  0  0  0  0  0  0  0  0  0  0
    1.9460   -0.7182   -1.8341 H   0  0  0  0  0  0  0  0  0  0  0  0
   -0.8574   -0.7815    0.8317 H   0  0  0  0  0  0  0  0  0  0  0  0
   -2.9152    2.4809    0.6047 H   0  0  0  0  0  0  0  0  0  0  0  0
   -2.6738    1.0809    1.6631 H   0  0  0  0  0  0  0  0  0  0  0  0
   -3.6000    0.5668   -1.0587 H   0  0  0  0  0  0  0  0  0  0  0  0
   -5.5177    1.9568    0.2066 H   0  0  0  0  0  0  0  0  0  0  0  0
   -5.4805   -0.8551   -0.9351 H   0  0  0  0  0  0  0  0  0  0  0  0
   -6.6210    1.4145   -2.1401 H   0  0  0  0  0  0  0  0  0  0  0  0
   -7.9828    0.9040   -0.7411 H   0  0  0  0  0  0  0  0  0  0  0  0
   -7.7818   -0.8537   -2.2404 H   0  0  0  0  0  0  0  0  0  0  0  0
   -7.2725   -1.3515    1.2189 H   0  0  0  0  0  0  0  0  0  0  0  0
   -9.3742   -1.3266    1.3650 H   0  0  0  0  0  0  0  0  0  0  0  0
   -7.2504    1.6564    1.3545 H   0  0  0  0  0  0  0  0  0  0  0  0
   -7.7525   -0.3126    3.3962 H   0  0  0  0  0  0  0  0  0  0  0  0
   -5.4305   -0.7021    1.7483 H   0  0  0  0  0  0  0  0  0  0  0  0
   -4.8779    0.6007    3.5010 H   0  0  0  0  0  0  0  0  0  0  0  0
  1  2  1  0
  2  3  1  0
  3  4  1  0
  4  5  1  0
  5  6  1  0
  6  7  1  0
  7  8  1  0
  8  9  1  0
  9 10  1  0
 10 11  1  0
 11 12  1  0
 12 13  2  0
 13 14  1  0
 14 15  1  0
 15 16  1  0
 16 17  1  0
 17 18  1  0
 17 19  1  0
 19 20  1  0
 19 21  1  0
 21 22  1  0
 21 23  1  0
 23 24  1  0
 23 25  1  0
 25 26  1  0
 13 27  1  0
 27 28  2  0
 28 11  1  0
 25 16  1  0
  1 29  1  0
  1 30  1  0
  1 31  1  0
  2 32  1  0
  2 33  1  0
  3 34  1  0
  3 35  1  0
  4 36  1  0
  4 37  1  0
  5 38  1  0
  5 39  1  0
  6 40  1  0
  6 41  1  0
  7 42  1  0
  7 43  1  0
  8 44  1  0
  8 45  1  0
  9 46  1  0
  9 47  1  0
 10 48  1  0
 10 49  1  0
 12 50  1  0
 14 51  1  0
 14 52  1  0
 15 53  1  0
 16 54  1  1
 17 55  1  6
 18 56  1  0
 19 57  1  6
 20 58  1  0
 21 59  1  1
 22 60  1  0
 23 61  1  6
 24 62  1  0
 25 63  1  6
 26 64  1  0
M  END
$$$$
