
     RDKit          3D

 53 55  0  0  0  0  0  0  0  0999 V2000
    1.8654   -0.3004   -0.1156 N   0  0  0  0  0  0  0  0  0  0  0  0
    0.4668   -0.5121   -0.1948 C   0  0  0  0  0  0  0  0  0  0  0  0
   -0.1589   -0.8022   -1.3929 C   0  0  0  0  0  0  0  0  0  0  0  0
   -1.5117   -1.0163   -1.5176 C   0  0  0  0  0  0  0  0  0  0  0  0
   -2.3311   -0.9482   -0.4118 C   0  0  0  0  0  0  0  0  0  0  0  0
   -3.6816   -1.1714   -0.5930 O   0  0  0  0  0  0  0  0  0  0  0  0
   -4.6358   -1.1375    0.4228 C   0  0  0  0  0  0  0  0  0  0  0  0
   -5.9960   -1.4374   -0.2072 C   0  0  2  0  0  0  0  0  0  0  0  0
   -5.9621   -2.6965   -0.8014 O   0  0  0  0  0  0  0  0  0  0  0  0
   -6.3249   -0.3738   -1.2194 C   0  0  0  0  0  0  0  0  0  0  0  0
   -6.3466    0.9052   -0.5434 N   0  0  0  0  0  0  0  0  0  0  0  0
   -7.4550    0.9737    0.3620 C   0  0  0  0  0  0  0  0  0  0  0  0
   -6.3563    2.0062   -1.4909 C   0  0  0  0  0  0  0  0  0  0  0  0
   -1.7641   -0.6638    0.8031 C   0  0  0  0  0  0  0  0  0  0  0  0
   -0.4033   -0.4577    0.8727 C   0  0  0  0  0  0  0  0  0  0  0  0
    2.6284    0.0105    1.0378 C   0  0  0  0  0  0  0  0  0  0  0  0
    2.1898    0.1735    2.2902 N   0  0  0  0  0  0  0  0  0  0  0  0
    2.9439    0.4677    3.3566 C   0  0  0  0  0  0  0  0  0  0  0  0
    4.2880    0.6086    3.1087 C   0  0  0  0  0  0  0  0  0  0  0  0
    4.8289    0.4590    1.8521 C   0  0  0  0  0  0  0  0  0  0  0  0
    3.9482    0.1694    0.9092 N   0  0  0  0  0  0  0  0  0  0  0  0
    6.2232    0.6158    1.6491 N   0  0  0  0  0  0  0  0  0  0  0  0
    6.9737    0.4968    0.4620 C   0  0  0  0  0  0  0  0  0  0  0  0
    8.3306    0.6882    0.4523 C   0  0  0  0  0  0  0  0  0  0  0  0
    9.1551    1.0928    1.9637 Cl  0  0  0  0  0  0  0  0  0  0  0  0
    9.1066    0.5878   -0.6593 C   0  0  0  0  0  0  0  0  0  0  0  0
    8.5464    0.2805   -1.8575 C   0  0  0  0  0  0  0  0  0  0  0  0
    7.2016    0.0732   -1.9410 C   0  0  0  0  0  0  0  0  0  0  0  0
    6.4441   -0.3243   -3.4696 Cl  0  0  0  0  0  0  0  0  0  0  0  0
    6.4665    0.1890   -0.7795 C   0  0  0  0  0  0  0  0  0  0  0  0
    2.3734   -0.3898   -1.0326 H   0  0  0  0  0  0  0  0  0  0  0  0
    0.4491   -0.8674   -2.3020 H   0  0  0  0  0  0  0  0  0  0  0  0
   -1.9179   -1.2371   -2.4870 H   0  0  0  0  0  0  0  0  0  0  0  0
   -4.4230   -2.0013    1.1153 H   0  0  0  0  0  0  0  0  0  0  0  0
   -4.6529   -0.2420    1.0385 H   0  0  0  0  0  0  0  0  0  0  0  0
   -6.7901   -1.4798    0.5549 H   0  0  0  0  0  0  0  0  0  0  0  0
   -5.0669   -3.0728   -0.7298 H   0  0  0  0  0  0  0  0  0  0  0  0
   -5.5566   -0.3358   -2.0202 H   0  0  0  0  0  0  0  0  0  0  0  0
   -7.3118   -0.6361   -1.6482 H   0  0  0  0  0  0  0  0  0  0  0  0
   -8.0805    0.0684    0.2304 H   0  0  0  0  0  0  0  0  0  0  0  0
   -8.0986    1.8370    0.0442 H   0  0  0  0  0  0  0  0  0  0  0  0
   -7.1517    1.1145    1.4216 H   0  0  0  0  0  0  0  0  0  0  0  0
   -5.4746    1.8617   -2.1549 H   0  0  0  0  0  0  0  0  0  0  0  0
   -6.2272    2.9483   -0.9194 H   0  0  0  0  0  0  0  0  0  0  0  0
   -7.3017    2.0709   -2.0586 H   0  0  0  0  0  0  0  0  0  0  0  0
   -2.4203   -0.6172    1.6418 H   0  0  0  0  0  0  0  0  0  0  0  0
   -0.0515   -0.2432    1.8534 H   0  0  0  0  0  0  0  0  0  0  0  0
    2.5160    0.5845    4.3417 H   0  0  0  0  0  0  0  0  0  0  0  0
    4.9365    0.8497    3.9585 H   0  0  0  0  0  0  0  0  0  0  0  0
    6.7903    0.8584    2.5163 H   0  0  0  0  0  0  0  0  0  0  0  0
   10.1819    0.7503   -0.6111 H   0  0  0  0  0  0  0  0  0  0  0  0
    9.1918    0.2071   -2.7271 H   0  0  0  0  0  0  0  0  0  0  0  0
    5.4064    0.0157   -0.8980 H   0  0  0  0  0  0  0  0  0  0  0  0
  1  2  1  0
  2  3  2  0
  3  4  1  0
  4  5  2  0
  5  6  1  0
  6  7  1  0
  7  8  1  0
  8  9  1  0
  8 10  1  0
 10 11  1  0
 11 12  1  0
 11 13  1  0
  5 14  1  0
 14 15  2  0
  1 16  1  0
 16 17  2  0
 17 18  1  0
 18 19  2  0
 19 20  1  0
 20 21  2  0
 20 22  1  0
 22 23  1  0
 23 24  2  0
 24 25  1  0
 24 26  1  0
 26 27  2  0
 27 28  1  0
 28 29  1  0
 28 30  2  0
 15  2  1  0
 21 16  1  0
 30 23  1  0
  1 31  1  0
  3 32  1  0
  4 33  1  0
  7 34  1  0
  7 35  1  0
  8 36  1  1
  9 37  1  0
 10 38  1  0
 10 39  1  0
 12 40  1  0
 12 41  1  0
 12 42  1  0
 13 43  1  0
 13 44  1  0
 13 45  1  0
 14 46  1  0
 15 47  1  0
 18 48  1  0
 19 49  1  0
 22 50  1  0
 26 51  1  0
 27 52  1  0
 30 53  1  0
M  END
$$$$
