
     RDKit          3D

 49 52  0  0  0  0  0  0  0  0999 V2000
    2.0419    0.9363    0.3645 C   0  0  2  0  0  0  0  0  0  0  0  0
    3.0535    1.8143   -0.2857 C   0  0  0  0  0  0  0  0  0  0  0  0
    4.3634    1.3891    0.3472 C   0  0  0  0  0  0  0  0  0  0  0  0
    4.0312    0.1793    1.1784 C   0  0  0  0  0  0  0  0  0  0  0  0
    4.6285   -0.2334    2.1590 O   0  0  0  0  0  0  0  0  0  0  0  0
    2.8209   -0.3559    0.5030 C   0  0  2  0  0  0  0  0  0  0  0  0
    3.2381   -0.9374   -0.8196 C   0  0  0  0  0  0  0  0  0  0  0  0
    2.0206   -1.2791    1.3557 C   0  0  0  0  0  0  0  0  0  0  0  0
    0.7063   -1.5352    0.6276 C   0  0  0  0  0  0  0  0  0  0  0  0
   -0.0554   -0.2608    0.4525 C   0  0  1  0  0  0  0  0  0  0  0  0
    0.7381    0.7839   -0.3219 C   0  0  1  0  0  0  0  0  0  0  0  0
   -0.0294    2.0931   -0.0913 C   0  0  0  0  0  0  0  0  0  0  0  0
   -1.4318    1.9291   -0.5318 C   0  0  0  0  0  0  0  0  0  0  0  0
   -2.0423    0.7504   -0.5601 C   0  0  0  0  0  0  0  0  0  0  0  0
   -3.4412    0.7265   -1.0201 C   0  0  0  0  0  0  0  0  0  0  0  0
   -4.2692    0.0902    0.1030 C   0  0  1  0  0  0  0  0  0  0  0  0
   -5.5825    0.0707   -0.3459 O   0  0  0  0  0  0  0  0  0  0  0  0
   -3.7081   -1.2936    0.3048 C   0  0  0  0  0  0  0  0  0  0  0  0
   -2.3108   -1.1669    0.8591 C   0  0  0  0  0  0  0  0  0  0  0  0
   -1.3928   -0.5232   -0.1568 C   0  0  2  0  0  0  0  0  0  0  0  0
   -1.3113   -1.4258   -1.3600 C   0  0  0  0  0  0  0  0  0  0  0  0
    1.8749    1.3155    1.3915 H   0  0  0  0  0  0  0  0  0  0  0  0
    2.8357    2.8917   -0.1279 H   0  0  0  0  0  0  0  0  0  0  0  0
    3.0864    1.6958   -1.3974 H   0  0  0  0  0  0  0  0  0  0  0  0
    4.7102    2.2340    0.9746 H   0  0  0  0  0  0  0  0  0  0  0  0
    5.1277    1.1243   -0.4059 H   0  0  0  0  0  0  0  0  0  0  0  0
    3.8428   -1.8228   -0.6171 H   0  0  0  0  0  0  0  0  0  0  0  0
    3.8678   -0.1874   -1.3298 H   0  0  0  0  0  0  0  0  0  0  0  0
    2.3929   -1.2405   -1.4510 H   0  0  0  0  0  0  0  0  0  0  0  0
    1.7867   -0.7447    2.2912 H   0  0  0  0  0  0  0  0  0  0  0  0
    2.5523   -2.2355    1.5114 H   0  0  0  0  0  0  0  0  0  0  0  0
    0.0575   -2.2095    1.2283 H   0  0  0  0  0  0  0  0  0  0  0  0
    0.8779   -2.0668   -0.3246 H   0  0  0  0  0  0  0  0  0  0  0  0
   -0.2005    0.1828    1.4633 H   0  0  0  0  0  0  0  0  0  0  0  0
    0.8067    0.5408   -1.3846 H   0  0  0  0  0  0  0  0  0  0  0  0
    0.4775    2.9498   -0.5347 H   0  0  0  0  0  0  0  0  0  0  0  0
   -0.0341    2.2174    1.0119 H   0  0  0  0  0  0  0  0  0  0  0  0
   -1.9424    2.8376   -0.8352 H   0  0  0  0  0  0  0  0  0  0  0  0
   -3.8689    1.7263   -1.1777 H   0  0  0  0  0  0  0  0  0  0  0  0
   -3.6139    0.1642   -1.9504 H   0  0  0  0  0  0  0  0  0  0  0  0
   -4.1771    0.7416    0.9922 H   0  0  0  0  0  0  0  0  0  0  0  0
   -6.1348   -0.5475    0.1616 H   0  0  0  0  0  0  0  0  0  0  0  0
   -3.7544   -1.8215   -0.6520 H   0  0  0  0  0  0  0  0  0  0  0  0
   -4.3388   -1.8082    1.0657 H   0  0  0  0  0  0  0  0  0  0  0  0
   -1.9833   -2.1861    1.1496 H   0  0  0  0  0  0  0  0  0  0  0  0
   -2.3567   -0.5387    1.7511 H   0  0  0  0  0  0  0  0  0  0  0  0
   -0.3146   -1.3740   -1.8581 H   0  0  0  0  0  0  0  0  0  0  0  0
   -2.0457   -1.1267   -2.1594 H   0  0  0  0  0  0  0  0  0  0  0  0
   -1.5997   -2.4634   -1.0684 H   0  0  0  0  0  0  0  0  0  0  0  0
  1  2  1  0
  2  3  1  0
  3  4  1  0
  4  5  2  0
  4  6  1  0
  6  7  1  6
  6  8  1  0
  8  9  1  0
  9 10  1  0
 10 11  1  0
 11 12  1  0
 12 13  1  0
 13 14  2  0
 14 15  1  0
 15 16  1  0
 16 17  1  0
 16 18  1  0
 18 19  1  0
 19 20  1  0
 20 21  1  6
  6  1  1  0
 20 10  1  0
 11  1  1  0
 20 14  1  0
  1 22  1  1
  2 23  1  0
  2 24  1  0
  3 25  1  0
  3 26  1  0
  7 27  1  0
  7 28  1  0
  7 29  1  0
  8 30  1  0
  8 31  1  0
  9 32  1  0
  9 33  1  0
 10 34  1  1
 11 35  1  6
 12 36  1  0
 12 37  1  0
 13 38  1  0
 15 39  1  0
 15 40  1  0
 16 41  1  1
 17 42  1  0
 18 43  1  0
 18 44  1  0
 19 45  1  0
 19 46  1  0
 21 47  1  0
 21 48  1  0
 21 49  1  0
M  END
$$$$
