
     RDKit          3D

 44 47  0  0  0  0  0  0  0  0999 V2000
    1.9128   -2.3644   -0.0782 N   0  0  0  0  0  0  0  0  0  0  0  0
    1.0261   -1.2006   -0.2381 C   0  0  0  0  0  0  0  0  0  0  0  0
    1.7736   -0.2139   -1.1069 C   0  0  0  0  0  0  0  0  0  0  0  0
    3.0480    0.2299   -0.5226 C   0  0  0  0  0  0  0  0  0  0  0  0
    4.1975   -0.4980   -0.7885 C   0  0  0  0  0  0  0  0  0  0  0  0
    5.4326   -0.1551   -0.2896 C   0  0  0  0  0  0  0  0  0  0  0  0
    5.5790    0.9550    0.5152 C   0  0  0  0  0  0  0  0  0  0  0  0
    7.1455    1.4206    1.1695 Cl  0  0  0  0  0  0  0  0  0  0  0  0
    4.4380    1.6817    0.7820 C   0  0  0  0  0  0  0  0  0  0  0  0
    3.1993    1.3390    0.2825 C   0  0  0  0  0  0  0  0  0  0  0  0
   -0.2410   -1.6768   -0.8524 C   0  0  0  0  0  0  0  0  0  0  0  0
   -1.4321   -1.5533    0.1115 C   0  0  0  0  0  0  0  0  0  0  0  0
   -1.5160   -0.2388    0.6643 N   0  0  0  0  0  0  0  0  0  0  0  0
   -2.7581    0.3789    0.8916 C   0  0  0  0  0  0  0  0  0  0  0  0
   -3.1729    0.7154    2.1430 N   0  0  0  0  0  0  0  0  0  0  0  0
   -4.3561    1.2982    2.3734 C   0  0  0  0  0  0  0  0  0  0  0  0
   -5.1851    1.5728    1.3505 N   0  0  0  0  0  0  0  0  0  0  0  0
   -4.8667    1.2792    0.0759 C   0  0  0  0  0  0  0  0  0  0  0  0
   -5.5100    1.4506   -1.1096 N   0  0  0  0  0  0  0  0  0  0  0  0
   -4.7054    0.9656   -2.0698 C   0  0  0  0  0  0  0  0  0  0  0  0
   -3.5349    0.4780   -1.4983 C   0  0  0  0  0  0  0  0  0  0  0  0
   -3.6463    0.6811   -0.1351 C   0  0  0  0  0  0  0  0  0  0  0  0
   -0.3061    0.4563    0.9862 C   0  0  0  0  0  0  0  0  0  0  0  0
    0.7893   -0.5786    1.1069 C   0  0  0  0  0  0  0  0  0  0  0  0
    1.6268   -2.9497    0.7311 H   0  0  0  0  0  0  0  0  0  0  0  0
    1.9940   -2.8604   -0.9734 H   0  0  0  0  0  0  0  0  0  0  0  0
    1.9794   -0.7230   -2.1007 H   0  0  0  0  0  0  0  0  0  0  0  0
    1.1636    0.6660   -1.3903 H   0  0  0  0  0  0  0  0  0  0  0  0
    4.1340   -1.3715   -1.4110 H   0  0  0  0  0  0  0  0  0  0  0  0
    6.3296   -0.7381   -0.5075 H   0  0  0  0  0  0  0  0  0  0  0  0
    4.5783    2.5580    1.4226 H   0  0  0  0  0  0  0  0  0  0  0  0
    2.3351    1.9309    0.5116 H   0  0  0  0  0  0  0  0  0  0  0  0
   -0.1858   -2.7526   -1.1108 H   0  0  0  0  0  0  0  0  0  0  0  0
   -0.5129   -1.1491   -1.7903 H   0  0  0  0  0  0  0  0  0  0  0  0
   -1.3298   -2.3236    0.9103 H   0  0  0  0  0  0  0  0  0  0  0  0
   -2.3325   -1.7619   -0.4698 H   0  0  0  0  0  0  0  0  0  0  0  0
   -4.6671    1.5606    3.4017 H   0  0  0  0  0  0  0  0  0  0  0  0
   -6.4666    1.8895   -1.2111 H   0  0  0  0  0  0  0  0  0  0  0  0
   -4.9237    0.9514   -3.1254 H   0  0  0  0  0  0  0  0  0  0  0  0
   -2.6905    0.0272   -2.0005 H   0  0  0  0  0  0  0  0  0  0  0  0
   -0.0675    1.1346    0.1213 H   0  0  0  0  0  0  0  0  0  0  0  0
   -0.4093    1.0548    1.9227 H   0  0  0  0  0  0  0  0  0  0  0  0
    1.6919   -0.1262    1.5482 H   0  0  0  0  0  0  0  0  0  0  0  0
    0.4422   -1.4396    1.7579 H   0  0  0  0  0  0  0  0  0  0  0  0
  1  2  1  0
  2  3  1  0
  3  4  1  0
  4  5  2  0
  5  6  1  0
  6  7  2  0
  7  8  1  0
  7  9  1  0
  9 10  2  0
  2 11  1  0
 11 12  1  0
 12 13  1  0
 13 14  1  0
 14 15  2  0
 15 16  1  0
 16 17  2  0
 17 18  1  0
 18 19  1  0
 19 20  1  0
 20 21  2  0
 21 22  1  0
 13 23  1  0
 23 24  1  0
 24  2  1  0
 10  4  1  0
 22 14  1  0
 22 18  2  0
  1 25  1  0
  1 26  1  0
  3 27  1  0
  3 28  1  0
  5 29  1  0
  6 30  1  0
  9 31  1  0
 10 32  1  0
 11 33  1  0
 11 34  1  0
 12 35  1  0
 12 36  1  0
 16 37  1  0
 19 38  1  0
 20 39  1  0
 21 40  1  0
 23 41  1  0
 23 42  1  0
 24 43  1  0
 24 44  1  0
M  END
$$$$
