
     RDKit          3D

 59 62  0  0  0  0  0  0  0  0999 V2000
    8.3245   -2.7247    0.8388 C   0  0  0  0  0  0  0  0  0  0  0  0
    7.6064   -2.8319   -0.4991 C   0  0  0  0  0  0  0  0  0  0  0  0
    6.3142   -2.2646   -0.4317 O   0  0  0  0  0  0  0  0  0  0  0  0
    6.0950   -0.9465   -0.1136 C   0  0  0  0  0  0  0  0  0  0  0  0
    7.1128   -0.2333    0.1243 O   0  0  0  0  0  0  0  0  0  0  0  0
    4.7751   -0.3830   -0.0495 C   0  0  0  0  0  0  0  0  0  0  0  0
    4.4268    1.3350    0.3514 S   0  0  0  0  0  0  0  0  0  0  0  0
    2.6637    1.1915    0.2084 C   0  0  0  0  0  0  0  0  0  0  0  0
    1.6748    2.1057    0.3676 N   0  0  0  0  0  0  0  0  0  0  0  0
    0.3915    1.7272    0.1902 C   0  0  0  0  0  0  0  0  0  0  0  0
   -0.6047    2.6603    0.3525 C   0  0  0  0  0  0  0  0  0  0  0  0
   -0.1587    4.3121    0.7872 S   0  0  0  0  0  0  0  0  0  0  0  0
    0.1289    5.3693   -0.6447 C   0  0  0  0  0  0  0  0  0  0  0  0
   -1.1509    5.5919   -1.4274 C   0  0  0  0  0  0  0  0  0  0  0  0
   -2.1669    6.2431   -0.5623 C   0  0  0  0  0  0  0  0  0  0  0  0
   -1.9025    6.5279    0.6315 O   0  0  0  0  0  0  0  0  0  0  0  0
   -3.4341    6.5605   -1.0282 O   0  0  0  0  0  0  0  0  0  0  0  0
   -1.9395    2.2806    0.1705 C   0  0  0  0  0  0  0  0  0  0  0  0
   -2.2289    0.9572   -0.1732 C   0  0  0  0  0  0  0  0  0  0  0  0
   -3.6320    0.5940   -0.3978 C   0  0  0  0  0  0  0  0  0  0  0  0
   -4.3778    1.5080   -0.9222 O   0  0  0  0  0  0  0  0  0  0  0  0
   -4.2501   -0.6601   -0.0960 C   0  0  0  0  0  0  0  0  0  0  0  0
   -3.6854   -1.6537    0.6697 C   0  0  0  0  0  0  0  0  0  0  0  0
   -4.3533   -2.8311    0.9537 C   0  0  0  0  0  0  0  0  0  0  0  0
   -3.7336   -3.7938    1.7277 O   0  0  0  0  0  0  0  0  0  0  0  0
   -4.3662   -5.0140    2.0492 C   0  0  0  0  0  0  0  0  0  0  0  0
   -5.6263   -3.0523    0.4736 C   0  0  0  0  0  0  0  0  0  0  0  0
   -6.2111   -2.0805   -0.2891 C   0  0  0  0  0  0  0  0  0  0  0  0
   -5.5334   -0.9194   -0.5610 C   0  0  0  0  0  0  0  0  0  0  0  0
   -6.1632    0.0674   -1.3523 O   0  0  0  0  0  0  0  0  0  0  0  0
   -1.1842    0.0971   -0.3153 C   0  0  0  0  0  0  0  0  0  0  0  0
    0.1201    0.4593   -0.1390 N   0  0  0  0  0  0  0  0  0  0  0  0
    1.0940   -0.4383   -0.2948 C   0  0  0  0  0  0  0  0  0  0  0  0
    0.7279   -1.6008   -0.6056 O   0  0  0  0  0  0  0  0  0  0  0  0
    2.4642   -0.1200   -0.1259 C   0  0  0  0  0  0  0  0  0  0  0  0
    3.5405   -0.9253   -0.2573 C   0  0  0  0  0  0  0  0  0  0  0  0
    3.4735   -2.4087   -0.6131 C   0  0  0  0  0  0  0  0  0  0  0  0
    9.1579   -3.4431    0.8664 H   0  0  0  0  0  0  0  0  0  0  0  0
    7.6140   -2.9854    1.6455 H   0  0  0  0  0  0  0  0  0  0  0  0
    8.7192   -1.6929    0.9856 H   0  0  0  0  0  0  0  0  0  0  0  0
    7.4612   -3.9189   -0.7056 H   0  0  0  0  0  0  0  0  0  0  0  0
    8.2347   -2.3789   -1.2987 H   0  0  0  0  0  0  0  0  0  0  0  0
    0.9578    5.0479   -1.2740 H   0  0  0  0  0  0  0  0  0  0  0  0
    0.4116    6.3783   -0.2407 H   0  0  0  0  0  0  0  0  0  0  0  0
   -1.5326    4.5850   -1.7375 H   0  0  0  0  0  0  0  0  0  0  0  0
   -0.9670    6.2399   -2.2822 H   0  0  0  0  0  0  0  0  0  0  0  0
   -4.0795    7.0774   -0.4488 H   0  0  0  0  0  0  0  0  0  0  0  0
   -2.7259    2.9988    0.2941 H   0  0  0  0  0  0  0  0  0  0  0  0
   -2.7045   -1.5389    1.0966 H   0  0  0  0  0  0  0  0  0  0  0  0
   -3.7060   -5.6043    2.7157 H   0  0  0  0  0  0  0  0  0  0  0  0
   -4.4665   -5.5852    1.0985 H   0  0  0  0  0  0  0  0  0  0  0  0
   -5.3925   -4.8822    2.4431 H   0  0  0  0  0  0  0  0  0  0  0  0
   -6.1262   -3.9955    0.7173 H   0  0  0  0  0  0  0  0  0  0  0  0
   -7.2002   -2.2369   -0.6696 H   0  0  0  0  0  0  0  0  0  0  0  0
   -7.0184    0.4693   -0.9636 H   0  0  0  0  0  0  0  0  0  0  0  0
   -1.3710   -0.9258   -0.6074 H   0  0  0  0  0  0  0  0  0  0  0  0
    3.7925   -2.5311   -1.6624 H   0  0  0  0  0  0  0  0  0  0  0  0
    4.1960   -2.9247    0.0949 H   0  0  0  0  0  0  0  0  0  0  0  0
    2.5143   -2.8589   -0.3905 H   0  0  0  0  0  0  0  0  0  0  0  0
  1  2  1  0
  2  3  1  0
  3  4  1  0
  4  5  2  0
  4  6  1  0
  6  7  1  0
  7  8  1  0
  8  9  1  0
  9 10  2  0
 10 11  1  0
 11 12  1  0
 12 13  1  0
 13 14  1  0
 14 15  1  0
 15 16  2  0
 15 17  1  0
 11 18  2  0
 18 19  1  0
 19 20  1  0
 20 21  2  0
 20 22  1  0
 22 23  2  0
 23 24  1  0
 24 25  1  0
 25 26  1  0
 24 27  2  0
 27 28  1  0
 28 29  2  0
 29 30  1  0
 19 31  2  0
 31 32  1  0
 32 33  1  0
 33 34  2  0
 33 35  1  0
 35 36  1  0
 36 37  1  0
 36  6  2  0
 35  8  2  0
 32 10  1  0
 29 22  1  0
  1 38  1  0
  1 39  1  0
  1 40  1  0
  2 41  1  0
  2 42  1  0
 13 43  1  0
 13 44  1  0
 14 45  1  0
 14 46  1  0
 17 47  1  0
 18 48  1  0
 23 49  1  0
 26 50  1  0
 26 51  1  0
 26 52  1  0
 27 53  1  0
 28 54  1  0
 30 55  1  0
 31 56  1  0
 37 57  1  0
 37 58  1  0
 37 59  1  0
M  END
$$$$
