
     RDKit          3D

 73 77  0  0  0  0  0  0  0  0999 V2000
    8.7540   -1.0963   -2.7150 C   0  0  0  0  0  0  0  0  0  0  0  0
    9.4431   -0.0836   -1.8044 C   0  0  0  0  0  0  0  0  0  0  0  0
    8.4265    0.5768   -1.0766 O   0  0  0  0  0  0  0  0  0  0  0  0
    7.6081   -0.2108   -0.2636 C   0  0  0  0  0  0  0  0  0  0  0  0
    7.6708   -1.5401   -0.0860 N   0  0  0  0  0  0  0  0  0  0  0  0
    6.7454   -1.9672    0.7536 N   0  0  0  0  0  0  0  0  0  0  0  0
    6.5294   -3.3602    1.1719 C   0  0  0  0  0  0  0  0  0  0  0  0
    6.0346   -0.8835    1.1548 C   0  0  0  0  0  0  0  0  0  0  0  0
    6.5594    0.2234    0.5295 C   0  0  0  0  0  0  0  0  0  0  0  0
    6.0966    1.5458    0.6813 N   0  0  0  0  0  0  0  0  0  0  0  0
    5.0141    1.8380    1.5326 C   0  0  0  0  0  0  0  0  0  0  0  0
    5.2883    2.1517    2.8059 N   0  0  0  0  0  0  0  0  0  0  0  0
    4.3314    2.4473    3.6969 C   0  0  0  0  0  0  0  0  0  0  0  0
    3.0002    2.4206    3.2573 C   0  0  0  0  0  0  0  0  0  0  0  0
    2.0137    2.7126    4.1258 F   0  0  0  0  0  0  0  0  0  0  0  0
    2.6893    2.1011    1.9532 C   0  0  0  0  0  0  0  0  0  0  0  0
    1.3296    2.0513    1.4333 C   0  0  0  0  0  0  0  0  0  0  0  0
    0.1420    2.2971    2.0554 C   0  0  0  0  0  0  0  0  0  0  0  0
   -0.8782    2.1256    1.1667 N   0  0  0  0  0  0  0  0  0  0  0  0
   -0.3852    1.7684   -0.0403 C   0  0  0  0  0  0  0  0  0  0  0  0
   -1.0102    1.4857   -1.2377 C   0  0  0  0  0  0  0  0  0  0  0  0
   -2.4208    1.5372   -1.4025 N   0  0  0  0  0  0  0  0  0  0  0  0
   -3.2802    0.4334   -1.1759 C   0  0  0  0  0  0  0  0  0  0  0  0
   -2.7580   -0.6449   -0.8096 O   0  0  0  0  0  0  0  0  0  0  0  0
   -4.7248    0.5172   -1.3534 C   0  0  1  0  0  0  0  0  0  0  0  0
   -5.0154    0.8438   -2.8019 C   0  0  0  0  0  0  0  0  0  0  0  0
   -5.4490   -0.6704   -1.0113 N   0  0  0  0  0  0  0  0  0  0  0  0
   -6.8654   -0.5377   -1.2464 C   0  0  0  0  0  0  0  0  0  0  0  0
   -7.4699    0.0949   -0.0116 C   0  0  0  0  0  0  0  0  0  0  0  0
   -7.4133   -0.8635    1.0383 N   0  0  0  0  0  0  0  0  0  0  0  0
   -8.6378   -1.5553    1.2636 C   0  0  0  0  0  0  0  0  0  0  0  0
   -6.2166   -1.6061    1.1600 C   0  0  1  0  0  0  0  0  0  0  0  0
   -6.5482   -3.0885    1.0925 C   0  0  0  0  0  0  0  0  0  0  0  0
   -5.1102   -1.2432    0.2451 C   0  0  0  0  0  0  0  0  0  0  0  0
   -0.2170    1.1437   -2.3080 C   0  0  0  0  0  0  0  0  0  0  0  0
    1.1472    1.0802   -2.2101 C   0  0  0  0  0  0  0  0  0  0  0  0
    1.7374    1.3703   -0.9933 C   0  0  0  0  0  0  0  0  0  0  0  0
    0.9936    1.7204    0.1200 C   0  0  0  0  0  0  0  0  0  0  0  0
    3.7342    1.8246    1.1572 N   0  0  0  0  0  0  0  0  0  0  0  0
    8.9264   -2.1438   -2.3528 H   0  0  0  0  0  0  0  0  0  0  0  0
    9.2202   -1.0412   -3.7197 H   0  0  0  0  0  0  0  0  0  0  0  0
    7.6675   -0.9455   -2.7353 H   0  0  0  0  0  0  0  0  0  0  0  0
    9.9944    0.6830   -2.3767 H   0  0  0  0  0  0  0  0  0  0  0  0
   10.1743   -0.5879   -1.1365 H   0  0  0  0  0  0  0  0  0  0  0  0
    7.0395   -3.5334    2.1387 H   0  0  0  0  0  0  0  0  0  0  0  0
    5.4341   -3.4859    1.3925 H   0  0  0  0  0  0  0  0  0  0  0  0
    6.8873   -4.0148    0.3759 H   0  0  0  0  0  0  0  0  0  0  0  0
    5.2097   -0.9572    1.8504 H   0  0  0  0  0  0  0  0  0  0  0  0
    6.5711    2.3062    0.1507 H   0  0  0  0  0  0  0  0  0  0  0  0
    4.5507    2.7020    4.7281 H   0  0  0  0  0  0  0  0  0  0  0  0
    0.0377    2.5831    3.0951 H   0  0  0  0  0  0  0  0  0  0  0  0
   -1.8772    2.2517    1.3882 H   0  0  0  0  0  0  0  0  0  0  0  0
   -2.8650    2.4421   -1.7104 H   0  0  0  0  0  0  0  0  0  0  0  0
   -5.1878    1.3554   -0.7550 H   0  0  0  0  0  0  0  0  0  0  0  0
   -5.7889    1.6407   -2.9081 H   0  0  0  0  0  0  0  0  0  0  0  0
   -5.3123   -0.1029   -3.3012 H   0  0  0  0  0  0  0  0  0  0  0  0
   -4.0655    1.1489   -3.3326 H   0  0  0  0  0  0  0  0  0  0  0  0
   -6.9618    0.1657   -2.1254 H   0  0  0  0  0  0  0  0  0  0  0  0
   -7.2840   -1.5193   -1.4580 H   0  0  0  0  0  0  0  0  0  0  0  0
   -6.9387    1.0275    0.2438 H   0  0  0  0  0  0  0  0  0  0  0  0
   -8.5359    0.2929   -0.2448 H   0  0  0  0  0  0  0  0  0  0  0  0
   -9.4642   -0.7993    1.1202 H   0  0  0  0  0  0  0  0  0  0  0  0
   -8.7333   -1.8486    2.3486 H   0  0  0  0  0  0  0  0  0  0  0  0
   -8.8606   -2.3742    0.5760 H   0  0  0  0  0  0  0  0  0  0  0  0
   -5.8578   -1.4582    2.2245 H   0  0  0  0  0  0  0  0  0  0  0  0
   -7.1703   -3.4178    1.9377 H   0  0  0  0  0  0  0  0  0  0  0  0
   -7.0853   -3.2813    0.1434 H   0  0  0  0  0  0  0  0  0  0  0  0
   -5.6183   -3.7084    1.0509 H   0  0  0  0  0  0  0  0  0  0  0  0
   -4.4486   -0.4910    0.7707 H   0  0  0  0  0  0  0  0  0  0  0  0
   -4.4642   -2.1286    0.0727 H   0  0  0  0  0  0  0  0  0  0  0  0
   -0.6609    0.9067   -3.2922 H   0  0  0  0  0  0  0  0  0  0  0  0
    1.7581    0.8044   -3.0839 H   0  0  0  0  0  0  0  0  0  0  0  0
    2.8210    1.3173   -0.9230 H   0  0  0  0  0  0  0  0  0  0  0  0
  1  2  1  0
  2  3  1  0
  3  4  1  0
  4  5  2  0
  5  6  1  0
  6  7  1  0
  6  8  1  0
  8  9  2  0
  9 10  1  0
 10 11  1  0
 11 12  2  0
 12 13  1  0
 13 14  2  0
 14 15  1  0
 14 16  1  0
 16 17  1  0
 17 18  2  0
 18 19  1  0
 19 20  1  0
 20 21  2  0
 21 22  1  0
 22 23  1  0
 23 24  2  0
 23 25  1  0
 25 26  1  0
 25 27  1  0
 27 28  1  0
 28 29  1  0
 29 30  1  0
 30 31  1  0
 30 32  1  0
 32 33  1  0
 32 34  1  0
 21 35  1  0
 35 36  2  0
 36 37  1  0
 37 38  2  0
 16 39  2  0
  9  4  1  0
 39 11  1  0
 38 17  1  0
 38 20  1  0
 34 27  1  0
  1 40  1  0
  1 41  1  0
  1 42  1  0
  2 43  1  0
  2 44  1  0
  7 45  1  0
  7 46  1  0
  7 47  1  0
  8 48  1  0
 10 49  1  0
 13 50  1  0
 18 51  1  0
 19 52  1  0
 22 53  1  0
 25 54  1  1
 26 55  1  0
 26 56  1  0
 26 57  1  0
 28 58  1  0
 28 59  1  0
 29 60  1  0
 29 61  1  0
 31 62  1  0
 31 63  1  0
 31 64  1  0
 32 65  1  1
 33 66  1  0
 33 67  1  0
 33 68  1  0
 34 69  1  0
 34 70  1  0
 35 71  1  0
 36 72  1  0
 37 73  1  0
M  END
$$$$
