
     RDKit          3D

 31 32  0  0  0  0  0  0  0  0999 V2000
   -1.3038   -1.6930   -0.5377 C   0  0  0  0  0  0  0  0  0  0  0  0
   -1.3349   -0.1573   -0.4294 C   0  0  0  0  0  0  0  0  0  0  0  0
   -1.1290    0.3559   -1.8434 C   0  0  0  0  0  0  0  0  0  0  0  0
   -2.6159    0.1779    0.0864 N   0  0  0  0  0  0  0  0  0  0  0  0
   -2.7866    0.7481    1.2166 C   0  0  0  0  0  0  0  0  0  0  0  0
   -4.1120    1.0616    1.6829 N   0  0  0  0  0  0  0  0  0  0  0  0
   -1.7091    1.1023    2.0671 N   0  0  0  0  0  0  0  0  0  0  0  0
   -0.5311    0.8422    1.6897 C   0  0  0  0  0  0  0  0  0  0  0  0
    0.6180    1.1748    2.5059 N   0  0  0  0  0  0  0  0  0  0  0  0
   -0.2741    0.2104    0.4461 N   0  0  0  0  0  0  0  0  0  0  0  0
    1.1023   -0.0495    0.0939 C   0  0  0  0  0  0  0  0  0  0  0  0
    1.8083    0.8904   -0.5952 C   0  0  0  0  0  0  0  0  0  0  0  0
    3.1470    0.6442   -0.9409 C   0  0  0  0  0  0  0  0  0  0  0  0
    3.7416   -0.5582   -0.5766 C   0  0  0  0  0  0  0  0  0  0  0  0
    5.4288   -0.8285   -1.0313 Cl  0  0  0  0  0  0  0  0  0  0  0  0
    3.0227   -1.4957    0.1159 C   0  0  0  0  0  0  0  0  0  0  0  0
    1.7010   -1.2280    0.4456 C   0  0  0  0  0  0  0  0  0  0  0  0
   -0.3668   -2.0485   -0.9795 H   0  0  0  0  0  0  0  0  0  0  0  0
   -1.4962   -2.1239    0.4857 H   0  0  0  0  0  0  0  0  0  0  0  0
   -2.1384   -2.0507   -1.1762 H   0  0  0  0  0  0  0  0  0  0  0  0
   -1.7448   -0.2538   -2.5302 H   0  0  0  0  0  0  0  0  0  0  0  0
   -0.0841    0.2547   -2.1546 H   0  0  0  0  0  0  0  0  0  0  0  0
   -1.5232    1.3916   -1.9026 H   0  0  0  0  0  0  0  0  0  0  0  0
   -4.5978    0.3184    2.2477 H   0  0  0  0  0  0  0  0  0  0  0  0
   -4.5803    1.9580    1.4871 H   0  0  0  0  0  0  0  0  0  0  0  0
    1.1649    2.0307    2.4153 H   0  0  0  0  0  0  0  0  0  0  0  0
    0.8773    0.4702    3.2255 H   0  0  0  0  0  0  0  0  0  0  0  0
    1.4001    1.8507   -0.9092 H   0  0  0  0  0  0  0  0  0  0  0  0
    3.7297    1.3697   -1.4860 H   0  0  0  0  0  0  0  0  0  0  0  0
    3.4747   -2.4160    0.3958 H   0  0  0  0  0  0  0  0  0  0  0  0
    1.1117   -1.9488    0.9906 H   0  0  0  0  0  0  0  0  0  0  0  0
  1  2  1  0
  2  3  1  0
  2  4  1  0
  4  5  2  0
  5  6  1  0
  5  7  1  0
  7  8  2  0
  8  9  1  0
  8 10  1  0
 10 11  1  0
 11 12  2  0
 12 13  1  0
 13 14  2  0
 14 15  1  0
 14 16  1  0
 16 17  2  0
 10  2  1  0
 17 11  1  0
  1 18  1  0
  1 19  1  0
  1 20  1  0
  3 21  1  0
  3 22  1  0
  3 23  1  0
  6 24  1  0
  6 25  1  0
  9 26  1  0
  9 27  1  0
 12 28  1  0
 13 29  1  0
 16 30  1  0
 17 31  1  0
M  END
$$$$
