
     RDKit          3D

 43 44  0  0  0  0  0  0  0  0999 V2000
   -0.8107   -0.7560    3.0077 C   0  0  0  0  0  0  0  0  0  0  0  0
   -0.5487    0.4760    2.2101 C   0  0  0  0  0  0  0  0  0  0  0  0
   -1.0089    1.5953    2.9754 O   0  0  0  0  0  0  0  0  0  0  0  0
    0.9010    0.7688    1.9912 C   0  0  0  0  0  0  0  0  0  0  0  0
    1.8375   -0.4237    1.1367 S   0  0  0  0  0  6  0  0  0  0  0  0
    1.8152   -1.7741    1.7213 O   0  0  0  0  0  0  0  0  0  0  0  0
    1.3966   -0.4143   -0.3293 O   0  0  0  0  0  0  0  0  0  0  0  0
    3.5187    0.1661    1.0776 C   0  0  0  0  0  0  0  0  0  0  0  0
    3.9889    0.9374    0.0582 C   0  0  0  0  0  0  0  0  0  0  0  0
    5.2941    1.3985    0.0140 C   0  0  0  0  0  0  0  0  0  0  0  0
    6.1614    1.0779    1.0241 C   0  0  0  0  0  0  0  0  0  0  0  0
    7.4475    1.4992    1.0354 F   0  0  0  0  0  0  0  0  0  0  0  0
    5.7072    0.2985    2.0657 C   0  0  0  0  0  0  0  0  0  0  0  0
    4.3929   -0.1677    2.1132 C   0  0  0  0  0  0  0  0  0  0  0  0
   -1.3720    0.4817    0.9706 C   0  0  0  0  0  0  0  0  0  0  0  0
   -2.0178    1.5144    0.6876 O   0  0  0  0  0  0  0  0  0  0  0  0
   -1.4558   -0.6348    0.1022 N   0  0  0  0  0  0  0  0  0  0  0  0
   -2.2008   -0.7205   -1.0922 C   0  0  0  0  0  0  0  0  0  0  0  0
   -2.1174   -1.9360   -1.7838 C   0  0  0  0  0  0  0  0  0  0  0  0
   -2.8001   -2.1469   -2.9631 C   0  0  0  0  0  0  0  0  0  0  0  0
   -3.5962   -1.1578   -3.5069 C   0  0  0  0  0  0  0  0  0  0  0  0
   -4.3028   -1.3932   -4.7381 C   0  0  0  0  0  0  0  0  0  0  0  0
   -4.8661   -1.5989   -5.7502 N   0  0  0  0  0  0  0  0  0  0  0  0
   -3.6874    0.0416   -2.8385 C   0  0  0  0  0  0  0  0  0  0  0  0
   -4.5434    1.1009   -3.4213 C   0  0  0  0  0  0  0  0  0  0  0  0
   -4.1084    1.4446   -4.6895 F   0  0  0  0  0  0  0  0  0  0  0  0
   -4.5056    2.2524   -2.6529 F   0  0  0  0  0  0  0  0  0  0  0  0
   -5.8410    0.6300   -3.4641 F   0  0  0  0  0  0  0  0  0  0  0  0
   -2.9895    0.2245   -1.6549 C   0  0  0  0  0  0  0  0  0  0  0  0
   -1.3849   -1.4692    2.4126 H   0  0  0  0  0  0  0  0  0  0  0  0
    0.1672   -1.2084    3.2727 H   0  0  0  0  0  0  0  0  0  0  0  0
   -1.3228   -0.5032    3.9590 H   0  0  0  0  0  0  0  0  0  0  0  0
   -0.7293    1.3544    3.9135 H   0  0  0  0  0  0  0  0  0  0  0  0
    0.9847    1.7887    1.5522 H   0  0  0  0  0  0  0  0  0  0  0  0
    1.3428    0.8821    3.0268 H   0  0  0  0  0  0  0  0  0  0  0  0
    3.3448    1.2088   -0.7477 H   0  0  0  0  0  0  0  0  0  0  0  0
    5.6485    2.0125   -0.8088 H   0  0  0  0  0  0  0  0  0  0  0  0
    6.4109    0.0560    2.8563 H   0  0  0  0  0  0  0  0  0  0  0  0
    4.0981   -0.7696    2.9485 H   0  0  0  0  0  0  0  0  0  0  0  0
   -0.8899   -1.4762    0.4491 H   0  0  0  0  0  0  0  0  0  0  0  0
   -1.5128   -2.7529   -1.4156 H   0  0  0  0  0  0  0  0  0  0  0  0
   -2.7387   -3.0889   -3.5044 H   0  0  0  0  0  0  0  0  0  0  0  0
   -3.1072    1.1819   -1.1893 H   0  0  0  0  0  0  0  0  0  0  0  0
  1  2  1  0
  2  3  1  0
  2  4  1  0
  4  5  1  0
  5  6  2  0
  5  7  2  0
  5  8  1  0
  8  9  2  0
  9 10  1  0
 10 11  2  0
 11 12  1  0
 11 13  1  0
 13 14  2  0
  2 15  1  0
 15 16  2  0
 15 17  1  0
 17 18  1  0
 18 19  2  0
 19 20  1  0
 20 21  2  0
 21 22  1  0
 22 23  3  0
 21 24  1  0
 24 25  1  0
 25 26  1  0
 25 27  1  0
 25 28  1  0
 24 29  2  0
 14  8  1  0
 29 18  1  0
  1 30  1  0
  1 31  1  0
  1 32  1  0
  3 33  1  0
  4 34  1  0
  4 35  1  0
  9 36  1  0
 10 37  1  0
 13 38  1  0
 14 39  1  0
 17 40  1  0
 19 41  1  0
 20 42  1  0
 29 43  1  0
M  END
$$$$
