
     RDKit          3D

 82 85  0  0  0  0  0  0  0  0999 V2000
    2.8420    2.2164    2.1498 C   0  0  0  0  0  0  0  0  0  0  0  0
    2.4102    1.0463    1.2500 C   0  0  2  0  0  0  0  0  0  0  0  0
    3.3112    0.9742    0.1010 N   0  0  0  0  0  0  0  0  0  0  0  0
    4.3700    0.0354    0.0381 C   0  0  0  0  0  0  0  0  0  0  0  0
    4.5361   -0.7445    1.0053 O   0  0  0  0  0  0  0  0  0  0  0  0
    5.2941   -0.0608   -1.1281 C   0  0  1  0  0  0  0  0  0  0  0  0
    5.8142    1.2758   -1.5875 C   0  0  0  0  0  0  0  0  0  0  0  0
    6.6547    1.7835   -0.5979 O   0  0  0  0  0  0  0  0  0  0  0  0
    6.3716   -0.9654   -0.8991 N   0  0  0  0  0  0  0  0  0  0  0  0
    6.5556   -2.2395   -1.4720 C   0  0  0  0  0  0  0  0  0  0  0  0
    5.6873   -2.6601   -2.2768 O   0  0  0  0  0  0  0  0  0  0  0  0
    7.7285   -3.0687   -1.1486 C   0  0  0  0  0  0  0  0  0  0  0  0
    8.7650   -2.7696   -0.3064 C   0  0  0  0  0  0  0  0  0  0  0  0
    9.7422   -3.6688   -0.1562 C   0  0  0  0  0  0  0  0  0  0  0  0
    9.6783   -4.8473   -0.8396 C   0  0  0  0  0  0  0  0  0  0  0  0
    8.1263   -4.6442   -1.7461 S   0  0  0  0  0  0  0  0  0  0  0  0
    1.0325    1.2699    0.7649 C   0  0  0  0  0  0  0  0  0  0  0  0
    0.8259    1.4534   -0.4462 O   0  0  0  0  0  0  0  0  0  0  0  0
   -0.0487    1.2748    1.6961 N   0  0  0  0  0  0  0  0  0  0  0  0
   -1.4245    1.5139    1.2793 C   0  0  0  0  0  0  0  0  0  0  0  0
   -2.2010    2.2586    2.2907 C   0  0  0  0  0  0  0  0  0  0  0  0
   -3.5844    2.5322    1.8468 C   0  0  0  0  0  0  0  0  0  0  0  0
   -3.8603    3.7309    1.1581 C   0  0  0  0  0  0  0  0  0  0  0  0
   -5.1239    4.0693    0.7380 C   0  0  0  0  0  0  0  0  0  0  0  0
   -6.1826    3.2197    0.9869 C   0  0  0  0  0  0  0  0  0  0  0  0
   -7.4592    3.6243    0.5330 N   0  0  0  0  0  0  0  0  0  0  0  0
   -7.7051    4.0504   -0.6373 C   0  0  0  0  0  0  0  0  0  0  0  0
   -6.6572    4.1414   -1.5816 N   0  0  0  0  0  0  0  0  0  0  0  0
   -9.0096    4.4420   -1.0225 N   0  0  0  0  0  0  0  0  0  0  0  0
   -5.9507    2.0469    1.6523 C   0  0  0  0  0  0  0  0  0  0  0  0
   -4.6668    1.7137    2.0736 C   0  0  0  0  0  0  0  0  0  0  0  0
   -2.1373   -0.1874    1.1253 P   0  0  0  0  0  5  0  0  0  0  0  0
   -2.3169   -0.8239    2.4629 O   0  0  0  0  0  0  0  0  0  0  0  0
   -3.5759   -0.0940    0.2146 O   0  0  0  0  0  0  0  0  0  0  0  0
   -3.6545   -0.7354   -1.0077 C   0  0  0  0  0  0  0  0  0  0  0  0
   -2.6827   -0.6496   -1.9808 C   0  0  0  0  0  0  0  0  0  0  0  0
   -2.7916   -1.3069   -3.1995 C   0  0  0  0  0  0  0  0  0  0  0  0
   -3.8947   -2.0816   -3.4841 C   0  0  0  0  0  0  0  0  0  0  0  0
   -4.8770   -2.1748   -2.5140 C   0  0  0  0  0  0  0  0  0  0  0  0
   -4.7739   -1.5225   -1.2980 C   0  0  0  0  0  0  0  0  0  0  0  0
   -1.0049   -1.1144    0.2078 O   0  0  0  0  0  0  0  0  0  0  0  0
   -0.6332   -2.3939    0.4808 C   0  0  0  0  0  0  0  0  0  0  0  0
   -1.5905   -3.3535    0.7108 C   0  0  0  0  0  0  0  0  0  0  0  0
   -1.2193   -4.6549    0.9875 C   0  0  0  0  0  0  0  0  0  0  0  0
    0.1154   -5.0353    1.0423 C   0  0  0  0  0  0  0  0  0  0  0  0
    1.0750   -4.0697    0.8108 C   0  0  0  0  0  0  0  0  0  0  0  0
    0.6922   -2.7659    0.5343 C   0  0  0  0  0  0  0  0  0  0  0  0
    2.1764    2.1907    3.0424 H   0  0  0  0  0  0  0  0  0  0  0  0
    2.8454    3.1715    1.6145 H   0  0  0  0  0  0  0  0  0  0  0  0
    3.8706    2.0289    2.5149 H   0  0  0  0  0  0  0  0  0  0  0  0
    2.4741    0.1663    1.9074 H   0  0  0  0  0  0  0  0  0  0  0  0
    3.1909    1.6201   -0.7049 H   0  0  0  0  0  0  0  0  0  0  0  0
    4.6625   -0.4658   -1.9877 H   0  0  0  0  0  0  0  0  0  0  0  0
    6.3719    1.1507   -2.5136 H   0  0  0  0  0  0  0  0  0  0  0  0
    4.9562    1.9864   -1.7575 H   0  0  0  0  0  0  0  0  0  0  0  0
    6.2061    1.8659    0.2814 H   0  0  0  0  0  0  0  0  0  0  0  0
    7.1260   -0.6489   -0.2210 H   0  0  0  0  0  0  0  0  0  0  0  0
    8.7611   -1.7920    0.2275 H   0  0  0  0  0  0  0  0  0  0  0  0
   10.6400   -3.5055    0.5149 H   0  0  0  0  0  0  0  0  0  0  0  0
   10.3070   -5.6915   -0.8863 H   0  0  0  0  0  0  0  0  0  0  0  0
    0.1540    1.1035    2.7029 H   0  0  0  0  0  0  0  0  0  0  0  0
   -1.4455    1.9414    0.2684 H   0  0  0  0  0  0  0  0  0  0  0  0
   -2.3040    1.6435    3.2368 H   0  0  0  0  0  0  0  0  0  0  0  0
   -1.6936    3.1862    2.6540 H   0  0  0  0  0  0  0  0  0  0  0  0
   -3.0667    4.4256    0.9411 H   0  0  0  0  0  0  0  0  0  0  0  0
   -5.2898    5.0014    0.2149 H   0  0  0  0  0  0  0  0  0  0  0  0
   -6.3850    5.0784   -1.9809 H   0  0  0  0  0  0  0  0  0  0  0  0
   -6.1145    3.3171   -1.9211 H   0  0  0  0  0  0  0  0  0  0  0  0
   -9.6223    3.8783   -1.6653 H   0  0  0  0  0  0  0  0  0  0  0  0
   -9.3903    5.3410   -0.6490 H   0  0  0  0  0  0  0  0  0  0  0  0
   -6.7972    1.3918    1.8380 H   0  0  0  0  0  0  0  0  0  0  0  0
   -4.5430    0.7827    2.5950 H   0  0  0  0  0  0  0  0  0  0  0  0
   -1.8106   -0.0300   -1.7409 H   0  0  0  0  0  0  0  0  0  0  0  0
   -1.9875   -1.2043   -3.9379 H   0  0  0  0  0  0  0  0  0  0  0  0
   -3.9584   -2.5849   -4.4405 H   0  0  0  0  0  0  0  0  0  0  0  0
   -5.7352   -2.7777   -2.7376 H   0  0  0  0  0  0  0  0  0  0  0  0
   -5.5444   -1.6021   -0.5464 H   0  0  0  0  0  0  0  0  0  0  0  0
   -2.6547   -3.1346    0.6856 H   0  0  0  0  0  0  0  0  0  0  0  0
   -1.9996   -5.3941    1.1643 H   0  0  0  0  0  0  0  0  0  0  0  0
    0.3949   -6.0519    1.2583 H   0  0  0  0  0  0  0  0  0  0  0  0
    2.1092   -4.3727    0.8545 H   0  0  0  0  0  0  0  0  0  0  0  0
    1.4942   -2.0561    0.3626 H   0  0  0  0  0  0  0  0  0  0  0  0
  1  2  1  0
  2  3  1  0
  3  4  1  0
  4  5  2  0
  4  6  1  0
  6  7  1  0
  7  8  1  0
  6  9  1  0
  9 10  1  0
 10 11  2  0
 10 12  1  0
 12 13  2  0
 13 14  1  0
 14 15  2  0
 15 16  1  0
  2 17  1  0
 17 18  2  0
 17 19  1  0
 19 20  1  0
 20 21  1  0
 21 22  1  0
 22 23  2  0
 23 24  1  0
 24 25  2  0
 25 26  1  0
 26 27  2  3
 27 28  1  0
 27 29  1  0
 25 30  1  0
 30 31  2  0
 20 32  1  0
 32 33  2  0
 32 34  1  0
 34 35  1  0
 35 36  2  0
 36 37  1  0
 37 38  2  0
 38 39  1  0
 39 40  2  0
 32 41  1  0
 41 42  1  0
 42 43  2  0
 43 44  1  0
 44 45  2  0
 45 46  1  0
 46 47  2  0
 16 12  1  0
 31 22  1  0
 40 35  1  0
 47 42  1  0
  1 48  1  0
  1 49  1  0
  1 50  1  0
  2 51  1  1
  3 52  1  0
  6 53  1  6
  7 54  1  0
  7 55  1  0
  8 56  1  0
  9 57  1  0
 13 58  1  0
 14 59  1  0
 15 60  1  0
 19 61  1  0
 20 62  1  0
 21 63  1  0
 21 64  1  0
 23 65  1  0
 24 66  1  0
 28 67  1  0
 28 68  1  0
 29 69  1  0
 29 70  1  0
 30 71  1  0
 31 72  1  0
 36 73  1  0
 37 74  1  0
 38 75  1  0
 39 76  1  0
 40 77  1  0
 43 78  1  0
 44 79  1  0
 45 80  1  0
 46 81  1  0
 47 82  1  0
M  END
$$$$
