
     RDKit          3D

 50 52  0  0  0  0  0  0  0  0999 V2000
   -5.6239    2.7330   -2.4844 C   0  0  0  0  0  0  0  0  0  0  0  0
   -5.8560    1.4321   -1.8079 C   0  0  0  0  0  0  0  0  0  0  0  0
   -5.0149    0.3359   -2.0261 C   0  0  0  0  0  0  0  0  0  0  0  0
   -5.1971   -0.8758   -1.4210 C   0  0  0  0  0  0  0  0  0  0  0  0
   -4.3338   -2.0662   -1.6054 C   0  0  0  0  0  0  0  0  0  0  0  0
   -3.3311   -2.0833   -0.5762 N   0  0  0  0  0  0  0  0  0  0  0  0
   -2.1663   -1.2711   -0.5599 C   0  0  0  0  0  0  0  0  0  0  0  0
   -1.9695   -0.4725   -1.5008 O   0  0  0  0  0  0  0  0  0  0  0  0
   -1.2036   -1.3519    0.5277 C   0  0  0  0  0  0  0  0  0  0  0  0
   -0.0986   -0.5316    0.4900 C   0  0  0  0  0  0  0  0  0  0  0  0
    0.8606   -0.5316    1.4671 C   0  0  0  0  0  0  0  0  0  0  0  0
    2.0094    0.3688    1.3689 C   0  0  0  0  0  0  0  0  0  0  0  0
    2.0874    1.1216    0.3770 O   0  0  0  0  0  0  0  0  0  0  0  0
    3.0017    0.3828    2.3724 N   0  0  0  0  0  0  0  0  0  0  0  0
    4.1460    1.2368    2.3328 C   0  0  0  0  0  0  0  0  0  0  0  0
    5.1414    0.6784    1.3862 C   0  0  0  0  0  0  0  0  0  0  0  0
    6.0573   -0.2854    1.8069 C   0  0  0  0  0  0  0  0  0  0  0  0
    7.0106   -0.8341    1.0048 C   0  0  0  0  0  0  0  0  0  0  0  0
    7.0642   -0.3953   -0.3222 C   0  0  0  0  0  0  0  0  0  0  0  0
    7.9860   -0.9018   -1.1628 F   0  0  0  0  0  0  0  0  0  0  0  0
    6.1927    0.5492   -0.7967 C   0  0  0  0  0  0  0  0  0  0  0  0
    6.2710    0.9982   -2.2047 C   0  0  0  0  0  0  0  0  0  0  0  0
    5.2359    1.0743    0.0789 C   0  0  0  0  0  0  0  0  0  0  0  0
    0.6998   -1.3738    2.4977 N   0  0  0  0  0  0  0  0  0  0  0  0
   -0.3734   -2.1880    2.5589 C   0  0  0  0  0  0  0  0  0  0  0  0
   -1.3180   -2.1751    1.5785 N   0  0  0  0  0  0  0  0  0  0  0  0
   -6.2865   -0.9843   -0.5508 C   0  0  0  0  0  0  0  0  0  0  0  0
   -7.1181    0.0928   -0.3326 C   0  0  0  0  0  0  0  0  0  0  0  0
   -6.9253    1.3123   -0.9483 C   0  0  0  0  0  0  0  0  0  0  0  0
   -7.7540    2.3594   -0.7205 F   0  0  0  0  0  0  0  0  0  0  0  0
   -4.5261    2.8592   -2.6892 H   0  0  0  0  0  0  0  0  0  0  0  0
   -6.1143    2.7133   -3.4960 H   0  0  0  0  0  0  0  0  0  0  0  0
   -5.9409    3.5920   -1.8960 H   0  0  0  0  0  0  0  0  0  0  0  0
   -4.2008    0.4649   -2.7043 H   0  0  0  0  0  0  0  0  0  0  0  0
   -3.8606   -2.0291   -2.6311 H   0  0  0  0  0  0  0  0  0  0  0  0
   -4.9250   -3.0105   -1.6231 H   0  0  0  0  0  0  0  0  0  0  0  0
   -3.4132   -2.7362    0.2669 H   0  0  0  0  0  0  0  0  0  0  0  0
    0.0244    0.1500   -0.3517 H   0  0  0  0  0  0  0  0  0  0  0  0
    2.9099   -0.2635    3.1999 H   0  0  0  0  0  0  0  0  0  0  0  0
    4.5822    1.4314    3.3354 H   0  0  0  0  0  0  0  0  0  0  0  0
    3.8934    2.2622    1.9300 H   0  0  0  0  0  0  0  0  0  0  0  0
    5.9835   -0.5976    2.8384 H   0  0  0  0  0  0  0  0  0  0  0  0
    7.7245   -1.5793    1.3161 H   0  0  0  0  0  0  0  0  0  0  0  0
    5.3233    1.4425   -2.5604 H   0  0  0  0  0  0  0  0  0  0  0  0
    7.0620    1.7672   -2.3326 H   0  0  0  0  0  0  0  0  0  0  0  0
    6.5519    0.1523   -2.8766 H   0  0  0  0  0  0  0  0  0  0  0  0
    4.5836    1.8184   -0.3453 H   0  0  0  0  0  0  0  0  0  0  0  0
   -0.4511   -2.8449    3.4118 H   0  0  0  0  0  0  0  0  0  0  0  0
   -6.4360   -1.9450   -0.0675 H   0  0  0  0  0  0  0  0  0  0  0  0
   -7.9647   -0.0010    0.3474 H   0  0  0  0  0  0  0  0  0  0  0  0
  1  2  1  0
  2  3  2  0
  3  4  1  0
  4  5  1  0
  5  6  1  0
  6  7  1  0
  7  8  2  0
  7  9  1  0
  9 10  2  0
 10 11  1  0
 11 12  1  0
 12 13  2  0
 12 14  1  0
 14 15  1  0
 15 16  1  0
 16 17  2  0
 17 18  1  0
 18 19  2  0
 19 20  1  0
 19 21  1  0
 21 22  1  0
 21 23  2  0
 11 24  2  0
 24 25  1  0
 25 26  2  0
  4 27  2  0
 27 28  1  0
 28 29  2  0
 29 30  1  0
 29  2  1  0
 26  9  1  0
 23 16  1  0
  1 31  1  0
  1 32  1  0
  1 33  1  0
  3 34  1  0
  5 35  1  0
  5 36  1  0
  6 37  1  0
 10 38  1  0
 14 39  1  0
 15 40  1  0
 15 41  1  0
 17 42  1  0
 18 43  1  0
 22 44  1  0
 22 45  1  0
 22 46  1  0
 23 47  1  0
 25 48  1  0
 27 49  1  0
 28 50  1  0
M  END
$$$$
