
     RDKit          3D

 50 52  0  0  0  0  0  0  0  0999 V2000
    1.8295    2.2615   -2.8276 C   0  0  0  0  0  0  0  0  0  0  0  0
    2.4365    1.3686   -1.9275 O   0  0  0  0  0  0  0  0  0  0  0  0
    1.6397    0.6374   -1.0252 C   0  0  0  0  0  0  0  0  0  0  0  0
    0.2582    0.8046   -1.0318 C   0  0  0  0  0  0  0  0  0  0  0  0
   -0.5297    0.0878   -0.1465 C   0  0  0  0  0  0  0  0  0  0  0  0
   -1.9613    0.3070   -0.1540 C   0  0  0  0  0  0  0  0  0  0  0  0
   -2.4850    1.5923    0.0526 C   0  0  0  0  0  0  0  0  0  0  0  0
   -3.8096    1.7825    0.0819 N   0  0  0  0  0  0  0  0  0  0  0  0
   -4.3335    3.1165    0.2964 C   0  0  0  0  0  0  0  0  0  0  0  0
   -4.6453    0.7439   -0.0865 C   0  0  0  0  0  0  0  0  0  0  0  0
   -5.8905    0.9243   -0.0581 O   0  0  0  0  0  0  0  0  0  0  0  0
   -4.2026   -0.5500   -0.2954 C   0  0  0  0  0  0  0  0  0  0  0  0
   -5.0588   -1.5926   -0.4744 C   0  0  0  0  0  0  0  0  0  0  0  0
   -4.6066   -2.8601   -0.6901 C   0  0  0  0  0  0  0  0  0  0  0  0
   -3.2510   -3.0990   -0.7294 C   0  0  0  0  0  0  0  0  0  0  0  0
   -2.3758   -2.0176   -0.5436 C   0  0  0  0  0  0  0  0  0  0  0  0
   -2.8162   -0.7521   -0.3269 C   0  0  0  0  0  0  0  0  0  0  0  0
    0.0720   -0.7829    0.7304 C   0  0  0  0  0  0  0  0  0  0  0  0
    1.4447   -0.9619    0.7507 C   0  0  0  0  0  0  0  0  0  0  0  0
    2.0220   -1.8509    1.6499 O   0  0  0  0  0  0  0  0  0  0  0  0
    1.1754   -2.5562    2.5304 C   0  0  0  0  0  0  0  0  0  0  0  0
    2.2394   -0.2373   -0.1444 C   0  0  0  0  0  0  0  0  0  0  0  0
    3.6897   -0.4418   -0.1041 C   0  0  0  0  0  0  0  0  0  0  0  0
    4.4058    0.6302    0.5393 N   0  0  0  0  0  0  0  0  0  0  0  0
    5.8183    0.2970    0.5092 C   0  0  0  0  0  0  0  0  0  0  0  0
    4.0306    0.8099    1.9200 C   0  0  0  0  0  0  0  0  0  0  0  0
    1.3299    3.0445   -2.2149 H   0  0  0  0  0  0  0  0  0  0  0  0
    2.6750    2.7884   -3.3603 H   0  0  0  0  0  0  0  0  0  0  0  0
    1.1707    1.7938   -3.5612 H   0  0  0  0  0  0  0  0  0  0  0  0
   -0.1440    1.5012   -1.7431 H   0  0  0  0  0  0  0  0  0  0  0  0
   -1.7707    2.3924    0.1824 H   0  0  0  0  0  0  0  0  0  0  0  0
   -3.5119    3.8071    0.5752 H   0  0  0  0  0  0  0  0  0  0  0  0
   -4.8617    3.4963   -0.6067 H   0  0  0  0  0  0  0  0  0  0  0  0
   -5.0482    3.0570    1.1602 H   0  0  0  0  0  0  0  0  0  0  0  0
   -6.1265   -1.3674   -0.4373 H   0  0  0  0  0  0  0  0  0  0  0  0
   -5.3072   -3.6724   -0.8294 H   0  0  0  0  0  0  0  0  0  0  0  0
   -2.8201   -4.0664   -0.8944 H   0  0  0  0  0  0  0  0  0  0  0  0
   -1.3168   -2.2127   -0.5904 H   0  0  0  0  0  0  0  0  0  0  0  0
   -0.5189   -1.3655    1.4573 H   0  0  0  0  0  0  0  0  0  0  0  0
    0.6438   -1.8141    3.1481 H   0  0  0  0  0  0  0  0  0  0  0  0
    0.3812   -3.1228    1.9632 H   0  0  0  0  0  0  0  0  0  0  0  0
    1.7134   -3.3196    3.1175 H   0  0  0  0  0  0  0  0  0  0  0  0
    4.0588   -0.4941   -1.1492 H   0  0  0  0  0  0  0  0  0  0  0  0
    3.9039   -1.3806    0.4403 H   0  0  0  0  0  0  0  0  0  0  0  0
    6.1022   -0.2474   -0.4131 H   0  0  0  0  0  0  0  0  0  0  0  0
    6.0056   -0.4298    1.3469 H   0  0  0  0  0  0  0  0  0  0  0  0
    6.4546    1.1704    0.7074 H   0  0  0  0  0  0  0  0  0  0  0  0
    4.2617   -0.0372    2.5684 H   0  0  0  0  0  0  0  0  0  0  0  0
    2.9780    1.1451    2.0418 H   0  0  0  0  0  0  0  0  0  0  0  0
    4.6512    1.6729    2.2974 H   0  0  0  0  0  0  0  0  0  0  0  0
  1  2  1  0
  2  3  1  0
  3  4  2  0
  4  5  1  0
  5  6  1  0
  6  7  2  0
  7  8  1  0
  8  9  1  0
  8 10  1  0
 10 11  2  0
 10 12  1  0
 12 13  2  0
 13 14  1  0
 14 15  2  0
 15 16  1  0
 16 17  2  0
  5 18  2  0
 18 19  1  0
 19 20  1  0
 20 21  1  0
 19 22  2  0
 22 23  1  0
 23 24  1  0
 24 25  1  0
 24 26  1  0
 22  3  1  0
 17  6  1  0
 17 12  1  0
  1 27  1  0
  1 28  1  0
  1 29  1  0
  4 30  1  0
  7 31  1  0
  9 32  1  0
  9 33  1  0
  9 34  1  0
 13 35  1  0
 14 36  1  0
 15 37  1  0
 16 38  1  0
 18 39  1  0
 21 40  1  0
 21 41  1  0
 21 42  1  0
 23 43  1  0
 23 44  1  0
 25 45  1  0
 25 46  1  0
 25 47  1  0
 26 48  1  0
 26 49  1  0
 26 50  1  0
M  END
$$$$
