
     RDKit          3D

 42 44  0  0  0  0  0  0  0  0999 V2000
   -2.0299   -2.3876   -0.6142 C   0  0  0  0  0  0  0  0  0  0  0  0
   -2.9396   -1.2389   -0.3453 C   0  0  1  0  0  0  0  0  0  0  0  0
   -3.5091   -1.2275    0.9042 O   0  0  0  0  0  0  0  0  0  0  0  0
   -2.6732   -1.1075    1.9696 C   0  0  0  0  0  0  0  0  0  0  0  0
   -1.6048   -0.0565    1.8533 C   0  0  0  0  0  0  0  0  0  0  0  0
   -1.3017    0.3207    0.5206 N   0  0  0  0  0  0  0  0  0  0  0  0
   -0.0351    0.8898    0.2205 C   0  0  0  0  0  0  0  0  0  0  0  0
    1.0235    0.1005   -0.0584 N   0  0  0  0  0  0  0  0  0  0  0  0
    2.2630    0.5150   -0.3579 C   0  0  0  0  0  0  0  0  0  0  0  0
    3.2445   -0.5177   -0.6203 C   0  0  0  0  0  0  0  0  0  0  0  0
    2.8892   -1.8623   -0.5642 C   0  0  0  0  0  0  0  0  0  0  0  0
    3.7504   -2.8975   -0.7946 C   0  0  0  0  0  0  0  0  0  0  0  0
    5.0313   -2.5629   -1.0959 N   0  0  0  0  0  0  0  0  0  0  0  0
    5.4502   -1.3071   -1.1694 C   0  0  0  0  0  0  0  0  0  0  0  0
    4.5522   -0.2712   -0.9303 C   0  0  0  0  0  0  0  0  0  0  0  0
    5.0440    0.9652   -1.0225 F   0  0  0  0  0  0  0  0  0  0  0  0
    2.4835    1.8613   -0.3856 C   0  0  0  0  0  0  0  0  0  0  0  0
    1.4078    2.7059   -0.1013 C   0  0  0  0  0  0  0  0  0  0  0  0
    1.5762    3.9559   -0.1179 O   0  0  0  0  0  0  0  0  0  0  0  0
    0.1895    2.2240    0.1916 N   0  0  0  0  0  0  0  0  0  0  0  0
   -0.9169    3.1224    0.4806 C   0  0  0  0  0  0  0  0  0  0  0  0
   -2.2633    0.1140   -0.5341 C   0  0  2  0  0  0  0  0  0  0  0  0
   -3.3752    1.1387   -0.3758 C   0  0  0  0  0  0  0  0  0  0  0  0
   -2.3214   -3.2166    0.0801 H   0  0  0  0  0  0  0  0  0  0  0  0
   -2.1283   -2.8148   -1.6392 H   0  0  0  0  0  0  0  0  0  0  0  0
   -0.9661   -2.1915   -0.4147 H   0  0  0  0  0  0  0  0  0  0  0  0
   -3.7663   -1.2685   -1.0851 H   0  0  0  0  0  0  0  0  0  0  0  0
   -2.1738   -2.0838    2.1383 H   0  0  0  0  0  0  0  0  0  0  0  0
   -3.3107   -0.9447    2.8766 H   0  0  0  0  0  0  0  0  0  0  0  0
   -1.9186    0.7892    2.4913 H   0  0  0  0  0  0  0  0  0  0  0  0
   -0.6455   -0.4283    2.3211 H   0  0  0  0  0  0  0  0  0  0  0  0
    1.8735   -2.1027   -0.3245 H   0  0  0  0  0  0  0  0  0  0  0  0
    3.4727   -3.9374   -0.7506 H   0  0  0  0  0  0  0  0  0  0  0  0
    6.4951   -1.1256   -1.4174 H   0  0  0  0  0  0  0  0  0  0  0  0
    3.4402    2.2550   -0.6155 H   0  0  0  0  0  0  0  0  0  0  0  0
   -1.6154    2.7639    1.2346 H   0  0  0  0  0  0  0  0  0  0  0  0
   -0.4232    4.0252    0.9563 H   0  0  0  0  0  0  0  0  0  0  0  0
   -1.3782    3.5189   -0.4382 H   0  0  0  0  0  0  0  0  0  0  0  0
   -1.8547    0.2375   -1.5369 H   0  0  0  0  0  0  0  0  0  0  0  0
   -3.4853    1.3157    0.7177 H   0  0  0  0  0  0  0  0  0  0  0  0
   -4.3567    0.6701   -0.6848 H   0  0  0  0  0  0  0  0  0  0  0  0
   -3.1935    2.0616   -0.9619 H   0  0  0  0  0  0  0  0  0  0  0  0
  1  2  1  0
  2  3  1  0
  3  4  1  0
  4  5  1  0
  5  6  1  0
  6  7  1  0
  7  8  2  0
  8  9  1  0
  9 10  1  0
 10 11  2  0
 11 12  1  0
 12 13  2  0
 13 14  1  0
 14 15  2  0
 15 16  1  0
  9 17  2  0
 17 18  1  0
 18 19  2  0
 18 20  1  0
 20 21  1  0
  6 22  1  0
 22 23  1  0
 22  2  1  0
 20  7  1  0
 15 10  1  0
  1 24  1  0
  1 25  1  0
  1 26  1  0
  2 27  1  6
  4 28  1  0
  4 29  1  0
  5 30  1  0
  5 31  1  0
 11 32  1  0
 12 33  1  0
 14 34  1  0
 17 35  1  0
 21 36  1  0
 21 37  1  0
 21 38  1  0
 22 39  1  6
 23 40  1  0
 23 41  1  0
 23 42  1  0
M  END
$$$$
