
     RDKit          3D

 37 39  0  0  0  0  0  0  0  0999 V2000
    7.1643    1.1270    0.4073 Cl  0  0  0  0  0  0  0  0  0  0  0  0
    5.4283    0.9099    0.3707 C   0  0  0  0  0  0  0  0  0  0  0  0
    4.9048   -0.1564   -0.3233 C   0  0  0  0  0  0  0  0  0  0  0  0
    3.5175   -0.3349   -0.3559 C   0  0  0  0  0  0  0  0  0  0  0  0
    2.6252    0.4938    0.2689 C   0  0  0  0  0  0  0  0  0  0  0  0
    0.8820    0.3380    0.3458 S   0  0  0  0  0  0  0  0  0  0  0  0
    0.1439   -1.1784   -0.0368 C   0  0  0  0  0  0  0  0  0  0  0  0
    0.8025   -2.3767   -0.0871 C   0  0  0  0  0  0  0  0  0  0  0  0
    0.1033   -3.5330   -0.4521 C   0  0  0  0  0  0  0  0  0  0  0  0
   -1.2304   -3.5361   -0.7677 C   0  0  0  0  0  0  0  0  0  0  0  0
   -1.8885   -2.3100   -0.7110 C   0  0  0  0  0  0  0  0  0  0  0  0
   -1.2286   -1.1594   -0.3569 C   0  0  0  0  0  0  0  0  0  0  0  0
   -1.9810    0.0400   -0.3269 N   0  0  0  0  0  0  0  0  0  0  0  0
   -2.1743    0.8672    0.8232 C   0  0  0  0  0  0  0  0  0  0  0  0
   -2.3482    2.2994    0.2971 C   0  0  0  0  0  0  0  0  0  0  0  0
   -3.5902    2.3580   -0.4270 N   0  0  0  0  0  0  0  0  0  0  0  0
   -3.9009    1.1730   -1.1622 C   0  0  0  0  0  0  0  0  0  0  0  0
   -2.6205    0.4808   -1.5758 C   0  0  0  0  0  0  0  0  0  0  0  0
    3.2127    1.5681    0.9631 C   0  0  0  0  0  0  0  0  0  0  0  0
    4.5688    1.7714    1.0138 C   0  0  0  0  0  0  0  0  0  0  0  0
    5.5503   -0.8531   -0.8403 H   0  0  0  0  0  0  0  0  0  0  0  0
    3.1162   -1.1553   -0.9326 H   0  0  0  0  0  0  0  0  0  0  0  0
    1.8325   -2.5453    0.1585 H   0  0  0  0  0  0  0  0  0  0  0  0
    0.6127   -4.4824   -0.4960 H   0  0  0  0  0  0  0  0  0  0  0  0
   -1.7573   -4.4372   -1.0480 H   0  0  0  0  0  0  0  0  0  0  0  0
   -2.9455   -2.3418   -0.9656 H   0  0  0  0  0  0  0  0  0  0  0  0
   -3.0984    0.5971    1.3806 H   0  0  0  0  0  0  0  0  0  0  0  0
   -1.3351    0.7988    1.5169 H   0  0  0  0  0  0  0  0  0  0  0  0
   -2.3761    2.9866    1.1416 H   0  0  0  0  0  0  0  0  0  0  0  0
   -1.4669    2.5688   -0.3227 H   0  0  0  0  0  0  0  0  0  0  0  0
   -4.3468    2.5750    0.2886 H   0  0  0  0  0  0  0  0  0  0  0  0
   -4.5151    1.3376   -2.0539 H   0  0  0  0  0  0  0  0  0  0  0  0
   -4.4557    0.4530   -0.5142 H   0  0  0  0  0  0  0  0  0  0  0  0
   -1.9089    1.1552   -2.0846 H   0  0  0  0  0  0  0  0  0  0  0  0
   -2.8605   -0.3563   -2.2361 H   0  0  0  0  0  0  0  0  0  0  0  0
    2.5416    2.2606    1.4786 H   0  0  0  0  0  0  0  0  0  0  0  0
    5.0225    2.5972    1.5474 H   0  0  0  0  0  0  0  0  0  0  0  0
  1  2  1  0
  2  3  2  0
  3  4  1  0
  4  5  2  0
  5  6  1  0
  6  7  1  0
  7  8  2  0
  8  9  1  0
  9 10  2  0
 10 11  1  0
 11 12  2  0
 12 13  1  0
 13 14  1  0
 14 15  1  0
 15 16  1  0
 16 17  1  0
 17 18  1  0
  5 19  1  0
 19 20  2  0
 20  2  1  0
 12  7  1  0
 18 13  1  0
  3 21  1  0
  4 22  1  0
  8 23  1  0
  9 24  1  0
 10 25  1  0
 11 26  1  0
 14 27  1  0
 14 28  1  0
 15 29  1  0
 15 30  1  0
 16 31  1  0
 17 32  1  0
 17 33  1  0
 18 34  1  0
 18 35  1  0
 19 36  1  0
 20 37  1  0
M  END
$$$$
