
     RDKit          3D

 61 64  0  0  0  0  0  0  0  0999 V2000
   -8.1625    2.5051    1.5102 C   0  0  0  0  0  0  0  0  0  0  0  0
   -7.3254    3.0472    0.5351 O   0  0  0  0  0  0  0  0  0  0  0  0
   -5.9914    2.6948    0.3894 C   0  0  0  0  0  0  0  0  0  0  0  0
   -5.2053    3.2604   -0.5919 C   0  0  0  0  0  0  0  0  0  0  0  0
   -3.8774    2.8945   -0.7194 C   0  0  0  0  0  0  0  0  0  0  0  0
   -3.3004    1.9626    0.1203 C   0  0  0  0  0  0  0  0  0  0  0  0
   -1.9226    1.6377    0.0083 C   0  0  0  0  0  0  0  0  0  0  0  0
   -1.1857    2.6368   -0.3783 O   0  0  0  0  0  0  0  0  0  0  0  0
   -1.2306    0.4081    0.2533 C   0  0  0  0  0  0  0  0  0  0  0  0
    0.1179    0.2962    0.6144 C   0  0  0  0  0  0  0  0  0  0  0  0
    1.0085    1.4297    0.8434 C   0  0  0  0  0  0  0  0  0  0  0  0
    0.4499   -1.0023    0.7235 N   0  0  0  0  0  0  0  0  0  0  0  0
    1.7642   -1.4619    1.1054 C   0  0  0  0  0  0  0  0  0  0  0  0
    2.7264   -1.5919   -0.0096 C   0  0  0  0  0  0  0  0  0  0  0  0
    3.6579   -0.5881   -0.2014 C   0  0  0  0  0  0  0  0  0  0  0  0
    4.5759   -0.5962   -1.1949 C   0  0  0  0  0  0  0  0  0  0  0  0
    5.5270    0.3847   -1.4262 O   0  0  0  0  0  0  0  0  0  0  0  0
    5.7219    1.5493   -0.6973 C   0  0  1  0  0  0  0  0  0  0  0  0
    7.1277    1.5815   -0.1088 C   0  0  0  0  0  0  0  0  0  0  0  0
    5.5402    2.7228   -1.5860 C   0  0  0  0  0  0  0  0  0  0  0  0
    5.2562    2.5462   -2.7864 O   0  0  0  0  0  0  0  0  0  0  0  0
    5.6873    4.0102   -1.0764 O   0  0  0  0  0  0  0  0  0  0  0  0
    4.5955   -1.6666   -2.0792 C   0  0  0  0  0  0  0  0  0  0  0  0
    3.6729   -2.6673   -1.8938 C   0  0  0  0  0  0  0  0  0  0  0  0
    2.7322   -2.6531   -0.8706 C   0  0  0  0  0  0  0  0  0  0  0  0
    1.8545   -3.7009   -0.7439 F   0  0  0  0  0  0  0  0  0  0  0  0
   -0.6153   -1.7724    0.4522 C   0  0  0  0  0  0  0  0  0  0  0  0
   -0.8256   -3.0958    0.4153 N   0  0  0  0  0  0  0  0  0  0  0  0
   -1.9874   -3.6880    0.1100 C   0  0  0  0  0  0  0  0  0  0  0  0
   -2.1338   -5.0840    0.0923 O   0  0  0  0  0  0  0  0  0  0  0  0
   -1.0303   -5.9139    0.4043 C   0  0  0  0  0  0  0  0  0  0  0  0
   -3.0349   -2.8506   -0.1869 C   0  0  0  0  0  0  0  0  0  0  0  0
   -2.8774   -1.4702   -0.1645 C   0  0  0  0  0  0  0  0  0  0  0  0
   -1.6698   -0.8887    0.1561 C   0  0  0  0  0  0  0  0  0  0  0  0
   -4.1010    1.4125    1.0898 C   0  0  0  0  0  0  0  0  0  0  0  0
   -5.4371    1.7610    1.2408 C   0  0  0  0  0  0  0  0  0  0  0  0
   -7.6651    2.5298    2.5113 H   0  0  0  0  0  0  0  0  0  0  0  0
   -9.1242    3.0391    1.5286 H   0  0  0  0  0  0  0  0  0  0  0  0
   -8.4077    1.4225    1.3218 H   0  0  0  0  0  0  0  0  0  0  0  0
   -5.6700    3.9881   -1.2416 H   0  0  0  0  0  0  0  0  0  0  0  0
   -3.2525    3.3416   -1.4964 H   0  0  0  0  0  0  0  0  0  0  0  0
    1.6049    1.6682   -0.0618 H   0  0  0  0  0  0  0  0  0  0  0  0
    1.7698    1.1275    1.6265 H   0  0  0  0  0  0  0  0  0  0  0  0
    0.5122    2.3734    1.1444 H   0  0  0  0  0  0  0  0  0  0  0  0
    1.7136   -2.4733    1.5975 H   0  0  0  0  0  0  0  0  0  0  0  0
    2.2293   -0.8179    1.8981 H   0  0  0  0  0  0  0  0  0  0  0  0
    3.6553    0.2445    0.4758 H   0  0  0  0  0  0  0  0  0  0  0  0
    5.0350    1.6989    0.1577 H   0  0  0  0  0  0  0  0  0  0  0  0
    7.3116    0.5684    0.3202 H   0  0  0  0  0  0  0  0  0  0  0  0
    7.8462    1.7904   -0.9115 H   0  0  0  0  0  0  0  0  0  0  0  0
    7.1336    2.3407    0.6921 H   0  0  0  0  0  0  0  0  0  0  0  0
    5.7152    4.7636   -1.7679 H   0  0  0  0  0  0  0  0  0  0  0  0
    5.3168   -1.7187   -2.8973 H   0  0  0  0  0  0  0  0  0  0  0  0
    3.6533   -3.5343   -2.5718 H   0  0  0  0  0  0  0  0  0  0  0  0
   -1.1718   -6.4831    1.3398 H   0  0  0  0  0  0  0  0  0  0  0  0
   -0.1126   -5.2744    0.5588 H   0  0  0  0  0  0  0  0  0  0  0  0
   -0.7802   -6.5715   -0.4569 H   0  0  0  0  0  0  0  0  0  0  0  0
   -3.9912   -3.2795   -0.4403 H   0  0  0  0  0  0  0  0  0  0  0  0
   -3.6954   -0.8154   -0.4192 H   0  0  0  0  0  0  0  0  0  0  0  0
   -3.6613    0.6823    1.7531 H   0  0  0  0  0  0  0  0  0  0  0  0
   -6.0671    1.3396    1.9904 H   0  0  0  0  0  0  0  0  0  0  0  0
  1  2  1  0
  2  3  1  0
  3  4  2  0
  4  5  1  0
  5  6  2  0
  6  7  1  0
  7  8  2  0
  7  9  1  0
  9 10  2  0
 10 11  1  0
 10 12  1  0
 12 13  1  0
 13 14  1  0
 14 15  2  0
 15 16  1  0
 16 17  1  0
 17 18  1  0
 18 19  1  0
 18 20  1  0
 20 21  2  0
 20 22  1  0
 16 23  2  0
 23 24  1  0
 24 25  2  0
 25 26  1  0
 12 27  1  0
 27 28  2  0
 28 29  1  0
 29 30  1  0
 30 31  1  0
 29 32  2  0
 32 33  1  0
 33 34  2  0
  6 35  1  0
 35 36  2  0
 36  3  1  0
 34  9  1  0
 25 14  1  0
 34 27  1  0
  1 37  1  0
  1 38  1  0
  1 39  1  0
  4 40  1  0
  5 41  1  0
 11 42  1  0
 11 43  1  0
 11 44  1  0
 13 45  1  0
 13 46  1  0
 15 47  1  0
 18 48  1  1
 19 49  1  0
 19 50  1  0
 19 51  1  0
 22 52  1  0
 23 53  1  0
 24 54  1  0
 31 55  1  0
 31 56  1  0
 31 57  1  0
 32 58  1  0
 33 59  1  0
 35 60  1  0
 36 61  1  0
M  END
$$$$
