
     RDKit          3D

 50 54  0  0  0  0  0  0  0  0999 V2000
    3.5153   -2.0452    0.9080 O   0  0  0  0  0  0  0  0  0  0  0  0
    3.6507   -0.9572    0.2746 C   0  0  0  0  0  0  0  0  0  0  0  0
    2.5664   -0.0675    0.2411 N   0  0  0  0  0  0  0  0  0  0  0  0
    1.3009   -0.2454    0.8487 C   0  0  0  0  0  0  0  0  0  0  0  0
    0.9363   -1.3397    1.5784 C   0  0  0  0  0  0  0  0  0  0  0  0
   -0.3533   -1.3682    2.1164 C   0  0  0  0  0  0  0  0  0  0  0  0
   -1.2460   -0.3362    1.9295 C   0  0  0  0  0  0  0  0  0  0  0  0
   -0.8991    0.7787    1.1959 C   0  0  0  0  0  0  0  0  0  0  0  0
   -1.8120    1.8939    0.9730 C   0  0  0  0  0  0  0  0  0  0  0  0
   -1.3954    3.2155    1.1108 C   0  0  0  0  0  0  0  0  0  0  0  0
   -2.2907    4.2416    0.8908 C   0  0  0  0  0  0  0  0  0  0  0  0
   -3.5648    3.9822    0.5439 N   0  0  0  0  0  0  0  0  0  0  0  0
   -3.9485    2.6825    0.4155 C   0  0  0  0  0  0  0  0  0  0  0  0
   -5.1513    2.0805    0.0810 C   0  0  0  0  0  0  0  0  0  0  0  0
   -4.9910    0.7119    0.0971 C   0  0  0  0  0  0  0  0  0  0  0  0
   -6.0273   -0.2885   -0.2005 C   0  0  0  0  0  0  0  0  0  0  0  0
   -7.3072    0.0954   -0.5363 C   0  0  0  0  0  0  0  0  0  0  0  0
   -8.2515   -0.8852   -0.8088 C   0  0  0  0  0  0  0  0  0  0  0  0
   -7.9525   -2.2040   -0.7545 N   0  0  0  0  0  0  0  0  0  0  0  0
   -6.7014   -2.6121   -0.4269 C   0  0  0  0  0  0  0  0  0  0  0  0
   -5.7622   -1.6396   -0.1559 C   0  0  0  0  0  0  0  0  0  0  0  0
   -3.7088    0.4981    0.4368 N   0  0  0  0  0  0  0  0  0  0  0  0
   -3.0851    1.6634    0.6270 N   0  0  0  0  0  0  0  0  0  0  0  0
    0.3708    0.7945    0.6728 C   0  0  0  0  0  0  0  0  0  0  0  0
    4.9402   -0.6829   -0.3940 C   0  0  0  0  0  0  0  0  0  0  0  0
    5.1588    0.4695   -1.0955 C   0  0  0  0  0  0  0  0  0  0  0  0
    6.3867    0.7209   -1.7269 C   0  0  0  0  0  0  0  0  0  0  0  0
    7.4035   -0.2016   -1.6485 C   0  0  0  0  0  0  0  0  0  0  0  0
    7.1834   -1.3719   -0.9369 C   0  0  0  0  0  0  0  0  0  0  0  0
    8.2960   -2.3501   -0.8676 C   0  0  0  0  0  0  0  0  0  0  0  0
    9.0616   -2.0626    0.2631 F   0  0  0  0  0  0  0  0  0  0  0  0
    7.8429   -3.6397   -0.7494 F   0  0  0  0  0  0  0  0  0  0  0  0
    9.1014   -2.2379   -1.9770 F   0  0  0  0  0  0  0  0  0  0  0  0
    5.9707   -1.6022   -0.3228 C   0  0  0  0  0  0  0  0  0  0  0  0
    2.7507    0.8347   -0.3133 H   0  0  0  0  0  0  0  0  0  0  0  0
    1.5837   -2.1766    1.7611 H   0  0  0  0  0  0  0  0  0  0  0  0
   -0.6086   -2.2493    2.6884 H   0  0  0  0  0  0  0  0  0  0  0  0
   -2.2391   -0.3766    2.3535 H   0  0  0  0  0  0  0  0  0  0  0  0
   -0.3776    3.4480    1.3883 H   0  0  0  0  0  0  0  0  0  0  0  0
   -1.9906    5.2815    0.9917 H   0  0  0  0  0  0  0  0  0  0  0  0
   -6.0479    2.6464   -0.1483 H   0  0  0  0  0  0  0  0  0  0  0  0
   -7.5654    1.1369   -0.5851 H   0  0  0  0  0  0  0  0  0  0  0  0
   -9.2668   -0.5865   -1.0753 H   0  0  0  0  0  0  0  0  0  0  0  0
   -6.4804   -3.6782   -0.3886 H   0  0  0  0  0  0  0  0  0  0  0  0
   -4.7666   -1.9711    0.1046 H   0  0  0  0  0  0  0  0  0  0  0  0
    0.6513    1.6777    0.0894 H   0  0  0  0  0  0  0  0  0  0  0  0
    4.4250    1.2399   -1.2077 H   0  0  0  0  0  0  0  0  0  0  0  0
    6.5334    1.6362   -2.2731 H   0  0  0  0  0  0  0  0  0  0  0  0
    8.3629   -0.0364   -2.1252 H   0  0  0  0  0  0  0  0  0  0  0  0
    5.7984   -2.5177    0.2339 H   0  0  0  0  0  0  0  0  0  0  0  0
  1  2  2  0
  2  3  1  0
  3  4  1  0
  4  5  2  0
  5  6  1  0
  6  7  2  0
  7  8  1  0
  8  9  1  0
  9 10  2  0
 10 11  1  0
 11 12  2  0
 12 13  1  0
 13 14  2  0
 14 15  1  0
 15 16  1  0
 16 17  2  0
 17 18  1  0
 18 19  2  0
 19 20  1  0
 20 21  2  0
 15 22  2  0
 22 23  1  0
  8 24  2  0
  2 25  1  0
 25 26  2  0
 26 27  1  0
 27 28  2  0
 28 29  1  0
 29 30  1  0
 30 31  1  0
 30 32  1  0
 30 33  1  0
 29 34  2  0
 24  4  1  0
 34 25  1  0
 23  9  1  0
 23 13  1  0
 21 16  1  0
  3 35  1  0
  5 36  1  0
  6 37  1  0
  7 38  1  0
 10 39  1  0
 11 40  1  0
 14 41  1  0
 17 42  1  0
 18 43  1  0
 20 44  1  0
 21 45  1  0
 24 46  1  0
 26 47  1  0
 27 48  1  0
 28 49  1  0
 34 50  1  0
M  END
$$$$
