
     RDKit          3D

 45 47  0  0  0  0  0  0  0  0999 V2000
    3.4515   -4.0659    0.6026 C   0  0  0  0  0  0  0  0  0  0  0  0
    2.4109   -3.8022   -0.4473 C   0  0  0  0  0  0  0  0  0  0  0  0
    1.6367   -2.6717   -0.2579 O   0  0  0  0  0  0  0  0  0  0  0  0
    2.0261   -1.3555   -0.1882 C   0  0  0  0  0  0  0  0  0  0  0  0
    3.3947   -1.1407   -0.3383 C   0  0  0  0  0  0  0  0  0  0  0  0
    3.8799    0.1362   -0.2863 C   0  0  0  0  0  0  0  0  0  0  0  0
    3.0294    1.2033   -0.0880 C   0  0  0  0  0  0  0  0  0  0  0  0
    3.5608    2.5364   -0.0312 C   0  0  0  0  0  0  0  0  0  0  0  0
    4.8085    2.7492   -0.1743 O   0  0  0  0  0  0  0  0  0  0  0  0
    2.7335    3.6556    0.1831 N   0  0  0  0  0  0  0  0  0  0  0  0
    3.2674    4.9260    0.2343 O   0  0  0  0  0  0  0  0  0  0  0  0
    1.6869    0.9707    0.0570 C   0  0  0  0  0  0  0  0  0  0  0  0
    1.1506   -0.3305    0.0096 C   0  0  0  0  0  0  0  0  0  0  0  0
   -0.2866   -0.5068    0.1955 C   0  0  0  0  0  0  0  0  0  0  0  0
   -1.0728    0.6222    0.2321 N   0  0  0  0  0  0  0  0  0  0  0  0
   -2.3949    0.5836    0.3727 C   0  0  0  0  0  0  0  0  0  0  0  0
   -3.4156    1.5059    0.4400 C   0  0  0  0  0  0  0  0  0  0  0  0
   -3.2010    2.9686    0.3532 C   0  0  0  0  0  0  0  0  0  0  0  0
   -2.9260    3.3857   -1.0957 C   0  0  0  0  0  0  0  0  0  0  0  0
   -4.5600    0.8605    0.5859 N   0  0  0  0  0  0  0  0  0  0  0  0
   -4.3571   -0.4603    0.6201 N   0  0  0  0  0  0  0  0  0  0  0  0
   -5.3356   -1.5101    0.7676 C   0  0  0  0  0  0  0  0  0  0  0  0
   -3.0301   -0.6535    0.4902 C   0  0  0  0  0  0  0  0  0  0  0  0
   -2.2383   -1.7724    0.4528 C   0  0  0  0  0  0  0  0  0  0  0  0
   -2.7540   -2.9146    0.5538 O   0  0  0  0  0  0  0  0  0  0  0  0
   -0.8734   -1.6958    0.3062 N   0  0  0  0  0  0  0  0  0  0  0  0
    3.1718   -5.0175    1.1378 H   0  0  0  0  0  0  0  0  0  0  0  0
    4.4272   -4.2368    0.1321 H   0  0  0  0  0  0  0  0  0  0  0  0
    3.4848   -3.2681    1.3920 H   0  0  0  0  0  0  0  0  0  0  0  0
    1.7540   -4.7217   -0.5111 H   0  0  0  0  0  0  0  0  0  0  0  0
    2.9301   -3.7651   -1.4392 H   0  0  0  0  0  0  0  0  0  0  0  0
    4.0885   -1.9689   -0.5028 H   0  0  0  0  0  0  0  0  0  0  0  0
    4.9457    0.3466   -0.3986 H   0  0  0  0  0  0  0  0  0  0  0  0
    1.7080    3.5969    0.3111 H   0  0  0  0  0  0  0  0  0  0  0  0
    4.2155    4.8100    0.4345 H   0  0  0  0  0  0  0  0  0  0  0  0
    0.9675    1.7617    0.2155 H   0  0  0  0  0  0  0  0  0  0  0  0
   -4.1294    3.5069    0.6471 H   0  0  0  0  0  0  0  0  0  0  0  0
   -2.3595    3.3141    0.9994 H   0  0  0  0  0  0  0  0  0  0  0  0
   -2.7017    2.4503   -1.6472 H   0  0  0  0  0  0  0  0  0  0  0  0
   -2.0461    4.0338   -1.1820 H   0  0  0  0  0  0  0  0  0  0  0  0
   -3.8416    3.8092   -1.5707 H   0  0  0  0  0  0  0  0  0  0  0  0
   -6.3285   -1.0305    0.9912 H   0  0  0  0  0  0  0  0  0  0  0  0
   -5.5066   -2.0530   -0.1995 H   0  0  0  0  0  0  0  0  0  0  0  0
   -5.0277   -2.1979    1.5566 H   0  0  0  0  0  0  0  0  0  0  0  0
   -0.3436   -2.5941    0.2967 H   0  0  0  0  0  0  0  0  0  0  0  0
  1  2  1  0
  2  3  1  0
  3  4  1  0
  4  5  2  0
  5  6  1  0
  6  7  2  0
  7  8  1  0
  8  9  2  0
  8 10  1  0
 10 11  1  0
  7 12  1  0
 12 13  2  0
 13 14  1  0
 14 15  2  0
 15 16  1  0
 16 17  1  0
 17 18  1  0
 18 19  1  0
 17 20  2  0
 20 21  1  0
 21 22  1  0
 21 23  1  0
 23 24  1  0
 24 25  2  0
 24 26  1  0
 13  4  1  0
 26 14  1  0
 23 16  2  0
  1 27  1  0
  1 28  1  0
  1 29  1  0
  2 30  1  0
  2 31  1  0
  5 32  1  0
  6 33  1  0
 10 34  1  0
 11 35  1  0
 12 36  1  0
 18 37  1  0
 18 38  1  0
 19 39  1  0
 19 40  1  0
 19 41  1  0
 22 42  1  0
 22 43  1  0
 22 44  1  0
 26 45  1  0
M  END
$$$$
