
     RDKit          3D

 31 32  0  0  0  0  0  0  0  0999 V2000
    1.0120   -1.5143   -1.6702 C   0  0  0  0  0  0  0  0  0  0  0  0
    0.9440   -0.1149   -1.0993 C   0  0  2  0  0  0  0  0  0  0  0  0
    2.1865   -0.0530   -0.2238 C   0  0  0  0  0  0  0  0  0  0  0  0
    3.0799    0.9670   -0.0429 C   0  0  0  0  0  0  0  0  0  0  0  0
    4.0337    0.5886    0.8260 N   0  0  0  0  0  0  0  0  0  0  0  0
    3.7462   -0.6602    1.1916 C   0  0  0  0  0  0  0  0  0  0  0  0
    2.6316   -1.0703    0.5686 N   0  0  0  0  0  0  0  0  0  0  0  0
   -0.1999    0.1769   -0.2441 C   0  0  0  0  0  0  0  0  0  0  0  0
   -1.4960   -0.2892   -0.2896 C   0  0  0  0  0  0  0  0  0  0  0  0
   -1.8288   -1.1980   -1.3941 C   0  0  0  0  0  0  0  0  0  0  0  0
   -2.4666    0.0783    0.6271 C   0  0  0  0  0  0  0  0  0  0  0  0
   -3.8313   -0.4907    0.4785 C   0  0  0  0  0  0  0  0  0  0  0  0
   -2.1990    0.9375    1.6469 C   0  0  0  0  0  0  0  0  0  0  0  0
   -0.9320    1.4340    1.7439 C   0  0  0  0  0  0  0  0  0  0  0  0
    0.0184    1.0589    0.8269 C   0  0  0  0  0  0  0  0  0  0  0  0
    2.0983   -1.6535   -1.9977 H   0  0  0  0  0  0  0  0  0  0  0  0
    0.4658   -1.6486   -2.6202 H   0  0  0  0  0  0  0  0  0  0  0  0
    0.8806   -2.3136   -0.9261 H   0  0  0  0  0  0  0  0  0  0  0  0
    1.1412    0.5887   -1.9124 H   0  0  0  0  0  0  0  0  0  0  0  0
    2.9068    1.8848   -0.5916 H   0  0  0  0  0  0  0  0  0  0  0  0
    4.7713    1.3174    1.0277 H   0  0  0  0  0  0  0  0  0  0  0  0
    4.4092   -1.1465    1.8981 H   0  0  0  0  0  0  0  0  0  0  0  0
   -2.9533   -1.3610   -1.3827 H   0  0  0  0  0  0  0  0  0  0  0  0
   -1.6742   -0.7309   -2.3974 H   0  0  0  0  0  0  0  0  0  0  0  0
   -1.4368   -2.2248   -1.3006 H   0  0  0  0  0  0  0  0  0  0  0  0
   -4.4711   -0.1409    1.3072 H   0  0  0  0  0  0  0  0  0  0  0  0
   -3.7190   -1.6070    0.4865 H   0  0  0  0  0  0  0  0  0  0  0  0
   -4.3428   -0.2036   -0.4504 H   0  0  0  0  0  0  0  0  0  0  0  0
   -2.9952    1.1811    2.3221 H   0  0  0  0  0  0  0  0  0  0  0  0
   -0.7515    2.1148    2.5650 H   0  0  0  0  0  0  0  0  0  0  0  0
    0.9720    1.5305    1.0273 H   0  0  0  0  0  0  0  0  0  0  0  0
  1  2  1  0
  2  3  1  0
  3  4  2  0
  4  5  1  0
  5  6  1  0
  6  7  2  0
  2  8  1  0
  8  9  2  0
  9 10  1  0
  9 11  1  0
 11 12  1  0
 11 13  2  0
 13 14  1  0
 14 15  2  0
  7  3  1  0
 15  8  1  0
  1 16  1  0
  1 17  1  0
  1 18  1  0
  2 19  1  6
  4 20  1  0
  5 21  1  0
  6 22  1  0
 10 23  1  0
 10 24  1  0
 10 25  1  0
 12 26  1  0
 12 27  1  0
 12 28  1  0
 13 29  1  0
 14 30  1  0
 15 31  1  0
M  END
$$$$
