
     RDKit          3D

 40 41  0  0  0  0  0  0  0  0999 V2000
    0.6126   -0.2284   -0.2337 C   0  0  1  0  0  0  0  0  0  0  0  0
    1.2925   -0.7392    0.9942 C   0  0  0  0  0  0  0  0  0  0  0  0
    2.7432   -1.0973    0.7640 C   0  0  0  0  0  0  0  0  0  0  0  0
    3.4492   -0.2166   -0.1077 N   0  0  1  0  0  4  0  0  0  0  0  0
    3.8498    1.0297    0.5241 C   0  0  0  0  0  0  0  0  0  0  0  0
    4.6157   -0.8431   -0.4373 O   0  0  0  0  0  1  0  0  0  0  0  0
    2.7531    0.0831   -1.3350 C   0  0  0  0  0  0  0  0  0  0  0  0
    1.4659   -0.7093   -1.4153 C   0  0  0  0  0  0  0  0  0  0  0  0
   -1.1443   -0.7711   -0.4303 Si  0  0  0  0  0  4  0  0  0  0  0  0
   -1.5380   -2.3291    0.4847 C   0  0  0  0  0  0  0  0  0  0  0  0
   -1.5245   -1.0460   -2.2566 C   0  0  0  0  0  0  0  0  0  0  0  0
   -2.2428    0.6165    0.0997 C   0  0  0  0  0  0  0  0  0  0  0  0
   -3.5060    0.2540    0.5794 C   0  0  0  0  0  0  0  0  0  0  0  0
   -4.3321    1.2710    0.9763 C   0  0  0  0  0  0  0  0  0  0  0  0
   -4.0176    2.6151    0.9399 C   0  0  0  0  0  0  0  0  0  0  0  0
   -2.7764    2.9193    0.4651 C   0  0  0  0  0  0  0  0  0  0  0  0
   -1.8697    1.9430    0.0388 C   0  0  0  0  0  0  0  0  0  0  0  0
    0.6851    0.8780   -0.2155 H   0  0  0  0  0  0  0  0  0  0  0  0
    1.2070   -0.0210    1.8442 H   0  0  0  0  0  0  0  0  0  0  0  0
    0.7871   -1.6781    1.3237 H   0  0  0  0  0  0  0  0  0  0  0  0
    3.2448   -1.0838    1.7493 H   0  0  0  0  0  0  0  0  0  0  0  0
    2.8701   -2.1416    0.3749 H   0  0  0  0  0  0  0  0  0  0  0  0
    4.6861    0.8865    1.2147 H   0  0  0  0  0  0  0  0  0  0  0  0
    4.1879    1.7113   -0.2931 H   0  0  0  0  0  0  0  0  0  0  0  0
    2.9771    1.4989    1.0012 H   0  0  0  0  0  0  0  0  0  0  0  0
    2.4464    1.1490   -1.3498 H   0  0  0  0  0  0  0  0  0  0  0  0
    3.3748   -0.0848   -2.2355 H   0  0  0  0  0  0  0  0  0  0  0  0
    0.9718   -0.5553   -2.3750 H   0  0  0  0  0  0  0  0  0  0  0  0
    1.7033   -1.7920   -1.2640 H   0  0  0  0  0  0  0  0  0  0  0  0
   -2.4134   -2.8392    0.0328 H   0  0  0  0  0  0  0  0  0  0  0  0
   -0.6512   -2.9966    0.4056 H   0  0  0  0  0  0  0  0  0  0  0  0
   -1.7348   -2.1674    1.5488 H   0  0  0  0  0  0  0  0  0  0  0  0
   -1.2415   -2.0383   -2.6054 H   0  0  0  0  0  0  0  0  0  0  0  0
   -1.1365   -0.1966   -2.8367 H   0  0  0  0  0  0  0  0  0  0  0  0
   -2.6360   -0.9785   -2.3410 H   0  0  0  0  0  0  0  0  0  0  0  0
   -3.8041   -0.7932    0.6290 H   0  0  0  0  0  0  0  0  0  0  0  0
   -5.3220    0.9810    1.3518 H   0  0  0  0  0  0  0  0  0  0  0  0
   -4.7086    3.3887    1.2667 H   0  0  0  0  0  0  0  0  0  0  0  0
   -2.4387    3.9473    0.3985 H   0  0  0  0  0  0  0  0  0  0  0  0
   -0.8856    2.1740   -0.3384 H   0  0  0  0  0  0  0  0  0  0  0  0
  1  2  1  0
  2  3  1  0
  3  4  1  0
  4  5  1  0
  4  6  1  6
  4  7  1  0
  7  8  1  0
  1  9  1  0
  9 10  1  0
  9 11  1  0
  9 12  1  0
 12 13  2  0
 13 14  1  0
 14 15  2  0
 15 16  1  0
 16 17  2  0
  8  1  1  0
 17 12  1  0
  1 18  1  1
  2 19  1  0
  2 20  1  0
  3 21  1  0
  3 22  1  0
  5 23  1  0
  5 24  1  0
  5 25  1  0
  7 26  1  0
  7 27  1  0
  8 28  1  0
  8 29  1  0
 10 30  1  0
 10 31  1  0
 10 32  1  0
 11 33  1  0
 11 34  1  0
 11 35  1  0
 13 36  1  0
 14 37  1  0
 15 38  1  0
 16 39  1  0
 17 40  1  0
M  CHG  2   4   1   6  -1
M  END
$$$$
