
     RDKit          3D

 45 44  0  0  0  0  0  0  0  0999 V2000
   -3.4281   -2.2788   -1.0926 O   0  0  0  0  0  0  0  0  0  0  0  0
   -2.6577   -1.5615   -0.1792 C   0  0  0  0  0  0  0  0  0  0  0  0
   -3.1977   -0.1596    0.0131 C   0  0  0  0  0  0  0  0  0  0  0  0
   -3.5031    0.5755   -1.2456 C   0  0  0  0  0  0  0  0  0  0  0  0
   -4.2574    1.7041   -0.8786 O   0  0  0  0  0  0  0  0  0  0  0  0
   -4.5943   -0.3861    0.6673 C   0  0  0  0  0  0  0  0  0  0  0  0
   -5.3385   -1.1551   -0.2246 O   0  0  0  0  0  0  0  0  0  0  0  0
   -2.4548    0.6224    0.9340 N   0  0  0  0  0  0  0  0  0  0  0  0
   -1.0455    0.5999    0.9188 C   0  0  0  0  0  0  0  0  0  0  0  0
   -0.3230    1.1748   -0.2387 C   0  0  0  0  0  0  0  0  0  0  0  0
    1.1994    1.1495   -0.1058 C   0  0  0  0  0  0  0  0  0  0  0  0
    1.7696   -0.1280    0.0345 N   0  0  0  0  0  0  0  0  0  0  0  0
    3.1829   -0.1874    0.2018 C   0  0  0  0  0  0  0  0  0  0  0  0
    3.9872    0.2738   -0.9747 C   0  0  0  0  0  0  0  0  0  0  0  0
    3.7418    1.5854   -1.2845 O   0  0  0  0  0  0  0  0  0  0  0  0
    3.6277    0.5377    1.4790 C   0  0  0  0  0  0  0  0  0  0  0  0
    5.0000    0.4265    1.5502 O   0  0  0  0  0  0  0  0  0  0  0  0
    3.6484   -1.6350    0.4571 C   0  0  0  0  0  0  0  0  0  0  0  0
    3.3300   -2.4777   -0.5735 O   0  0  0  0  0  0  0  0  0  0  0  0
   -3.2979   -1.9646   -2.0219 H   0  0  0  0  0  0  0  0  0  0  0  0
   -2.7327   -2.1174    0.7761 H   0  0  0  0  0  0  0  0  0  0  0  0
   -1.5928   -1.5776   -0.4770 H   0  0  0  0  0  0  0  0  0  0  0  0
   -4.1829   -0.0225   -1.9065 H   0  0  0  0  0  0  0  0  0  0  0  0
   -2.6516    0.9465   -1.8042 H   0  0  0  0  0  0  0  0  0  0  0  0
   -3.8739    2.5374   -1.2458 H   0  0  0  0  0  0  0  0  0  0  0  0
   -5.0598    0.6029    0.8320 H   0  0  0  0  0  0  0  0  0  0  0  0
   -4.4556   -0.9792    1.5855 H   0  0  0  0  0  0  0  0  0  0  0  0
   -6.1099   -0.5928   -0.5466 H   0  0  0  0  0  0  0  0  0  0  0  0
   -2.8861    0.6392    1.8661 H   0  0  0  0  0  0  0  0  0  0  0  0
   -0.7046   -0.4881    0.9830 H   0  0  0  0  0  0  0  0  0  0  0  0
   -0.6479    1.0043    1.9067 H   0  0  0  0  0  0  0  0  0  0  0  0
   -0.4958    0.5814   -1.1873 H   0  0  0  0  0  0  0  0  0  0  0  0
   -0.5943    2.2166   -0.4762 H   0  0  0  0  0  0  0  0  0  0  0  0
    1.5364    1.7422   -0.9846 H   0  0  0  0  0  0  0  0  0  0  0  0
    1.3911    1.7539    0.8297 H   0  0  0  0  0  0  0  0  0  0  0  0
    1.2353   -0.7433    0.6532 H   0  0  0  0  0  0  0  0  0  0  0  0
    3.7552   -0.3360   -1.8981 H   0  0  0  0  0  0  0  0  0  0  0  0
    5.0839    0.1214   -0.8006 H   0  0  0  0  0  0  0  0  0  0  0  0
    3.5713    1.7328   -2.2566 H   0  0  0  0  0  0  0  0  0  0  0  0
    3.1426   -0.0132    2.3176 H   0  0  0  0  0  0  0  0  0  0  0  0
    3.3224    1.5959    1.4871 H   0  0  0  0  0  0  0  0  0  0  0  0
    5.3856    1.3170    1.7672 H   0  0  0  0  0  0  0  0  0  0  0  0
    3.3310   -1.9918    1.4648 H   0  0  0  0  0  0  0  0  0  0  0  0
    4.7601   -1.5552    0.5152 H   0  0  0  0  0  0  0  0  0  0  0  0
    4.0838   -3.0901   -0.8370 H   0  0  0  0  0  0  0  0  0  0  0  0
  1  2  1  0
  2  3  1  0
  3  4  1  0
  4  5  1  0
  3  6  1  0
  6  7  1  0
  3  8  1  0
  8  9  1  0
  9 10  1  0
 10 11  1  0
 11 12  1  0
 12 13  1  0
 13 14  1  0
 14 15  1  0
 13 16  1  0
 16 17  1  0
 13 18  1  0
 18 19  1  0
  1 20  1  0
  2 21  1  0
  2 22  1  0
  4 23  1  0
  4 24  1  0
  5 25  1  0
  6 26  1  0
  6 27  1  0
  7 28  1  0
  8 29  1  0
  9 30  1  0
  9 31  1  0
 10 32  1  0
 10 33  1  0
 11 34  1  0
 11 35  1  0
 12 36  1  0
 14 37  1  0
 14 38  1  0
 15 39  1  0
 16 40  1  0
 16 41  1  0
 17 42  1  0
 18 43  1  0
 18 44  1  0
 19 45  1  0
M  END
$$$$
