
     RDKit          3D

 67 73  0  0  0  0  0  0  0  0999 V2000
   -5.9438   -1.1755    1.8164 O   0  0  0  0  0  0  0  0  0  0  0  0
   -5.3241   -0.2362    1.2438 C   0  0  0  0  0  0  0  0  0  0  0  0
   -5.9682    0.9935    0.9684 N   0  0  0  0  0  0  0  0  0  0  0  0
   -5.0154    1.7951    0.3441 C   0  0  0  0  0  0  0  0  0  0  0  0
   -5.2571    2.9830   -0.0443 O   0  0  0  0  0  0  0  0  0  0  0  0
   -3.7648    1.0390    0.2363 C   0  0  0  0  0  0  0  0  0  0  0  0
   -3.9453   -0.1882    0.7778 C   0  0  0  0  0  0  0  0  0  0  0  0
   -2.8501   -1.2205    0.8113 C   0  0  0  0  0  0  0  0  0  0  0  0
   -1.5474   -1.0870    1.1999 C   0  0  0  0  0  0  0  0  0  0  0  0
   -0.9549   -2.2746    1.0231 N   0  0  0  0  0  0  0  0  0  0  0  0
   -1.8437   -3.1964    0.5259 C   0  0  0  0  0  0  0  0  0  0  0  0
   -1.7371   -4.5446    0.1720 C   0  0  0  0  0  0  0  0  0  0  0  0
   -2.8565   -5.1764   -0.3103 C   0  0  0  0  0  0  0  0  0  0  0  0
   -4.0610   -4.5340   -0.4542 C   0  0  0  0  0  0  0  0  0  0  0  0
   -4.1628   -3.2275   -0.1108 C   0  0  0  0  0  0  0  0  0  0  0  0
   -3.0433   -2.5466    0.3865 C   0  0  0  0  0  0  0  0  0  0  0  0
    0.4639   -2.6116    1.2601 C   0  0  0  0  0  0  0  0  0  0  0  0
    1.3532   -2.2116    0.1327 C   0  0  0  0  0  0  0  0  0  0  0  0
    1.1950   -0.8365   -0.1038 O   0  0  0  0  0  0  0  0  0  0  0  0
    2.0389   -0.4231   -1.1246 C   0  0  2  0  0  0  0  0  0  0  0  0
    2.9066    0.6700   -0.5363 C   0  0  0  0  0  0  0  0  0  0  0  0
    3.6698    0.1846    0.5646 N   0  0  0  0  0  0  0  0  0  0  0  0
    4.3764    1.3252    1.1273 C   0  0  0  0  0  0  0  0  0  0  0  0
    5.7649    1.3271    0.5667 C   0  0  0  0  0  0  0  0  0  0  0  0
    5.8841    0.0502   -0.2364 C   0  0  0  0  0  0  0  0  0  0  0  0
    4.6742   -0.7703    0.1996 C   0  0  0  0  0  0  0  0  0  0  0  0
    1.3343    0.1202   -2.3180 C   0  0  0  0  0  0  0  0  0  0  0  0
    0.6368    1.3910   -2.2640 C   0  0  0  0  0  0  0  0  0  0  0  0
   -0.5047    1.6203   -1.3818 N   0  0  0  0  0  0  0  0  0  0  0  0
   -1.6067    0.8858   -1.2130 C   0  0  0  0  0  0  0  0  0  0  0  0
   -2.4250    1.4830   -0.3124 C   0  0  0  0  0  0  0  0  0  0  0  0
   -1.7735    2.6608    0.0888 C   0  0  0  0  0  0  0  0  0  0  0  0
   -2.1538    3.6797    0.9974 C   0  0  0  0  0  0  0  0  0  0  0  0
   -1.3096    4.7429    1.1959 C   0  0  0  0  0  0  0  0  0  0  0  0
   -0.1196    4.8000    0.5156 C   0  0  0  0  0  0  0  0  0  0  0  0
    0.2735    3.8330   -0.3659 C   0  0  0  0  0  0  0  0  0  0  0  0
   -0.5929    2.7447   -0.5679 C   0  0  0  0  0  0  0  0  0  0  0  0
   -6.9724    1.2601    1.1896 H   0  0  0  0  0  0  0  0  0  0  0  0
   -1.0103   -0.1399    1.6176 H   0  0  0  0  0  0  0  0  0  0  0  0
   -0.7966   -5.0623    0.2800 H   0  0  0  0  0  0  0  0  0  0  0  0
   -2.7616   -6.2305   -0.5837 H   0  0  0  0  0  0  0  0  0  0  0  0
   -4.9538   -5.0226   -0.8348 H   0  0  0  0  0  0  0  0  0  0  0  0
   -5.0507   -2.6377   -0.1981 H   0  0  0  0  0  0  0  0  0  0  0  0
    0.9139   -2.3520    2.2011 H   0  0  0  0  0  0  0  0  0  0  0  0
    0.5560   -3.7480    1.2549 H   0  0  0  0  0  0  0  0  0  0  0  0
    2.3854   -2.5100    0.2787 H   0  0  0  0  0  0  0  0  0  0  0  0
    0.9390   -2.7059   -0.7958 H   0  0  0  0  0  0  0  0  0  0  0  0
    2.6281   -1.3286   -1.4231 H   0  0  0  0  0  0  0  0  0  0  0  0
    3.5800    1.1131   -1.3120 H   0  0  0  0  0  0  0  0  0  0  0  0
    2.2914    1.5172   -0.1684 H   0  0  0  0  0  0  0  0  0  0  0  0
    4.3633    1.3184    2.2417 H   0  0  0  0  0  0  0  0  0  0  0  0
    3.8831    2.2814    0.8242 H   0  0  0  0  0  0  0  0  0  0  0  0
    5.9803    2.2120   -0.0843 H   0  0  0  0  0  0  0  0  0  0  0  0
    6.5065    1.2441    1.3953 H   0  0  0  0  0  0  0  0  0  0  0  0
    5.8432    0.2915   -1.3186 H   0  0  0  0  0  0  0  0  0  0  0  0
    6.7987   -0.5099   -0.0298 H   0  0  0  0  0  0  0  0  0  0  0  0
    4.4436   -1.4297   -0.6334 H   0  0  0  0  0  0  0  0  0  0  0  0
    4.9218   -1.3839    1.0957 H   0  0  0  0  0  0  0  0  0  0  0  0
    0.5489   -0.6681   -2.6301 H   0  0  0  0  0  0  0  0  0  0  0  0
    2.0269    0.0580   -3.2267 H   0  0  0  0  0  0  0  0  0  0  0  0
    1.4714    2.1519   -2.0053 H   0  0  0  0  0  0  0  0  0  0  0  0
    0.4308    1.7263   -3.3218 H   0  0  0  0  0  0  0  0  0  0  0  0
   -1.7988   -0.1197   -1.8038 H   0  0  0  0  0  0  0  0  0  0  0  0
   -3.0985    3.5784    1.5055 H   0  0  0  0  0  0  0  0  0  0  0  0
   -1.6207    5.5136    1.8966 H   0  0  0  0  0  0  0  0  0  0  0  0
    0.5348    5.6457    0.6835 H   0  0  0  0  0  0  0  0  0  0  0  0
    1.2062    3.8686   -0.9052 H   0  0  0  0  0  0  0  0  0  0  0  0
  1  2  2  0
  2  3  1  0
  3  4  1  0
  4  5  2  0
  4  6  1  0
  6  7  2  0
  7  8  1  0
  8  9  2  0
  9 10  1  0
 10 11  1  0
 11 12  2  0
 12 13  1  0
 13 14  2  0
 14 15  1  0
 15 16  2  0
 10 17  1  0
 17 18  1  0
 18 19  1  0
 19 20  1  0
 20 21  1  0
 21 22  1  0
 22 23  1  0
 23 24  1  0
 24 25  1  0
 25 26  1  0
 20 27  1  0
 27 28  1  0
 28 29  1  0
 29 30  1  0
 30 31  2  0
 31 32  1  0
 32 33  2  0
 33 34  1  0
 34 35  2  0
 35 36  1  0
 36 37  2  0
  7  2  1  0
 16  8  1  0
 26 22  1  0
 37 29  1  0
 31  6  1  0
 37 32  1  0
 16 11  1  0
  3 38  1  0
  9 39  1  0
 12 40  1  0
 13 41  1  0
 14 42  1  0
 15 43  1  0
 17 44  1  0
 17 45  1  0
 18 46  1  0
 18 47  1  0
 20 48  1  6
 21 49  1  0
 21 50  1  0
 23 51  1  0
 23 52  1  0
 24 53  1  0
 24 54  1  0
 25 55  1  0
 25 56  1  0
 26 57  1  0
 26 58  1  0
 27 59  1  0
 27 60  1  0
 28 61  1  0
 28 62  1  0
 30 63  1  0
 33 64  1  0
 34 65  1  0
 35 66  1  0
 36 67  1  0
M  END
$$$$
