
     RDKit          3D

 42 45  0  0  0  0  0  0  0  0999 V2000
    2.6854    0.0514    2.7779 N   0  0  0  0  0  0  0  0  0  0  0  0
    3.6404   -0.6616    2.0172 C   0  0  0  0  0  0  0  0  0  0  0  0
    4.6996   -1.0517    2.5652 O   0  0  0  0  0  0  0  0  0  0  0  0
    3.3735   -0.9286    0.6106 C   0  0  0  0  0  0  0  0  0  0  0  0
    4.2528   -1.6187   -0.2316 C   0  0  0  0  0  0  0  0  0  0  0  0
    3.6870   -1.6772   -1.4412 N   0  0  0  0  0  0  0  0  0  0  0  0
    2.4914   -1.0618   -1.4220 C   0  0  0  0  0  0  0  0  0  0  0  0
    1.5332   -0.8510   -2.3864 C   0  0  0  0  0  0  0  0  0  0  0  0
    0.3861   -0.1776   -2.0739 C   0  0  0  0  0  0  0  0  0  0  0  0
    0.2227    0.2832   -0.7581 C   0  0  0  0  0  0  0  0  0  0  0  0
   -1.0073    0.9979   -0.4077 C   0  0  0  0  0  0  0  0  0  0  0  0
   -2.2590    0.5055   -0.1112 C   0  0  0  0  0  0  0  0  0  0  0  0
   -2.5849   -0.9091   -0.0751 C   0  0  0  0  0  0  0  0  0  0  0  0
   -3.4535   -1.3696   -1.0429 C   0  0  0  0  0  0  0  0  0  0  0  0
   -3.8010   -2.6920   -1.0598 C   0  0  0  0  0  0  0  0  0  0  0  0
   -4.9128   -3.2706   -2.3030 Cl  0  0  0  0  0  0  0  0  0  0  0  0
   -3.2773   -3.5399   -0.1101 C   0  0  0  0  0  0  0  0  0  0  0  0
   -3.6273   -4.8454   -0.1363 F   0  0  0  0  0  0  0  0  0  0  0  0
   -2.4093   -3.0847    0.8586 C   0  0  0  0  0  0  0  0  0  0  0  0
   -2.0445   -1.7330    0.8884 C   0  0  0  0  0  0  0  0  0  0  0  0
   -1.2020   -1.2684    1.8245 F   0  0  0  0  0  0  0  0  0  0  0  0
   -3.1196    1.4987    0.1380 N   0  0  0  0  0  0  0  0  0  0  0  0
   -2.4070    2.6300   -0.0017 C   0  0  0  0  0  0  0  0  0  0  0  0
   -1.1151    2.3289   -0.3353 N   0  0  0  0  0  0  0  0  0  0  0  0
   -0.0940    3.3231   -0.5610 C   0  0  0  0  0  0  0  0  0  0  0  0
    0.6479    3.6996    0.6986 C   0  0  0  0  0  0  0  0  0  0  0  0
   -0.2314    4.2183    1.6466 F   0  0  0  0  0  0  0  0  0  0  0  0
    1.5882    4.6701    0.3833 F   0  0  0  0  0  0  0  0  0  0  0  0
    1.1926    0.0621    0.1917 C   0  0  0  0  0  0  0  0  0  0  0  0
    2.3181   -0.6105   -0.1569 N   0  0  0  0  0  0  0  0  0  0  0  0
    1.8862   -0.4246    3.2451 H   0  0  0  0  0  0  0  0  0  0  0  0
    2.7569    1.0847    2.8927 H   0  0  0  0  0  0  0  0  0  0  0  0
    5.2260   -2.0243    0.0861 H   0  0  0  0  0  0  0  0  0  0  0  0
    1.6786   -1.2113   -3.3841 H   0  0  0  0  0  0  0  0  0  0  0  0
   -0.4014    0.0179   -2.7900 H   0  0  0  0  0  0  0  0  0  0  0  0
   -3.8594   -0.6724   -1.7931 H   0  0  0  0  0  0  0  0  0  0  0  0
   -1.9732   -3.7117    1.6246 H   0  0  0  0  0  0  0  0  0  0  0  0
   -2.8278    3.6160    0.1373 H   0  0  0  0  0  0  0  0  0  0  0  0
    0.6970    2.9322   -1.2670 H   0  0  0  0  0  0  0  0  0  0  0  0
   -0.4872    4.2365   -1.0540 H   0  0  0  0  0  0  0  0  0  0  0  0
    1.1275    2.8024    1.1315 H   0  0  0  0  0  0  0  0  0  0  0  0
    1.0040    0.4372    1.1848 H   0  0  0  0  0  0  0  0  0  0  0  0
  1  2  1  0
  2  3  2  0
  2  4  1  0
  4  5  2  0
  5  6  1  0
  6  7  2  0
  7  8  1  0
  8  9  2  0
  9 10  1  0
 10 11  1  0
 11 12  2  0
 12 13  1  0
 13 14  2  0
 14 15  1  0
 15 16  1  0
 15 17  2  0
 17 18  1  0
 17 19  1  0
 19 20  2  0
 20 21  1  0
 12 22  1  0
 22 23  2  0
 23 24  1  0
 24 25  1  0
 25 26  1  0
 26 27  1  0
 26 28  1  0
 10 29  2  0
 29 30  1  0
 30  4  1  0
 30  7  1  0
 24 11  1  0
 20 13  1  0
  1 31  1  0
  1 32  1  0
  5 33  1  0
  8 34  1  0
  9 35  1  0
 14 36  1  0
 19 37  1  0
 23 38  1  0
 25 39  1  0
 25 40  1  0
 26 41  1  0
 29 42  1  0
M  END
$$$$
