
     RDKit          3D

 73 78  0  0  0  0  0  0  0  0999 V2000
   -2.7812    7.3779   -1.2758 C   0  0  0  0  0  0  0  0  0  0  0  0
   -2.2130    6.2649   -0.6184 O   0  0  0  0  0  0  0  0  0  0  0  0
   -1.7886    5.1536   -1.3444 C   0  0  0  0  0  0  0  0  0  0  0  0
   -1.2277    4.0583   -0.6817 C   0  0  0  0  0  0  0  0  0  0  0  0
   -0.8166    2.9725   -1.4257 C   0  0  0  0  0  0  0  0  0  0  0  0
   -0.2527    1.8773   -0.7367 N   0  0  0  0  0  0  0  0  0  0  0  0
    1.1434    1.6850   -0.4270 C   0  0  0  0  0  0  0  0  0  0  0  0
    1.9515    2.6401   -0.2825 O   0  0  0  0  0  0  0  0  0  0  0  0
    1.4054    0.2909   -0.3246 N   0  0  0  0  0  0  0  0  0  0  0  0
    2.6333   -0.3776   -0.0411 C   0  0  0  0  0  0  0  0  0  0  0  0
    3.8019    0.3347    0.1202 C   0  0  0  0  0  0  0  0  0  0  0  0
    5.0083   -0.2936    0.4076 C   0  0  0  0  0  0  0  0  0  0  0  0
    5.0439   -1.6762    0.5370 C   0  0  0  0  0  0  0  0  0  0  0  0
    6.3013   -2.2952    0.8777 C   0  0  0  0  0  0  0  0  0  0  0  0
    6.8641   -1.9258    2.1021 C   0  0  0  0  0  0  0  0  0  0  0  0
    8.0347   -2.4877    2.5578 C   0  0  0  0  0  0  0  0  0  0  0  0
    8.6735   -3.4396    1.7925 C   0  0  0  0  0  0  0  0  0  0  0  0
    8.1290   -3.8075    0.5894 C   0  0  0  0  0  0  0  0  0  0  0  0
    6.9320   -3.2344    0.1186 C   0  0  0  0  0  0  0  0  0  0  0  0
    6.4284   -3.6163   -1.1824 C   0  0  0  0  0  0  0  0  0  0  0  0
    5.4274   -3.0832   -1.6672 O   0  0  0  0  0  0  0  0  0  0  0  0
    7.0792   -4.5981   -1.8997 O   0  0  0  0  0  0  0  0  0  0  0  0
    3.8660   -2.3655    0.3723 C   0  0  0  0  0  0  0  0  0  0  0  0
    2.6620   -1.7522    0.0866 C   0  0  0  0  0  0  0  0  0  0  0  0
    0.1403   -0.3347   -0.5810 C   0  0  0  0  0  0  0  0  0  0  0  0
   -0.0985   -1.4722   -1.0477 O   0  0  0  0  0  0  0  0  0  0  0  0
   -0.8828    0.6836   -0.1639 C   0  0  0  0  0  0  0  0  0  0  0  0
   -0.9223    0.7279    1.3115 C   0  0  0  0  0  0  0  0  0  0  0  0
   -2.0510    0.0508    1.9785 C   0  0  0  0  0  0  0  0  0  0  0  0
   -3.2236   -0.1637    1.2171 N   0  0  0  0  0  0  0  0  0  0  0  0
   -3.5540   -1.5431    0.9821 C   0  0  0  0  0  0  0  0  0  0  0  0
   -4.7873   -1.6153    0.1786 C   0  0  0  0  0  0  0  0  0  0  0  0
   -4.6833   -1.9160   -1.1238 N   0  0  0  0  0  0  0  0  0  0  0  0
   -5.7660   -1.9939   -1.8970 C   0  0  0  0  0  0  0  0  0  0  0  0
   -7.0081   -1.7615   -1.3475 C   0  0  0  0  0  0  0  0  0  0  0  0
   -7.1329   -1.4511   -0.0102 C   0  0  0  0  0  0  0  0  0  0  0  0
   -6.0131   -1.3769    0.7617 C   0  0  0  0  0  0  0  0  0  0  0  0
   -6.1406   -1.0450    2.1946 C   0  0  0  0  0  0  0  0  0  0  0  0
   -3.3285    0.6676    0.0502 C   0  0  0  0  0  0  0  0  0  0  0  0
   -2.1553    0.3355   -0.8435 C   0  0  0  0  0  0  0  0  0  0  0  0
   -0.9892    3.0503   -2.7556 N   0  0  0  0  0  0  0  0  0  0  0  0
   -1.5214    4.0908   -3.3788 C   0  0  0  0  0  0  0  0  0  0  0  0
   -1.9263    5.1548   -2.6693 N   0  0  0  0  0  0  0  0  0  0  0  0
   -2.0735    7.8516   -1.9882 H   0  0  0  0  0  0  0  0  0  0  0  0
   -3.0486    8.1565   -0.5309 H   0  0  0  0  0  0  0  0  0  0  0  0
   -3.6613    7.0437   -1.8654 H   0  0  0  0  0  0  0  0  0  0  0  0
   -1.1510    4.1311    0.3774 H   0  0  0  0  0  0  0  0  0  0  0  0
    3.8302    1.4330    0.0272 H   0  0  0  0  0  0  0  0  0  0  0  0
    5.8948    0.3101    0.5244 H   0  0  0  0  0  0  0  0  0  0  0  0
    6.3771   -1.1921    2.6979 H   0  0  0  0  0  0  0  0  0  0  0  0
    8.4944   -2.2221    3.5010 H   0  0  0  0  0  0  0  0  0  0  0  0
    9.6004   -3.9023    2.1270 H   0  0  0  0  0  0  0  0  0  0  0  0
    8.5944   -4.5518   -0.0480 H   0  0  0  0  0  0  0  0  0  0  0  0
    6.6191   -5.1986   -2.5749 H   0  0  0  0  0  0  0  0  0  0  0  0
    3.8410   -3.4583    0.4760 H   0  0  0  0  0  0  0  0  0  0  0  0
    1.7468   -2.2990   -0.0369 H   0  0  0  0  0  0  0  0  0  0  0  0
    0.0533    0.3598    1.7496 H   0  0  0  0  0  0  0  0  0  0  0  0
   -0.9440    1.8161    1.6202 H   0  0  0  0  0  0  0  0  0  0  0  0
   -2.3546    0.5817    2.9291 H   0  0  0  0  0  0  0  0  0  0  0  0
   -1.7022   -0.9575    2.3524 H   0  0  0  0  0  0  0  0  0  0  0  0
   -3.7158   -2.0025    1.9991 H   0  0  0  0  0  0  0  0  0  0  0  0
   -2.7703   -2.1302    0.5079 H   0  0  0  0  0  0  0  0  0  0  0  0
   -5.6853   -2.2378   -2.9543 H   0  0  0  0  0  0  0  0  0  0  0  0
   -7.9073   -1.8230   -1.9760 H   0  0  0  0  0  0  0  0  0  0  0  0
   -8.1306   -1.2744    0.3862 H   0  0  0  0  0  0  0  0  0  0  0  0
   -7.0486   -0.4136    2.3175 H   0  0  0  0  0  0  0  0  0  0  0  0
   -5.2891   -0.4618    2.5826 H   0  0  0  0  0  0  0  0  0  0  0  0
   -6.2615   -2.0072    2.7394 H   0  0  0  0  0  0  0  0  0  0  0  0
   -3.1816    1.7200    0.3861 H   0  0  0  0  0  0  0  0  0  0  0  0
   -4.2958    0.5508   -0.4395 H   0  0  0  0  0  0  0  0  0  0  0  0
   -2.1570   -0.7149   -1.1712 H   0  0  0  0  0  0  0  0  0  0  0  0
   -2.2757    0.9522   -1.7676 H   0  0  0  0  0  0  0  0  0  0  0  0
   -1.6597    4.1500   -4.4585 H   0  0  0  0  0  0  0  0  0  0  0  0
  1  2  1  0
  2  3  1  0
  3  4  2  0
  4  5  1  0
  5  6  1  0
  6  7  1  0
  7  8  2  0
  7  9  1  0
  9 10  1  0
 10 11  2  0
 11 12  1  0
 12 13  2  0
 13 14  1  0
 14 15  2  0
 15 16  1  0
 16 17  2  0
 17 18  1  0
 18 19  2  0
 19 20  1  0
 20 21  2  0
 20 22  1  0
 13 23  1  0
 23 24  2  0
  9 25  1  0
 25 26  2  0
 25 27  1  0
 27 28  1  0
 28 29  1  0
 29 30  1  0
 30 31  1  0
 31 32  1  0
 32 33  2  0
 33 34  1  0
 34 35  2  0
 35 36  1  0
 36 37  2  0
 37 38  1  0
 30 39  1  0
 39 40  1  0
  5 41  2  0
 41 42  1  0
 42 43  2  0
 43  3  1  0
 27  6  1  0
 37 32  1  0
 24 10  1  0
 40 27  1  0
 19 14  1  0
  1 44  1  0
  1 45  1  0
  1 46  1  0
  4 47  1  0
 11 48  1  0
 12 49  1  0
 15 50  1  0
 16 51  1  0
 17 52  1  0
 18 53  1  0
 22 54  1  0
 23 55  1  0
 24 56  1  0
 28 57  1  0
 28 58  1  0
 29 59  1  0
 29 60  1  0
 31 61  1  0
 31 62  1  0
 34 63  1  0
 35 64  1  0
 36 65  1  0
 38 66  1  0
 38 67  1  0
 38 68  1  0
 39 69  1  0
 39 70  1  0
 40 71  1  0
 40 72  1  0
 42 73  1  0
M  END
$$$$
