
     RDKit          3D

 52 57  0  0  0  0  0  0  0  0999 V2000
   -1.9244   -1.5466   -0.9386 C   0  0  0  0  0  0  0  0  0  0  0  0
   -1.5360   -0.3387   -0.2088 N   0  0  2  0  0  4  0  0  0  0  0  0
   -2.7302    0.1439    0.4263 C   0  0  0  0  0  0  0  0  0  0  0  0
   -3.6043    0.9955   -0.4496 C   0  0  0  0  0  0  0  0  0  0  0  0
   -4.8602    1.4836    0.2706 C   0  0  0  0  0  0  0  0  0  0  0  0
   -4.9936    0.5096   -0.8398 C   0  0  0  0  0  0  0  0  0  0  0  0
   -1.0145    0.5510   -1.2302 C   0  0  0  0  0  0  0  0  0  0  0  0
    0.3664    0.2561   -1.6464 C   0  0  0  0  0  0  0  0  0  0  0  0
    1.2933   -0.3603   -0.6798 C   0  0  2  0  0  0  0  0  0  0  0  0
    2.5136   -0.9269   -1.3309 C   0  0  1  0  0  0  0  0  0  0  0  0
    3.4250    0.1889   -1.3305 O   0  0  0  0  0  0  0  0  0  0  0  0
    3.1631    1.0132   -0.2494 C   0  0  0  0  0  0  0  0  0  0  0  0
    3.7556    2.0102    0.5208 C   0  0  0  0  0  0  0  0  0  0  0  0
    5.0528    2.3589    0.1454 O   0  0  0  0  0  0  0  0  0  0  0  0
    3.0756    2.6014    1.5875 C   0  0  0  0  0  0  0  0  0  0  0  0
    1.7712    2.2004    1.9082 C   0  0  0  0  0  0  0  0  0  0  0  0
    1.1407    1.2269    1.1868 C   0  0  0  0  0  0  0  0  0  0  0  0
   -0.2374    0.7356    1.4485 C   0  0  0  0  0  0  0  0  0  0  0  0
   -0.5582   -0.5776    0.8316 C   0  0  2  0  0  0  0  0  0  0  0  0
    0.6194   -1.3024    0.2919 C   0  0  1  0  0  0  0  0  0  0  0  0
    0.2982   -2.4411   -0.4404 O   0  0  0  0  0  0  0  0  0  0  0  0
    1.5656   -1.8174    1.3320 C   0  0  0  0  0  0  0  0  0  0  0  0
    2.5606   -2.7069    0.5932 C   0  0  0  0  0  0  0  0  0  0  0  0
    3.1752   -1.9829   -0.5255 C   0  0  0  0  0  0  0  0  0  0  0  0
    4.3300   -2.2184   -0.8799 O   0  0  0  0  0  0  0  0  0  0  0  0
    1.8918    0.7056    0.1566 C   0  0  0  0  0  0  0  0  0  0  0  0
   -2.0255   -2.4328   -0.3221 H   0  0  0  0  0  0  0  0  0  0  0  0
   -1.3522   -1.6725   -1.8888 H   0  0  0  0  0  0  0  0  0  0  0  0
   -2.9721   -1.3603   -1.3318 H   0  0  0  0  0  0  0  0  0  0  0  0
   -2.5863    0.6099    1.4208 H   0  0  0  0  0  0  0  0  0  0  0  0
   -3.3630   -0.7601    0.6789 H   0  0  0  0  0  0  0  0  0  0  0  0
   -3.1566    1.7293   -1.1468 H   0  0  0  0  0  0  0  0  0  0  0  0
   -5.1502    2.5448    0.1004 H   0  0  0  0  0  0  0  0  0  0  0  0
   -5.0883    1.1071    1.2859 H   0  0  0  0  0  0  0  0  0  0  0  0
   -5.4134    0.8531   -1.7929 H   0  0  0  0  0  0  0  0  0  0  0  0
   -5.2481   -0.5605   -0.6047 H   0  0  0  0  0  0  0  0  0  0  0  0
   -1.1292    1.6367   -0.9586 H   0  0  0  0  0  0  0  0  0  0  0  0
   -1.6809    0.4473   -2.1157 H   0  0  0  0  0  0  0  0  0  0  0  0
    0.4113   -0.3545   -2.5958 H   0  0  0  0  0  0  0  0  0  0  0  0
    0.8463    1.2284   -1.9663 H   0  0  0  0  0  0  0  0  0  0  0  0
    2.3716   -1.2950   -2.3557 H   0  0  0  0  0  0  0  0  0  0  0  0
    5.2574    2.9563   -0.6428 H   0  0  0  0  0  0  0  0  0  0  0  0
    3.5894    3.3800    2.1588 H   0  0  0  0  0  0  0  0  0  0  0  0
    1.2459    2.6615    2.7373 H   0  0  0  0  0  0  0  0  0  0  0  0
   -0.8593    1.5983    1.0617 H   0  0  0  0  0  0  0  0  0  0  0  0
   -0.4690    0.7328    2.5433 H   0  0  0  0  0  0  0  0  0  0  0  0
   -1.0981   -1.2242    1.5848 H   0  0  0  0  0  0  0  0  0  0  0  0
    0.8214   -2.5136   -1.2807 H   0  0  0  0  0  0  0  0  0  0  0  0
    2.1537   -1.0669    1.8536 H   0  0  0  0  0  0  0  0  0  0  0  0
    0.9866   -2.3862    2.0650 H   0  0  0  0  0  0  0  0  0  0  0  0
    2.0638   -3.6234    0.1875 H   0  0  0  0  0  0  0  0  0  0  0  0
    3.3054   -2.9972    1.3752 H   0  0  0  0  0  0  0  0  0  0  0  0
  2  1  1  6
  2  3  1  0
  3  4  1  0
  4  5  1  0
  5  6  1  0
  2  7  1  0
  7  8  1  0
  9  8  1  6
  9 10  1  0
 10 11  1  0
 11 12  1  0
 12 13  2  0
 13 14  1  0
 13 15  1  0
 15 16  2  0
 16 17  1  0
 17 18  1  0
 18 19  1  0
 19 20  1  0
 20 21  1  6
 20 22  1  0
 22 23  1  0
 23 24  1  0
 24 25  2  0
 17 26  2  0
 19  2  1  0
  6  4  1  0
 20  9  1  0
 26  9  1  0
 24 10  1  0
 26 12  1  0
  1 27  1  0
  1 28  1  0
  1 29  1  0
  3 30  1  0
  3 31  1  0
  4 32  1  0
  5 33  1  0
  5 34  1  0
  6 35  1  0
  6 36  1  0
  7 37  1  0
  7 38  1  0
  8 39  1  0
  8 40  1  0
 10 41  1  6
 14 42  1  0
 15 43  1  0
 16 44  1  0
 18 45  1  0
 18 46  1  0
 19 47  1  1
 21 48  1  0
 22 49  1  0
 22 50  1  0
 23 51  1  0
 23 52  1  0
M  CHG  1   2   1
M  END
$$$$
