
     RDKit          3D

 60 64  0  0  0  0  0  0  0  0999 V2000
    7.7394   -0.5535    3.5860 C   0  0  0  0  0  0  0  0  0  0  0  0
    6.8516    0.5510    3.5118 O   0  0  0  0  0  0  0  0  0  0  0  0
    6.2311    0.7926    2.2944 C   0  0  0  0  0  0  0  0  0  0  0  0
    6.4290    0.0268    1.1671 C   0  0  0  0  0  0  0  0  0  0  0  0
    5.8084    0.2723   -0.0396 C   0  0  0  0  0  0  0  0  0  0  0  0
    4.9306    1.3472   -0.1462 C   0  0  0  0  0  0  0  0  0  0  0  0
    4.2652    1.6017   -1.4560 C   0  0  0  0  0  0  0  0  0  0  0  0
    3.0285    0.8544   -1.4457 N   0  0  0  0  0  0  0  0  0  0  0  0
    2.9642   -0.4348   -1.8881 C   0  0  0  0  0  0  0  0  0  0  0  0
    1.6683   -0.8653   -1.7493 C   0  0  0  0  0  0  0  0  0  0  0  0
    0.9515    0.1912   -1.2139 C   0  0  0  0  0  0  0  0  0  0  0  0
   -0.4081    0.3179   -0.8656 C   0  0  0  0  0  0  0  0  0  0  0  0
   -1.2349   -0.7894   -1.0722 N   0  0  0  0  0  0  0  0  0  0  0  0
   -2.6186   -0.8154   -0.8072 C   0  0  0  0  0  0  0  0  0  0  0  0
   -3.3520    0.2360   -0.2983 C   0  0  0  0  0  0  0  0  0  0  0  0
   -4.7140    0.1873   -0.0469 C   0  0  0  0  0  0  0  0  0  0  0  0
   -5.4292    1.3464    0.4981 C   0  0  0  0  0  0  0  0  0  0  0  0
   -6.6049    1.7432   -0.0174 N   0  0  0  0  0  0  0  0  0  0  0  0
   -7.3093    2.7892    0.4330 C   0  0  0  0  0  0  0  0  0  0  0  0
   -6.8234    3.5209    1.4879 C   0  0  0  0  0  0  0  0  0  0  0  0
   -5.6148    3.1643    2.0659 C   0  0  0  0  0  0  0  0  0  0  0  0
   -4.9524    2.0909    1.5579 C   0  0  0  0  0  0  0  0  0  0  0  0
   -3.7705    1.7120    2.0965 F   0  0  0  0  0  0  0  0  0  0  0  0
   -5.3319   -0.9719   -0.3269 N   0  0  0  0  0  0  0  0  0  0  0  0
   -4.6561   -2.0260   -0.8255 C   0  0  0  0  0  0  0  0  0  0  0  0
   -3.3021   -2.0069   -1.0858 C   0  0  0  0  0  0  0  0  0  0  0  0
   -2.6559   -3.2158   -1.6441 C   0  0  0  0  0  0  0  0  0  0  0  0
   -2.0338   -4.0792   -0.5836 C   0  0  0  0  0  0  0  0  0  0  0  0
   -3.6992   -4.0507   -2.4164 C   0  0  0  0  0  0  0  0  0  0  0  0
   -0.7434    1.5063   -0.3712 N   0  0  0  0  0  0  0  0  0  0  0  0
    0.0957    2.5311   -0.1966 C   0  0  0  0  0  0  0  0  0  0  0  0
    1.3785    2.4036   -0.5281 N   0  0  0  0  0  0  0  0  0  0  0  0
    1.8056    1.2442   -1.0326 C   0  0  0  0  0  0  0  0  0  0  0  0
    4.7130    2.1294    0.9609 C   0  0  0  0  0  0  0  0  0  0  0  0
    5.3443    1.8557    2.1356 C   0  0  0  0  0  0  0  0  0  0  0  0
    7.2107   -1.5174    3.3555 H   0  0  0  0  0  0  0  0  0  0  0  0
    8.1990   -0.6454    4.5907 H   0  0  0  0  0  0  0  0  0  0  0  0
    8.4963   -0.4301    2.7853 H   0  0  0  0  0  0  0  0  0  0  0  0
    7.1266   -0.8108    1.2847 H   0  0  0  0  0  0  0  0  0  0  0  0
    6.0038   -0.3655   -0.8961 H   0  0  0  0  0  0  0  0  0  0  0  0
    4.9494    1.2528   -2.2503 H   0  0  0  0  0  0  0  0  0  0  0  0
    4.0814    2.6887   -1.5692 H   0  0  0  0  0  0  0  0  0  0  0  0
    3.7637   -1.0429   -2.2833 H   0  0  0  0  0  0  0  0  0  0  0  0
    1.2548   -1.8269   -1.9976 H   0  0  0  0  0  0  0  0  0  0  0  0
   -0.7980   -1.6644   -1.4449 H   0  0  0  0  0  0  0  0  0  0  0  0
   -2.8908    1.1812   -0.0617 H   0  0  0  0  0  0  0  0  0  0  0  0
   -8.2560    3.0991    0.0079 H   0  0  0  0  0  0  0  0  0  0  0  0
   -7.3384    4.3779    1.9027 H   0  0  0  0  0  0  0  0  0  0  0  0
   -5.2402    3.7615    2.9107 H   0  0  0  0  0  0  0  0  0  0  0  0
   -5.1851   -2.9709   -1.0484 H   0  0  0  0  0  0  0  0  0  0  0  0
   -1.8876   -2.9858   -2.4009 H   0  0  0  0  0  0  0  0  0  0  0  0
   -2.2072   -5.1328   -0.8534 H   0  0  0  0  0  0  0  0  0  0  0  0
   -0.9247   -3.9272   -0.5415 H   0  0  0  0  0  0  0  0  0  0  0  0
   -2.3999   -3.8398    0.4398 H   0  0  0  0  0  0  0  0  0  0  0  0
   -4.4129   -3.3925   -2.9140 H   0  0  0  0  0  0  0  0  0  0  0  0
   -3.1304   -4.7084   -3.1118 H   0  0  0  0  0  0  0  0  0  0  0  0
   -4.2146   -4.6579   -1.6245 H   0  0  0  0  0  0  0  0  0  0  0  0
   -0.3005    3.4619    0.2210 H   0  0  0  0  0  0  0  0  0  0  0  0
    4.0117    2.9815    0.8591 H   0  0  0  0  0  0  0  0  0  0  0  0
    5.1383    2.5072    2.9875 H   0  0  0  0  0  0  0  0  0  0  0  0
  1  2  1  0
  2  3  1  0
  3  4  2  0
  4  5  1  0
  5  6  2  0
  6  7  1  0
  7  8  1  0
  8  9  1  0
  9 10  2  0
 10 11  1  0
 11 12  2  0
 12 13  1  0
 13 14  1  0
 14 15  2  0
 15 16  1  0
 16 17  1  0
 17 18  2  0
 18 19  1  0
 19 20  2  0
 20 21  1  0
 21 22  2  0
 22 23  1  0
 16 24  2  0
 24 25  1  0
 25 26  2  0
 26 27  1  0
 27 28  1  0
 27 29  1  0
 12 30  1  0
 30 31  2  0
 31 32  1  0
 32 33  2  0
  6 34  1  0
 34 35  2  0
 35  3  1  0
 33  8  1  0
 33 11  1  0
 26 14  1  0
 22 17  1  0
  1 36  1  0
  1 37  1  0
  1 38  1  0
  4 39  1  0
  5 40  1  0
  7 41  1  0
  7 42  1  0
  9 43  1  0
 10 44  1  0
 13 45  1  0
 15 46  1  0
 19 47  1  0
 20 48  1  0
 21 49  1  0
 25 50  1  0
 27 51  1  0
 28 52  1  0
 28 53  1  0
 28 54  1  0
 29 55  1  0
 29 56  1  0
 29 57  1  0
 31 58  1  0
 34 59  1  0
 35 60  1  0
M  END
$$$$
