
     RDKit          3D

 47 50  0  0  0  0  0  0  0  0999 V2000
    5.0019   -2.0722   -0.6656 C   0  0  0  0  0  0  0  0  0  0  0  0
    4.2031   -0.9581   -0.8558 O   0  0  0  0  0  0  0  0  0  0  0  0
    4.5178    0.3232   -0.7904 C   0  0  0  0  0  0  0  0  0  0  0  0
    5.7751    0.8174   -0.5357 C   0  0  0  0  0  0  0  0  0  0  0  0
    6.0634    2.1547   -0.4791 C   0  0  0  0  0  0  0  0  0  0  0  0
    7.3420    2.6730   -0.1886 C   0  0  0  0  0  0  0  0  0  0  0  0
    8.4502    3.1304    0.0632 N   0  0  0  0  0  0  0  0  0  0  0  0
    4.9686    3.0189   -0.7035 C   0  0  0  0  0  0  0  0  0  0  0  0
    3.7487    2.5432   -0.9523 N   0  0  0  0  0  0  0  0  0  0  0  0
    3.4478    1.2570   -1.0104 C   0  0  0  0  0  0  0  0  0  0  0  0
    2.1414    0.6721   -1.2158 C   0  0  0  0  0  0  0  0  0  0  0  0
    1.9186   -0.5412   -1.3129 O   0  0  0  0  0  0  0  0  0  0  0  0
    0.9893    1.5535   -1.3126 N   0  0  0  0  0  0  0  0  0  0  0  0
   -0.2970    0.9921   -1.4799 C   0  0  0  0  0  0  0  0  0  0  0  0
   -0.8484    0.7611   -2.6866 C   0  0  0  0  0  0  0  0  0  0  0  0
   -2.0972    0.1716   -2.7679 C   0  0  0  0  0  0  0  0  0  0  0  0
   -2.8015   -0.1908   -1.6369 C   0  0  0  0  0  0  0  0  0  0  0  0
   -4.3664   -0.9336   -1.7955 Cl  0  0  0  0  0  0  0  0  0  0  0  0
   -2.2266    0.0518   -0.3796 C   0  0  0  0  0  0  0  0  0  0  0  0
   -2.9863   -0.3468    0.8190 C   0  0  1  0  0  0  0  0  0  0  0  0
   -2.2407    0.0147    2.0850 C   0  0  0  0  0  0  0  0  0  0  0  0
   -1.0289   -0.6025    2.2103 F   0  0  0  0  0  0  0  0  0  0  0  0
   -4.2364    0.3641    0.8489 N   0  0  0  0  0  0  0  0  0  0  0  0
   -5.2921   -0.0966    1.4199 C   0  0  0  0  0  0  0  0  0  0  0  0
   -6.5435    0.5321    1.4934 N   0  0  0  0  0  0  0  0  0  0  0  0
   -5.1290   -1.3545    2.0126 O   0  0  0  0  0  0  0  0  0  0  0  0
   -4.3773   -2.3681    1.3628 C   0  0  2  0  0  0  0  0  0  0  0  0
   -3.0376   -2.6641    2.0082 C   0  0  0  0  0  0  0  0  0  0  0  0
   -3.1410   -1.8508    0.7441 C   0  0  2  0  0  0  0  0  0  0  0  0
   -0.9910    0.6356   -0.3349 C   0  0  0  0  0  0  0  0  0  0  0  0
    5.1408   -2.6472   -1.6043 H   0  0  0  0  0  0  0  0  0  0  0  0
    4.5563   -2.7550    0.1243 H   0  0  0  0  0  0  0  0  0  0  0  0
    6.0460   -1.8399   -0.3094 H   0  0  0  0  0  0  0  0  0  0  0  0
    6.6142    0.1205   -0.3620 H   0  0  0  0  0  0  0  0  0  0  0  0
    5.1438    4.0691   -0.6652 H   0  0  0  0  0  0  0  0  0  0  0  0
    1.0991    2.5825   -1.2572 H   0  0  0  0  0  0  0  0  0  0  0  0
   -0.3489    1.0239   -3.6138 H   0  0  0  0  0  0  0  0  0  0  0  0
   -2.5618   -0.0270   -3.7465 H   0  0  0  0  0  0  0  0  0  0  0  0
   -2.8705   -0.2378    2.9560 H   0  0  0  0  0  0  0  0  0  0  0  0
   -2.1472    1.1278    2.0914 H   0  0  0  0  0  0  0  0  0  0  0  0
   -7.2929    0.3021    0.8236 H   0  0  0  0  0  0  0  0  0  0  0  0
   -6.7174    1.2380    2.2337 H   0  0  0  0  0  0  0  0  0  0  0  0
   -4.8965   -3.2006    0.8588 H   0  0  0  0  0  0  0  0  0  0  0  0
   -2.6809   -3.7193    1.9346 H   0  0  0  0  0  0  0  0  0  0  0  0
   -2.7641   -2.2082    2.9593 H   0  0  0  0  0  0  0  0  0  0  0  0
   -2.7584   -2.3743   -0.1462 H   0  0  0  0  0  0  0  0  0  0  0  0
   -0.4886    0.8581    0.6000 H   0  0  0  0  0  0  0  0  0  0  0  0
  1  2  1  0
  2  3  1  0
  3  4  2  0
  4  5  1  0
  5  6  1  0
  6  7  3  0
  5  8  2  0
  8  9  1  0
  9 10  2  0
 10 11  1  0
 11 12  2  0
 11 13  1  0
 13 14  1  0
 14 15  2  0
 15 16  1  0
 16 17  2  0
 17 18  1  0
 17 19  1  0
 19 20  1  0
 20 21  1  1
 21 22  1  0
 20 23  1  0
 23 24  2  0
 24 25  1  0
 24 26  1  0
 26 27  1  0
 27 28  1  0
 28 29  1  0
 19 30  2  0
 10  3  1  0
 30 14  1  0
 29 20  1  0
 29 27  1  0
  1 31  1  0
  1 32  1  0
  1 33  1  0
  4 34  1  0
  8 35  1  0
 13 36  1  0
 15 37  1  0
 16 38  1  0
 21 39  1  0
 21 40  1  0
 25 41  1  0
 25 42  1  0
 27 43  1  6
 28 44  1  0
 28 45  1  0
 29 46  1  6
 30 47  1  0
M  END
$$$$
