
     RDKit          3D

 56 60  0  0  0  0  0  0  0  0999 V2000
   -1.2145   -1.8795   -3.5422 C   0  0  0  0  0  0  0  0  0  0  0  0
   -0.2709   -1.0347   -2.9271 O   0  0  0  0  0  0  0  0  0  0  0  0
   -0.6645   -0.3287   -1.7999 C   0  0  0  0  0  0  0  0  0  0  0  0
   -1.9218   -0.4198   -1.2667 C   0  0  0  0  0  0  0  0  0  0  0  0
   -2.3312    0.2669   -0.1568 C   0  0  0  0  0  0  0  0  0  0  0  0
   -3.6055    0.1340    0.3317 C   0  0  0  0  0  0  0  0  0  0  0  0
   -4.5709   -0.6945   -0.2494 N   0  0  0  0  0  0  0  0  0  0  0  0
   -5.8799   -0.7559    0.3504 C   0  0  0  0  0  0  0  0  0  0  0  0
   -6.3359   -1.9647    0.8053 C   0  0  0  0  0  0  0  0  0  0  0  0
   -7.5933   -2.0088    1.3784 C   0  0  0  0  0  0  0  0  0  0  0  0
   -8.2080   -3.5339    1.9700 Cl  0  0  0  0  0  0  0  0  0  0  0  0
   -8.3915   -0.8848    1.5034 C   0  0  0  0  0  0  0  0  0  0  0  0
   -9.9934   -0.9719    2.2399 Cl  0  0  0  0  0  0  0  0  0  0  0  0
   -7.8800    0.3014    1.0283 C   0  0  0  0  0  0  0  0  0  0  0  0
   -6.6261    0.3958    0.4464 C   0  0  0  0  0  0  0  0  0  0  0  0
   -6.1454    1.5927   -0.0172 F   0  0  0  0  0  0  0  0  0  0  0  0
   -3.8893    0.8615    1.4299 N   0  0  0  0  0  0  0  0  0  0  0  0
   -3.0488    1.6706    2.0504 C   0  0  0  0  0  0  0  0  0  0  0  0
   -1.7981    1.8041    1.5751 N   0  0  0  0  0  0  0  0  0  0  0  0
   -1.4255    1.1019    0.4640 C   0  0  0  0  0  0  0  0  0  0  0  0
   -0.1442    1.2136   -0.0557 C   0  0  0  0  0  0  0  0  0  0  0  0
    0.2716    0.5248   -1.1698 C   0  0  0  0  0  0  0  0  0  0  0  0
    1.5077    0.5872   -1.7203 O   0  0  0  0  0  0  0  0  0  0  0  0
    2.5928    1.2892   -1.2714 C   0  0  0  0  0  0  0  0  0  0  0  0
    3.1932    0.8907    0.0329 C   0  0  2  0  0  0  0  0  0  0  0  0
    4.2946    1.8244    0.4788 C   0  0  0  0  0  0  0  0  0  0  0  0
    5.5064    1.1118    0.7365 N   0  0  0  0  0  0  0  0  0  0  0  0
    5.4342    0.2704    1.9079 C   0  0  0  0  0  0  0  0  0  0  0  0
    6.1763   -0.9971    1.6029 C   0  0  0  0  0  0  0  0  0  0  0  0
    6.8928   -0.6696    0.3098 C   0  0  0  0  0  0  0  0  0  0  0  0
    5.8990    0.2526   -0.3640 C   0  0  1  0  0  0  0  0  0  0  0  0
    4.7539   -0.5860   -0.8646 C   0  0  0  0  0  0  0  0  0  0  0  0
    3.6260   -0.4322   -0.1005 O   0  0  0  0  0  0  0  0  0  0  0  0
   -1.6027   -2.5699   -2.7878 H   0  0  0  0  0  0  0  0  0  0  0  0
   -2.0383   -1.2277   -3.9283 H   0  0  0  0  0  0  0  0  0  0  0  0
   -0.6827   -2.4049   -4.3668 H   0  0  0  0  0  0  0  0  0  0  0  0
   -2.6110   -1.0793   -1.7714 H   0  0  0  0  0  0  0  0  0  0  0  0
   -4.4825   -1.2904   -1.0739 H   0  0  0  0  0  0  0  0  0  0  0  0
   -5.7267   -2.8560    0.7168 H   0  0  0  0  0  0  0  0  0  0  0  0
   -8.4764    1.1931    1.1110 H   0  0  0  0  0  0  0  0  0  0  0  0
   -3.3588    2.2287    2.9409 H   0  0  0  0  0  0  0  0  0  0  0  0
    0.5247    1.9137    0.4603 H   0  0  0  0  0  0  0  0  0  0  0  0
    2.3030    2.3814   -1.2810 H   0  0  0  0  0  0  0  0  0  0  0  0
    3.4595    1.2781   -2.0126 H   0  0  0  0  0  0  0  0  0  0  0  0
    2.4416    0.8721    0.8276 H   0  0  0  0  0  0  0  0  0  0  0  0
    4.4821    2.5741   -0.3149 H   0  0  0  0  0  0  0  0  0  0  0  0
    4.0229    2.3684    1.4132 H   0  0  0  0  0  0  0  0  0  0  0  0
    5.9451    0.7519    2.7686 H   0  0  0  0  0  0  0  0  0  0  0  0
    4.3705    0.0343    2.1482 H   0  0  0  0  0  0  0  0  0  0  0  0
    5.4715   -1.8406    1.4062 H   0  0  0  0  0  0  0  0  0  0  0  0
    6.9094   -1.2827    2.3595 H   0  0  0  0  0  0  0  0  0  0  0  0
    7.8648   -0.1682    0.4910 H   0  0  0  0  0  0  0  0  0  0  0  0
    6.9921   -1.5686   -0.3365 H   0  0  0  0  0  0  0  0  0  0  0  0
    6.3637    0.8659   -1.1474 H   0  0  0  0  0  0  0  0  0  0  0  0
    4.6103   -0.3983   -1.9497 H   0  0  0  0  0  0  0  0  0  0  0  0
    5.0077   -1.6862   -0.8095 H   0  0  0  0  0  0  0  0  0  0  0  0
  1  2  1  0
  2  3  1  0
  3  4  2  0
  4  5  1  0
  5  6  2  0
  6  7  1  0
  7  8  1  0
  8  9  2  0
  9 10  1  0
 10 11  1  0
 10 12  2  0
 12 13  1  0
 12 14  1  0
 14 15  2  0
 15 16  1  0
  6 17  1  0
 17 18  2  0
 18 19  1  0
 19 20  2  0
 20 21  1  0
 21 22  2  0
 22 23  1  0
 23 24  1  0
 24 25  1  0
 25 26  1  0
 26 27  1  0
 27 28  1  0
 28 29  1  0
 29 30  1  0
 30 31  1  0
 31 32  1  0
 32 33  1  0
 22  3  1  0
 33 25  1  0
 20  5  1  0
 31 27  1  0
 15  8  1  0
  1 34  1  0
  1 35  1  0
  1 36  1  0
  4 37  1  0
  7 38  1  0
  9 39  1  0
 14 40  1  0
 18 41  1  0
 21 42  1  0
 24 43  1  0
 24 44  1  0
 25 45  1  1
 26 46  1  0
 26 47  1  0
 28 48  1  0
 28 49  1  0
 29 50  1  0
 29 51  1  0
 30 52  1  0
 30 53  1  0
 31 54  1  6
 32 55  1  0
 32 56  1  0
M  END
$$$$
