
     RDKit          3D

 69 71  0  0  0  0  0  0  0  0999 V2000
   -1.0728    5.1623   -0.0430 C   0  0  0  0  0  0  0  0  0  0  0  0
    0.4178    5.0260    0.1767 C   0  0  0  0  0  0  0  0  0  0  0  0
    0.7642    4.0230    1.2104 C   0  0  0  0  0  0  0  0  0  0  0  0
    0.3863    2.6184    1.0118 C   0  0  0  0  0  0  0  0  0  0  0  0
    0.9668    1.9175   -0.1192 N   0  0  0  0  0  0  0  0  0  0  0  0
    2.3344    1.5144   -0.0759 C   0  0  0  0  0  0  0  0  0  0  0  0
    3.2818    2.3809   -0.6389 C   0  0  0  0  0  0  0  0  0  0  0  0
    4.6196    2.0872   -0.7213 C   0  0  0  0  0  0  0  0  0  0  0  0
    5.0237    0.8563   -0.2100 C   0  0  0  0  0  0  0  0  0  0  0  0
    4.1267   -0.0224    0.3517 C   0  0  0  0  0  0  0  0  0  0  0  0
    4.5718   -1.3023    0.8767 C   0  0  0  0  0  0  0  0  0  0  0  0
    3.8907   -2.4840    0.6130 C   0  0  0  0  0  0  0  0  0  0  0  0
    4.3387   -3.6837    1.1256 C   0  0  0  0  0  0  0  0  0  0  0  0
    5.4726   -3.7310    1.9103 C   0  0  0  0  0  0  0  0  0  0  0  0
    6.0752   -5.2379    2.5816 Cl  0  0  0  0  0  0  0  0  0  0  0  0
    6.1641   -2.5765    2.1859 C   0  0  0  0  0  0  0  0  0  0  0  0
    5.7012   -1.3944    1.6660 C   0  0  0  0  0  0  0  0  0  0  0  0
    2.7690    0.3191    0.4165 C   0  0  0  0  0  0  0  0  0  0  0  0
    1.9322   -0.6099    1.0039 O   0  0  0  0  0  0  0  0  0  0  0  0
    1.6195   -0.6731    2.3668 C   0  0  0  0  0  0  0  0  0  0  0  0
    0.0075    1.5975   -1.4911 S   0  0  0  0  0  6  0  0  0  0  0  0
    0.9511    0.9898   -2.5522 O   0  0  0  0  0  0  0  0  0  0  0  0
   -0.3543    2.9414   -2.1332 O   0  0  0  0  0  0  0  0  0  0  0  0
   -1.3796    0.6225   -1.2765 C   0  0  0  0  0  0  0  0  0  0  0  0
   -2.6281    1.2537   -1.2220 C   0  0  0  0  0  0  0  0  0  0  0  0
   -3.7794    0.5756   -0.9984 C   0  0  0  0  0  0  0  0  0  0  0  0
   -3.7891   -0.8237   -0.8049 C   0  0  0  0  0  0  0  0  0  0  0  0
   -4.9680   -1.4048   -0.5906 O   0  0  0  0  0  0  0  0  0  0  0  0
   -5.5928   -2.5529   -0.3516 C   0  0  0  0  0  0  0  0  0  0  0  0
   -6.5792   -2.8466   -1.5194 C   0  0  0  0  0  0  0  0  0  0  0  0
   -6.5362   -2.4571    0.8466 C   0  0  0  0  0  0  0  0  0  0  0  0
   -7.1955   -3.4640    1.1924 O   0  0  0  0  0  0  0  0  0  0  0  0
   -6.6050   -1.2361    1.4898 O   0  0  0  0  0  0  0  0  0  0  0  0
   -2.5517   -1.4401   -0.8616 C   0  0  0  0  0  0  0  0  0  0  0  0
   -2.4671   -2.9324   -0.6721 C   0  0  0  0  0  0  0  0  0  0  0  0
   -1.3723   -0.7230   -1.0948 C   0  0  0  0  0  0  0  0  0  0  0  0
   -0.1087   -1.5297   -1.2017 C   0  0  0  0  0  0  0  0  0  0  0  0
   -1.2456    5.4957   -1.0844 H   0  0  0  0  0  0  0  0  0  0  0  0
   -1.5299    5.9380    0.6092 H   0  0  0  0  0  0  0  0  0  0  0  0
   -1.6163    4.2055    0.0891 H   0  0  0  0  0  0  0  0  0  0  0  0
    0.7256    6.0365    0.6071 H   0  0  0  0  0  0  0  0  0  0  0  0
    0.9058    4.9025   -0.7861 H   0  0  0  0  0  0  0  0  0  0  0  0
    0.2645    4.3860    2.1706 H   0  0  0  0  0  0  0  0  0  0  0  0
    1.8610    4.1499    1.4706 H   0  0  0  0  0  0  0  0  0  0  0  0
    0.6481    2.0181    1.9244 H   0  0  0  0  0  0  0  0  0  0  0  0
   -0.7333    2.5653    0.9381 H   0  0  0  0  0  0  0  0  0  0  0  0
    2.9102    3.3174   -1.0171 H   0  0  0  0  0  0  0  0  0  0  0  0
    5.3366    2.7591   -1.1546 H   0  0  0  0  0  0  0  0  0  0  0  0
    6.0635    0.5488   -0.2379 H   0  0  0  0  0  0  0  0  0  0  0  0
    3.0072   -2.4396    0.0005 H   0  0  0  0  0  0  0  0  0  0  0  0
    3.8229   -4.6264    0.9342 H   0  0  0  0  0  0  0  0  0  0  0  0
    7.0613   -2.5372    2.7936 H   0  0  0  0  0  0  0  0  0  0  0  0
    6.2243   -0.4490    1.8619 H   0  0  0  0  0  0  0  0  0  0  0  0
    2.3416   -0.0251    2.9239 H   0  0  0  0  0  0  0  0  0  0  0  0
    0.6084   -0.3089    2.6045 H   0  0  0  0  0  0  0  0  0  0  0  0
    1.7070   -1.6965    2.8009 H   0  0  0  0  0  0  0  0  0  0  0  0
   -2.6290    2.3274   -1.3698 H   0  0  0  0  0  0  0  0  0  0  0  0
   -4.7558    1.0508   -0.9532 H   0  0  0  0  0  0  0  0  0  0  0  0
   -4.9716   -3.4491   -0.2148 H   0  0  0  0  0  0  0  0  0  0  0  0
   -7.3303   -3.5506   -1.1366 H   0  0  0  0  0  0  0  0  0  0  0  0
   -7.0789   -1.8820   -1.7370 H   0  0  0  0  0  0  0  0  0  0  0  0
   -6.0351   -3.2305   -2.3836 H   0  0  0  0  0  0  0  0  0  0  0  0
   -7.3544   -1.0411    2.1432 H   0  0  0  0  0  0  0  0  0  0  0  0
   -1.3959   -3.2818   -0.7561 H   0  0  0  0  0  0  0  0  0  0  0  0
   -2.7681   -3.2128    0.3330 H   0  0  0  0  0  0  0  0  0  0  0  0
   -3.0551   -3.4596   -1.4458 H   0  0  0  0  0  0  0  0  0  0  0  0
   -0.2559   -2.2811   -2.0123 H   0  0  0  0  0  0  0  0  0  0  0  0
    0.7768   -0.9151   -1.3760 H   0  0  0  0  0  0  0  0  0  0  0  0
    0.0550   -2.0741   -0.2599 H   0  0  0  0  0  0  0  0  0  0  0  0
  1  2  1  0
  2  3  1  0
  3  4  1  0
  4  5  1  0
  5  6  1  0
  6  7  2  0
  7  8  1  0
  8  9  2  0
  9 10  1  0
 10 11  1  0
 11 12  2  0
 12 13  1  0
 13 14  2  0
 14 15  1  0
 14 16  1  0
 16 17  2  0
 10 18  2  0
 18 19  1  0
 19 20  1  0
  5 21  1  0
 21 22  2  0
 21 23  2  0
 21 24  1  0
 24 25  2  0
 25 26  1  0
 26 27  2  0
 27 28  1  0
 28 29  1  0
 29 30  1  0
 29 31  1  0
 31 32  2  0
 31 33  1  0
 27 34  1  0
 34 35  1  0
 34 36  2  0
 36 37  1  0
 18  6  1  0
 36 24  1  0
 17 11  1  0
  1 38  1  0
  1 39  1  0
  1 40  1  0
  2 41  1  0
  2 42  1  0
  3 43  1  0
  3 44  1  0
  4 45  1  0
  4 46  1  0
  7 47  1  0
  8 48  1  0
  9 49  1  0
 12 50  1  0
 13 51  1  0
 16 52  1  0
 17 53  1  0
 20 54  1  0
 20 55  1  0
 20 56  1  0
 25 57  1  0
 26 58  1  0
 29 59  1  0
 30 60  1  0
 30 61  1  0
 30 62  1  0
 33 63  1  0
 35 64  1  0
 35 65  1  0
 35 66  1  0
 37 67  1  0
 37 68  1  0
 37 69  1  0
M  END
$$$$
