
     RDKit          3D

 58 62  0  0  0  0  0  0  0  0999 V2000
   -6.0744    2.8447   -1.2836 C   0  0  0  0  0  0  0  0  0  0  0  0
   -4.8355    2.4415   -0.5699 C   0  0  0  0  0  0  0  0  0  0  0  0
   -3.9655    3.4337   -0.1897 C   0  0  0  0  0  0  0  0  0  0  0  0
   -2.8214    3.0810    0.4656 C   0  0  0  0  0  0  0  0  0  0  0  0
   -2.5724    1.7331    0.7270 C   0  0  0  0  0  0  0  0  0  0  0  0
   -3.4605    0.7505    0.3359 C   0  0  0  0  0  0  0  0  0  0  0  0
   -3.1855   -0.6510    0.6135 C   0  0  0  0  0  0  0  0  0  0  0  0
   -3.9308   -1.4375    1.3898 N   0  0  0  0  0  0  0  0  0  0  0  0
   -3.4371   -2.6565    1.4538 N   0  0  0  0  0  0  0  0  0  0  0  0
   -2.3234   -2.7023    0.6995 C   0  0  0  0  0  0  0  0  0  0  0  0
   -2.1468   -1.4471    0.1603 C   0  0  0  0  0  0  0  0  0  0  0  0
   -1.1159   -0.9164   -0.7245 C   0  0  0  0  0  0  0  0  0  0  0  0
   -1.4543   -0.4033   -1.9627 C   0  0  0  0  0  0  0  0  0  0  0  0
   -0.4780    0.0971   -2.7924 C   0  0  0  0  0  0  0  0  0  0  0  0
    0.8545    0.0786   -2.3666 C   0  0  0  0  0  0  0  0  0  0  0  0
    2.0084    0.4756   -2.9150 N   0  0  0  0  0  0  0  0  0  0  0  0
    3.0039    0.2155   -2.0504 C   0  0  0  0  0  0  0  0  0  0  0  0
    2.5084   -0.3493   -0.9398 N   0  0  0  0  0  0  0  0  0  0  0  0
    3.2810   -0.7822    0.2262 C   0  0  0  0  0  0  0  0  0  0  0  0
    3.3619    0.3515    1.1994 C   0  0  0  0  0  0  0  0  0  0  0  0
    4.0260    1.5724    0.6152 C   0  0  0  0  0  0  0  0  0  0  0  0
    5.3840    1.2712    0.1910 N   0  0  0  0  0  0  0  0  0  0  0  0
    6.2448    0.9944    1.3289 C   0  0  0  0  0  0  0  0  0  0  0  0
    5.9330    2.3648   -0.5968 C   0  0  0  0  0  0  0  0  0  0  0  0
    1.1741   -0.4368   -1.1298 C   0  0  0  0  0  0  0  0  0  0  0  0
    0.1879   -0.9407   -0.2945 C   0  0  0  0  0  0  0  0  0  0  0  0
   -1.7139   -4.0554    0.7289 C   0  0  0  0  0  0  0  0  0  0  0  0
   -2.7024   -4.8752    1.5118 C   0  0  0  0  0  0  0  0  0  0  0  0
   -3.7166   -3.9288    2.0697 C   0  0  0  0  0  0  0  0  0  0  0  0
   -4.5742    1.1385   -0.3060 N   0  0  0  0  0  0  0  0  0  0  0  0
   -6.2466    2.1059   -2.1210 H   0  0  0  0  0  0  0  0  0  0  0  0
   -6.0070    3.8721   -1.6559 H   0  0  0  0  0  0  0  0  0  0  0  0
   -6.9381    2.6954   -0.5854 H   0  0  0  0  0  0  0  0  0  0  0  0
   -4.1844    4.4574   -0.4046 H   0  0  0  0  0  0  0  0  0  0  0  0
   -2.1031    3.8291    0.7859 H   0  0  0  0  0  0  0  0  0  0  0  0
   -1.6511    1.5146    1.2482 H   0  0  0  0  0  0  0  0  0  0  0  0
   -2.4887   -0.3942   -2.2822 H   0  0  0  0  0  0  0  0  0  0  0  0
   -0.6778    0.5146   -3.7762 H   0  0  0  0  0  0  0  0  0  0  0  0
    4.0593    0.4214   -2.2029 H   0  0  0  0  0  0  0  0  0  0  0  0
    2.7453   -1.6630    0.6358 H   0  0  0  0  0  0  0  0  0  0  0  0
    4.2470   -1.1256   -0.1359 H   0  0  0  0  0  0  0  0  0  0  0  0
    2.3506    0.6857    1.5435 H   0  0  0  0  0  0  0  0  0  0  0  0
    3.8980   -0.0175    2.1078 H   0  0  0  0  0  0  0  0  0  0  0  0
    4.0024    2.4360    1.3133 H   0  0  0  0  0  0  0  0  0  0  0  0
    3.4707    1.8694   -0.2897 H   0  0  0  0  0  0  0  0  0  0  0  0
    7.3055    1.2064    1.1157 H   0  0  0  0  0  0  0  0  0  0  0  0
    6.1654   -0.0998    1.5364 H   0  0  0  0  0  0  0  0  0  0  0  0
    5.9155    1.5099    2.2378 H   0  0  0  0  0  0  0  0  0  0  0  0
    5.3449    3.2976   -0.4607 H   0  0  0  0  0  0  0  0  0  0  0  0
    6.0047    2.0395   -1.6380 H   0  0  0  0  0  0  0  0  0  0  0  0
    6.9557    2.5731   -0.2286 H   0  0  0  0  0  0  0  0  0  0  0  0
    0.4815   -1.3364    0.6694 H   0  0  0  0  0  0  0  0  0  0  0  0
   -0.7342   -4.0358    1.2630 H   0  0  0  0  0  0  0  0  0  0  0  0
   -1.6209   -4.5123   -0.2746 H   0  0  0  0  0  0  0  0  0  0  0  0
   -3.1313   -5.6946    0.9149 H   0  0  0  0  0  0  0  0  0  0  0  0
   -2.1804   -5.3565    2.3830 H   0  0  0  0  0  0  0  0  0  0  0  0
   -3.6783   -3.8006    3.1632 H   0  0  0  0  0  0  0  0  0  0  0  0
   -4.7639   -4.2536    1.8174 H   0  0  0  0  0  0  0  0  0  0  0  0
  1  2  1  0
  2  3  2  0
  3  4  1  0
  4  5  2  0
  5  6  1  0
  6  7  1  0
  7  8  2  0
  8  9  1  0
  9 10  1  0
 10 11  2  0
 11 12  1  0
 12 13  2  0
 13 14  1  0
 14 15  2  0
 15 16  1  0
 16 17  2  0
 17 18  1  0
 18 19  1  0
 19 20  1  0
 20 21  1  0
 21 22  1  0
 22 23  1  0
 22 24  1  0
 18 25  1  0
 25 26  2  0
 10 27  1  0
 27 28  1  0
 28 29  1  0
  6 30  2  0
 30  2  1  0
 11  7  1  0
 26 12  1  0
 29  9  1  0
 25 15  1  0
  1 31  1  0
  1 32  1  0
  1 33  1  0
  3 34  1  0
  4 35  1  0
  5 36  1  0
 13 37  1  0
 14 38  1  0
 17 39  1  0
 19 40  1  0
 19 41  1  0
 20 42  1  0
 20 43  1  0
 21 44  1  0
 21 45  1  0
 23 46  1  0
 23 47  1  0
 23 48  1  0
 24 49  1  0
 24 50  1  0
 24 51  1  0
 26 52  1  0
 27 53  1  0
 27 54  1  0
 28 55  1  0
 28 56  1  0
 29 57  1  0
 29 58  1  0
M  END
$$$$
