
     RDKit          3D

 40 43  0  0  0  0  0  0  0  0999 V2000
    5.9544    3.0681   -0.2427 C   0  0  0  0  0  0  0  0  0  0  0  0
    5.3050    1.7544   -0.4483 C   0  0  0  0  0  0  0  0  0  0  0  0
    5.8778    0.9762   -1.5832 N   0  0  0  0  0  0  0  0  0  0  0  0
    4.9243   -0.5128   -1.5786 S   0  0  0  0  0  0  0  0  0  0  0  0
    3.8864    0.0600   -0.0887 C   0  0  0  0  0  0  0  0  0  0  0  0
    2.8377   -0.9088    0.3714 C   0  0  0  0  0  0  0  0  0  0  0  0
    2.9747   -1.8215    1.3469 N   0  0  0  0  0  0  0  0  0  0  0  0
    1.8476   -2.5104    1.4813 N   0  0  0  0  0  0  0  0  0  0  0  0
    0.9588   -2.0404    0.5786 C   0  0  0  0  0  0  0  0  0  0  0  0
    1.5931   -1.0620   -0.0845 N   0  0  0  0  0  0  0  0  0  0  0  0
    0.8504   -0.3739   -1.1212 C   0  0  0  0  0  0  0  0  0  0  0  0
   -0.5659   -0.0728   -0.6763 C   0  0  0  0  0  0  0  0  0  0  0  0
   -1.1815   -1.2164   -0.0515 N   0  0  0  0  0  0  0  0  0  0  0  0
   -2.5687   -1.1290    0.2739 C   0  0  0  0  0  0  0  0  0  0  0  0
   -3.1867   -2.0885    0.8240 O   0  0  0  0  0  0  0  0  0  0  0  0
   -3.3669    0.0528    0.0015 C   0  0  0  0  0  0  0  0  0  0  0  0
   -3.3613    1.1446    0.8304 C   0  0  0  0  0  0  0  0  0  0  0  0
   -4.1539    2.2340    0.4966 C   0  0  0  0  0  0  0  0  0  0  0  0
   -4.9417    2.2558   -0.6318 C   0  0  0  0  0  0  0  0  0  0  0  0
   -5.9401    3.6617   -1.0263 Cl  0  0  0  0  0  0  0  0  0  0  0  0
   -4.9423    1.1544   -1.4615 C   0  0  0  0  0  0  0  0  0  0  0  0
   -4.1524    0.0760   -1.1236 C   0  0  0  0  0  0  0  0  0  0  0  0
   -0.4344   -2.3852    0.2224 C   0  0  2  0  0  0  0  0  0  0  0  0
   -1.0433   -3.2529    1.3056 C   0  0  0  0  0  0  0  0  0  0  0  0
    4.3636    1.0717    0.0892 N   0  0  0  0  0  0  0  0  0  0  0  0
    6.9727    2.8493    0.1743 H   0  0  0  0  0  0  0  0  0  0  0  0
    6.1239    3.6291   -1.1742 H   0  0  0  0  0  0  0  0  0  0  0  0
    5.3281    3.6046    0.4986 H   0  0  0  0  0  0  0  0  0  0  0  0
    1.3494    0.5970   -1.3011 H   0  0  0  0  0  0  0  0  0  0  0  0
    0.8518   -0.9285   -2.0768 H   0  0  0  0  0  0  0  0  0  0  0  0
   -0.5953    0.7652    0.0505 H   0  0  0  0  0  0  0  0  0  0  0  0
   -1.1245    0.2623   -1.5740 H   0  0  0  0  0  0  0  0  0  0  0  0
   -2.7448    1.1650    1.7443 H   0  0  0  0  0  0  0  0  0  0  0  0
   -4.1397    3.0947    1.1646 H   0  0  0  0  0  0  0  0  0  0  0  0
   -5.5452    1.1427   -2.3489 H   0  0  0  0  0  0  0  0  0  0  0  0
   -4.1981   -0.7673   -1.8233 H   0  0  0  0  0  0  0  0  0  0  0  0
   -0.4597   -3.0267   -0.7052 H   0  0  0  0  0  0  0  0  0  0  0  0
   -1.3821   -2.6771    2.1786 H   0  0  0  0  0  0  0  0  0  0  0  0
   -0.1953   -3.9045    1.6741 H   0  0  0  0  0  0  0  0  0  0  0  0
   -1.7758   -3.9406    0.8771 H   0  0  0  0  0  0  0  0  0  0  0  0
  1  2  1  0
  2  3  2  0
  3  4  1  0
  4  5  1  0
  5  6  1  0
  6  7  2  0
  7  8  1  0
  8  9  2  0
  9 10  1  0
 10 11  1  0
 11 12  1  0
 12 13  1  0
 13 14  1  0
 14 15  2  0
 14 16  1  0
 16 17  2  0
 17 18  1  0
 18 19  2  0
 19 20  1  0
 19 21  1  0
 21 22  2  0
 13 23  1  0
 23 24  1  0
  5 25  2  0
 25  2  1  0
 10  6  1  0
 22 16  1  0
 23  9  1  0
  1 26  1  0
  1 27  1  0
  1 28  1  0
 11 29  1  0
 11 30  1  0
 12 31  1  0
 12 32  1  0
 17 33  1  0
 18 34  1  0
 21 35  1  0
 22 36  1  0
 23 37  1  6
 24 38  1  0
 24 39  1  0
 24 40  1  0
M  END
$$$$
