
     RDKit          3D

 33 35  0  0  0  0  0  0  0  0999 V2000
    3.7611   -0.3389   -0.7631 N   0  0  0  0  0  0  0  0  0  0  0  0
    2.6121   -0.5531    0.0952 C   0  0  2  0  0  0  0  0  0  0  0  0
    1.7662   -1.6914   -0.3364 C   0  0  0  0  0  0  0  0  0  0  0  0
    0.4804   -1.7960    0.4602 C   0  0  0  0  0  0  0  0  0  0  0  0
   -0.2737   -0.5517    0.2758 N   0  0  0  0  0  0  0  0  0  0  0  0
   -1.6248   -0.5239   -0.0665 C   0  0  0  0  0  0  0  0  0  0  0  0
   -2.4340   -1.5414    0.4403 C   0  0  0  0  0  0  0  0  0  0  0  0
   -3.7746   -1.6264    0.1481 C   0  0  0  0  0  0  0  0  0  0  0  0
   -4.3717   -0.6865   -0.6734 C   0  0  0  0  0  0  0  0  0  0  0  0
   -6.0744   -0.7556   -1.0714 Cl  0  0  0  0  0  0  0  0  0  0  0  0
   -3.5822    0.3191   -1.1775 C   0  0  0  0  0  0  0  0  0  0  0  0
   -4.3022    1.5236   -2.2185 Cl  0  0  0  0  0  0  0  0  0  0  0  0
   -2.2388    0.4010   -0.8828 C   0  0  0  0  0  0  0  0  0  0  0  0
    0.4929    0.6556    0.4784 C   0  0  0  0  0  0  0  0  0  0  0  0
   -0.1899    1.8282    0.7790 C   0  0  0  0  0  0  0  0  0  0  0  0
    0.5262    2.9899    0.9632 C   0  0  0  0  0  0  0  0  0  0  0  0
    1.8999    3.0140    0.8569 C   0  0  0  0  0  0  0  0  0  0  0  0
    2.5811    1.8685    0.5635 C   0  0  0  0  0  0  0  0  0  0  0  0
    1.8584    0.6627    0.3709 C   0  0  0  0  0  0  0  0  0  0  0  0
    4.6468   -0.1917   -0.2208 H   0  0  0  0  0  0  0  0  0  0  0  0
    3.9496   -1.2086   -1.3432 H   0  0  0  0  0  0  0  0  0  0  0  0
    3.0588   -0.8727    1.0976 H   0  0  0  0  0  0  0  0  0  0  0  0
    1.5621   -1.6751   -1.4277 H   0  0  0  0  0  0  0  0  0  0  0  0
    2.3326   -2.6379   -0.1140 H   0  0  0  0  0  0  0  0  0  0  0  0
    0.7076   -1.9104    1.5245 H   0  0  0  0  0  0  0  0  0  0  0  0
   -0.0792   -2.6618    0.1034 H   0  0  0  0  0  0  0  0  0  0  0  0
   -2.0168   -2.3174    1.0987 H   0  0  0  0  0  0  0  0  0  0  0  0
   -4.4083   -2.4153    0.5395 H   0  0  0  0  0  0  0  0  0  0  0  0
   -1.6659    1.2108   -1.3244 H   0  0  0  0  0  0  0  0  0  0  0  0
   -1.2832    1.8090    0.8807 H   0  0  0  0  0  0  0  0  0  0  0  0
   -0.0209    3.8847    1.1941 H   0  0  0  0  0  0  0  0  0  0  0  0
    2.4406    3.9600    1.0098 H   0  0  0  0  0  0  0  0  0  0  0  0
    3.6642    1.8289    0.4678 H   0  0  0  0  0  0  0  0  0  0  0  0
  1  2  1  0
  2  3  1  0
  3  4  1  0
  4  5  1  0
  5  6  1  0
  6  7  2  0
  7  8  1  0
  8  9  2  0
  9 10  1  0
  9 11  1  0
 11 12  1  0
 11 13  2  0
  5 14  1  0
 14 15  2  0
 15 16  1  0
 16 17  2  0
 17 18  1  0
 18 19  2  0
 19  2  1  0
 13  6  1  0
 19 14  1  0
  1 20  1  0
  1 21  1  0
  2 22  1  1
  3 23  1  0
  3 24  1  0
  4 25  1  0
  4 26  1  0
  7 27  1  0
  8 28  1  0
 13 29  1  0
 15 30  1  0
 16 31  1  0
 17 32  1  0
 18 33  1  0
M  END
$$$$
