
     RDKit          3D

 54 57  0  0  0  0  0  0  0  0999 V2000
   -6.7049    4.6926    2.5249 C   0  0  0  0  0  0  0  0  0  0  0  0
   -5.4505    4.1266    2.2391 C   0  0  0  0  0  0  0  0  0  0  0  0
   -4.1315    4.3697    2.7597 C   0  0  0  0  0  0  0  0  0  0  0  0
   -3.1856    3.6933    2.3042 N   0  0  0  0  0  0  0  0  0  0  0  0
   -3.2336    2.7826    1.4067 C   0  0  0  0  0  0  0  0  0  0  0  0
   -2.2957    1.8686    0.7202 C   0  0  0  0  0  0  0  0  0  0  0  0
   -2.7557    1.0018   -0.2305 C   0  0  0  0  0  0  0  0  0  0  0  0
   -1.8677    0.1379   -0.8752 C   0  0  0  0  0  0  0  0  0  0  0  0
   -2.3385   -0.7308   -1.8304 O   0  0  0  0  0  0  0  0  0  0  0  0
   -1.6218   -1.6586   -2.5752 C   0  0  2  0  0  0  0  0  0  0  0  0
   -1.9271   -1.3441   -4.0509 C   0  0  0  0  0  0  0  0  0  0  0  0
   -3.2611   -2.0071   -4.2026 C   0  0  0  0  0  0  0  0  0  0  0  0
   -3.3991   -2.9905   -3.2665 O   0  0  0  0  0  0  0  0  0  0  0  0
   -2.2555   -3.0347   -2.4860 C   0  0  0  0  0  0  0  0  0  0  0  0
   -0.5272    0.1544   -0.5573 C   0  0  0  0  0  0  0  0  0  0  0  0
   -0.0667    1.0288    0.4013 C   0  0  0  0  0  0  0  0  0  0  0  0
    1.3239    1.1157    0.8047 C   0  0  0  0  0  0  0  0  0  0  0  0
    1.6419    1.9364    1.7002 O   0  0  0  0  0  0  0  0  0  0  0  0
    2.3740    0.3378    0.2636 N   0  0  0  0  0  0  0  0  0  0  0  0
    3.7502    0.4423    0.6853 C   0  0  2  0  0  0  0  0  0  0  0  0
    4.6641    0.8833   -0.4339 C   0  0  0  0  0  0  0  0  0  0  0  0
    4.2830   -0.8408    1.2079 C   0  0  0  0  0  0  0  0  0  0  0  0
    5.0058   -0.8965    2.3835 C   0  0  0  0  0  0  0  0  0  0  0  0
    5.4967   -2.0535    2.8701 N   0  0  0  0  0  0  0  0  0  0  0  0
    5.3037   -3.2188    2.2274 C   0  0  0  0  0  0  0  0  0  0  0  0
    5.8532   -4.4970    2.7768 C   0  0  0  0  0  0  0  0  0  0  0  0
    7.1595   -4.6761    2.3083 F   0  0  0  0  0  0  0  0  0  0  0  0
    5.1210   -5.5545    2.2757 F   0  0  0  0  0  0  0  0  0  0  0  0
    5.8826   -4.4530    4.1415 F   0  0  0  0  0  0  0  0  0  0  0  0
    4.6020   -3.1818    1.0811 N   0  0  0  0  0  0  0  0  0  0  0  0
    4.0929   -2.0510    0.5573 C   0  0  0  0  0  0  0  0  0  0  0  0
   -0.9698    1.8648    1.0151 C   0  0  0  0  0  0  0  0  0  0  0  0
   -5.0386    2.7987    1.0339 S   0  0  0  0  0  0  0  0  0  0  0  0
   -7.5234    3.9807    2.2325 H   0  0  0  0  0  0  0  0  0  0  0  0
   -6.7868    4.8940    3.6336 H   0  0  0  0  0  0  0  0  0  0  0  0
   -6.9165    5.6473    2.0025 H   0  0  0  0  0  0  0  0  0  0  0  0
   -4.0599    5.1568    3.5418 H   0  0  0  0  0  0  0  0  0  0  0  0
   -3.8074    1.0005   -0.4691 H   0  0  0  0  0  0  0  0  0  0  0  0
   -0.5511   -1.7232   -2.3997 H   0  0  0  0  0  0  0  0  0  0  0  0
   -1.1963   -1.8893   -4.6910 H   0  0  0  0  0  0  0  0  0  0  0  0
   -1.9353   -0.2631   -4.2265 H   0  0  0  0  0  0  0  0  0  0  0  0
   -3.4193   -2.3940   -5.2415 H   0  0  0  0  0  0  0  0  0  0  0  0
   -4.0462   -1.2252   -4.0032 H   0  0  0  0  0  0  0  0  0  0  0  0
   -2.4452   -3.2536   -1.4357 H   0  0  0  0  0  0  0  0  0  0  0  0
   -1.5525   -3.7754   -2.9225 H   0  0  0  0  0  0  0  0  0  0  0  0
    0.1901   -0.4820   -1.0183 H   0  0  0  0  0  0  0  0  0  0  0  0
    2.1255   -0.3450   -0.4807 H   0  0  0  0  0  0  0  0  0  0  0  0
    3.8199    1.2020    1.4877 H   0  0  0  0  0  0  0  0  0  0  0  0
    4.3670    0.2652   -1.3315 H   0  0  0  0  0  0  0  0  0  0  0  0
    5.6897    0.6037   -0.2021 H   0  0  0  0  0  0  0  0  0  0  0  0
    4.4843    1.9394   -0.6475 H   0  0  0  0  0  0  0  0  0  0  0  0
    5.1652    0.0501    2.9098 H   0  0  0  0  0  0  0  0  0  0  0  0
    3.5273   -2.0192   -0.3661 H   0  0  0  0  0  0  0  0  0  0  0  0
   -0.6531    2.5840    1.7893 H   0  0  0  0  0  0  0  0  0  0  0  0
  1  2  1  0
  2  3  2  0
  3  4  1  0
  4  5  2  0
  5  6  1  0
  6  7  2  0
  7  8  1  0
  8  9  1  0
  9 10  1  0
 10 11  1  0
 11 12  1  0
 12 13  1  0
 13 14  1  0
  8 15  2  0
 15 16  1  0
 16 17  1  0
 17 18  2  0
 17 19  1  0
 19 20  1  0
 20 21  1  0
 20 22  1  0
 22 23  2  0
 23 24  1  0
 24 25  2  0
 25 26  1  0
 26 27  1  0
 26 28  1  0
 26 29  1  0
 25 30  1  0
 30 31  2  0
 16 32  2  0
  5 33  1  0
 33  2  1  0
 32  6  1  0
 14 10  1  0
 31 22  1  0
  1 34  1  0
  1 35  1  0
  1 36  1  0
  3 37  1  0
  7 38  1  0
 10 39  1  6
 11 40  1  0
 11 41  1  0
 12 42  1  0
 12 43  1  0
 14 44  1  0
 14 45  1  0
 15 46  1  0
 19 47  1  0
 20 48  1  1
 21 49  1  0
 21 50  1  0
 21 51  1  0
 23 52  1  0
 31 53  1  0
 32 54  1  0
M  END
$$$$
