
     RDKit          3D

 74 77  0  0  0  0  0  0  0  0999 V2000
    1.3136    5.1269   -0.2301 C   0  0  0  0  0  0  0  0  0  0  0  0
    0.2360    4.8390   -1.2461 C   0  0  0  0  0  0  0  0  0  0  0  0
   -0.1134    3.3669   -1.2892 C   0  0  0  0  0  0  0  0  0  0  0  0
   -0.6183    2.9146    0.0852 C   0  0  0  0  0  0  0  0  0  0  0  0
   -0.9591    1.5155    0.0739 N   0  0  0  0  0  0  0  0  0  0  0  0
   -2.2963    1.1720   -0.2679 C   0  0  0  0  0  0  0  0  0  0  0  0
   -3.0610    2.0241   -0.7978 O   0  0  0  0  0  0  0  0  0  0  0  0
   -2.8227   -0.1899   -0.0113 C   0  0  0  0  0  0  0  0  0  0  0  0
   -4.3047   -0.0987    0.2177 C   0  0  0  0  0  0  0  0  0  0  0  0
   -4.9634   -1.4099    0.4896 C   0  0  0  0  0  0  0  0  0  0  0  0
   -6.4438   -1.1454    0.6965 C   0  0  0  0  0  0  0  0  0  0  0  0
   -7.2061   -2.4064    1.0328 C   0  0  0  0  0  0  0  0  0  0  0  0
   -6.8826   -3.5543    0.1306 C   0  0  0  0  0  0  0  0  0  0  0  0
   -5.4236   -3.7042   -0.1704 C   0  0  0  0  0  0  0  0  0  0  0  0
   -4.8595   -2.3789   -0.6639 C   0  0  0  0  0  0  0  0  0  0  0  0
   -2.0996   -0.7751    1.0615 N   0  0  0  0  0  0  0  0  0  0  0  0
   -0.7118   -0.5268    1.2583 C   0  0  0  0  0  0  0  0  0  0  0  0
   -0.0858   -1.1412    2.1584 O   0  0  0  0  0  0  0  0  0  0  0  0
    0.0218    0.4683    0.3981 C   0  0  0  0  0  0  0  0  0  0  0  0
    0.4440   -0.2443   -0.8442 C   0  0  0  0  0  0  0  0  0  0  0  0
    1.7630   -0.9484   -0.7330 C   0  0  0  0  0  0  0  0  0  0  0  0
    2.1018   -1.2072    0.6389 N   0  0  0  0  0  0  0  0  0  0  0  0
    3.2840   -2.0247    0.7257 C   0  0  0  0  0  0  0  0  0  0  0  0
    4.4909   -1.4460    0.1293 C   0  0  0  0  0  0  0  0  0  0  0  0
    5.3850   -0.7194    0.8655 C   0  0  0  0  0  0  0  0  0  0  0  0
    6.5154   -0.1813    0.2599 C   0  0  0  0  0  0  0  0  0  0  0  0
    6.7435   -0.3723   -1.0701 C   0  0  0  0  0  0  0  0  0  0  0  0
    7.8535    0.1343   -1.7521 O   0  0  0  0  0  0  0  0  0  0  0  0
    8.7803    0.8872   -0.9916 C   0  0  0  0  0  0  0  0  0  0  0  0
    5.8510   -1.1051   -1.8335 C   0  0  0  0  0  0  0  0  0  0  0  0
    4.7366   -1.6292   -1.2122 C   0  0  0  0  0  0  0  0  0  0  0  0
    2.2467   -0.0316    1.4292 C   0  0  0  0  0  0  0  0  0  0  0  0
    1.2011    1.0201    1.1219 C   0  0  0  0  0  0  0  0  0  0  0  0
    2.0951    4.3616   -0.1782 H   0  0  0  0  0  0  0  0  0  0  0  0
    0.7910    5.2567    0.7594 H   0  0  0  0  0  0  0  0  0  0  0  0
    1.7299    6.1512   -0.4533 H   0  0  0  0  0  0  0  0  0  0  0  0
    0.6758    5.0765   -2.2541 H   0  0  0  0  0  0  0  0  0  0  0  0
   -0.6366    5.4725   -1.0223 H   0  0  0  0  0  0  0  0  0  0  0  0
   -0.8857    3.1370   -2.0201 H   0  0  0  0  0  0  0  0  0  0  0  0
    0.8090    2.8198   -1.5655 H   0  0  0  0  0  0  0  0  0  0  0  0
    0.1570    3.2004    0.8126 H   0  0  0  0  0  0  0  0  0  0  0  0
   -1.5325    3.4980    0.3368 H   0  0  0  0  0  0  0  0  0  0  0  0
   -2.7072   -0.7914   -0.9610 H   0  0  0  0  0  0  0  0  0  0  0  0
   -4.4875    0.5663    1.0737 H   0  0  0  0  0  0  0  0  0  0  0  0
   -4.8006    0.3535   -0.6649 H   0  0  0  0  0  0  0  0  0  0  0  0
   -4.6077   -1.8740    1.4481 H   0  0  0  0  0  0  0  0  0  0  0  0
   -6.8193   -0.7226   -0.2774 H   0  0  0  0  0  0  0  0  0  0  0  0
   -6.5577   -0.4443    1.5357 H   0  0  0  0  0  0  0  0  0  0  0  0
   -8.2940   -2.1692    0.8853 H   0  0  0  0  0  0  0  0  0  0  0  0
   -7.0504   -2.6380    2.0913 H   0  0  0  0  0  0  0  0  0  0  0  0
   -7.2108   -4.4923    0.6648 H   0  0  0  0  0  0  0  0  0  0  0  0
   -7.4586   -3.5423   -0.8185 H   0  0  0  0  0  0  0  0  0  0  0  0
   -5.3122   -4.5006   -0.9300 H   0  0  0  0  0  0  0  0  0  0  0  0
   -4.8875   -3.9515    0.7793 H   0  0  0  0  0  0  0  0  0  0  0  0
   -3.8419   -2.4838   -1.0563 H   0  0  0  0  0  0  0  0  0  0  0  0
   -5.5248   -2.0108   -1.4612 H   0  0  0  0  0  0  0  0  0  0  0  0
   -2.5714   -1.4065    1.7373 H   0  0  0  0  0  0  0  0  0  0  0  0
   -0.3292   -1.0004   -1.0864 H   0  0  0  0  0  0  0  0  0  0  0  0
    0.5240    0.4410   -1.7289 H   0  0  0  0  0  0  0  0  0  0  0  0
    2.5826   -0.3802   -1.2636 H   0  0  0  0  0  0  0  0  0  0  0  0
    1.6849   -1.9015   -1.2914 H   0  0  0  0  0  0  0  0  0  0  0  0
    3.0713   -3.0578    0.3115 H   0  0  0  0  0  0  0  0  0  0  0  0
    3.5467   -2.2494    1.8011 H   0  0  0  0  0  0  0  0  0  0  0  0
    5.2795   -0.5268    1.9257 H   0  0  0  0  0  0  0  0  0  0  0  0
    7.2218    0.3906    0.8318 H   0  0  0  0  0  0  0  0  0  0  0  0
    8.3818    1.9024   -0.7471 H   0  0  0  0  0  0  0  0  0  0  0  0
    9.7418    1.0170   -1.5637 H   0  0  0  0  0  0  0  0  0  0  0  0
    9.0628    0.3876   -0.0448 H   0  0  0  0  0  0  0  0  0  0  0  0
    6.0177   -1.2645   -2.8856 H   0  0  0  0  0  0  0  0  0  0  0  0
    4.0586   -2.2034   -1.8627 H   0  0  0  0  0  0  0  0  0  0  0  0
    2.2329   -0.3246    2.5108 H   0  0  0  0  0  0  0  0  0  0  0  0
    3.2329    0.4160    1.1945 H   0  0  0  0  0  0  0  0  0  0  0  0
    0.8284    1.3838    2.1219 H   0  0  0  0  0  0  0  0  0  0  0  0
    1.6737    1.8752    0.6480 H   0  0  0  0  0  0  0  0  0  0  0  0
  1  2  1  0
  2  3  1  0
  3  4  1  0
  4  5  1  0
  5  6  1  0
  6  7  2  0
  6  8  1  0
  8  9  1  0
  9 10  1  0
 10 11  1  0
 11 12  1  0
 12 13  1  0
 13 14  1  0
 14 15  1  0
  8 16  1  0
 16 17  1  0
 17 18  2  0
 17 19  1  0
 19 20  1  0
 20 21  1  0
 21 22  1  0
 22 23  1  0
 23 24  1  0
 24 25  2  0
 25 26  1  0
 26 27  2  0
 27 28  1  0
 28 29  1  0
 27 30  1  0
 30 31  2  0
 22 32  1  0
 32 33  1  0
 19  5  1  0
 31 24  1  0
 15 10  1  0
 33 19  1  0
  1 34  1  0
  1 35  1  0
  1 36  1  0
  2 37  1  0
  2 38  1  0
  3 39  1  0
  3 40  1  0
  4 41  1  0
  4 42  1  0
  8 43  1  0
  9 44  1  0
  9 45  1  0
 10 46  1  0
 11 47  1  0
 11 48  1  0
 12 49  1  0
 12 50  1  0
 13 51  1  0
 13 52  1  0
 14 53  1  0
 14 54  1  0
 15 55  1  0
 15 56  1  0
 16 57  1  0
 20 58  1  0
 20 59  1  0
 21 60  1  0
 21 61  1  0
 23 62  1  0
 23 63  1  0
 25 64  1  0
 26 65  1  0
 29 66  1  0
 29 67  1  0
 29 68  1  0
 30 69  1  0
 31 70  1  0
 32 71  1  0
 32 72  1  0
 33 73  1  0
 33 74  1  0
M  END
$$$$
