
     RDKit          3D

 28 30  0  0  0  0  0  0  0  0999 V2000
    4.7244    0.9442   -0.0848 N   0  0  0  0  0  0  0  0  0  0  0  0
    3.5902    0.1027    0.0450 C   0  0  0  0  0  0  0  0  0  0  0  0
    3.6617   -1.1635    0.4736 N   0  0  0  0  0  0  0  0  0  0  0  0
    2.5280   -1.9081    0.5715 C   0  0  0  0  0  0  0  0  0  0  0  0
    1.2969   -1.4208    0.2486 N   0  0  0  0  0  0  0  0  0  0  0  0
    1.1788   -0.1466   -0.1888 C   0  0  0  0  0  0  0  0  0  0  0  0
    2.3481    0.5783   -0.2754 C   0  0  0  0  0  0  0  0  0  0  0  0
    1.9419    1.7932   -0.7310 N   0  0  0  0  0  0  0  0  0  0  0  0
    0.6225    1.7795   -0.8996 C   0  0  0  0  0  0  0  0  0  0  0  0
    0.1191    0.5755   -0.5670 N   0  0  0  0  0  0  0  0  0  0  0  0
   -1.2576    0.2119   -0.6272 C   0  0  2  0  0  0  0  0  0  0  0  0
   -2.0880    1.3233   -0.0607 C   0  0  0  0  0  0  0  0  0  0  0  0
   -3.2044    0.8464    0.5187 C   0  0  0  0  0  0  0  0  0  0  0  0
   -3.1606   -0.6498    0.3560 C   0  0  2  0  0  0  0  0  0  0  0  0
   -3.7717   -1.2479    1.4341 O   0  0  0  0  0  0  0  0  0  0  0  0
   -1.6481   -0.9070    0.3236 C   0  0  1  0  0  0  0  0  0  0  0  0
   -1.4189   -2.1659   -0.1933 O   0  0  0  0  0  0  0  0  0  0  0  0
    4.5828    1.9906   -0.0960 H   0  0  0  0  0  0  0  0  0  0  0  0
    5.6941    0.5534   -0.1693 H   0  0  0  0  0  0  0  0  0  0  0  0
    2.6943   -2.9302    0.9317 H   0  0  0  0  0  0  0  0  0  0  0  0
    0.1403    2.6812   -1.2614 H   0  0  0  0  0  0  0  0  0  0  0  0
   -1.6202   -0.0422   -1.6310 H   0  0  0  0  0  0  0  0  0  0  0  0
   -1.9350    2.4174   -0.0450 H   0  0  0  0  0  0  0  0  0  0  0  0
   -3.9984    1.3694    1.0105 H   0  0  0  0  0  0  0  0  0  0  0  0
   -3.5940   -0.9255   -0.6180 H   0  0  0  0  0  0  0  0  0  0  0  0
   -4.6310   -0.7844    1.6010 H   0  0  0  0  0  0  0  0  0  0  0  0
   -1.2160   -0.7432    1.3199 H   0  0  0  0  0  0  0  0  0  0  0  0
   -1.5791   -2.1318   -1.1669 H   0  0  0  0  0  0  0  0  0  0  0  0
  1  2  1  0
  2  3  2  0
  3  4  1  0
  4  5  2  0
  5  6  1  0
  6  7  2  0
  7  8  1  0
  8  9  2  0
  9 10  1  0
 10 11  1  0
 11 12  1  0
 12 13  2  0
 13 14  1  0
 14 15  1  0
 14 16  1  0
 16 17  1  0
  7  2  1  0
 16 11  1  0
 10  6  1  0
  1 18  1  0
  1 19  1  0
  4 20  1  0
  9 21  1  0
 11 22  1  6
 12 23  1  0
 13 24  1  0
 14 25  1  6
 15 26  1  0
 16 27  1  1
 17 28  1  0
M  END
$$$$
