
     RDKit          3D

 28 27  0  0  0  0  0  0  0  0999 V2000
   -4.0692   -0.3200    0.6490 C   0  0  0  0  0  0  0  0  0  0  0  0
   -2.6664    0.1189    0.3754 C   0  0  0  0  0  0  0  0  0  0  0  0
   -2.7141    1.1579   -0.7286 C   0  0  0  0  0  0  0  0  0  0  0  0
   -1.7823   -1.0216   -0.0782 C   0  0  0  0  0  0  0  0  0  0  0  0
   -0.3810   -0.4890   -0.3327 C   0  0  0  0  0  0  0  0  0  0  0  0
    0.1808    0.0774    0.8169 O   0  0  0  0  0  0  0  0  0  0  0  0
    1.7328    0.6167    0.3535 P   0  0  2  0  0  5  0  0  0  0  0  0
    2.5556    1.2140    1.6872 O   0  0  0  0  0  0  0  0  0  0  0  0
    1.5477    1.6698   -0.6889 O   0  0  0  0  0  0  0  0  0  0  0  0
    2.5542   -0.7526   -0.2064 O   0  0  0  0  0  0  0  0  0  0  0  0
    4.2013   -0.4946   -0.3471 P   0  0  0  0  0  0  0  0  0  0  0  0
    4.7778    0.3630    0.9997 O   0  0  0  0  0  0  0  0  0  0  0  0
    4.6093    0.3480   -1.7583 O   0  0  0  0  0  0  0  0  0  0  0  0
    4.8945   -1.8389   -0.4108 O   0  0  0  0  0  0  0  0  0  0  0  0
   -4.1276   -1.0872    1.4593 H   0  0  0  0  0  0  0  0  0  0  0  0
   -4.5135   -0.8027   -0.2477 H   0  0  0  0  0  0  0  0  0  0  0  0
   -4.6667    0.5387    0.9578 H   0  0  0  0  0  0  0  0  0  0  0  0
   -2.2345    0.6116    1.2567 H   0  0  0  0  0  0  0  0  0  0  0  0
   -1.7828    1.7283   -0.7695 H   0  0  0  0  0  0  0  0  0  0  0  0
   -2.9501    0.6164   -1.6787 H   0  0  0  0  0  0  0  0  0  0  0  0
   -3.5394    1.8723   -0.4977 H   0  0  0  0  0  0  0  0  0  0  0  0
   -2.1186   -1.4426   -1.0459 H   0  0  0  0  0  0  0  0  0  0  0  0
   -1.7390   -1.8068    0.6915 H   0  0  0  0  0  0  0  0  0  0  0  0
   -0.3831    0.2843   -1.1114 H   0  0  0  0  0  0  0  0  0  0  0  0
    0.2790   -1.3074   -0.6722 H   0  0  0  0  0  0  0  0  0  0  0  0
    2.0130    1.8730    2.1906 H   0  0  0  0  0  0  0  0  0  0  0  0
    4.9147    1.3216    0.7124 H   0  0  0  0  0  0  0  0  0  0  0  0
    5.4073    0.9291   -1.5758 H   0  0  0  0  0  0  0  0  0  0  0  0
  1  2  1  0
  2  3  1  0
  2  4  1  0
  4  5  1  0
  5  6  1  0
  7  6  1  1
  7  8  1  0
  7  9  2  0
  7 10  1  0
 10 11  1  0
 11 12  1  0
 11 13  1  0
 11 14  2  0
  1 15  1  0
  1 16  1  0
  1 17  1  0
  2 18  1  0
  3 19  1  0
  3 20  1  0
  3 21  1  0
  4 22  1  0
  4 23  1  0
  5 24  1  0
  5 25  1  0
  8 26  1  0
 12 27  1  0
 13 28  1  0
M  END
$$$$
