
     RDKit          3D

 56 58  0  0  0  0  0  0  0  0999 V2000
   -3.0244    5.4017    1.3075 C   0  0  0  0  0  0  0  0  0  0  0  0
   -2.3648    4.3330    0.6918 O   0  0  0  0  0  0  0  0  0  0  0  0
   -2.9706    3.0923    0.5902 C   0  0  0  0  0  0  0  0  0  0  0  0
   -4.2356    2.8954    1.0946 C   0  0  0  0  0  0  0  0  0  0  0  0
   -4.7869    1.6328    0.9634 C   0  0  0  0  0  0  0  0  0  0  0  0
   -4.1095    0.6004    0.3534 C   0  0  0  0  0  0  0  0  0  0  0  0
   -2.8304    0.7831   -0.1618 C   0  0  0  0  0  0  0  0  0  0  0  0
   -2.1524   -0.3725   -0.8083 C   0  0  0  0  0  0  0  0  0  0  0  0
   -1.3506   -1.1526    0.0937 N   0  0  0  0  0  0  0  0  0  0  0  0
   -1.9532   -2.2130    0.8825 C   0  0  0  0  0  0  0  0  0  0  0  0
   -1.9037   -3.5509    0.2197 C   0  0  0  0  0  0  0  0  0  0  0  0
   -2.5592   -3.7023   -1.0074 N   0  0  0  0  0  0  0  0  0  0  0  0
   -3.9653   -3.6641   -1.0654 C   0  0  0  0  0  0  0  0  0  0  0  0
   -1.8407   -3.5991   -2.2112 C   0  0  0  0  0  0  0  0  0  0  0  0
    0.0474   -0.9268    0.2744 C   0  0  0  0  0  0  0  0  0  0  0  0
    0.6758   -1.6449    1.1063 O   0  0  0  0  0  0  0  0  0  0  0  0
    0.7936    0.0615   -0.4256 N   0  0  0  0  0  0  0  0  0  0  0  0
    2.1791    0.2645   -0.2283 C   0  0  0  0  0  0  0  0  0  0  0  0
    2.6730    1.1569    0.7196 C   0  0  0  0  0  0  0  0  0  0  0  0
    4.0322    1.3092    0.8582 C   0  0  0  0  0  0  0  0  0  0  0  0
    4.9193    0.6029    0.0845 C   0  0  0  0  0  0  0  0  0  0  0  0
    6.3708    0.7880    0.2465 C   0  0  0  0  0  0  0  0  0  0  0  0
    7.0089    1.9581    0.6134 C   0  0  0  0  0  0  0  0  0  0  0  0
    8.3267    1.6884    0.6411 N   0  0  0  0  0  0  0  0  0  0  0  0
    8.5670    0.4306    0.3176 N   0  0  0  0  0  0  0  0  0  0  0  0
    7.3790   -0.1339    0.0734 C   0  0  0  0  0  0  0  0  0  0  0  0
    4.4516   -0.2743   -0.8466 C   0  0  0  0  0  0  0  0  0  0  0  0
    3.0922   -0.4314   -0.9904 C   0  0  0  0  0  0  0  0  0  0  0  0
   -2.2884    2.0364   -0.0289 C   0  0  0  0  0  0  0  0  0  0  0  0
   -2.2538    6.1980    1.4842 H   0  0  0  0  0  0  0  0  0  0  0  0
   -3.5144    5.0903    2.2342 H   0  0  0  0  0  0  0  0  0  0  0  0
   -3.8284    5.8327    0.6415 H   0  0  0  0  0  0  0  0  0  0  0  0
   -4.8065    3.6954    1.5859 H   0  0  0  0  0  0  0  0  0  0  0  0
   -5.7913    1.4457    1.3548 H   0  0  0  0  0  0  0  0  0  0  0  0
   -4.5397   -0.3951    0.2475 H   0  0  0  0  0  0  0  0  0  0  0  0
   -2.9101   -1.0250   -1.3353 H   0  0  0  0  0  0  0  0  0  0  0  0
   -1.4979   -0.0274   -1.6591 H   0  0  0  0  0  0  0  0  0  0  0  0
   -1.3691   -2.3001    1.8479 H   0  0  0  0  0  0  0  0  0  0  0  0
   -2.9811   -1.9416    1.2151 H   0  0  0  0  0  0  0  0  0  0  0  0
   -2.3014   -4.3286    0.9297 H   0  0  0  0  0  0  0  0  0  0  0  0
   -0.8260   -3.8681    0.0608 H   0  0  0  0  0  0  0  0  0  0  0  0
   -4.3658   -4.5225   -0.4779 H   0  0  0  0  0  0  0  0  0  0  0  0
   -4.2799   -3.8520   -2.1264 H   0  0  0  0  0  0  0  0  0  0  0  0
   -4.4554   -2.7462   -0.6801 H   0  0  0  0  0  0  0  0  0  0  0  0
   -2.2187   -4.3990   -2.9102 H   0  0  0  0  0  0  0  0  0  0  0  0
   -1.9222   -2.6618   -2.7748 H   0  0  0  0  0  0  0  0  0  0  0  0
   -0.7629   -3.8715   -2.0539 H   0  0  0  0  0  0  0  0  0  0  0  0
    0.3080    0.6682   -1.1228 H   0  0  0  0  0  0  0  0  0  0  0  0
    2.0145    1.7337    1.3520 H   0  0  0  0  0  0  0  0  0  0  0  0
    4.4115    1.9957    1.5882 H   0  0  0  0  0  0  0  0  0  0  0  0
    6.4742    2.8822    0.8235 H   0  0  0  0  0  0  0  0  0  0  0  0
    9.5016   -0.0608    0.2553 H   0  0  0  0  0  0  0  0  0  0  0  0
    7.1959   -1.1650   -0.2212 H   0  0  0  0  0  0  0  0  0  0  0  0
    5.1013   -0.8467   -1.4721 H   0  0  0  0  0  0  0  0  0  0  0  0
    2.7432   -1.1340   -1.7361 H   0  0  0  0  0  0  0  0  0  0  0  0
   -1.3065    2.2338   -0.4090 H   0  0  0  0  0  0  0  0  0  0  0  0
  1  2  1  0
  2  3  1  0
  3  4  2  0
  4  5  1  0
  5  6  2  0
  6  7  1  0
  7  8  1  0
  8  9  1  0
  9 10  1  0
 10 11  1  0
 11 12  1  0
 12 13  1  0
 12 14  1  0
  9 15  1  0
 15 16  2  0
 15 17  1  0
 17 18  1  0
 18 19  2  0
 19 20  1  0
 20 21  2  0
 21 22  1  0
 22 23  1  0
 23 24  2  0
 24 25  1  0
 25 26  1  0
 21 27  1  0
 27 28  2  0
  7 29  2  0
 29  3  1  0
 28 18  1  0
 26 22  2  0
  1 30  1  0
  1 31  1  0
  1 32  1  0
  4 33  1  0
  5 34  1  0
  6 35  1  0
  8 36  1  0
  8 37  1  0
 10 38  1  0
 10 39  1  0
 11 40  1  0
 11 41  1  0
 13 42  1  0
 13 43  1  0
 13 44  1  0
 14 45  1  0
 14 46  1  0
 14 47  1  0
 17 48  1  0
 19 49  1  0
 20 50  1  0
 23 51  1  0
 25 52  1  0
 26 53  1  0
 27 54  1  0
 28 55  1  0
 29 56  1  0
M  END
$$$$
