
     RDKit          3D

 53 56  0  0  0  0  0  0  0  0999 V2000
   -0.9964    1.2826    0.9332 C   0  0  2  0  0  0  0  0  0  0  0  0
   -2.2711    1.9053    1.3539 C   0  0  0  0  0  0  0  0  0  0  0  0
   -3.4776    1.4661    0.6354 C   0  0  0  0  0  0  0  0  0  0  0  0
   -4.7494    1.9539    0.5765 C   0  0  0  0  0  0  0  0  0  0  0  0
   -5.4862    1.1563   -0.2528 N   0  0  0  0  0  0  0  0  0  0  0  0
   -6.8817    1.2702   -0.6275 C   0  0  0  0  0  0  0  0  0  0  0  0
   -4.7301    0.1564   -0.7402 C   0  0  0  0  0  0  0  0  0  0  0  0
   -3.4785    0.3578   -0.1806 C   0  0  0  0  0  0  0  0  0  0  0  0
   -2.3570   -0.4098   -0.3769 C   0  0  0  0  0  0  0  0  0  0  0  0
   -2.4542   -1.5000   -1.2129 C   0  0  0  0  0  0  0  0  0  0  0  0
   -3.6957   -1.7526   -1.8073 C   0  0  0  0  0  0  0  0  0  0  0  0
   -4.7909   -0.9396   -1.5680 C   0  0  0  0  0  0  0  0  0  0  0  0
   -1.1162   -0.0519    0.2946 C   0  0  0  0  0  0  0  0  0  0  0  0
   -0.1686   -0.9709    0.2756 C   0  0  0  0  0  0  0  0  0  0  0  0
    1.1419   -0.7001    0.9289 C   0  0  2  0  0  0  0  0  0  0  0  0
    1.2130    0.7223    1.4424 C   0  0  0  0  0  0  0  0  0  0  0  0
   -0.0309    1.1612    2.0080 N   0  0  0  0  0  0  0  0  0  0  0  0
   -0.5035    0.2887    3.0631 C   0  0  0  0  0  0  0  0  0  0  0  0
    2.2739   -0.9977    0.0142 C   0  0  0  0  0  0  0  0  0  0  0  0
    1.6007   -1.3631   -0.9568 O   0  0  0  0  0  0  0  0  0  0  0  0
    3.5934   -0.8113    0.4371 N   0  0  0  0  0  0  0  0  0  0  0  0
    4.6834   -1.0924   -0.4299 C   0  0  0  0  0  0  0  0  0  0  0  0
    5.3904    0.2217   -0.7522 C   0  0  0  0  0  0  0  0  0  0  0  0
    4.4279    1.1777   -1.4313 C   0  0  0  0  0  0  0  0  0  0  0  0
    5.6292   -2.1533    0.0017 C   0  0  0  0  0  0  0  0  0  0  0  0
    6.6177   -2.2568   -1.0045 O   0  0  0  0  0  0  0  0  0  0  0  0
   -0.4889    1.9326    0.1645 H   0  0  0  0  0  0  0  0  0  0  0  0
   -2.3732    1.7555    2.4524 H   0  0  0  0  0  0  0  0  0  0  0  0
   -2.1964    3.0158    1.1595 H   0  0  0  0  0  0  0  0  0  0  0  0
   -5.1986    2.8015    1.0527 H   0  0  0  0  0  0  0  0  0  0  0  0
   -6.9949    1.6670   -1.6682 H   0  0  0  0  0  0  0  0  0  0  0  0
   -7.4159    0.3160   -0.5509 H   0  0  0  0  0  0  0  0  0  0  0  0
   -7.3105    2.0552    0.0417 H   0  0  0  0  0  0  0  0  0  0  0  0
   -1.6405   -2.1660   -1.4406 H   0  0  0  0  0  0  0  0  0  0  0  0
   -3.7855   -2.6067   -2.4668 H   0  0  0  0  0  0  0  0  0  0  0  0
   -5.7671   -1.1189   -2.0209 H   0  0  0  0  0  0  0  0  0  0  0  0
   -0.1713   -1.9368   -0.1483 H   0  0  0  0  0  0  0  0  0  0  0  0
    1.2239   -1.3964    1.7870 H   0  0  0  0  0  0  0  0  0  0  0  0
    1.4289    1.3717    0.5658 H   0  0  0  0  0  0  0  0  0  0  0  0
    2.0612    0.7844    2.1741 H   0  0  0  0  0  0  0  0  0  0  0  0
    0.3486   -0.1842    3.5578 H   0  0  0  0  0  0  0  0  0  0  0  0
   -1.1550   -0.5209    2.6744 H   0  0  0  0  0  0  0  0  0  0  0  0
   -1.0230    0.9260    3.8077 H   0  0  0  0  0  0  0  0  0  0  0  0
    3.7402   -0.4593    1.4099 H   0  0  0  0  0  0  0  0  0  0  0  0
    4.2332   -1.4502   -1.4012 H   0  0  0  0  0  0  0  0  0  0  0  0
    6.2970    0.0868   -1.3621 H   0  0  0  0  0  0  0  0  0  0  0  0
    5.7260    0.7228    0.1873 H   0  0  0  0  0  0  0  0  0  0  0  0
    3.6714    1.5714   -0.7464 H   0  0  0  0  0  0  0  0  0  0  0  0
    3.8563    0.6538   -2.2459 H   0  0  0  0  0  0  0  0  0  0  0  0
    5.0006    2.0186   -1.8645 H   0  0  0  0  0  0  0  0  0  0  0  0
    5.0823   -3.1290   -0.0420 H   0  0  0  0  0  0  0  0  0  0  0  0
    6.1128   -1.9680    0.9779 H   0  0  0  0  0  0  0  0  0  0  0  0
    7.3547   -2.8636   -0.7484 H   0  0  0  0  0  0  0  0  0  0  0  0
  1  2  1  0
  2  3  1  0
  3  4  2  0
  4  5  1  0
  5  6  1  0
  5  7  1  0
  7  8  2  0
  8  9  1  0
  9 10  2  0
 10 11  1  0
 11 12  2  0
  9 13  1  0
 13 14  2  0
 14 15  1  0
 15 16  1  0
 16 17  1  0
 17 18  1  0
 15 19  1  0
 19 20  2  0
 19 21  1  0
 21 22  1  0
 22 23  1  0
 23 24  1  0
 22 25  1  0
 25 26  1  0
 13  1  1  0
 17  1  1  0
  8  3  1  0
 12  7  1  0
  1 27  1  6
  2 28  1  0
  2 29  1  0
  4 30  1  0
  6 31  1  0
  6 32  1  0
  6 33  1  0
 10 34  1  0
 11 35  1  0
 12 36  1  0
 14 37  1  0
 15 38  1  1
 16 39  1  0
 16 40  1  0
 18 41  1  0
 18 42  1  0
 18 43  1  0
 21 44  1  0
 22 45  1  0
 23 46  1  0
 23 47  1  0
 24 48  1  0
 24 49  1  0
 24 50  1  0
 25 51  1  0
 25 52  1  0
 26 53  1  0
M  END
$$$$
