
     RDKit          3D

 72 74  0  0  0  0  0  0  0  0999 V2000
    7.3652    1.7693   -0.1672 C   0  0  0  0  0  0  0  0  0  0  0  0
    6.7267    0.3915    0.0477 C   0  0  0  0  0  0  0  0  0  0  0  0
    7.7568   -0.5785   -0.5520 C   0  0  0  0  0  0  0  0  0  0  0  0
    5.4782    0.4061   -0.7783 C   0  0  0  0  0  0  0  0  0  0  0  0
    4.6343   -0.7887   -0.7753 C   0  0  0  0  0  0  0  0  0  0  0  0
    3.9697   -1.2958    0.4133 C   0  0  0  0  0  0  0  0  0  0  0  0
    2.9111   -0.4731    1.0825 C   0  0  1  0  0  0  0  0  0  0  0  0
    3.4172    0.8421    1.5586 C   0  0  0  0  0  0  0  0  0  0  0  0
    1.6825   -0.3149    0.2621 C   0  0  1  0  0  0  0  0  0  0  0  0
    1.0617   -1.6812   -0.0639 C   0  0  0  0  0  0  0  0  0  0  0  0
   -0.2861   -1.3148   -0.6218 C   0  0  0  0  0  0  0  0  0  0  0  0
   -0.4775    0.1276   -0.3593 C   0  0  1  0  0  0  0  0  0  0  0  0
   -1.8721    0.4826    0.0127 C   0  0  0  0  0  0  0  0  0  0  0  0
   -1.9576    1.6746    0.9334 C   0  0  0  0  0  0  0  0  0  0  0  0
   -0.7544    2.5342    0.8227 C   0  0  0  0  0  0  0  0  0  0  0  0
    0.5775    1.8865    0.8690 C   0  0  0  0  0  0  0  0  0  0  0  0
    0.5039    0.3889    0.7981 C   0  0  2  0  0  0  0  0  0  0  0  0
    0.0318   -0.2422    2.0650 C   0  0  0  0  0  0  0  0  0  0  0  0
   -2.9853   -0.1491   -0.4102 C   0  0  0  0  0  0  0  0  0  0  0  0
   -4.2945    0.3043    0.0381 C   0  0  0  0  0  0  0  0  0  0  0  0
   -5.4457   -0.2155   -0.2876 C   0  0  0  0  0  0  0  0  0  0  0  0
   -6.7692    0.3067    0.2109 C   0  0  0  0  0  0  0  0  0  0  0  0
   -7.7178    0.2851   -0.9417 C   0  0  1  0  0  0  0  0  0  0  0  0
   -7.3886    1.3314   -1.7957 O   0  0  0  0  0  0  0  0  0  0  0  0
   -7.8462   -1.0308   -1.6345 C   0  0  0  0  0  0  0  0  0  0  0  0
   -6.5354   -1.5383   -2.1999 C   0  0  0  0  0  0  0  0  0  0  0  0
   -5.4424   -1.3896   -1.1804 C   0  0  0  0  0  0  0  0  0  0  0  0
   -4.4200   -2.2261   -0.9559 C   0  0  0  0  0  0  0  0  0  0  0  0
    6.5527    2.5081    0.0027 H   0  0  0  0  0  0  0  0  0  0  0  0
    7.7195    1.8873   -1.2113 H   0  0  0  0  0  0  0  0  0  0  0  0
    8.1389    1.9616    0.5919 H   0  0  0  0  0  0  0  0  0  0  0  0
    6.6286    0.2651    1.1151 H   0  0  0  0  0  0  0  0  0  0  0  0
    7.6419   -1.6028   -0.1796 H   0  0  0  0  0  0  0  0  0  0  0  0
    7.6275   -0.4888   -1.6537 H   0  0  0  0  0  0  0  0  0  0  0  0
    8.7693   -0.1941   -0.3126 H   0  0  0  0  0  0  0  0  0  0  0  0
    4.9886    1.3812   -0.5920 H   0  0  0  0  0  0  0  0  0  0  0  0
    5.8603    0.5306   -1.8479 H   0  0  0  0  0  0  0  0  0  0  0  0
    3.8229   -0.6086   -1.5588 H   0  0  0  0  0  0  0  0  0  0  0  0
    5.2159   -1.6334   -1.2773 H   0  0  0  0  0  0  0  0  0  0  0  0
    3.4713   -2.2735    0.1364 H   0  0  0  0  0  0  0  0  0  0  0  0
    4.6651   -1.6352    1.2381 H   0  0  0  0  0  0  0  0  0  0  0  0
    2.6195   -1.0434    2.0199 H   0  0  0  0  0  0  0  0  0  0  0  0
    2.9491    1.1241    2.5594 H   0  0  0  0  0  0  0  0  0  0  0  0
    4.5021    0.8242    1.8223 H   0  0  0  0  0  0  0  0  0  0  0  0
    3.1595    1.6353    0.8655 H   0  0  0  0  0  0  0  0  0  0  0  0
    1.9245    0.1292   -0.7324 H   0  0  0  0  0  0  0  0  0  0  0  0
    0.9125   -2.3126    0.8086 H   0  0  0  0  0  0  0  0  0  0  0  0
    1.6640   -2.1712   -0.8584 H   0  0  0  0  0  0  0  0  0  0  0  0
   -0.3338   -1.4951   -1.7325 H   0  0  0  0  0  0  0  0  0  0  0  0
   -1.1000   -1.9458   -0.2054 H   0  0  0  0  0  0  0  0  0  0  0  0
   -0.0825    0.7111   -1.2150 H   0  0  0  0  0  0  0  0  0  0  0  0
   -2.8268    2.3432    0.6431 H   0  0  0  0  0  0  0  0  0  0  0  0
   -2.2342    1.3437    1.9505 H   0  0  0  0  0  0  0  0  0  0  0  0
   -0.8912    3.1491   -0.1197 H   0  0  0  0  0  0  0  0  0  0  0  0
   -0.8713    3.3240    1.6268 H   0  0  0  0  0  0  0  0  0  0  0  0
    1.1185    2.1953   -0.0719 H   0  0  0  0  0  0  0  0  0  0  0  0
    1.0777    2.2308    1.7925 H   0  0  0  0  0  0  0  0  0  0  0  0
   -0.9824   -0.6910    1.9811 H   0  0  0  0  0  0  0  0  0  0  0  0
    0.6779   -1.0700    2.4073 H   0  0  0  0  0  0  0  0  0  0  0  0
    0.0937    0.5333    2.8825 H   0  0  0  0  0  0  0  0  0  0  0  0
   -2.5831   -0.9069   -1.0584 H   0  0  0  0  0  0  0  0  0  0  0  0
   -4.3712    1.1426    0.7093 H   0  0  0  0  0  0  0  0  0  0  0  0
   -7.0977   -0.3682    1.0173 H   0  0  0  0  0  0  0  0  0  0  0  0
   -6.6637    1.3587    0.5435 H   0  0  0  0  0  0  0  0  0  0  0  0
   -8.7263    0.5257   -0.5251 H   0  0  0  0  0  0  0  0  0  0  0  0
   -7.0243    2.0637   -1.2341 H   0  0  0  0  0  0  0  0  0  0  0  0
   -8.5201   -0.8578   -2.5119 H   0  0  0  0  0  0  0  0  0  0  0  0
   -8.3040   -1.7455   -0.9307 H   0  0  0  0  0  0  0  0  0  0  0  0
   -6.2510   -0.8980   -3.0572 H   0  0  0  0  0  0  0  0  0  0  0  0
   -6.6625   -2.5949   -2.4990 H   0  0  0  0  0  0  0  0  0  0  0  0
   -3.7236   -3.0488   -0.9958 H   0  0  0  0  0  0  0  0  0  0  0  0
   -4.4755   -3.0744   -1.6546 H   0  0  0  0  0  0  0  0  0  0  0  0
  1  2  1  0
  2  3  1  0
  2  4  1  0
  4  5  1  0
  5  6  1  0
  6  7  1  0
  7  8  1  0
  7  9  1  0
  9 10  1  0
 10 11  1  0
 11 12  1  0
 12 13  1  0
 13 14  1  0
 14 15  1  0
 15 16  1  0
 16 17  1  0
 17 18  1  1
 13 19  2  0
 19 20  1  0
 20 21  2  0
 21 22  1  0
 22 23  1  0
 23 24  1  0
 23 25  1  0
 25 26  1  0
 26 27  1  0
 27 28  2  0
 17  9  1  0
 27 21  1  0
 17 12  1  0
  1 29  1  0
  1 30  1  0
  1 31  1  0
  2 32  1  0
  3 33  1  0
  3 34  1  0
  3 35  1  0
  4 36  1  0
  4 37  1  0
  5 38  1  0
  5 39  1  0
  6 40  1  0
  6 41  1  0
  7 42  1  1
  8 43  1  0
  8 44  1  0
  8 45  1  0
  9 46  1  6
 10 47  1  0
 10 48  1  0
 11 49  1  0
 11 50  1  0
 12 51  1  6
 14 52  1  0
 14 53  1  0
 15 54  1  0
 15 55  1  0
 16 56  1  0
 16 57  1  0
 18 58  1  0
 18 59  1  0
 18 60  1  0
 19 61  1  0
 20 62  1  0
 22 63  1  0
 22 64  1  0
 23 65  1  1
 24 66  1  0
 25 67  1  0
 25 68  1  0
 26 69  1  0
 26 70  1  0
 28 71  1  0
 28 72  1  0
M  END
$$$$
