
     RDKit          3D

 56 57  0  0  0  0  0  0  0  0999 V2000
   -4.0494   -3.2817   -1.0819 C   0  0  2  0  0  0  0  0  0  0  0  0
   -5.0652   -3.8783   -0.1621 C   0  0  0  0  0  0  0  0  0  0  0  0
   -3.6798   -4.2512   -2.0743 N   0  0  0  0  0  0  0  0  0  0  0  0
   -2.5472   -2.7288   -0.2131 P   0  0  2  0  0  5  0  0  0  0  0  0
   -1.2415   -3.7145   -0.6501 O   0  0  0  0  0  0  0  0  0  0  0  0
   -2.8226   -2.9175    1.2556 O   0  0  0  0  0  0  0  0  0  0  0  0
   -2.2261   -0.9802   -0.5181 C   0  0  0  0  0  0  0  0  0  0  0  0
   -2.1644   -0.1505    0.7092 C   0  0  1  0  0  0  0  0  0  0  0  0
   -1.1252   -0.4536    1.7168 C   0  0  0  0  0  0  0  0  0  0  0  0
    0.2726   -0.3556    1.2854 C   0  0  0  0  0  0  0  0  0  0  0  0
    1.1192   -1.2972    0.7492 C   0  0  0  0  0  0  0  0  0  0  0  0
    2.4203   -0.9886    0.4102 C   0  0  0  0  0  0  0  0  0  0  0  0
    2.9508    0.2721    0.5859 C   0  0  0  0  0  0  0  0  0  0  0  0
    2.1242    1.2343    1.1217 C   0  0  0  0  0  0  0  0  0  0  0  0
    0.8334    0.9170    1.4547 C   0  0  0  0  0  0  0  0  0  0  0  0
    4.3399    0.4673    0.1872 C   0  0  0  0  0  0  0  0  0  0  0  0
    5.1865   -0.6212    0.3207 C   0  0  0  0  0  0  0  0  0  0  0  0
    6.5160   -0.5928   -0.0116 C   0  0  0  0  0  0  0  0  0  0  0  0
    7.0813    0.5815   -0.5152 C   0  0  0  0  0  0  0  0  0  0  0  0
    6.2270    1.6712   -0.6472 C   0  0  0  0  0  0  0  0  0  0  0  0
    4.8892    1.6354   -0.3106 C   0  0  0  0  0  0  0  0  0  0  0  0
   -2.2697    1.3157    0.3651 C   0  0  0  0  0  0  0  0  0  0  0  0
   -3.1669    2.0958    0.8381 O   0  0  0  0  0  0  0  0  0  0  0  0
   -1.3854    1.9900   -0.5218 N   0  0  0  0  0  0  0  0  0  0  0  0
   -1.5229    3.3969   -0.8218 C   0  0  1  0  0  0  0  0  0  0  0  0
   -0.2888    4.0818   -0.2272 C   0  0  0  0  0  0  0  0  0  0  0  0
   -1.5347    3.7094   -2.2610 C   0  0  0  0  0  0  0  0  0  0  0  0
   -1.6668    5.0594   -2.5592 O   0  0  0  0  0  0  0  0  0  0  0  0
   -1.4493    3.0030   -3.2977 O   0  0  0  0  0  0  0  0  0  0  0  0
   -4.5206   -2.3758   -1.5350 H   0  0  0  0  0  0  0  0  0  0  0  0
   -5.2622   -4.9536   -0.4189 H   0  0  0  0  0  0  0  0  0  0  0  0
   -6.0630   -3.3768   -0.2281 H   0  0  0  0  0  0  0  0  0  0  0  0
   -4.7607   -3.8705    0.9092 H   0  0  0  0  0  0  0  0  0  0  0  0
   -2.7492   -3.9967   -2.5047 H   0  0  0  0  0  0  0  0  0  0  0  0
   -3.6702   -5.2159   -1.6713 H   0  0  0  0  0  0  0  0  0  0  0  0
   -1.2526   -4.5269   -0.0545 H   0  0  0  0  0  0  0  0  0  0  0  0
   -3.1051   -0.5915   -1.1170 H   0  0  0  0  0  0  0  0  0  0  0  0
   -1.3647   -0.8273   -1.2066 H   0  0  0  0  0  0  0  0  0  0  0  0
   -3.1537   -0.3555    1.2486 H   0  0  0  0  0  0  0  0  0  0  0  0
   -1.3099   -1.4630    2.1651 H   0  0  0  0  0  0  0  0  0  0  0  0
   -1.3336    0.2373    2.5957 H   0  0  0  0  0  0  0  0  0  0  0  0
    0.6574   -2.2667    0.6358 H   0  0  0  0  0  0  0  0  0  0  0  0
    2.9574   -1.8250    0.0037 H   0  0  0  0  0  0  0  0  0  0  0  0
    2.5432    2.2214    1.2581 H   0  0  0  0  0  0  0  0  0  0  0  0
    0.2702    1.7634    1.8724 H   0  0  0  0  0  0  0  0  0  0  0  0
    4.8681   -1.5978    0.7026 H   0  0  0  0  0  0  0  0  0  0  0  0
    7.1845   -1.4336    0.0882 H   0  0  0  0  0  0  0  0  0  0  0  0
    8.1194    0.6276   -0.7822 H   0  0  0  0  0  0  0  0  0  0  0  0
    6.6595    2.5939   -1.0402 H   0  0  0  0  0  0  0  0  0  0  0  0
    4.2232    2.4674   -0.4081 H   0  0  0  0  0  0  0  0  0  0  0  0
   -0.6168    1.4477   -0.9712 H   0  0  0  0  0  0  0  0  0  0  0  0
   -2.3892    3.8384   -0.2770 H   0  0  0  0  0  0  0  0  0  0  0  0
   -0.0155    4.9912   -0.7956 H   0  0  0  0  0  0  0  0  0  0  0  0
    0.5879    3.4135   -0.1851 H   0  0  0  0  0  0  0  0  0  0  0  0
   -0.4898    4.4061    0.8240 H   0  0  0  0  0  0  0  0  0  0  0  0
   -1.7686    5.4496   -3.4733 H   0  0  0  0  0  0  0  0  0  0  0  0
  1  2  1  0
  1  3  1  0
  1  4  1  0
  4  5  1  6
  4  6  2  0
  4  7  1  0
  7  8  1  0
  8  9  1  0
  9 10  1  0
 10 11  2  0
 11 12  1  0
 12 13  2  0
 13 14  1  0
 14 15  2  0
 13 16  1  0
 16 17  2  0
 17 18  1  0
 18 19  2  0
 19 20  1  0
 20 21  2  0
  8 22  1  0
 22 23  2  0
 22 24  1  0
 24 25  1  0
 25 26  1  0
 25 27  1  0
 27 28  1  0
 27 29  2  0
 15 10  1  0
 21 16  1  0
  1 30  1  6
  2 31  1  0
  2 32  1  0
  2 33  1  0
  3 34  1  0
  3 35  1  0
  5 36  1  0
  7 37  1  0
  7 38  1  0
  8 39  1  1
  9 40  1  0
  9 41  1  0
 11 42  1  0
 12 43  1  0
 14 44  1  0
 15 45  1  0
 17 46  1  0
 18 47  1  0
 19 48  1  0
 20 49  1  0
 21 50  1  0
 24 51  1  0
 25 52  1  1
 26 53  1  0
 26 54  1  0
 26 55  1  0
 28 56  1  0
M  END
$$$$
