
     RDKit          3D

 41 45  0  0  0  0  0  0  0  0999 V2000
    3.9962    2.3470    1.8742 C   0  0  0  0  0  0  0  0  0  0  0  0
    2.6176    1.4672    1.1060 S   0  0  0  0  0  0  0  0  0  0  0  0
    3.2428    0.5123   -0.2590 C   0  0  0  0  0  0  0  0  0  0  0  0
    4.6039    0.5340   -0.5725 C   0  0  0  0  0  0  0  0  0  0  0  0
    5.0626   -0.2140   -1.6339 C   0  0  0  0  0  0  0  0  0  0  0  0
    4.1802   -0.9687   -2.3681 C   0  0  0  0  0  0  0  0  0  0  0  0
    2.8278   -0.9872   -2.0526 C   0  0  0  0  0  0  0  0  0  0  0  0
    2.3638   -0.2416   -0.9930 C   0  0  0  0  0  0  0  0  0  0  0  0
    0.9492   -0.2218   -0.6136 C   0  0  0  0  0  0  0  0  0  0  0  0
    0.0824    0.7026   -1.1525 C   0  0  0  0  0  0  0  0  0  0  0  0
   -1.2491    0.7145   -0.7897 C   0  0  0  0  0  0  0  0  0  0  0  0
   -2.2436    1.5203   -1.1925 N   0  0  0  0  0  0  0  0  0  0  0  0
   -3.3545    1.1401   -0.5599 C   0  0  0  0  0  0  0  0  0  0  0  0
   -4.6485    1.6532   -0.6313 C   0  0  0  0  0  0  0  0  0  0  0  0
   -5.6130    1.0656    0.1356 C   0  0  0  0  0  0  0  0  0  0  0  0
   -5.3440   -0.0004    0.9617 C   0  0  0  0  0  0  0  0  0  0  0  0
   -6.3895   -0.5438    1.7139 O   0  0  0  0  0  0  0  0  0  0  0  0
   -4.0525   -0.5180    1.0376 C   0  0  0  0  0  0  0  0  0  0  0  0
   -3.0747    0.0607    0.2744 C   0  0  0  0  0  0  0  0  0  0  0  0
   -1.7354   -0.2128    0.1306 C   0  0  0  0  0  0  0  0  0  0  0  0
   -0.8679   -1.1451    0.6761 C   0  0  0  0  0  0  0  0  0  0  0  0
    0.4549   -1.1329    0.2952 C   0  0  0  0  0  0  0  0  0  0  0  0
    1.1995   -2.2024    0.9910 C   0  0  0  0  0  0  0  0  0  0  0  0
    2.4294   -2.4514    0.8572 O   0  0  0  0  0  0  0  0  0  0  0  0
    0.2578   -2.8639    1.8141 N   0  0  0  0  0  0  0  0  0  0  0  0
   -1.0193   -2.2134    1.6218 C   0  0  0  0  0  0  0  0  0  0  0  0
   -2.0312   -2.6025    2.2341 O   0  0  0  0  0  0  0  0  0  0  0  0
    3.6634    3.1249    2.5924 H   0  0  0  0  0  0  0  0  0  0  0  0
    4.6188    2.7827    1.0587 H   0  0  0  0  0  0  0  0  0  0  0  0
    4.6865    1.6217    2.3958 H   0  0  0  0  0  0  0  0  0  0  0  0
    5.2810    1.1330    0.0161 H   0  0  0  0  0  0  0  0  0  0  0  0
    6.1239   -0.2228   -1.9109 H   0  0  0  0  0  0  0  0  0  0  0  0
    4.5263   -1.5713   -3.2173 H   0  0  0  0  0  0  0  0  0  0  0  0
    2.1608   -1.5932   -2.6526 H   0  0  0  0  0  0  0  0  0  0  0  0
    0.4642    1.4317   -1.8760 H   0  0  0  0  0  0  0  0  0  0  0  0
   -2.1648    2.3059   -1.8788 H   0  0  0  0  0  0  0  0  0  0  0  0
   -4.8629    2.4911   -1.2798 H   0  0  0  0  0  0  0  0  0  0  0  0
   -6.6328    1.4587    0.0888 H   0  0  0  0  0  0  0  0  0  0  0  0
   -7.0653   -1.1518    1.2873 H   0  0  0  0  0  0  0  0  0  0  0  0
   -3.9049   -1.3333    1.6856 H   0  0  0  0  0  0  0  0  0  0  0  0
    0.4608   -3.6745    2.4427 H   0  0  0  0  0  0  0  0  0  0  0  0
  1  2  1  0
  2  3  1  0
  3  4  2  0
  4  5  1  0
  5  6  2  0
  6  7  1  0
  7  8  2  0
  8  9  1  0
  9 10  2  0
 10 11  1  0
 11 12  1  0
 12 13  1  0
 13 14  2  0
 14 15  1  0
 15 16  2  0
 16 17  1  0
 16 18  1  0
 18 19  2  0
 19 20  1  0
 20 21  1  0
 21 22  2  0
 22 23  1  0
 23 24  2  0
 23 25  1  0
 25 26  1  0
 26 27  2  0
  8  3  1  0
 22  9  1  0
 20 11  2  0
 26 21  1  0
 19 13  1  0
  1 28  1  0
  1 29  1  0
  1 30  1  0
  4 31  1  0
  5 32  1  0
  6 33  1  0
  7 34  1  0
 10 35  1  0
 12 36  1  0
 14 37  1  0
 15 38  1  0
 17 39  1  0
 18 40  1  0
 25 41  1  0
M  END
$$$$
