
     RDKit          3D

 43 44  0  0  0  0  0  0  0  0999 V2000
    1.0798    3.0942    0.3554 O   0  0  0  0  0  0  0  0  0  0  0  0
    0.9150    2.9723   -0.8792 C   0  0  0  0  0  0  0  0  0  0  0  0
    0.7670    1.7049   -1.5980 C   0  0  0  0  0  0  0  0  0  0  0  0
    0.8971    0.4761   -0.7149 C   0  0  1  0  0  0  0  0  0  0  0  0
    2.2149    0.3574   -0.0372 C   0  0  0  0  0  0  0  0  0  0  0  0
    2.4061   -0.8101    0.8235 C   0  0  0  0  0  0  0  0  0  0  0  0
    2.7690   -2.0613    0.3095 C   0  0  0  0  0  0  0  0  0  0  0  0
    2.9832   -3.1654    1.0973 C   0  0  0  0  0  0  0  0  0  0  0  0
    2.8390   -3.0565    2.4591 C   0  0  0  0  0  0  0  0  0  0  0  0
    2.4878   -1.8610    3.0081 C   0  0  0  0  0  0  0  0  0  0  0  0
    2.2776   -0.7611    2.1904 C   0  0  0  0  0  0  0  0  0  0  0  0
   -0.2956    0.3916    0.1252 C   0  0  0  0  0  0  0  0  0  0  0  0
   -0.2139    0.5604    1.3583 O   0  0  0  0  0  0  0  0  0  0  0  0
   -1.5833    0.1091   -0.4733 N   0  0  0  0  0  0  0  0  0  0  0  0
   -1.8996   -0.1285   -1.8629 C   0  0  0  0  0  0  0  0  0  0  0  0
   -2.9665   -1.2274   -1.7121 C   0  0  0  0  0  0  0  0  0  0  0  0
   -3.8644   -0.4901   -0.7076 C   0  0  0  0  0  0  0  0  0  0  0  0
   -2.8242    0.0164    0.2540 C   0  0  1  0  0  0  0  0  0  0  0  0
   -2.7637   -0.9407    1.3737 C   0  0  0  0  0  0  0  0  0  0  0  0
   -1.7132   -1.5814    1.5975 O   0  0  0  0  0  0  0  0  0  0  0  0
   -3.8588   -1.1388    2.1819 O   0  0  0  0  0  0  0  0  0  0  0  0
    0.8655    4.1692   -1.6659 N   0  0  0  0  0  0  0  0  0  0  0  0
    0.9951    5.3639   -1.0652 O   0  0  0  0  0  0  0  0  0  0  0  0
   -0.2539    1.6980   -2.0373 H   0  0  0  0  0  0  0  0  0  0  0  0
    1.4583    1.6232   -2.4747 H   0  0  0  0  0  0  0  0  0  0  0  0
    0.8686   -0.3798   -1.4575 H   0  0  0  0  0  0  0  0  0  0  0  0
    3.0256    0.4334   -0.8260 H   0  0  0  0  0  0  0  0  0  0  0  0
    2.3990    1.2610    0.6101 H   0  0  0  0  0  0  0  0  0  0  0  0
    2.8869   -2.1674   -0.7542 H   0  0  0  0  0  0  0  0  0  0  0  0
    3.2636   -4.1174    0.6553 H   0  0  0  0  0  0  0  0  0  0  0  0
    3.0061   -3.9219    3.0824 H   0  0  0  0  0  0  0  0  0  0  0  0
    2.3758   -1.7861    4.0949 H   0  0  0  0  0  0  0  0  0  0  0  0
    2.0203    0.1566    2.7048 H   0  0  0  0  0  0  0  0  0  0  0  0
   -2.4257    0.7379   -2.2676 H   0  0  0  0  0  0  0  0  0  0  0  0
   -1.0507   -0.5005   -2.4611 H   0  0  0  0  0  0  0  0  0  0  0  0
   -2.5446   -2.1054   -1.2071 H   0  0  0  0  0  0  0  0  0  0  0  0
   -3.4777   -1.4213   -2.6522 H   0  0  0  0  0  0  0  0  0  0  0  0
   -4.6034   -1.1504   -0.2520 H   0  0  0  0  0  0  0  0  0  0  0  0
   -4.2985    0.3630   -1.2700 H   0  0  0  0  0  0  0  0  0  0  0  0
   -3.0588    1.0262    0.6409 H   0  0  0  0  0  0  0  0  0  0  0  0
   -3.7896   -1.4911    3.1454 H   0  0  0  0  0  0  0  0  0  0  0  0
    0.7297    4.1271   -2.7035 H   0  0  0  0  0  0  0  0  0  0  0  0
    1.9551    5.6218   -0.9882 H   0  0  0  0  0  0  0  0  0  0  0  0
  1  2  2  0
  2  3  1  0
  3  4  1  0
  4  5  1  0
  5  6  1  0
  6  7  2  0
  7  8  1  0
  8  9  2  0
  9 10  1  0
 10 11  2  0
  4 12  1  0
 12 13  2  0
 12 14  1  0
 14 15  1  0
 15 16  1  0
 16 17  1  0
 17 18  1  0
 18 19  1  0
 19 20  2  0
 19 21  1  0
  2 22  1  0
 22 23  1  0
 11  6  1  0
 18 14  1  0
  3 24  1  0
  3 25  1  0
  4 26  1  6
  5 27  1  0
  5 28  1  0
  7 29  1  0
  8 30  1  0
  9 31  1  0
 10 32  1  0
 11 33  1  0
 15 34  1  0
 15 35  1  0
 16 36  1  0
 16 37  1  0
 17 38  1  0
 17 39  1  0
 18 40  1  1
 21 41  1  0
 22 42  1  0
 23 43  1  0
M  END
$$$$
