
     RDKit          3D

 46 48  0  0  0  0  0  0  0  0999 V2000
    3.6296    3.2356   -0.7678 O   0  0  0  0  0  0  0  0  0  0  0  0
    3.0891    2.7316    0.5397 S   0  0  0  0  0  6  0  0  0  0  0  0
    2.1393    3.7315    1.1503 O   0  0  0  0  0  0  0  0  0  0  0  0
    4.3857    2.4876    1.6110 N   0  0  0  0  0  0  0  0  0  0  0  0
    5.4022    1.5529    1.2122 C   0  0  0  0  0  0  0  0  0  0  0  0
    5.7361    0.8180    0.3686 N   0  0  0  0  0  0  0  0  0  0  0  0
    6.7954    0.0461    0.2899 C   0  0  0  0  0  0  0  0  0  0  0  0
    7.6360    0.1035    1.3432 C   0  0  0  0  0  0  0  0  0  0  0  0
    6.8640    1.2826    2.4276 S   0  0  0  0  0  0  0  0  0  0  0  0
    2.1740    1.2684    0.2620 C   0  0  0  0  0  0  0  0  0  0  0  0
    2.4556    0.0654    0.8313 C   0  0  0  0  0  0  0  0  0  0  0  0
    1.6759   -1.0161    0.5469 C   0  0  0  0  0  0  0  0  0  0  0  0
    2.0239   -2.5672    1.2699 Cl  0  0  0  0  0  0  0  0  0  0  0  0
    0.5694   -0.9595   -0.3224 C   0  0  0  0  0  0  0  0  0  0  0  0
   -0.1739   -2.1248   -0.5997 N   0  0  0  0  0  0  0  0  0  0  0  0
   -1.3369   -2.1827   -1.4346 C   0  0  0  0  0  0  0  0  0  0  0  0
   -2.6414   -2.1461   -0.7159 C   0  0  0  0  0  0  0  0  0  0  0  0
   -2.9539   -0.9534    0.1068 C   0  0  0  0  0  0  0  0  0  0  0  0
   -4.3366   -1.2197    0.7515 C   0  0  0  0  0  0  0  0  0  0  0  0
   -4.6775    0.0329    1.5343 C   0  0  0  0  0  0  0  0  0  0  0  0
   -5.0573    1.1079    0.6179 N   0  0  0  0  0  0  0  0  0  0  0  0
   -4.5746    0.7958   -0.7247 C   0  0  0  0  0  0  0  0  0  0  0  0
   -3.1674    0.3029   -0.7147 C   0  0  0  0  0  0  0  0  0  0  0  0
    0.2960    0.2637   -0.8926 C   0  0  0  0  0  0  0  0  0  0  0  0
    1.0922    1.3501   -0.5963 C   0  0  0  0  0  0  0  0  0  0  0  0
    0.7691    2.5341   -1.1918 F   0  0  0  0  0  0  0  0  0  0  0  0
    4.4621    2.9742    2.5086 H   0  0  0  0  0  0  0  0  0  0  0  0
    6.9672   -0.6067   -0.6017 H   0  0  0  0  0  0  0  0  0  0  0  0
    8.6205   -0.4591    1.5281 H   0  0  0  0  0  0  0  0  0  0  0  0
    3.3062    0.0112    1.5027 H   0  0  0  0  0  0  0  0  0  0  0  0
    0.1403   -3.0424   -0.1625 H   0  0  0  0  0  0  0  0  0  0  0  0
   -1.3119   -1.3913   -2.2333 H   0  0  0  0  0  0  0  0  0  0  0  0
   -1.3331   -3.1461   -2.0286 H   0  0  0  0  0  0  0  0  0  0  0  0
   -3.4369   -2.2412   -1.4933 H   0  0  0  0  0  0  0  0  0  0  0  0
   -2.6776   -3.0430   -0.0370 H   0  0  0  0  0  0  0  0  0  0  0  0
   -2.2366   -0.7675    0.9153 H   0  0  0  0  0  0  0  0  0  0  0  0
   -5.0549   -1.4665   -0.0337 H   0  0  0  0  0  0  0  0  0  0  0  0
   -4.2493   -2.0502    1.4799 H   0  0  0  0  0  0  0  0  0  0  0  0
   -5.4431   -0.1493    2.3134 H   0  0  0  0  0  0  0  0  0  0  0  0
   -3.7540    0.3619    2.0509 H   0  0  0  0  0  0  0  0  0  0  0  0
   -6.1058    1.0795    0.5609 H   0  0  0  0  0  0  0  0  0  0  0  0
   -5.2797    0.1488   -1.2487 H   0  0  0  0  0  0  0  0  0  0  0  0
   -4.5698    1.7702   -1.2684 H   0  0  0  0  0  0  0  0  0  0  0  0
   -2.4430    1.0698   -0.3646 H   0  0  0  0  0  0  0  0  0  0  0  0
   -2.8924    0.0500   -1.7589 H   0  0  0  0  0  0  0  0  0  0  0  0
   -0.5217    0.3563   -1.5785 H   0  0  0  0  0  0  0  0  0  0  0  0
  1  2  2  0
  2  3  2  0
  2  4  1  0
  4  5  1  0
  5  6  2  0
  6  7  1  0
  7  8  2  0
  8  9  1  0
  2 10  1  0
 10 11  2  0
 11 12  1  0
 12 13  1  0
 12 14  2  0
 14 15  1  0
 15 16  1  0
 16 17  1  0
 17 18  1  0
 18 19  1  0
 19 20  1  0
 20 21  1  0
 21 22  1  0
 22 23  1  0
 14 24  1  0
 24 25  2  0
 25 26  1  0
  9  5  1  0
 25 10  1  0
 23 18  1  0
  4 27  1  0
  7 28  1  0
  8 29  1  0
 11 30  1  0
 15 31  1  0
 16 32  1  0
 16 33  1  0
 17 34  1  0
 17 35  1  0
 18 36  1  0
 19 37  1  0
 19 38  1  0
 20 39  1  0
 20 40  1  0
 21 41  1  0
 22 42  1  0
 22 43  1  0
 23 44  1  0
 23 45  1  0
 24 46  1  0
M  END
$$$$
