
     RDKit          3D

 37 38  0  0  0  0  0  0  0  0999 V2000
   -2.2290    2.3854    0.8403 N   0  0  0  0  0  0  0  0  0  0  0  0
   -3.1208    1.6760    0.6400 C   0  0  0  0  0  0  0  0  0  0  0  0
   -4.2354    0.8067    0.3862 C   0  0  0  0  0  0  0  0  0  0  0  0
   -5.5419    1.2039    0.5641 C   0  0  0  0  0  0  0  0  0  0  0  0
   -5.8977    2.8214    1.1193 Cl  0  0  0  0  0  0  0  0  0  0  0  0
   -6.5868    0.3444    0.3110 C   0  0  0  0  0  0  0  0  0  0  0  0
   -6.3780   -0.9550   -0.1326 C   0  0  0  0  0  0  0  0  0  0  0  0
   -7.7120   -2.0405   -0.4518 Cl  0  0  0  0  0  0  0  0  0  0  0  0
   -5.0590   -1.3474   -0.3093 C   0  0  0  0  0  0  0  0  0  0  0  0
   -3.9959   -0.4899   -0.0574 C   0  0  0  0  0  0  0  0  0  0  0  0
   -2.6430   -1.0043   -0.2759 C   0  0  0  0  0  0  0  0  0  0  0  0
   -1.6256   -0.0988    0.0020 O   0  0  0  0  0  0  0  0  0  0  0  0
   -0.3100   -0.5045   -0.1782 C   0  0  0  0  0  0  0  0  0  0  0  0
    0.0167   -1.7758   -0.6238 C   0  0  0  0  0  0  0  0  0  0  0  0
    1.2957   -2.2122   -0.8133 C   0  0  0  0  0  0  0  0  0  0  0  0
    2.3290   -1.3303   -0.5437 C   0  0  0  0  0  0  0  0  0  0  0  0
    2.0811   -0.0442   -0.0955 C   0  0  0  0  0  0  0  0  0  0  0  0
    3.1707    0.8675    0.1831 C   0  0  0  0  0  0  0  0  0  0  0  0
    2.9036    2.0294    0.5897 O   0  0  0  0  0  0  0  0  0  0  0  0
    4.5653    0.4605    0.0003 C   0  0  0  0  0  0  0  0  0  0  0  0
    5.5354    1.5118    0.3344 C   0  0  0  0  0  0  0  0  0  0  0  0
    5.1000    2.6224    0.7311 O   0  0  0  0  0  0  0  0  0  0  0  0
    6.9690    1.3046    0.2198 C   0  0  0  0  0  0  0  0  0  0  0  0
    7.3883    0.1883   -0.1784 O   0  0  0  0  0  0  0  0  0  0  0  0
    7.8477    2.3165    0.5430 O   0  0  0  0  0  0  0  0  0  0  0  0
    0.7602    0.3384    0.0769 C   0  0  0  0  0  0  0  0  0  0  0  0
   -7.5927    0.6716    0.4551 H   0  0  0  0  0  0  0  0  0  0  0  0
   -4.8630   -2.3535   -0.6539 H   0  0  0  0  0  0  0  0  0  0  0  0
   -2.5459   -1.4250   -1.2978 H   0  0  0  0  0  0  0  0  0  0  0  0
   -2.5128   -1.8879    0.4124 H   0  0  0  0  0  0  0  0  0  0  0  0
   -0.8213   -2.4422   -0.8257 H   0  0  0  0  0  0  0  0  0  0  0  0
    1.4934   -3.2039   -1.1591 H   0  0  0  0  0  0  0  0  0  0  0  0
    3.3445   -1.6988   -0.7017 H   0  0  0  0  0  0  0  0  0  0  0  0
    4.8032   -0.4205    0.6591 H   0  0  0  0  0  0  0  0  0  0  0  0
    4.6734    0.0782   -1.0375 H   0  0  0  0  0  0  0  0  0  0  0  0
    8.8137    2.2730    0.2487 H   0  0  0  0  0  0  0  0  0  0  0  0
    0.5799    1.3345    0.4235 H   0  0  0  0  0  0  0  0  0  0  0  0
  1  2  3  0
  2  3  1  0
  3  4  2  0
  4  5  1  0
  4  6  1  0
  6  7  2  0
  7  8  1  0
  7  9  1  0
  9 10  2  0
 10 11  1  0
 11 12  1  0
 12 13  1  0
 13 14  2  0
 14 15  1  0
 15 16  2  0
 16 17  1  0
 17 18  1  0
 18 19  2  0
 18 20  1  0
 20 21  1  0
 21 22  2  0
 21 23  1  0
 23 24  2  0
 23 25  1  0
 17 26  2  0
 10  3  1  0
 26 13  1  0
  6 27  1  0
  9 28  1  0
 11 29  1  0
 11 30  1  0
 14 31  1  0
 15 32  1  0
 16 33  1  0
 20 34  1  0
 20 35  1  0
 25 36  1  0
 26 37  1  0
M  END
$$$$
