
     RDKit          3D

 37 39  0  0  0  0  0  0  0  0999 V2000
   -1.6944   -0.5049   -0.8412 C   0  0  1  0  0  0  0  0  0  0  0  0
   -2.8345   -0.6668    0.1088 C   0  0  0  0  0  0  0  0  0  0  0  0
   -3.3724    0.5987    0.3346 O   0  0  0  0  0  0  0  0  0  0  0  0
   -4.6678    0.5947    1.3847 P   0  0  0  0  0  0  0  0  0  0  0  0
   -5.8111    1.7897    0.9449 O   0  0  0  0  0  0  0  0  0  0  0  0
   -4.1714    0.8043    2.9886 O   0  0  0  0  0  0  0  0  0  0  0  0
   -5.4386   -0.7128    1.3469 O   0  0  0  0  0  0  0  0  0  0  0  0
   -0.6829    0.3269   -0.3640 O   0  0  0  0  0  0  0  0  0  0  0  0
    0.3156    0.2209   -1.3133 C   0  0  1  0  0  0  0  0  0  0  0  0
    1.6353    0.5316   -0.8381 N   0  0  0  0  0  0  0  0  0  0  0  0
    2.5829    1.1703   -1.5833 C   0  0  0  0  0  0  0  0  0  0  0  0
    2.4103    1.7949   -3.3841 Br  0  0  0  0  0  0  0  0  0  0  0  0
    3.7120    1.3165   -0.8643 N   0  0  0  0  0  0  0  0  0  0  0  0
    3.5319    0.7824    0.3561 C   0  0  0  0  0  0  0  0  0  0  0  0
    4.3491    0.6652    1.4593 C   0  0  0  0  0  0  0  0  0  0  0  0
    5.6705    1.1803    1.4017 N   0  0  0  0  0  0  0  0  0  0  0  0
    3.8136    0.0479    2.5502 N   0  0  0  0  0  0  0  0  0  0  0  0
    2.5410   -0.4167    2.5235 C   0  0  0  0  0  0  0  0  0  0  0  0
    1.7321   -0.3110    1.4584 N   0  0  0  0  0  0  0  0  0  0  0  0
    2.2294    0.2999    0.3468 C   0  0  0  0  0  0  0  0  0  0  0  0
    0.2103   -1.1813   -1.8994 C   0  0  2  0  0  0  0  0  0  0  0  0
   -0.3089   -1.1354   -3.1871 O   0  0  0  0  0  0  0  0  0  0  0  0
   -0.8762   -1.7732   -1.0189 C   0  0  2  0  0  0  0  0  0  0  0  0
   -1.5810   -2.7550   -1.6973 O   0  0  0  0  0  0  0  0  0  0  0  0
   -2.0080   -0.1049   -1.8222 H   0  0  0  0  0  0  0  0  0  0  0  0
   -2.5737   -1.1680    1.0431 H   0  0  0  0  0  0  0  0  0  0  0  0
   -3.6305   -1.2279   -0.4321 H   0  0  0  0  0  0  0  0  0  0  0  0
   -5.3361    2.5496    0.5380 H   0  0  0  0  0  0  0  0  0  0  0  0
   -3.2733    0.4420    3.1234 H   0  0  0  0  0  0  0  0  0  0  0  0
    0.0385    0.9496   -2.1269 H   0  0  0  0  0  0  0  0  0  0  0  0
    6.3789    0.5438    0.9759 H   0  0  0  0  0  0  0  0  0  0  0  0
    5.6558    2.1450    1.8223 H   0  0  0  0  0  0  0  0  0  0  0  0
    2.2709   -0.8846    3.4828 H   0  0  0  0  0  0  0  0  0  0  0  0
    1.1621   -1.7284   -1.8335 H   0  0  0  0  0  0  0  0  0  0  0  0
    0.2222   -0.5581   -3.7902 H   0  0  0  0  0  0  0  0  0  0  0  0
   -0.5259   -2.0838   -0.0328 H   0  0  0  0  0  0  0  0  0  0  0  0
   -1.6756   -3.5819   -1.1615 H   0  0  0  0  0  0  0  0  0  0  0  0
  1  2  1  0
  2  3  1  0
  3  4  1  0
  4  5  1  0
  4  6  1  0
  4  7  2  0
  1  8  1  0
  8  9  1  0
  9 10  1  0
 10 11  1  0
 11 12  1  0
 11 13  2  0
 13 14  1  0
 14 15  2  0
 15 16  1  0
 15 17  1  0
 17 18  2  0
 18 19  1  0
 19 20  2  0
  9 21  1  0
 21 22  1  0
 21 23  1  0
 23 24  1  0
 23  1  1  0
 20 10  1  0
 20 14  1  0
  1 25  1  6
  2 26  1  0
  2 27  1  0
  5 28  1  0
  6 29  1  0
  9 30  1  6
 16 31  1  0
 16 32  1  0
 18 33  1  0
 21 34  1  6
 22 35  1  0
 23 36  1  1
 24 37  1  0
M  END
$$$$
