
     RDKit          3D

 75 76  0  0  0  0  0  0  0  0999 V2000
   -4.9992    0.1129    2.7720 C   0  0  0  0  0  0  0  0  0  0  0  0
   -4.4905   -1.3096    2.7234 C   0  0  0  0  0  0  0  0  0  0  0  0
   -3.8331   -1.6249    1.3965 C   0  0  0  0  0  0  0  0  0  0  0  0
   -3.3561   -3.0570    1.4339 C   0  0  0  0  0  0  0  0  0  0  0  0
   -4.7754   -1.4766    0.2429 C   0  0  0  0  0  0  0  0  0  0  0  0
   -2.7471   -0.7359    1.2120 O   0  0  0  0  0  0  0  0  0  0  0  0
   -1.9270   -0.7515    0.0976 C   0  0  0  0  0  0  0  0  0  0  0  0
   -2.2545   -1.6571   -0.7500 O   0  0  0  0  0  0  0  0  0  0  0  0
   -0.8027    0.1561   -0.1119 C   0  0  0  0  0  0  0  0  0  0  0  0
   -0.0773   -0.0608   -1.3689 C   0  0  0  0  0  0  0  0  0  0  0  0
   -0.6991   -0.2693   -2.5802 C   0  0  0  0  0  0  0  0  0  0  0  0
    0.0037   -0.3876   -3.7789 C   0  0  0  0  0  0  0  0  0  0  0  0
   -0.7333   -0.6125   -5.0471 C   0  0  0  0  0  0  0  0  0  0  0  0
    1.3740   -0.2926   -3.7605 C   0  0  0  0  0  0  0  0  0  0  0  0
    2.0321   -0.0823   -2.5447 C   0  0  0  0  0  0  0  0  0  0  0  0
    3.4958    0.0975   -2.6660 C   0  0  0  0  0  0  0  0  0  0  0  0
    1.3230    0.0248   -1.3893 C   0  0  0  0  0  0  0  0  0  0  0  0
    1.9592    0.2157   -0.1967 O   0  0  0  0  0  0  0  0  0  0  0  0
    2.3614   -0.8236    0.6467 C   0  0  0  0  0  0  0  0  0  0  0  0
    3.3439   -1.8105    0.1873 C   0  0  0  0  0  0  0  0  0  0  0  0
    2.9107   -2.5174   -0.9664 O   0  0  0  0  0  0  0  0  0  0  0  0
    4.7881   -1.6009    0.2240 C   0  0  0  0  0  0  0  0  0  0  0  0
    5.5041   -1.4138    1.5067 C   0  0  1  0  0  0  0  0  0  0  0  0
    6.9057   -1.2791    1.2033 O   0  0  0  0  0  0  0  0  0  0  0  0
    5.1608   -0.2916    2.4043 C   0  0  0  0  0  0  0  0  0  0  0  0
    5.3268    1.0409    1.7885 C   0  0  0  0  0  0  0  0  0  0  0  0
    4.4154    1.5561    1.1173 O   0  0  0  0  0  0  0  0  0  0  0  0
    6.4959    1.7979    1.9156 O   0  0  0  0  0  1  0  0  0  0  0  0
   -1.1477    1.6354   -0.0139 C   0  0  0  0  0  0  0  0  0  0  0  0
   -2.1634    2.1258   -0.9671 C   0  0  0  0  0  0  0  0  0  0  0  0
   -2.2252    3.6355   -0.9118 C   0  0  0  0  0  0  0  0  0  0  0  0
   -1.5639    4.2164    0.3176 C   0  0  0  0  0  0  0  0  0  0  0  0
   -2.0059    3.4372    1.5157 C   0  0  0  0  0  0  0  0  0  0  0  0
   -1.4599    2.0506    1.4054 C   0  0  0  0  0  0  0  0  0  0  0  0
   -6.1059    0.1645    2.5941 H   0  0  0  0  0  0  0  0  0  0  0  0
   -4.8727    0.4442    3.8434 H   0  0  0  0  0  0  0  0  0  0  0  0
   -4.4752    0.7849    2.0799 H   0  0  0  0  0  0  0  0  0  0  0  0
   -3.8645   -1.5941    3.5736 H   0  0  0  0  0  0  0  0  0  0  0  0
   -5.4052   -1.9698    2.7820 H   0  0  0  0  0  0  0  0  0  0  0  0
   -2.2599   -3.1378    1.6404 H   0  0  0  0  0  0  0  0  0  0  0  0
   -3.6332   -3.5957    0.4992 H   0  0  0  0  0  0  0  0  0  0  0  0
   -3.8559   -3.6063    2.2615 H   0  0  0  0  0  0  0  0  0  0  0  0
   -4.6147   -0.4750   -0.2506 H   0  0  0  0  0  0  0  0  0  0  0  0
   -5.8403   -1.5011    0.5153 H   0  0  0  0  0  0  0  0  0  0  0  0
   -4.5753   -2.2298   -0.5412 H   0  0  0  0  0  0  0  0  0  0  0  0
   -0.1082    0.0002    0.7411 H   0  0  0  0  0  0  0  0  0  0  0  0
   -1.7724   -0.3553   -2.5923 H   0  0  0  0  0  0  0  0  0  0  0  0
   -1.0399   -1.6667   -5.1789 H   0  0  0  0  0  0  0  0  0  0  0  0
   -1.6787   -0.0212   -4.9713 H   0  0  0  0  0  0  0  0  0  0  0  0
   -0.1943   -0.2070   -5.9280 H   0  0  0  0  0  0  0  0  0  0  0  0
    1.9049   -0.3849   -4.6978 H   0  0  0  0  0  0  0  0  0  0  0  0
    3.7427    0.6888   -3.5910 H   0  0  0  0  0  0  0  0  0  0  0  0
    3.8143    0.7872   -1.8367 H   0  0  0  0  0  0  0  0  0  0  0  0
    4.0988   -0.7971   -2.6340 H   0  0  0  0  0  0  0  0  0  0  0  0
    1.4241   -1.4788    0.8979 H   0  0  0  0  0  0  0  0  0  0  0  0
    2.6264   -0.4519    1.6611 H   0  0  0  0  0  0  0  0  0  0  0  0
    3.1951   -2.6963    0.9807 H   0  0  0  0  0  0  0  0  0  0  0  0
    3.6854   -3.1084   -1.2230 H   0  0  0  0  0  0  0  0  0  0  0  0
    4.9981   -0.6713   -0.4257 H   0  0  0  0  0  0  0  0  0  0  0  0
    5.3141   -2.4415   -0.3704 H   0  0  0  0  0  0  0  0  0  0  0  0
    5.4918   -2.3544    2.1312 H   0  0  0  0  0  0  0  0  0  0  0  0
    7.3576   -1.2864    2.0878 H   0  0  0  0  0  0  0  0  0  0  0  0
    6.0122   -0.3147    3.2004 H   0  0  0  0  0  0  0  0  0  0  0  0
    4.2814   -0.4358    3.0238 H   0  0  0  0  0  0  0  0  0  0  0  0
   -0.1920    2.2066   -0.2594 H   0  0  0  0  0  0  0  0  0  0  0  0
   -1.8319    1.8835   -2.0197 H   0  0  0  0  0  0  0  0  0  0  0  0
   -3.1776    1.6839   -0.7904 H   0  0  0  0  0  0  0  0  0  0  0  0
   -1.6675    4.0335   -1.7812 H   0  0  0  0  0  0  0  0  0  0  0  0
   -3.2672    4.0021   -1.0322 H   0  0  0  0  0  0  0  0  0  0  0  0
   -1.8421    5.2853    0.3540 H   0  0  0  0  0  0  0  0  0  0  0  0
   -0.4596    4.1623    0.2464 H   0  0  0  0  0  0  0  0  0  0  0  0
   -3.1115    3.3473    1.5813 H   0  0  0  0  0  0  0  0  0  0  0  0
   -1.5788    3.9176    2.4187 H   0  0  0  0  0  0  0  0  0  0  0  0
   -2.1446    1.3345    1.9173 H   0  0  0  0  0  0  0  0  0  0  0  0
   -0.5173    2.0070    2.0355 H   0  0  0  0  0  0  0  0  0  0  0  0
  1  2  1  0
  2  3  1  0
  3  4  1  0
  3  5  1  0
  3  6  1  0
  6  7  1  0
  7  8  2  0
  7  9  1  0
  9 10  1  0
 10 11  2  0
 11 12  1  0
 12 13  1  0
 12 14  2  0
 14 15  1  0
 15 16  1  0
 15 17  2  0
 17 18  1  0
 18 19  1  0
 19 20  1  0
 20 21  1  0
 20 22  1  0
 22 23  1  0
 23 24  1  0
 23 25  1  0
 25 26  1  0
 26 27  2  0
 26 28  1  0
  9 29  1  0
 29 30  1  0
 30 31  1  0
 31 32  1  0
 32 33  1  0
 33 34  1  0
 17 10  1  0
 34 29  1  0
  1 35  1  0
  1 36  1  0
  1 37  1  0
  2 38  1  0
  2 39  1  0
  4 40  1  0
  4 41  1  0
  4 42  1  0
  5 43  1  0
  5 44  1  0
  5 45  1  0
  9 46  1  0
 11 47  1  0
 13 48  1  0
 13 49  1  0
 13 50  1  0
 14 51  1  0
 16 52  1  0
 16 53  1  0
 16 54  1  0
 19 55  1  0
 19 56  1  0
 20 57  1  0
 21 58  1  0
 22 59  1  0
 22 60  1  0
 23 61  1  1
 24 62  1  0
 25 63  1  0
 25 64  1  0
 29 65  1  0
 30 66  1  0
 30 67  1  0
 31 68  1  0
 31 69  1  0
 32 70  1  0
 32 71  1  0
 33 72  1  0
 33 73  1  0
 34 74  1  0
 34 75  1  0
M  CHG  1  28  -1
M  END
$$$$
