
     RDKit          3D

 43 46  0  0  0  0  0  0  0  0999 V2000
    8.0302    3.1801    3.8346 N   0  0  0  0  0  0  0  0  0  0  0  0
    7.1084    2.6015    3.4520 C   0  0  0  0  0  0  0  0  0  0  0  0
    5.9319    1.8922    2.9759 C   0  0  0  0  0  0  0  0  0  0  0  0
    6.0286    0.7011    2.2854 C   0  0  0  0  0  0  0  0  0  0  0  0
    4.8911    0.0517    1.8463 C   0  0  0  0  0  0  0  0  0  0  0  0
    3.6432    0.5821    2.0904 C   0  0  0  0  0  0  0  0  0  0  0  0
    2.4211   -0.0880    1.6347 C   0  0  0  0  0  0  0  0  0  0  0  0
    2.5403   -1.1665    1.0112 O   0  0  0  0  0  0  0  0  0  0  0  0
    1.1531    0.4589    1.8873 N   0  0  0  0  0  0  0  0  0  0  0  0
   -0.0111   -0.2233    1.4276 C   0  0  0  0  0  0  0  0  0  0  0  0
   -0.6514   -1.1587    2.2088 C   0  0  0  0  0  0  0  0  0  0  0  0
   -1.7738   -1.8142    1.7617 C   0  0  0  0  0  0  0  0  0  0  0  0
   -2.3981   -2.7324    2.5345 F   0  0  0  0  0  0  0  0  0  0  0  0
   -2.2536   -1.5200    0.5104 C   0  0  0  0  0  0  0  0  0  0  0  0
   -3.3612   -2.1471    0.0329 F   0  0  0  0  0  0  0  0  0  0  0  0
   -1.6545   -0.5834   -0.3336 C   0  0  0  0  0  0  0  0  0  0  0  0
   -2.2346   -0.3323   -1.6775 C   0  0  1  0  0  0  0  0  0  0  0  0
   -1.4217    0.6757   -2.4435 C   0  0  0  0  0  0  0  0  0  0  0  0
   -1.3933    1.8942   -1.8005 F   0  0  0  0  0  0  0  0  0  0  0  0
   -2.1848   -1.6068   -2.4031 N   0  0  0  0  0  0  0  0  0  0  0  0
   -2.9233   -1.8145   -3.4397 C   0  0  0  0  0  0  0  0  0  0  0  0
   -2.9067   -3.0313   -4.1708 N   0  0  0  0  0  0  0  0  0  0  0  0
   -3.7585   -0.7386   -3.8023 O   0  0  0  0  0  0  0  0  0  0  0  0
   -4.4393   -0.0077   -2.8018 C   0  0  2  0  0  0  0  0  0  0  0  0
   -4.0142    1.3557   -2.3903 C   0  0  0  0  0  0  0  0  0  0  0  0
   -3.6540    0.1570   -1.5614 C   0  0  2  0  0  0  0  0  0  0  0  0
   -0.5352    0.0456    0.1574 C   0  0  0  0  0  0  0  0  0  0  0  0
    3.5528    1.7488    2.7669 N   0  0  0  0  0  0  0  0  0  0  0  0
    4.6611    2.3824    3.1952 C   0  0  0  0  0  0  0  0  0  0  0  0
    7.0053    0.2899    2.0967 H   0  0  0  0  0  0  0  0  0  0  0  0
    4.9441   -0.8782    1.3061 H   0  0  0  0  0  0  0  0  0  0  0  0
    1.0966    1.3610    2.4111 H   0  0  0  0  0  0  0  0  0  0  0  0
   -0.2190   -1.3455    3.1921 H   0  0  0  0  0  0  0  0  0  0  0  0
   -1.7698    0.7952   -3.4850 H   0  0  0  0  0  0  0  0  0  0  0  0
   -0.3625    0.2903   -2.5666 H   0  0  0  0  0  0  0  0  0  0  0  0
   -2.3988   -3.1947   -5.0646 H   0  0  0  0  0  0  0  0  0  0  0  0
   -3.4475   -3.8333   -3.7847 H   0  0  0  0  0  0  0  0  0  0  0  0
   -5.5099   -0.2278   -2.7245 H   0  0  0  0  0  0  0  0  0  0  0  0
   -3.3196    1.8763   -3.0410 H   0  0  0  0  0  0  0  0  0  0  0  0
   -4.8052    2.0201   -1.9487 H   0  0  0  0  0  0  0  0  0  0  0  0
   -4.1839   -0.0073   -0.6211 H   0  0  0  0  0  0  0  0  0  0  0  0
   -0.0175    0.7740   -0.4380 H   0  0  0  0  0  0  0  0  0  0  0  0
    4.5954    3.3176    3.7378 H   0  0  0  0  0  0  0  0  0  0  0  0
  1  2  3  0
  2  3  1  0
  3  4  2  0
  4  5  1  0
  5  6  2  0
  6  7  1  0
  7  8  2  0
  7  9  1  0
  9 10  1  0
 10 11  2  0
 11 12  1  0
 12 13  1  0
 12 14  2  0
 14 15  1  0
 14 16  1  0
 16 17  1  0
 17 18  1  6
 18 19  1  0
 17 20  1  0
 20 21  2  0
 21 22  1  0
 21 23  1  0
 23 24  1  0
 24 25  1  0
 25 26  1  0
 16 27  2  0
  6 28  1  0
 28 29  2  0
 29  3  1  0
 27 10  1  0
 26 17  1  0
 26 24  1  0
  4 30  1  0
  5 31  1  0
  9 32  1  0
 11 33  1  0
 18 34  1  0
 18 35  1  0
 22 36  1  0
 22 37  1  0
 24 38  1  1
 25 39  1  0
 25 40  1  0
 26 41  1  1
 27 42  1  0
 29 43  1  0
M  END
$$$$
