
     RDKit          3D

 73 80  0  0  0  0  0  0  0  0999 V2000
  -12.0308    0.5205    1.6703 S   0  0  0  0  0  0  0  0  0  0  0  0
  -10.5369    0.8269    1.1214 C   0  0  0  0  0  0  0  0  0  0  0  0
  -10.2131    1.8784    0.3243 N   0  0  0  0  0  0  0  0  0  0  0  0
   -8.9194    1.8132    0.0764 N   0  0  0  0  0  0  0  0  0  0  0  0
   -8.3733    0.7644    0.6748 C   0  0  0  0  0  0  0  0  0  0  0  0
   -7.0776    0.2917    0.7069 C   0  0  0  0  0  0  0  0  0  0  0  0
   -6.0462    0.9347    0.0308 C   0  0  0  0  0  0  0  0  0  0  0  0
   -4.7578    0.4335    0.0840 C   0  0  0  0  0  0  0  0  0  0  0  0
   -3.6398    1.0643   -0.6042 C   0  0  0  0  0  0  0  0  0  0  0  0
   -3.2713    2.3551   -0.2772 C   0  0  0  0  0  0  0  0  0  0  0  0
   -2.2188    2.9968   -0.9001 C   0  0  0  0  0  0  0  0  0  0  0  0
   -1.4918    2.3632   -1.8810 C   0  0  0  0  0  0  0  0  0  0  0  0
   -1.8492    1.0745   -2.2171 C   0  0  0  0  0  0  0  0  0  0  0  0
   -2.8984    0.4475   -1.5896 C   0  0  0  0  0  0  0  0  0  0  0  0
   -4.5287   -0.7168    0.8239 C   0  0  0  0  0  0  0  0  0  0  0  0
   -3.1746   -1.2355    0.8741 C   0  0  0  0  0  0  0  0  0  0  0  0
   -2.2001   -0.4404    1.4532 C   0  0  0  0  0  0  0  0  0  0  0  0
   -0.8865   -0.8404    1.5489 C   0  0  0  0  0  0  0  0  0  0  0  0
   -0.5004   -2.0607    1.0636 C   0  0  0  0  0  0  0  0  0  0  0  0
    0.9141   -2.4692    1.1768 C   0  0  0  0  0  0  0  0  0  0  0  0
    1.7308   -2.1007    0.0715 N   0  0  0  0  0  0  0  0  0  0  0  0
    1.8409   -0.7126   -0.2101 C   0  0  0  0  0  0  0  0  0  0  0  0
    3.1378   -0.3538   -0.9048 C   0  0  0  0  0  0  0  0  0  0  0  0
    4.2602   -0.8125   -0.0172 C   0  0  0  0  0  0  0  0  0  0  0  0
    5.5584   -0.3774   -0.6188 C   0  0  0  0  0  0  0  0  0  0  0  0
    6.0271   -0.7023   -1.8512 N   0  0  0  0  0  0  0  0  0  0  0  0
    7.2187   -0.1271   -2.0313 N   0  0  0  0  0  0  0  0  0  0  0  0
    7.5276    0.5699   -0.9233 C   0  0  0  0  0  0  0  0  0  0  0  0
    8.7533    1.3478   -0.7150 C   0  0  0  0  0  0  0  0  0  0  0  0
    8.9467    2.0177    0.4736 C   0  0  0  0  0  0  0  0  0  0  0  0
   10.0870    2.7533    0.6938 C   0  0  0  0  0  0  0  0  0  0  0  0
   11.0403    2.8136   -0.2935 C   0  0  0  0  0  0  0  0  0  0  0  0
   10.8324    2.1440   -1.4644 C   0  0  0  0  0  0  0  0  0  0  0  0
    9.7085    1.4356   -1.6463 N   0  0  0  0  0  0  0  0  0  0  0  0
    6.5028    0.4046   -0.0742 N   0  0  0  0  0  0  0  0  0  0  0  0
    4.1904   -2.2942    0.1320 C   0  0  0  0  0  0  0  0  0  0  0  0
    2.8700   -2.9037   -0.1739 C   0  0  0  0  0  0  0  0  0  0  0  0
   -1.4709   -2.8542    0.4860 C   0  0  0  0  0  0  0  0  0  0  0  0
   -2.7913   -2.4630    0.3849 C   0  0  0  0  0  0  0  0  0  0  0  0
   -5.5570   -1.3251    1.4755 N   0  0  0  0  0  0  0  0  0  0  0  0
   -6.8156   -0.8507    1.4340 C   0  0  0  0  0  0  0  0  0  0  0  0
   -7.8591   -1.4801    2.1034 C   0  0  0  0  0  0  0  0  0  0  0  0
   -9.1384   -0.9676    2.0402 C   0  0  0  0  0  0  0  0  0  0  0  0
   -9.3900    0.1464    1.3303 N   0  0  0  0  0  0  0  0  0  0  0  0
  -10.8640    2.6042   -0.0282 H   0  0  0  0  0  0  0  0  0  0  0  0
   -6.2462    1.8353   -0.5438 H   0  0  0  0  0  0  0  0  0  0  0  0
   -3.8244    2.8587    0.4802 H   0  0  0  0  0  0  0  0  0  0  0  0
   -1.9398    4.0052   -0.6369 H   0  0  0  0  0  0  0  0  0  0  0  0
   -0.6542    2.8542   -2.3867 H   0  0  0  0  0  0  0  0  0  0  0  0
   -1.2553    0.5971   -2.9979 H   0  0  0  0  0  0  0  0  0  0  0  0
   -3.1428   -0.5623   -1.8851 H   0  0  0  0  0  0  0  0  0  0  0  0
   -2.4688    0.5471    1.8554 H   0  0  0  0  0  0  0  0  0  0  0  0
   -0.1808   -0.1671    2.0140 H   0  0  0  0  0  0  0  0  0  0  0  0
    0.9953   -3.5629    1.3172 H   0  0  0  0  0  0  0  0  0  0  0  0
    1.3334   -1.9758    2.0986 H   0  0  0  0  0  0  0  0  0  0  0  0
    1.8731   -0.1687    0.7768 H   0  0  0  0  0  0  0  0  0  0  0  0
    1.0093   -0.2764   -0.7843 H   0  0  0  0  0  0  0  0  0  0  0  0
    3.1811    0.7481   -0.9564 H   0  0  0  0  0  0  0  0  0  0  0  0
    3.2574   -0.8231   -1.8831 H   0  0  0  0  0  0  0  0  0  0  0  0
    4.2060   -0.3553    1.0006 H   0  0  0  0  0  0  0  0  0  0  0  0
    8.2181    1.9940    1.2751 H   0  0  0  0  0  0  0  0  0  0  0  0
   10.2187    3.2793    1.6504 H   0  0  0  0  0  0  0  0  0  0  0  0
   11.9518    3.3922   -0.1375 H   0  0  0  0  0  0  0  0  0  0  0  0
   11.6113    2.2149   -2.2255 H   0  0  0  0  0  0  0  0  0  0  0  0
    6.4672    0.8332    0.8707 H   0  0  0  0  0  0  0  0  0  0  0  0
    4.5859   -2.5849    1.1317 H   0  0  0  0  0  0  0  0  0  0  0  0
    4.9341   -2.7290   -0.5992 H   0  0  0  0  0  0  0  0  0  0  0  0
    2.8085   -3.2741   -1.2360 H   0  0  0  0  0  0  0  0  0  0  0  0
    2.7703   -3.8411    0.4422 H   0  0  0  0  0  0  0  0  0  0  0  0
   -1.1924   -3.8173    0.0972 H   0  0  0  0  0  0  0  0  0  0  0  0
   -3.5501   -3.0989   -0.0739 H   0  0  0  0  0  0  0  0  0  0  0  0
   -7.6591   -2.3819    2.6788 H   0  0  0  0  0  0  0  0  0  0  0  0
   -9.9539   -1.4544    2.5600 H   0  0  0  0  0  0  0  0  0  0  0  0
  1  2  2  0
  2  3  1  0
  3  4  1  0
  4  5  2  0
  5  6  1  0
  6  7  2  0
  7  8  1  0
  8  9  1  0
  9 10  2  0
 10 11  1  0
 11 12  2  0
 12 13  1  0
 13 14  2  0
  8 15  2  0
 15 16  1  0
 16 17  2  0
 17 18  1  0
 18 19  2  0
 19 20  1  0
 20 21  1  0
 21 22  1  0
 22 23  1  0
 23 24  1  0
 24 25  1  0
 25 26  2  0
 26 27  1  0
 27 28  2  0
 28 29  1  0
 29 30  2  0
 30 31  1  0
 31 32  2  0
 32 33  1  0
 33 34  2  0
 28 35  1  0
 24 36  1  0
 36 37  1  0
 19 38  1  0
 38 39  2  0
 15 40  1  0
 40 41  2  0
 41 42  1  0
 42 43  2  0
 43 44  1  0
 44  2  1  0
 44  5  1  0
 41  6  1  0
 14  9  1  0
 39 16  1  0
 37 21  1  0
 35 25  1  0
 34 29  1  0
  3 45  1  0
  7 46  1  0
 10 47  1  0
 11 48  1  0
 12 49  1  0
 13 50  1  0
 14 51  1  0
 17 52  1  0
 18 53  1  0
 20 54  1  0
 20 55  1  0
 22 56  1  0
 22 57  1  0
 23 58  1  0
 23 59  1  0
 24 60  1  0
 30 61  1  0
 31 62  1  0
 32 63  1  0
 33 64  1  0
 35 65  1  0
 36 66  1  0
 36 67  1  0
 37 68  1  0
 37 69  1  0
 38 70  1  0
 39 71  1  0
 42 72  1  0
 43 73  1  0
M  END
$$$$
