
     RDKit          3D

 54 56  0  0  0  0  0  0  0  0999 V2000
   -3.3438   -1.8293   -1.8284 C   0  0  0  0  0  0  0  0  0  0  0  0
   -1.8932   -1.9208   -1.5470 C   0  0  0  0  0  0  0  0  0  0  0  0
   -1.2847   -0.8078   -0.8567 N   0  0  0  0  0  0  0  0  0  0  0  0
   -1.2620   -0.7696    0.5447 C   0  0  0  0  0  0  0  0  0  0  0  0
   -0.6816    0.2918    1.0259 O   0  0  0  0  0  0  0  0  0  0  0  0
   -1.7815   -1.7177    1.5155 C   0  0  0  0  0  0  0  0  0  0  0  0
   -2.3483   -2.8684    1.0786 O   0  0  0  0  0  0  0  0  0  0  0  0
   -2.8191   -3.6917    2.0954 C   0  0  0  0  0  0  0  0  0  0  0  0
   -0.6151    0.2210   -1.6626 C   0  0  0  0  0  0  0  0  0  0  0  0
    0.8905   -0.1251   -1.5552 C   0  0  0  0  0  0  0  0  0  0  0  0
    1.3785    0.9095   -0.7153 N   0  0  0  0  0  0  0  0  0  0  0  0
    2.6339    0.9022   -0.0277 C   0  0  0  0  0  0  0  0  0  0  0  0
    3.7206    1.2741   -0.6624 N   0  0  0  0  0  0  0  0  0  0  0  0
    3.5781    1.6698   -2.0190 C   0  0  0  0  0  0  0  0  0  0  0  0
    3.4675    2.0080   -3.1150 N   0  0  0  0  0  0  0  0  0  0  0  0
    2.7021    0.5246    1.3273 N   0  0  0  0  0  0  0  0  0  0  0  0
    3.7634   -0.2176    1.8312 C   0  0  0  0  0  0  0  0  0  0  0  0
    4.7302   -0.7965    1.0554 C   0  0  0  0  0  0  0  0  0  0  0  0
    5.7647   -1.5108    1.6284 C   0  0  0  0  0  0  0  0  0  0  0  0
    5.8329   -1.6474    2.9920 C   0  0  0  0  0  0  0  0  0  0  0  0
    7.1493   -2.5618    3.7123 Cl  0  0  0  0  0  0  0  0  0  0  0  0
    4.8761   -1.0770    3.7956 C   0  0  0  0  0  0  0  0  0  0  0  0
    4.9660   -1.2479    5.5526 Cl  0  0  0  0  0  0  0  0  0  0  0  0
    3.8500   -0.3680    3.2173 C   0  0  0  0  0  0  0  0  0  0  0  0
    0.4378    1.9175   -0.6888 N   0  0  0  0  0  0  0  0  0  0  0  0
   -0.7015    1.5766   -1.2128 C   0  0  0  0  0  0  0  0  0  0  0  0
   -1.8248    2.5368   -1.2742 C   0  0  0  0  0  0  0  0  0  0  0  0
   -3.0235    2.2157   -1.8590 C   0  0  0  0  0  0  0  0  0  0  0  0
   -4.0712    3.1452   -1.8841 C   0  0  0  0  0  0  0  0  0  0  0  0
   -3.8931    4.3851   -1.3184 C   0  0  0  0  0  0  0  0  0  0  0  0
   -5.1758    5.5805   -1.3251 Cl  0  0  0  0  0  0  0  0  0  0  0  0
   -2.7055    4.7484   -0.7211 C   0  0  0  0  0  0  0  0  0  0  0  0
   -1.7163    3.8017   -0.7253 C   0  0  0  0  0  0  0  0  0  0  0  0
   -3.7272   -0.9271   -2.2826 H   0  0  0  0  0  0  0  0  0  0  0  0
   -3.9385   -1.9735   -0.8851 H   0  0  0  0  0  0  0  0  0  0  0  0
   -3.6479   -2.7355   -2.4419 H   0  0  0  0  0  0  0  0  0  0  0  0
   -1.4071   -2.0045   -2.5981 H   0  0  0  0  0  0  0  0  0  0  0  0
   -1.6866   -2.8816   -1.0195 H   0  0  0  0  0  0  0  0  0  0  0  0
   -2.5727   -1.1458    2.1099 H   0  0  0  0  0  0  0  0  0  0  0  0
   -0.9652   -1.9472    2.2526 H   0  0  0  0  0  0  0  0  0  0  0  0
   -2.0024   -4.0012    2.8055 H   0  0  0  0  0  0  0  0  0  0  0  0
   -3.2502   -4.6239    1.6230 H   0  0  0  0  0  0  0  0  0  0  0  0
   -3.6197   -3.2343    2.7058 H   0  0  0  0  0  0  0  0  0  0  0  0
   -0.8304    0.0374   -2.7311 H   0  0  0  0  0  0  0  0  0  0  0  0
    1.3606   -0.1990   -2.5309 H   0  0  0  0  0  0  0  0  0  0  0  0
    1.0427   -1.0886   -1.0282 H   0  0  0  0  0  0  0  0  0  0  0  0
    1.9148    0.8256    1.9563 H   0  0  0  0  0  0  0  0  0  0  0  0
    4.7183   -0.7135   -0.0361 H   0  0  0  0  0  0  0  0  0  0  0  0
    6.5042   -1.9520    0.9772 H   0  0  0  0  0  0  0  0  0  0  0  0
    3.0820    0.0940    3.8517 H   0  0  0  0  0  0  0  0  0  0  0  0
   -3.2006    1.2596   -2.3261 H   0  0  0  0  0  0  0  0  0  0  0  0
   -5.0204    2.8566   -2.3621 H   0  0  0  0  0  0  0  0  0  0  0  0
   -2.5837    5.7389   -0.2781 H   0  0  0  0  0  0  0  0  0  0  0  0
   -0.7705    4.0643   -0.2608 H   0  0  0  0  0  0  0  0  0  0  0  0
  1  2  1  0
  2  3  1  0
  3  4  1  0
  4  5  2  0
  4  6  1  0
  6  7  1  0
  7  8  1  0
  3  9  1  0
  9 10  1  0
 10 11  1  0
 11 12  1  0
 12 13  2  0
 13 14  1  0
 14 15  3  0
 12 16  1  0
 16 17  1  0
 17 18  2  0
 18 19  1  0
 19 20  2  0
 20 21  1  0
 20 22  1  0
 22 23  1  0
 22 24  2  0
 11 25  1  0
 25 26  2  0
 26 27  1  0
 27 28  2  0
 28 29  1  0
 29 30  2  0
 30 31  1  0
 30 32  1  0
 32 33  2  0
 26  9  1  0
 33 27  1  0
 24 17  1  0
  1 34  1  0
  1 35  1  0
  1 36  1  0
  2 37  1  0
  2 38  1  0
  6 39  1  0
  6 40  1  0
  8 41  1  0
  8 42  1  0
  8 43  1  0
  9 44  1  0
 10 45  1  0
 10 46  1  0
 16 47  1  0
 18 48  1  0
 19 49  1  0
 24 50  1  0
 28 51  1  0
 29 52  1  0
 32 53  1  0
 33 54  1  0
M  END
$$$$
