
     RDKit          3D

 68 72  0  0  0  0  0  0  0  0999 V2000
    9.4967    1.3709    1.6371 C   0  0  0  0  0  0  0  0  0  0  0  0
    9.6588    1.2921    0.2876 O   0  0  0  0  0  0  0  0  0  0  0  0
    8.5959    0.6984   -0.3438 C   0  0  0  0  0  0  0  0  0  0  0  0
    7.3145    1.4702   -0.1388 C   0  0  0  0  0  0  0  0  0  0  0  0
    6.2408    0.7924   -0.8347 N   0  0  0  0  0  0  0  0  0  0  0  0
    5.8465   -0.4531   -0.3146 C   0  0  0  0  0  0  0  0  0  0  0  0
    4.3843   -0.7903   -0.4184 C   0  0  0  0  0  0  0  0  0  0  0  0
    3.6083    0.4662   -0.0932 C   0  0  0  0  0  0  0  0  0  0  0  0
    2.1508    0.2281   -0.0209 C   0  0  0  0  0  0  0  0  0  0  0  0
    1.4719    0.6040    1.1355 C   0  0  0  0  0  0  0  0  0  0  0  0
    0.1204    0.4152    1.2742 C   0  0  0  0  0  0  0  0  0  0  0  0
   -0.5731    0.8184    2.4990 C   0  0  0  0  0  0  0  0  0  0  0  0
   -0.5847   -0.1705    0.2223 C   0  0  0  0  0  0  0  0  0  0  0  0
   -1.8630   -0.4903    0.0271 N   0  0  0  0  0  0  0  0  0  0  0  0
   -2.1155   -1.0504   -1.1587 C   0  0  0  0  0  0  0  0  0  0  0  0
   -3.3727   -1.5237   -1.7224 C   0  0  0  0  0  0  0  0  0  0  0  0
   -4.5644   -1.4467   -1.0412 C   0  0  0  0  0  0  0  0  0  0  0  0
   -4.6132   -0.9485    0.2732 N   0  0  0  0  0  0  0  0  0  0  0  0
   -5.9083   -0.8382    0.9586 C   0  0  0  0  0  0  0  0  0  0  0  0
   -6.7244    0.3208    0.4840 C   0  0  0  0  0  0  0  0  0  0  0  0
   -7.9767    0.3085    1.2065 N   0  0  0  0  0  0  0  0  0  0  0  0
   -8.1709    0.9444    2.3706 C   0  0  0  0  0  0  0  0  0  0  0  0
   -9.4694    0.7332    2.7928 C   0  0  0  0  0  0  0  0  0  0  0  0
  -10.1882    1.3767    4.2784 Cl  0  0  0  0  0  0  0  0  0  0  0  0
  -10.0554   -0.0570    1.8376 C   0  0  0  0  0  0  0  0  0  0  0  0
   -9.1159   -0.2854    0.9036 N   0  0  0  0  0  0  0  0  0  0  0  0
   -5.7523   -1.9036   -1.6272 C   0  0  0  0  0  0  0  0  0  0  0  0
   -5.7103   -2.4304   -2.8967 C   0  0  0  0  0  0  0  0  0  0  0  0
   -4.5680   -2.5144   -3.5728 N   0  0  0  0  0  0  0  0  0  0  0  0
   -3.4190   -2.0661   -2.9887 C   0  0  0  0  0  0  0  0  0  0  0  0
   -2.3796   -2.1704   -3.6702 O   0  0  0  0  0  0  0  0  0  0  0  0
   -0.8963   -1.0871   -1.7611 N   0  0  0  0  0  0  0  0  0  0  0  0
    0.0536   -0.5532   -0.9326 C   0  0  0  0  0  0  0  0  0  0  0  0
    1.4092   -0.3455   -1.0295 C   0  0  0  0  0  0  0  0  0  0  0  0
    3.8780    1.4394   -1.2195 C   0  0  0  0  0  0  0  0  0  0  0  0
    5.3249    1.5978   -1.5231 C   0  0  0  0  0  0  0  0  0  0  0  0
    9.3518    0.3775    2.1200 H   0  0  0  0  0  0  0  0  0  0  0  0
    8.7001    2.0373    1.9792 H   0  0  0  0  0  0  0  0  0  0  0  0
   10.4702    1.7744    2.0582 H   0  0  0  0  0  0  0  0  0  0  0  0
    8.3983   -0.3341    0.0359 H   0  0  0  0  0  0  0  0  0  0  0  0
    8.8662    0.6606   -1.4398 H   0  0  0  0  0  0  0  0  0  0  0  0
    7.0886    1.5820    0.9423 H   0  0  0  0  0  0  0  0  0  0  0  0
    7.4398    2.4611   -0.5908 H   0  0  0  0  0  0  0  0  0  0  0  0
    6.1239   -0.5340    0.7777 H   0  0  0  0  0  0  0  0  0  0  0  0
    6.3882   -1.3087   -0.8183 H   0  0  0  0  0  0  0  0  0  0  0  0
    4.1014   -1.2151   -1.3892 H   0  0  0  0  0  0  0  0  0  0  0  0
    4.1645   -1.5817    0.3528 H   0  0  0  0  0  0  0  0  0  0  0  0
    3.9719    0.9034    0.8371 H   0  0  0  0  0  0  0  0  0  0  0  0
    2.0568    1.0592    1.9375 H   0  0  0  0  0  0  0  0  0  0  0  0
   -1.0172    1.8485    2.4034 H   0  0  0  0  0  0  0  0  0  0  0  0
   -1.4421    0.1459    2.7199 H   0  0  0  0  0  0  0  0  0  0  0  0
    0.0714    0.7690    3.4119 H   0  0  0  0  0  0  0  0  0  0  0  0
   -3.7820   -0.6385    0.8403 H   0  0  0  0  0  0  0  0  0  0  0  0
   -5.7140   -0.7542    2.0790 H   0  0  0  0  0  0  0  0  0  0  0  0
   -6.4492   -1.7906    0.8407 H   0  0  0  0  0  0  0  0  0  0  0  0
   -6.1803    1.2857    0.7264 H   0  0  0  0  0  0  0  0  0  0  0  0
   -6.8265    0.3196   -0.6002 H   0  0  0  0  0  0  0  0  0  0  0  0
   -7.4428    1.5470    2.9310 H   0  0  0  0  0  0  0  0  0  0  0  0
  -11.0870   -0.4031    1.8782 H   0  0  0  0  0  0  0  0  0  0  0  0
   -6.6781   -1.8585   -1.0846 H   0  0  0  0  0  0  0  0  0  0  0  0
   -6.6669   -2.7727   -3.3098 H   0  0  0  0  0  0  0  0  0  0  0  0
   -4.5321   -2.9182   -4.5466 H   0  0  0  0  0  0  0  0  0  0  0  0
   -0.6200   -1.4340   -2.6793 H   0  0  0  0  0  0  0  0  0  0  0  0
    1.9203   -0.6428   -1.9346 H   0  0  0  0  0  0  0  0  0  0  0  0
    3.3477    2.4150   -1.0162 H   0  0  0  0  0  0  0  0  0  0  0  0
    3.3705    1.0334   -2.1226 H   0  0  0  0  0  0  0  0  0  0  0  0
    5.5736    2.6800   -1.2985 H   0  0  0  0  0  0  0  0  0  0  0  0
    5.5002    1.5351   -2.6401 H   0  0  0  0  0  0  0  0  0  0  0  0
  1  2  1  0
  2  3  1  0
  3  4  1  0
  4  5  1  0
  5  6  1  0
  6  7  1  0
  7  8  1  0
  8  9  1  0
  9 10  2  0
 10 11  1  0
 11 12  1  0
 11 13  2  0
 13 14  1  0
 14 15  2  0
 15 16  1  0
 16 17  2  0
 17 18  1  0
 18 19  1  0
 19 20  1  0
 20 21  1  0
 21 22  1  0
 22 23  2  0
 23 24  1  0
 23 25  1  0
 25 26  2  0
 17 27  1  0
 27 28  2  0
 28 29  1  0
 29 30  1  0
 30 31  2  0
 15 32  1  0
 32 33  1  0
 33 34  2  0
  8 35  1  0
 35 36  1  0
 36  5  1  0
 34  9  1  0
 33 13  1  0
 30 16  1  0
 26 21  1  0
  1 37  1  0
  1 38  1  0
  1 39  1  0
  3 40  1  0
  3 41  1  0
  4 42  1  0
  4 43  1  0
  6 44  1  0
  6 45  1  0
  7 46  1  0
  7 47  1  0
  8 48  1  0
 10 49  1  0
 12 50  1  0
 12 51  1  0
 12 52  1  0
 18 53  1  0
 19 54  1  0
 19 55  1  0
 20 56  1  0
 20 57  1  0
 22 58  1  0
 25 59  1  0
 27 60  1  0
 28 61  1  0
 29 62  1  0
 32 63  1  0
 34 64  1  0
 35 65  1  0
 35 66  1  0
 36 67  1  0
 36 68  1  0
M  END
$$$$
