
     RDKit          3D

 68 72  0  0  0  0  0  0  0  0999 V2000
   -0.8409    4.2775    1.3549 C   0  0  0  0  0  0  0  0  0  0  0  0
   -1.6859    3.4850    0.3874 C   0  0  0  0  0  0  0  0  0  0  0  0
   -0.8965    3.1547   -0.8740 C   0  0  0  0  0  0  0  0  0  0  0  0
   -1.7277    2.3700   -1.8392 C   0  0  0  0  0  0  0  0  0  0  0  0
   -2.2093    1.0694   -1.3330 C   0  0  0  0  0  0  0  0  0  0  0  0
   -3.3994    0.8520   -0.7187 N   0  0  0  0  0  0  0  0  0  0  0  0
   -3.5317   -0.3903   -0.3404 N   0  0  0  0  0  0  0  0  0  0  0  0
   -4.6408   -1.0069    0.3373 C   0  0  0  0  0  0  0  0  0  0  0  0
   -5.7811   -1.4257   -0.3132 C   0  0  0  0  0  0  0  0  0  0  0  0
   -6.8387   -2.0163    0.3472 C   0  0  0  0  0  0  0  0  0  0  0  0
   -6.7885   -2.2115    1.7116 C   0  0  0  0  0  0  0  0  0  0  0  0
   -5.6534   -1.7970    2.3739 C   0  0  0  0  0  0  0  0  0  0  0  0
   -4.5892   -1.2013    1.7002 C   0  0  0  0  0  0  0  0  0  0  0  0
   -2.3921   -1.0275   -0.7143 C   0  0  0  0  0  0  0  0  0  0  0  0
   -2.1246   -2.4243   -0.4843 C   0  0  0  0  0  0  0  0  0  0  0  0
   -3.0175   -3.1244    0.1144 O   0  0  0  0  0  0  0  0  0  0  0  0
   -0.9980   -3.1308   -0.8346 O   0  0  0  0  0  0  0  0  0  0  0  0
   -0.8187   -4.5091   -0.5677 C   0  0  0  0  0  0  0  0  0  0  0  0
   -1.9272   -5.2555   -1.2704 C   0  0  0  0  0  0  0  0  0  0  0  0
   -1.5262   -0.1186   -1.3537 C   0  0  0  0  0  0  0  0  0  0  0  0
   -0.2051   -0.4627   -1.9409 C   0  0  0  0  0  0  0  0  0  0  0  0
    0.9449   -0.0270   -1.1784 C   0  0  0  0  0  0  0  0  0  0  0  0
    1.8280    0.8976   -1.7422 C   0  0  0  0  0  0  0  0  0  0  0  0
    2.9009    1.2815   -0.9819 C   0  0  0  0  0  0  0  0  0  0  0  0
    3.1392    0.7928    0.3089 C   0  0  0  0  0  0  0  0  0  0  0  0
    4.2948    1.2970    1.0320 C   0  0  0  0  0  0  0  0  0  0  0  0
    4.0246    2.2564    2.0096 C   0  0  0  0  0  0  0  0  0  0  0  0
    5.0601    2.8297    2.7173 C   0  0  0  0  0  0  0  0  0  0  0  0
    6.3469    2.4245    2.4252 C   0  0  0  0  0  0  0  0  0  0  0  0
    6.5776    1.4878    1.4685 C   0  0  0  0  0  0  0  0  0  0  0  0
    5.5568    0.8802    0.7279 C   0  0  0  0  0  0  0  0  0  0  0  0
    5.9180   -0.1495   -0.2324 C   0  0  0  0  0  0  0  0  0  0  0  0
    7.1839   -0.3933   -0.6151 N   0  0  0  0  0  0  0  0  0  0  0  0
    7.1590   -1.3580   -1.5002 N   0  0  0  0  0  0  0  0  0  0  0  0
    5.9405   -1.7600   -1.7179 N   0  0  0  0  0  0  0  0  0  0  0  0
    5.1626   -0.9982   -0.9184 N   0  0  0  0  0  0  0  0  0  0  0  0
    2.2438   -0.1178    0.8283 C   0  0  0  0  0  0  0  0  0  0  0  0
    1.1587   -0.5239    0.0944 C   0  0  0  0  0  0  0  0  0  0  0  0
    0.1554    4.5295    0.9550 H   0  0  0  0  0  0  0  0  0  0  0  0
   -0.7644    3.7232    2.3335 H   0  0  0  0  0  0  0  0  0  0  0  0
   -1.3478    5.2477    1.6332 H   0  0  0  0  0  0  0  0  0  0  0  0
   -1.9962    2.5158    0.8282 H   0  0  0  0  0  0  0  0  0  0  0  0
   -2.5470    4.0975    0.0618 H   0  0  0  0  0  0  0  0  0  0  0  0
   -0.6428    4.1137   -1.3753 H   0  0  0  0  0  0  0  0  0  0  0  0
    0.0221    2.6534   -0.6276 H   0  0  0  0  0  0  0  0  0  0  0  0
   -2.5761    2.9955   -2.2340 H   0  0  0  0  0  0  0  0  0  0  0  0
   -1.0819    2.2032   -2.7492 H   0  0  0  0  0  0  0  0  0  0  0  0
   -5.8275   -1.2763   -1.3781 H   0  0  0  0  0  0  0  0  0  0  0  0
   -7.7364   -2.3461   -0.1657 H   0  0  0  0  0  0  0  0  0  0  0  0
   -7.6198   -2.6770    2.2410 H   0  0  0  0  0  0  0  0  0  0  0  0
   -5.5993   -1.9422    3.4344 H   0  0  0  0  0  0  0  0  0  0  0  0
   -3.6945   -0.8732    2.2136 H   0  0  0  0  0  0  0  0  0  0  0  0
    0.1783   -4.8126   -0.9231 H   0  0  0  0  0  0  0  0  0  0  0  0
   -0.9033   -4.6392    0.5492 H   0  0  0  0  0  0  0  0  0  0  0  0
   -1.5292   -6.2860   -1.4676 H   0  0  0  0  0  0  0  0  0  0  0  0
   -2.8428   -5.3288   -0.6788 H   0  0  0  0  0  0  0  0  0  0  0  0
   -2.1706   -4.8156   -2.2453 H   0  0  0  0  0  0  0  0  0  0  0  0
   -0.1294   -0.0072   -2.9811 H   0  0  0  0  0  0  0  0  0  0  0  0
   -0.1175   -1.5640   -2.1622 H   0  0  0  0  0  0  0  0  0  0  0  0
    1.6473    1.2787   -2.7417 H   0  0  0  0  0  0  0  0  0  0  0  0
    3.5902    2.0017   -1.4192 H   0  0  0  0  0  0  0  0  0  0  0  0
    3.0142    2.5288    2.1914 H   0  0  0  0  0  0  0  0  0  0  0  0
    4.8967    3.5761    3.4824 H   0  0  0  0  0  0  0  0  0  0  0  0
    7.1793    2.8681    2.9757 H   0  0  0  0  0  0  0  0  0  0  0  0
    7.5878    1.2005    1.2715 H   0  0  0  0  0  0  0  0  0  0  0  0
    4.1487   -1.1589   -0.9202 H   0  0  0  0  0  0  0  0  0  0  0  0
    2.4139   -0.4995    1.8138 H   0  0  0  0  0  0  0  0  0  0  0  0
    0.4446   -1.2335    0.4824 H   0  0  0  0  0  0  0  0  0  0  0  0
  1  2  1  0
  2  3  1  0
  3  4  1  0
  4  5  1  0
  5  6  2  0
  6  7  1  0
  7  8  1  0
  8  9  2  0
  9 10  1  0
 10 11  2  0
 11 12  1  0
 12 13  2  0
  7 14  1  0
 14 15  1  0
 15 16  2  0
 15 17  1  0
 17 18  1  0
 18 19  1  0
 14 20  2  0
 20 21  1  0
 21 22  1  0
 22 23  2  0
 23 24  1  0
 24 25  2  0
 25 26  1  0
 26 27  2  0
 27 28  1  0
 28 29  2  0
 29 30  1  0
 30 31  2  0
 31 32  1  0
 32 33  2  0
 33 34  1  0
 34 35  2  0
 35 36  1  0
 25 37  1  0
 37 38  2  0
 20  5  1  0
 38 22  1  0
 13  8  1  0
 31 26  1  0
 36 32  1  0
  1 39  1  0
  1 40  1  0
  1 41  1  0
  2 42  1  0
  2 43  1  0
  3 44  1  0
  3 45  1  0
  4 46  1  0
  4 47  1  0
  9 48  1  0
 10 49  1  0
 11 50  1  0
 12 51  1  0
 13 52  1  0
 18 53  1  0
 18 54  1  0
 19 55  1  0
 19 56  1  0
 19 57  1  0
 21 58  1  0
 21 59  1  0
 23 60  1  0
 24 61  1  0
 27 62  1  0
 28 63  1  0
 29 64  1  0
 30 65  1  0
 36 66  1  0
 37 67  1  0
 38 68  1  0
M  END
$$$$
