
     RDKit          3D

 26 28  0  0  0  0  0  0  0  0999 V2000
   -2.8047   -0.7636   -0.4567 C   0  0  0  0  0  0  0  0  0  0  0  0
   -1.7097   -1.3908    0.3751 C   0  0  0  0  0  0  0  0  0  0  0  0
   -0.6401   -0.3947    0.4689 N   0  0  0  0  0  0  0  0  0  0  0  0
   -1.0660    0.6773    1.3082 C   0  0  0  0  0  0  0  0  0  0  0  0
   -2.4804    1.0547    0.8867 C   0  0  0  0  0  0  0  0  0  0  0  0
   -2.6886    0.6387   -0.4300 O   0  0  0  0  0  0  0  0  0  0  0  0
    0.5883   -0.5548   -0.2019 C   0  0  0  0  0  0  0  0  0  0  0  0
    1.6369    0.3500   -0.1520 C   0  0  0  0  0  0  0  0  0  0  0  0
    1.7522    1.5129    0.4893 N   0  0  0  0  0  0  0  0  0  0  0  0
    2.9526    2.0734    0.2624 C   0  0  0  0  0  0  0  0  0  0  0  0
    3.6033    1.2210   -0.5519 N   0  0  0  0  0  0  0  0  0  0  0  0
    2.8084    0.1628   -0.8124 C   0  0  0  0  0  0  0  0  0  0  0  0
    2.9348   -0.9698   -1.5487 N   0  0  0  0  0  0  0  0  0  0  0  0
    1.9181   -1.8706   -1.6112 C   0  0  0  0  0  0  0  0  0  0  0  0
    0.7733   -1.6430   -0.9391 N   0  0  0  0  0  0  0  0  0  0  0  0
   -2.7540   -1.0713   -1.5216 H   0  0  0  0  0  0  0  0  0  0  0  0
   -3.8027   -1.0531   -0.0285 H   0  0  0  0  0  0  0  0  0  0  0  0
   -2.0841   -1.6652    1.3711 H   0  0  0  0  0  0  0  0  0  0  0  0
   -1.3186   -2.3231   -0.0898 H   0  0  0  0  0  0  0  0  0  0  0  0
   -1.1319    0.2619    2.3554 H   0  0  0  0  0  0  0  0  0  0  0  0
   -0.4947    1.6021    1.2674 H   0  0  0  0  0  0  0  0  0  0  0  0
   -2.6889    2.1346    0.9995 H   0  0  0  0  0  0  0  0  0  0  0  0
   -3.2312    0.5070    1.5000 H   0  0  0  0  0  0  0  0  0  0  0  0
    3.3661    3.0086    0.6279 H   0  0  0  0  0  0  0  0  0  0  0  0
    4.5637    1.2759   -0.9687 H   0  0  0  0  0  0  0  0  0  0  0  0
    1.9977   -2.7812   -2.1929 H   0  0  0  0  0  0  0  0  0  0  0  0
  1  2  1  0
  2  3  1  0
  3  4  1  0
  4  5  1  0
  5  6  1  0
  3  7  1  0
  7  8  2  0
  8  9  1  0
  9 10  2  0
 10 11  1  0
 11 12  1  0
 12 13  2  0
 13 14  1  0
 14 15  2  0
  6  1  1  0
 15  7  1  0
 12  8  1  0
  1 16  1  0
  1 17  1  0
  2 18  1  0
  2 19  1  0
  4 20  1  0
  4 21  1  0
  5 22  1  0
  5 23  1  0
 10 24  1  0
 11 25  1  0
 14 26  1  0
M  END
$$$$
