
     RDKit          3D

 67 69  0  0  0  0  0  0  0  0999 V2000
   -4.2860   -6.2654   -1.8114 C   0  0  0  0  0  0  0  0  0  0  0  0
   -3.2351   -5.3363   -1.9217 O   0  0  0  0  0  0  0  0  0  0  0  0
   -3.0414   -4.3293   -0.9827 C   0  0  0  0  0  0  0  0  0  0  0  0
   -3.8916   -4.2257    0.0889 C   0  0  0  0  0  0  0  0  0  0  0  0
   -3.7101   -3.2254    1.0343 C   0  0  0  0  0  0  0  0  0  0  0  0
   -4.5348   -3.0788    2.1265 O   0  0  0  0  0  0  0  0  0  0  0  0
   -4.2938   -2.0411    3.0482 C   0  0  0  0  0  0  0  0  0  0  0  0
   -2.6615   -2.3657    0.8469 C   0  0  0  0  0  0  0  0  0  0  0  0
   -1.8101   -2.4529   -0.2080 C   0  0  0  0  0  0  0  0  0  0  0  0
   -0.7195   -1.5221   -0.3841 C   0  0  0  0  0  0  0  0  0  0  0  0
    0.5882   -2.0251   -0.5126 C   0  0  0  0  0  0  0  0  0  0  0  0
    1.5983   -1.0917   -0.6434 C   0  0  0  0  0  0  0  0  0  0  0  0
    2.9185   -1.4954   -0.7753 C   0  0  0  0  0  0  0  0  0  0  0  0
    3.8733   -0.5660   -0.8997 N   0  0  0  0  0  0  0  0  0  0  0  0
    3.6609    0.7621   -0.9086 C   0  0  0  0  0  0  0  0  0  0  0  0
    4.7332    1.6930   -1.0457 N   0  0  0  0  0  0  0  0  0  0  0  0
    6.0905    1.2134   -1.1482 C   0  0  0  0  0  0  0  0  0  0  0  0
    6.4626    0.5157    0.1190 C   0  0  0  0  0  0  0  0  0  0  0  0
    7.8806   -0.0125    0.0730 C   0  0  0  0  0  0  0  0  0  0  0  0
    8.8965    1.0886   -0.1328 C   0  0  0  0  0  0  0  0  0  0  0  0
   10.1541    0.4442   -0.1507 O   0  0  0  0  0  0  0  0  0  0  0  0
    2.3586    1.2082   -0.7796 C   0  0  0  0  0  0  0  0  0  0  0  0
    1.3550    0.2735   -0.6499 C   0  0  0  0  0  0  0  0  0  0  0  0
    0.0664    0.6710   -0.5216 N   0  0  0  0  0  0  0  0  0  0  0  0
   -0.9673   -0.1781   -0.3908 C   0  0  0  0  0  0  0  0  0  0  0  0
   -2.2836    0.3333   -0.2834 N   0  0  0  0  0  0  0  0  0  0  0  0
   -2.5263    1.7581   -0.2634 C   0  0  0  0  0  0  0  0  0  0  0  0
   -1.5171    2.4983   -0.3327 O   0  0  0  0  0  0  0  0  0  0  0  0
   -3.8341    2.3060   -0.1704 N   0  0  0  0  0  0  0  0  0  0  0  0
   -3.9729    3.7363   -0.1575 C   0  0  0  0  0  0  0  0  0  0  0  0
   -3.4300    4.3956   -1.3901 C   0  0  0  0  0  0  0  0  0  0  0  0
   -3.2697    4.3580    1.0459 C   0  0  0  0  0  0  0  0  0  0  0  0
   -5.4405    4.0722   -0.0155 C   0  0  0  0  0  0  0  0  0  0  0  0
   -1.9905   -3.4534   -1.1545 C   0  0  0  0  0  0  0  0  0  0  0  0
   -4.5251   -6.7452   -2.7906 H   0  0  0  0  0  0  0  0  0  0  0  0
   -4.0478   -7.0656   -1.1034 H   0  0  0  0  0  0  0  0  0  0  0  0
   -5.2393   -5.7722   -1.4984 H   0  0  0  0  0  0  0  0  0  0  0  0
   -4.7274   -4.8892    0.2638 H   0  0  0  0  0  0  0  0  0  0  0  0
   -4.3653   -1.0391    2.5797 H   0  0  0  0  0  0  0  0  0  0  0  0
   -3.2391   -2.1211    3.4398 H   0  0  0  0  0  0  0  0  0  0  0  0
   -4.9700   -2.0861    3.9183 H   0  0  0  0  0  0  0  0  0  0  0  0
   -2.5233   -1.5927    1.5988 H   0  0  0  0  0  0  0  0  0  0  0  0
    0.7967   -3.0643   -0.5102 H   0  0  0  0  0  0  0  0  0  0  0  0
    3.1098   -2.5515   -0.7707 H   0  0  0  0  0  0  0  0  0  0  0  0
    4.5055    2.7075   -1.0687 H   0  0  0  0  0  0  0  0  0  0  0  0
    6.0578    0.4126   -1.9469 H   0  0  0  0  0  0  0  0  0  0  0  0
    6.8011    1.9984   -1.4401 H   0  0  0  0  0  0  0  0  0  0  0  0
    5.8087   -0.3251    0.3970 H   0  0  0  0  0  0  0  0  0  0  0  0
    6.4328    1.2107    1.0088 H   0  0  0  0  0  0  0  0  0  0  0  0
    8.1146   -0.4654    1.0691 H   0  0  0  0  0  0  0  0  0  0  0  0
    7.9830   -0.7468   -0.7519 H   0  0  0  0  0  0  0  0  0  0  0  0
    8.7617    1.5551   -1.1516 H   0  0  0  0  0  0  0  0  0  0  0  0
    8.8690    1.8336    0.6654 H   0  0  0  0  0  0  0  0  0  0  0  0
   10.8180    1.0939    0.1911 H   0  0  0  0  0  0  0  0  0  0  0  0
    2.1625    2.2696   -0.7838 H   0  0  0  0  0  0  0  0  0  0  0  0
   -3.1287   -0.2423   -0.2253 H   0  0  0  0  0  0  0  0  0  0  0  0
   -4.6727    1.6561   -0.1129 H   0  0  0  0  0  0  0  0  0  0  0  0
   -2.4664    4.9314   -1.1758 H   0  0  0  0  0  0  0  0  0  0  0  0
   -4.1348    5.2208   -1.7002 H   0  0  0  0  0  0  0  0  0  0  0  0
   -3.2383    3.7117   -2.2197 H   0  0  0  0  0  0  0  0  0  0  0  0
   -3.3223    3.6953    1.9334 H   0  0  0  0  0  0  0  0  0  0  0  0
   -2.2257    4.5841    0.7399 H   0  0  0  0  0  0  0  0  0  0  0  0
   -3.7956    5.3202    1.2496 H   0  0  0  0  0  0  0  0  0  0  0  0
   -5.8829    3.5738    0.8720 H   0  0  0  0  0  0  0  0  0  0  0  0
   -5.9878    3.6779   -0.9035 H   0  0  0  0  0  0  0  0  0  0  0  0
   -5.6093    5.1603    0.0253 H   0  0  0  0  0  0  0  0  0  0  0  0
   -1.3404   -3.5688   -2.0155 H   0  0  0  0  0  0  0  0  0  0  0  0
  1  2  1  0
  2  3  1  0
  3  4  2  0
  4  5  1  0
  5  6  1  0
  6  7  1  0
  5  8  2  0
  8  9  1  0
  9 10  1  0
 10 11  2  0
 11 12  1  0
 12 13  2  0
 13 14  1  0
 14 15  2  0
 15 16  1  0
 16 17  1  0
 17 18  1  0
 18 19  1  0
 19 20  1  0
 20 21  1  0
 15 22  1  0
 22 23  2  0
 23 24  1  0
 24 25  2  0
 25 26  1  0
 26 27  1  0
 27 28  2  0
 27 29  1  0
 29 30  1  0
 30 31  1  0
 30 32  1  0
 30 33  1  0
  9 34  2  0
 34  3  1  0
 25 10  1  0
 23 12  1  0
  1 35  1  0
  1 36  1  0
  1 37  1  0
  4 38  1  0
  7 39  1  0
  7 40  1  0
  7 41  1  0
  8 42  1  0
 11 43  1  0
 13 44  1  0
 16 45  1  0
 17 46  1  0
 17 47  1  0
 18 48  1  0
 18 49  1  0
 19 50  1  0
 19 51  1  0
 20 52  1  0
 20 53  1  0
 21 54  1  0
 22 55  1  0
 26 56  1  0
 29 57  1  0
 31 58  1  0
 31 59  1  0
 31 60  1  0
 32 61  1  0
 32 62  1  0
 32 63  1  0
 33 64  1  0
 33 65  1  0
 33 66  1  0
 34 67  1  0
M  END
$$$$
