
     RDKit          3D

 33 35  0  0  0  0  0  0  0  0999 V2000
   -4.8202   -2.7886   -0.2485 O   0  0  0  0  0  0  0  0  0  0  0  0
   -4.0208   -1.6450   -0.1208 C   0  0  0  0  0  0  0  0  0  0  0  0
   -2.6591   -1.7772   -0.1940 C   0  0  0  0  0  0  0  0  0  0  0  0
   -1.8995   -0.6237   -0.0634 C   0  0  0  0  0  0  0  0  0  0  0  0
   -0.6102   -0.6857   -0.1239 O   0  0  0  0  0  0  0  0  0  0  0  0
    0.2119    0.3546   -0.0116 C   0  0  0  0  0  0  0  0  0  0  0  0
    1.6277    0.0935   -0.1050 C   0  0  0  0  0  0  0  0  0  0  0  0
    2.5497    1.0964   -0.0019 C   0  0  0  0  0  0  0  0  0  0  0  0
    3.9051    0.7522   -0.1046 C   0  0  0  0  0  0  0  0  0  0  0  0
    4.8248    1.7833    0.0026 O   0  0  0  0  0  0  0  0  0  0  0  0
    4.3107   -0.5467   -0.3024 C   0  0  0  0  0  0  0  0  0  0  0  0
    5.6598   -0.8482   -0.3988 O   0  0  0  0  0  0  0  0  0  0  0  0
    3.3926   -1.5717   -0.4088 C   0  0  0  0  0  0  0  0  0  0  0  0
    3.8098   -2.8808   -0.6085 O   0  0  0  0  0  0  0  0  0  0  0  0
    2.0725   -1.2301   -0.3079 C   0  0  0  0  0  0  0  0  0  0  0  0
   -0.3702    1.5672    0.1812 C   0  0  0  0  0  0  0  0  0  0  0  0
    0.3668    2.7264    0.3135 O   0  0  0  0  0  0  0  0  0  0  0  0
   -1.7525    1.7542    0.2629 C   0  0  0  0  0  0  0  0  0  0  0  0
   -2.5624    0.6522    0.1415 C   0  0  0  0  0  0  0  0  0  0  0  0
   -3.9265    0.7581    0.2111 C   0  0  0  0  0  0  0  0  0  0  0  0
   -4.5061    1.8363    0.3851 O   0  0  0  0  0  3  0  0  0  0  0  0
   -4.6517   -0.4375    0.0732 C   0  0  0  0  0  0  0  0  0  0  0  0
   -5.7368   -2.6924   -0.6651 H   0  0  0  0  0  0  0  0  0  0  0  0
   -2.1634   -2.7426   -0.3489 H   0  0  0  0  0  0  0  0  0  0  0  0
    2.3249    2.1338    0.1521 H   0  0  0  0  0  0  0  0  0  0  0  0
    4.6001    2.6237    0.4895 H   0  0  0  0  0  0  0  0  0  0  0  0
    6.1595   -1.1070    0.4559 H   0  0  0  0  0  0  0  0  0  0  0  0
    4.3455   -3.1238   -1.4506 H   0  0  0  0  0  0  0  0  0  0  0  0
    1.3149   -2.0169   -0.3874 H   0  0  0  0  0  0  0  0  0  0  0  0
    0.2101    3.4193    1.0176 H   0  0  0  0  0  0  0  0  0  0  0  0
   -2.1651    2.7532    0.4190 H   0  0  0  0  0  0  0  0  0  0  0  0
   -4.1143    2.7383    0.4953 H   0  0  0  0  0  0  0  0  0  0  0  0
   -5.7276   -0.3247    0.1322 H   0  0  0  0  0  0  0  0  0  0  0  0
  1  2  1  0
  2  3  1  0
  3  4  2  0
  4  5  1  0
  5  6  1  0
  6  7  1  0
  7  8  2  0
  8  9  1  0
  9 10  1  0
  9 11  2  0
 11 12  1  0
 11 13  1  0
 13 14  1  0
 13 15  2  0
  6 16  2  0
 16 17  1  0
 16 18  1  0
 18 19  2  0
 19 20  1  0
 20 21  2  3
 20 22  1  0
 22  2  2  0
 19  4  1  0
 15  7  1  0
  1 23  1  0
  3 24  1  0
  8 25  1  0
 10 26  1  0
 12 27  1  0
 14 28  1  0
 15 29  1  0
 17 30  1  0
 18 31  1  0
 21 32  1  0
 22 33  1  0
M  CHG  1  21   1
M  END
$$$$
