
     RDKit          3D

 54 56  0  0  0  0  0  0  0  0999 V2000
   -2.8910   -0.0516    5.6102 C   0  0  0  0  0  0  0  0  0  0  0  0
   -2.2873    0.7073    4.5858 O   0  0  0  0  0  0  0  0  0  0  0  0
   -1.5367    0.2229    3.5476 C   0  0  0  0  0  0  0  0  0  0  0  0
   -1.2998   -1.1256    3.4079 C   0  0  0  0  0  0  0  0  0  0  0  0
   -0.5457   -1.6394    2.3686 C   0  0  0  0  0  0  0  0  0  0  0  0
   -0.2811   -2.9845    2.1861 O   0  0  0  0  0  0  0  0  0  0  0  0
   -0.7668   -3.9685    3.0633 C   0  0  0  0  0  0  0  0  0  0  0  0
   -0.0182   -0.7287    1.4423 C   0  0  0  0  0  0  0  0  0  0  0  0
   -0.2561    0.5975    1.5867 C   0  0  0  0  0  0  0  0  0  0  0  0
    0.2727    1.5754    0.6318 C   0  0  0  0  0  0  0  0  0  0  0  0
    1.0229    2.5880    1.2329 C   0  0  0  0  0  0  0  0  0  0  0  0
    1.5485    3.5534    0.3951 C   0  0  0  0  0  0  0  0  0  0  0  0
    2.3054    4.5838    0.8964 C   0  0  0  0  0  0  0  0  0  0  0  0
    2.8333    5.5307    0.1138 N   0  0  0  0  0  0  0  0  0  0  0  0
    2.6476    5.5226   -1.2299 C   0  0  0  0  0  0  0  0  0  0  0  0
    3.2023    6.5146   -2.0641 N   0  0  0  0  0  0  0  0  0  0  0  0
    1.8916    4.4967   -1.7417 C   0  0  0  0  0  0  0  0  0  0  0  0
    1.3286    3.5001   -0.9680 C   0  0  0  0  0  0  0  0  0  0  0  0
    0.5940    2.4937   -1.4780 N   0  0  0  0  0  0  0  0  0  0  0  0
    0.0573    1.5219   -0.7042 C   0  0  0  0  0  0  0  0  0  0  0  0
   -0.7238    0.5214   -1.3112 N   0  0  0  0  0  0  0  0  0  0  0  0
   -0.1156   -0.6040   -1.9731 C   0  0  0  0  0  0  0  0  0  0  0  0
    1.1279   -0.6987   -2.0265 O   0  0  0  0  0  0  0  0  0  0  0  0
   -0.8826   -1.6278   -2.5781 N   0  0  0  0  0  0  0  0  0  0  0  0
   -0.2927   -2.7559   -3.2591 C   0  0  0  0  0  0  0  0  0  0  0  0
    0.5274   -2.2190   -4.4283 C   0  0  0  0  0  0  0  0  0  0  0  0
    0.6110   -3.5776   -2.3596 C   0  0  0  0  0  0  0  0  0  0  0  0
   -1.3785   -3.6746   -3.7555 C   0  0  0  0  0  0  0  0  0  0  0  0
   -1.0184    1.1126    2.6380 C   0  0  0  0  0  0  0  0  0  0  0  0
   -2.1171   -0.2936    6.3950 H   0  0  0  0  0  0  0  0  0  0  0  0
   -3.6963    0.4890    6.1065 H   0  0  0  0  0  0  0  0  0  0  0  0
   -3.2437   -1.0320    5.2295 H   0  0  0  0  0  0  0  0  0  0  0  0
   -1.6958   -1.8519    4.1169 H   0  0  0  0  0  0  0  0  0  0  0  0
   -1.7951   -3.7236    3.3976 H   0  0  0  0  0  0  0  0  0  0  0  0
   -0.8242   -4.9380    2.4834 H   0  0  0  0  0  0  0  0  0  0  0  0
   -0.1188   -4.0961    3.9583 H   0  0  0  0  0  0  0  0  0  0  0  0
    0.5666   -1.1444    0.6651 H   0  0  0  0  0  0  0  0  0  0  0  0
    1.1908    2.6249    2.2970 H   0  0  0  0  0  0  0  0  0  0  0  0
    2.4579    4.5934    1.9860 H   0  0  0  0  0  0  0  0  0  0  0  0
    2.8370    6.6778   -3.0259 H   0  0  0  0  0  0  0  0  0  0  0  0
    3.9916    7.1084   -1.7404 H   0  0  0  0  0  0  0  0  0  0  0  0
    1.7447    4.4949   -2.8258 H   0  0  0  0  0  0  0  0  0  0  0  0
   -1.7714    0.5758   -1.2837 H   0  0  0  0  0  0  0  0  0  0  0  0
   -1.9152   -1.5626   -2.5301 H   0  0  0  0  0  0  0  0  0  0  0  0
    1.6104   -2.4191   -4.2301 H   0  0  0  0  0  0  0  0  0  0  0  0
    0.3833   -1.1245   -4.5308 H   0  0  0  0  0  0  0  0  0  0  0  0
    0.2203   -2.7078   -5.3735 H   0  0  0  0  0  0  0  0  0  0  0  0
    1.5674   -3.0512   -2.1734 H   0  0  0  0  0  0  0  0  0  0  0  0
    0.1276   -3.9306   -1.4497 H   0  0  0  0  0  0  0  0  0  0  0  0
    0.8879   -4.4910   -2.9596 H   0  0  0  0  0  0  0  0  0  0  0  0
   -2.1355   -3.8346   -2.9588 H   0  0  0  0  0  0  0  0  0  0  0  0
   -0.8820   -4.6470   -3.9742 H   0  0  0  0  0  0  0  0  0  0  0  0
   -1.8892   -3.2875   -4.6451 H   0  0  0  0  0  0  0  0  0  0  0  0
   -1.1771    2.1849    2.7077 H   0  0  0  0  0  0  0  0  0  0  0  0
  1  2  1  0
  2  3  1  0
  3  4  2  0
  4  5  1  0
  5  6  1  0
  6  7  1  0
  5  8  2  0
  8  9  1  0
  9 10  1  0
 10 11  2  0
 11 12  1  0
 12 13  2  0
 13 14  1  0
 14 15  2  0
 15 16  1  0
 15 17  1  0
 17 18  2  0
 18 19  1  0
 19 20  2  0
 20 21  1  0
 21 22  1  0
 22 23  2  0
 22 24  1  0
 24 25  1  0
 25 26  1  0
 25 27  1  0
 25 28  1  0
  9 29  2  0
 29  3  1  0
 20 10  1  0
 18 12  1  0
  1 30  1  0
  1 31  1  0
  1 32  1  0
  4 33  1  0
  7 34  1  0
  7 35  1  0
  7 36  1  0
  8 37  1  0
 11 38  1  0
 13 39  1  0
 16 40  1  0
 16 41  1  0
 17 42  1  0
 21 43  1  0
 24 44  1  0
 26 45  1  0
 26 46  1  0
 26 47  1  0
 27 48  1  0
 27 49  1  0
 27 50  1  0
 28 51  1  0
 28 52  1  0
 28 53  1  0
 29 54  1  0
M  END
$$$$
