
     RDKit          3D

 49 53  0  0  0  0  0  0  0  0999 V2000
    4.7205   -1.9027    0.6175 C   0  0  0  0  0  0  0  0  0  0  0  0
    4.0500   -1.3448   -0.5914 C   0  0  0  0  0  0  0  0  0  0  0  0
    3.1059   -0.2285   -0.2454 C   0  0  0  0  0  0  0  0  0  0  0  0
    3.5283    1.0440    0.0782 C   0  0  0  0  0  0  0  0  0  0  0  0
    4.8784    1.3220    0.0890 C   0  0  0  0  0  0  0  0  0  0  0  0
    5.3018    2.5825    0.4099 C   0  0  0  0  0  0  0  0  0  0  0  0
    6.6813    2.8273    0.4104 O   0  0  0  0  0  0  0  0  0  0  0  0
    4.3754    3.5567    0.7177 C   0  0  0  0  0  0  0  0  0  0  0  0
    3.0069    3.2914    0.7112 C   0  0  0  0  0  0  0  0  0  0  0  0
    2.5944    2.0218    0.3873 C   0  0  0  0  0  0  0  0  0  0  0  0
    1.2656    1.7855    0.3875 N   0  0  0  0  0  0  0  0  0  0  0  0
    0.8582    0.5403    0.0707 C   0  0  0  0  0  0  0  0  0  0  0  0
    1.7485   -0.4547   -0.2411 C   0  0  0  0  0  0  0  0  0  0  0  0
    1.0114   -1.7010   -0.5430 C   0  0  0  0  0  0  0  0  0  0  0  0
   -0.3883   -1.3536   -0.3749 N   0  0  0  0  0  0  0  0  0  0  0  0
   -0.4686   -0.0583   -0.0232 C   0  0  0  0  0  0  0  0  0  0  0  0
   -1.7037    0.5140    0.1954 C   0  0  0  0  0  0  0  0  0  0  0  0
   -2.8068   -0.2979    0.0362 C   0  0  0  0  0  0  0  0  0  0  0  0
   -2.7035   -1.6350   -0.3278 C   0  0  0  0  0  0  0  0  0  0  0  0
   -3.8759   -2.5371   -0.5060 C   0  0  0  0  0  0  0  0  0  0  0  0
   -5.0040   -1.9925    0.1931 O   0  0  0  0  0  0  0  0  0  0  0  0
   -4.8913   -0.8633    1.0174 C   0  0  0  0  0  0  0  0  0  0  0  0
   -5.3236   -0.8046    2.2196 O   0  0  0  0  0  0  0  0  0  0  0  0
   -4.1977    0.2080    0.2468 C   0  0  1  0  0  0  0  0  0  0  0  0
   -4.1817    1.4048    0.9573 O   0  0  0  0  0  0  0  0  0  0  0  0
   -4.9539    0.4194   -1.0297 C   0  0  0  0  0  0  0  0  0  0  0  0
   -6.3304    0.9287   -0.6384 C   0  0  0  0  0  0  0  0  0  0  0  0
   -1.4347   -2.1819   -0.5417 C   0  0  0  0  0  0  0  0  0  0  0  0
   -1.3091   -3.3891   -0.8720 O   0  0  0  0  0  0  0  0  0  0  0  0
    5.8201   -1.7970    0.5219 H   0  0  0  0  0  0  0  0  0  0  0  0
    4.4409   -1.3719    1.5576 H   0  0  0  0  0  0  0  0  0  0  0  0
    4.5593   -3.0159    0.7190 H   0  0  0  0  0  0  0  0  0  0  0  0
    4.8095   -0.9394   -1.2783 H   0  0  0  0  0  0  0  0  0  0  0  0
    3.4649   -2.1307   -1.1109 H   0  0  0  0  0  0  0  0  0  0  0  0
    5.6141    0.5597   -0.1523 H   0  0  0  0  0  0  0  0  0  0  0  0
    7.1997    2.4033    1.1763 H   0  0  0  0  0  0  0  0  0  0  0  0
    4.7983    4.5144    0.9568 H   0  0  0  0  0  0  0  0  0  0  0  0
    2.3112    4.1018    0.9637 H   0  0  0  0  0  0  0  0  0  0  0  0
    1.1197   -1.9853   -1.6155 H   0  0  0  0  0  0  0  0  0  0  0  0
    1.2467   -2.5325    0.1415 H   0  0  0  0  0  0  0  0  0  0  0  0
   -1.8342    1.5557    0.4816 H   0  0  0  0  0  0  0  0  0  0  0  0
   -3.6997   -3.5207    0.0215 H   0  0  0  0  0  0  0  0  0  0  0  0
   -4.0904   -2.7755   -1.5467 H   0  0  0  0  0  0  0  0  0  0  0  0
   -3.5846    1.3405    1.7613 H   0  0  0  0  0  0  0  0  0  0  0  0
   -4.4795    1.1993   -1.6679 H   0  0  0  0  0  0  0  0  0  0  0  0
   -5.0923   -0.4830   -1.6338 H   0  0  0  0  0  0  0  0  0  0  0  0
   -6.6859    1.7188   -1.3214 H   0  0  0  0  0  0  0  0  0  0  0  0
   -6.3627    1.3280    0.3844 H   0  0  0  0  0  0  0  0  0  0  0  0
   -7.1083    0.1291   -0.6899 H   0  0  0  0  0  0  0  0  0  0  0  0
  1  2  1  0
  2  3  1  0
  3  4  2  0
  4  5  1  0
  5  6  2  0
  6  7  1  0
  6  8  1  0
  8  9  2  0
  9 10  1  0
 10 11  2  0
 11 12  1  0
 12 13  2  0
 13 14  1  0
 14 15  1  0
 15 16  1  0
 16 17  2  0
 17 18  1  0
 18 19  2  0
 19 20  1  0
 20 21  1  0
 21 22  1  0
 22 23  2  0
 22 24  1  0
 24 25  1  1
 24 26  1  0
 26 27  1  0
 19 28  1  0
 28 29  2  0
 13  3  1  0
 28 15  1  0
 10  4  1  0
 16 12  1  0
 24 18  1  0
  1 30  1  0
  1 31  1  0
  1 32  1  0
  2 33  1  0
  2 34  1  0
  5 35  1  0
  7 36  1  0
  8 37  1  0
  9 38  1  0
 14 39  1  0
 14 40  1  0
 17 41  1  0
 20 42  1  0
 20 43  1  0
 25 44  1  0
 26 45  1  0
 26 46  1  0
 27 47  1  0
 27 48  1  0
 27 49  1  0
M  END
$$$$
