
     RDKit          3D

 33 34  0  0  0  0  0  0  0  0999 V2000
   -3.9505   -0.4942   -0.0583 C   0  0  0  0  0  0  0  0  0  0  0  0
   -2.9791    0.1409    0.9045 C   0  0  1  0  0  0  0  0  0  0  0  0
   -1.9529   -0.8799    1.3347 C   0  0  0  0  0  0  0  0  0  0  0  0
   -0.6542   -0.3821    0.6960 C   0  0  1  0  0  0  0  0  0  0  0  0
   -0.5399   -0.8489   -0.6521 N   0  0  0  0  0  0  0  0  0  0  0  0
    0.9737   -1.6627   -0.8319 S   0  0  0  0  0  6  0  0  0  0  0  0
    1.0309   -2.2111   -2.2337 O   0  0  0  0  0  0  0  0  0  0  0  0
    1.0523   -2.8097    0.1470 O   0  0  0  0  0  0  0  0  0  0  0  0
    2.2837   -0.5624   -0.5236 C   0  0  0  0  0  0  0  0  0  0  0  0
    3.1905   -0.8086    0.4983 C   0  0  0  0  0  0  0  0  0  0  0  0
    4.2281    0.0768    0.7313 C   0  0  0  0  0  0  0  0  0  0  0  0
    5.4718   -0.2619    2.1336 Br  0  0  0  0  0  0  0  0  0  0  0  0
    4.3478    1.1937   -0.0556 C   0  0  0  0  0  0  0  0  0  0  0  0
    3.4582    1.4491   -1.0691 C   0  0  0  0  0  0  0  0  0  0  0  0
    2.4280    0.5619   -1.2941 C   0  0  0  0  0  0  0  0  0  0  0  0
    1.1617    0.8716   -2.6935 Br  0  0  0  0  0  0  0  0  0  0  0  0
   -0.8913    1.1105    0.6931 C   0  0  0  0  0  0  0  0  0  0  0  0
   -2.2528    1.2098    0.2449 N   0  0  0  0  0  0  0  0  0  0  0  0
   -2.7885    2.1362   -0.6423 C   0  0  0  0  0  0  0  0  0  0  0  0
   -3.2241    2.8997   -1.3964 N   0  0  0  0  0  0  0  0  0  0  0  0
   -3.9162   -1.6044    0.0607 H   0  0  0  0  0  0  0  0  0  0  0  0
   -4.9813   -0.1647    0.2089 H   0  0  0  0  0  0  0  0  0  0  0  0
   -3.7279   -0.2822   -1.1150 H   0  0  0  0  0  0  0  0  0  0  0  0
   -3.4722    0.5554    1.8077 H   0  0  0  0  0  0  0  0  0  0  0  0
   -1.7908   -0.8286    2.4365 H   0  0  0  0  0  0  0  0  0  0  0  0
   -2.1952   -1.8986    1.0090 H   0  0  0  0  0  0  0  0  0  0  0  0
    0.2289   -0.6421    1.2984 H   0  0  0  0  0  0  0  0  0  0  0  0
   -1.3193   -1.5112   -0.8561 H   0  0  0  0  0  0  0  0  0  0  0  0
    3.1206   -1.6745    1.1291 H   0  0  0  0  0  0  0  0  0  0  0  0
    5.1484    1.8915    0.1126 H   0  0  0  0  0  0  0  0  0  0  0  0
    3.5187    2.3167   -1.7099 H   0  0  0  0  0  0  0  0  0  0  0  0
   -0.1753    1.6620    0.0566 H   0  0  0  0  0  0  0  0  0  0  0  0
   -0.8317    1.4518    1.7609 H   0  0  0  0  0  0  0  0  0  0  0  0
  1  2  1  0
  2  3  1  0
  3  4  1  0
  4  5  1  0
  5  6  1  0
  6  7  2  0
  6  8  2  0
  6  9  1  0
  9 10  2  0
 10 11  1  0
 11 12  1  0
 11 13  2  0
 13 14  1  0
 14 15  2  0
 15 16  1  0
  4 17  1  0
 17 18  1  0
 18 19  1  0
 19 20  3  0
 18  2  1  0
 15  9  1  0
  1 21  1  0
  1 22  1  0
  1 23  1  0
  2 24  1  1
  3 25  1  0
  3 26  1  0
  4 27  1  1
  5 28  1  0
 10 29  1  0
 13 30  1  0
 14 31  1  0
 17 32  1  0
 17 33  1  0
M  END
$$$$
