
     RDKit          3D

 42 45  0  0  0  0  0  0  0  0999 V2000
   -3.0939   -2.3906   -0.7935 C   0  0  0  0  0  0  0  0  0  0  0  0
   -3.6884   -1.1295   -0.2638 C   0  0  0  0  0  0  0  0  0  0  0  0
   -4.8671   -1.0376    0.4677 C   0  0  0  0  0  0  0  0  0  0  0  0
   -5.3265    0.1826    0.9095 C   0  0  0  0  0  0  0  0  0  0  0  0
   -4.6363    1.3511    0.6428 C   0  0  0  0  0  0  0  0  0  0  0  0
   -3.4503    1.2720   -0.0915 C   0  0  0  0  0  0  0  0  0  0  0  0
   -2.7599    2.5599   -0.3425 C   0  0  0  0  0  0  0  0  0  0  0  0
   -2.9699    0.0380   -0.5479 C   0  0  0  0  0  0  0  0  0  0  0  0
   -1.7740    0.1192   -1.2674 N   0  0  0  0  0  0  0  0  0  0  0  0
   -0.4207    0.0659   -0.9151 C   0  0  0  0  0  0  0  0  0  0  0  0
    0.5107    0.1773   -1.8770 N   0  0  0  0  0  0  0  0  0  0  0  0
    1.8137    0.1270   -1.5455 C   0  0  0  0  0  0  0  0  0  0  0  0
    2.2357   -0.0364   -0.2421 C   0  0  0  0  0  0  0  0  0  0  0  0
    1.2767   -0.1444    0.6945 N   0  0  0  0  0  0  0  0  0  0  0  0
    1.4702   -0.3074    2.0157 C   0  0  0  0  0  0  0  0  0  0  0  0
    0.2295   -0.3655    2.5650 N   0  0  0  0  0  0  0  0  0  0  0  0
   -0.6931   -0.2391    1.5882 C   0  0  0  0  0  0  0  0  0  0  0  0
   -0.0279   -0.0981    0.3958 C   0  0  0  0  0  0  0  0  0  0  0  0
    3.6710   -0.0668   -0.0762 C   0  0  0  0  0  0  0  0  0  0  0  0
    4.3899    0.9144   -0.7693 C   0  0  0  0  0  0  0  0  0  0  0  0
    5.7703    1.0082   -0.7070 C   0  0  0  0  0  0  0  0  0  0  0  0
    6.4789    0.1235    0.0509 C   0  0  0  0  0  0  0  0  0  0  0  0
    5.7960   -0.8537    0.7444 C   0  0  0  0  0  0  0  0  0  0  0  0
    4.4285   -0.9419    0.6790 C   0  0  0  0  0  0  0  0  0  0  0  0
   -2.7379   -2.2699   -1.8403 H   0  0  0  0  0  0  0  0  0  0  0  0
   -2.2250   -2.6435   -0.1279 H   0  0  0  0  0  0  0  0  0  0  0  0
   -3.8387   -3.2044   -0.8060 H   0  0  0  0  0  0  0  0  0  0  0  0
   -5.3781   -1.9741    0.6557 H   0  0  0  0  0  0  0  0  0  0  0  0
   -6.2616    0.2221    1.4854 H   0  0  0  0  0  0  0  0  0  0  0  0
   -5.0130    2.2943    0.9975 H   0  0  0  0  0  0  0  0  0  0  0  0
   -2.4299    3.0782    0.5662 H   0  0  0  0  0  0  0  0  0  0  0  0
   -1.9542    2.3625   -1.0838 H   0  0  0  0  0  0  0  0  0  0  0  0
   -3.5209    3.2133   -0.8467 H   0  0  0  0  0  0  0  0  0  0  0  0
   -2.0873    0.2443   -2.2546 H   0  0  0  0  0  0  0  0  0  0  0  0
    2.5027    0.2259   -2.3911 H   0  0  0  0  0  0  0  0  0  0  0  0
    2.3831   -0.3798    2.5554 H   0  0  0  0  0  0  0  0  0  0  0  0
   -1.7581   -0.2458    1.7080 H   0  0  0  0  0  0  0  0  0  0  0  0
    3.9223    1.6764   -1.4082 H   0  0  0  0  0  0  0  0  0  0  0  0
    6.3177    1.7696   -1.2459 H   0  0  0  0  0  0  0  0  0  0  0  0
    7.5673    0.1397    0.1450 H   0  0  0  0  0  0  0  0  0  0  0  0
    6.2833   -1.6015    1.3741 H   0  0  0  0  0  0  0  0  0  0  0  0
    3.8654   -1.6872    1.2027 H   0  0  0  0  0  0  0  0  0  0  0  0
  1  2  1  0
  2  3  2  0
  3  4  1  0
  4  5  2  0
  5  6  1  0
  6  7  1  0
  6  8  2  0
  8  9  1  0
  9 10  1  0
 10 11  2  0
 11 12  1  0
 12 13  2  0
 13 14  1  0
 14 15  1  0
 15 16  2  0
 16 17  1  0
 17 18  2  0
 13 19  1  0
 19 20  2  0
 20 21  1  0
 21 22  2  0
 22 23  1  0
 23 24  2  0
  8  2  1  0
 18 10  1  0
 24 19  1  0
 18 14  1  0
  1 25  1  0
  1 26  1  0
  1 27  1  0
  3 28  1  0
  4 29  1  0
  5 30  1  0
  7 31  1  0
  7 32  1  0
  7 33  1  0
  9 34  1  0
 12 35  1  0
 15 36  1  0
 17 37  1  0
 20 38  1  0
 21 39  1  0
 22 40  1  0
 23 41  1  0
 24 42  1  0
M  END
$$$$
