
     RDKit          3D

 37 39  0  0  0  0  0  0  0  0999 V2000
   -1.4638    3.7810    1.0105 C   0  0  0  0  0  0  0  0  0  0  0  0
   -1.5201    2.5931    0.2184 O   0  0  0  0  0  0  0  0  0  0  0  0
   -0.6880    1.5122    0.4570 C   0  0  0  0  0  0  0  0  0  0  0  0
    0.1336    1.6020    1.4044 O   0  0  0  0  0  0  0  0  0  0  0  0
   -0.7940    0.3140   -0.3954 C   0  0  2  0  0  0  0  0  0  0  0  0
   -2.2205   -0.2185   -0.2464 C   0  0  0  0  0  0  0  0  0  0  0  0
   -2.2554   -1.1835    0.8894 C   0  0  0  0  0  0  0  0  0  0  0  0
   -1.7287   -2.4917    0.5407 C   0  0  0  0  0  0  0  0  0  0  0  0
   -1.2505   -2.5659   -0.8747 C   0  0  0  0  0  0  0  0  0  0  0  0
    0.1090   -1.8773   -1.0343 C   0  0  0  0  0  0  0  0  0  0  0  0
    0.2073   -0.7416   -0.0570 C   0  0  1  0  0  0  0  0  0  0  0  0
    1.5698   -0.1440   -0.1242 C   0  0  0  0  0  0  0  0  0  0  0  0
    2.0354    0.4099   -1.3116 C   0  0  0  0  0  0  0  0  0  0  0  0
    3.2939    0.9698   -1.4002 C   0  0  0  0  0  0  0  0  0  0  0  0
    4.1348    0.9963   -0.3018 C   0  0  0  0  0  0  0  0  0  0  0  0
    5.3589    1.5636   -0.4636 F   0  0  0  0  0  0  0  0  0  0  0  0
    3.6928    0.4574    0.8690 C   0  0  0  0  0  0  0  0  0  0  0  0
    4.7499    0.4859    2.2653 Cl  0  0  0  0  0  0  0  0  0  0  0  0
    2.4320   -0.1018    0.9517 C   0  0  0  0  0  0  0  0  0  0  0  0
   -2.4172   -1.3827   -1.6445 S   0  0  0  0  0  4  0  0  0  0  0  0
   -3.8213   -1.9977   -1.5624 O   0  0  0  0  0  0  0  0  0  0  0  0
   -2.3356    3.7541    1.7043 H   0  0  0  0  0  0  0  0  0  0  0  0
   -0.5001    3.8574    1.5535 H   0  0  0  0  0  0  0  0  0  0  0  0
   -1.5849    4.6897    0.3873 H   0  0  0  0  0  0  0  0  0  0  0  0
   -0.6154    0.6179   -1.4532 H   0  0  0  0  0  0  0  0  0  0  0  0
   -2.9757    0.5513   -0.2469 H   0  0  0  0  0  0  0  0  0  0  0  0
   -3.3350   -1.2521    1.2199 H   0  0  0  0  0  0  0  0  0  0  0  0
   -1.7466   -0.7158    1.7834 H   0  0  0  0  0  0  0  0  0  0  0  0
   -0.9407   -2.8423    1.2702 H   0  0  0  0  0  0  0  0  0  0  0  0
   -2.5363   -3.2772    0.6424 H   0  0  0  0  0  0  0  0  0  0  0  0
   -1.2986   -3.5408   -1.3384 H   0  0  0  0  0  0  0  0  0  0  0  0
    0.1275   -1.4228   -2.0592 H   0  0  0  0  0  0  0  0  0  0  0  0
    0.9358   -2.5838   -0.9921 H   0  0  0  0  0  0  0  0  0  0  0  0
    0.0903   -1.1065    0.9926 H   0  0  0  0  0  0  0  0  0  0  0  0
    1.4211    0.4148   -2.1948 H   0  0  0  0  0  0  0  0  0  0  0  0
    3.6285    1.3972   -2.3509 H   0  0  0  0  0  0  0  0  0  0  0  0
    2.1076   -0.5216    1.8919 H   0  0  0  0  0  0  0  0  0  0  0  0
  1  2  1  0
  2  3  1  0
  3  4  2  0
  3  5  1  0
  5  6  1  0
  6  7  1  0
  7  8  1  0
  8  9  1  0
  9 10  1  0
 10 11  1  0
 11 12  1  0
 12 13  2  0
 13 14  1  0
 14 15  2  0
 15 16  1  0
 15 17  1  0
 17 18  1  0
 17 19  2  0
  9 20  1  0
 20 21  2  0
 11  5  1  0
 19 12  1  0
 20  6  1  0
  1 22  1  0
  1 23  1  0
  1 24  1  0
  5 25  1  6
  6 26  1  0
  7 27  1  0
  7 28  1  0
  8 29  1  0
  8 30  1  0
  9 31  1  0
 10 32  1  0
 10 33  1  0
 11 34  1  1
 13 35  1  0
 14 36  1  0
 19 37  1  0
M  END
$$$$
