
     RDKit          3D

 85 89  0  0  0  0  0  0  0  0999 V2000
   -6.8657    0.6255   -0.6180 C   0  0  1  0  0  0  0  0  0  0  0  0
   -6.1944    0.1035   -1.7277 O   0  0  0  0  0  0  0  0  0  0  0  0
   -8.2327    1.1549   -1.0093 C   0  0  0  0  0  0  0  0  0  0  0  0
   -9.1650    0.3482   -0.1225 C   0  0  1  0  0  0  0  0  0  0  0  0
   -8.3702    0.0575    1.0064 O   0  0  0  0  0  0  0  0  0  0  0  0
   -7.2371   -0.4632    0.3671 C   0  0  2  0  0  0  0  0  0  0  0  0
   -6.0751   -0.6605    1.3022 C   0  0  0  0  0  0  0  0  0  0  0  0
   -5.0120   -1.1759    0.5753 O   0  0  0  0  0  0  0  0  0  0  0  0
   -3.7048   -1.4050    1.6103 P   0  0  0  0  0  0  0  0  0  0  0  0
   -2.7264   -2.6254    0.9938 O   0  0  0  0  0  0  0  0  0  0  0  0
   -4.2160   -1.7471    2.9793 O   0  0  0  0  0  0  0  0  0  0  0  0
   -2.7907    0.0298    1.6378 O   0  0  0  0  0  0  0  0  0  0  0  0
   -2.3730    0.5119    0.0908 P   0  0  0  0  0  0  0  0  0  0  0  0
   -3.1823   -0.3072   -1.1196 O   0  0  0  0  0  0  0  0  0  0  0  0
   -2.7262    1.9970   -0.0151 O   0  0  0  0  0  0  0  0  0  0  0  0
   -0.7073    0.4217   -0.1781 O   0  0  0  0  0  0  0  0  0  0  0  0
   -0.2628   -0.8046   -1.2237 P   0  0  0  0  0  0  0  0  0  0  0  0
    0.7491   -0.2750   -2.4697 O   0  0  0  0  0  0  0  0  0  0  0  0
   -1.4775   -1.4104   -1.8866 O   0  0  0  0  0  0  0  0  0  0  0  0
    0.5002   -2.0014   -0.2889 O   0  0  0  0  0  0  0  0  0  0  0  0
    2.1623   -2.0675   -0.5790 P   0  0  0  0  0  0  0  0  0  0  0  0
    2.3534   -2.5608   -2.1942 O   0  0  0  0  0  0  0  0  0  0  0  0
    2.7311   -3.1372    0.2965 O   0  0  0  0  0  0  0  0  0  0  0  0
    2.8973   -0.5770   -0.2889 O   0  0  0  0  0  0  0  0  0  0  0  0
    4.2243   -0.3133   -1.2754 P   0  0  0  0  0  0  0  0  0  0  0  0
    4.3576   -1.6213   -2.3365 O   0  0  0  0  0  0  0  0  0  0  0  0
    3.9814    0.9441   -2.0779 O   0  0  0  0  0  0  0  0  0  0  0  0
    5.6662   -0.1272   -0.3769 O   0  0  0  0  0  0  0  0  0  0  0  0
    5.8662   -1.3121    0.2856 C   0  0  0  0  0  0  0  0  0  0  0  0
    7.1160   -1.3086    1.1353 C   0  0  1  0  0  0  0  0  0  0  0  0
    8.2735   -1.0884    0.3905 O   0  0  0  0  0  0  0  0  0  0  0  0
    9.2417   -0.9620    1.3815 C   0  0  1  0  0  0  0  0  0  0  0  0
   10.4668   -0.3771    0.8690 N   0  0  0  0  0  0  0  0  0  0  0  0
   11.6971   -0.5247    1.4155 C   0  0  0  0  0  0  0  0  0  0  0  0
   12.5424    0.1722    0.6384 N   0  0  0  0  0  0  0  0  0  0  0  0
   11.8792    0.7554   -0.3832 C   0  0  0  0  0  0  0  0  0  0  0  0
   12.3629    1.5572   -1.4098 C   0  0  0  0  0  0  0  0  0  0  0  0
   13.7389    1.8976   -1.5283 N   0  0  0  0  0  0  0  0  0  0  0  0
   11.4355    1.9902   -2.2862 N   0  0  0  0  0  0  0  0  0  0  0  0
   10.1390    1.6565   -2.1556 C   0  0  0  0  0  0  0  0  0  0  0  0
    9.7097    0.8775   -1.1474 N   0  0  0  0  0  0  0  0  0  0  0  0
   10.5542    0.4020   -0.2320 C   0  0  0  0  0  0  0  0  0  0  0  0
    8.6208   -0.1372    2.4851 C   0  0  2  0  0  0  0  0  0  0  0  0
    8.7400   -0.9025    3.6610 O   0  0  0  0  0  0  0  0  0  0  0  0
    7.1562   -0.0879    2.0487 C   0  0  2  0  0  0  0  0  0  0  0  0
    6.3072   -0.2375    3.1413 O   0  0  0  0  0  0  0  0  0  0  0  0
  -10.3585    1.0834    0.2479 N   0  0  0  0  0  0  0  0  0  0  0  0
  -11.5944    0.7366   -0.1583 C   0  0  0  0  0  0  0  0  0  0  0  0
  -12.7471    1.4170    0.1785 C   0  0  0  0  0  0  0  0  0  0  0  0
  -14.0745    0.9737   -0.3083 C   0  0  0  0  0  0  0  0  0  0  0  0
  -12.5712    2.5358    0.9986 C   0  0  0  0  0  0  0  0  0  0  0  0
  -13.6990    3.2371    1.3534 O   0  0  0  0  0  0  0  0  0  0  0  0
  -11.3297    2.8600    1.3895 N   0  0  0  0  0  0  0  0  0  0  0  0
  -10.2601    2.1636    1.0307 C   0  0  0  0  0  0  0  0  0  0  0  0
   -9.1115    2.5267    1.4374 O   0  0  0  0  0  0  0  0  0  0  0  0
   -6.2609    1.3847   -0.0871 H   0  0  0  0  0  0  0  0  0  0  0  0
   -6.6039   -0.7816   -1.9465 H   0  0  0  0  0  0  0  0  0  0  0  0
   -8.2962    2.2278   -0.8261 H   0  0  0  0  0  0  0  0  0  0  0  0
   -8.4040    0.8860   -2.0861 H   0  0  0  0  0  0  0  0  0  0  0  0
   -9.3965   -0.6163   -0.5896 H   0  0  0  0  0  0  0  0  0  0  0  0
   -7.5525   -1.3842   -0.1362 H   0  0  0  0  0  0  0  0  0  0  0  0
   -6.3673   -1.4587    2.0362 H   0  0  0  0  0  0  0  0  0  0  0  0
   -5.8498    0.2757    1.8145 H   0  0  0  0  0  0  0  0  0  0  0  0
   -3.2427   -3.1717    0.3564 H   0  0  0  0  0  0  0  0  0  0  0  0
   -3.3166    0.2166   -1.9334 H   0  0  0  0  0  0  0  0  0  0  0  0
    0.5699    0.6605   -2.7277 H   0  0  0  0  0  0  0  0  0  0  0  0
    2.1374   -3.5333   -2.1912 H   0  0  0  0  0  0  0  0  0  0  0  0
    5.2897   -1.9587   -2.4065 H   0  0  0  0  0  0  0  0  0  0  0  0
    5.9018   -2.2055   -0.3526 H   0  0  0  0  0  0  0  0  0  0  0  0
    5.0146   -1.4488    0.9816 H   0  0  0  0  0  0  0  0  0  0  0  0
    7.1680   -2.1784    1.7960 H   0  0  0  0  0  0  0  0  0  0  0  0
    9.4666   -2.0134    1.7006 H   0  0  0  0  0  0  0  0  0  0  0  0
   11.9405   -1.0934    2.3025 H   0  0  0  0  0  0  0  0  0  0  0  0
   13.6979    2.7070   -0.8401 H   0  0  0  0  0  0  0  0  0  0  0  0
   14.3841    2.6101   -1.1219 H   0  0  0  0  0  0  0  0  0  0  0  0
    9.4936    2.0575   -2.9094 H   0  0  0  0  0  0  0  0  0  0  0  0
    9.0534    0.8652    2.5883 H   0  0  0  0  0  0  0  0  0  0  0  0
    8.8374   -1.8763    3.4481 H   0  0  0  0  0  0  0  0  0  0  0  0
    7.0077    0.8438    1.4902 H   0  0  0  0  0  0  0  0  0  0  0  0
    6.0790    0.7019    3.4249 H   0  0  0  0  0  0  0  0  0  0  0  0
  -11.7210   -0.1320   -0.7938 H   0  0  0  0  0  0  0  0  0  0  0  0
  -13.9618   -0.0404   -0.7069 H   0  0  0  0  0  0  0  0  0  0  0  0
  -14.7913    1.0348    0.5383 H   0  0  0  0  0  0  0  0  0  0  0  0
  -14.4358    1.5957   -1.1741 H   0  0  0  0  0  0  0  0  0  0  0  0
  -14.2461    3.0066    2.1873 H   0  0  0  0  0  0  0  0  0  0  0  0
  1  2  1  0
  1  3  1  0
  3  4  1  0
  4  5  1  0
  5  6  1  0
  6  7  1  0
  7  8  1  0
  8  9  1  0
  9 10  1  0
  9 11  2  0
  9 12  1  0
 12 13  1  0
 13 14  1  0
 13 15  2  0
 13 16  1  0
 16 17  1  0
 17 18  1  0
 17 19  2  0
 17 20  1  0
 20 21  1  0
 21 22  1  0
 21 23  2  0
 21 24  1  0
 24 25  1  0
 25 26  1  0
 25 27  2  0
 25 28  1  0
 28 29  1  0
 29 30  1  0
 30 31  1  0
 31 32  1  0
 32 33  1  0
 33 34  1  0
 34 35  2  0
 35 36  1  0
 36 37  2  0
 37 38  1  0
 37 39  1  0
 39 40  2  0
 40 41  1  0
 41 42  2  0
 32 43  1  0
 43 44  1  0
 43 45  1  0
 45 46  1  0
  4 47  1  0
 47 48  1  0
 48 49  2  0
 49 50  1  0
 49 51  1  0
 51 52  1  0
 51 53  2  0
 53 54  1  0
 54 55  2  0
  6  1  1  0
 45 30  1  0
 54 47  1  0
 42 33  1  0
 42 36  1  0
  1 56  1  1
  2 57  1  0
  3 58  1  0
  3 59  1  0
  4 60  1  6
  6 61  1  6
  7 62  1  0
  7 63  1  0
 10 64  1  0
 14 65  1  0
 18 66  1  0
 22 67  1  0
 26 68  1  0
 29 69  1  0
 29 70  1  0
 30 71  1  1
 32 72  1  1
 34 73  1  0
 38 74  1  0
 38 75  1  0
 40 76  1  0
 43 77  1  1
 44 78  1  0
 45 79  1  6
 46 80  1  0
 48 81  1  0
 50 82  1  0
 50 83  1  0
 50 84  1  0
 52 85  1  0
M  END
$$$$
