
     RDKit          3D

 64 67  0  0  0  0  0  0  0  0999 V2000
    3.2090   -3.5226    3.5374 C   0  0  0  0  0  0  0  0  0  0  0  0
    3.1194   -2.3934    2.5730 C   0  0  0  0  0  0  0  0  0  0  0  0
    4.2393   -1.7253    2.1256 C   0  0  0  0  0  0  0  0  0  0  0  0
    4.1269   -0.6751    1.2258 C   0  0  0  0  0  0  0  0  0  0  0  0
    5.3169    0.0661    0.7237 C   0  0  0  0  0  0  0  0  0  0  0  0
    5.9635   -0.6777   -0.7534 S   0  0  0  0  0  6  0  0  0  0  0  0
    4.9222   -0.5631   -1.8225 O   0  0  0  0  0  0  0  0  0  0  0  0
    6.3938   -2.0942   -0.5267 O   0  0  0  0  0  0  0  0  0  0  0  0
    7.3532    0.2704   -1.2533 C   0  0  0  0  0  0  0  0  0  0  0  0
    7.1751    1.3348   -2.1100 C   0  0  0  0  0  0  0  0  0  0  0  0
    8.2628    2.0806   -2.5043 C   0  0  0  0  0  0  0  0  0  0  0  0
    9.5384    1.7856   -2.0588 C   0  0  0  0  0  0  0  0  0  0  0  0
    9.6881    0.7168   -1.2036 C   0  0  0  0  0  0  0  0  0  0  0  0
    8.6054   -0.0387   -0.8008 C   0  0  0  0  0  0  0  0  0  0  0  0
    2.8977   -0.2772    0.7602 C   0  0  0  0  0  0  0  0  0  0  0  0
    1.7600   -0.9311    1.1937 C   0  0  0  0  0  0  0  0  0  0  0  0
    0.5344   -0.5335    0.7288 O   0  0  0  0  0  0  0  0  0  0  0  0
   -0.6849   -1.1072    1.0858 C   0  0  0  0  0  0  0  0  0  0  0  0
   -1.7900   -0.4011    0.3724 C   0  0  0  0  0  0  0  0  0  0  0  0
   -2.4190    0.6964    0.9210 C   0  0  0  0  0  0  0  0  0  0  0  0
   -3.4451    1.3607    0.2692 C   0  0  0  0  0  0  0  0  0  0  0  0
   -3.8810    0.9433   -0.9688 C   0  0  0  0  0  0  0  0  0  0  0  0
   -4.9770    1.6081   -1.7212 C   0  0  0  0  0  0  0  0  0  0  0  0
   -6.2108    0.9917   -1.3880 N   0  0  0  0  0  0  0  0  0  0  0  0
   -6.2913   -0.4017   -1.6884 C   0  0  0  0  0  0  0  0  0  0  0  0
   -7.7016   -0.7363   -1.1912 C   0  0  0  0  0  0  0  0  0  0  0  0
   -7.7748    0.0911    0.0741 C   0  0  0  0  0  0  0  0  0  0  0  0
   -6.7155    1.1922   -0.0792 C   0  0  2  0  0  0  0  0  0  0  0  0
   -7.3969    2.5011    0.1503 C   0  0  0  0  0  0  0  0  0  0  0  0
   -8.5004    2.6811   -0.6881 O   0  0  0  0  0  0  0  0  0  0  0  0
   -3.2398   -0.1675   -1.5171 C   0  0  0  0  0  0  0  0  0  0  0  0
   -2.2183   -0.8282   -0.8675 C   0  0  0  0  0  0  0  0  0  0  0  0
    1.8832   -1.9714    2.0863 C   0  0  0  0  0  0  0  0  0  0  0  0
    4.1185   -4.1130    3.2449 H   0  0  0  0  0  0  0  0  0  0  0  0
    2.3009   -4.1598    3.3923 H   0  0  0  0  0  0  0  0  0  0  0  0
    3.2908   -3.1739    4.5867 H   0  0  0  0  0  0  0  0  0  0  0  0
    5.2177   -1.9990    2.4599 H   0  0  0  0  0  0  0  0  0  0  0  0
    6.1141    0.1175    1.4845 H   0  0  0  0  0  0  0  0  0  0  0  0
    5.0471    1.1080    0.4720 H   0  0  0  0  0  0  0  0  0  0  0  0
    6.1723    1.5708   -2.4634 H   0  0  0  0  0  0  0  0  0  0  0  0
    8.1726    2.9281   -3.1776 H   0  0  0  0  0  0  0  0  0  0  0  0
   10.3913    2.3716   -2.3691 H   0  0  0  0  0  0  0  0  0  0  0  0
   10.6867    0.4973   -0.8638 H   0  0  0  0  0  0  0  0  0  0  0  0
    8.7471   -0.8738   -0.1285 H   0  0  0  0  0  0  0  0  0  0  0  0
    2.8035    0.5476    0.0528 H   0  0  0  0  0  0  0  0  0  0  0  0
   -0.8574   -1.1518    2.1785 H   0  0  0  0  0  0  0  0  0  0  0  0
   -0.6542   -2.1791    0.7418 H   0  0  0  0  0  0  0  0  0  0  0  0
   -2.0708    1.0244    1.9024 H   0  0  0  0  0  0  0  0  0  0  0  0
   -3.9092    2.2206    0.7379 H   0  0  0  0  0  0  0  0  0  0  0  0
   -4.7618    1.4593   -2.8121 H   0  0  0  0  0  0  0  0  0  0  0  0
   -4.9128    2.6747   -1.4982 H   0  0  0  0  0  0  0  0  0  0  0  0
   -6.2555   -0.6282   -2.7564 H   0  0  0  0  0  0  0  0  0  0  0  0
   -5.5328   -0.9777   -1.1224 H   0  0  0  0  0  0  0  0  0  0  0  0
   -8.4617   -0.4861   -1.9297 H   0  0  0  0  0  0  0  0  0  0  0  0
   -7.6784   -1.8344   -0.9475 H   0  0  0  0  0  0  0  0  0  0  0  0
   -8.8103    0.5421    0.0746 H   0  0  0  0  0  0  0  0  0  0  0  0
   -7.6058   -0.4976    0.9785 H   0  0  0  0  0  0  0  0  0  0  0  0
   -5.9848    1.0401    0.7317 H   0  0  0  0  0  0  0  0  0  0  0  0
   -7.8293    2.4601    1.1940 H   0  0  0  0  0  0  0  0  0  0  0  0
   -6.7139    3.3647    0.1570 H   0  0  0  0  0  0  0  0  0  0  0  0
   -8.4866    3.5680   -1.1074 H   0  0  0  0  0  0  0  0  0  0  0  0
   -3.5721   -0.5043   -2.4866 H   0  0  0  0  0  0  0  0  0  0  0  0
   -1.7213   -1.6953   -1.3008 H   0  0  0  0  0  0  0  0  0  0  0  0
    1.0127   -2.4955    2.4381 H   0  0  0  0  0  0  0  0  0  0  0  0
  1  2  1  0
  2  3  2  0
  3  4  1  0
  4  5  1  0
  5  6  1  0
  6  7  2  0
  6  8  2  0
  6  9  1  0
  9 10  2  0
 10 11  1  0
 11 12  2  0
 12 13  1  0
 13 14  2  0
  4 15  2  0
 15 16  1  0
 16 17  1  0
 17 18  1  0
 18 19  1  0
 19 20  2  0
 20 21  1  0
 21 22  2  0
 22 23  1  0
 23 24  1  0
 24 25  1  0
 25 26  1  0
 26 27  1  0
 27 28  1  0
 28 29  1  0
 29 30  1  0
 22 31  1  0
 31 32  2  0
 16 33  2  0
 33  2  1  0
 14  9  1  0
 32 19  1  0
 28 24  1  0
  1 34  1  0
  1 35  1  0
  1 36  1  0
  3 37  1  0
  5 38  1  0
  5 39  1  0
 10 40  1  0
 11 41  1  0
 12 42  1  0
 13 43  1  0
 14 44  1  0
 15 45  1  0
 18 46  1  0
 18 47  1  0
 20 48  1  0
 21 49  1  0
 23 50  1  0
 23 51  1  0
 25 52  1  0
 25 53  1  0
 26 54  1  0
 26 55  1  0
 27 56  1  0
 27 57  1  0
 28 58  1  1
 29 59  1  0
 29 60  1  0
 30 61  1  0
 31 62  1  0
 32 63  1  0
 33 64  1  0
M  END
$$$$
