
     RDKit          3D

 40 42  0  0  0  0  0  0  0  0999 V2000
    1.9040   -1.1793    0.4411 O   0  0  0  0  0  0  0  0  0  0  0  0
    1.8233   -0.0707   -0.1899 C   0  0  0  0  0  0  0  0  0  0  0  0
    2.9839    0.3462   -0.8857 N   0  0  0  0  0  0  0  0  0  0  0  0
    4.1618   -0.4575   -0.8593 C   0  0  0  0  0  0  0  0  0  0  0  0
    4.4250   -1.4443   -1.7843 C   0  0  0  0  0  0  0  0  0  0  0  0
    3.2967   -1.7697   -3.0723 Cl  0  0  0  0  0  0  0  0  0  0  0  0
    5.5839   -2.1867   -1.7027 C   0  0  0  0  0  0  0  0  0  0  0  0
    6.4914   -1.9653   -0.7132 N   0  0  0  0  0  0  0  0  0  0  0  0
    6.2622   -1.0099    0.2031 C   0  0  0  0  0  0  0  0  0  0  0  0
    5.1044   -0.2649    0.1254 C   0  0  0  0  0  0  0  0  0  0  0  0
    4.8461    0.9752    1.3463 Cl  0  0  0  0  0  0  0  0  0  0  0  0
    0.5895    0.6836   -0.1653 C   0  0  0  0  0  0  0  0  0  0  0  0
    0.4584    1.8711   -0.8241 C   0  0  0  0  0  0  0  0  0  0  0  0
   -0.7306    2.6018   -0.8026 C   0  0  0  0  0  0  0  0  0  0  0  0
   -1.8031    2.1210   -0.1025 C   0  0  0  0  0  0  0  0  0  0  0  0
   -2.9802    2.8106   -0.0611 O   0  0  0  0  0  0  0  0  0  0  0  0
   -3.3147    4.0169   -0.6526 C   0  0  0  0  0  0  0  0  0  0  0  0
   -3.8098    4.9497    0.2398 F   0  0  0  0  0  0  0  0  0  0  0  0
   -4.3292    3.7408   -1.5834 F   0  0  0  0  0  0  0  0  0  0  0  0
   -1.7143    0.8985    0.5933 C   0  0  0  0  0  0  0  0  0  0  0  0
   -2.8232    0.4847    1.2660 O   0  0  0  0  0  0  0  0  0  0  0  0
   -3.0742   -0.6366    2.0201 C   0  0  0  0  0  0  0  0  0  0  0  0
   -2.9663   -1.9581    1.3179 C   0  0  0  0  0  0  0  0  0  0  0  0
   -3.7911   -2.3154    0.1510 C   0  0  0  0  0  0  0  0  0  0  0  0
   -4.1455   -2.8938    1.4557 C   0  0  0  0  0  0  0  0  0  0  0  0
   -0.5069    0.2182    0.5349 C   0  0  0  0  0  0  0  0  0  0  0  0
    2.9826    1.2373   -1.4174 H   0  0  0  0  0  0  0  0  0  0  0  0
    5.8380   -2.9691   -2.3994 H   0  0  0  0  0  0  0  0  0  0  0  0
    7.0026   -0.8377    1.0006 H   0  0  0  0  0  0  0  0  0  0  0  0
    1.2719    2.2983   -1.3925 H   0  0  0  0  0  0  0  0  0  0  0  0
   -0.7473    3.5460   -1.3600 H   0  0  0  0  0  0  0  0  0  0  0  0
   -2.5177    4.4997   -1.2478 H   0  0  0  0  0  0  0  0  0  0  0  0
   -4.1282   -0.5349    2.4251 H   0  0  0  0  0  0  0  0  0  0  0  0
   -2.4546   -0.7145    2.9455 H   0  0  0  0  0  0  0  0  0  0  0  0
   -1.9727   -2.4625    1.4365 H   0  0  0  0  0  0  0  0  0  0  0  0
   -3.3400   -2.9478   -0.6485 H   0  0  0  0  0  0  0  0  0  0  0  0
   -4.3989   -1.4816   -0.2757 H   0  0  0  0  0  0  0  0  0  0  0  0
   -3.9691   -3.9788    1.6137 H   0  0  0  0  0  0  0  0  0  0  0  0
   -5.0598   -2.4999    1.9440 H   0  0  0  0  0  0  0  0  0  0  0  0
   -0.4483   -0.7208    1.0801 H   0  0  0  0  0  0  0  0  0  0  0  0
  1  2  2  0
  2  3  1  0
  3  4  1  0
  4  5  2  0
  5  6  1  0
  5  7  1  0
  7  8  2  0
  8  9  1  0
  9 10  2  0
 10 11  1  0
  2 12  1  0
 12 13  2  0
 13 14  1  0
 14 15  2  0
 15 16  1  0
 16 17  1  0
 17 18  1  0
 17 19  1  0
 15 20  1  0
 20 21  1  0
 21 22  1  0
 22 23  1  0
 23 24  1  0
 24 25  1  0
 20 26  2  0
 10  4  1  0
 26 12  1  0
 25 23  1  0
  3 27  1  0
  7 28  1  0
  9 29  1  0
 13 30  1  0
 14 31  1  0
 17 32  1  0
 22 33  1  0
 22 34  1  0
 23 35  1  0
 24 36  1  0
 24 37  1  0
 25 38  1  0
 25 39  1  0
 26 40  1  0
M  END
$$$$
