
     RDKit          3D

 46 49  0  0  0  0  0  0  0  0999 V2000
   -1.1066   -4.0964    0.2998 C   0  0  0  0  0  0  0  0  0  0  0  0
   -0.8344   -2.6382    0.2748 C   0  0  0  0  0  0  0  0  0  0  0  0
    0.4246   -2.1853    0.6002 C   0  0  0  0  0  0  0  0  0  0  0  0
    0.6892   -0.8329    0.5806 C   0  0  0  0  0  0  0  0  0  0  0  0
    1.9893   -0.3502    0.9155 N   0  0  0  0  0  0  0  0  0  0  0  0
    2.9985   -0.1786   -0.0696 C   0  0  0  0  0  0  0  0  0  0  0  0
    2.7930   -0.4414   -1.2663 O   0  0  0  0  0  0  0  0  0  0  0  0
    4.3134    0.3224    0.3483 C   0  0  0  0  0  0  0  0  0  0  0  0
    5.3357    0.5123   -0.5532 C   0  0  0  0  0  0  0  0  0  0  0  0
    6.5656    0.9841   -0.1428 C   0  0  0  0  0  0  0  0  0  0  0  0
    6.8090    1.2799    1.1821 C   0  0  0  0  0  0  0  0  0  0  0  0
    8.0979    1.7761    1.6230 C   0  0  0  0  0  0  0  0  0  0  0  0
    9.1245    2.1809    1.9877 N   0  0  0  0  0  0  0  0  0  0  0  0
    5.7617    1.0786    2.0643 C   0  0  0  0  0  0  0  0  0  0  0  0
    4.5692    0.6164    1.6365 N   0  0  0  0  0  0  0  0  0  0  0  0
   -0.2837    0.0879    0.2402 C   0  0  0  0  0  0  0  0  0  0  0  0
   -1.5348   -0.3501   -0.0839 C   0  0  0  0  0  0  0  0  0  0  0  0
   -2.6140    0.5856   -0.4537 C   0  0  1  0  0  0  0  0  0  0  0  0
   -2.1751    2.0137   -0.5405 C   0  0  0  0  0  0  0  0  0  0  0  0
   -1.1850    2.1028   -1.5000 F   0  0  0  0  0  0  0  0  0  0  0  0
   -1.7662    2.5717    0.6343 F   0  0  0  0  0  0  0  0  0  0  0  0
   -3.0110    0.2017   -1.8172 N   0  0  0  0  0  0  0  0  0  0  0  0
   -4.1893    0.5389   -2.2182 C   0  0  0  0  0  0  0  0  0  0  0  0
   -4.6547    0.2031   -3.5351 N   0  0  0  0  0  0  0  0  0  0  0  0
   -4.9761    1.2399   -1.3107 O   0  0  0  0  0  0  0  0  0  0  0  0
   -5.0749    0.8526    0.0327 C   0  0  2  0  0  0  0  0  0  0  0  0
   -4.4198    1.5536    1.1320 C   0  0  0  0  0  0  0  0  0  0  0  0
   -3.7550    0.3835    0.5149 C   0  0  2  0  0  0  0  0  0  0  0  0
   -1.8070   -1.7173   -0.0655 C   0  0  0  0  0  0  0  0  0  0  0  0
   -3.0230   -2.1680   -0.3812 F   0  0  0  0  0  0  0  0  0  0  0  0
   -0.5876   -4.5784   -0.5793 H   0  0  0  0  0  0  0  0  0  0  0  0
   -0.7876   -4.5662    1.2487 H   0  0  0  0  0  0  0  0  0  0  0  0
   -2.1893   -4.2303    0.0991 H   0  0  0  0  0  0  0  0  0  0  0  0
    1.2430   -2.8487    0.8787 H   0  0  0  0  0  0  0  0  0  0  0  0
    2.2272   -0.1115    1.8985 H   0  0  0  0  0  0  0  0  0  0  0  0
    5.1295    0.2733   -1.6044 H   0  0  0  0  0  0  0  0  0  0  0  0
    7.3487    1.1250   -0.8612 H   0  0  0  0  0  0  0  0  0  0  0  0
    5.9528    1.3126    3.1148 H   0  0  0  0  0  0  0  0  0  0  0  0
   -0.0656    1.1289    0.2287 H   0  0  0  0  0  0  0  0  0  0  0  0
   -3.0231    2.6196   -0.9388 H   0  0  0  0  0  0  0  0  0  0  0  0
   -5.2026   -0.6744   -3.6445 H   0  0  0  0  0  0  0  0  0  0  0  0
   -4.4650    0.7935   -4.3546 H   0  0  0  0  0  0  0  0  0  0  0  0
   -5.9920    0.2232    0.2299 H   0  0  0  0  0  0  0  0  0  0  0  0
   -4.0524    2.5778    0.9296 H   0  0  0  0  0  0  0  0  0  0  0  0
   -4.8302    1.3995    2.1503 H   0  0  0  0  0  0  0  0  0  0  0  0
   -3.7665   -0.5714    1.0752 H   0  0  0  0  0  0  0  0  0  0  0  0
  1  2  1  0
  2  3  2  0
  3  4  1  0
  4  5  1  0
  5  6  1  0
  6  7  2  0
  6  8  1  0
  8  9  2  0
  9 10  1  0
 10 11  2  0
 11 12  1  0
 12 13  3  0
 11 14  1  0
 14 15  2  0
  4 16  2  0
 16 17  1  0
 17 18  1  0
 18 19  1  6
 19 20  1  0
 19 21  1  0
 18 22  1  0
 22 23  2  0
 23 24  1  0
 23 25  1  0
 25 26  1  0
 26 27  1  0
 27 28  1  0
 17 29  2  0
 29 30  1  0
 29  2  1  0
 15  8  1  0
 28 18  1  0
 28 26  1  0
  1 31  1  0
  1 32  1  0
  1 33  1  0
  3 34  1  0
  5 35  1  0
  9 36  1  0
 10 37  1  0
 14 38  1  0
 16 39  1  0
 19 40  1  0
 24 41  1  0
 24 42  1  0
 26 43  1  1
 27 44  1  0
 27 45  1  0
 28 46  1  1
M  END
$$$$
