
     RDKit          3D

 67 71  0  0  0  0  0  0  0  0999 V2000
    5.4503    5.7266    0.5899 C   0  0  0  0  0  0  0  0  0  0  0  0
    4.6382    4.5109    0.6345 N   0  0  0  0  0  0  0  0  0  0  0  0
    3.4571    4.3717   -0.1252 C   0  0  0  0  0  0  0  0  0  0  0  0
    3.0996    5.3403   -0.8671 O   0  0  0  0  0  0  0  0  0  0  0  0
    2.6137    3.1942   -0.1218 C   0  0  0  0  0  0  0  0  0  0  0  0
    2.8922    2.0792    0.6369 C   0  0  0  0  0  0  0  0  0  0  0  0
    2.0795    0.9621    0.6321 C   0  0  0  0  0  0  0  0  0  0  0  0
    0.9372    0.9124   -0.1427 C   0  0  0  0  0  0  0  0  0  0  0  0
    0.0587   -0.2969   -0.1442 C   0  0  0  0  0  0  0  0  0  0  0  0
    0.5094   -1.1618    0.9746 C   0  0  0  0  0  0  0  0  0  0  0  0
    0.2442   -0.9117    2.2746 N   0  0  0  0  0  0  0  0  0  0  0  0
    0.7777   -1.8665    2.9777 N   0  0  0  0  0  0  0  0  0  0  0  0
    1.3713   -2.7114    2.1616 N   0  0  0  0  0  0  0  0  0  0  0  0
    1.2125   -2.2849    0.9062 N   0  0  0  0  0  0  0  0  0  0  0  0
    1.6976   -2.9068   -0.3035 C   0  0  0  0  0  0  0  0  0  0  0  0
    3.0454   -2.4199   -0.6359 C   0  0  0  0  0  0  0  0  0  0  0  0
    3.2921   -1.3742   -1.4834 C   0  0  0  0  0  0  0  0  0  0  0  0
    4.5895   -0.9405   -1.7724 C   0  0  0  0  0  0  0  0  0  0  0  0
    5.6404   -1.5976   -1.1770 C   0  0  0  0  0  0  0  0  0  0  0  0
    5.3915   -2.6468   -0.3268 C   0  0  0  0  0  0  0  0  0  0  0  0
    4.1174   -3.0825   -0.0349 C   0  0  0  0  0  0  0  0  0  0  0  0
   -1.3149   -0.0266   -0.0251 N   0  0  0  0  0  0  0  0  0  0  0  0
   -1.7920    0.7549    1.0369 C   0  0  0  0  0  0  0  0  0  0  0  0
   -2.8079   -0.0160    1.8436 C   0  0  0  0  0  0  0  0  0  0  0  0
   -3.2086   -1.2692    1.0512 C   0  0  0  0  0  0  0  0  0  0  0  0
   -4.2105   -0.7959    0.1221 N   0  0  0  0  0  0  0  0  0  0  0  0
   -5.1033   -1.8024   -0.3418 C   0  0  0  0  0  0  0  0  0  0  0  0
   -6.1822   -1.1851   -1.2047 C   0  0  0  0  0  0  0  0  0  0  0  0
   -7.0367   -1.1289    0.0725 C   0  0  0  0  0  0  0  0  0  0  0  0
   -6.1814   -2.2671    0.5793 C   0  0  0  0  0  0  0  0  0  0  0  0
   -3.5927   -0.1155   -0.9935 C   0  0  0  0  0  0  0  0  0  0  0  0
   -2.1295   -0.3167   -1.1254 C   0  0  0  0  0  0  0  0  0  0  0  0
    0.6349    2.0138   -0.9111 C   0  0  0  0  0  0  0  0  0  0  0  0
    1.4663    3.1224   -0.8891 C   0  0  0  0  0  0  0  0  0  0  0  0
    5.1686    6.4352    1.3732 H   0  0  0  0  0  0  0  0  0  0  0  0
    5.3929    6.2233   -0.3995 H   0  0  0  0  0  0  0  0  0  0  0  0
    6.4981    5.4081    0.7628 H   0  0  0  0  0  0  0  0  0  0  0  0
    4.9344    3.7175    1.2444 H   0  0  0  0  0  0  0  0  0  0  0  0
    3.7904    2.0693    1.2709 H   0  0  0  0  0  0  0  0  0  0  0  0
    2.3396    0.0995    1.2505 H   0  0  0  0  0  0  0  0  0  0  0  0
    0.2253   -0.8074   -1.1222 H   0  0  0  0  0  0  0  0  0  0  0  0
    0.9921   -2.6755   -1.1283 H   0  0  0  0  0  0  0  0  0  0  0  0
    1.6871   -4.0206   -0.2335 H   0  0  0  0  0  0  0  0  0  0  0  0
    2.4647   -0.8697   -1.9430 H   0  0  0  0  0  0  0  0  0  0  0  0
    4.7150   -0.1245   -2.4369 H   0  0  0  0  0  0  0  0  0  0  0  0
    6.6762   -1.2978   -1.3693 H   0  0  0  0  0  0  0  0  0  0  0  0
    6.2126   -3.1804    0.1550 H   0  0  0  0  0  0  0  0  0  0  0  0
    3.9316   -3.9116    0.6374 H   0  0  0  0  0  0  0  0  0  0  0  0
   -2.2281    1.7415    0.7234 H   0  0  0  0  0  0  0  0  0  0  0  0
   -0.9818    1.0465    1.7469 H   0  0  0  0  0  0  0  0  0  0  0  0
   -3.7150    0.6227    2.0033 H   0  0  0  0  0  0  0  0  0  0  0  0
   -2.4006   -0.3364    2.8032 H   0  0  0  0  0  0  0  0  0  0  0  0
   -3.6098   -2.0063    1.7382 H   0  0  0  0  0  0  0  0  0  0  0  0
   -2.3150   -1.6288    0.5333 H   0  0  0  0  0  0  0  0  0  0  0  0
   -4.6023   -2.6107   -0.9330 H   0  0  0  0  0  0  0  0  0  0  0  0
   -5.9782   -0.1804   -1.6113 H   0  0  0  0  0  0  0  0  0  0  0  0
   -6.6405   -1.8720   -1.9427 H   0  0  0  0  0  0  0  0  0  0  0  0
   -8.0958   -1.3387   -0.0794 H   0  0  0  0  0  0  0  0  0  0  0  0
   -6.7867   -0.1963    0.6225 H   0  0  0  0  0  0  0  0  0  0  0  0
   -6.5870   -3.2608    0.2368 H   0  0  0  0  0  0  0  0  0  0  0  0
   -5.9672   -2.2567    1.6584 H   0  0  0  0  0  0  0  0  0  0  0  0
   -4.0412   -0.5091   -1.9586 H   0  0  0  0  0  0  0  0  0  0  0  0
   -3.8994    0.9529   -0.9645 H   0  0  0  0  0  0  0  0  0  0  0  0
   -1.9789   -1.3967   -1.4468 H   0  0  0  0  0  0  0  0  0  0  0  0
   -1.8181    0.3014   -2.0241 H   0  0  0  0  0  0  0  0  0  0  0  0
   -0.2655    2.0125   -1.5402 H   0  0  0  0  0  0  0  0  0  0  0  0
    1.2250    3.9863   -1.4947 H   0  0  0  0  0  0  0  0  0  0  0  0
  1  2  1  0
  2  3  1  0
  3  4  2  0
  3  5  1  0
  5  6  2  0
  6  7  1  0
  7  8  2  0
  8  9  1  0
  9 10  1  0
 10 11  2  0
 11 12  1  0
 12 13  2  0
 13 14  1  0
 14 15  1  0
 15 16  1  0
 16 17  2  0
 17 18  1  0
 18 19  2  0
 19 20  1  0
 20 21  2  0
  9 22  1  0
 22 23  1  0
 23 24  1  0
 24 25  1  0
 25 26  1  0
 26 27  1  0
 27 28  1  0
 28 29  1  0
 29 30  1  0
 26 31  1  0
 31 32  1  0
  8 33  1  0
 33 34  2  0
 34  5  1  0
 14 10  1  0
 21 16  1  0
 32 22  1  0
 30 27  1  0
  1 35  1  0
  1 36  1  0
  1 37  1  0
  2 38  1  0
  6 39  1  0
  7 40  1  0
  9 41  1  0
 15 42  1  0
 15 43  1  0
 17 44  1  0
 18 45  1  0
 19 46  1  0
 20 47  1  0
 21 48  1  0
 23 49  1  0
 23 50  1  0
 24 51  1  0
 24 52  1  0
 25 53  1  0
 25 54  1  0
 27 55  1  0
 28 56  1  0
 28 57  1  0
 29 58  1  0
 29 59  1  0
 30 60  1  0
 30 61  1  0
 31 62  1  0
 31 63  1  0
 32 64  1  0
 32 65  1  0
 33 66  1  0
 34 67  1  0
M  END
$$$$
