
     RDKit          3D

 63 67  0  0  0  0  0  0  0  0999 V2000
   -5.1173   -0.6688   -1.8458 O   0  0  0  0  0  0  0  0  0  0  0  0
   -4.3019   -0.0848   -0.8487 C   0  0  0  0  0  0  0  0  0  0  0  0
   -3.0243   -0.7889   -0.7373 C   0  0  0  0  0  0  0  0  0  0  0  0
   -3.2578   -1.6592   -1.6375 O   0  0  0  0  0  0  0  0  0  0  0  0
   -1.8349   -0.8282   -0.0914 O   0  0  0  0  0  0  0  0  0  0  0  0
   -0.8293   -1.7722   -0.3464 C   0  0  1  0  0  0  0  0  0  0  0  0
    0.3977   -1.0410   -0.8904 C   0  0  0  0  0  0  0  0  0  0  0  0
    1.5980   -1.7844   -0.5678 N   0  0  0  0  0  4  0  0  0  0  0  0
    2.6822   -1.5517   -1.4503 C   0  0  0  0  0  0  0  0  0  0  0  0
    2.9069   -0.1784   -1.9582 C   0  0  0  0  0  0  0  0  0  0  0  0
    3.2071    0.8792   -0.9517 C   0  0  0  0  0  0  0  0  0  0  0  0
    4.3773    0.6110   -0.1966 O   0  0  0  0  0  0  0  0  0  0  0  0
    4.8146    1.5001    0.7999 C   0  0  0  0  0  0  0  0  0  0  0  0
    5.9483    1.2559    1.5427 C   0  0  0  0  0  0  0  0  0  0  0  0
    6.3884    2.1138    2.5186 C   0  0  0  0  0  0  0  0  0  0  0  0
    5.7023    3.2714    2.7983 C   0  0  0  0  0  0  0  0  0  0  0  0
    4.5713    3.5425    2.0774 C   0  0  0  0  0  0  0  0  0  0  0  0
    4.1348    2.6677    1.0919 C   0  0  0  0  0  0  0  0  0  0  0  0
    1.2414   -3.2111   -0.7864 C   0  0  0  0  0  0  0  0  0  0  0  0
    0.3875   -3.7484    0.3054 C   0  0  0  0  0  0  0  0  0  0  0  0
   -0.4033   -2.5491    0.8541 C   0  0  0  0  0  0  0  0  0  0  0  0
    0.5866   -1.7175    1.6312 C   0  0  0  0  0  0  0  0  0  0  0  0
    1.8808   -1.6659    0.8317 C   0  0  0  0  0  0  0  0  0  0  0  0
   -5.0601   -0.0927    0.4344 C   0  0  0  0  0  0  0  0  0  0  0  0
   -6.2962    0.3088    0.8396 C   0  0  0  0  0  0  0  0  0  0  0  0
   -6.6517    0.1326    2.1475 C   0  0  0  0  0  0  0  0  0  0  0  0
   -5.7394   -0.4571    3.0449 C   0  0  0  0  0  0  0  0  0  0  0  0
   -4.3066   -0.7898    2.0327 S   0  0  0  0  0  0  0  0  0  0  0  0
   -4.0617    1.3307   -1.2051 C   0  0  0  0  0  0  0  0  0  0  0  0
   -4.8690    2.3519   -1.5793 C   0  0  0  0  0  0  0  0  0  0  0  0
   -4.3479    3.5888   -1.8499 C   0  0  0  0  0  0  0  0  0  0  0  0
   -2.9845    3.7884   -1.7378 C   0  0  0  0  0  0  0  0  0  0  0  0
   -2.3657    2.0861   -1.2027 S   0  0  0  0  0  0  0  0  0  0  0  0
   -4.6011   -0.7589   -2.6817 H   0  0  0  0  0  0  0  0  0  0  0  0
   -1.1171   -2.4929   -1.1385 H   0  0  0  0  0  0  0  0  0  0  0  0
    0.3613   -0.0279   -0.4864 H   0  0  0  0  0  0  0  0  0  0  0  0
    0.3579   -0.9421   -2.0111 H   0  0  0  0  0  0  0  0  0  0  0  0
    3.6191   -1.8129   -0.8573 H   0  0  0  0  0  0  0  0  0  0  0  0
    2.6900   -2.3191   -2.2590 H   0  0  0  0  0  0  0  0  0  0  0  0
    3.8203   -0.2367   -2.6251 H   0  0  0  0  0  0  0  0  0  0  0  0
    2.0919    0.1989   -2.6139 H   0  0  0  0  0  0  0  0  0  0  0  0
    3.4906    1.8025   -1.5577 H   0  0  0  0  0  0  0  0  0  0  0  0
    2.3591    1.1974   -0.3488 H   0  0  0  0  0  0  0  0  0  0  0  0
    6.5213    0.3466    1.3500 H   0  0  0  0  0  0  0  0  0  0  0  0
    7.2891    1.9123    3.1037 H   0  0  0  0  0  0  0  0  0  0  0  0
    5.9939    3.9873    3.5507 H   0  0  0  0  0  0  0  0  0  0  0  0
    3.9854    4.4508    2.2578 H   0  0  0  0  0  0  0  0  0  0  0  0
    3.2422    2.8327    0.4863 H   0  0  0  0  0  0  0  0  0  0  0  0
    0.6807   -3.2299   -1.7407 H   0  0  0  0  0  0  0  0  0  0  0  0
    2.1899   -3.8005   -0.9287 H   0  0  0  0  0  0  0  0  0  0  0  0
   -0.2972   -4.5443   -0.0144 H   0  0  0  0  0  0  0  0  0  0  0  0
    1.0527   -4.0606    1.1363 H   0  0  0  0  0  0  0  0  0  0  0  0
   -1.2095   -2.9869    1.4472 H   0  0  0  0  0  0  0  0  0  0  0  0
    0.7612   -2.2553    2.5823 H   0  0  0  0  0  0  0  0  0  0  0  0
    0.2183   -0.7091    1.8443 H   0  0  0  0  0  0  0  0  0  0  0  0
    2.3460   -0.6975    1.0609 H   0  0  0  0  0  0  0  0  0  0  0  0
    2.5717   -2.4792    1.1992 H   0  0  0  0  0  0  0  0  0  0  0  0
   -6.8946    0.7432    0.0575 H   0  0  0  0  0  0  0  0  0  0  0  0
   -7.6506    0.4545    2.4880 H   0  0  0  0  0  0  0  0  0  0  0  0
   -5.9478   -0.6259    4.0813 H   0  0  0  0  0  0  0  0  0  0  0  0
   -5.9171    2.1049   -1.6409 H   0  0  0  0  0  0  0  0  0  0  0  0
   -4.9639    4.4266   -2.1517 H   0  0  0  0  0  0  0  0  0  0  0  0
   -2.4173    4.6824   -1.9096 H   0  0  0  0  0  0  0  0  0  0  0  0
  1  2  1  0
  2  3  1  0
  3  4  2  0
  3  5  1  0
  5  6  1  0
  6  7  1  0
  7  8  1  0
  8  9  1  0
  9 10  1  0
 10 11  1  0
 11 12  1  0
 12 13  1  0
 13 14  2  0
 14 15  1  0
 15 16  2  0
 16 17  1  0
 17 18  2  0
  8 19  1  0
 19 20  1  0
 20 21  1  0
 21 22  1  0
 22 23  1  0
  2 24  1  0
 24 25  2  0
 25 26  1  0
 26 27  2  0
 27 28  1  0
  2 29  1  0
 29 30  2  0
 30 31  1  0
 31 32  2  0
 32 33  1  0
 21  6  1  0
 28 24  1  0
 33 29  1  0
 23  8  1  0
 18 13  1  0
  1 34  1  0
  6 35  1  6
  7 36  1  0
  7 37  1  0
  9 38  1  0
  9 39  1  0
 10 40  1  0
 10 41  1  0
 11 42  1  0
 11 43  1  0
 14 44  1  0
 15 45  1  0
 16 46  1  0
 17 47  1  0
 18 48  1  0
 19 49  1  0
 19 50  1  0
 20 51  1  0
 20 52  1  0
 21 53  1  0
 22 54  1  0
 22 55  1  0
 23 56  1  0
 23 57  1  0
 25 58  1  0
 26 59  1  0
 27 60  1  0
 30 61  1  0
 31 62  1  0
 32 63  1  0
M  CHG  1   8   1
M  END
$$$$
