
     RDKit          3D

 37 39  0  0  0  0  0  0  0  0999 V2000
    6.1065    1.0166    0.3076 O   0  0  0  0  0  0  0  0  0  0  0  0
    4.7249    0.7970    0.1939 C   0  0  0  0  0  0  0  0  0  0  0  0
    4.1821    0.4114    1.3982 C   0  0  0  0  0  0  0  0  0  0  0  0
    2.8361    0.1408    1.5244 C   0  0  0  0  0  0  0  0  0  0  0  0
    2.1066   -0.2553    2.6339 O   0  0  0  0  0  0  0  0  0  0  0  0
    2.0664    0.2801    0.3696 C   0  0  0  0  0  0  0  0  0  0  0  0
    2.5984    0.6648   -0.8390 C   0  0  0  0  0  0  0  0  0  0  0  0
    3.9433    0.9278   -0.9345 C   0  0  0  0  0  0  0  0  0  0  0  0
    0.6230    0.0325    0.3303 C   0  0  0  0  0  0  0  0  0  0  0  0
   -0.3083    0.5604    1.1144 N   0  0  0  0  0  0  0  0  0  0  0  0
   -1.5346    0.1032    0.7900 N   0  0  0  0  0  0  0  0  0  0  0  0
   -2.6348    0.5980    1.5429 C   0  0  0  0  0  0  0  0  0  0  0  0
   -3.0830    1.8817    0.9061 C   0  0  0  0  0  0  0  0  0  0  0  0
   -2.9724    2.8157   -0.0308 C   0  0  0  0  0  0  0  0  0  0  0  0
   -1.3837   -0.7454   -0.2353 C   0  0  0  0  0  0  0  0  0  0  0  0
   -0.0381   -0.7951   -0.5281 C   0  0  0  0  0  0  0  0  0  0  0  0
    0.3976   -1.6111   -1.5437 C   0  0  0  0  0  0  0  0  0  0  0  0
   -0.4977   -2.3707   -2.2602 C   0  0  0  0  0  0  0  0  0  0  0  0
   -1.8237   -2.2600   -1.8998 C   0  0  0  0  0  0  0  0  0  0  0  0
   -2.3716   -1.4560   -0.8793 C   0  0  0  0  0  0  0  0  0  0  0  0
   -3.8055   -1.4199   -0.6081 C   0  0  0  0  0  0  0  0  0  0  0  0
   -4.4756   -0.2636   -0.7806 F   0  0  0  0  0  0  0  0  0  0  0  0
   -4.3810   -2.1542   -1.6794 F   0  0  0  0  0  0  0  0  0  0  0  0
   -4.2186   -2.2285    0.4422 F   0  0  0  0  0  0  0  0  0  0  0  0
    6.4932    1.9091   -0.0231 H   0  0  0  0  0  0  0  0  0  0  0  0
    4.7228    0.2811    2.3450 H   0  0  0  0  0  0  0  0  0  0  0  0
    2.4555   -1.0354    3.1727 H   0  0  0  0  0  0  0  0  0  0  0  0
    2.0194    0.7788   -1.7450 H   0  0  0  0  0  0  0  0  0  0  0  0
    4.4955    1.2373   -1.8149 H   0  0  0  0  0  0  0  0  0  0  0  0
   -2.3541    0.9640    2.5561 H   0  0  0  0  0  0  0  0  0  0  0  0
   -3.5425   -0.0119    1.5747 H   0  0  0  0  0  0  0  0  0  0  0  0
   -3.9223    2.4366    1.3302 H   0  0  0  0  0  0  0  0  0  0  0  0
   -3.0066    3.6444   -0.7184 H   0  0  0  0  0  0  0  0  0  0  0  0
   -2.1778    2.6530   -0.7502 H   0  0  0  0  0  0  0  0  0  0  0  0
    1.4547   -1.6363   -1.7589 H   0  0  0  0  0  0  0  0  0  0  0  0
   -0.1858   -3.0097   -3.0499 H   0  0  0  0  0  0  0  0  0  0  0  0
   -2.5084   -2.8812   -2.4936 H   0  0  0  0  0  0  0  0  0  0  0  0
  1  2  1  0
  2  3  2  0
  3  4  1  0
  4  5  1  0
  4  6  2  0
  6  7  1  0
  7  8  2  0
  6  9  1  0
  9 10  2  0
 10 11  1  0
 11 12  1  0
 12 13  1  0
 13 14  2  0
 11 15  1  0
 15 16  2  0
 16 17  1  0
 17 18  2  0
 18 19  1  0
 19 20  2  0
 20 21  1  0
 21 22  1  0
 21 23  1  0
 21 24  1  0
  8  2  1  0
 16  9  1  0
 20 15  1  0
  1 25  1  0
  3 26  1  0
  5 27  1  0
  7 28  1  0
  8 29  1  0
 12 30  1  0
 12 31  1  0
 13 32  1  0
 14 33  1  0
 14 34  1  0
 17 35  1  0
 18 36  1  0
 19 37  1  0
M  END
$$$$
