
     RDKit          3D

 40 41  0  0  0  0  0  0  0  0999 V2000
   -1.8814   -2.7510    0.9311 C   0  0  0  0  0  0  0  0  0  0  0  0
   -1.0728   -2.3903   -0.2718 C   0  0  0  0  0  0  0  0  0  0  0  0
   -1.6213   -3.2942   -1.4113 C   0  0  0  0  0  0  0  0  0  0  0  0
   -1.0889   -1.0010   -0.6722 C   0  0  0  0  0  0  0  0  0  0  0  0
   -1.7535   -0.8008   -1.7919 O   0  0  0  0  0  0  0  0  0  0  0  0
   -0.5340    0.1704   -0.1077 N   0  0  0  0  0  0  0  0  0  0  0  0
    0.2659    0.3045    1.0510 C   0  0  0  0  0  0  0  0  0  0  0  0
    1.7138    0.0774    0.9902 C   0  0  0  0  0  0  0  0  0  0  0  0
    2.6397    0.9103    0.4273 C   0  0  0  0  0  0  0  0  0  0  0  0
    4.0032    0.6104    0.3022 C   0  0  0  0  0  0  0  0  0  0  0  0
    4.4713   -0.5834    0.7621 C   0  0  0  0  0  0  0  0  0  0  0  0
    3.5812   -1.4610    1.3406 C   0  0  0  0  0  0  0  0  0  0  0  0
    4.1669   -3.0188    1.9523 Cl  0  0  0  0  0  0  0  0  0  0  0  0
    2.2464   -1.1345    1.4504 C   0  0  0  0  0  0  0  0  0  0  0  0
    1.1984   -2.2250    2.3271 Cl  0  0  0  0  0  0  0  0  0  0  0  0
   -1.0140    1.3792   -0.7633 C   0  0  1  0  0  0  0  0  0  0  0  0
   -1.8895    2.2241    0.2103 C   0  0  0  0  0  0  0  0  0  0  0  0
   -2.2252    3.3312   -0.8066 C   0  0  0  0  0  0  0  0  0  0  0  0
   -1.0226    3.5488   -1.5629 N   0  0  0  0  0  0  0  0  0  0  0  0
   -0.0861    2.4468   -1.1604 C   0  0  0  0  0  0  0  0  0  0  0  0
   -1.7212   -2.0702    1.7595 H   0  0  0  0  0  0  0  0  0  0  0  0
   -2.9865   -2.7039    0.6939 H   0  0  0  0  0  0  0  0  0  0  0  0
   -1.6807   -3.8272    1.2172 H   0  0  0  0  0  0  0  0  0  0  0  0
   -0.0174   -2.7387   -0.1680 H   0  0  0  0  0  0  0  0  0  0  0  0
   -0.7802   -3.5516   -2.1023 H   0  0  0  0  0  0  0  0  0  0  0  0
   -2.4406   -2.7955   -1.9486 H   0  0  0  0  0  0  0  0  0  0  0  0
   -2.0222   -4.2140   -0.9453 H   0  0  0  0  0  0  0  0  0  0  0  0
    0.1592    1.3578    1.4481 H   0  0  0  0  0  0  0  0  0  0  0  0
   -0.2037   -0.3105    1.8573 H   0  0  0  0  0  0  0  0  0  0  0  0
    2.3484    1.8722    0.0589 H   0  0  0  0  0  0  0  0  0  0  0  0
    4.6926    1.3205   -0.1560 H   0  0  0  0  0  0  0  0  0  0  0  0
    5.5411   -0.8553    0.6756 H   0  0  0  0  0  0  0  0  0  0  0  0
   -1.7153    1.1556   -1.6056 H   0  0  0  0  0  0  0  0  0  0  0  0
   -2.7530    1.6810    0.5625 H   0  0  0  0  0  0  0  0  0  0  0  0
   -1.2483    2.6900    0.9549 H   0  0  0  0  0  0  0  0  0  0  0  0
   -2.9690    2.8534   -1.4818 H   0  0  0  0  0  0  0  0  0  0  0  0
   -2.6278    4.2341   -0.3137 H   0  0  0  0  0  0  0  0  0  0  0  0
   -0.6513    4.4760   -1.2833 H   0  0  0  0  0  0  0  0  0  0  0  0
    0.4225    2.9254   -0.2797 H   0  0  0  0  0  0  0  0  0  0  0  0
    0.5558    2.1581   -1.9783 H   0  0  0  0  0  0  0  0  0  0  0  0
  1  2  1  0
  2  3  1  0
  2  4  1  0
  4  5  2  0
  4  6  1  0
  6  7  1  0
  7  8  1  0
  8  9  2  0
  9 10  1  0
 10 11  2  0
 11 12  1  0
 12 13  1  0
 12 14  2  0
 14 15  1  0
  6 16  1  0
 16 17  1  0
 17 18  1  0
 18 19  1  0
 19 20  1  0
 14  8  1  0
 20 16  1  0
  1 21  1  0
  1 22  1  0
  1 23  1  0
  2 24  1  0
  3 25  1  0
  3 26  1  0
  3 27  1  0
  7 28  1  0
  7 29  1  0
  9 30  1  0
 10 31  1  0
 11 32  1  0
 16 33  1  6
 17 34  1  0
 17 35  1  0
 18 36  1  0
 18 37  1  0
 19 38  1  0
 20 39  1  0
 20 40  1  0
M  END
$$$$
