
     RDKit          3D

 42 44  0  0  0  0  0  0  0  0999 V2000
   -3.3811    2.7126   -0.3099 C   0  0  0  0  0  0  0  0  0  0  0  0
   -2.6515    1.4758   -0.1196 N   0  0  0  0  0  4  0  0  0  0  0  0
   -1.5051    1.0913   -0.7123 C   0  0  0  0  0  0  0  0  0  0  0  0
   -1.0930   -0.1230   -0.3097 N   0  0  0  0  0  0  0  0  0  0  0  0
    0.0152   -0.9529   -0.6204 C   0  0  2  0  0  0  0  0  0  0  0  0
    1.0977   -0.8366    0.2447 O   0  0  0  0  0  0  0  0  0  0  0  0
    2.2261   -1.2462   -0.4290 C   0  0  2  0  0  0  0  0  0  0  0  0
    3.1596   -0.0300   -0.5147 C   0  0  0  0  0  0  0  0  0  0  0  0
    3.4449    0.3520    0.8077 O   0  0  0  0  0  0  0  0  0  0  0  0
    4.4755    1.6955    0.8187 P   0  0  0  0  0  0  0  0  0  0  0  0
    4.9774    1.9584    2.4026 O   0  0  0  0  0  0  0  0  0  0  0  0
    5.7956    1.4411   -0.2239 O   0  0  0  0  0  0  0  0  0  0  0  0
    3.7460    2.9373    0.3396 O   0  0  0  0  0  0  0  0  0  0  0  0
    1.8307   -1.5811   -1.8514 C   0  0  1  0  0  0  0  0  0  0  0  0
    1.3953   -2.8976   -1.8502 O   0  0  0  0  0  0  0  0  0  0  0  0
    0.6471   -0.6443   -1.9820 C   0  0  1  0  0  0  0  0  0  0  0  0
   -0.1908   -0.9902   -3.0220 O   0  0  0  0  0  0  0  0  0  0  0  0
   -2.0262   -0.5387    0.5896 C   0  0  0  0  0  0  0  0  0  0  0  0
   -2.9804    0.4628    0.6930 C   0  0  0  0  0  0  0  0  0  0  0  0
   -4.0745    0.3522    1.5318 C   0  0  0  0  0  0  0  0  0  0  0  0
   -5.0640    1.2957    1.6934 O   0  0  0  0  0  0  0  0  0  0  0  0
   -4.1947   -0.7816    2.2656 N   0  0  0  0  0  0  0  0  0  0  0  0
   -3.2697   -1.7691    2.1748 C   0  0  0  0  0  0  0  0  0  0  0  0
   -3.3545   -2.8736    2.8668 N   0  0  0  0  0  0  0  0  0  0  0  0
   -2.2145   -1.6381    1.3520 N   0  0  0  0  0  0  0  0  0  0  0  0
   -4.3676    2.4994   -0.7507 H   0  0  0  0  0  0  0  0  0  0  0  0
   -3.5148    3.2053    0.6892 H   0  0  0  0  0  0  0  0  0  0  0  0
   -2.8221    3.3681   -1.0068 H   0  0  0  0  0  0  0  0  0  0  0  0
   -0.9289    1.6476   -1.4389 H   0  0  0  0  0  0  0  0  0  0  0  0
   -0.2410   -2.0313   -0.6674 H   0  0  0  0  0  0  0  0  0  0  0  0
    2.7442   -2.0914    0.0648 H   0  0  0  0  0  0  0  0  0  0  0  0
    4.0878   -0.2826   -1.0407 H   0  0  0  0  0  0  0  0  0  0  0  0
    2.6403    0.8336   -0.9593 H   0  0  0  0  0  0  0  0  0  0  0  0
    5.8863    1.5678    2.5499 H   0  0  0  0  0  0  0  0  0  0  0  0
    5.9757    0.4518   -0.1883 H   0  0  0  0  0  0  0  0  0  0  0  0
    2.6215   -1.3767   -2.5780 H   0  0  0  0  0  0  0  0  0  0  0  0
    1.8264   -3.4717   -1.1890 H   0  0  0  0  0  0  0  0  0  0  0  0
    0.9969    0.3803   -2.0698 H   0  0  0  0  0  0  0  0  0  0  0  0
   -0.1411   -1.9427   -3.2061 H   0  0  0  0  0  0  0  0  0  0  0  0
   -5.9334    1.2208    1.1781 H   0  0  0  0  0  0  0  0  0  0  0  0
   -4.1477   -3.0029    3.5029 H   0  0  0  0  0  0  0  0  0  0  0  0
   -1.4935   -2.3964    1.2747 H   0  0  0  0  0  0  0  0  0  0  0  0
  1  2  1  0
  2  3  2  0
  3  4  1  0
  4  5  1  0
  5  6  1  0
  6  7  1  0
  7  8  1  0
  8  9  1  0
  9 10  1  0
 10 11  1  0
 10 12  1  0
 10 13  2  0
  7 14  1  0
 14 15  1  0
 14 16  1  0
 16 17  1  0
  4 18  1  0
 18 19  2  0
 19 20  1  0
 20 21  1  0
 20 22  2  0
 22 23  1  0
 23 24  2  3
 23 25  1  0
 19  2  1  0
 16  5  1  0
 25 18  1  0
  1 26  1  0
  1 27  1  0
  1 28  1  0
  3 29  1  0
  5 30  1  6
  7 31  1  1
  8 32  1  0
  8 33  1  0
 11 34  1  0
 12 35  1  0
 14 36  1  6
 15 37  1  0
 16 38  1  1
 17 39  1  0
 21 40  1  0
 24 41  1  0
 25 42  1  0
M  CHG  1   2   1
M  END
$$$$
