
     RDKit          3D

 76 80  0  0  0  0  0  0  0  0999 V2000
    7.8985    4.8930   -1.7538 C   0  0  0  0  0  0  0  0  0  0  0  0
    7.1974    3.6241   -1.3496 C   0  0  0  0  0  0  0  0  0  0  0  0
    6.7947    2.6970   -2.2797 C   0  0  0  0  0  0  0  0  0  0  0  0
    6.1545    1.5434   -1.8720 C   0  0  0  0  0  0  0  0  0  0  0  0
    5.8906    1.2627   -0.5574 C   0  0  0  0  0  0  0  0  0  0  0  0
    5.2286    0.0585   -0.1894 N   0  0  0  0  0  0  0  0  0  0  0  0
    5.9090   -1.0651    0.0952 N   0  0  0  0  0  0  0  0  0  0  0  0
    5.0434   -2.0407    0.4122 C   0  0  0  0  0  0  0  0  0  0  0  0
    5.4570   -3.4118    0.7786 C   0  0  0  0  0  0  0  0  0  0  0  0
    4.2580   -4.2656    1.0829 C   0  0  0  0  0  0  0  0  0  0  0  0
    6.1702   -4.0202   -0.4075 C   0  0  0  0  0  0  0  0  0  0  0  0
    6.4277   -3.3322    1.9230 C   0  0  0  0  0  0  0  0  0  0  0  0
    3.7858   -1.4869    0.3162 C   0  0  0  0  0  0  0  0  0  0  0  0
    3.9119   -0.1729   -0.0611 C   0  0  0  0  0  0  0  0  0  0  0  0
    2.9072    0.7956   -0.2860 N   0  0  0  0  0  0  0  0  0  0  0  0
    1.5290    0.5635   -0.1365 C   0  0  0  0  0  0  0  0  0  0  0  0
    1.1224   -0.5477    0.2215 O   0  0  0  0  0  0  0  0  0  0  0  0
    0.5364    1.5627   -0.3804 N   0  0  0  0  0  0  0  0  0  0  0  0
   -0.8539    1.3163   -0.2222 C   0  0  0  0  0  0  0  0  0  0  0  0
   -1.6567    0.8300   -1.2241 C   0  0  0  0  0  0  0  0  0  0  0  0
   -3.0102    0.6188   -0.9900 C   0  0  0  0  0  0  0  0  0  0  0  0
   -3.5904    0.8860    0.2397 C   0  0  0  0  0  0  0  0  0  0  0  0
   -4.9334    0.6899    0.5131 O   0  0  0  0  0  0  0  0  0  0  0  0
   -5.8574    0.1992   -0.4122 C   0  0  0  0  0  0  0  0  0  0  0  0
   -7.2439    0.0803    0.1307 C   0  0  0  0  0  0  0  0  0  0  0  0
   -8.2016   -0.4184   -0.7948 N   0  0  0  0  0  0  0  0  0  0  0  0
   -8.0456   -1.7825   -1.1750 C   0  0  0  0  0  0  0  0  0  0  0  0
   -9.3690   -2.2741   -1.7315 C   0  0  0  0  0  0  0  0  0  0  0  0
  -10.2990   -2.4593   -0.7069 O   0  0  0  0  0  0  0  0  0  0  0  0
  -10.1022   -1.4922    0.2744 C   0  0  0  0  0  0  0  0  0  0  0  0
   -9.5582   -0.2114   -0.3298 C   0  0  0  0  0  0  0  0  0  0  0  0
   -2.7808    1.3726    1.2372 C   0  0  0  0  0  0  0  0  0  0  0  0
   -3.3344    1.6456    2.4662 C   0  0  0  0  0  0  0  0  0  0  0  0
   -2.5773    2.1352    3.5066 C   0  0  0  0  0  0  0  0  0  0  0  0
   -1.2314    2.3439    3.2699 C   0  0  0  0  0  0  0  0  0  0  0  0
   -0.6758    2.0727    2.0459 C   0  0  0  0  0  0  0  0  0  0  0  0
   -1.4321    1.5823    1.0022 C   0  0  0  0  0  0  0  0  0  0  0  0
    6.2972    2.1971    0.3711 C   0  0  0  0  0  0  0  0  0  0  0  0
    6.9376    3.3545   -0.0165 C   0  0  0  0  0  0  0  0  0  0  0  0
    8.3982    5.2829   -0.8193 H   0  0  0  0  0  0  0  0  0  0  0  0
    8.7276    4.6948   -2.4532 H   0  0  0  0  0  0  0  0  0  0  0  0
    7.1746    5.6238   -2.1578 H   0  0  0  0  0  0  0  0  0  0  0  0
    6.9718    2.8560   -3.3325 H   0  0  0  0  0  0  0  0  0  0  0  0
    5.8397    0.8159   -2.6150 H   0  0  0  0  0  0  0  0  0  0  0  0
    4.5930   -5.3222    1.2276 H   0  0  0  0  0  0  0  0  0  0  0  0
    3.6824   -3.8835    1.9393 H   0  0  0  0  0  0  0  0  0  0  0  0
    3.6255   -4.2730    0.1616 H   0  0  0  0  0  0  0  0  0  0  0  0
    7.1555   -3.5425   -0.5995 H   0  0  0  0  0  0  0  0  0  0  0  0
    5.5301   -3.9420   -1.3340 H   0  0  0  0  0  0  0  0  0  0  0  0
    6.3577   -5.0956   -0.2535 H   0  0  0  0  0  0  0  0  0  0  0  0
    6.9819   -2.3682    1.8005 H   0  0  0  0  0  0  0  0  0  0  0  0
    7.1758   -4.1381    1.9274 H   0  0  0  0  0  0  0  0  0  0  0  0
    5.9208   -3.2481    2.9115 H   0  0  0  0  0  0  0  0  0  0  0  0
    2.8573   -2.0382    0.5165 H   0  0  0  0  0  0  0  0  0  0  0  0
    3.1833    1.7737   -0.5950 H   0  0  0  0  0  0  0  0  0  0  0  0
    0.8970    2.5027   -0.6871 H   0  0  0  0  0  0  0  0  0  0  0  0
   -1.2451    0.6081   -2.1984 H   0  0  0  0  0  0  0  0  0  0  0  0
   -3.6816    0.2341   -1.7575 H   0  0  0  0  0  0  0  0  0  0  0  0
   -5.8988    0.9499   -1.2562 H   0  0  0  0  0  0  0  0  0  0  0  0
   -5.5235   -0.7444   -0.9104 H   0  0  0  0  0  0  0  0  0  0  0  0
   -7.2338   -0.5168    1.0665 H   0  0  0  0  0  0  0  0  0  0  0  0
   -7.5697    1.1058    0.4371 H   0  0  0  0  0  0  0  0  0  0  0  0
   -7.2810   -1.9662   -1.9486 H   0  0  0  0  0  0  0  0  0  0  0  0
   -7.7570   -2.3791   -0.2842 H   0  0  0  0  0  0  0  0  0  0  0  0
   -9.7625   -1.5531   -2.4541 H   0  0  0  0  0  0  0  0  0  0  0  0
   -9.2438   -3.2451   -2.2834 H   0  0  0  0  0  0  0  0  0  0  0  0
  -11.0744   -1.3214    0.7580 H   0  0  0  0  0  0  0  0  0  0  0  0
   -9.4238   -1.8887    1.0564 H   0  0  0  0  0  0  0  0  0  0  0  0
  -10.2260    0.1616   -1.1069 H   0  0  0  0  0  0  0  0  0  0  0  0
   -9.5730    0.5450    0.5040 H   0  0  0  0  0  0  0  0  0  0  0  0
   -4.3891    1.4819    2.6521 H   0  0  0  0  0  0  0  0  0  0  0  0
   -3.0051    2.3501    4.4690 H   0  0  0  0  0  0  0  0  0  0  0  0
   -0.6600    2.7298    4.1069 H   0  0  0  0  0  0  0  0  0  0  0  0
    0.3845    2.2598    1.9298 H   0  0  0  0  0  0  0  0  0  0  0  0
    6.1250    2.0476    1.4268 H   0  0  0  0  0  0  0  0  0  0  0  0
    7.2629    4.0992    0.7084 H   0  0  0  0  0  0  0  0  0  0  0  0
  1  2  1  0
  2  3  2  0
  3  4  1  0
  4  5  2  0
  5  6  1  0
  6  7  1  0
  7  8  2  0
  8  9  1  0
  9 10  1  0
  9 11  1  0
  9 12  1  0
  8 13  1  0
 13 14  2  0
 14 15  1  0
 15 16  1  0
 16 17  2  0
 16 18  1  0
 18 19  1  0
 19 20  2  0
 20 21  1  0
 21 22  2  0
 22 23  1  0
 23 24  1  0
 24 25  1  0
 25 26  1  0
 26 27  1  0
 27 28  1  0
 28 29  1  0
 29 30  1  0
 30 31  1  0
 22 32  1  0
 32 33  2  0
 33 34  1  0
 34 35  2  0
 35 36  1  0
 36 37  2  0
  5 38  1  0
 38 39  2  0
 39  2  1  0
 14  6  1  0
 37 19  1  0
 31 26  1  0
 37 32  1  0
  1 40  1  0
  1 41  1  0
  1 42  1  0
  3 43  1  0
  4 44  1  0
 10 45  1  0
 10 46  1  0
 10 47  1  0
 11 48  1  0
 11 49  1  0
 11 50  1  0
 12 51  1  0
 12 52  1  0
 12 53  1  0
 13 54  1  0
 15 55  1  0
 18 56  1  0
 20 57  1  0
 21 58  1  0
 24 59  1  0
 24 60  1  0
 25 61  1  0
 25 62  1  0
 27 63  1  0
 27 64  1  0
 28 65  1  0
 28 66  1  0
 30 67  1  0
 30 68  1  0
 31 69  1  0
 31 70  1  0
 33 71  1  0
 34 72  1  0
 35 73  1  0
 36 74  1  0
 38 75  1  0
 39 76  1  0
M  END
$$$$
