
     RDKit          3D

 49 53  0  0  0  0  0  0  0  0999 V2000
   -5.4609   -2.2443    0.0303 C   0  0  0  0  0  0  0  0  0  0  0  0
   -4.1095   -2.0641    0.2201 O   0  0  0  0  0  0  0  0  0  0  0  0
   -3.7406   -0.7540    0.3927 C   0  0  0  0  0  0  0  0  0  0  0  0
   -4.0760    0.1178   -0.7457 C   0  0  0  0  0  0  0  0  0  0  0  0
   -4.7090    1.0685   -1.0794 N   0  0  0  0  0  0  0  0  0  0  0  0
   -4.8356    1.6695   -2.2053 C   0  0  0  0  0  0  0  0  0  0  0  0
   -4.1117    1.1328   -3.2430 C   0  0  0  0  0  0  0  0  0  0  0  0
   -3.2782   -0.2672   -2.4226 S   0  0  0  0  0  0  0  0  0  0  0  0
   -4.3121   -0.1133    1.6278 C   0  0  0  0  0  0  0  0  0  0  0  0
   -3.3514    1.0782    1.7391 C   0  0  0  0  0  0  0  0  0  0  0  0
   -2.0618    0.3628    1.4942 C   0  0  0  0  0  0  0  0  0  0  0  0
   -0.7752    0.6094    1.9142 C   0  0  0  0  0  0  0  0  0  0  0  0
    0.2805   -0.2210    1.5545 C   0  0  0  0  0  0  0  0  0  0  0  0
    0.1003   -1.3324    0.7607 C   0  0  0  0  0  0  0  0  0  0  0  0
    1.0577   -2.2008    0.3531 O   0  0  0  0  0  0  0  0  0  0  0  0
    2.3957   -2.3187    0.5148 C   0  0  0  0  0  0  0  0  0  0  0  0
    3.2502   -1.2399   -0.0182 C   0  0  0  0  0  0  0  0  0  0  0  0
    3.5471   -1.2570   -1.3837 C   0  0  0  0  0  0  0  0  0  0  0  0
    4.3554   -0.3189   -1.9610 C   0  0  0  0  0  0  0  0  0  0  0  0
    4.9160    0.6894   -1.2197 C   0  0  0  0  0  0  0  0  0  0  0  0
    5.7421    1.6515   -1.8034 C   0  0  0  0  0  0  0  0  0  0  0  0
    6.2927    2.6557   -1.0336 C   0  0  0  0  0  0  0  0  0  0  0  0
    5.9998    2.6746    0.3221 C   0  0  0  0  0  0  0  0  0  0  0  0
    5.1866    1.7286    0.8993 C   0  0  0  0  0  0  0  0  0  0  0  0
    4.6378    0.7259    0.1266 C   0  0  0  0  0  0  0  0  0  0  0  0
    3.8133   -0.2304    0.7182 C   0  0  0  0  0  0  0  0  0  0  0  0
   -1.2357   -1.5559    0.3467 C   0  0  0  0  0  0  0  0  0  0  0  0
   -2.2752   -0.7369    0.7020 C   0  0  0  0  0  0  0  0  0  0  0  0
   -5.8424   -1.7095   -0.8685 H   0  0  0  0  0  0  0  0  0  0  0  0
   -5.6255   -3.3239   -0.1640 H   0  0  0  0  0  0  0  0  0  0  0  0
   -6.0806   -1.9542    0.8931 H   0  0  0  0  0  0  0  0  0  0  0  0
   -5.4861    2.5764   -2.3678 H   0  0  0  0  0  0  0  0  0  0  0  0
   -4.0019    1.4037   -4.3082 H   0  0  0  0  0  0  0  0  0  0  0  0
   -5.3543    0.2178    1.5128 H   0  0  0  0  0  0  0  0  0  0  0  0
   -4.1671   -0.8153    2.4736 H   0  0  0  0  0  0  0  0  0  0  0  0
   -3.5755    1.7465    0.8876 H   0  0  0  0  0  0  0  0  0  0  0  0
   -3.3922    1.5473    2.7192 H   0  0  0  0  0  0  0  0  0  0  0  0
   -0.5891    1.4683    2.5363 H   0  0  0  0  0  0  0  0  0  0  0  0
    1.2818   -0.0164    1.9037 H   0  0  0  0  0  0  0  0  0  0  0  0
    2.6517   -2.3560    1.6332 H   0  0  0  0  0  0  0  0  0  0  0  0
    2.7593   -3.3264    0.1627 H   0  0  0  0  0  0  0  0  0  0  0  0
    3.1295   -2.0307   -2.0076 H   0  0  0  0  0  0  0  0  0  0  0  0
    4.5994   -0.3149   -3.0263 H   0  0  0  0  0  0  0  0  0  0  0  0
    5.9384    1.5899   -2.8675 H   0  0  0  0  0  0  0  0  0  0  0  0
    6.9330    3.4039   -1.4778 H   0  0  0  0  0  0  0  0  0  0  0  0
    6.4350    3.4644    0.9170 H   0  0  0  0  0  0  0  0  0  0  0  0
    4.9467    1.7266    1.9543 H   0  0  0  0  0  0  0  0  0  0  0  0
    3.6114   -0.1926    1.7927 H   0  0  0  0  0  0  0  0  0  0  0  0
   -1.4140   -2.4152   -0.2743 H   0  0  0  0  0  0  0  0  0  0  0  0
  1  2  1  0
  2  3  1  0
  3  4  1  0
  4  5  2  0
  5  6  1  0
  6  7  2  0
  7  8  1  0
  3  9  1  0
  9 10  1  0
 10 11  1  0
 11 12  2  0
 12 13  1  0
 13 14  2  0
 14 15  1  0
 15 16  1  0
 16 17  1  0
 17 18  2  0
 18 19  1  0
 19 20  2  0
 20 21  1  0
 21 22  2  0
 22 23  1  0
 23 24  2  0
 24 25  1  0
 25 26  2  0
 14 27  1  0
 27 28  2  0
 28  3  1  0
  8  4  1  0
 28 11  1  0
 26 17  1  0
 25 20  1  0
  1 29  1  0
  1 30  1  0
  1 31  1  0
  6 32  1  0
  7 33  1  0
  9 34  1  0
  9 35  1  0
 10 36  1  0
 10 37  1  0
 12 38  1  0
 13 39  1  0
 16 40  1  0
 16 41  1  0
 18 42  1  0
 19 43  1  0
 21 44  1  0
 22 45  1  0
 23 46  1  0
 24 47  1  0
 26 48  1  0
 27 49  1  0
M  END
$$$$
