
     RDKit          3D

 66 69  0  0  0  0  0  0  0  0999 V2000
    0.4191   -0.1715   -3.1808 C   0  0  0  0  0  0  0  0  0  0  0  0
    0.5706   -0.9785   -1.9107 C   0  0  1  0  0  0  0  0  0  0  0  0
    1.8553   -0.6313   -1.2741 C   0  0  0  0  0  0  0  0  0  0  0  0
    2.1087    0.4279   -0.4567 C   0  0  0  0  0  0  0  0  0  0  0  0
    3.3747    0.6499    0.0737 C   0  0  0  0  0  0  0  0  0  0  0  0
    4.4249   -0.1676   -0.1883 C   0  0  0  0  0  0  0  0  0  0  0  0
    5.7600    0.0093    0.3274 C   0  0  0  0  0  0  0  0  0  0  0  0
    6.5677   -1.0714    0.5775 C   0  0  0  0  0  0  0  0  0  0  0  0
    7.8604   -0.9018    1.0741 C   0  0  0  0  0  0  0  0  0  0  0  0
    8.2906    0.3833    1.3018 C   0  0  0  0  0  0  0  0  0  0  0  0
    9.4703    0.5840    1.7572 O   0  0  0  0  0  0  0  0  0  0  0  0
    7.5111    1.4512    1.0618 N   0  0  0  0  0  0  0  0  0  0  0  0
    8.0238    2.7769    1.3225 C   0  0  0  0  0  0  0  0  0  0  0  0
    6.2556    1.2643    0.5783 C   0  0  0  0  0  0  0  0  0  0  0  0
    4.2030   -1.2587   -1.0188 C   0  0  0  0  0  0  0  0  0  0  0  0
    2.9376   -1.4698   -1.5414 C   0  0  0  0  0  0  0  0  0  0  0  0
   -0.5961   -0.8800   -1.1256 N   0  0  0  0  0  0  0  0  0  0  0  0
   -1.1197    0.3758   -0.6752 C   0  0  0  0  0  0  0  0  0  0  0  0
   -2.6490    0.2989   -0.8733 C   0  0  0  0  0  0  0  0  0  0  0  0
   -3.2419   -0.6512    0.1000 C   0  0  2  0  0  0  0  0  0  0  0  0
   -4.4847   -1.3316   -0.3975 C   0  0  0  0  0  0  0  0  0  0  0  0
   -5.6480   -0.5181   -0.7667 C   0  0  0  0  0  0  0  0  0  0  0  0
   -6.2185    0.3381    0.3582 C   0  0  0  0  0  0  0  0  0  0  0  0
   -5.5476    0.2415   -2.0499 C   0  0  0  0  0  0  0  0  0  0  0  0
   -6.6855   -1.4739   -0.9908 O   0  0  0  0  0  0  0  0  0  0  0  0
   -3.3716   -0.0816    1.4376 C   0  0  0  0  0  0  0  0  0  0  0  0
   -3.8394   -0.8482    2.5089 C   0  0  0  0  0  0  0  0  0  0  0  0
   -3.9749   -0.3330    3.7739 C   0  0  0  0  0  0  0  0  0  0  0  0
   -3.6541    0.9615    4.0355 C   0  0  0  0  0  0  0  0  0  0  0  0
   -3.7784    1.4986    5.2798 F   0  0  0  0  0  0  0  0  0  0  0  0
   -3.1899    1.7495    3.0077 C   0  0  0  0  0  0  0  0  0  0  0  0
   -3.0567    1.2189    1.7318 C   0  0  0  0  0  0  0  0  0  0  0  0
   -2.3223   -1.7576    0.2352 O   0  0  0  0  0  0  0  0  0  0  0  0
   -1.3632   -2.0238   -0.7587 C   0  0  0  0  0  0  0  0  0  0  0  0
   -1.1858   -3.1444   -1.2798 O   0  0  0  0  0  0  0  0  0  0  0  0
    0.5642    0.9015   -3.0100 H   0  0  0  0  0  0  0  0  0  0  0  0
   -0.5154   -0.4162   -3.7221 H   0  0  0  0  0  0  0  0  0  0  0  0
    1.2508   -0.4791   -3.8808 H   0  0  0  0  0  0  0  0  0  0  0  0
    0.6979   -2.0805   -2.2138 H   0  0  0  0  0  0  0  0  0  0  0  0
    1.3014    1.1136   -0.2164 H   0  0  0  0  0  0  0  0  0  0  0  0
    3.5129    1.5059    0.7141 H   0  0  0  0  0  0  0  0  0  0  0  0
    6.2221   -2.0899    0.3966 H   0  0  0  0  0  0  0  0  0  0  0  0
    8.5202   -1.7170    1.2818 H   0  0  0  0  0  0  0  0  0  0  0  0
    7.3504    3.5438    0.8438 H   0  0  0  0  0  0  0  0  0  0  0  0
    9.0194    2.9480    0.8528 H   0  0  0  0  0  0  0  0  0  0  0  0
    8.0712    3.0139    2.4020 H   0  0  0  0  0  0  0  0  0  0  0  0
    5.6676    2.1369    0.4004 H   0  0  0  0  0  0  0  0  0  0  0  0
    5.0331   -1.9230   -1.2400 H   0  0  0  0  0  0  0  0  0  0  0  0
    2.8533   -2.3414   -2.1785 H   0  0  0  0  0  0  0  0  0  0  0  0
   -0.7361    1.2498   -1.2532 H   0  0  0  0  0  0  0  0  0  0  0  0
   -0.8839    0.4702    0.3944 H   0  0  0  0  0  0  0  0  0  0  0  0
   -3.0704    1.2936   -0.9294 H   0  0  0  0  0  0  0  0  0  0  0  0
   -2.7571   -0.1450   -1.9036 H   0  0  0  0  0  0  0  0  0  0  0  0
   -4.7901   -2.0618    0.3923 H   0  0  0  0  0  0  0  0  0  0  0  0
   -4.1914   -1.9477   -1.2713 H   0  0  0  0  0  0  0  0  0  0  0  0
   -5.6820    1.2612    0.5261 H   0  0  0  0  0  0  0  0  0  0  0  0
   -7.2453    0.6280    0.0186 H   0  0  0  0  0  0  0  0  0  0  0  0
   -6.3779   -0.3133    1.2323 H   0  0  0  0  0  0  0  0  0  0  0  0
   -5.2331    1.2959   -1.9341 H   0  0  0  0  0  0  0  0  0  0  0  0
   -6.5934    0.3285   -2.4712 H   0  0  0  0  0  0  0  0  0  0  0  0
   -4.9828   -0.3361   -2.7767 H   0  0  0  0  0  0  0  0  0  0  0  0
   -6.6501   -2.1912   -0.3310 H   0  0  0  0  0  0  0  0  0  0  0  0
   -4.1058   -1.8849    2.3413 H   0  0  0  0  0  0  0  0  0  0  0  0
   -4.3432   -0.9631    4.5835 H   0  0  0  0  0  0  0  0  0  0  0  0
   -2.9180    2.7848    3.1478 H   0  0  0  0  0  0  0  0  0  0  0  0
   -2.6942    1.8787    0.9628 H   0  0  0  0  0  0  0  0  0  0  0  0
  1  2  1  0
  2  3  1  0
  3  4  2  0
  4  5  1  0
  5  6  2  0
  6  7  1  0
  7  8  1  0
  8  9  2  0
  9 10  1  0
 10 11  2  0
 10 12  1  0
 12 13  1  0
 12 14  1  0
  6 15  1  0
 15 16  2  0
  2 17  1  0
 17 18  1  0
 18 19  1  0
 19 20  1  0
 20 21  1  6
 21 22  1  0
 22 23  1  0
 22 24  1  0
 22 25  1  0
 20 26  1  0
 26 27  2  0
 27 28  1  0
 28 29  2  0
 29 30  1  0
 29 31  1  0
 31 32  2  0
 20 33  1  0
 33 34  1  0
 34 35  2  0
 16  3  1  0
 34 17  1  0
 14  7  2  0
 32 26  1  0
  1 36  1  0
  1 37  1  0
  1 38  1  0
  2 39  1  6
  4 40  1  0
  5 41  1  0
  8 42  1  0
  9 43  1  0
 13 44  1  0
 13 45  1  0
 13 46  1  0
 14 47  1  0
 15 48  1  0
 16 49  1  0
 18 50  1  0
 18 51  1  0
 19 52  1  0
 19 53  1  0
 21 54  1  0
 21 55  1  0
 23 56  1  0
 23 57  1  0
 23 58  1  0
 24 59  1  0
 24 60  1  0
 24 61  1  0
 25 62  1  0
 27 63  1  0
 28 64  1  0
 31 65  1  0
 32 66  1  0
M  END
$$$$
