
     RDKit          3D

 53 55  0  0  0  0  0  0  0  0999 V2000
    1.6212   -2.1412    0.5672 O   0  0  0  0  0  0  0  0  0  0  0  0
    1.0957   -1.6873   -0.4744 C   0  0  0  0  0  0  0  0  0  0  0  0
    1.7756   -1.7963   -1.6678 O   0  0  0  0  0  0  0  0  0  0  0  0
    3.0340   -2.3886   -1.7955 C   0  0  0  0  0  0  0  0  0  0  0  0
    4.0885   -1.7097   -0.9852 C   0  0  0  0  0  0  0  0  0  0  0  0
    4.2427   -0.2607   -1.4000 C   0  0  0  0  0  0  0  0  0  0  0  0
    5.3023    0.3459   -0.5557 C   0  0  0  0  0  0  0  0  0  0  0  0
    4.9894    0.9565    0.6568 C   0  0  0  0  0  0  0  0  0  0  0  0
    5.9588    1.5234    1.4513 C   0  0  0  0  0  0  0  0  0  0  0  0
    7.2824    1.5108    1.0801 C   0  0  0  0  0  0  0  0  0  0  0  0
    8.2588    2.0840    1.8846 O   0  0  0  0  0  0  0  0  0  0  0  0
    7.6081    0.9058   -0.1253 C   0  0  0  0  0  0  0  0  0  0  0  0
    6.6305    0.3365   -0.9221 C   0  0  0  0  0  0  0  0  0  0  0  0
   -0.2216   -1.0434   -0.4619 C   0  0  0  0  0  0  0  0  0  0  0  0
   -0.7736   -0.5538   -1.6259 C   0  0  0  0  0  0  0  0  0  0  0  0
   -1.9992    0.0445   -1.6136 C   0  0  0  0  0  0  0  0  0  0  0  0
   -2.5760    0.5504   -2.8009 O   0  0  0  0  0  0  0  0  0  0  0  0
   -2.7407    0.1860   -0.4355 C   0  0  0  0  0  0  0  0  0  0  0  0
   -3.9742    0.9249   -0.4805 C   0  0  0  0  0  0  0  0  0  0  0  0
   -4.0697    1.7820   -1.4498 O   0  0  0  0  0  0  0  0  0  0  0  0
   -5.1134    0.8654    0.3942 C   0  0  0  0  0  0  0  0  0  0  0  0
   -5.7617    2.0782    0.7296 C   0  0  0  0  0  0  0  0  0  0  0  0
   -5.2114    3.2388    0.2059 O   0  0  0  0  0  0  0  0  0  0  0  0
   -6.8639    2.1673    1.5150 C   0  0  0  0  0  0  0  0  0  0  0  0
   -7.3951    1.0073    2.0250 C   0  0  0  0  0  0  0  0  0  0  0  0
   -6.8017   -0.1707    1.7208 C   0  0  0  0  0  0  0  0  0  0  0  0
   -5.6498   -0.2737    0.8961 C   0  0  0  0  0  0  0  0  0  0  0  0
   -5.2440   -1.5972    0.4795 C   0  0  0  0  0  0  0  0  0  0  0  0
   -4.4523   -1.8404   -0.4305 O   0  0  0  0  0  0  0  0  0  0  0  0
   -5.7715   -2.7196    1.1407 O   0  0  0  0  0  0  0  0  0  0  0  0
   -2.1881   -0.3076    0.7562 C   0  0  0  0  0  0  0  0  0  0  0  0
   -2.8945   -0.1773    1.9399 O   0  0  0  0  0  0  0  0  0  0  0  0
   -0.9549   -0.9005    0.6919 C   0  0  0  0  0  0  0  0  0  0  0  0
    2.9598   -3.4520   -1.5071 H   0  0  0  0  0  0  0  0  0  0  0  0
    3.3162   -2.3206   -2.8860 H   0  0  0  0  0  0  0  0  0  0  0  0
    3.8578   -1.7374    0.0796 H   0  0  0  0  0  0  0  0  0  0  0  0
    5.0633   -2.2377   -1.2002 H   0  0  0  0  0  0  0  0  0  0  0  0
    3.3033    0.2960   -1.2483 H   0  0  0  0  0  0  0  0  0  0  0  0
    4.5240   -0.1843   -2.4828 H   0  0  0  0  0  0  0  0  0  0  0  0
    3.9427    0.9574    0.9335 H   0  0  0  0  0  0  0  0  0  0  0  0
    5.6880    1.9887    2.3838 H   0  0  0  0  0  0  0  0  0  0  0  0
    9.2300    1.8132    1.7029 H   0  0  0  0  0  0  0  0  0  0  0  0
    8.6510    0.8999   -0.4103 H   0  0  0  0  0  0  0  0  0  0  0  0
    6.9245   -0.1224   -1.8488 H   0  0  0  0  0  0  0  0  0  0  0  0
   -0.2293   -0.6410   -2.5792 H   0  0  0  0  0  0  0  0  0  0  0  0
   -1.9242    1.1326   -3.3461 H   0  0  0  0  0  0  0  0  0  0  0  0
   -5.4786    3.5225   -0.7262 H   0  0  0  0  0  0  0  0  0  0  0  0
   -7.3458    3.1202    1.7586 H   0  0  0  0  0  0  0  0  0  0  0  0
   -8.2793    1.0431    2.6628 H   0  0  0  0  0  0  0  0  0  0  0  0
   -7.1944   -1.1100    2.1075 H   0  0  0  0  0  0  0  0  0  0  0  0
   -5.2270   -3.5742    1.2460 H   0  0  0  0  0  0  0  0  0  0  0  0
   -2.4904   -0.0538    2.8402 H   0  0  0  0  0  0  0  0  0  0  0  0
   -0.5225   -1.2853    1.6101 H   0  0  0  0  0  0  0  0  0  0  0  0
  1  2  2  0
  2  3  1  0
  3  4  1  0
  4  5  1  0
  5  6  1  0
  6  7  1  0
  7  8  2  0
  8  9  1  0
  9 10  2  0
 10 11  1  0
 10 12  1  0
 12 13  2  0
  2 14  1  0
 14 15  2  0
 15 16  1  0
 16 17  1  0
 16 18  2  0
 18 19  1  0
 19 20  2  0
 19 21  1  0
 21 22  2  0
 22 23  1  0
 22 24  1  0
 24 25  2  0
 25 26  1  0
 26 27  2  0
 27 28  1  0
 28 29  2  0
 28 30  1  0
 18 31  1  0
 31 32  1  0
 31 33  2  0
 13  7  1  0
 33 14  1  0
 27 21  1  0
  4 34  1  0
  4 35  1  0
  5 36  1  0
  5 37  1  0
  6 38  1  0
  6 39  1  0
  8 40  1  0
  9 41  1  0
 11 42  1  0
 12 43  1  0
 13 44  1  0
 15 45  1  0
 17 46  1  0
 23 47  1  0
 24 48  1  0
 25 49  1  0
 26 50  1  0
 30 51  1  0
 32 52  1  0
 33 53  1  0
M  END
$$$$
