
     RDKit          3D

 48 51  0  0  0  0  0  0  0  0999 V2000
   -6.3091   -1.5223   -2.5632 F   0  0  0  0  0  0  0  0  0  0  0  0
   -5.2266   -1.2409   -1.7008 C   0  0  0  0  0  0  0  0  0  0  0  0
   -4.6575   -2.4587   -1.4262 F   0  0  0  0  0  0  0  0  0  0  0  0
   -4.3782   -0.4197   -2.4366 F   0  0  0  0  0  0  0  0  0  0  0  0
   -5.7708   -0.5356   -0.5134 C   0  0  0  0  0  0  0  0  0  0  0  0
   -7.1568   -0.2908   -0.4390 C   0  0  0  0  0  0  0  0  0  0  0  0
   -7.7120    0.3774    0.6140 C   0  0  0  0  0  0  0  0  0  0  0  0
   -6.8589    0.8164    1.6266 C   0  0  0  0  0  0  0  0  0  0  0  0
   -5.5096    0.5767    1.5530 C   0  0  0  0  0  0  0  0  0  0  0  0
   -4.9324   -0.1076    0.4779 C   0  0  0  0  0  0  0  0  0  0  0  0
   -3.5069   -0.3638    0.4561 C   0  0  0  0  0  0  0  0  0  0  0  0
   -2.9033   -1.5747    0.6428 C   0  0  0  0  0  0  0  0  0  0  0  0
   -1.5252   -1.7191    0.5722 C   0  0  0  0  0  0  0  0  0  0  0  0
   -0.6985   -0.6286    0.3077 C   0  0  0  0  0  0  0  0  0  0  0  0
    0.6262   -0.4778    0.1854 N   0  0  0  0  0  0  0  0  0  0  0  0
    0.8996    0.8099   -0.0769 C   0  0  0  0  0  0  0  0  0  0  0  0
    2.2402    1.4061   -0.2843 C   0  0  0  0  0  0  0  0  0  0  0  0
    3.2855    0.6245   -0.2109 C   0  0  0  0  0  0  0  0  0  0  0  0
    4.6431    1.2065   -0.4168 C   0  0  0  0  0  0  0  0  0  0  0  0
    5.4304    1.0583    0.8495 C   0  0  0  0  0  0  0  0  0  0  0  0
    6.4220   -0.0607    0.8204 C   0  0  0  0  0  0  0  0  0  0  0  0
    5.9606   -1.2549    0.0521 C   0  0  0  0  0  0  0  0  0  0  0  0
    5.4081   -0.9445   -1.3007 C   0  0  0  0  0  0  0  0  0  0  0  0
    5.2744    0.5194   -1.5894 C   0  0  0  0  0  0  0  0  0  0  0  0
   -0.2782    1.4507   -0.1143 N   0  0  0  0  0  0  0  0  0  0  0  0
   -1.2877    0.5957    0.1184 C   0  0  0  0  0  0  0  0  0  0  0  0
   -2.6644    0.7162    0.1930 C   0  0  0  0  0  0  0  0  0  0  0  0
   -7.7923   -0.6414   -1.2358 H   0  0  0  0  0  0  0  0  0  0  0  0
   -8.7793    0.5512    0.6448 H   0  0  0  0  0  0  0  0  0  0  0  0
   -7.3265    1.3457    2.4526 H   0  0  0  0  0  0  0  0  0  0  0  0
   -4.8478    0.9115    2.3283 H   0  0  0  0  0  0  0  0  0  0  0  0
   -3.4954   -2.4392    0.8717 H   0  0  0  0  0  0  0  0  0  0  0  0
   -1.0296   -2.6670    0.7159 H   0  0  0  0  0  0  0  0  0  0  0  0
    2.2926    2.4658   -0.4879 H   0  0  0  0  0  0  0  0  0  0  0  0
    3.1993   -0.4184   -0.0080 H   0  0  0  0  0  0  0  0  0  0  0  0
    4.5658    2.2972   -0.6678 H   0  0  0  0  0  0  0  0  0  0  0  0
    5.9756    2.0118    1.0884 H   0  0  0  0  0  0  0  0  0  0  0  0
    4.7212    0.9252    1.7118 H   0  0  0  0  0  0  0  0  0  0  0  0
    6.5712   -0.3966    1.8873 H   0  0  0  0  0  0  0  0  0  0  0  0
    7.4426    0.2754    0.4878 H   0  0  0  0  0  0  0  0  0  0  0  0
    6.8235   -1.9613   -0.0234 H   0  0  0  0  0  0  0  0  0  0  0  0
    5.1797   -1.7762    0.6743 H   0  0  0  0  0  0  0  0  0  0  0  0
    6.0291   -1.3986   -2.1125 H   0  0  0  0  0  0  0  0  0  0  0  0
    4.3906   -1.4110   -1.4282 H   0  0  0  0  0  0  0  0  0  0  0  0
    6.2221    0.9975   -1.9110 H   0  0  0  0  0  0  0  0  0  0  0  0
    4.5602    0.6191   -2.4473 H   0  0  0  0  0  0  0  0  0  0  0  0
   -0.4196    2.4657   -0.2958 H   0  0  0  0  0  0  0  0  0  0  0  0
   -3.0973    1.6857    0.0408 H   0  0  0  0  0  0  0  0  0  0  0  0
  1  2  1  0
  2  3  1  0
  2  4  1  0
  2  5  1  0
  5  6  2  0
  6  7  1  0
  7  8  2  0
  8  9  1  0
  9 10  2  0
 10 11  1  0
 11 12  2  0
 12 13  1  0
 13 14  2  0
 14 15  1  0
 15 16  2  0
 16 17  1  0
 17 18  2  3
 18 19  1  0
 19 20  1  0
 20 21  1  0
 21 22  1  0
 22 23  1  0
 23 24  1  0
 16 25  1  0
 25 26  1  0
 26 27  2  0
 10  5  1  0
 27 11  1  0
 26 14  1  0
 24 19  1  0
  6 28  1  0
  7 29  1  0
  8 30  1  0
  9 31  1  0
 12 32  1  0
 13 33  1  0
 17 34  1  0
 18 35  1  0
 19 36  1  0
 20 37  1  0
 20 38  1  0
 21 39  1  0
 21 40  1  0
 22 41  1  0
 22 42  1  0
 23 43  1  0
 23 44  1  0
 24 45  1  0
 24 46  1  0
 25 47  1  0
 27 48  1  0
M  END
$$$$
