
     RDKit          3D

 57 62  0  0  0  0  0  0  0  0999 V2000
    8.8511    0.4728    0.0728 C   0  0  0  0  0  0  0  0  0  0  0  0
    8.0502   -0.6915    0.3795 N   0  0  0  0  0  0  0  0  0  0  0  0
    7.3203   -0.4504    1.5960 C   0  0  0  0  0  0  0  0  0  0  0  0
    6.3357    0.6716    1.5049 C   0  0  0  0  0  0  0  0  0  0  0  0
    5.4398    0.5692    0.2786 C   0  0  0  0  0  0  0  0  0  0  0  0
    4.5505   -0.4802    0.4030 O   0  0  0  0  0  0  0  0  0  0  0  0
    3.1867   -0.4211    0.3874 C   0  0  0  0  0  0  0  0  0  0  0  0
    2.4683   -1.6158    0.5311 C   0  0  0  0  0  0  0  0  0  0  0  0
    1.0800   -1.6044    0.5213 C   0  0  0  0  0  0  0  0  0  0  0  0
    0.3539   -0.4548    0.3745 C   0  0  0  0  0  0  0  0  0  0  0  0
   -1.0835   -0.4654    0.3671 C   0  0  0  0  0  0  0  0  0  0  0  0
   -1.8323    0.7079    0.2171 C   0  0  0  0  0  0  0  0  0  0  0  0
   -3.1722    0.6927    0.2110 N   0  0  0  0  0  0  0  0  0  0  0  0
   -3.8544   -0.4460    0.3482 C   0  0  0  0  0  0  0  0  0  0  0  0
   -5.2084   -0.7058    0.3724 C   0  0  0  0  0  0  0  0  0  0  0  0
   -6.3259    0.2159    0.2515 C   0  0  0  0  0  0  0  0  0  0  0  0
   -6.8958    0.8257    1.3733 C   0  0  0  0  0  0  0  0  0  0  0  0
   -7.9503    1.6979    1.2805 C   0  0  0  0  0  0  0  0  0  0  0  0
   -8.4600    1.9770    0.0288 C   0  0  0  0  0  0  0  0  0  0  0  0
   -7.9381    1.4043   -1.1192 C   0  0  0  0  0  0  0  0  0  0  0  0
   -8.4662    1.7054   -2.3170 N   0  0  0  0  0  0  0  0  0  0  0  0
   -7.9786    1.1638   -3.4462 C   0  0  0  0  0  0  0  0  0  0  0  0
   -6.9186    0.2861   -3.3611 C   0  0  0  0  0  0  0  0  0  0  0  0
   -6.3709   -0.0281   -2.1361 C   0  0  0  0  0  0  0  0  0  0  0  0
   -6.8764    0.5319   -0.9771 C   0  0  0  0  0  0  0  0  0  0  0  0
   -5.2977   -2.0692    0.5409 C   0  0  0  0  0  0  0  0  0  0  0  0
   -4.0516   -2.5654    0.6099 N   0  0  0  0  0  0  0  0  0  0  0  0
   -3.1672   -1.5911    0.4943 N   0  0  0  0  0  0  0  0  0  0  0  0
   -1.8020   -1.6180    0.5058 C   0  0  0  0  0  0  0  0  0  0  0  0
    1.0651    0.6875    0.2372 N   0  0  0  0  0  0  0  0  0  0  0  0
    2.4199    0.7092    0.2427 C   0  0  0  0  0  0  0  0  0  0  0  0
    6.3186    0.2919   -0.9479 C   0  0  0  0  0  0  0  0  0  0  0  0
    7.0802   -0.9747   -0.6612 C   0  0  0  0  0  0  0  0  0  0  0  0
    9.7522    0.4272    0.7394 H   0  0  0  0  0  0  0  0  0  0  0  0
    8.3430    1.4256    0.3261 H   0  0  0  0  0  0  0  0  0  0  0  0
    9.2410    0.4631   -0.9599 H   0  0  0  0  0  0  0  0  0  0  0  0
    6.7641   -1.3815    1.8348 H   0  0  0  0  0  0  0  0  0  0  0  0
    8.0363   -0.2014    2.4033 H   0  0  0  0  0  0  0  0  0  0  0  0
    5.6374    0.5656    2.3846 H   0  0  0  0  0  0  0  0  0  0  0  0
    6.7802    1.6776    1.6121 H   0  0  0  0  0  0  0  0  0  0  0  0
    4.9269    1.5168    0.1596 H   0  0  0  0  0  0  0  0  0  0  0  0
    3.0282   -2.5341    0.6483 H   0  0  0  0  0  0  0  0  0  0  0  0
    0.6243   -2.5782    0.6392 H   0  0  0  0  0  0  0  0  0  0  0  0
   -1.2615    1.6411    0.1047 H   0  0  0  0  0  0  0  0  0  0  0  0
   -6.4513    0.5658    2.3251 H   0  0  0  0  0  0  0  0  0  0  0  0
   -8.3368    2.1288    2.1888 H   0  0  0  0  0  0  0  0  0  0  0  0
   -9.2805    2.6545   -0.0535 H   0  0  0  0  0  0  0  0  0  0  0  0
   -8.4187    1.4169   -4.4255 H   0  0  0  0  0  0  0  0  0  0  0  0
   -6.5291   -0.1485   -4.2796 H   0  0  0  0  0  0  0  0  0  0  0  0
   -5.5318   -0.7229   -2.0670 H   0  0  0  0  0  0  0  0  0  0  0  0
   -6.2346   -2.6146    0.6029 H   0  0  0  0  0  0  0  0  0  0  0  0
   -1.3615   -2.5764    0.6273 H   0  0  0  0  0  0  0  0  0  0  0  0
    2.9399    1.6648    0.1275 H   0  0  0  0  0  0  0  0  0  0  0  0
    5.6166    0.1697   -1.8018 H   0  0  0  0  0  0  0  0  0  0  0  0
    6.9730    1.1395   -1.1608 H   0  0  0  0  0  0  0  0  0  0  0  0
    7.5258   -1.4369   -1.5469 H   0  0  0  0  0  0  0  0  0  0  0  0
    6.3468   -1.6915   -0.2110 H   0  0  0  0  0  0  0  0  0  0  0  0
  1  2  1  0
  2  3  1  0
  3  4  1  0
  4  5  1  0
  5  6  1  0
  6  7  1  0
  7  8  2  0
  8  9  1  0
  9 10  2  0
 10 11  1  0
 11 12  1  0
 12 13  2  0
 13 14  1  0
 14 15  2  0
 15 16  1  0
 16 17  2  0
 17 18  1  0
 18 19  2  0
 19 20  1  0
 20 21  2  0
 21 22  1  0
 22 23  2  0
 23 24  1  0
 24 25  2  0
 15 26  1  0
 26 27  2  0
 27 28  1  0
 28 29  1  0
 10 30  1  0
 30 31  2  0
  5 32  1  0
 32 33  1  0
 33  2  1  0
 31  7  1  0
 29 11  2  0
 28 14  1  0
 25 16  1  0
 25 20  1  0
  1 34  1  0
  1 35  1  0
  1 36  1  0
  3 37  1  0
  3 38  1  0
  4 39  1  0
  4 40  1  0
  5 41  1  0
  8 42  1  0
  9 43  1  0
 12 44  1  0
 17 45  1  0
 18 46  1  0
 19 47  1  0
 22 48  1  0
 23 49  1  0
 24 50  1  0
 26 51  1  0
 29 52  1  0
 31 53  1  0
 32 54  1  0
 32 55  1  0
 33 56  1  0
 33 57  1  0
M  END
$$$$
