
     RDKit          3D

 68 70  0  0  0  0  0  0  0  0999 V2000
   -6.3604    1.3624    2.8409 C   0  0  0  0  0  0  0  0  0  0  0  0
   -6.3151    0.7543    1.4529 C   0  0  0  0  0  0  0  0  0  0  0  0
   -7.6764    0.3293    1.0152 C   0  0  0  0  0  0  0  0  0  0  0  0
   -5.6875    1.6162    0.5497 O   0  0  0  0  0  0  0  0  0  0  0  0
   -4.5097    1.1427    0.0935 N   0  0  0  0  0  0  0  0  0  0  0  0
   -4.7313    0.2452   -0.9600 C   0  0  1  0  0  0  0  0  0  0  0  0
   -5.1534    0.8691   -2.2336 C   0  0  0  0  0  0  0  0  0  0  0  0
   -4.8205    2.0590   -2.4713 O   0  0  0  0  0  0  0  0  0  0  0  0
   -5.9257    0.2308   -3.2378 N   0  0  0  0  0  0  0  0  0  0  0  0
   -6.2699    0.8872   -4.3949 O   0  0  0  0  0  0  0  0  0  0  0  0
   -3.6459   -0.7960   -1.1141 C   0  0  0  0  0  0  0  0  0  0  0  0
   -3.9862   -1.7050   -2.2662 C   0  0  0  0  0  0  0  0  0  0  0  0
   -3.6410   -1.6589    0.1288 C   0  0  0  0  0  0  0  0  0  0  0  0
   -3.3135    2.2571    0.1973 S   0  0  0  0  0  6  0  0  0  0  0  0
   -3.4377    3.3981   -0.8168 O   0  0  0  0  0  0  0  0  0  0  0  0
   -3.5208    3.0203    1.5312 O   0  0  0  0  0  0  0  0  0  0  0  0
   -1.6648    1.7667    0.2095 C   0  0  0  0  0  0  0  0  0  0  0  0
   -1.0369    1.3652    1.3673 C   0  0  0  0  0  0  0  0  0  0  0  0
    0.2809    0.9884    1.4271 C   0  0  0  0  0  0  0  0  0  0  0  0
    1.0230    1.0122    0.2600 C   0  0  0  0  0  0  0  0  0  0  0  0
    2.4259    0.6093    0.3441 C   0  0  0  0  0  0  0  0  0  0  0  0
    3.1356    0.8559    1.4951 C   0  0  0  0  0  0  0  0  0  0  0  0
    4.4667    0.4929    1.6264 C   0  0  0  0  0  0  0  0  0  0  0  0
    5.1102   -0.1334    0.5832 C   0  0  0  0  0  0  0  0  0  0  0  0
    6.4390   -0.5135    0.6719 O   0  0  0  0  0  0  0  0  0  0  0  0
    7.0691   -1.1544   -0.4196 C   0  0  0  0  0  0  0  0  0  0  0  0
    8.4829   -1.4245   -0.0075 C   0  0  0  0  0  0  0  0  0  0  0  0
    9.4527   -0.4718   -0.2581 C   0  0  0  0  0  0  0  0  0  0  0  0
   10.7690   -0.6592    0.0980 C   0  0  0  0  0  0  0  0  0  0  0  0
   11.1140   -1.8328    0.7208 C   0  0  0  0  0  0  0  0  0  0  0  0
   12.7705   -2.1502    1.2090 Cl  0  0  0  0  0  0  0  0  0  0  0  0
   10.1607   -2.8065    0.9846 C   0  0  0  0  0  0  0  0  0  0  0  0
    8.8309   -2.6002    0.6167 C   0  0  0  0  0  0  0  0  0  0  0  0
    4.4097   -0.3821   -0.5652 C   0  0  0  0  0  0  0  0  0  0  0  0
    3.0751   -0.0161   -0.6923 C   0  0  0  0  0  0  0  0  0  0  0  0
    0.4380    1.4062   -0.9218 C   0  0  0  0  0  0  0  0  0  0  0  0
   -0.9101    1.7838   -0.9420 C   0  0  0  0  0  0  0  0  0  0  0  0
   -6.0137    0.6372    3.5912 H   0  0  0  0  0  0  0  0  0  0  0  0
   -7.4289    1.5628    3.0716 H   0  0  0  0  0  0  0  0  0  0  0  0
   -5.8171    2.3298    2.8657 H   0  0  0  0  0  0  0  0  0  0  0  0
   -5.6597   -0.1348    1.5181 H   0  0  0  0  0  0  0  0  0  0  0  0
   -8.4147    0.7667    1.7175 H   0  0  0  0  0  0  0  0  0  0  0  0
   -7.8749    0.5813   -0.0447 H   0  0  0  0  0  0  0  0  0  0  0  0
   -7.7668   -0.7670    1.0945 H   0  0  0  0  0  0  0  0  0  0  0  0
   -5.6493   -0.3529   -0.6429 H   0  0  0  0  0  0  0  0  0  0  0  0
   -6.2618   -0.7397   -3.1143 H   0  0  0  0  0  0  0  0  0  0  0  0
   -7.1586    0.5365   -4.6514 H   0  0  0  0  0  0  0  0  0  0  0  0
   -2.6612   -0.3858   -1.3502 H   0  0  0  0  0  0  0  0  0  0  0  0
   -3.9645   -1.1076   -3.1973 H   0  0  0  0  0  0  0  0  0  0  0  0
   -3.1024   -2.4190   -2.3727 H   0  0  0  0  0  0  0  0  0  0  0  0
   -4.8827   -2.3044   -2.0930 H   0  0  0  0  0  0  0  0  0  0  0  0
   -2.8143   -2.3985    0.0921 H   0  0  0  0  0  0  0  0  0  0  0  0
   -3.5123   -1.0757    1.0521 H   0  0  0  0  0  0  0  0  0  0  0  0
   -4.5870   -2.2189    0.1532 H   0  0  0  0  0  0  0  0  0  0  0  0
   -1.6141    1.3424    2.2998 H   0  0  0  0  0  0  0  0  0  0  0  0
    0.7552    0.6725    2.3656 H   0  0  0  0  0  0  0  0  0  0  0  0
    2.6813    1.3468    2.3525 H   0  0  0  0  0  0  0  0  0  0  0  0
    4.9877    0.7073    2.5516 H   0  0  0  0  0  0  0  0  0  0  0  0
    6.5806   -2.1201   -0.6817 H   0  0  0  0  0  0  0  0  0  0  0  0
    7.0826   -0.5133   -1.3122 H   0  0  0  0  0  0  0  0  0  0  0  0
    9.1322    0.4415   -0.7519 H   0  0  0  0  0  0  0  0  0  0  0  0
   11.4917    0.1081   -0.1167 H   0  0  0  0  0  0  0  0  0  0  0  0
   10.4382   -3.7311    1.4765 H   0  0  0  0  0  0  0  0  0  0  0  0
    8.0588   -3.3346    0.8044 H   0  0  0  0  0  0  0  0  0  0  0  0
    4.8838   -0.8694   -1.3984 H   0  0  0  0  0  0  0  0  0  0  0  0
    2.5265   -0.2083   -1.5846 H   0  0  0  0  0  0  0  0  0  0  0  0
    1.0283    1.4195   -1.8254 H   0  0  0  0  0  0  0  0  0  0  0  0
   -1.3104    2.0811   -1.9009 H   0  0  0  0  0  0  0  0  0  0  0  0
  1  2  1  0
  2  3  1  0
  2  4  1  0
  4  5  1  0
  5  6  1  0
  6  7  1  0
  7  8  2  0
  7  9  1  0
  9 10  1  0
  6 11  1  0
 11 12  1  0
 11 13  1  0
  5 14  1  0
 14 15  2  0
 14 16  2  0
 14 17  1  0
 17 18  2  0
 18 19  1  0
 19 20  2  0
 20 21  1  0
 21 22  2  0
 22 23  1  0
 23 24  2  0
 24 25  1  0
 25 26  1  0
 26 27  1  0
 27 28  2  0
 28 29  1  0
 29 30  2  0
 30 31  1  0
 30 32  1  0
 32 33  2  0
 24 34  1  0
 34 35  2  0
 20 36  1  0
 36 37  2  0
 37 17  1  0
 35 21  1  0
 33 27  1  0
  1 38  1  0
  1 39  1  0
  1 40  1  0
  2 41  1  0
  3 42  1  0
  3 43  1  0
  3 44  1  0
  6 45  1  1
  9 46  1  0
 10 47  1  0
 11 48  1  0
 12 49  1  0
 12 50  1  0
 12 51  1  0
 13 52  1  0
 13 53  1  0
 13 54  1  0
 18 55  1  0
 19 56  1  0
 22 57  1  0
 23 58  1  0
 26 59  1  0
 26 60  1  0
 28 61  1  0
 29 62  1  0
 32 63  1  0
 33 64  1  0
 34 65  1  0
 35 66  1  0
 36 67  1  0
 37 68  1  0
M  END
$$$$
