
     RDKit          3D

 49 50  0  0  0  0  0  0  0  0999 V2000
   -1.1567   -0.0757    0.1897 C   0  0  2  0  0  0  0  0  0  0  0  0
   -1.4045    1.2965    0.4933 N   0  0  0  0  0  0  0  0  0  0  0  0
   -2.2665   -0.9558    0.7105 C   0  0  0  0  0  0  0  0  0  0  0  0
   -3.5987   -0.6087    0.1175 C   0  0  0  0  0  0  0  0  0  0  0  0
   -4.0812    0.7751    0.3759 C   0  0  0  0  0  0  0  0  0  0  0  0
   -5.5641    0.8263    0.6792 C   0  0  0  0  0  0  0  0  0  0  0  0
   -6.4054   -0.0745   -0.1549 C   0  0  0  0  0  0  0  0  0  0  0  0
   -5.8165   -1.4097   -0.4812 C   0  0  0  0  0  0  0  0  0  0  0  0
   -4.6416   -1.6583    0.4340 C   0  0  0  0  0  0  0  0  0  0  0  0
    0.1517   -0.6078    0.7337 C   0  0  2  0  0  0  0  0  0  0  0  0
    0.1207   -0.4740    2.1190 O   0  0  0  0  0  0  0  0  0  0  0  0
    1.3052    0.2107    0.2570 C   0  0  0  0  0  0  0  0  0  0  0  0
    1.4585    0.4649    1.4751 O   0  0  0  0  0  0  0  0  0  0  0  0
    1.7712    0.4147   -1.0519 N   0  0  0  0  0  0  0  0  0  0  0  0
    2.8963    1.2749   -0.9728 N   0  0  0  0  0  0  0  0  0  0  0  0
    4.2626    0.8860   -0.8219 C   0  0  0  0  0  0  0  0  0  0  0  0
    5.2556    1.8427   -0.7596 C   0  0  0  0  0  0  0  0  0  0  0  0
    6.5481    1.4058   -0.6142 C   0  0  0  0  0  0  0  0  0  0  0  0
    6.8160    0.0405   -0.5355 C   0  0  0  0  0  0  0  0  0  0  0  0
    8.2394   -0.4096   -0.3766 C   0  0  0  0  0  0  0  0  0  0  0  0
    5.8096   -0.9216   -0.5989 C   0  0  0  0  0  0  0  0  0  0  0  0
    4.5127   -0.4643   -0.7455 C   0  0  0  0  0  0  0  0  0  0  0  0
   -1.1189   -0.2284   -0.9212 H   0  0  0  0  0  0  0  0  0  0  0  0
   -0.7540    1.7226    1.1900 H   0  0  0  0  0  0  0  0  0  0  0  0
   -1.4493    1.9006   -0.3738 H   0  0  0  0  0  0  0  0  0  0  0  0
   -1.9880   -2.0194    0.4758 H   0  0  0  0  0  0  0  0  0  0  0  0
   -2.2721   -0.9237    1.8238 H   0  0  0  0  0  0  0  0  0  0  0  0
   -3.4586   -0.6826   -1.0014 H   0  0  0  0  0  0  0  0  0  0  0  0
   -3.8159    1.5253   -0.3925 H   0  0  0  0  0  0  0  0  0  0  0  0
   -3.5927    1.1329    1.3316 H   0  0  0  0  0  0  0  0  0  0  0  0
   -5.7567    0.7012    1.7821 H   0  0  0  0  0  0  0  0  0  0  0  0
   -5.8759    1.8764    0.4761 H   0  0  0  0  0  0  0  0  0  0  0  0
   -6.8026    0.4352   -1.0726 H   0  0  0  0  0  0  0  0  0  0  0  0
   -7.3453   -0.2618    0.4492 H   0  0  0  0  0  0  0  0  0  0  0  0
   -6.5672   -2.2064   -0.2656 H   0  0  0  0  0  0  0  0  0  0  0  0
   -5.5341   -1.5063   -1.5536 H   0  0  0  0  0  0  0  0  0  0  0  0
   -4.1927   -2.6555    0.2883 H   0  0  0  0  0  0  0  0  0  0  0  0
   -4.9917   -1.4737    1.4650 H   0  0  0  0  0  0  0  0  0  0  0  0
    0.2350   -1.6606    0.4390 H   0  0  0  0  0  0  0  0  0  0  0  0
   -0.6210    0.1076    2.4190 H   0  0  0  0  0  0  0  0  0  0  0  0
    1.2113   -0.0895   -1.7632 H   0  0  0  0  0  0  0  0  0  0  0  0
    2.6256    2.3000   -1.0388 H   0  0  0  0  0  0  0  0  0  0  0  0
    4.9432    2.8785   -0.8302 H   0  0  0  0  0  0  0  0  0  0  0  0
    7.3204    2.1567   -0.5660 H   0  0  0  0  0  0  0  0  0  0  0  0
    8.6238   -0.7943   -1.3427 H   0  0  0  0  0  0  0  0  0  0  0  0
    8.2924   -1.2468    0.3578 H   0  0  0  0  0  0  0  0  0  0  0  0
    8.8738    0.4162   -0.0405 H   0  0  0  0  0  0  0  0  0  0  0  0
    6.0847   -1.9664   -0.5317 H   0  0  0  0  0  0  0  0  0  0  0  0
    3.7145   -1.2159   -0.7963 H   0  0  0  0  0  0  0  0  0  0  0  0
  1  2  1  0
  1  3  1  0
  3  4  1  0
  4  5  1  0
  5  6  1  0
  6  7  1  0
  7  8  1  0
  8  9  1  0
  1 10  1  0
 10 11  1  0
 10 12  1  0
 12 13  2  0
 12 14  1  0
 14 15  1  0
 15 16  1  0
 16 17  2  0
 17 18  1  0
 18 19  2  0
 19 20  1  0
 19 21  1  0
 21 22  2  0
  9  4  1  0
 22 16  1  0
  1 23  1  6
  2 24  1  0
  2 25  1  0
  3 26  1  0
  3 27  1  0
  4 28  1  0
  5 29  1  0
  5 30  1  0
  6 31  1  0
  6 32  1  0
  7 33  1  0
  7 34  1  0
  8 35  1  0
  8 36  1  0
  9 37  1  0
  9 38  1  0
 10 39  1  1
 11 40  1  0
 14 41  1  0
 15 42  1  0
 17 43  1  0
 18 44  1  0
 20 45  1  0
 20 46  1  0
 20 47  1  0
 21 48  1  0
 22 49  1  0
M  END
$$$$
