
     RDKit          3D

 51 55  0  0  0  0  0  0  0  0999 V2000
   -4.7767   -2.4585    0.0787 C   0  0  0  0  0  0  0  0  0  0  0  0
   -3.8394   -1.4301   -0.0065 O   0  0  0  0  0  0  0  0  0  0  0  0
   -2.4648   -1.6236    0.0768 C   0  0  0  0  0  0  0  0  0  0  0  0
   -2.0514   -2.9280    0.2542 C   0  0  0  0  0  0  0  0  0  0  0  0
   -0.7070   -3.1788    0.3431 C   0  0  0  0  0  0  0  0  0  0  0  0
    0.2464   -2.2020    0.2650 C   0  0  0  0  0  0  0  0  0  0  0  0
    1.6925   -2.5641    0.3739 C   0  0  0  0  0  0  0  0  0  0  0  0
    2.5716   -1.6779    0.2992 N   0  0  0  0  0  0  0  0  0  0  0  0
    3.9509   -1.7302    0.3649 N   0  0  0  0  0  0  0  0  0  0  0  0
    4.5688   -2.9053    0.5391 C   0  0  0  0  0  0  0  0  0  0  0  0
    5.8839   -2.6266    0.5696 N   0  0  0  0  0  0  0  0  0  0  0  0
    6.0850   -1.3487    0.4228 N   0  0  0  0  0  0  0  0  0  0  0  0
    4.8673   -0.7338    0.2875 C   0  0  0  0  0  0  0  0  0  0  0  0
    4.6899    0.6962    0.1035 C   0  0  0  0  0  0  0  0  0  0  0  0
    3.4698    1.3013   -0.0396 C   0  0  0  0  0  0  0  0  0  0  0  0
    3.3386    2.6850   -0.2140 C   0  0  0  0  0  0  0  0  0  0  0  0
    4.4468    3.5015   -0.2489 C   0  0  0  0  0  0  0  0  0  0  0  0
    5.6794    2.9044   -0.1061 C   0  0  0  0  0  0  0  0  0  0  0  0
    5.7925    1.5296    0.0662 C   0  0  0  0  0  0  0  0  0  0  0  0
    7.0111    0.9471    0.2063 F   0  0  0  0  0  0  0  0  0  0  0  0
    3.6371   -4.3989    0.6680 S   0  0  0  0  0  0  0  0  0  0  0  0
    1.9180   -4.0032    0.5775 C   0  0  0  0  0  0  0  0  0  0  0  0
   -0.1761   -0.9171    0.0896 C   0  0  0  0  0  0  0  0  0  0  0  0
   -1.5573   -0.6042   -0.0085 C   0  0  0  0  0  0  0  0  0  0  0  0
   -1.9420    0.6770   -0.1818 O   0  0  0  0  0  0  0  0  0  0  0  0
   -3.0973    1.3645   -0.3159 C   0  0  0  0  0  0  0  0  0  0  0  0
   -3.2409    2.4653    0.7616 C   0  0  0  0  0  0  0  0  0  0  0  0
   -4.4115    3.2430    0.2218 C   0  0  0  0  0  0  0  0  0  0  0  0
   -4.4498    3.0245   -1.2673 C   0  0  0  0  0  0  0  0  0  0  0  0
   -3.1544    2.2556   -1.5558 C   0  0  0  0  0  0  0  0  0  0  0  0
   -4.7028   -3.1992   -0.7372 H   0  0  0  0  0  0  0  0  0  0  0  0
   -5.8018   -2.0444    0.0525 H   0  0  0  0  0  0  0  0  0  0  0  0
   -4.7106   -3.0120    1.0583 H   0  0  0  0  0  0  0  0  0  0  0  0
   -2.7594   -3.7420    0.3230 H   0  0  0  0  0  0  0  0  0  0  0  0
   -0.4146   -4.2124    0.4811 H   0  0  0  0  0  0  0  0  0  0  0  0
    2.6072    0.6647   -0.0133 H   0  0  0  0  0  0  0  0  0  0  0  0
    2.3578    3.1173   -0.3224 H   0  0  0  0  0  0  0  0  0  0  0  0
    4.3384    4.5780   -0.3850 H   0  0  0  0  0  0  0  0  0  0  0  0
    6.5556    3.5378   -0.1323 H   0  0  0  0  0  0  0  0  0  0  0  0
    1.4583   -4.5092   -0.3411 H   0  0  0  0  0  0  0  0  0  0  0  0
    1.3455   -4.3703    1.4825 H   0  0  0  0  0  0  0  0  0  0  0  0
    0.5028   -0.1017    0.0198 H   0  0  0  0  0  0  0  0  0  0  0  0
   -4.0062    0.7679   -0.2823 H   0  0  0  0  0  0  0  0  0  0  0  0
   -2.3010    3.0550    0.7382 H   0  0  0  0  0  0  0  0  0  0  0  0
   -3.4259    2.0255    1.7432 H   0  0  0  0  0  0  0  0  0  0  0  0
   -5.3707    2.9589    0.6970 H   0  0  0  0  0  0  0  0  0  0  0  0
   -4.2552    4.3307    0.3851 H   0  0  0  0  0  0  0  0  0  0  0  0
   -4.5342    3.9362   -1.8578 H   0  0  0  0  0  0  0  0  0  0  0  0
   -5.2714    2.3091   -1.5354 H   0  0  0  0  0  0  0  0  0  0  0  0
   -3.2751    1.6922   -2.4801 H   0  0  0  0  0  0  0  0  0  0  0  0
   -2.3179    2.9537   -1.5188 H   0  0  0  0  0  0  0  0  0  0  0  0
  1  2  1  0
  2  3  1  0
  3  4  2  0
  4  5  1  0
  5  6  2  0
  6  7  1  0
  7  8  2  0
  8  9  1  0
  9 10  1  0
 10 11  2  0
 11 12  1  0
 12 13  2  0
 13 14  1  0
 14 15  2  0
 15 16  1  0
 16 17  2  0
 17 18  1  0
 18 19  2  0
 19 20  1  0
 10 21  1  0
 21 22  1  0
  6 23  1  0
 23 24  2  0
 24 25  1  0
 25 26  1  0
 26 27  1  0
 27 28  1  0
 28 29  1  0
 29 30  1  0
 24  3  1  0
 30 26  1  0
 22  7  1  0
 13  9  1  0
 19 14  1  0
  1 31  1  0
  1 32  1  0
  1 33  1  0
  4 34  1  0
  5 35  1  0
 15 36  1  0
 16 37  1  0
 17 38  1  0
 18 39  1  0
 22 40  1  0
 22 41  1  0
 23 42  1  0
 26 43  1  0
 27 44  1  0
 27 45  1  0
 28 46  1  0
 28 47  1  0
 29 48  1  0
 29 49  1  0
 30 50  1  0
 30 51  1  0
M  END
$$$$
