
     RDKit          3D

 55 57  0  0  0  0  0  0  0  0999 V2000
    1.8158   -1.5081    0.1708 C   0  0  1  0  0  0  0  0  0  0  0  0
    1.2991   -1.8788    1.5425 C   0  0  0  0  0  0  0  0  0  0  0  0
   -0.1139   -2.3732    1.5714 C   0  0  0  0  0  0  0  0  0  0  0  0
   -1.1261   -1.3827    1.1400 C   0  0  0  0  0  0  0  0  0  0  0  0
   -0.9954   -0.1265    0.5774 C   0  0  0  0  0  0  0  0  0  0  0  0
   -1.9718    0.7612    0.1670 C   0  0  0  0  0  0  0  0  0  0  0  0
   -1.7999    2.0257   -0.4176 O   0  0  0  0  0  0  0  0  0  0  0  0
   -1.7559    2.1512   -1.8418 C   0  0  0  0  0  0  0  0  0  0  0  0
   -3.2740    0.2714    0.3788 C   0  0  0  0  0  0  0  0  0  0  0  0
   -4.3934    1.0211    0.0335 O   0  0  0  0  0  0  0  0  0  0  0  0
   -5.0211    0.9665   -1.2277 C   0  0  0  0  0  0  0  0  0  0  0  0
   -3.4917   -0.9913    0.9460 C   0  0  0  0  0  0  0  0  0  0  0  0
   -4.7936   -1.4440    1.1412 O   0  0  0  0  0  0  0  0  0  0  0  0
   -5.0105   -2.7036    1.7071 C   0  0  0  0  0  0  0  0  0  0  0  0
   -2.4075   -1.7969    1.3161 C   0  0  0  0  0  0  0  0  0  0  0  0
    0.3032    0.5552    0.3633 C   0  0  0  0  0  0  0  0  0  0  0  0
   -0.0279    1.9070    0.6654 C   0  0  0  0  0  0  0  0  0  0  0  0
    0.7014    3.0076    0.1941 C   0  0  0  0  0  0  0  0  0  0  0  0
    1.9599    2.9800   -0.3594 C   0  0  0  0  0  0  0  0  0  0  0  0
    2.4858    4.2533   -0.5098 O   0  0  0  0  0  0  0  0  0  0  0  0
    1.8281    5.4263   -0.1475 C   0  0  0  0  0  0  0  0  0  0  0  0
    2.7582    1.9374   -0.7750 C   0  0  0  0  0  0  0  0  0  0  0  0
    3.7846    2.2098   -1.4349 O   0  0  0  0  0  0  0  0  0  0  0  0
    2.6138    0.5833   -0.5797 C   0  0  0  0  0  0  0  0  0  0  0  0
    1.5216   -0.0373   -0.0131 C   0  0  0  0  0  0  0  0  0  0  0  0
    3.2404   -1.7343    0.0514 N   0  0  0  0  0  0  0  0  0  0  0  0
    3.8300   -2.5429   -0.9551 C   0  0  0  0  0  0  0  0  0  0  0  0
    3.2056   -3.1671   -1.8710 O   0  0  0  0  0  0  0  0  0  0  0  0
    5.3105   -2.6794   -0.9473 C   0  0  0  0  0  0  0  0  0  0  0  0
    5.8747   -3.7440   -2.2995 S   0  0  0  0  0  0  0  0  0  0  0  0
    1.2247   -2.0290   -0.5939 H   0  0  0  0  0  0  0  0  0  0  0  0
    1.3370   -0.9957    2.2376 H   0  0  0  0  0  0  0  0  0  0  0  0
    1.9324   -2.6577    2.0239 H   0  0  0  0  0  0  0  0  0  0  0  0
   -0.3356   -2.7433    2.5888 H   0  0  0  0  0  0  0  0  0  0  0  0
   -0.1685   -3.2025    0.8151 H   0  0  0  0  0  0  0  0  0  0  0  0
   -0.9975    2.8764   -2.1384 H   0  0  0  0  0  0  0  0  0  0  0  0
   -1.6117    1.1842   -2.3496 H   0  0  0  0  0  0  0  0  0  0  0  0
   -2.7505    2.6113   -2.1045 H   0  0  0  0  0  0  0  0  0  0  0  0
   -5.4458    1.9810   -1.4180 H   0  0  0  0  0  0  0  0  0  0  0  0
   -4.3236    0.7363   -2.0522 H   0  0  0  0  0  0  0  0  0  0  0  0
   -5.8832    0.2864   -1.1529 H   0  0  0  0  0  0  0  0  0  0  0  0
   -6.1054   -2.8991    1.7037 H   0  0  0  0  0  0  0  0  0  0  0  0
   -4.6085   -2.8350    2.7280 H   0  0  0  0  0  0  0  0  0  0  0  0
   -4.5119   -3.4748    1.0674 H   0  0  0  0  0  0  0  0  0  0  0  0
   -2.6429   -2.7556    1.7448 H   0  0  0  0  0  0  0  0  0  0  0  0
   -0.9162    1.9583    1.3419 H   0  0  0  0  0  0  0  0  0  0  0  0
    0.1191    3.8864    0.3350 H   0  0  0  0  0  0  0  0  0  0  0  0
    2.4373    6.2868   -0.4931 H   0  0  0  0  0  0  0  0  0  0  0  0
    0.8780    5.4770   -0.7463 H   0  0  0  0  0  0  0  0  0  0  0  0
    1.6694    5.5528    0.9366 H   0  0  0  0  0  0  0  0  0  0  0  0
    3.3485   -0.1286   -0.8540 H   0  0  0  0  0  0  0  0  0  0  0  0
    3.8431   -1.2604    0.7646 H   0  0  0  0  0  0  0  0  0  0  0  0
    5.7013   -3.0318    0.0513 H   0  0  0  0  0  0  0  0  0  0  0  0
    5.8185   -1.6880   -1.1029 H   0  0  0  0  0  0  0  0  0  0  0  0
    5.6419   -5.0820   -1.9193 H   0  0  0  0  0  0  0  0  0  0  0  0
  1  2  1  0
  2  3  1  0
  3  4  1  0
  4  5  2  0
  5  6  1  0
  6  7  1  0
  7  8  1  0
  6  9  2  0
  9 10  1  0
 10 11  1  0
  9 12  1  0
 12 13  1  0
 13 14  1  0
 12 15  2  0
  5 16  1  0
 16 17  2  0
 17 18  1  0
 18 19  2  0
 19 20  1  0
 20 21  1  0
 19 22  1  0
 22 23  2  0
 22 24  1  0
 24 25  2  0
  1 26  1  0
 26 27  1  0
 27 28  2  0
 27 29  1  0
 29 30  1  0
 25  1  1  0
 15  4  1  0
 25 16  1  0
  1 31  1  6
  2 32  1  0
  2 33  1  0
  3 34  1  0
  3 35  1  0
  8 36  1  0
  8 37  1  0
  8 38  1  0
 11 39  1  0
 11 40  1  0
 11 41  1  0
 14 42  1  0
 14 43  1  0
 14 44  1  0
 15 45  1  0
 17 46  1  0
 18 47  1  0
 21 48  1  0
 21 49  1  0
 21 50  1  0
 24 51  1  0
 26 52  1  0
 29 53  1  0
 29 54  1  0
 30 55  1  0
M  END
$$$$
