
     RDKit          3D

 39 41  0  0  0  0  0  0  0  0999 V2000
   -7.2837   -1.2379   -1.4316 C   0  0  0  0  0  0  0  0  0  0  0  0
   -6.2535   -1.4937   -0.4335 N   0  0  0  0  0  0  0  0  0  0  0  0
   -4.9790   -0.8766   -0.5995 C   0  0  0  0  0  0  0  0  0  0  0  0
   -4.8003   -0.1272   -1.6174 O   0  0  0  0  0  0  0  0  0  0  0  0
   -3.8683   -1.0436    0.3133 C   0  0  0  0  0  0  0  0  0  0  0  0
   -4.0150   -1.8395    1.4200 C   0  0  0  0  0  0  0  0  0  0  0  0
   -2.9330   -1.9820    2.2791 C   0  0  0  0  0  0  0  0  0  0  0  0
   -1.7532   -1.3301    2.0043 C   0  0  0  0  0  0  0  0  0  0  0  0
   -1.5844   -0.5264    0.8990 C   0  0  0  0  0  0  0  0  0  0  0  0
   -0.3617    0.1401    0.6281 N   0  0  0  0  0  0  0  0  0  0  0  0
    0.7284   -0.0403    1.5488 C   0  0  0  0  0  0  0  0  0  0  0  0
    1.9342    0.7026    1.1531 C   0  0  0  0  0  0  0  0  0  0  0  0
    2.9699    0.3285    0.3804 N   0  0  0  0  0  0  0  0  0  0  0  0
    3.8678    1.3249    0.2740 C   0  0  0  0  0  0  0  0  0  0  0  0
    5.1270    1.3463   -0.4622 C   0  0  0  0  0  0  0  0  0  0  0  0
    5.8314    0.1758   -0.6581 C   0  0  0  0  0  0  0  0  0  0  0  0
    7.0110    0.2407   -1.3560 C   0  0  0  0  0  0  0  0  0  0  0  0
    7.5329    1.3695   -1.8656 N   0  0  0  0  0  0  0  0  0  0  0  0
    6.8518    2.5288   -1.6812 C   0  0  0  0  0  0  0  0  0  0  0  0
    5.6656    2.4990   -0.9859 C   0  0  0  0  0  0  0  0  0  0  0  0
    3.3493    2.3261    1.0080 N   0  0  0  0  0  0  0  0  0  0  0  0
    2.1933    1.9647    1.5381 N   0  0  0  0  0  0  0  0  0  0  0  0
   -2.6722   -0.4058    0.0695 C   0  0  0  0  0  0  0  0  0  0  0  0
   -7.0042   -1.7330   -2.3864 H   0  0  0  0  0  0  0  0  0  0  0  0
   -8.2244   -1.7060   -1.0923 H   0  0  0  0  0  0  0  0  0  0  0  0
   -7.4238   -0.1641   -1.5948 H   0  0  0  0  0  0  0  0  0  0  0  0
   -6.4324   -2.1004    0.3701 H   0  0  0  0  0  0  0  0  0  0  0  0
   -4.9430   -2.3677    1.6593 H   0  0  0  0  0  0  0  0  0  0  0  0
   -3.0762   -2.6130    3.1404 H   0  0  0  0  0  0  0  0  0  0  0  0
   -0.8996   -1.4423    2.6816 H   0  0  0  0  0  0  0  0  0  0  0  0
   -0.2892    0.7303   -0.2144 H   0  0  0  0  0  0  0  0  0  0  0  0
    0.9384   -1.1410    1.6577 H   0  0  0  0  0  0  0  0  0  0  0  0
    0.4152    0.3005    2.5429 H   0  0  0  0  0  0  0  0  0  0  0  0
    5.4250   -0.7436   -0.2539 H   0  0  0  0  0  0  0  0  0  0  0  0
    7.5445   -0.7096   -1.4927 H   0  0  0  0  0  0  0  0  0  0  0  0
    7.2799    3.4269   -2.0942 H   0  0  0  0  0  0  0  0  0  0  0  0
    5.1256    3.4200   -0.8401 H   0  0  0  0  0  0  0  0  0  0  0  0
    1.5856    2.5785    2.1597 H   0  0  0  0  0  0  0  0  0  0  0  0
   -2.5796    0.2207   -0.8153 H   0  0  0  0  0  0  0  0  0  0  0  0
  1  2  1  0
  2  3  1  0
  3  4  2  0
  3  5  1  0
  5  6  2  0
  6  7  1  0
  7  8  2  0
  8  9  1  0
  9 10  1  0
 10 11  1  0
 11 12  1  0
 12 13  2  0
 13 14  1  0
 14 15  1  0
 15 16  2  0
 16 17  1  0
 17 18  2  0
 18 19  1  0
 19 20  2  0
 14 21  2  0
 21 22  1  0
  9 23  2  0
 23  5  1  0
 22 12  1  0
 20 15  1  0
  1 24  1  0
  1 25  1  0
  1 26  1  0
  2 27  1  0
  6 28  1  0
  7 29  1  0
  8 30  1  0
 10 31  1  0
 11 32  1  0
 11 33  1  0
 16 34  1  0
 17 35  1  0
 19 36  1  0
 20 37  1  0
 22 38  1  0
 23 39  1  0
M  END
$$$$
