
     RDKit          3D

 88 94  0  0  0  0  0  0  0  0999 V2000
   -7.0158    1.7596   -3.7787 C   0  0  0  0  0  0  0  0  0  0  0  0
   -6.9124    0.8004   -2.6445 C   0  0  0  0  0  0  0  0  0  0  0  0
   -7.9216    0.0259   -2.2904 C   0  0  0  0  0  0  0  0  0  0  0  0
   -7.8658   -0.5501   -0.9188 C   0  0  0  0  0  0  0  0  0  0  0  0
   -6.9734   -1.7324   -0.8527 C   0  0  0  0  0  0  0  0  0  0  0  0
   -5.8862   -1.6304    0.1468 C   0  0  0  0  0  0  0  0  0  0  0  0
   -5.4853   -2.7617    0.8019 N   0  0  0  0  0  0  0  0  0  0  0  0
   -4.4721   -2.7521    1.6655 C   0  0  0  0  0  0  0  0  0  0  0  0
   -4.0936   -3.9367    2.3143 C   0  0  0  0  0  0  0  0  0  0  0  0
   -3.0514   -3.9610    3.2072 C   0  0  0  0  0  0  0  0  0  0  0  0
   -2.5746   -5.4503    4.0243 Cl  0  0  0  0  0  0  0  0  0  0  0  0
   -2.3988   -2.7796    3.4357 C   0  0  0  0  0  0  0  0  0  0  0  0
   -2.7798   -1.5984    2.7858 C   0  0  0  0  0  0  0  0  0  0  0  0
   -3.8205   -1.5697    1.8935 C   0  0  0  0  0  0  0  0  0  0  0  0
   -4.2045   -0.3685    1.2329 C   0  0  0  0  0  0  0  0  0  0  0  0
   -3.4709    0.7795    1.4898 N   0  0  0  0  0  0  0  0  0  0  0  0
   -3.5199    2.0917    0.9459 C   0  0  0  0  0  0  0  0  0  0  0  0
   -2.2457    2.9112    1.2207 C   0  0  0  0  0  0  0  0  0  0  0  0
   -1.0682    2.3778    0.5205 C   0  0  0  0  0  0  0  0  0  0  0  0
   -0.6741    0.9834    0.8481 C   0  0  0  0  0  0  0  0  0  0  0  0
    0.5772    0.5594    0.0689 C   0  0  0  0  0  0  0  0  0  0  0  0
    1.7749    1.4108    0.3704 C   0  0  0  0  0  0  0  0  0  0  0  0
    2.9702    0.9034   -0.4658 C   0  0  0  0  0  0  0  0  0  0  0  0
    3.3161   -0.5154   -0.1573 C   0  0  0  0  0  0  0  0  0  0  0  0
    4.4711   -0.9574   -0.9045 N   0  0  0  0  0  0  0  0  0  0  0  0
    5.7312   -0.3104   -0.7935 C   0  0  0  0  0  0  0  0  0  0  0  0
    6.5836   -0.6781    0.2609 C   0  0  0  0  0  0  0  0  0  0  0  0
    7.8246   -0.1048    0.4336 C   0  0  0  0  0  0  0  0  0  0  0  0
    8.2060    0.8268   -0.4419 N   0  0  0  0  0  0  0  0  0  0  0  0
    7.4147    1.2125   -1.4780 C   0  0  0  0  0  0  0  0  0  0  0  0
    7.8428    2.1647   -2.3787 C   0  0  0  0  0  0  0  0  0  0  0  0
    7.0764    2.5635   -3.4477 C   0  0  0  0  0  0  0  0  0  0  0  0
    5.8401    1.9988   -3.6332 C   0  0  0  0  0  0  0  0  0  0  0  0
    5.3924    1.0483   -2.7483 C   0  0  0  0  0  0  0  0  0  0  0  0
    6.1612    0.6525   -1.6773 C   0  0  0  0  0  0  0  0  0  0  0  0
    8.6433   -0.5686    1.5825 C   0  0  0  0  0  0  0  0  0  0  0  0
    8.6704   -2.0857    1.5010 C   0  0  0  0  0  0  0  0  0  0  0  0
    7.3028   -2.6966    1.4413 C   0  0  0  0  0  0  0  0  0  0  0  0
    6.1891   -1.7128    1.2525 C   0  0  0  0  0  0  0  0  0  0  0  0
   -5.2548   -0.4013    0.3507 C   0  0  0  0  0  0  0  0  0  0  0  0
   -5.8590    0.7282   -0.3668 C   0  0  0  0  0  0  0  0  0  0  0  0
   -5.6370    0.6758   -1.8480 C   0  0  0  0  0  0  0  0  0  0  0  0
   -7.3900    0.5813   -0.0370 C   0  0  0  0  0  0  0  0  0  0  0  0
   -7.3063    2.7432   -3.3330 H   0  0  0  0  0  0  0  0  0  0  0  0
   -6.0784    1.8371   -4.3609 H   0  0  0  0  0  0  0  0  0  0  0  0
   -7.8621    1.4380   -4.4321 H   0  0  0  0  0  0  0  0  0  0  0  0
   -8.7240   -0.1738   -2.9428 H   0  0  0  0  0  0  0  0  0  0  0  0
   -8.8829   -0.8127   -0.5447 H   0  0  0  0  0  0  0  0  0  0  0  0
   -7.5787   -2.6347   -0.5717 H   0  0  0  0  0  0  0  0  0  0  0  0
   -6.5510   -2.0024   -1.8701 H   0  0  0  0  0  0  0  0  0  0  0  0
   -4.6280   -4.8543    2.1134 H   0  0  0  0  0  0  0  0  0  0  0  0
   -1.5824   -2.7919    4.1330 H   0  0  0  0  0  0  0  0  0  0  0  0
   -2.1934   -0.7517    3.0461 H   0  0  0  0  0  0  0  0  0  0  0  0
   -2.7541    0.7004    2.2924 H   0  0  0  0  0  0  0  0  0  0  0  0
   -3.5773    2.0994   -0.1601 H   0  0  0  0  0  0  0  0  0  0  0  0
   -4.3688    2.6508    1.4454 H   0  0  0  0  0  0  0  0  0  0  0  0
   -2.1157    3.0653    2.3073 H   0  0  0  0  0  0  0  0  0  0  0  0
   -2.4992    3.9288    0.7991 H   0  0  0  0  0  0  0  0  0  0  0  0
   -0.1786    3.0877    0.6361 H   0  0  0  0  0  0  0  0  0  0  0  0
   -1.2307    2.4501   -0.6140 H   0  0  0  0  0  0  0  0  0  0  0  0
   -1.4418    0.2281    0.5040 H   0  0  0  0  0  0  0  0  0  0  0  0
   -0.4776    0.7891    1.9061 H   0  0  0  0  0  0  0  0  0  0  0  0
    0.4079    0.5352   -1.0098 H   0  0  0  0  0  0  0  0  0  0  0  0
    0.8217   -0.4747    0.4545 H   0  0  0  0  0  0  0  0  0  0  0  0
    2.0617    1.3439    1.4579 H   0  0  0  0  0  0  0  0  0  0  0  0
    1.6390    2.4915    0.1764 H   0  0  0  0  0  0  0  0  0  0  0  0
    2.6278    0.9145   -1.5397 H   0  0  0  0  0  0  0  0  0  0  0  0
    3.8214    1.5946   -0.3821 H   0  0  0  0  0  0  0  0  0  0  0  0
    3.4647   -0.6431    0.9436 H   0  0  0  0  0  0  0  0  0  0  0  0
    2.4335   -1.1334   -0.4917 H   0  0  0  0  0  0  0  0  0  0  0  0
    4.3869   -1.7927   -1.5615 H   0  0  0  0  0  0  0  0  0  0  0  0
    8.8198    2.6098   -2.2317 H   0  0  0  0  0  0  0  0  0  0  0  0
    7.4529    3.3305   -4.1491 H   0  0  0  0  0  0  0  0  0  0  0  0
    5.2258    2.3107   -4.4812 H   0  0  0  0  0  0  0  0  0  0  0  0
    4.4240    0.5787   -2.9051 H   0  0  0  0  0  0  0  0  0  0  0  0
    8.2125   -0.2922    2.5626 H   0  0  0  0  0  0  0  0  0  0  0  0
    9.7043   -0.2350    1.4930 H   0  0  0  0  0  0  0  0  0  0  0  0
    9.3051   -2.3919    0.6200 H   0  0  0  0  0  0  0  0  0  0  0  0
    9.2176   -2.4980    2.3950 H   0  0  0  0  0  0  0  0  0  0  0  0
    7.3129   -3.4388    0.5976 H   0  0  0  0  0  0  0  0  0  0  0  0
    7.1197   -3.3166    2.3627 H   0  0  0  0  0  0  0  0  0  0  0  0
    6.0027   -1.1793    2.2272 H   0  0  0  0  0  0  0  0  0  0  0  0
    5.2650   -2.2252    0.9775 H   0  0  0  0  0  0  0  0  0  0  0  0
   -5.6816    1.7321    0.0307 H   0  0  0  0  0  0  0  0  0  0  0  0
   -5.0240   -0.1853   -2.1806 H   0  0  0  0  0  0  0  0  0  0  0  0
   -5.0106    1.5784   -2.1133 H   0  0  0  0  0  0  0  0  0  0  0  0
   -7.9095    1.5010   -0.3100 H   0  0  0  0  0  0  0  0  0  0  0  0
   -7.4827    0.3553    1.0242 H   0  0  0  0  0  0  0  0  0  0  0  0
  1  2  1  0
  2  3  2  0
  3  4  1  0
  4  5  1  0
  5  6  1  0
  6  7  2  0
  7  8  1  0
  8  9  2  0
  9 10  1  0
 10 11  1  0
 10 12  2  0
 12 13  1  0
 13 14  2  0
 14 15  1  0
 15 16  1  0
 16 17  1  0
 17 18  1  0
 18 19  1  0
 19 20  1  0
 20 21  1  0
 21 22  1  0
 22 23  1  0
 23 24  1  0
 24 25  1  0
 25 26  1  0
 26 27  2  0
 27 28  1  0
 28 29  2  0
 29 30  1  0
 30 31  2  0
 31 32  1  0
 32 33  2  0
 33 34  1  0
 34 35  2  0
 28 36  1  0
 36 37  1  0
 37 38  1  0
 38 39  1  0
 15 40  2  0
 40 41  1  0
 41 42  1  0
 41 43  1  0
 42  2  1  0
 43  4  1  0
 40  6  1  0
 14  8  1  0
 35 26  1  0
 39 27  1  0
 35 30  1  0
  1 44  1  0
  1 45  1  0
  1 46  1  0
  3 47  1  0
  4 48  1  0
  5 49  1  0
  5 50  1  0
  9 51  1  0
 12 52  1  0
 13 53  1  0
 16 54  1  0
 17 55  1  0
 17 56  1  0
 18 57  1  0
 18 58  1  0
 19 59  1  0
 19 60  1  0
 20 61  1  0
 20 62  1  0
 21 63  1  0
 21 64  1  0
 22 65  1  0
 22 66  1  0
 23 67  1  0
 23 68  1  0
 24 69  1  0
 24 70  1  0
 25 71  1  0
 31 72  1  0
 32 73  1  0
 33 74  1  0
 34 75  1  0
 36 76  1  0
 36 77  1  0
 37 78  1  0
 37 79  1  0
 38 80  1  0
 38 81  1  0
 39 82  1  0
 39 83  1  0
 41 84  1  0
 42 85  1  0
 42 86  1  0
 43 87  1  0
 43 88  1  0
M  END
$$$$
