
     RDKit          3D

 54 56  0  0  0  0  0  0  0  0999 V2000
    1.6255   -0.5816   -4.1804 C   0  0  0  0  0  0  0  0  0  0  0  0
    2.6101   -0.1239   -3.1644 C   0  0  0  0  0  0  0  0  0  0  0  0
    3.9285    0.1141   -3.6015 C   0  0  0  0  0  0  0  0  0  0  0  0
    4.1835   -0.0290   -4.9170 F   0  0  0  0  0  0  0  0  0  0  0  0
    4.8862    0.4780   -2.6907 C   0  0  0  0  0  0  0  0  0  0  0  0
    4.5695    0.6150   -1.3378 C   0  0  0  0  0  0  0  0  0  0  0  0
    5.5736    0.9966   -0.3737 C   0  0  0  0  0  0  0  0  0  0  0  0
    6.7571    1.2011   -0.8215 O   0  0  0  0  0  0  0  0  0  0  0  0
    5.3439    1.1588    1.0178 N   0  0  0  0  0  0  0  0  0  0  0  0
    6.4417    1.5436    1.8626 C   0  0  0  0  0  0  0  0  0  0  0  0
    6.4745    0.7357    3.1831 C   0  0  0  0  0  0  0  0  0  0  0  0
    6.2031    2.2130    3.1662 C   0  0  0  0  0  0  0  0  0  0  0  0
    3.2903    0.3777   -0.9631 C   0  0  0  0  0  0  0  0  0  0  0  0
    2.2624    0.0008   -1.8617 C   0  0  0  0  0  0  0  0  0  0  0  0
    0.9397   -0.2536   -1.2989 C   0  0  0  0  0  0  0  0  0  0  0  0
   -0.2560   -0.1465   -1.9360 C   0  0  0  0  0  0  0  0  0  0  0  0
   -1.4696   -0.3602   -1.2630 C   0  0  0  0  0  0  0  0  0  0  0  0
   -1.5079   -0.6844    0.0645 C   0  0  0  0  0  0  0  0  0  0  0  0
   -2.7397   -0.9183    0.8169 C   0  0  0  0  0  0  0  0  0  0  0  0
   -2.7125   -1.2134    2.0388 O   0  0  0  0  0  0  0  0  0  0  0  0
   -3.9994   -0.8182    0.1867 N   0  0  0  0  0  0  0  0  0  0  0  0
   -5.2070   -1.0594    0.9732 C   0  0  2  0  0  0  0  0  0  0  0  0
   -5.9965   -2.1516    0.2959 C   0  0  0  0  0  0  0  0  0  0  0  0
   -5.9885    0.2563    0.9667 C   0  0  0  0  0  0  0  0  0  0  0  0
   -5.0668    1.2954    1.6054 C   0  0  0  0  0  0  0  0  0  0  0  0
   -7.2259    0.0801    1.7976 C   0  0  0  0  0  0  0  0  0  0  0  0
   -0.2671   -0.7871    0.6983 C   0  0  0  0  0  0  0  0  0  0  0  0
    0.8605   -0.5807    0.0377 N   0  0  0  0  0  0  0  0  0  0  0  0
    2.2554   -1.0441   -5.0306 H   0  0  0  0  0  0  0  0  0  0  0  0
    0.9943   -1.4164   -3.8628 H   0  0  0  0  0  0  0  0  0  0  0  0
    1.1322    0.2583   -4.6963 H   0  0  0  0  0  0  0  0  0  0  0  0
    5.8978    0.6646   -3.0009 H   0  0  0  0  0  0  0  0  0  0  0  0
    4.3706    0.9936    1.4056 H   0  0  0  0  0  0  0  0  0  0  0  0
    7.4064    1.6888    1.3586 H   0  0  0  0  0  0  0  0  0  0  0  0
    7.4798    0.3710    3.4688 H   0  0  0  0  0  0  0  0  0  0  0  0
    5.6251    0.1005    3.4302 H   0  0  0  0  0  0  0  0  0  0  0  0
    5.1859    2.5761    3.4475 H   0  0  0  0  0  0  0  0  0  0  0  0
    7.0351    2.8586    3.5248 H   0  0  0  0  0  0  0  0  0  0  0  0
    2.9961    0.4701    0.0639 H   0  0  0  0  0  0  0  0  0  0  0  0
   -0.3350    0.1418   -2.9703 H   0  0  0  0  0  0  0  0  0  0  0  0
   -2.4098   -0.2655   -1.8125 H   0  0  0  0  0  0  0  0  0  0  0  0
   -4.1154   -0.5817   -0.8090 H   0  0  0  0  0  0  0  0  0  0  0  0
   -4.9234   -1.2950    1.9954 H   0  0  0  0  0  0  0  0  0  0  0  0
   -5.2984   -2.9356   -0.0670 H   0  0  0  0  0  0  0  0  0  0  0  0
   -6.7122   -2.6196    1.0047 H   0  0  0  0  0  0  0  0  0  0  0  0
   -6.5058   -1.7482   -0.6002 H   0  0  0  0  0  0  0  0  0  0  0  0
   -6.1781    0.5826   -0.0594 H   0  0  0  0  0  0  0  0  0  0  0  0
   -4.8348    0.9497    2.6336 H   0  0  0  0  0  0  0  0  0  0  0  0
   -5.5250    2.3001    1.5831 H   0  0  0  0  0  0  0  0  0  0  0  0
   -4.1257    1.3030    0.9928 H   0  0  0  0  0  0  0  0  0  0  0  0
   -6.9877   -0.5562    2.6765 H   0  0  0  0  0  0  0  0  0  0  0  0
   -7.6435    1.0704    2.1076 H   0  0  0  0  0  0  0  0  0  0  0  0
   -7.9843   -0.4308    1.1571 H   0  0  0  0  0  0  0  0  0  0  0  0
   -0.3127   -1.0455    1.7573 H   0  0  0  0  0  0  0  0  0  0  0  0
  1  2  1  0
  2  3  2  0
  3  4  1  0
  3  5  1  0
  5  6  2  0
  6  7  1  0
  7  8  2  0
  7  9  1  0
  9 10  1  0
 10 11  1  0
 11 12  1  0
  6 13  1  0
 13 14  2  0
 14 15  1  0
 15 16  2  0
 16 17  1  0
 17 18  2  0
 18 19  1  0
 19 20  2  0
 19 21  1  0
 21 22  1  0
 22 23  1  0
 22 24  1  0
 24 25  1  0
 24 26  1  0
 18 27  1  0
 27 28  2  0
 14  2  1  0
 28 15  1  0
 12 10  1  0
  1 29  1  0
  1 30  1  0
  1 31  1  0
  5 32  1  0
  9 33  1  0
 10 34  1  0
 11 35  1  0
 11 36  1  0
 12 37  1  0
 12 38  1  0
 13 39  1  0
 16 40  1  0
 17 41  1  0
 21 42  1  0
 22 43  1  1
 23 44  1  0
 23 45  1  0
 23 46  1  0
 24 47  1  0
 25 48  1  0
 25 49  1  0
 25 50  1  0
 26 51  1  0
 26 52  1  0
 26 53  1  0
 27 54  1  0
M  END
$$$$
