
     RDKit          3D

 50 53  0  0  0  0  0  0  0  0999 V2000
    6.8644   -0.1540   -0.2670 C   0  0  0  0  0  0  0  0  0  0  0  0
    6.5440   -1.1817    0.6641 O   0  0  0  0  0  0  0  0  0  0  0  0
    5.2273   -1.4224    1.0383 C   0  0  0  0  0  0  0  0  0  0  0  0
    4.1803   -0.6690    0.5168 C   0  0  0  0  0  0  0  0  0  0  0  0
    2.8705   -0.8822    0.8663 C   0  0  0  0  0  0  0  0  0  0  0  0
    1.7710   -0.0744    0.3040 C   0  0  0  0  0  0  0  0  0  0  0  0
    2.0275    0.9275   -0.5973 C   0  0  0  0  0  0  0  0  0  0  0  0
    0.9779    1.6828   -1.1208 C   0  0  0  0  0  0  0  0  0  0  0  0
    0.9272    2.7009   -1.9977 N   0  0  0  0  0  0  0  0  0  0  0  0
   -0.3227    3.0867   -2.1756 N   0  0  0  0  0  0  0  0  0  0  0  0
   -0.7546    4.1800   -3.0699 C   0  0  0  0  0  0  0  0  0  0  0  0
   -1.1172    2.3274   -1.4171 C   0  0  0  0  0  0  0  0  0  0  0  0
   -0.3183    1.4337   -0.7420 C   0  0  0  0  0  0  0  0  0  0  0  0
   -0.5701    0.4125    0.1754 C   0  0  0  0  0  0  0  0  0  0  0  0
   -1.7678    0.1083    0.5895 O   0  0  0  0  0  0  0  0  0  0  0  0
   -3.0780    0.2434    0.6367 C   0  0  2  0  0  0  0  0  0  0  0  0
   -3.6695    0.5792    2.0076 C   0  0  0  0  0  0  0  0  0  0  0  0
   -3.8911   -0.9754    0.1790 C   0  0  1  0  0  0  0  0  0  0  0  0
   -5.3477   -0.6024    0.3139 C   0  0  0  0  0  0  0  0  0  0  0  0
   -6.0001   -1.1096   -0.8818 N   0  0  0  0  0  0  0  0  0  0  0  0
   -5.0505   -1.4790   -1.8478 C   0  0  0  0  0  0  0  0  0  0  0  0
   -5.3180   -1.9129   -2.9910 O   0  0  0  0  0  0  0  0  0  0  0  0
   -3.6736   -1.2693   -1.2875 C   0  0  0  0  0  0  0  0  0  0  0  0
    0.5096   -0.2779    0.6388 N   0  0  0  0  0  0  0  0  0  0  0  0
    2.6151   -1.8926    1.7742 C   0  0  0  0  0  0  0  0  0  0  0  0
    3.6577   -2.6465    2.2967 C   0  0  0  0  0  0  0  0  0  0  0  0
    4.9668   -2.4152    1.9316 C   0  0  0  0  0  0  0  0  0  0  0  0
    5.9920   -3.1794    2.4652 O   0  0  0  0  0  0  0  0  0  0  0  0
    7.9698   -0.2166   -0.4433 H   0  0  0  0  0  0  0  0  0  0  0  0
    6.5994    0.8067    0.2019 H   0  0  0  0  0  0  0  0  0  0  0  0
    6.3038   -0.3200   -1.1984 H   0  0  0  0  0  0  0  0  0  0  0  0
    4.4868    0.0938   -0.1829 H   0  0  0  0  0  0  0  0  0  0  0  0
    3.0351    1.1727   -0.9365 H   0  0  0  0  0  0  0  0  0  0  0  0
   -0.5425    5.1176   -2.5491 H   0  0  0  0  0  0  0  0  0  0  0  0
   -0.1888    4.0381   -4.0127 H   0  0  0  0  0  0  0  0  0  0  0  0
   -1.8292    4.0701   -3.3176 H   0  0  0  0  0  0  0  0  0  0  0  0
   -2.1813    2.4120   -1.3570 H   0  0  0  0  0  0  0  0  0  0  0  0
   -3.4580    1.0597   -0.0234 H   0  0  0  0  0  0  0  0  0  0  0  0
   -4.5523    1.2454    1.9291 H   0  0  0  0  0  0  0  0  0  0  0  0
   -2.9421    1.0646    2.6636 H   0  0  0  0  0  0  0  0  0  0  0  0
   -4.0180   -0.3411    2.5296 H   0  0  0  0  0  0  0  0  0  0  0  0
   -3.6999   -1.8508    0.8316 H   0  0  0  0  0  0  0  0  0  0  0  0
   -5.5048    0.5102    0.2848 H   0  0  0  0  0  0  0  0  0  0  0  0
   -5.8106   -0.9691    1.2313 H   0  0  0  0  0  0  0  0  0  0  0  0
   -7.0237   -1.1852   -0.9984 H   0  0  0  0  0  0  0  0  0  0  0  0
   -3.1424   -0.4542   -1.7994 H   0  0  0  0  0  0  0  0  0  0  0  0
   -3.1569   -2.2485   -1.3595 H   0  0  0  0  0  0  0  0  0  0  0  0
    1.6018   -2.0814    2.0653 H   0  0  0  0  0  0  0  0  0  0  0  0
    3.4769   -3.4493    3.0154 H   0  0  0  0  0  0  0  0  0  0  0  0
    6.3247   -4.0135    1.9998 H   0  0  0  0  0  0  0  0  0  0  0  0
  1  2  1  0
  2  3  1  0
  3  4  2  0
  4  5  1  0
  5  6  1  0
  6  7  2  0
  7  8  1  0
  8  9  2  0
  9 10  1  0
 10 11  1  0
 10 12  1  0
 12 13  2  0
 13 14  1  0
 14 15  1  0
 15 16  1  0
 16 17  1  0
 16 18  1  0
 18 19  1  0
 19 20  1  0
 20 21  1  0
 21 22  2  0
 21 23  1  0
 14 24  2  0
  5 25  2  0
 25 26  1  0
 26 27  2  0
 27 28  1  0
 27  3  1  0
 24  6  1  0
 13  8  1  0
 23 18  1  0
  1 29  1  0
  1 30  1  0
  1 31  1  0
  4 32  1  0
  7 33  1  0
 11 34  1  0
 11 35  1  0
 11 36  1  0
 12 37  1  0
 16 38  1  6
 17 39  1  0
 17 40  1  0
 17 41  1  0
 18 42  1  1
 19 43  1  0
 19 44  1  0
 20 45  1  0
 23 46  1  0
 23 47  1  0
 25 48  1  0
 26 49  1  0
 28 50  1  0
M  END
$$$$
