
     RDKit          3D

 59 62  0  0  0  0  0  0  0  0999 V2000
   -2.0672   -0.4116    1.6915 C   0  0  2  0  0  0  0  0  0  0  0  0
   -2.0356   -1.7599    2.1614 N   0  0  0  0  0  0  0  0  0  0  0  0
   -3.4144    0.1390    1.7927 C   0  0  0  0  0  0  0  0  0  0  0  0
   -4.0887   -0.8266    2.2459 O   0  0  0  0  0  0  0  0  0  0  0  0
   -3.9837    1.3915    1.5049 N   0  0  0  0  0  0  0  0  0  0  0  0
   -3.5979    2.7148    0.9988 C   0  0  0  0  0  0  0  0  0  0  0  0
   -4.5037    2.8084   -0.2110 C   0  0  0  0  0  0  0  0  0  0  0  0
   -5.8309    2.4030    0.4055 C   0  0  2  0  0  0  0  0  0  0  0  0
   -6.4561    3.5886    0.7590 F   0  0  0  0  0  0  0  0  0  0  0  0
   -5.3814    1.7160    1.6852 C   0  0  0  0  0  0  0  0  0  0  0  0
   -1.5573   -0.3671    0.2036 C   0  0  2  0  0  0  0  0  0  0  0  0
   -2.4730   -1.2177   -0.5556 C   0  0  0  0  0  0  0  0  0  0  0  0
   -2.3448   -1.4596   -1.9913 C   0  0  0  0  0  0  0  0  0  0  0  0
   -1.2646   -2.1167   -2.7162 C   0  0  0  0  0  0  0  0  0  0  0  0
   -2.5460   -2.8653   -2.5113 C   0  0  0  0  0  0  0  0  0  0  0  0
   -0.1238   -0.5637    0.2983 C   0  0  0  0  0  0  0  0  0  0  0  0
    0.7083   -0.5497   -0.8378 N   0  0  0  0  0  0  0  0  0  0  0  0
    1.8065   -1.4315   -0.5049 C   0  0  2  0  0  0  0  0  0  0  0  0
    1.4591   -2.0007    0.7578 N   0  0  0  0  0  0  0  0  0  0  0  0
    0.1528   -1.7510    0.9951 O   0  0  0  0  0  0  0  0  0  0  0  0
    3.1306   -0.7458   -0.5162 C   0  0  0  0  0  0  0  0  0  0  0  0
    4.2212   -1.3416   -1.1229 C   0  0  0  0  0  0  0  0  0  0  0  0
    4.0909   -2.5703   -1.7189 F   0  0  0  0  0  0  0  0  0  0  0  0
    5.4836   -0.7882   -1.1860 C   0  0  0  0  0  0  0  0  0  0  0  0
    5.6632    0.4492   -0.5992 C   0  0  0  0  0  0  0  0  0  0  0  0
    4.5748    1.0658    0.0176 C   0  0  0  0  0  0  0  0  0  0  0  0
    3.3022    0.4876    0.0708 C   0  0  0  0  0  0  0  0  0  0  0  0
    7.2018    1.2851   -0.5931 S   0  0  0  0  0  0  0  0  0  0  0  0
    8.1751    0.8778    0.8197 C   0  0  0  0  0  0  0  0  0  0  0  0
    8.0204    0.9274   -1.8159 O   0  0  0  0  0  0  0  0  0  0  0  0
    6.9514    2.7654   -0.6592 O   0  0  0  0  0  0  0  0  0  0  0  0
   -1.3826    0.1952    2.3140 H   0  0  0  0  0  0  0  0  0  0  0  0
   -2.8816   -2.3030    1.9642 H   0  0  0  0  0  0  0  0  0  0  0  0
   -1.6393   -1.8640    3.1162 H   0  0  0  0  0  0  0  0  0  0  0  0
   -3.9614    3.5052    1.6994 H   0  0  0  0  0  0  0  0  0  0  0  0
   -2.5347    2.8068    0.7824 H   0  0  0  0  0  0  0  0  0  0  0  0
   -4.2335    2.0408   -0.9618 H   0  0  0  0  0  0  0  0  0  0  0  0
   -4.5390    3.8310   -0.6468 H   0  0  0  0  0  0  0  0  0  0  0  0
   -6.4466    1.7734   -0.2384 H   0  0  0  0  0  0  0  0  0  0  0  0
   -5.9560    0.7839    1.8369 H   0  0  0  0  0  0  0  0  0  0  0  0
   -5.5347    2.3877    2.5686 H   0  0  0  0  0  0  0  0  0  0  0  0
   -1.7851    0.7098   -0.0869 H   0  0  0  0  0  0  0  0  0  0  0  0
   -3.5184   -0.7753   -0.3765 H   0  0  0  0  0  0  0  0  0  0  0  0
   -2.6178   -2.2387   -0.0662 H   0  0  0  0  0  0  0  0  0  0  0  0
   -2.9946   -0.6978   -2.5962 H   0  0  0  0  0  0  0  0  0  0  0  0
   -0.3616   -2.4586   -2.2355 H   0  0  0  0  0  0  0  0  0  0  0  0
   -1.0962   -1.7831   -3.7804 H   0  0  0  0  0  0  0  0  0  0  0  0
   -2.4629   -3.7270   -1.8215 H   0  0  0  0  0  0  0  0  0  0  0  0
   -3.1902   -3.0607   -3.3704 H   0  0  0  0  0  0  0  0  0  0  0  0
    0.2782    0.2466    0.9951 H   0  0  0  0  0  0  0  0  0  0  0  0
    1.1545    0.3843   -1.0509 H   0  0  0  0  0  0  0  0  0  0  0  0
    1.7999   -2.2800   -1.2414 H   0  0  0  0  0  0  0  0  0  0  0  0
    2.0040   -1.5568    1.5389 H   0  0  0  0  0  0  0  0  0  0  0  0
    6.3192   -1.2649   -1.6613 H   0  0  0  0  0  0  0  0  0  0  0  0
    4.7035    2.0350    0.4806 H   0  0  0  0  0  0  0  0  0  0  0  0
    2.5032    1.0097    0.5592 H   0  0  0  0  0  0  0  0  0  0  0  0
    9.2725    0.9046    0.5998 H   0  0  0  0  0  0  0  0  0  0  0  0
    7.9757    1.6421    1.6154 H   0  0  0  0  0  0  0  0  0  0  0  0
    7.8529   -0.0986    1.1950 H   0  0  0  0  0  0  0  0  0  0  0  0
  1  2  1  0
  1  3  1  0
  3  4  2  0
  3  5  1  0
  5  6  1  0
  6  7  1  0
  7  8  1  0
  8  9  1  0
  8 10  1  0
  1 11  1  0
 11 12  1  0
 12 13  1  0
 13 14  1  0
 14 15  1  0
 11 16  1  0
 16 17  1  0
 17 18  1  0
 18 19  1  0
 19 20  1  0
 18 21  1  0
 21 22  2  0
 22 23  1  0
 22 24  1  0
 24 25  2  0
 25 26  1  0
 26 27  2  0
 25 28  1  0
 28 29  1  0
 28 30  2  0
 28 31  2  0
 10  5  1  0
 15 13  1  0
 20 16  1  0
 27 21  1  0
  1 32  1  1
  2 33  1  0
  2 34  1  0
  6 35  1  0
  6 36  1  0
  7 37  1  0
  7 38  1  0
  8 39  1  6
 10 40  1  0
 10 41  1  0
 11 42  1  6
 12 43  1  0
 12 44  1  0
 13 45  1  0
 14 46  1  0
 14 47  1  0
 15 48  1  0
 15 49  1  0
 16 50  1  0
 17 51  1  0
 18 52  1  6
 19 53  1  0
 24 54  1  0
 26 55  1  0
 27 56  1  0
 29 57  1  0
 29 58  1  0
 29 59  1  0
M  END
$$$$
