
     RDKit          3D

 59 62  0  0  0  0  0  0  0  0999 V2000
   -1.5885   -3.1109   -2.4052 C   0  0  0  0  0  0  0  0  0  0  0  0
   -0.7180   -2.3642   -1.5360 O   0  0  0  0  0  0  0  0  0  0  0  0
   -1.1440   -1.0845   -1.2289 C   0  0  0  0  0  0  0  0  0  0  0  0
   -2.3035   -0.5276   -1.6930 C   0  0  0  0  0  0  0  0  0  0  0  0
   -2.7183    0.7451   -1.3865 C   0  0  0  0  0  0  0  0  0  0  0  0
   -3.9709    1.2385   -1.9581 C   0  0  0  0  0  0  0  0  0  0  0  0
   -5.1340    1.2563   -1.0861 C   0  0  0  0  0  0  0  0  0  0  0  0
   -5.5551    2.4720   -0.5183 C   0  0  0  0  0  0  0  0  0  0  0  0
   -6.6214    2.5163    0.2897 N   0  0  0  0  0  0  0  0  0  0  0  0
   -7.3498    1.4078    0.6052 C   0  0  0  0  0  0  0  0  0  0  0  0
   -8.4790    1.5082    1.4721 N   0  0  0  0  0  0  0  0  0  0  0  0
   -6.9548    0.2494    0.0696 N   0  0  0  0  0  0  0  0  0  0  0  0
   -5.8736    0.1517   -0.7607 C   0  0  0  0  0  0  0  0  0  0  0  0
   -5.5351   -1.1365   -1.2870 N   0  0  0  0  0  0  0  0  0  0  0  0
   -1.9174    1.5155   -0.5560 C   0  0  0  0  0  0  0  0  0  0  0  0
   -0.7224    0.9711   -0.0635 C   0  0  0  0  0  0  0  0  0  0  0  0
    0.0290    1.7831    0.7600 O   0  0  0  0  0  0  0  0  0  0  0  0
   -0.3403    3.0845    1.1107 C   0  0  0  0  0  0  0  0  0  0  0  0
   -0.3400   -0.2990   -0.3906 C   0  0  0  0  0  0  0  0  0  0  0  0
    0.8243   -0.9078    0.0534 O   0  0  0  0  0  0  0  0  0  0  0  0
    2.0269   -0.9265   -0.6385 C   0  0  0  0  0  0  0  0  0  0  0  0
    2.7389    0.3519   -0.8648 C   0  0  0  0  0  0  0  0  0  0  0  0
    3.3000    1.0135    0.3617 C   0  0  0  0  0  0  0  0  0  0  0  0
    4.3117    0.1874    1.0002 N   0  0  0  0  0  0  0  0  0  0  0  0
    4.2273   -0.8095    1.9960 C   0  0  0  0  0  0  0  0  0  0  0  0
    3.1599   -1.1789    2.5402 O   0  0  0  0  0  0  0  0  0  0  0  0
    5.5728   -1.3533    2.3030 C   0  0  0  0  0  0  0  0  0  0  0  0
    5.9958   -2.3302    3.1937 C   0  0  0  0  0  0  0  0  0  0  0  0
    7.3297   -2.6394    3.2717 C   0  0  0  0  0  0  0  0  0  0  0  0
    8.2108   -1.9691    2.4614 C   0  0  0  0  0  0  0  0  0  0  0  0
    7.7897   -1.0010    1.5791 C   0  0  0  0  0  0  0  0  0  0  0  0
    6.4340   -0.6706    1.4840 C   0  0  0  0  0  0  0  0  0  0  0  0
    5.6881    0.2759    0.6782 C   0  0  0  0  0  0  0  0  0  0  0  0
    6.2256    1.0509   -0.1774 O   0  0  0  0  0  0  0  0  0  0  0  0
   -2.5812   -3.2657   -1.9663 H   0  0  0  0  0  0  0  0  0  0  0  0
   -1.7104   -2.5762   -3.3545 H   0  0  0  0  0  0  0  0  0  0  0  0
   -1.1124   -4.0912   -2.6093 H   0  0  0  0  0  0  0  0  0  0  0  0
   -2.9097   -1.1698   -2.3485 H   0  0  0  0  0  0  0  0  0  0  0  0
   -3.7334    2.2691   -2.3701 H   0  0  0  0  0  0  0  0  0  0  0  0
   -4.1781    0.6479   -2.8974 H   0  0  0  0  0  0  0  0  0  0  0  0
   -4.9645    3.3463   -0.7818 H   0  0  0  0  0  0  0  0  0  0  0  0
   -8.6384    2.3157    2.1060 H   0  0  0  0  0  0  0  0  0  0  0  0
   -9.1914    0.7526    1.4927 H   0  0  0  0  0  0  0  0  0  0  0  0
   -5.5610   -1.9319   -0.6098 H   0  0  0  0  0  0  0  0  0  0  0  0
   -5.2941   -1.1944   -2.2928 H   0  0  0  0  0  0  0  0  0  0  0  0
   -2.2581    2.5053   -0.3294 H   0  0  0  0  0  0  0  0  0  0  0  0
   -1.2773    3.0873    1.7229 H   0  0  0  0  0  0  0  0  0  0  0  0
    0.4883    3.5592    1.6680 H   0  0  0  0  0  0  0  0  0  0  0  0
   -0.5316    3.6513    0.1619 H   0  0  0  0  0  0  0  0  0  0  0  0
    2.6667   -1.6969   -0.1278 H   0  0  0  0  0  0  0  0  0  0  0  0
    1.7808   -1.3341   -1.6686 H   0  0  0  0  0  0  0  0  0  0  0  0
    1.9648    1.0790   -1.2637 H   0  0  0  0  0  0  0  0  0  0  0  0
    3.4747    0.2373   -1.6713 H   0  0  0  0  0  0  0  0  0  0  0  0
    2.4995    1.2734    1.0658 H   0  0  0  0  0  0  0  0  0  0  0  0
    3.7805    1.9671    0.0683 H   0  0  0  0  0  0  0  0  0  0  0  0
    5.2588   -2.8167    3.8006 H   0  0  0  0  0  0  0  0  0  0  0  0
    7.7025   -3.4132    3.9721 H   0  0  0  0  0  0  0  0  0  0  0  0
    9.2795   -2.2207    2.5283 H   0  0  0  0  0  0  0  0  0  0  0  0
    8.4472   -0.4508    0.9218 H   0  0  0  0  0  0  0  0  0  0  0  0
  1  2  1  0
  2  3  1  0
  3  4  2  0
  4  5  1  0
  5  6  1  0
  6  7  1  0
  7  8  2  0
  8  9  1  0
  9 10  2  0
 10 11  1  0
 10 12  1  0
 12 13  2  0
 13 14  1  0
  5 15  2  0
 15 16  1  0
 16 17  1  0
 17 18  1  0
 16 19  2  0
 19 20  1  0
 20 21  1  0
 21 22  1  0
 22 23  1  0
 23 24  1  0
 24 25  1  0
 25 26  2  0
 25 27  1  0
 27 28  2  0
 28 29  1  0
 29 30  2  0
 30 31  1  0
 31 32  2  0
 32 33  1  0
 33 34  2  0
 19  3  1  0
 33 24  1  0
 13  7  1  0
 32 27  1  0
  1 35  1  0
  1 36  1  0
  1 37  1  0
  4 38  1  0
  6 39  1  0
  6 40  1  0
  8 41  1  0
 11 42  1  0
 11 43  1  0
 14 44  1  0
 14 45  1  0
 15 46  1  0
 18 47  1  0
 18 48  1  0
 18 49  1  0
 21 50  1  0
 21 51  1  0
 22 52  1  0
 22 53  1  0
 23 54  1  0
 23 55  1  0
 28 56  1  0
 29 57  1  0
 30 58  1  0
 31 59  1  0
M  END
$$$$
