
     RDKit          3D

 89 93  0  0  0  0  0  0  0  0999 V2000
   -4.1183   -4.7052   -0.6855 C   0  0  0  0  0  0  0  0  0  0  0  0
   -5.0000   -3.5280   -0.9852 C   0  0  0  0  0  0  0  0  0  0  0  0
   -5.0571   -2.5325    0.1431 C   0  0  0  0  0  0  0  0  0  0  0  0
   -3.7266   -1.9699    0.5046 C   0  0  0  0  0  0  0  0  0  0  0  0
   -2.9868   -1.2787   -0.6033 C   0  0  1  0  0  0  0  0  0  0  0  0
   -3.7615   -0.1100   -1.1097 C   0  0  0  0  0  0  0  0  0  0  0  0
   -3.5567    1.0889   -0.2893 N   0  0  0  0  0  0  0  0  0  0  0  0
   -4.0920    2.3347   -0.6940 C   0  0  0  0  0  0  0  0  0  0  0  0
   -5.4687    2.6988   -0.3097 C   0  0  0  0  0  0  0  0  0  0  0  0
   -5.7593    2.7443    1.1597 C   0  0  0  0  0  0  0  0  0  0  0  0
   -7.1914    3.2883    1.2731 C   0  0  0  0  0  0  0  0  0  0  0  0
   -8.0278    2.2763    0.8673 O   0  0  0  0  0  0  0  0  0  0  0  0
   -7.4878    1.3593   -0.0030 C   0  0  0  0  0  0  0  0  0  0  0  0
   -6.5854    2.0276   -1.0261 C   0  0  0  0  0  0  0  0  0  0  0  0
   -2.8088    0.9319    0.9203 C   0  0  0  0  0  0  0  0  0  0  0  0
   -3.0067    1.7357    1.8477 O   0  0  0  0  0  0  0  0  0  0  0  0
   -1.8666   -0.1070    1.0667 O   0  0  0  0  0  0  0  0  0  0  0  0
   -1.6105   -0.8811   -0.0885 C   0  0  0  0  0  0  0  0  0  0  0  0
   -0.7752   -2.0890    0.1311 C   0  0  0  0  0  0  0  0  0  0  0  0
    0.5544   -1.6695    0.7204 C   0  0  0  0  0  0  0  0  0  0  0  0
    1.1926   -0.7926   -0.2199 N   0  0  0  0  0  0  0  0  0  0  0  0
    2.6002   -0.7917   -0.1355 C   0  0  0  0  0  0  0  0  0  0  0  0
    3.0499   -2.2166   -0.4375 C   0  0  0  0  0  0  0  0  0  0  0  0
    3.2930    0.2021   -0.9654 C   0  0  0  0  0  0  0  0  0  0  0  0
    4.8233    0.0765   -0.8802 C   0  0  0  0  0  0  0  0  0  0  0  0
    5.3200   -0.0118    0.4555 N   0  0  0  0  0  0  0  0  0  0  0  0
    6.5456    0.5132    0.9372 C   0  0  0  0  0  0  0  0  0  0  0  0
    6.7659    0.3208    2.2084 O   0  0  0  0  0  0  0  0  0  0  0  0
    7.5656    1.2143    0.2164 C   0  0  0  0  0  0  0  0  0  0  0  0
    8.7646    0.5289   -0.0395 C   0  0  0  0  0  0  0  0  0  0  0  0
    8.9160   -0.8964    0.3961 C   0  0  0  0  0  0  0  0  0  0  0  0
    9.7297    1.1949   -0.6735 N   0  0  0  0  0  0  0  0  0  0  0  0
    9.5697    2.4852   -1.0616 C   0  0  0  0  0  0  0  0  0  0  0  0
    8.4225    3.1240   -0.8120 N   0  0  0  0  0  0  0  0  0  0  0  0
    7.3962    2.5191   -0.1738 C   0  0  0  0  0  0  0  0  0  0  0  0
    6.1543    3.3042    0.0699 C   0  0  0  0  0  0  0  0  0  0  0  0
    4.5095   -0.7354    1.4356 C   0  0  0  0  0  0  0  0  0  0  0  0
    3.0486   -0.5196    1.3158 C   0  0  0  0  0  0  0  0  0  0  0  0
    0.4674    0.3610   -0.5285 C   0  0  0  0  0  0  0  0  0  0  0  0
   -0.8790   -0.0233   -1.1043 C   0  0  0  0  0  0  0  0  0  0  0  0
   -4.5673   -5.6029   -1.1547 H   0  0  0  0  0  0  0  0  0  0  0  0
   -3.1159   -4.5997   -1.2082 H   0  0  0  0  0  0  0  0  0  0  0  0
   -3.9843   -4.9242    0.3833 H   0  0  0  0  0  0  0  0  0  0  0  0
   -6.0229   -3.9225   -1.1999 H   0  0  0  0  0  0  0  0  0  0  0  0
   -4.6372   -3.0691   -1.9330 H   0  0  0  0  0  0  0  0  0  0  0  0
   -5.7897   -1.7561   -0.0896 H   0  0  0  0  0  0  0  0  0  0  0  0
   -5.5088   -3.1072    1.0135 H   0  0  0  0  0  0  0  0  0  0  0  0
   -3.9419   -1.1929    1.3097 H   0  0  0  0  0  0  0  0  0  0  0  0
   -3.1084   -2.7120    1.0705 H   0  0  0  0  0  0  0  0  0  0  0  0
   -2.8740   -1.9769   -1.4895 H   0  0  0  0  0  0  0  0  0  0  0  0
   -3.4735    0.1446   -2.1762 H   0  0  0  0  0  0  0  0  0  0  0  0
   -4.8302   -0.3847   -1.1202 H   0  0  0  0  0  0  0  0  0  0  0  0
   -4.0507    2.3736   -1.8179 H   0  0  0  0  0  0  0  0  0  0  0  0
   -3.4282    3.2101   -0.3923 H   0  0  0  0  0  0  0  0  0  0  0  0
   -5.5544    3.8051   -0.6244 H   0  0  0  0  0  0  0  0  0  0  0  0
   -5.1003    3.4936    1.6387 H   0  0  0  0  0  0  0  0  0  0  0  0
   -5.7290    1.7487    1.6473 H   0  0  0  0  0  0  0  0  0  0  0  0
   -7.4211    3.6502    2.2954 H   0  0  0  0  0  0  0  0  0  0  0  0
   -7.3223    4.1392    0.5636 H   0  0  0  0  0  0  0  0  0  0  0  0
   -8.3638    0.9821   -0.6147 H   0  0  0  0  0  0  0  0  0  0  0  0
   -7.0161    0.4938    0.4843 H   0  0  0  0  0  0  0  0  0  0  0  0
   -6.2867    1.3493   -1.8465 H   0  0  0  0  0  0  0  0  0  0  0  0
   -7.2719    2.7667   -1.5415 H   0  0  0  0  0  0  0  0  0  0  0  0
   -1.2242   -2.9238    0.6720 H   0  0  0  0  0  0  0  0  0  0  0  0
   -0.5342   -2.4954   -0.8926 H   0  0  0  0  0  0  0  0  0  0  0  0
    0.3881   -1.2390    1.7089 H   0  0  0  0  0  0  0  0  0  0  0  0
    1.1735   -2.5764    0.8202 H   0  0  0  0  0  0  0  0  0  0  0  0
    2.2841   -2.7043   -1.0819 H   0  0  0  0  0  0  0  0  0  0  0  0
    3.9972   -2.2727   -0.9948 H   0  0  0  0  0  0  0  0  0  0  0  0
    3.2047   -2.7653    0.5105 H   0  0  0  0  0  0  0  0  0  0  0  0
    3.0827    1.2299   -0.5590 H   0  0  0  0  0  0  0  0  0  0  0  0
    3.0416    0.1383   -2.0422 H   0  0  0  0  0  0  0  0  0  0  0  0
    5.1998    1.0149   -1.3364 H   0  0  0  0  0  0  0  0  0  0  0  0
    5.1814   -0.7287   -1.5550 H   0  0  0  0  0  0  0  0  0  0  0  0
    8.0790   -1.4831    0.0079 H   0  0  0  0  0  0  0  0  0  0  0  0
    9.9045   -1.2832    0.0825 H   0  0  0  0  0  0  0  0  0  0  0  0
    8.9196   -0.9155    1.5141 H   0  0  0  0  0  0  0  0  0  0  0  0
   10.4011    2.9459   -1.5626 H   0  0  0  0  0  0  0  0  0  0  0  0
    5.4665    2.7537    0.7412 H   0  0  0  0  0  0  0  0  0  0  0  0
    5.5986    3.4602   -0.8960 H   0  0  0  0  0  0  0  0  0  0  0  0
    6.4373    4.2739    0.5436 H   0  0  0  0  0  0  0  0  0  0  0  0
    4.7520   -1.7967    1.3301 H   0  0  0  0  0  0  0  0  0  0  0  0
    4.8115   -0.4561    2.4762 H   0  0  0  0  0  0  0  0  0  0  0  0
    2.6849    0.4694    1.6530 H   0  0  0  0  0  0  0  0  0  0  0  0
    2.5325   -1.3209    1.9047 H   0  0  0  0  0  0  0  0  0  0  0  0
    0.9986    1.0769   -1.1655 H   0  0  0  0  0  0  0  0  0  0  0  0
    0.2309    0.9006    0.4387 H   0  0  0  0  0  0  0  0  0  0  0  0
   -1.4015    0.9006   -1.3589 H   0  0  0  0  0  0  0  0  0  0  0  0
   -0.7343   -0.5838   -2.0440 H   0  0  0  0  0  0  0  0  0  0  0  0
  1  2  1  0
  2  3  1  0
  3  4  1  0
  4  5  1  0
  5  6  1  0
  6  7  1  0
  7  8  1  0
  8  9  1  0
  9 10  1  0
 10 11  1  0
 11 12  1  0
 12 13  1  0
 13 14  1  0
  7 15  1  0
 15 16  2  0
 15 17  1  0
 17 18  1  0
 18 19  1  0
 19 20  1  0
 20 21  1  0
 21 22  1  0
 22 23  1  0
 22 24  1  0
 24 25  1  0
 25 26  1  0
 26 27  1  0
 27 28  2  0
 27 29  1  0
 29 30  2  0
 30 31  1  0
 30 32  1  0
 32 33  2  0
 33 34  1  0
 34 35  2  0
 35 36  1  0
 26 37  1  0
 37 38  1  0
 21 39  1  0
 39 40  1  0
 18  5  1  0
 38 22  1  0
 14  9  1  0
 40 18  1  0
 35 29  1  0
  1 41  1  0
  1 42  1  0
  1 43  1  0
  2 44  1  0
  2 45  1  0
  3 46  1  0
  3 47  1  0
  4 48  1  0
  4 49  1  0
  5 50  1  6
  6 51  1  0
  6 52  1  0
  8 53  1  0
  8 54  1  0
  9 55  1  0
 10 56  1  0
 10 57  1  0
 11 58  1  0
 11 59  1  0
 13 60  1  0
 13 61  1  0
 14 62  1  0
 14 63  1  0
 19 64  1  0
 19 65  1  0
 20 66  1  0
 20 67  1  0
 23 68  1  0
 23 69  1  0
 23 70  1  0
 24 71  1  0
 24 72  1  0
 25 73  1  0
 25 74  1  0
 31 75  1  0
 31 76  1  0
 31 77  1  0
 33 78  1  0
 36 79  1  0
 36 80  1  0
 36 81  1  0
 37 82  1  0
 37 83  1  0
 38 84  1  0
 38 85  1  0
 39 86  1  0
 39 87  1  0
 40 88  1  0
 40 89  1  0
M  END
$$$$
