
     RDKit          3D

 63 67  0  0  0  0  0  0  0  0999 V2000
   -7.1985    1.4185    1.6424 C   0  0  0  0  0  0  0  0  0  0  0  0
   -7.6746    0.5985    0.5765 N   0  0  0  0  0  0  0  0  0  0  0  0
   -9.0929    0.5718    0.3165 C   0  0  0  0  0  0  0  0  0  0  0  0
   -6.8051   -0.1695   -0.2108 C   0  0  0  0  0  0  0  0  0  0  0  0
   -7.2712   -0.8862   -1.1289 O   0  0  0  0  0  0  0  0  0  0  0  0
   -5.3327   -0.1910   -0.0245 C   0  0  2  0  0  0  0  0  0  0  0  0
   -4.5381    1.0708   -0.2533 C   0  0  0  0  0  0  0  0  0  0  0  0
   -4.4291   -0.1111   -1.1512 C   0  0  1  0  0  0  0  0  0  0  0  0
   -3.2298   -0.9765   -1.2468 C   0  0  1  0  0  0  0  0  0  0  0  0
   -3.6933   -2.2227   -2.0435 C   0  0  0  0  0  0  0  0  0  0  0  0
   -2.0859   -0.3322   -1.9861 C   0  0  0  0  0  0  0  0  0  0  0  0
   -0.7973   -0.3762   -1.4409 C   0  0  0  0  0  0  0  0  0  0  0  0
    0.2758    0.1918   -2.0883 C   0  0  0  0  0  0  0  0  0  0  0  0
    1.6233    0.1555   -1.5423 C   0  0  0  0  0  0  0  0  0  0  0  0
    1.9049    0.3253   -0.2712 C   0  0  0  0  0  0  0  0  0  0  0  0
    0.9635    0.5533    0.6633 F   0  0  0  0  0  0  0  0  0  0  0  0
    3.2958    0.2716    0.1892 C   0  0  0  0  0  0  0  0  0  0  0  0
    3.6464    0.4580    1.4969 C   0  0  0  0  0  0  0  0  0  0  0  0
    4.9393    0.3918    1.8441 N   0  0  0  0  0  0  0  0  0  0  0  0
    5.9043    0.1472    0.9450 C   0  0  0  0  0  0  0  0  0  0  0  0
    7.2585    0.0647    1.2345 O   0  0  0  0  0  0  0  0  0  0  0  0
    7.7939    0.2291    2.5201 C   0  0  0  0  0  0  0  0  0  0  0  0
    9.3030    0.0462    2.3810 C   0  0  0  0  0  0  0  0  0  0  0  0
    9.9310    1.0364    1.4420 C   0  0  0  0  0  0  0  0  0  0  0  0
    9.6500    0.1394    0.3774 O   0  0  0  0  0  0  0  0  0  0  0  0
    9.6629   -0.9339    1.2796 C   0  0  0  0  0  0  0  0  0  0  0  0
    5.5533   -0.0438   -0.3908 C   0  0  0  0  0  0  0  0  0  0  0  0
    4.2643    0.0268   -0.7109 N   0  0  0  0  0  0  0  0  0  0  0  0
    0.0887    0.8310   -3.3181 C   0  0  0  0  0  0  0  0  0  0  0  0
   -1.1944    0.8752   -3.8598 C   0  0  0  0  0  0  0  0  0  0  0  0
   -2.2565    0.2998   -3.1969 C   0  0  0  0  0  0  0  0  0  0  0  0
   -3.4764    0.3667   -3.7729 F   0  0  0  0  0  0  0  0  0  0  0  0
   -2.7187   -1.5346   -0.0583 N   0  0  0  0  0  0  0  0  0  0  0  0
   -3.1572   -1.6941    1.0957 C   0  0  0  0  0  0  0  0  0  0  0  0
   -2.3967   -2.3151    2.1541 N   0  0  0  0  0  0  0  0  0  0  0  0
   -4.8182   -1.1120    1.4223 S   0  0  0  0  0  0  0  0  0  0  0  0
   -7.6365    2.4528    1.6167 H   0  0  0  0  0  0  0  0  0  0  0  0
   -7.5092    1.0020    2.6279 H   0  0  0  0  0  0  0  0  0  0  0  0
   -6.1041    1.5254    1.5602 H   0  0  0  0  0  0  0  0  0  0  0  0
   -9.3791   -0.4879    0.1267 H   0  0  0  0  0  0  0  0  0  0  0  0
   -9.7033    0.9610    1.1601 H   0  0  0  0  0  0  0  0  0  0  0  0
   -9.3447    1.1437   -0.6041 H   0  0  0  0  0  0  0  0  0  0  0  0
   -5.1218    1.9676   -0.5698 H   0  0  0  0  0  0  0  0  0  0  0  0
   -3.7269    1.3458    0.4458 H   0  0  0  0  0  0  0  0  0  0  0  0
   -4.9796    0.0555   -2.1312 H   0  0  0  0  0  0  0  0  0  0  0  0
   -3.0343   -3.0647   -1.8741 H   0  0  0  0  0  0  0  0  0  0  0  0
   -4.6747   -2.4726   -1.5828 H   0  0  0  0  0  0  0  0  0  0  0  0
   -3.9025   -1.9622   -3.0863 H   0  0  0  0  0  0  0  0  0  0  0  0
   -0.5868   -0.8522   -0.4972 H   0  0  0  0  0  0  0  0  0  0  0  0
    2.4440   -0.0301   -2.2602 H   0  0  0  0  0  0  0  0  0  0  0  0
    2.8537    0.6557    2.2124 H   0  0  0  0  0  0  0  0  0  0  0  0
    7.6021    1.2829    2.8134 H   0  0  0  0  0  0  0  0  0  0  0  0
    7.3494   -0.5201    3.1860 H   0  0  0  0  0  0  0  0  0  0  0  0
    9.8552   -0.0691    3.3136 H   0  0  0  0  0  0  0  0  0  0  0  0
    9.4378    1.9952    1.3032 H   0  0  0  0  0  0  0  0  0  0  0  0
   11.0351    1.1302    1.6199 H   0  0  0  0  0  0  0  0  0  0  0  0
   10.7225   -1.2636    1.4143 H   0  0  0  0  0  0  0  0  0  0  0  0
    8.9428   -1.7378    1.1066 H   0  0  0  0  0  0  0  0  0  0  0  0
    6.2912   -0.2451   -1.1632 H   0  0  0  0  0  0  0  0  0  0  0  0
    0.9203    1.2895   -3.8513 H   0  0  0  0  0  0  0  0  0  0  0  0
   -1.3782    1.3631   -4.8149 H   0  0  0  0  0  0  0  0  0  0  0  0
   -1.8856   -1.6774    2.8024 H   0  0  0  0  0  0  0  0  0  0  0  0
   -2.3793   -3.3598    2.2411 H   0  0  0  0  0  0  0  0  0  0  0  0
  1  2  1  0
  2  3  1  0
  2  4  1  0
  4  5  2  0
  6  4  1  6
  6  7  1  0
  7  8  1  0
  8  9  1  0
  9 10  1  6
  9 11  1  0
 11 12  2  0
 12 13  1  0
 13 14  1  0
 14 15  2  0
 15 16  1  0
 15 17  1  0
 17 18  2  0
 18 19  1  0
 19 20  2  0
 20 21  1  0
 21 22  1  0
 22 23  1  0
 23 24  1  0
 24 25  1  0
 25 26  1  0
 20 27  1  0
 27 28  2  0
 13 29  2  0
 29 30  1  0
 30 31  2  0
 31 32  1  0
  9 33  1  0
 33 34  2  0
 34 35  1  0
 34 36  1  0
  8  6  1  0
 31 11  1  0
 36  6  1  0
 28 17  1  0
 26 23  1  0
  1 37  1  0
  1 38  1  0
  1 39  1  0
  3 40  1  0
  3 41  1  0
  3 42  1  0
  7 43  1  0
  7 44  1  0
  8 45  1  6
 10 46  1  0
 10 47  1  0
 10 48  1  0
 12 49  1  0
 14 50  1  0
 18 51  1  0
 22 52  1  0
 22 53  1  0
 23 54  1  0
 24 55  1  0
 24 56  1  0
 26 57  1  0
 26 58  1  0
 27 59  1  0
 29 60  1  0
 30 61  1  0
 35 62  1  0
 35 63  1  0
M  END
$$$$
