
     RDKit          3D

 55 58  0  0  0  0  0  0  0  0999 V2000
    9.5082    0.1721   -1.1905 C   0  0  0  0  0  0  0  0  0  0  0  0
    8.2736    0.5692   -1.7988 O   0  0  0  0  0  0  0  0  0  0  0  0
    7.0691    0.4202   -1.1045 C   0  0  0  0  0  0  0  0  0  0  0  0
    5.8868    0.8043   -1.6978 C   0  0  0  0  0  0  0  0  0  0  0  0
    4.7003    0.6661   -1.0344 N   0  0  0  0  0  0  0  0  0  0  0  0
    4.6513    0.1626    0.1896 C   0  0  0  0  0  0  0  0  0  0  0  0
    3.4291    0.0237    0.8690 C   0  0  0  0  0  0  0  0  0  0  0  0
    2.2665    0.4229    0.1846 N   0  0  0  0  0  0  0  0  0  0  0  0
    1.0077    0.4033    0.8113 C   0  0  0  0  0  0  0  0  0  0  0  0
    0.7576    0.4808    2.1555 C   0  0  0  0  0  0  0  0  0  0  0  0
   -0.5416    0.4320    2.6830 C   0  0  0  0  0  0  0  0  0  0  0  0
   -1.5951    0.3017    1.8047 C   0  0  0  0  0  0  0  0  0  0  0  0
   -2.8715    0.2465    2.2893 F   0  0  0  0  0  0  0  0  0  0  0  0
   -1.3995    0.2199    0.4382 C   0  0  0  0  0  0  0  0  0  0  0  0
   -2.5628    0.0816   -0.4972 C   0  0  2  0  0  0  0  0  0  0  0  0
   -1.9940   -0.0643   -1.9125 C   0  0  0  0  0  0  0  0  0  0  0  0
   -3.2997    1.3774   -0.4503 C   0  0  0  0  0  0  0  0  0  0  0  0
   -4.8999    1.1841   -1.1708 S   0  0  0  0  0  6  0  0  0  0  0  0
   -4.8534    1.1122   -2.6512 O   0  0  0  0  0  0  0  0  0  0  0  0
   -5.7100    2.4133   -0.7858 O   0  0  0  0  0  0  0  0  0  0  0  0
   -5.6229   -0.2553   -0.4382 C   0  0  0  0  0  0  0  0  0  0  0  0
   -6.2450    0.1808    0.8843 C   0  0  0  0  0  0  0  0  0  0  0  0
   -6.7177   -0.7984   -1.3384 C   0  0  0  0  0  0  0  0  0  0  0  0
   -4.5667   -1.2654   -0.2046 C   0  0  0  0  0  0  0  0  0  0  0  0
   -5.0271   -2.6004    0.0952 N   0  0  0  0  0  0  0  0  0  0  0  0
   -3.3211   -1.0910   -0.2371 N   0  0  0  0  0  0  0  0  0  0  0  0
   -0.1088    0.2721   -0.0260 C   0  0  0  0  0  0  0  0  0  0  0  0
    3.4347   -0.4890    2.1046 N   0  0  0  0  0  0  0  0  0  0  0  0
    4.5466   -0.8839    2.7443 C   0  0  0  0  0  0  0  0  0  0  0  0
    5.7425   -0.7458    2.0739 C   0  0  0  0  0  0  0  0  0  0  0  0
    5.8251   -0.2259    0.7959 C   0  0  0  0  0  0  0  0  0  0  0  0
    7.0010   -0.0895    0.1399 N   0  0  0  0  0  0  0  0  0  0  0  0
    9.2625   -0.7403   -0.5714 H   0  0  0  0  0  0  0  0  0  0  0  0
    9.8768    0.9207   -0.4625 H   0  0  0  0  0  0  0  0  0  0  0  0
   10.2517   -0.1605   -1.9206 H   0  0  0  0  0  0  0  0  0  0  0  0
    5.9183    1.2175   -2.7015 H   0  0  0  0  0  0  0  0  0  0  0  0
    2.3157    0.7526   -0.8298 H   0  0  0  0  0  0  0  0  0  0  0  0
    1.5820    0.5937    2.8356 H   0  0  0  0  0  0  0  0  0  0  0  0
   -0.6596    0.4985    3.7561 H   0  0  0  0  0  0  0  0  0  0  0  0
   -1.5209    0.8738   -2.2200 H   0  0  0  0  0  0  0  0  0  0  0  0
   -2.8694   -0.2087   -2.6124 H   0  0  0  0  0  0  0  0  0  0  0  0
   -1.3741   -0.9657   -1.9811 H   0  0  0  0  0  0  0  0  0  0  0  0
   -3.4388    1.6735    0.6075 H   0  0  0  0  0  0  0  0  0  0  0  0
   -2.6970    2.1492   -0.9744 H   0  0  0  0  0  0  0  0  0  0  0  0
   -5.4331    0.5749    1.5264 H   0  0  0  0  0  0  0  0  0  0  0  0
   -6.8059   -0.6508    1.3660 H   0  0  0  0  0  0  0  0  0  0  0  0
   -6.9306    1.0172    0.6764 H   0  0  0  0  0  0  0  0  0  0  0  0
   -6.4515   -1.7875   -1.7693 H   0  0  0  0  0  0  0  0  0  0  0  0
   -7.6770   -0.8768   -0.7967 H   0  0  0  0  0  0  0  0  0  0  0  0
   -6.8802   -0.0840   -2.1657 H   0  0  0  0  0  0  0  0  0  0  0  0
   -5.3749   -2.7297    1.0888 H   0  0  0  0  0  0  0  0  0  0  0  0
   -5.0187   -3.3704   -0.6032 H   0  0  0  0  0  0  0  0  0  0  0  0
    0.0380    0.2054   -1.1139 H   0  0  0  0  0  0  0  0  0  0  0  0
    4.4675   -1.2824    3.7277 H   0  0  0  0  0  0  0  0  0  0  0  0
    6.6555   -1.0579    2.5691 H   0  0  0  0  0  0  0  0  0  0  0  0
  1  2  1  0
  2  3  1  0
  3  4  2  0
  4  5  1  0
  5  6  2  0
  6  7  1  0
  7  8  1  0
  8  9  1  0
  9 10  2  0
 10 11  1  0
 11 12  2  0
 12 13  1  0
 12 14  1  0
 14 15  1  0
 15 16  1  6
 15 17  1  0
 17 18  1  0
 18 19  2  0
 18 20  2  0
 18 21  1  0
 21 22  1  0
 21 23  1  0
 21 24  1  0
 24 25  1  0
 24 26  2  0
 14 27  2  0
  7 28  2  0
 28 29  1  0
 29 30  2  0
 30 31  1  0
 31 32  2  0
 32  3  1  0
 31  6  1  0
 27  9  1  0
 26 15  1  0
  1 33  1  0
  1 34  1  0
  1 35  1  0
  4 36  1  0
  8 37  1  0
 10 38  1  0
 11 39  1  0
 16 40  1  0
 16 41  1  0
 16 42  1  0
 17 43  1  0
 17 44  1  0
 22 45  1  0
 22 46  1  0
 22 47  1  0
 23 48  1  0
 23 49  1  0
 23 50  1  0
 25 51  1  0
 25 52  1  0
 27 53  1  0
 29 54  1  0
 30 55  1  0
M  END
$$$$
