
     RDKit          3D

 48 49  0  0  0  0  0  0  0  0999 V2000
   -5.5563    2.1401    0.0386 C   0  0  0  0  0  0  0  0  0  0  0  0
   -4.9471    0.7626    0.2670 C   0  0  0  0  0  0  0  0  0  0  0  0
   -5.0446    0.4473    1.7400 C   0  0  0  0  0  0  0  0  0  0  0  0
   -3.5924    0.7852   -0.1753 N   0  0  0  0  0  0  0  0  0  0  0  0
   -2.8411   -0.4037    0.0336 C   0  0  0  0  0  0  0  0  0  0  0  0
   -1.4162   -0.2268   -0.4808 C   0  0  0  0  0  0  0  0  0  0  0  0
   -0.6156   -1.4921   -0.2587 C   0  0  0  0  0  0  0  0  0  0  0  0
    0.7674   -1.3027   -0.7647 C   0  0  0  0  0  0  0  0  0  0  0  0
    1.7645   -0.8168    0.0457 C   0  0  0  0  0  0  0  0  0  0  0  0
    3.0097   -0.6594   -0.4537 C   0  0  0  0  0  0  0  0  0  0  0  0
    4.1531   -0.1603    0.2805 C   0  0  0  0  0  0  0  0  0  0  0  0
    4.0095    0.1958    1.5972 C   0  0  0  0  0  0  0  0  0  0  0  0
    5.0706    0.6815    2.3544 C   0  0  0  0  0  0  0  0  0  0  0  0
    6.3137    0.8191    1.7904 C   0  0  0  0  0  0  0  0  0  0  0  0
    6.4755    0.4666    0.4713 C   0  0  0  0  0  0  0  0  0  0  0  0
    7.8130    0.6139   -0.1384 C   0  0  0  0  0  0  0  0  0  0  0  0
    8.5577    1.5128    0.5876 F   0  0  0  0  0  0  0  0  0  0  0  0
    8.4569   -0.5986   -0.2864 F   0  0  0  0  0  0  0  0  0  0  0  0
    7.6009    1.1027   -1.4342 F   0  0  0  0  0  0  0  0  0  0  0  0
    5.4165   -0.0114   -0.2620 C   0  0  0  0  0  0  0  0  0  0  0  0
    3.2399   -0.9879   -1.7491 N   0  0  0  0  0  0  0  0  0  0  0  0
    2.2874   -1.4633   -2.5613 C   0  0  0  0  0  0  0  0  0  0  0  0
    2.6266   -1.7833   -3.9184 C   0  0  0  0  0  0  0  0  0  0  0  0
    2.9127   -2.0567   -5.0087 N   0  0  0  0  0  0  0  0  0  0  0  0
    1.0426   -1.6188   -2.0556 N   0  0  0  0  0  0  0  0  0  0  0  0
   -5.8273   -0.1900   -0.4518 C   0  0  0  0  0  0  0  0  0  0  0  0
   -7.1787   -0.2602   -0.0225 N   0  0  0  0  0  0  0  0  0  0  0  0
   -5.3839   -0.8918   -1.3906 O   0  0  0  0  0  0  0  0  0  0  0  0
   -4.9961    2.7315   -0.6902 H   0  0  0  0  0  0  0  0  0  0  0  0
   -5.5785    2.7278    1.0008 H   0  0  0  0  0  0  0  0  0  0  0  0
   -6.6108    2.0810   -0.2908 H   0  0  0  0  0  0  0  0  0  0  0  0
   -4.7649   -0.6070    1.8848 H   0  0  0  0  0  0  0  0  0  0  0  0
   -4.2885    1.0839    2.2589 H   0  0  0  0  0  0  0  0  0  0  0  0
   -6.0669    0.6845    2.0836 H   0  0  0  0  0  0  0  0  0  0  0  0
   -3.5261    1.1745   -1.1396 H   0  0  0  0  0  0  0  0  0  0  0  0
   -3.2857   -1.2420   -0.5222 H   0  0  0  0  0  0  0  0  0  0  0  0
   -2.8430   -0.6229    1.1266 H   0  0  0  0  0  0  0  0  0  0  0  0
   -1.4861    0.0163   -1.5506 H   0  0  0  0  0  0  0  0  0  0  0  0
   -0.9055    0.6195    0.0228 H   0  0  0  0  0  0  0  0  0  0  0  0
   -1.0422   -2.3479   -0.8187 H   0  0  0  0  0  0  0  0  0  0  0  0
   -0.6049   -1.7402    0.8153 H   0  0  0  0  0  0  0  0  0  0  0  0
    1.5445   -0.5715    1.0529 H   0  0  0  0  0  0  0  0  0  0  0  0
    3.0745    0.1293    2.1457 H   0  0  0  0  0  0  0  0  0  0  0  0
    4.9545    0.9614    3.3918 H   0  0  0  0  0  0  0  0  0  0  0  0
    7.1622    1.2020    2.3777 H   0  0  0  0  0  0  0  0  0  0  0  0
    5.5170   -0.2989   -1.3120 H   0  0  0  0  0  0  0  0  0  0  0  0
   -7.9894   -0.0621   -0.6429 H   0  0  0  0  0  0  0  0  0  0  0  0
   -7.3789   -0.5230    0.9638 H   0  0  0  0  0  0  0  0  0  0  0  0
  1  2  1  0
  2  3  1  0
  2  4  1  0
  4  5  1  0
  5  6  1  0
  6  7  1  0
  7  8  1  0
  8  9  2  0
  9 10  1  0
 10 11  1  0
 11 12  2  0
 12 13  1  0
 13 14  2  0
 14 15  1  0
 15 16  1  0
 16 17  1  0
 16 18  1  0
 16 19  1  0
 15 20  2  0
 10 21  2  0
 21 22  1  0
 22 23  1  0
 23 24  3  0
 22 25  2  0
  2 26  1  0
 26 27  1  0
 26 28  2  0
 25  8  1  0
 20 11  1  0
  1 29  1  0
  1 30  1  0
  1 31  1  0
  3 32  1  0
  3 33  1  0
  3 34  1  0
  4 35  1  0
  5 36  1  0
  5 37  1  0
  6 38  1  0
  6 39  1  0
  7 40  1  0
  7 41  1  0
  9 42  1  0
 12 43  1  0
 13 44  1  0
 14 45  1  0
 20 46  1  0
 27 47  1  0
 27 48  1  0
M  END
$$$$
