
     RDKit          3D

 51 54  0  0  0  0  0  0  0  0999 V2000
    9.3013   -1.7208    0.7727 C   0  0  0  0  0  0  0  0  0  0  0  0
    8.7025   -1.1303   -0.4796 C   0  0  0  0  0  0  0  0  0  0  0  0
    8.1642   -0.5785   -1.6542 C   0  0  0  0  0  0  0  0  0  0  0  0
    7.5791    0.0177   -2.8870 C   0  0  0  0  0  0  0  0  0  0  0  0
    6.4436    0.4479   -2.1212 O   0  0  0  0  0  0  0  0  0  0  0  0
    5.4186    0.3299   -1.3721 C   0  0  0  0  0  0  0  0  0  0  0  0
    5.0915    1.6610   -0.7589 C   0  0  0  0  0  0  0  0  0  0  0  0
    4.0148    1.8452    0.0090 N   0  0  0  0  0  0  0  0  0  0  0  0
    3.1436    0.6512    0.2114 C   0  0  0  0  0  0  0  0  0  0  0  0
    1.7217    1.0980    0.4868 C   0  0  0  0  0  0  0  0  0  0  0  0
    1.4624    1.9996    1.4028 F   0  0  0  0  0  0  0  0  0  0  0  0
    0.7826    0.4149   -0.1980 C   0  0  0  0  0  0  0  0  0  0  0  0
   -0.6564    0.7530   -0.1285 C   0  0  0  0  0  0  0  0  0  0  0  0
   -0.6190    2.4032    0.0976 C   0  0  0  0  0  0  0  0  0  0  0  0
   -1.8977    2.6824    0.2323 C   0  0  0  0  0  0  0  0  0  0  0  0
   -3.0990    2.2545    0.2566 C   0  0  0  0  0  0  0  0  0  0  0  0
   -4.1887    2.8840    0.5851 F   0  0  0  0  0  0  0  0  0  0  0  0
   -3.1045    0.7173    0.0121 C   0  0  0  0  0  0  0  0  0  0  0  0
   -4.3639    0.0797    0.1022 C   0  0  1  0  0  0  0  0  0  0  0  0
   -5.4031    0.8056   -0.8381 C   0  0  0  0  0  0  0  0  0  0  0  0
   -4.4266   -1.2984   -0.2939 N   0  0  0  0  0  0  0  0  0  0  0  0
   -5.4638   -2.0000   -0.2295 C   0  0  0  0  0  0  0  0  0  0  0  0
   -5.5805   -3.3856   -0.6348 N   0  0  0  0  0  0  0  0  0  0  0  0
   -6.9392   -1.2345    0.5630 S   0  0  0  0  0  0  0  0  0  0  0  0
   -6.1870   -0.1072    1.7998 C   0  0  1  0  0  0  0  0  0  0  0  0
   -6.9296    0.9678    2.3940 C   0  0  0  0  0  0  0  0  0  0  0  0
   -7.5518    1.8434    2.8940 N   0  0  0  0  0  0  0  0  0  0  0  0
   -5.0605   -0.8145    2.5271 C   0  0  0  0  0  0  0  0  0  0  0  0
   -4.7889    0.2665    1.5311 C   0  0  1  0  0  0  0  0  0  0  0  0
   -1.8198    0.4017   -0.1112 C   0  0  0  0  0  0  0  0  0  0  0  0
    3.4672   -0.4706   -0.3061 C   0  0  0  0  0  0  0  0  0  0  0  0
    4.5842   -0.6682   -1.0872 N   0  0  0  0  0  0  0  0  0  0  0  0
   10.4303   -1.6389    0.6159 H   0  0  0  0  0  0  0  0  0  0  0  0
    9.1677   -2.8475    0.4871 H   0  0  0  0  0  0  0  0  0  0  0  0
    8.8901   -1.3598    1.6123 H   0  0  0  0  0  0  0  0  0  0  0  0
    8.0321    0.9132   -3.1605 H   0  0  0  0  0  0  0  0  0  0  0  0
    7.3942   -0.7646   -3.5806 H   0  0  0  0  0  0  0  0  0  0  0  0
    5.7627    2.4777   -0.9805 H   0  0  0  0  0  0  0  0  0  0  0  0
    1.0299   -0.4768   -0.7109 H   0  0  0  0  0  0  0  0  0  0  0  0
    0.2824    2.7367   -0.0468 H   0  0  0  0  0  0  0  0  0  0  0  0
   -1.9149    3.9143    0.5787 H   0  0  0  0  0  0  0  0  0  0  0  0
   -5.8241    1.6441   -0.2951 H   0  0  0  0  0  0  0  0  0  0  0  0
   -4.7782    1.1511   -1.7382 H   0  0  0  0  0  0  0  0  0  0  0  0
   -6.0877    0.0773   -1.2900 H   0  0  0  0  0  0  0  0  0  0  0  0
   -5.3942   -4.1434    0.0697 H   0  0  0  0  0  0  0  0  0  0  0  0
   -5.8573   -3.5884   -1.6264 H   0  0  0  0  0  0  0  0  0  0  0  0
   -4.7197   -1.7933    2.2402 H   0  0  0  0  0  0  0  0  0  0  0  0
   -4.8488   -0.4896    3.5940 H   0  0  0  0  0  0  0  0  0  0  0  0
   -4.3648    1.2188    1.9529 H   0  0  0  0  0  0  0  0  0  0  0  0
   -1.7804   -0.8708   -0.3045 H   0  0  0  0  0  0  0  0  0  0  0  0
    2.7838   -1.3342   -0.1944 H   0  0  0  0  0  0  0  0  0  0  0  0
  1  2  1  0
  2  3  3  0
  3  4  1  0
  4  5  1  0
  5  6  1  0
  6  7  2  0
  7  8  1  0
  8  9  2  0
  9 10  1  0
 10 11  1  0
 10 12  2  0
 12 13  1  0
 13 14  2  0
 14 15  1  0
 15 16  2  0
 16 17  1  0
 16 18  1  0
 18 19  1  0
 19 20  1  6
 19 21  1  0
 21 22  2  0
 22 23  1  0
 22 24  1  0
 24 25  1  0
 25 26  1  1
 26 27  3  0
 25 28  1  0
 28 29  1  0
 18 30  2  0
  9 31  1  0
 31 32  2  0
 32  6  1  0
 30 13  1  0
 29 19  1  0
 29 25  1  0
  1 33  1  0
  1 34  1  0
  1 35  1  0
  4 36  1  0
  4 37  1  0
  7 38  1  0
 12 39  1  0
 14 40  1  0
 15 41  1  0
 20 42  1  0
 20 43  1  0
 20 44  1  0
 23 45  1  0
 23 46  1  0
 28 47  1  0
 28 48  1  0
 29 49  1  1
 30 50  1  0
 31 51  1  0
M  END
$$$$
