
     RDKit          3D

 59 62  0  0  0  0  0  0  0  0999 V2000
   -1.3816    4.3460    0.0212 C   0  0  0  0  0  0  0  0  0  0  0  0
   -1.6175    3.2486   -0.3978 C   0  0  0  0  0  0  0  0  0  0  0  0
   -1.9247    1.9392   -0.9011 C   0  0  0  0  0  0  0  0  0  0  0  0
   -1.4342    0.8098   -0.2492 N   0  0  0  0  0  0  0  0  0  0  0  0
   -1.9234    0.4108    1.0037 C   0  0  0  0  0  0  0  0  0  0  0  0
   -3.3897    0.1977    0.8524 C   0  0  0  0  0  0  0  0  0  0  0  0
   -4.2656    1.2050    1.1531 C   0  0  0  0  0  0  0  0  0  0  0  0
   -5.6420    1.0617    0.9900 C   0  0  0  0  0  0  0  0  0  0  0  0
   -6.1088   -0.1481    0.5083 C   0  0  0  0  0  0  0  0  0  0  0  0
   -7.4725   -0.3145    0.3379 C   0  0  0  0  0  0  0  0  0  0  0  0
   -7.9563   -1.5134   -0.1406 C   0  0  0  0  0  0  0  0  0  0  0  0
   -7.0928   -2.5374   -0.4460 C   0  0  0  0  0  0  0  0  0  0  0  0
   -5.7365   -2.3507   -0.2707 C   0  0  0  0  0  0  0  0  0  0  0  0
   -4.8576   -3.3596   -0.5728 O   0  0  0  0  0  0  0  0  0  0  0  0
   -5.2190   -1.1398    0.2157 C   0  0  0  0  0  0  0  0  0  0  0  0
   -3.8846   -0.9594    0.3882 N   0  0  0  0  0  0  0  0  0  0  0  0
   -0.5569   -0.0333   -0.9650 C   0  0  0  0  0  0  0  0  0  0  0  0
    0.7894    0.5794   -1.2635 C   0  0  0  0  0  0  0  0  0  0  0  0
    1.5374    0.9236   -0.0286 C   0  0  0  0  0  0  0  0  0  0  0  0
    2.8933    0.2906    0.1159 C   0  0  0  0  0  0  0  0  0  0  0  0
    3.7083    0.2894   -1.0561 N   0  0  0  0  0  0  0  0  0  0  0  0
    4.7268   -0.7262   -1.0711 C   0  0  0  0  0  0  0  0  0  0  0  0
    5.7032   -0.6653    0.0206 C   0  0  0  0  0  0  0  0  0  0  0  0
    5.5309   -1.3424    1.2030 C   0  0  0  0  0  0  0  0  0  0  0  0
    6.4606   -1.2853    2.2344 C   0  0  0  0  0  0  0  0  0  0  0  0
    7.6038   -0.5322    2.0927 C   0  0  0  0  0  0  0  0  0  0  0  0
    7.7945    0.1511    0.9206 C   0  0  0  0  0  0  0  0  0  0  0  0
    6.8521    0.0857   -0.1090 C   0  0  0  0  0  0  0  0  0  0  0  0
    2.9326    0.2794   -2.2839 C   0  0  0  0  0  0  0  0  0  0  0  0
    1.6012   -0.4169   -2.0583 C   0  0  0  0  0  0  0  0  0  0  0  0
   -1.1860    5.3439    0.3963 H   0  0  0  0  0  0  0  0  0  0  0  0
   -3.0621    1.8676   -0.8842 H   0  0  0  0  0  0  0  0  0  0  0  0
   -1.6971    1.8426   -1.9955 H   0  0  0  0  0  0  0  0  0  0  0  0
   -1.7693    1.1080    1.8417 H   0  0  0  0  0  0  0  0  0  0  0  0
   -1.4786   -0.5816    1.2692 H   0  0  0  0  0  0  0  0  0  0  0  0
   -3.9442    2.1663    1.5335 H   0  0  0  0  0  0  0  0  0  0  0  0
   -6.3502    1.8429    1.2203 H   0  0  0  0  0  0  0  0  0  0  0  0
   -8.1631    0.4948    0.5783 H   0  0  0  0  0  0  0  0  0  0  0  0
   -9.0004   -1.6630   -0.2796 H   0  0  0  0  0  0  0  0  0  0  0  0
   -7.4784   -3.5042   -0.8343 H   0  0  0  0  0  0  0  0  0  0  0  0
   -5.0998   -4.1766   -1.0939 H   0  0  0  0  0  0  0  0  0  0  0  0
   -0.3894   -0.9637   -0.3616 H   0  0  0  0  0  0  0  0  0  0  0  0
   -1.0657   -0.3713   -1.9001 H   0  0  0  0  0  0  0  0  0  0  0  0
    0.6890    1.4995   -1.8925 H   0  0  0  0  0  0  0  0  0  0  0  0
    1.6724    2.0223    0.0284 H   0  0  0  0  0  0  0  0  0  0  0  0
    0.8821    0.6616    0.8431 H   0  0  0  0  0  0  0  0  0  0  0  0
    2.7653   -0.7455    0.4833 H   0  0  0  0  0  0  0  0  0  0  0  0
    3.4180    0.8597    0.9113 H   0  0  0  0  0  0  0  0  0  0  0  0
    4.1853   -1.7122   -1.1128 H   0  0  0  0  0  0  0  0  0  0  0  0
    5.2104   -0.6555   -2.0916 H   0  0  0  0  0  0  0  0  0  0  0  0
    4.6391   -1.9487    1.3418 H   0  0  0  0  0  0  0  0  0  0  0  0
    6.3124   -1.8235    3.1513 H   0  0  0  0  0  0  0  0  0  0  0  0
    8.3479   -0.4855    2.9102 H   0  0  0  0  0  0  0  0  0  0  0  0
    8.6990    0.7431    0.8206 H   0  0  0  0  0  0  0  0  0  0  0  0
    7.0743    0.6559   -1.0092 H   0  0  0  0  0  0  0  0  0  0  0  0
    2.7328    1.2975   -2.6048 H   0  0  0  0  0  0  0  0  0  0  0  0
    3.5057   -0.2683   -3.0434 H   0  0  0  0  0  0  0  0  0  0  0  0
    1.1859   -0.6589   -3.0341 H   0  0  0  0  0  0  0  0  0  0  0  0
    1.6941   -1.3410   -1.4613 H   0  0  0  0  0  0  0  0  0  0  0  0
  1  2  3  0
  2  3  1  0
  3  4  1  0
  4  5  1  0
  5  6  1  0
  6  7  2  0
  7  8  1  0
  8  9  2  0
  9 10  1  0
 10 11  2  0
 11 12  1  0
 12 13  2  0
 13 14  1  0
 13 15  1  0
 15 16  2  0
  4 17  1  0
 17 18  1  0
 18 19  1  0
 19 20  1  0
 20 21  1  0
 21 22  1  0
 22 23  1  0
 23 24  2  0
 24 25  1  0
 25 26  2  0
 26 27  1  0
 27 28  2  0
 21 29  1  0
 29 30  1  0
 16  6  1  0
 30 18  1  0
 15  9  1  0
 28 23  1  0
  1 31  1  0
  3 32  1  0
  3 33  1  0
  5 34  1  0
  5 35  1  0
  7 36  1  0
  8 37  1  0
 10 38  1  0
 11 39  1  0
 12 40  1  0
 14 41  1  0
 17 42  1  0
 17 43  1  0
 18 44  1  0
 19 45  1  0
 19 46  1  0
 20 47  1  0
 20 48  1  0
 22 49  1  0
 22 50  1  0
 24 51  1  0
 25 52  1  0
 26 53  1  0
 27 54  1  0
 28 55  1  0
 29 56  1  0
 29 57  1  0
 30 58  1  0
 30 59  1  0
M  END
$$$$
