
     RDKit          3D

 39 40  0  0  0  0  0  0  0  0999 V2000
   -4.4192    1.0729   -1.4793 C   0  0  0  0  0  0  0  0  0  0  0  0
   -4.0588    0.6960   -0.0586 C   0  0  1  0  0  0  0  0  0  0  0  0
   -4.6528   -0.5611    0.2593 N   0  0  0  0  0  0  0  0  0  0  0  0
   -2.5608    0.7101    0.0921 C   0  0  1  0  0  0  0  0  0  0  0  0
   -2.1271    0.3417    1.4916 C   0  0  0  0  0  0  0  0  0  0  0  0
   -0.6412    0.5479    1.6139 C   0  0  0  0  0  0  0  0  0  0  0  0
    0.0728   -0.2871    0.6026 C   0  0  2  0  0  0  0  0  0  0  0  0
    1.5523   -0.0600    0.6593 C   0  0  0  0  0  0  0  0  0  0  0  0
    1.9846    0.7411    1.4839 O   0  0  0  0  0  0  0  0  0  0  0  0
    2.3924   -0.7594   -0.2194 N   0  0  0  0  0  0  0  0  0  0  0  0
    3.7866   -0.6225   -0.2508 C   0  0  0  0  0  0  0  0  0  0  0  0
    4.5663    0.1775    0.5273 C   0  0  0  0  0  0  0  0  0  0  0  0
    5.9451    0.2441    0.4206 C   0  0  0  0  0  0  0  0  0  0  0  0
    6.5545   -0.5123   -0.4905 N   0  0  0  0  0  0  0  0  0  0  0  0
    5.8660   -1.3231   -1.2923 C   0  0  0  0  0  0  0  0  0  0  0  0
    4.4964   -1.3973   -1.1952 C   0  0  0  0  0  0  0  0  0  0  0  0
   -0.3761    0.1158   -0.7750 C   0  0  0  0  0  0  0  0  0  0  0  0
   -1.8617   -0.2077   -0.8631 C   0  0  0  0  0  0  0  0  0  0  0  0
   -4.8829    0.2085   -2.0289 H   0  0  0  0  0  0  0  0  0  0  0  0
   -5.1267    1.9262   -1.4691 H   0  0  0  0  0  0  0  0  0  0  0  0
   -3.5137    1.4089   -2.0248 H   0  0  0  0  0  0  0  0  0  0  0  0
   -4.4736    1.4559    0.6366 H   0  0  0  0  0  0  0  0  0  0  0  0
   -4.6677   -1.2513   -0.4993 H   0  0  0  0  0  0  0  0  0  0  0  0
   -4.4082   -0.9088    1.1922 H   0  0  0  0  0  0  0  0  0  0  0  0
   -2.1858    1.7363   -0.0966 H   0  0  0  0  0  0  0  0  0  0  0  0
   -2.6254    1.0141    2.2488 H   0  0  0  0  0  0  0  0  0  0  0  0
   -2.3926   -0.7249    1.6989 H   0  0  0  0  0  0  0  0  0  0  0  0
   -0.3199    0.2413    2.6344 H   0  0  0  0  0  0  0  0  0  0  0  0
   -0.4273    1.6120    1.4105 H   0  0  0  0  0  0  0  0  0  0  0  0
   -0.1538   -1.3682    0.7239 H   0  0  0  0  0  0  0  0  0  0  0  0
    1.9251   -1.4440   -0.9113 H   0  0  0  0  0  0  0  0  0  0  0  0
    4.1196    0.7951    1.2646 H   0  0  0  0  0  0  0  0  0  0  0  0
    6.4843    0.9148    1.0877 H   0  0  0  0  0  0  0  0  0  0  0  0
    6.4187   -1.9088   -2.0084 H   0  0  0  0  0  0  0  0  0  0  0  0
    3.9625   -2.0665   -1.8615 H   0  0  0  0  0  0  0  0  0  0  0  0
    0.1971   -0.3837   -1.5789 H   0  0  0  0  0  0  0  0  0  0  0  0
   -0.2941    1.2257   -0.8390 H   0  0  0  0  0  0  0  0  0  0  0  0
   -1.9547   -1.2520   -0.4423 H   0  0  0  0  0  0  0  0  0  0  0  0
   -2.2003   -0.1473   -1.8962 H   0  0  0  0  0  0  0  0  0  0  0  0
  1  2  1  0
  2  3  1  0
  2  4  1  0
  4  5  1  0
  5  6  1  0
  6  7  1  0
  7  8  1  0
  8  9  2  0
  8 10  1  0
 10 11  1  0
 11 12  2  0
 12 13  1  0
 13 14  2  0
 14 15  1  0
 15 16  2  0
  7 17  1  0
 17 18  1  0
 18  4  1  0
 16 11  1  0
  1 19  1  0
  1 20  1  0
  1 21  1  0
  2 22  1  1
  3 23  1  0
  3 24  1  0
  4 25  1  6
  5 26  1  0
  5 27  1  0
  6 28  1  0
  6 29  1  0
  7 30  1  1
 10 31  1  0
 12 32  1  0
 13 33  1  0
 15 34  1  0
 16 35  1  0
 17 36  1  0
 17 37  1  0
 18 38  1  0
 18 39  1  0
M  END
$$$$
