
     RDKit          3D

 55 58  0  0  0  0  0  0  0  0999 V2000
   -3.1331    4.7612   -0.5266 C   0  0  0  0  0  0  0  0  0  0  0  0
   -2.2267    4.2488    0.5448 C   0  0  0  0  0  0  0  0  0  0  0  0
   -1.8017    2.9369    0.4040 O   0  0  0  0  0  0  0  0  0  0  0  0
   -2.7010    1.8804    0.3887 C   0  0  0  0  0  0  0  0  0  0  0  0
   -4.0595    2.0949    0.5226 C   0  0  0  0  0  0  0  0  0  0  0  0
   -4.9237    1.0113    0.5027 C   0  0  0  0  0  0  0  0  0  0  0  0
   -4.4719   -0.2420    0.3566 N   0  0  0  0  0  0  0  0  0  0  0  0
   -5.3571   -1.3390    0.3374 C   0  0  0  0  0  0  0  0  0  0  0  0
   -6.0531   -1.7030    1.4731 C   0  0  0  0  0  0  0  0  0  0  0  0
   -6.9299   -2.7680    1.5037 C   0  0  0  0  0  0  0  0  0  0  0  0
   -7.0986   -3.4821    0.3338 C   0  0  0  0  0  0  0  0  0  0  0  0
   -7.9498   -4.5393    0.3097 F   0  0  0  0  0  0  0  0  0  0  0  0
   -6.4018   -3.1173   -0.8022 C   0  0  0  0  0  0  0  0  0  0  0  0
   -5.5253   -2.0522   -0.8318 C   0  0  0  0  0  0  0  0  0  0  0  0
   -3.1213   -0.4382    0.2253 C   0  0  0  0  0  0  0  0  0  0  0  0
   -2.7080   -1.6203    0.0888 O   0  0  0  0  0  0  0  0  0  0  0  0
   -2.1978    0.5711    0.2336 C   0  0  0  0  0  0  0  0  0  0  0  0
   -0.7558    0.4210    0.0985 C   0  0  0  0  0  0  0  0  0  0  0  0
   -0.0711    1.4882    0.1317 O   0  0  0  0  0  0  0  0  0  0  0  0
   -0.0276   -0.7631   -0.0646 N   0  0  0  0  0  0  0  0  0  0  0  0
    1.3853   -0.9122   -0.1972 C   0  0  0  0  0  0  0  0  0  0  0  0
    2.3046    0.0772   -0.1905 C   0  0  0  0  0  0  0  0  0  0  0  0
    3.6620   -0.2432   -0.3330 C   0  0  0  0  0  0  0  0  0  0  0  0
    4.1272   -1.5169   -0.4812 C   0  0  0  0  0  0  0  0  0  0  0  0
    5.4320   -1.8831   -0.6216 O   0  0  0  0  0  0  0  0  0  0  0  0
    6.5493   -1.1049   -0.6184 C   0  0  0  0  0  0  0  0  0  0  0  0
    7.3362   -1.0777   -1.7758 C   0  0  0  0  0  0  0  0  0  0  0  0
    8.4681   -0.3188   -1.8362 C   0  0  0  0  0  0  0  0  0  0  0  0
    8.8491    0.4186   -0.7818 N   0  0  0  0  0  0  0  0  0  0  0  0
    8.1419    0.4342    0.3487 C   0  0  0  0  0  0  0  0  0  0  0  0
    8.5551    1.2206    1.4624 N   0  0  0  0  0  0  0  0  0  0  0  0
    6.9954   -0.3288    0.4230 C   0  0  0  0  0  0  0  0  0  0  0  0
    6.0860   -0.3189    1.9103 Cl  0  0  0  0  0  0  0  0  0  0  0  0
    3.1860   -2.5424   -0.4893 C   0  0  0  0  0  0  0  0  0  0  0  0
    3.5770   -3.8423   -0.6337 F   0  0  0  0  0  0  0  0  0  0  0  0
    1.8593   -2.2214   -0.3494 C   0  0  0  0  0  0  0  0  0  0  0  0
   -2.5587    5.5300   -1.1234 H   0  0  0  0  0  0  0  0  0  0  0  0
   -4.0179    5.3152   -0.1328 H   0  0  0  0  0  0  0  0  0  0  0  0
   -3.4161    4.0030   -1.2896 H   0  0  0  0  0  0  0  0  0  0  0  0
   -1.3807    4.9578    0.6669 H   0  0  0  0  0  0  0  0  0  0  0  0
   -2.8016    4.3247    1.5087 H   0  0  0  0  0  0  0  0  0  0  0  0
   -4.4705    3.1020    0.6503 H   0  0  0  0  0  0  0  0  0  0  0  0
   -5.9842    1.1804    0.6071 H   0  0  0  0  0  0  0  0  0  0  0  0
   -5.9435   -1.1593    2.4174 H   0  0  0  0  0  0  0  0  0  0  0  0
   -7.4810   -3.0602    2.3940 H   0  0  0  0  0  0  0  0  0  0  0  0
   -6.5211   -3.6701   -1.7401 H   0  0  0  0  0  0  0  0  0  0  0  0
   -4.9926   -1.7945   -1.7495 H   0  0  0  0  0  0  0  0  0  0  0  0
   -0.5866   -1.6435   -0.0924 H   0  0  0  0  0  0  0  0  0  0  0  0
    2.0209    1.1025   -0.0787 H   0  0  0  0  0  0  0  0  0  0  0  0
    4.3775    0.5705   -0.3321 H   0  0  0  0  0  0  0  0  0  0  0  0
    7.0717   -1.6558   -2.6554 H   0  0  0  0  0  0  0  0  0  0  0  0
    9.1093   -0.2689   -2.7174 H   0  0  0  0  0  0  0  0  0  0  0  0
    9.5562    1.2891    1.7568 H   0  0  0  0  0  0  0  0  0  0  0  0
    7.8655    1.7563    2.0225 H   0  0  0  0  0  0  0  0  0  0  0  0
    1.1537   -3.0687   -0.3622 H   0  0  0  0  0  0  0  0  0  0  0  0
  1  2  1  0
  2  3  1  0
  3  4  1  0
  4  5  1  0
  5  6  2  0
  6  7  1  0
  7  8  1  0
  8  9  2  0
  9 10  1  0
 10 11  2  0
 11 12  1  0
 11 13  1  0
 13 14  2  0
  7 15  1  0
 15 16  2  0
 15 17  1  0
 17 18  1  0
 18 19  2  0
 18 20  1  0
 20 21  1  0
 21 22  2  0
 22 23  1  0
 23 24  2  0
 24 25  1  0
 25 26  1  0
 26 27  2  0
 27 28  1  0
 28 29  2  0
 29 30  1  0
 30 31  1  0
 30 32  2  0
 32 33  1  0
 24 34  1  0
 34 35  1  0
 34 36  2  0
 17  4  2  0
 36 21  1  0
 14  8  1  0
 32 26  1  0
  1 37  1  0
  1 38  1  0
  1 39  1  0
  2 40  1  0
  2 41  1  0
  5 42  1  0
  6 43  1  0
  9 44  1  0
 10 45  1  0
 13 46  1  0
 14 47  1  0
 20 48  1  0
 22 49  1  0
 23 50  1  0
 27 51  1  0
 28 52  1  0
 31 53  1  0
 31 54  1  0
 36 55  1  0
M  END
$$$$
