
     RDKit          3D

 51 54  0  0  0  0  0  0  0  0999 V2000
   -5.2984    1.5356   -0.8613 C   0  0  0  0  0  0  0  0  0  0  0  0
   -4.7157    0.4954    0.0911 C   0  0  0  0  0  0  0  0  0  0  0  0
   -5.9622   -0.1059    0.7729 C   0  0  0  0  0  0  0  0  0  0  0  0
   -4.0242   -0.5365   -0.6693 C   0  0  0  0  0  0  0  0  0  0  0  0
   -4.8587   -1.4894   -1.3816 N   0  0  0  0  0  0  0  0  0  0  0  0
   -2.7671   -0.6079   -0.7158 N   0  0  0  0  0  0  0  0  0  0  0  0
   -1.7771    0.2075   -0.1068 C   0  0  2  0  0  0  0  0  0  0  0  0
   -1.5393    1.5050   -0.8490 C   0  0  0  0  0  0  0  0  0  0  0  0
   -0.4890   -0.5512   -0.1204 C   0  0  0  0  0  0  0  0  0  0  0  0
    0.6367   -0.0721   -0.7581 C   0  0  0  0  0  0  0  0  0  0  0  0
    1.8393   -0.7465   -0.7724 C   0  0  0  0  0  0  0  0  0  0  0  0
    2.9435   -0.1789   -1.4643 N   0  0  0  0  0  0  0  0  0  0  0  0
    4.2657   -0.6143   -1.3261 C   0  0  0  0  0  0  0  0  0  0  0  0
    4.7232   -1.6529   -2.0251 N   0  0  0  0  0  0  0  0  0  0  0  0
    6.0073   -2.0805   -1.9041 C   0  0  0  0  0  0  0  0  0  0  0  0
    6.8265   -1.4463   -1.0680 N   0  0  0  0  0  0  0  0  0  0  0  0
    6.4513   -0.3950   -0.3279 C   0  0  0  0  0  0  0  0  0  0  0  0
    7.3078    0.2571    0.5330 C   0  0  0  0  0  0  0  0  0  0  0  0
    6.8136    1.3377    1.2489 C   0  0  0  0  0  0  0  0  0  0  0  0
    7.9121    2.1601    2.3391 Cl  0  0  0  0  0  0  0  0  0  0  0  0
    5.4986    1.7395    1.0954 C   0  0  0  0  0  0  0  0  0  0  0  0
    4.6957    1.0835    0.2511 N   0  0  0  0  0  0  0  0  0  0  0  0
    5.1196    0.0303   -0.4685 C   0  0  0  0  0  0  0  0  0  0  0  0
    1.9198   -1.9466   -0.1241 C   0  0  0  0  0  0  0  0  0  0  0  0
    0.8034   -2.4392    0.5173 C   0  0  0  0  0  0  0  0  0  0  0  0
   -0.3862   -1.7793    0.5355 C   0  0  0  0  0  0  0  0  0  0  0  0
   -1.4976   -2.2539    1.1616 F   0  0  0  0  0  0  0  0  0  0  0  0
   -2.1266    0.6047    1.3152 C   0  0  0  0  0  0  0  0  0  0  0  0
   -3.7622    1.2186    1.3626 S   0  0  0  0  0  6  0  0  0  0  0  0
   -3.8021    2.7363    1.2917 O   0  0  0  0  0  0  0  0  0  0  0  0
   -4.3114    0.9049    2.7524 O   0  0  0  0  0  0  0  0  0  0  0  0
   -6.1929    1.0443   -1.3388 H   0  0  0  0  0  0  0  0  0  0  0  0
   -5.6770    2.4195   -0.3345 H   0  0  0  0  0  0  0  0  0  0  0  0
   -4.6200    1.8502   -1.6500 H   0  0  0  0  0  0  0  0  0  0  0  0
   -5.6642   -0.7686    1.6000 H   0  0  0  0  0  0  0  0  0  0  0  0
   -6.5077    0.7554    1.2170 H   0  0  0  0  0  0  0  0  0  0  0  0
   -6.5734   -0.5808    0.0002 H   0  0  0  0  0  0  0  0  0  0  0  0
   -5.4170   -2.1257   -0.7781 H   0  0  0  0  0  0  0  0  0  0  0  0
   -4.9100   -1.5484   -2.3993 H   0  0  0  0  0  0  0  0  0  0  0  0
   -1.2586    1.3735   -1.9038 H   0  0  0  0  0  0  0  0  0  0  0  0
   -2.4245    2.1752   -0.7777 H   0  0  0  0  0  0  0  0  0  0  0  0
   -0.7160    2.0896   -0.3621 H   0  0  0  0  0  0  0  0  0  0  0  0
    0.6068    0.8928   -1.2920 H   0  0  0  0  0  0  0  0  0  0  0  0
    2.7724    0.6253   -2.1317 H   0  0  0  0  0  0  0  0  0  0  0  0
    6.3239   -2.9269   -2.4931 H   0  0  0  0  0  0  0  0  0  0  0  0
    8.3408   -0.0752    0.6402 H   0  0  0  0  0  0  0  0  0  0  0  0
    5.1509    2.5997    1.6815 H   0  0  0  0  0  0  0  0  0  0  0  0
    2.8602   -2.5208   -0.1078 H   0  0  0  0  0  0  0  0  0  0  0  0
    0.8361   -3.4010    1.0472 H   0  0  0  0  0  0  0  0  0  0  0  0
   -1.9920   -0.1984    2.0372 H   0  0  0  0  0  0  0  0  0  0  0  0
   -1.3837    1.4003    1.5996 H   0  0  0  0  0  0  0  0  0  0  0  0
  1  2  1  0
  2  3  1  0
  2  4  1  0
  4  5  1  0
  4  6  2  0
  6  7  1  0
  7  8  1  6
  7  9  1  0
  9 10  2  0
 10 11  1  0
 11 12  1  0
 12 13  1  0
 13 14  2  0
 14 15  1  0
 15 16  2  0
 16 17  1  0
 17 18  2  0
 18 19  1  0
 19 20  1  0
 19 21  2  0
 21 22  1  0
 22 23  2  0
 11 24  2  0
 24 25  1  0
 25 26  2  0
 26 27  1  0
  7 28  1  0
 28 29  1  0
 29 30  2  0
 29 31  2  0
 29  2  1  0
 26  9  1  0
 23 13  1  0
 23 17  1  0
  1 32  1  0
  1 33  1  0
  1 34  1  0
  3 35  1  0
  3 36  1  0
  3 37  1  0
  5 38  1  0
  5 39  1  0
  8 40  1  0
  8 41  1  0
  8 42  1  0
 10 43  1  0
 12 44  1  0
 15 45  1  0
 18 46  1  0
 21 47  1  0
 24 48  1  0
 25 49  1  0
 28 50  1  0
 28 51  1  0
M  END
$$$$
