
     RDKit          3D

 69 71  0  0  0  0  0  0  0  0999 V2000
    7.1282    2.4912    1.2694 C   0  0  0  0  0  0  0  0  0  0  0  0
    6.8326    1.7201   -0.0027 C   0  0  0  0  0  0  0  0  0  0  0  0
    5.4491    1.1151    0.0309 C   0  0  0  0  0  0  0  0  0  0  0  0
    4.1930    2.3656    0.2008 S   0  0  0  0  0  6  0  0  0  0  0  0
    4.2880    3.3429   -0.9078 O   0  0  0  0  0  0  0  0  0  0  0  0
    4.3662    3.0066    1.5488 O   0  0  0  0  0  0  0  0  0  0  0  0
    2.6726    1.5463    0.2264 N   0  0  0  0  0  0  0  0  0  0  0  0
    2.5484    0.6455    1.3243 C   0  0  0  0  0  0  0  0  0  0  0  0
    2.0905   -0.7513    0.8825 C   0  0  0  0  0  0  0  0  0  0  0  0
    0.9028   -0.5408    0.0873 N   0  0  0  0  0  0  0  0  0  0  0  0
    0.0840   -1.7023   -0.0372 C   0  0  0  0  0  0  0  0  0  0  0  0
   -1.1260   -1.4017   -0.8721 C   0  0  0  0  0  0  0  0  0  0  0  0
   -1.9316   -0.3398   -0.2756 N   0  0  0  0  0  0  0  0  0  0  0  0
   -3.1225    0.1198   -0.8642 C   0  0  0  0  0  0  0  0  0  0  0  0
   -3.4076   -0.4880   -1.9698 O   0  0  0  0  0  0  0  0  0  0  0  0
   -4.0184    1.1364   -0.4115 C   0  0  0  0  0  0  0  0  0  0  0  0
   -4.9883    1.5722   -1.3148 C   0  0  0  0  0  0  0  0  0  0  0  0
   -5.0506    1.0421   -2.5874 O   0  0  0  0  0  0  0  0  0  0  0  0
   -6.0127    1.4529   -3.5293 C   0  0  0  0  0  0  0  0  0  0  0  0
   -5.8932    2.5274   -0.9645 C   0  0  0  0  0  0  0  0  0  0  0  0
   -5.8944    3.1051    0.2902 C   0  0  0  0  0  0  0  0  0  0  0  0
   -6.8143    4.0618    0.6143 F   0  0  0  0  0  0  0  0  0  0  0  0
   -4.9613    2.7011    1.1943 C   0  0  0  0  0  0  0  0  0  0  0  0
   -4.0300    1.7145    0.8275 C   0  0  0  0  0  0  0  0  0  0  0  0
   -2.8501    1.2059    2.0844 S   0  0  0  0  0  0  0  0  0  0  0  0
   -3.5178   -0.1656    3.0273 C   0  0  0  0  0  0  0  0  0  0  0  0
    0.8911   -2.7927   -0.7012 C   0  0  0  0  0  0  0  0  0  0  0  0
    0.1542   -4.1144   -0.7268 C   0  0  0  0  0  0  0  0  0  0  0  0
   -0.4476   -4.4437    0.6218 C   0  0  0  0  0  0  0  0  0  0  0  0
    0.0718   -3.5210    1.7025 C   0  0  0  0  0  0  0  0  0  0  0  0
   -0.4052   -2.1216    1.3326 C   0  0  0  0  0  0  0  0  0  0  0  0
    1.1794    0.1564   -1.1355 C   0  0  0  0  0  0  0  0  0  0  0  0
    2.4489    0.9780   -1.0645 C   0  0  0  0  0  0  0  0  0  0  0  0
    6.6362    3.4783    1.2826 H   0  0  0  0  0  0  0  0  0  0  0  0
    8.2452    2.6237    1.2974 H   0  0  0  0  0  0  0  0  0  0  0  0
    6.8591    1.8502    2.1239 H   0  0  0  0  0  0  0  0  0  0  0  0
    7.5517    0.8768   -0.0264 H   0  0  0  0  0  0  0  0  0  0  0  0
    7.0195    2.3415   -0.8875 H   0  0  0  0  0  0  0  0  0  0  0  0
    5.3984    0.4260    0.8962 H   0  0  0  0  0  0  0  0  0  0  0  0
    5.2692    0.5573   -0.8878 H   0  0  0  0  0  0  0  0  0  0  0  0
    3.5066    0.5730    1.8779 H   0  0  0  0  0  0  0  0  0  0  0  0
    1.7783    1.0335    2.0502 H   0  0  0  0  0  0  0  0  0  0  0  0
    2.9288   -1.1750    0.3077 H   0  0  0  0  0  0  0  0  0  0  0  0
    1.8796   -1.3075    1.7925 H   0  0  0  0  0  0  0  0  0  0  0  0
   -0.8924   -1.0910   -1.9012 H   0  0  0  0  0  0  0  0  0  0  0  0
   -1.7652   -2.3119   -0.9382 H   0  0  0  0  0  0  0  0  0  0  0  0
   -1.5805    0.0632    0.5814 H   0  0  0  0  0  0  0  0  0  0  0  0
   -7.0086    1.3855   -3.0383 H   0  0  0  0  0  0  0  0  0  0  0  0
   -6.0279    0.7246   -4.3842 H   0  0  0  0  0  0  0  0  0  0  0  0
   -5.8044    2.4469   -3.9561 H   0  0  0  0  0  0  0  0  0  0  0  0
   -6.6504    2.8621   -1.6839 H   0  0  0  0  0  0  0  0  0  0  0  0
   -4.9256    3.1228    2.1798 H   0  0  0  0  0  0  0  0  0  0  0  0
   -3.9619   -0.9457    2.3855 H   0  0  0  0  0  0  0  0  0  0  0  0
   -2.7125   -0.5562    3.6829 H   0  0  0  0  0  0  0  0  0  0  0  0
   -4.3174    0.2110    3.7126 H   0  0  0  0  0  0  0  0  0  0  0  0
    1.0157   -2.4993   -1.7722 H   0  0  0  0  0  0  0  0  0  0  0  0
    1.8870   -2.9344   -0.2824 H   0  0  0  0  0  0  0  0  0  0  0  0
   -0.5852   -4.1740   -1.5517 H   0  0  0  0  0  0  0  0  0  0  0  0
    0.9155   -4.8973   -0.9418 H   0  0  0  0  0  0  0  0  0  0  0  0
   -0.2460   -5.4914    0.9317 H   0  0  0  0  0  0  0  0  0  0  0  0
   -1.5497   -4.3423    0.5294 H   0  0  0  0  0  0  0  0  0  0  0  0
   -0.4437   -3.7919    2.6325 H   0  0  0  0  0  0  0  0  0  0  0  0
    1.1571   -3.6089    1.7238 H   0  0  0  0  0  0  0  0  0  0  0  0
   -1.5203   -2.1701    1.3788 H   0  0  0  0  0  0  0  0  0  0  0  0
   -0.1291   -1.3714    2.1172 H   0  0  0  0  0  0  0  0  0  0  0  0
    1.2818   -0.4958   -2.0250 H   0  0  0  0  0  0  0  0  0  0  0  0
    0.3384    0.8677   -1.3203 H   0  0  0  0  0  0  0  0  0  0  0  0
    2.3377    1.8044   -1.7960 H   0  0  0  0  0  0  0  0  0  0  0  0
    3.2858    0.2919   -1.2968 H   0  0  0  0  0  0  0  0  0  0  0  0
  1  2  1  0
  2  3  1  0
  3  4  1  0
  4  5  2  0
  4  6  2  0
  4  7  1  0
  7  8  1  0
  8  9  1  0
  9 10  1  0
 10 11  1  0
 11 12  1  0
 12 13  1  0
 13 14  1  0
 14 15  2  0
 14 16  1  0
 16 17  2  0
 17 18  1  0
 18 19  1  0
 17 20  1  0
 20 21  2  0
 21 22  1  0
 21 23  1  0
 23 24  2  0
 24 25  1  0
 25 26  1  0
 11 27  1  0
 27 28  1  0
 28 29  1  0
 29 30  1  0
 30 31  1  0
 10 32  1  0
 32 33  1  0
 33  7  1  0
 31 11  1  0
 24 16  1  0
  1 34  1  0
  1 35  1  0
  1 36  1  0
  2 37  1  0
  2 38  1  0
  3 39  1  0
  3 40  1  0
  8 41  1  0
  8 42  1  0
  9 43  1  0
  9 44  1  0
 12 45  1  0
 12 46  1  0
 13 47  1  0
 19 48  1  0
 19 49  1  0
 19 50  1  0
 20 51  1  0
 23 52  1  0
 26 53  1  0
 26 54  1  0
 26 55  1  0
 27 56  1  0
 27 57  1  0
 28 58  1  0
 28 59  1  0
 29 60  1  0
 29 61  1  0
 30 62  1  0
 30 63  1  0
 31 64  1  0
 31 65  1  0
 32 66  1  0
 32 67  1  0
 33 68  1  0
 33 69  1  0
M  END
$$$$
