
     RDKit          3D

 73 77  0  0  0  0  0  0  0  0999 V2000
    9.5568   -2.1975   -2.5297 C   0  0  0  0  0  0  0  0  0  0  0  0
    8.6855   -2.9769   -1.5818 C   0  0  0  0  0  0  0  0  0  0  0  0
    7.6683   -2.1365   -1.0222 O   0  0  0  0  0  0  0  0  0  0  0  0
    7.9773   -1.0190   -0.2859 C   0  0  0  0  0  0  0  0  0  0  0  0
    9.1846   -0.5580    0.0115 N   0  0  0  0  0  0  0  0  0  0  0  0
    9.1182    0.5328    0.7323 N   0  0  0  0  0  0  0  0  0  0  0  0
   10.2595    1.2861    1.2200 C   0  0  0  0  0  0  0  0  0  0  0  0
    7.8147    0.8091    0.9225 C   0  0  0  0  0  0  0  0  0  0  0  0
    7.0482   -0.1481    0.2946 C   0  0  0  0  0  0  0  0  0  0  0  0
    5.6609   -0.2940    0.2032 N   0  0  0  0  0  0  0  0  0  0  0  0
    4.7373    0.5955    0.8234 C   0  0  0  0  0  0  0  0  0  0  0  0
    5.1386    1.6320    1.5526 N   0  0  0  0  0  0  0  0  0  0  0  0
    4.2552    2.4451    2.1272 C   0  0  0  0  0  0  0  0  0  0  0  0
    2.8972    2.2380    1.9844 C   0  0  0  0  0  0  0  0  0  0  0  0
    2.0114    3.0866    2.5839 F   0  0  0  0  0  0  0  0  0  0  0  0
    2.4814    1.1679    1.2313 C   0  0  0  0  0  0  0  0  0  0  0  0
    1.0508    0.8998    1.0392 C   0  0  0  0  0  0  0  0  0  0  0  0
    0.0747    0.6932    1.9851 C   0  0  0  0  0  0  0  0  0  0  0  0
   -1.1064    0.4674    1.3746 N   0  0  0  0  0  0  0  0  0  0  0  0
   -0.9018    0.5263    0.0371 C   0  0  0  0  0  0  0  0  0  0  0  0
   -1.7574    0.3754   -1.0204 C   0  0  0  0  0  0  0  0  0  0  0  0
   -3.1350    0.0880   -0.8369 N   0  0  0  0  0  0  0  0  0  0  0  0
   -4.0905    1.1157   -0.6675 C   0  0  0  0  0  0  0  0  0  0  0  0
   -3.6690    2.3035   -0.6916 O   0  0  0  0  0  0  0  0  0  0  0  0
   -5.5625    0.8227   -0.4651 C   0  0  1  0  0  0  0  0  0  0  0  0
   -6.2741    1.6356   -1.4790 C   0  0  0  0  0  0  0  0  0  0  0  0
   -5.7530   -0.5156   -0.3174 N   0  0  0  0  0  0  0  0  0  0  0  0
   -5.1604   -1.0472    0.8881 C   0  0  0  0  0  0  0  0  0  0  0  0
   -6.1465   -1.1089    2.0143 C   0  0  0  0  0  0  0  0  0  0  0  0
   -7.5040   -1.2095    1.6960 N   0  0  0  0  0  0  0  0  0  0  0  0
   -8.3833   -0.3400    2.4439 C   0  0  0  0  0  0  0  0  0  0  0  0
   -7.9149   -1.4517    0.3782 C   0  0  0  0  0  0  0  0  0  0  0  0
   -6.8466   -1.2802   -0.6775 C   0  0  1  0  0  0  0  0  0  0  0  0
   -7.4860   -1.0252   -2.0242 C   0  0  0  0  0  0  0  0  0  0  0  0
   -1.2667    0.4958   -2.2990 C   0  0  0  0  0  0  0  0  0  0  0  0
    0.0723    0.7658   -2.5599 C   0  0  0  0  0  0  0  0  0  0  0  0
    0.9108    0.9126   -1.4990 C   0  0  0  0  0  0  0  0  0  0  0  0
    0.4314    0.7941   -0.1910 C   0  0  0  0  0  0  0  0  0  0  0  0
    3.4115    0.3844    0.6772 N   0  0  0  0  0  0  0  0  0  0  0  0
    9.0818   -1.2384   -2.8293 H   0  0  0  0  0  0  0  0  0  0  0  0
   10.5711   -2.0154   -2.0748 H   0  0  0  0  0  0  0  0  0  0  0  0
    9.7178   -2.8074   -3.4407 H   0  0  0  0  0  0  0  0  0  0  0  0
    8.2212   -3.8098   -2.1475 H   0  0  0  0  0  0  0  0  0  0  0  0
    9.2954   -3.3981   -0.7300 H   0  0  0  0  0  0  0  0  0  0  0  0
    9.8833    2.0073    1.9753 H   0  0  0  0  0  0  0  0  0  0  0  0
   10.6423    1.8937    0.3603 H   0  0  0  0  0  0  0  0  0  0  0  0
   11.0464    0.6520    1.6597 H   0  0  0  0  0  0  0  0  0  0  0  0
    7.4603    1.6652    1.4910 H   0  0  0  0  0  0  0  0  0  0  0  0
    5.2593   -1.0938   -0.3457 H   0  0  0  0  0  0  0  0  0  0  0  0
    4.6115    3.3039    2.7304 H   0  0  0  0  0  0  0  0  0  0  0  0
    0.2609    0.7158    3.0532 H   0  0  0  0  0  0  0  0  0  0  0  0
   -2.0349    0.2767    1.8240 H   0  0  0  0  0  0  0  0  0  0  0  0
   -3.3950   -0.9194   -0.8462 H   0  0  0  0  0  0  0  0  0  0  0  0
   -5.7633    1.3543    0.5238 H   0  0  0  0  0  0  0  0  0  0  0  0
   -5.9288    2.7053   -1.3034 H   0  0  0  0  0  0  0  0  0  0  0  0
   -7.3834    1.7333   -1.3049 H   0  0  0  0  0  0  0  0  0  0  0  0
   -6.0070    1.4610   -2.5319 H   0  0  0  0  0  0  0  0  0  0  0  0
   -4.7586   -2.0849    0.7243 H   0  0  0  0  0  0  0  0  0  0  0  0
   -4.3117   -0.4185    1.2520 H   0  0  0  0  0  0  0  0  0  0  0  0
   -6.0148   -0.2155    2.6964 H   0  0  0  0  0  0  0  0  0  0  0  0
   -5.8575   -1.9736    2.6758 H   0  0  0  0  0  0  0  0  0  0  0  0
   -7.9446    0.0729    3.3503 H   0  0  0  0  0  0  0  0  0  0  0  0
   -8.5974    0.5413    1.7755 H   0  0  0  0  0  0  0  0  0  0  0  0
   -9.3500   -0.8441    2.5860 H   0  0  0  0  0  0  0  0  0  0  0  0
   -8.3786   -2.4820    0.3336 H   0  0  0  0  0  0  0  0  0  0  0  0
   -8.7434   -0.7649    0.1121 H   0  0  0  0  0  0  0  0  0  0  0  0
   -6.4383   -2.3417   -0.7956 H   0  0  0  0  0  0  0  0  0  0  0  0
   -6.7589   -0.7845   -2.7969 H   0  0  0  0  0  0  0  0  0  0  0  0
   -8.3631   -0.3323   -1.9645 H   0  0  0  0  0  0  0  0  0  0  0  0
   -7.9721   -1.9840   -2.3882 H   0  0  0  0  0  0  0  0  0  0  0  0
   -1.9133    0.3836   -3.1797 H   0  0  0  0  0  0  0  0  0  0  0  0
    0.4054    0.8501   -3.5949 H   0  0  0  0  0  0  0  0  0  0  0  0
    1.9694    1.1265   -1.6568 H   0  0  0  0  0  0  0  0  0  0  0  0
  1  2  1  0
  2  3  1  0
  3  4  1  0
  4  5  2  0
  5  6  1  0
  6  7  1  0
  6  8  1  0
  8  9  2  0
  9 10  1  0
 10 11  1  0
 11 12  2  0
 12 13  1  0
 13 14  2  0
 14 15  1  0
 14 16  1  0
 16 17  1  0
 17 18  2  0
 18 19  1  0
 19 20  1  0
 20 21  2  0
 21 22  1  0
 22 23  1  0
 23 24  2  0
 23 25  1  0
 25 26  1  0
 25 27  1  0
 27 28  1  0
 28 29  1  0
 29 30  1  0
 30 31  1  0
 30 32  1  0
 32 33  1  0
 33 34  1  0
 21 35  1  0
 35 36  2  0
 36 37  1  0
 37 38  2  0
 16 39  2  0
  9  4  1  0
 39 11  1  0
 38 17  1  0
 38 20  1  0
 33 27  1  0
  1 40  1  0
  1 41  1  0
  1 42  1  0
  2 43  1  0
  2 44  1  0
  7 45  1  0
  7 46  1  0
  7 47  1  0
  8 48  1  0
 10 49  1  0
 13 50  1  0
 18 51  1  0
 19 52  1  0
 22 53  1  0
 25 54  1  1
 26 55  1  0
 26 56  1  0
 26 57  1  0
 28 58  1  0
 28 59  1  0
 29 60  1  0
 29 61  1  0
 31 62  1  0
 31 63  1  0
 31 64  1  0
 32 65  1  0
 32 66  1  0
 33 67  1  6
 34 68  1  0
 34 69  1  0
 34 70  1  0
 35 71  1  0
 36 72  1  0
 37 73  1  0
M  END
$$$$
