
     RDKit          3D

 57 60  0  0  0  0  0  0  0  0999 V2000
   -1.7401   -4.4828    1.8697 C   0  0  0  0  0  0  0  0  0  0  0  0
   -1.0179   -3.2626    1.3522 C   0  0  0  0  0  0  0  0  0  0  0  0
    0.0948   -3.3015    0.5544 C   0  0  0  0  0  0  0  0  0  0  0  0
    0.4773   -2.0086    0.2819 C   0  0  0  0  0  0  0  0  0  0  0  0
    1.6368   -1.6296   -0.5521 C   0  0  0  0  0  0  0  0  0  0  0  0
    1.4584   -0.9762   -1.6102 O   0  0  0  0  0  0  0  0  0  0  0  0
    2.9641   -1.9846   -0.1921 N   0  0  0  0  0  0  0  0  0  0  0  0
    4.1507   -1.6746   -0.9179 C   0  0  0  0  0  0  0  0  0  0  0  0
    4.6151   -0.2724   -0.7887 C   0  0  0  0  0  0  0  0  0  0  0  0
    5.4484    0.1211    0.2389 C   0  0  0  0  0  0  0  0  0  0  0  0
    5.9077    1.4106    0.3854 C   0  0  0  0  0  0  0  0  0  0  0  0
    5.5399    2.3917   -0.5199 C   0  0  0  0  0  0  0  0  0  0  0  0
    6.0324    3.8017   -0.3770 C   0  0  0  0  0  0  0  0  0  0  0  0
    7.3009    3.9553   -1.0974 N   0  0  0  0  0  0  0  0  0  0  0  0
    4.7095    2.0199   -1.5517 C   0  0  0  0  0  0  0  0  0  0  0  0
    4.2563    0.7127   -1.6829 C   0  0  0  0  0  0  0  0  0  0  0  0
   -0.4310   -1.2257    0.9342 C   0  0  0  0  0  0  0  0  0  0  0  0
   -0.4272    0.2563    0.9332 C   0  0  0  0  0  0  0  0  0  0  0  0
   -1.3248   -1.9832    1.5739 N   0  0  0  0  0  0  0  0  0  0  0  0
   -2.4540   -1.5248    2.3857 C   0  0  0  0  0  0  0  0  0  0  0  0
   -3.6715   -1.3574    1.4799 C   0  0  0  0  0  0  0  0  0  0  0  0
   -4.5064   -2.4200    1.2493 C   0  0  0  0  0  0  0  0  0  0  0  0
   -5.7695   -1.6851    0.1246 S   0  0  0  0  0  0  0  0  0  0  0  0
   -4.9014   -0.0238    0.1801 C   0  0  0  0  0  0  0  0  0  0  0  0
   -5.5417    1.0906   -0.6331 C   0  0  0  0  0  0  0  0  0  0  0  0
   -4.9456    2.3212   -0.6332 C   0  0  0  0  0  0  0  0  0  0  0  0
   -5.4694    3.3938   -1.3508 C   0  0  0  0  0  0  0  0  0  0  0  0
   -6.6286    3.1932   -2.0813 C   0  0  0  0  0  0  0  0  0  0  0  0
   -7.2308    1.9563   -2.0836 C   0  0  0  0  0  0  0  0  0  0  0  0
   -6.6791    0.8947   -1.3503 C   0  0  0  0  0  0  0  0  0  0  0  0
   -4.0256   -0.2465    0.8650 N   0  0  0  0  0  0  0  0  0  0  0  0
   -0.9711   -5.1254    2.3928 H   0  0  0  0  0  0  0  0  0  0  0  0
   -2.1309   -5.0936    1.0360 H   0  0  0  0  0  0  0  0  0  0  0  0
   -2.5019   -4.2168    2.5992 H   0  0  0  0  0  0  0  0  0  0  0  0
    0.6052   -4.1792    0.1872 H   0  0  0  0  0  0  0  0  0  0  0  0
    3.0146   -2.5370    0.7215 H   0  0  0  0  0  0  0  0  0  0  0  0
    4.0756   -1.9508   -2.0105 H   0  0  0  0  0  0  0  0  0  0  0  0
    4.9672   -2.3602   -0.5467 H   0  0  0  0  0  0  0  0  0  0  0  0
    5.7375   -0.6534    0.9514 H   0  0  0  0  0  0  0  0  0  0  0  0
    6.5540    1.6910    1.1935 H   0  0  0  0  0  0  0  0  0  0  0  0
    5.3146    4.4669   -0.9122 H   0  0  0  0  0  0  0  0  0  0  0  0
    6.1441    4.0426    0.6863 H   0  0  0  0  0  0  0  0  0  0  0  0
    7.4908    3.0662   -1.6066 H   0  0  0  0  0  0  0  0  0  0  0  0
    8.0743    4.0813   -0.4043 H   0  0  0  0  0  0  0  0  0  0  0  0
    4.4002    2.7575   -2.2781 H   0  0  0  0  0  0  0  0  0  0  0  0
    3.6053    0.4367   -2.5046 H   0  0  0  0  0  0  0  0  0  0  0  0
    0.5680    0.6674    0.6783 H   0  0  0  0  0  0  0  0  0  0  0  0
   -1.2176    0.5915    0.2308 H   0  0  0  0  0  0  0  0  0  0  0  0
   -0.7535    0.5823    1.9607 H   0  0  0  0  0  0  0  0  0  0  0  0
   -2.1818   -0.5648    2.8647 H   0  0  0  0  0  0  0  0  0  0  0  0
   -2.6892   -2.2393    3.1994 H   0  0  0  0  0  0  0  0  0  0  0  0
   -4.5355   -3.4722    1.5771 H   0  0  0  0  0  0  0  0  0  0  0  0
   -4.0408    2.4347   -0.0487 H   0  0  0  0  0  0  0  0  0  0  0  0
   -5.0049    4.3543   -1.3519 H   0  0  0  0  0  0  0  0  0  0  0  0
   -7.0457    4.0161   -2.6421 H   0  0  0  0  0  0  0  0  0  0  0  0
   -8.1380    1.8067   -2.6575 H   0  0  0  0  0  0  0  0  0  0  0  0
   -7.1683   -0.0625   -1.3697 H   0  0  0  0  0  0  0  0  0  0  0  0
  1  2  1  0
  2  3  2  0
  3  4  1  0
  4  5  1  0
  5  6  2  0
  5  7  1  0
  7  8  1  0
  8  9  1  0
  9 10  2  0
 10 11  1  0
 11 12  2  0
 12 13  1  0
 13 14  1  0
 12 15  1  0
 15 16  2  0
  4 17  2  0
 17 18  1  0
 17 19  1  0
 19 20  1  0
 20 21  1  0
 21 22  2  0
 22 23  1  0
 23 24  1  0
 24 25  1  0
 25 26  2  0
 26 27  1  0
 27 28  2  0
 28 29  1  0
 29 30  2  0
 24 31  2  0
 19  2  1  0
 31 21  1  0
 16  9  1  0
 30 25  1  0
  1 32  1  0
  1 33  1  0
  1 34  1  0
  3 35  1  0
  7 36  1  0
  8 37  1  0
  8 38  1  0
 10 39  1  0
 11 40  1  0
 13 41  1  0
 13 42  1  0
 14 43  1  0
 14 44  1  0
 15 45  1  0
 16 46  1  0
 18 47  1  0
 18 48  1  0
 18 49  1  0
 20 50  1  0
 20 51  1  0
 22 52  1  0
 26 53  1  0
 27 54  1  0
 28 55  1  0
 29 56  1  0
 30 57  1  0
M  END
$$$$
