
     RDKit          3D

 50 53  0  0  0  0  0  0  0  0999 V2000
   -4.2094    0.9293    1.1366 C   0  0  0  0  0  0  0  0  0  0  0  0
   -3.2824    0.2095    0.1443 C   0  0  0  0  0  0  0  0  0  0  0  0
   -3.9004    0.4183   -1.2161 C   0  0  0  0  0  0  0  0  0  0  0  0
   -3.2891   -1.2334    0.5310 C   0  0  0  0  0  0  0  0  0  0  0  0
   -1.9610   -1.9024    0.3988 C   0  0  0  0  0  0  0  0  0  0  0  0
   -1.0927   -1.3098   -0.6725 C   0  0  0  0  0  0  0  0  0  0  0  0
   -0.8526    0.1818   -0.4967 C   0  0  0  0  0  0  0  0  0  0  0  0
   -0.8149    0.7624   -1.9103 C   0  0  0  0  0  0  0  0  0  0  0  0
    0.4982    0.3415    0.0611 C   0  0  0  0  0  0  0  0  0  0  0  0
    0.7867    0.9128    1.2490 C   0  0  0  0  0  0  0  0  0  0  0  0
    2.1071    0.8935    1.4487 O   0  0  0  0  0  0  0  0  0  0  0  0
    2.6784    0.3337    0.4386 C   0  0  0  0  0  0  0  0  0  0  0  0
    4.0022    0.0716    0.1561 C   0  0  0  0  0  0  0  0  0  0  0  0
    5.0809    0.5062    1.2150 B   0  0  0  0  0  0  0  0  0  0  0  0
    5.1338   -0.1998    2.5119 O   0  0  0  0  0  0  0  0  0  0  0  0
    5.8355    1.7283    1.0793 O   0  0  0  0  0  0  0  0  0  0  0  0
    4.3693   -0.5531   -1.0199 C   0  0  0  0  0  0  0  0  0  0  0  0
    5.7065   -0.8087   -1.2872 O   0  0  0  0  0  0  0  0  0  0  0  0
    3.3902   -0.9179   -1.9220 C   0  0  0  0  0  0  0  0  0  0  0  0
    3.7115   -1.5570   -3.1351 O   0  0  0  0  0  0  0  0  0  0  0  0
    2.0635   -0.6709   -1.6701 C   0  0  0  0  0  0  0  0  0  0  0  0
    1.7308   -0.0456   -0.4864 C   0  0  0  0  0  0  0  0  0  0  0  0
   -0.2886    1.4374    2.0978 C   0  0  0  0  0  0  0  0  0  0  0  0
   -1.6543    1.0528    1.7244 C   0  0  0  0  0  0  0  0  0  0  0  0
   -1.9222    0.8610    0.2670 C   0  0  0  0  0  0  0  0  0  0  0  0
   -4.0125    0.5770    2.1764 H   0  0  0  0  0  0  0  0  0  0  0  0
   -4.1451    2.0217    1.0279 H   0  0  0  0  0  0  0  0  0  0  0  0
   -5.2737    0.6504    0.9309 H   0  0  0  0  0  0  0  0  0  0  0  0
   -4.8597   -0.1407   -1.2393 H   0  0  0  0  0  0  0  0  0  0  0  0
   -3.2907    0.0056   -2.0454 H   0  0  0  0  0  0  0  0  0  0  0  0
   -4.1701    1.4829   -1.3936 H   0  0  0  0  0  0  0  0  0  0  0  0
   -3.6415   -1.3920    1.5785 H   0  0  0  0  0  0  0  0  0  0  0  0
   -4.0151   -1.7560   -0.1261 H   0  0  0  0  0  0  0  0  0  0  0  0
   -1.3708   -1.9431    1.3368 H   0  0  0  0  0  0  0  0  0  0  0  0
   -2.1273   -2.9660    0.1094 H   0  0  0  0  0  0  0  0  0  0  0  0
   -1.4965   -1.5456   -1.7001 H   0  0  0  0  0  0  0  0  0  0  0  0
   -0.1247   -1.8657   -0.6323 H   0  0  0  0  0  0  0  0  0  0  0  0
   -0.9800   -0.0033   -2.6918 H   0  0  0  0  0  0  0  0  0  0  0  0
   -1.5074    1.6079   -1.9678 H   0  0  0  0  0  0  0  0  0  0  0  0
    0.1959    1.1968   -2.1474 H   0  0  0  0  0  0  0  0  0  0  0  0
    4.9592   -1.1620    2.3399 H   0  0  0  0  0  0  0  0  0  0  0  0
    6.7933    1.5601    1.3247 H   0  0  0  0  0  0  0  0  0  0  0  0
    6.3468   -0.0981   -1.6259 H   0  0  0  0  0  0  0  0  0  0  0  0
    4.2368   -2.4167   -3.0461 H   0  0  0  0  0  0  0  0  0  0  0  0
    1.2660   -0.9395   -2.3487 H   0  0  0  0  0  0  0  0  0  0  0  0
   -0.1649    2.5607    2.1148 H   0  0  0  0  0  0  0  0  0  0  0  0
   -0.0746    1.1369    3.1661 H   0  0  0  0  0  0  0  0  0  0  0  0
   -2.3541    1.8706    2.0750 H   0  0  0  0  0  0  0  0  0  0  0  0
   -1.9649    0.1629    2.3128 H   0  0  0  0  0  0  0  0  0  0  0  0
   -2.0516    1.8953   -0.1716 H   0  0  0  0  0  0  0  0  0  0  0  0
  1  2  1  0
  2  3  1  0
  2  4  1  0
  4  5  1  0
  5  6  1  0
  6  7  1  0
  7  8  1  0
  7  9  1  0
  9 10  2  0
 10 11  1  0
 11 12  1  0
 12 13  2  0
 13 14  1  0
 14 15  1  0
 14 16  1  0
 13 17  1  0
 17 18  1  0
 17 19  2  0
 19 20  1  0
 19 21  1  0
 21 22  2  0
 10 23  1  0
 23 24  1  0
 24 25  1  0
 25  2  1  0
 25  7  1  0
 22  9  1  0
 22 12  1  0
  1 26  1  0
  1 27  1  0
  1 28  1  0
  3 29  1  0
  3 30  1  0
  3 31  1  0
  4 32  1  0
  4 33  1  0
  5 34  1  0
  5 35  1  0
  6 36  1  0
  6 37  1  0
  8 38  1  0
  8 39  1  0
  8 40  1  0
 15 41  1  0
 16 42  1  0
 18 43  1  0
 20 44  1  0
 21 45  1  0
 23 46  1  0
 23 47  1  0
 24 48  1  0
 24 49  1  0
 25 50  1  0
M  END
$$$$
