
     RDKit          3D

 61 64  0  0  0  0  0  0  0  0999 V2000
    5.7235   -2.4805    0.8047 C   0  0  0  0  0  0  0  0  0  0  0  0
    5.5839   -1.0402    0.3204 C   0  0  0  0  0  0  0  0  0  0  0  0
    6.8549   -0.3216    0.6971 C   0  0  0  0  0  0  0  0  0  0  0  0
    4.4384   -0.4236    1.0443 C   0  0  0  0  0  0  0  0  0  0  0  0
    3.4915   -0.0264   -0.0326 N   0  0  0  0  0  0  0  0  0  0  0  0
    2.2336    0.5892   -0.1349 C   0  0  0  0  0  0  0  0  0  0  0  0
    1.4557    1.0543    1.0970 C   0  0  0  0  0  0  0  0  0  0  0  0
   -0.0965    1.7733    0.5982 S   0  0  0  0  0  0  0  0  0  0  0  0
   -1.1496    0.5070   -0.0787 C   0  0  0  0  0  0  0  0  0  0  0  0
   -2.2866    0.8346   -0.5316 N   0  0  0  0  0  0  0  0  0  0  0  0
   -2.7428    2.1870   -0.5131 C   0  0  0  0  0  0  0  0  0  0  0  0
   -3.0226    2.7276    0.8752 C   0  0  0  0  0  0  0  0  0  0  0  0
   -3.9823    3.9068    0.6616 C   0  0  0  0  0  0  0  0  0  0  0  0
   -3.2874    4.9434   -0.1797 C   0  0  0  0  0  0  0  0  0  0  0  0
   -1.9019    4.5270   -0.6104 C   0  0  0  0  0  0  0  0  0  0  0  0
   -1.9455    3.1615   -1.3100 C   0  0  0  0  0  0  0  0  0  0  0  0
   -0.7690   -0.8677   -0.1354 N   0  0  0  0  0  0  0  0  0  0  0  0
   -1.7194   -1.8295   -0.5956 C   0  0  0  0  0  0  0  0  0  0  0  0
   -1.0371   -3.1801   -0.5694 C   0  0  0  0  0  0  0  0  0  0  0  0
   -1.9220   -4.2993   -1.0226 C   0  0  0  0  0  0  0  0  0  0  0  0
   -3.0522   -4.4118    0.0088 C   0  0  0  0  0  0  0  0  0  0  0  0
   -3.7899   -3.1005   -0.0369 C   0  0  0  0  0  0  0  0  0  0  0  0
   -2.9425   -1.9175    0.2950 C   0  0  0  0  0  0  0  0  0  0  0  0
    1.7409    0.7547   -1.3331 C   0  0  0  0  0  0  0  0  0  0  0  0
    2.9199    0.0965   -2.4883 S   0  0  0  0  0  0  0  0  0  0  0  0
    4.1004   -0.4069   -1.2411 C   0  0  0  0  0  0  0  0  0  0  0  0
    5.2504   -0.9641   -1.0633 N   0  0  0  0  0  0  0  0  0  0  0  0
    6.7755   -2.8102    0.7868 H   0  0  0  0  0  0  0  0  0  0  0  0
    5.0286   -3.1597    0.2797 H   0  0  0  0  0  0  0  0  0  0  0  0
    5.4140   -2.4736    1.8754 H   0  0  0  0  0  0  0  0  0  0  0  0
    7.1670   -0.7399    1.6982 H   0  0  0  0  0  0  0  0  0  0  0  0
    6.7160    0.7632    0.8644 H   0  0  0  0  0  0  0  0  0  0  0  0
    7.6095   -0.5152   -0.0750 H   0  0  0  0  0  0  0  0  0  0  0  0
    3.9010   -1.1647    1.7029 H   0  0  0  0  0  0  0  0  0  0  0  0
    4.7074    0.4346    1.6668 H   0  0  0  0  0  0  0  0  0  0  0  0
    2.0564    1.8068    1.6519 H   0  0  0  0  0  0  0  0  0  0  0  0
    1.2932    0.2038    1.7851 H   0  0  0  0  0  0  0  0  0  0  0  0
   -3.7670    2.1613   -1.0035 H   0  0  0  0  0  0  0  0  0  0  0  0
   -2.1292    3.0642    1.3943 H   0  0  0  0  0  0  0  0  0  0  0  0
   -3.5926    1.9813    1.4558 H   0  0  0  0  0  0  0  0  0  0  0  0
   -4.3469    4.3046    1.6305 H   0  0  0  0  0  0  0  0  0  0  0  0
   -4.8349    3.4742    0.0819 H   0  0  0  0  0  0  0  0  0  0  0  0
   -3.1479    5.8452    0.4743 H   0  0  0  0  0  0  0  0  0  0  0  0
   -3.9145    5.2306   -1.0578 H   0  0  0  0  0  0  0  0  0  0  0  0
   -1.2509    4.5215    0.2707 H   0  0  0  0  0  0  0  0  0  0  0  0
   -1.5430    5.2733   -1.3437 H   0  0  0  0  0  0  0  0  0  0  0  0
   -0.9171    2.8846   -1.5318 H   0  0  0  0  0  0  0  0  0  0  0  0
   -2.4140    3.3893   -2.3124 H   0  0  0  0  0  0  0  0  0  0  0  0
    0.2107   -1.1556    0.1680 H   0  0  0  0  0  0  0  0  0  0  0  0
   -2.1146   -1.5943   -1.6214 H   0  0  0  0  0  0  0  0  0  0  0  0
   -0.7562   -3.3691    0.4873 H   0  0  0  0  0  0  0  0  0  0  0  0
   -0.0765   -3.1480   -1.1481 H   0  0  0  0  0  0  0  0  0  0  0  0
   -2.3332   -4.0857   -2.0226 H   0  0  0  0  0  0  0  0  0  0  0  0
   -1.3336   -5.2273   -1.0048 H   0  0  0  0  0  0  0  0  0  0  0  0
   -3.7383   -5.2103   -0.2687 H   0  0  0  0  0  0  0  0  0  0  0  0
   -2.5995   -4.5801    1.0019 H   0  0  0  0  0  0  0  0  0  0  0  0
   -4.2554   -2.9452   -1.0121 H   0  0  0  0  0  0  0  0  0  0  0  0
   -4.5951   -3.1652    0.7420 H   0  0  0  0  0  0  0  0  0  0  0  0
   -3.5941   -1.0222    0.1460 H   0  0  0  0  0  0  0  0  0  0  0  0
   -2.5771   -1.9613    1.3642 H   0  0  0  0  0  0  0  0  0  0  0  0
    0.8064    1.1960   -1.6517 H   0  0  0  0  0  0  0  0  0  0  0  0
  1  2  1  0
  2  3  1  0
  2  4  1  0
  4  5  1  0
  5  6  1  0
  6  7  1  0
  7  8  1  0
  8  9  1  0
  9 10  2  0
 10 11  1  0
 11 12  1  0
 12 13  1  0
 13 14  1  0
 14 15  1  0
 15 16  1  0
  9 17  1  0
 17 18  1  0
 18 19  1  0
 19 20  1  0
 20 21  1  0
 21 22  1  0
 22 23  1  0
  6 24  2  0
 24 25  1  0
 25 26  1  0
 26 27  2  0
 27  2  1  0
 26  5  1  0
 16 11  1  0
 23 18  1  0
  1 28  1  0
  1 29  1  0
  1 30  1  0
  3 31  1  0
  3 32  1  0
  3 33  1  0
  4 34  1  0
  4 35  1  0
  7 36  1  0
  7 37  1  0
 11 38  1  0
 12 39  1  0
 12 40  1  0
 13 41  1  0
 13 42  1  0
 14 43  1  0
 14 44  1  0
 15 45  1  0
 15 46  1  0
 16 47  1  0
 16 48  1  0
 17 49  1  0
 18 50  1  0
 19 51  1  0
 19 52  1  0
 20 53  1  0
 20 54  1  0
 21 55  1  0
 21 56  1  0
 22 57  1  0
 22 58  1  0
 23 59  1  0
 23 60  1  0
 24 61  1  0
M  END
$$$$
