
     RDKit          3D

 52 55  0  0  0  0  0  0  0  0999 V2000
   -1.6729   -0.4392    3.1986 C   0  0  0  0  0  0  0  0  0  0  0  0
   -2.2444    0.6253    2.3159 C   0  0  0  0  0  0  0  0  0  0  0  0
   -2.4223    0.2540    0.9346 N   0  0  0  0  0  0  0  0  0  0  0  0
   -3.7632    0.0341    0.4611 C   0  0  0  0  0  0  0  0  0  0  0  0
   -4.9053    0.1079    1.2311 C   0  0  0  0  0  0  0  0  0  0  0  0
   -4.8333    0.3886    2.5239 F   0  0  0  0  0  0  0  0  0  0  0  0
   -6.1583   -0.1223    0.7141 C   0  0  0  0  0  0  0  0  0  0  0  0
   -6.3293   -0.4420   -0.6156 C   0  0  0  0  0  0  0  0  0  0  0  0
   -5.2274   -0.5332   -1.4403 C   0  0  0  0  0  0  0  0  0  0  0  0
   -5.3756   -0.8417   -2.7317 F   0  0  0  0  0  0  0  0  0  0  0  0
   -4.0130   -0.2912   -0.8562 C   0  0  0  0  0  0  0  0  0  0  0  0
   -2.8340   -0.3971   -1.6926 C   0  0  0  0  0  0  0  0  0  0  0  0
   -2.8794   -0.7198   -3.0953 N   0  0  0  0  0  0  0  0  0  0  0  0
   -1.6493   -0.2192   -1.2790 N   0  0  0  0  0  0  0  0  0  0  0  0
   -1.2826    0.1085    0.0749 C   0  0  0  0  0  0  0  0  0  0  0  0
   -0.2878   -0.9520    0.4962 C   0  0  0  0  0  0  0  0  0  0  0  0
    0.6933   -1.0369   -0.6850 C   0  0  0  0  0  0  0  0  0  0  0  0
    1.4167    0.2016   -0.8716 N   0  0  0  0  0  0  0  0  0  0  0  0
    0.4009    1.1952   -1.2493 C   0  0  0  0  0  0  0  0  0  0  0  0
   -0.4838    1.4094   -0.0397 C   0  0  0  0  0  0  0  0  0  0  0  0
    2.7704    0.7045   -0.8048 C   0  0  0  0  0  0  0  0  0  0  0  0
    2.7884    1.9593   -1.1140 O   0  0  0  0  0  0  0  0  0  0  0  0
    4.1391    0.2210   -0.4930 C   0  0  0  0  0  0  0  0  0  0  0  0
    4.2447   -1.0448   -0.1399 C   0  0  0  0  0  0  0  0  0  0  0  0
    5.5387   -1.5647    0.1743 N   0  0  0  0  0  0  0  0  0  0  0  0
    6.5086   -0.7143    0.0809 C   0  0  0  0  0  0  0  0  0  0  0  0
    6.5341    0.6910   -0.2873 C   0  0  0  0  0  0  0  0  0  0  0  0
    5.2048    1.2270   -0.6547 C   0  0  0  0  0  0  0  0  0  0  0  0
    7.8339   -1.2504    0.3981 C   0  0  0  0  0  0  0  0  0  0  0  0
    8.8978   -1.6908    0.6416 N   0  0  0  0  0  0  0  0  0  0  0  0
   -2.2348   -0.5338    4.1672 H   0  0  0  0  0  0  0  0  0  0  0  0
   -0.6249   -0.2787    3.5259 H   0  0  0  0  0  0  0  0  0  0  0  0
   -1.6751   -1.4028    2.6432 H   0  0  0  0  0  0  0  0  0  0  0  0
   -1.3378    1.3640    2.2293 H   0  0  0  0  0  0  0  0  0  0  0  0
   -2.9673    1.3071    2.7533 H   0  0  0  0  0  0  0  0  0  0  0  0
   -7.0474   -0.0602    1.3398 H   0  0  0  0  0  0  0  0  0  0  0  0
   -7.3345   -0.6174   -0.9911 H   0  0  0  0  0  0  0  0  0  0  0  0
   -3.1100   -1.6933   -3.4138 H   0  0  0  0  0  0  0  0  0  0  0  0
   -2.7098   -0.1056   -3.9387 H   0  0  0  0  0  0  0  0  0  0  0  0
    0.2974   -0.7173    1.3789 H   0  0  0  0  0  0  0  0  0  0  0  0
   -0.8117   -1.9193    0.4875 H   0  0  0  0  0  0  0  0  0  0  0  0
    1.3201   -1.9179   -0.5979 H   0  0  0  0  0  0  0  0  0  0  0  0
    0.0273   -1.1893   -1.5958 H   0  0  0  0  0  0  0  0  0  0  0  0
   -0.1795    0.8579   -2.1428 H   0  0  0  0  0  0  0  0  0  0  0  0
    0.8908    2.1365   -1.5763 H   0  0  0  0  0  0  0  0  0  0  0  0
    0.1211    1.6373    0.8331 H   0  0  0  0  0  0  0  0  0  0  0  0
   -1.1361    2.2729   -0.2596 H   0  0  0  0  0  0  0  0  0  0  0  0
    3.4944   -1.7825   -0.0409 H   0  0  0  0  0  0  0  0  0  0  0  0
    7.0303    1.2714    0.5363 H   0  0  0  0  0  0  0  0  0  0  0  0
    7.1909    0.7576   -1.2164 H   0  0  0  0  0  0  0  0  0  0  0  0
    5.1999    1.6351   -1.7205 H   0  0  0  0  0  0  0  0  0  0  0  0
    4.9873    2.1105   -0.0009 H   0  0  0  0  0  0  0  0  0  0  0  0
  1  2  1  0
  2  3  1  0
  3  4  1  0
  4  5  2  0
  5  6  1  0
  5  7  1  0
  7  8  2  0
  8  9  1  0
  9 10  1  0
  9 11  2  0
 11 12  1  0
 12 13  1  0
 12 14  2  0
 14 15  1  0
 15 16  1  0
 16 17  1  0
 17 18  1  0
 18 19  1  0
 19 20  1  0
 18 21  1  0
 21 22  2  0
 21 23  1  0
 23 24  2  0
 24 25  1  0
 25 26  2  0
 26 27  1  0
 27 28  1  0
 26 29  1  0
 29 30  3  0
 15  3  1  0
 20 15  1  0
 28 23  1  0
 11  4  1  0
  1 31  1  0
  1 32  1  0
  1 33  1  0
  2 34  1  0
  2 35  1  0
  7 36  1  0
  8 37  1  0
 13 38  1  0
 13 39  1  0
 16 40  1  0
 16 41  1  0
 17 42  1  0
 17 43  1  0
 19 44  1  0
 19 45  1  0
 20 46  1  0
 20 47  1  0
 24 48  1  0
 27 49  1  0
 27 50  1  0
 28 51  1  0
 28 52  1  0
M  END
$$$$
