
     RDKit          3D

 27 28  0  0  0  0  0  0  0  0999 V2000
   -4.6828    1.3299    0.8128 C   0  0  0  0  0  0  0  0  0  0  0  0
   -3.7397    0.1820    0.6218 C   0  0  0  0  0  0  0  0  0  0  0  0
   -3.7645   -0.9913    1.1634 N   0  0  0  0  0  0  0  0  0  0  0  0
   -2.8513   -1.8440    0.8637 N   0  0  0  0  0  0  0  0  0  0  0  0
   -1.9353   -1.6617    0.1004 C   0  0  0  0  0  0  0  0  0  0  0  0
   -0.8422   -2.4684   -0.3586 N   0  0  0  0  0  0  0  0  0  0  0  0
    0.3430   -1.9428   -1.4711 S   0  0  0  0  0  0  0  0  0  0  0  0
   -0.4174   -1.5003   -2.7145 O   0  0  0  0  0  0  0  0  0  0  0  0
    1.2137   -3.0772   -1.9228 O   0  0  0  0  0  0  0  0  0  0  0  0
    1.2715   -0.5894   -0.9005 C   0  0  0  0  0  0  0  0  0  0  0  0
    2.3481   -1.0201   -0.1144 C   0  0  0  0  0  0  0  0  0  0  0  0
    3.2389   -0.1017    0.4503 C   0  0  0  0  0  0  0  0  0  0  0  0
    3.0721    1.2513    0.2421 C   0  0  0  0  0  0  0  0  0  0  0  0
    3.9482    2.2111    0.7939 N   0  0  0  0  0  0  0  0  0  0  0  0
    2.0060    1.6512   -0.5346 C   0  0  0  0  0  0  0  0  0  0  0  0
    1.1255    0.7677   -1.0946 C   0  0  0  0  0  0  0  0  0  0  0  0
   -2.2443    0.0470   -0.4313 S   0  0  0  0  0  0  0  0  0  0  0  0
   -4.1894    2.2907    0.5172 H   0  0  0  0  0  0  0  0  0  0  0  0
   -4.9064    1.3272    1.8759 H   0  0  0  0  0  0  0  0  0  0  0  0
   -5.5647    1.1282    0.1717 H   0  0  0  0  0  0  0  0  0  0  0  0
   -0.7982   -3.4114    0.0227 H   0  0  0  0  0  0  0  0  0  0  0  0
    2.6177   -2.0494    0.1443 H   0  0  0  0  0  0  0  0  0  0  0  0
    4.0817   -0.3853    1.0621 H   0  0  0  0  0  0  0  0  0  0  0  0
    4.5556    2.7425    0.1392 H   0  0  0  0  0  0  0  0  0  0  0  0
    4.0389    2.4344    1.8125 H   0  0  0  0  0  0  0  0  0  0  0  0
    1.8080    2.7020   -0.7444 H   0  0  0  0  0  0  0  0  0  0  0  0
    0.2674    0.9775   -1.7179 H   0  0  0  0  0  0  0  0  0  0  0  0
  1  2  1  0
  2  3  2  0
  3  4  1  0
  4  5  2  0
  5  6  1  0
  6  7  1  0
  7  8  2  0
  7  9  2  0
  7 10  1  0
 10 11  2  0
 11 12  1  0
 12 13  2  0
 13 14  1  0
 13 15  1  0
 15 16  2  0
  5 17  1  0
 17  2  1  0
 16 10  1  0
  1 18  1  0
  1 19  1  0
  1 20  1  0
  6 21  1  0
 11 22  1  0
 12 23  1  0
 14 24  1  0
 14 25  1  0
 15 26  1  0
 16 27  1  0
M  END
$$$$
