
     RDKit          3D

 56 60  0  0  0  0  0  0  0  0999 V2000
   -2.0969    0.1032    4.0156 C   0  0  0  0  0  0  0  0  0  0  0  0
   -2.0592   -0.0999    2.5463 C   0  0  0  0  0  0  0  0  0  0  0  0
   -3.1746   -0.4198    1.7531 C   0  0  0  0  0  0  0  0  0  0  0  0
   -2.7767   -0.5248    0.4789 N   0  0  0  0  0  0  0  0  0  0  0  0
   -3.5313   -0.8456   -0.6658 C   0  0  0  0  0  0  0  0  0  0  0  0
   -2.8790   -0.8746   -1.7804 O   0  0  0  0  0  0  0  0  0  0  0  0
   -4.8825   -1.1347   -0.7554 N   0  0  0  0  0  0  0  0  0  0  0  0
   -5.8385   -1.1762    0.3088 C   0  0  0  0  0  0  0  0  0  0  0  0
   -5.4405   -1.4433   -2.1101 C   0  0  0  0  0  0  0  0  0  0  0  0
   -1.4189   -0.2680    0.4712 C   0  0  0  0  0  0  0  0  0  0  0  0
   -0.9754   -0.0166    1.7255 C   0  0  0  0  0  0  0  0  0  0  0  0
    0.4848    0.0874    1.7318 C   0  0  0  0  0  0  0  0  0  0  0  0
    1.1279    0.3379    2.7754 O   0  0  0  0  0  0  0  0  0  0  0  0
    0.9066   -0.1459    0.3921 N   0  0  0  0  0  0  0  0  0  0  0  0
    2.2615   -0.4701    0.0378 C   0  0  0  0  0  0  0  0  0  0  0  0
    2.6041   -0.8568   -1.2606 C   0  0  0  0  0  0  0  0  0  0  0  0
    3.8884   -1.1728   -1.6367 C   0  0  0  0  0  0  0  0  0  0  0  0
    4.1918   -1.5773   -3.0318 C   0  0  0  0  0  0  0  0  0  0  0  0
    4.8500   -1.0890   -0.6493 C   0  0  0  0  0  0  0  0  0  0  0  0
    6.1675   -1.3314   -0.7114 N   0  0  0  0  0  0  0  0  0  0  0  0
    6.6856   -1.1181    0.4865 N   0  0  0  0  0  0  0  0  0  0  0  0
    5.7165   -0.7341    1.3469 C   0  0  0  0  0  0  0  0  0  0  0  0
    5.8515   -0.3936    2.7878 C   0  0  0  0  0  0  0  0  0  0  0  0
    4.5827   -0.7267    0.6032 N   0  0  0  0  0  0  0  0  0  0  0  0
    3.3063   -0.4247    0.9294 C   0  0  0  0  0  0  0  0  0  0  0  0
   -0.2502   -0.0314   -0.4437 C   0  0  0  0  0  0  0  0  0  0  0  0
   -0.3865    1.3573   -1.0011 C   0  0  0  0  0  0  0  0  0  0  0  0
    0.5577    1.9876   -1.7566 C   0  0  0  0  0  0  0  0  0  0  0  0
    0.3971    3.2950   -2.2360 C   0  0  0  0  0  0  0  0  0  0  0  0
   -0.7663    3.9613   -1.9252 C   0  0  0  0  0  0  0  0  0  0  0  0
   -0.9403    5.5998   -2.5404 Cl  0  0  0  0  0  0  0  0  0  0  0  0
   -1.7433    3.3615   -1.1659 C   0  0  0  0  0  0  0  0  0  0  0  0
   -1.5393    2.0567   -0.7095 C   0  0  0  0  0  0  0  0  0  0  0  0
   -3.0791    0.5804    4.2559 H   0  0  0  0  0  0  0  0  0  0  0  0
   -2.1114   -0.9076    4.4872 H   0  0  0  0  0  0  0  0  0  0  0  0
   -1.2740    0.7317    4.3626 H   0  0  0  0  0  0  0  0  0  0  0  0
   -4.1560   -0.5433    2.1720 H   0  0  0  0  0  0  0  0  0  0  0  0
   -6.8348   -1.4796   -0.1364 H   0  0  0  0  0  0  0  0  0  0  0  0
   -5.9795   -0.1872    0.8327 H   0  0  0  0  0  0  0  0  0  0  0  0
   -5.6280   -1.9221    1.0999 H   0  0  0  0  0  0  0  0  0  0  0  0
   -5.7293   -0.4967   -2.5862 H   0  0  0  0  0  0  0  0  0  0  0  0
   -6.3437   -2.0759   -2.0167 H   0  0  0  0  0  0  0  0  0  0  0  0
   -4.6219   -1.9637   -2.6551 H   0  0  0  0  0  0  0  0  0  0  0  0
    1.7792   -0.8969   -1.9817 H   0  0  0  0  0  0  0  0  0  0  0  0
    3.3499   -2.0661   -3.5300 H   0  0  0  0  0  0  0  0  0  0  0  0
    5.0485   -2.3110   -3.0289 H   0  0  0  0  0  0  0  0  0  0  0  0
    4.5565   -0.7179   -3.6518 H   0  0  0  0  0  0  0  0  0  0  0  0
    6.0699    0.6826    2.9378 H   0  0  0  0  0  0  0  0  0  0  0  0
    4.9131   -0.6557    3.3500 H   0  0  0  0  0  0  0  0  0  0  0  0
    6.6649   -0.9601    3.2806 H   0  0  0  0  0  0  0  0  0  0  0  0
    3.1490   -0.1395    1.9489 H   0  0  0  0  0  0  0  0  0  0  0  0
   -0.2969   -0.7675   -1.2559 H   0  0  0  0  0  0  0  0  0  0  0  0
    1.4621    1.5085   -2.0188 H   0  0  0  0  0  0  0  0  0  0  0  0
    1.1646    3.7496   -2.8252 H   0  0  0  0  0  0  0  0  0  0  0  0
   -2.6393    3.9007   -0.9379 H   0  0  0  0  0  0  0  0  0  0  0  0
   -2.3446    1.6650   -0.1127 H   0  0  0  0  0  0  0  0  0  0  0  0
  1  2  1  0
  2  3  2  0
  3  4  1  0
  4  5  1  0
  5  6  2  0
  5  7  1  0
  7  8  1  0
  7  9  1  0
  4 10  1  0
 10 11  2  0
 11 12  1  0
 12 13  2  0
 12 14  1  0
 14 15  1  0
 15 16  1  0
 16 17  2  0
 17 18  1  0
 17 19  1  0
 19 20  2  0
 20 21  1  0
 21 22  2  0
 22 23  1  0
 22 24  1  0
 24 25  1  0
 14 26  1  0
 26 27  1  0
 27 28  2  0
 28 29  1  0
 29 30  2  0
 30 31  1  0
 30 32  1  0
 32 33  2  0
 11  2  1  0
 25 15  2  0
 33 27  1  0
 26 10  1  0
 24 19  1  0
  1 34  1  0
  1 35  1  0
  1 36  1  0
  3 37  1  0
  8 38  1  0
  8 39  1  0
  8 40  1  0
  9 41  1  0
  9 42  1  0
  9 43  1  0
 16 44  1  0
 18 45  1  0
 18 46  1  0
 18 47  1  0
 23 48  1  0
 23 49  1  0
 23 50  1  0
 25 51  1  0
 26 52  1  0
 28 53  1  0
 29 54  1  0
 32 55  1  0
 33 56  1  0
M  END
$$$$
