
     RDKit          3D

 53 56  0  0  0  0  0  0  0  0999 V2000
    6.8545    0.5558    0.6003 O   0  0  0  0  0  0  0  0  0  0  0  0
    6.1662    0.8999   -0.5735 C   0  0  0  0  0  0  0  0  0  0  0  0
    4.7260    1.2979   -0.2632 C   0  0  0  0  0  0  0  0  0  0  0  0
    4.0386    0.1969    0.3654 N   0  0  0  0  0  0  0  0  0  0  0  0
    3.8533   -0.8639   -0.5773 C   0  0  0  0  0  0  0  0  0  0  0  0
    2.9768   -1.9620   -0.0858 C   0  0  0  0  0  0  0  0  0  0  0  0
    1.7190   -1.4592    0.4694 N   0  0  0  0  0  0  0  0  0  0  0  0
    0.8714   -0.9484   -0.5830 C   0  0  0  0  0  0  0  0  0  0  0  0
   -0.4781   -0.6510   -0.0161 C   0  0  0  0  0  0  0  0  0  0  0  0
   -1.4372   -0.1235   -1.0762 C   0  0  0  0  0  0  0  0  0  0  0  0
   -2.7327    0.0694   -0.4736 N   0  0  0  0  0  0  0  0  0  0  0  0
   -3.5705   -1.0862   -0.2917 C   0  0  0  0  0  0  0  0  0  0  0  0
   -3.0421   -2.2999   -0.6740 C   0  0  0  0  0  0  0  0  0  0  0  0
   -3.8306   -3.4397   -0.4902 C   0  0  0  0  0  0  0  0  0  0  0  0
   -5.0783   -3.3668    0.0453 C   0  0  0  0  0  0  0  0  0  0  0  0
   -5.5969   -2.1369    0.4255 C   0  0  0  0  0  0  0  0  0  0  0  0
   -4.8396   -1.0337    0.2508 C   0  0  0  0  0  0  0  0  0  0  0  0
   -5.5552    0.5128    0.7348 S   0  0  0  0  0  0  0  0  0  0  0  0
   -4.3161    1.7599    0.4452 C   0  0  0  0  0  0  0  0  0  0  0  0
   -4.6086    3.0468    0.7982 C   0  0  0  0  0  0  0  0  0  0  0  0
   -3.7244    4.0765    0.6226 C   0  0  0  0  0  0  0  0  0  0  0  0
   -2.5108    3.7404    0.0661 C   0  0  0  0  0  0  0  0  0  0  0  0
   -1.3562    5.0568   -0.1653 Cl  0  0  0  0  0  0  0  0  0  0  0  0
   -2.2185    2.4352   -0.2900 C   0  0  0  0  0  0  0  0  0  0  0  0
   -3.1055    1.3933   -0.1173 C   0  0  0  0  0  0  0  0  0  0  0  0
    2.0108   -0.5057    1.5158 C   0  0  0  0  0  0  0  0  0  0  0  0
    2.8192    0.6600    0.9863 C   0  0  0  0  0  0  0  0  0  0  0  0
    6.3290   -0.1090    1.1117 H   0  0  0  0  0  0  0  0  0  0  0  0
    6.2330    0.0800   -1.3105 H   0  0  0  0  0  0  0  0  0  0  0  0
    6.6960    1.7890   -1.0010 H   0  0  0  0  0  0  0  0  0  0  0  0
    4.2713    1.5531   -1.2610 H   0  0  0  0  0  0  0  0  0  0  0  0
    4.7222    2.2284    0.3245 H   0  0  0  0  0  0  0  0  0  0  0  0
    4.8739   -1.3202   -0.7441 H   0  0  0  0  0  0  0  0  0  0  0  0
    3.5188   -0.4139   -1.5379 H   0  0  0  0  0  0  0  0  0  0  0  0
    3.4863   -2.5360    0.6879 H   0  0  0  0  0  0  0  0  0  0  0  0
    2.6929   -2.5881   -0.9557 H   0  0  0  0  0  0  0  0  0  0  0  0
    0.7401   -1.7250   -1.3924 H   0  0  0  0  0  0  0  0  0  0  0  0
    1.3851   -0.0711   -1.0271 H   0  0  0  0  0  0  0  0  0  0  0  0
   -0.8362   -1.4839    0.5718 H   0  0  0  0  0  0  0  0  0  0  0  0
   -0.3091    0.1781    0.7573 H   0  0  0  0  0  0  0  0  0  0  0  0
   -1.4230   -0.9074   -1.8805 H   0  0  0  0  0  0  0  0  0  0  0  0
   -1.0304    0.7547   -1.6179 H   0  0  0  0  0  0  0  0  0  0  0  0
   -2.0632   -2.4142   -1.1053 H   0  0  0  0  0  0  0  0  0  0  0  0
   -3.3988   -4.3820   -0.7980 H   0  0  0  0  0  0  0  0  0  0  0  0
   -5.6753   -4.2567    0.1784 H   0  0  0  0  0  0  0  0  0  0  0  0
   -6.5982   -2.1059    0.8516 H   0  0  0  0  0  0  0  0  0  0  0  0
   -5.5944    3.2749    1.2390 H   0  0  0  0  0  0  0  0  0  0  0  0
   -3.9690    5.0943    0.9038 H   0  0  0  0  0  0  0  0  0  0  0  0
   -1.2528    2.2558   -0.7029 H   0  0  0  0  0  0  0  0  0  0  0  0
    2.6971   -1.0520    2.2221 H   0  0  0  0  0  0  0  0  0  0  0  0
    1.1428   -0.1619    2.0347 H   0  0  0  0  0  0  0  0  0  0  0  0
    2.1806    1.2329    0.3031 H   0  0  0  0  0  0  0  0  0  0  0  0
    3.1465    1.2617    1.8788 H   0  0  0  0  0  0  0  0  0  0  0  0
  1  2  1  0
  2  3  1  0
  3  4  1  0
  4  5  1  0
  5  6  1  0
  6  7  1  0
  7  8  1  0
  8  9  1  0
  9 10  1  0
 10 11  1  0
 11 12  1  0
 12 13  2  0
 13 14  1  0
 14 15  2  0
 15 16  1  0
 16 17  2  0
 17 18  1  0
 18 19  1  0
 19 20  2  0
 20 21  1  0
 21 22  2  0
 22 23  1  0
 22 24  1  0
 24 25  2  0
  7 26  1  0
 26 27  1  0
 27  4  1  0
 25 11  1  0
 17 12  1  0
 25 19  1  0
  1 28  1  0
  2 29  1  0
  2 30  1  0
  3 31  1  0
  3 32  1  0
  5 33  1  0
  5 34  1  0
  6 35  1  0
  6 36  1  0
  8 37  1  0
  8 38  1  0
  9 39  1  0
  9 40  1  0
 10 41  1  0
 10 42  1  0
 13 43  1  0
 14 44  1  0
 15 45  1  0
 16 46  1  0
 20 47  1  0
 21 48  1  0
 24 49  1  0
 26 50  1  0
 26 51  1  0
 27 52  1  0
 27 53  1  0
M  END
$$$$
