
     RDKit          3D

 44 47  0  0  0  0  0  0  0  0999 V2000
   -6.3217    2.2056    0.6770 C   0  0  0  0  0  0  0  0  0  0  0  0
   -5.3892    1.3909   -0.1619 C   0  0  0  0  0  0  0  0  0  0  0  0
   -5.4529    1.4018   -1.5222 N   0  0  0  0  0  0  0  0  0  0  0  0
   -4.1295    0.2697   -2.0338 S   0  0  0  0  0  0  0  0  0  0  0  0
   -3.6822   -0.0504   -0.2120 C   0  0  0  0  0  0  0  0  0  0  0  0
   -2.5595   -0.9905    0.0252 C   0  0  0  0  0  0  0  0  0  0  0  0
   -2.7097   -2.3156    0.1117 N   0  0  0  0  0  0  0  0  0  0  0  0
   -1.5290   -2.8308    0.3207 N   0  0  0  0  0  0  0  0  0  0  0  0
   -0.6001   -1.8666    0.3733 C   0  0  0  0  0  0  0  0  0  0  0  0
   -1.2591   -0.6947    0.1852 N   0  0  0  0  0  0  0  0  0  0  0  0
   -0.6037    0.5817    0.1810 C   0  0  0  0  0  0  0  0  0  0  0  0
    0.6459    0.4825    1.0675 C   0  0  0  0  0  0  0  0  0  0  0  0
    1.4325   -0.6017    0.3996 N   0  0  0  0  0  0  0  0  0  0  0  0
    2.5694   -0.2879   -0.3253 C   0  0  0  0  0  0  0  0  0  0  0  0
    3.2808   -1.1023   -0.9166 O   0  0  0  0  0  0  0  0  0  0  0  0
    2.9782    1.1364   -0.4068 C   0  0  0  0  0  0  0  0  0  0  0  0
    2.7155    1.8971   -1.5241 C   0  0  0  0  0  0  0  0  0  0  0  0
    3.1155    3.2205   -1.5612 C   0  0  0  0  0  0  0  0  0  0  0  0
    3.7800    3.7647   -0.4633 C   0  0  0  0  0  0  0  0  0  0  0  0
    4.1681    5.0649   -0.5061 F   0  0  0  0  0  0  0  0  0  0  0  0
    4.0338    2.9924    0.6418 C   0  0  0  0  0  0  0  0  0  0  0  0
    3.6300    1.6699    0.6696 C   0  0  0  0  0  0  0  0  0  0  0  0
    0.8656   -1.9425    0.5978 C   0  0  2  0  0  0  0  0  0  0  0  0
    1.6174   -2.9255   -0.1918 C   0  0  0  0  0  0  0  0  0  0  0  0
    1.2537   -4.3670   -0.0588 C   0  0  0  0  0  0  0  0  0  0  0  0
   -0.0206   -4.7171   -0.4283 O   0  0  0  0  0  0  0  0  0  0  0  0
   -4.4520    0.6155    0.3159 N   0  0  0  0  0  0  0  0  0  0  0  0
   -6.6999    1.5767    1.5124 H   0  0  0  0  0  0  0  0  0  0  0  0
   -5.8262    3.1237    1.0760 H   0  0  0  0  0  0  0  0  0  0  0  0
   -7.1784    2.5804    0.0666 H   0  0  0  0  0  0  0  0  0  0  0  0
   -0.2167    0.8306   -0.8454 H   0  0  0  0  0  0  0  0  0  0  0  0
   -1.2337    1.3994    0.5838 H   0  0  0  0  0  0  0  0  0  0  0  0
    0.4000    0.1785    2.0909 H   0  0  0  0  0  0  0  0  0  0  0  0
    1.2179    1.4063    0.9838 H   0  0  0  0  0  0  0  0  0  0  0  0
    2.1940    1.4596   -2.3830 H   0  0  0  0  0  0  0  0  0  0  0  0
    2.9256    3.8564   -2.4294 H   0  0  0  0  0  0  0  0  0  0  0  0
    4.5580    3.4291    1.5007 H   0  0  0  0  0  0  0  0  0  0  0  0
    3.8589    1.1064    1.5725 H   0  0  0  0  0  0  0  0  0  0  0  0
    1.0351   -2.2000    1.6986 H   0  0  0  0  0  0  0  0  0  0  0  0
    1.6830   -2.7002   -1.2807 H   0  0  0  0  0  0  0  0  0  0  0  0
    2.6945   -2.8837    0.1995 H   0  0  0  0  0  0  0  0  0  0  0  0
    1.4981   -4.7261    0.9853 H   0  0  0  0  0  0  0  0  0  0  0  0
    2.0079   -4.9309   -0.6891 H   0  0  0  0  0  0  0  0  0  0  0  0
   -0.2952   -5.5070    0.1033 H   0  0  0  0  0  0  0  0  0  0  0  0
  1  2  1  0
  2  3  2  0
  3  4  1  0
  4  5  1  0
  5  6  1  0
  6  7  2  0
  7  8  1  0
  8  9  2  0
  9 10  1  0
 10 11  1  0
 11 12  1  0
 12 13  1  0
 13 14  1  0
 14 15  2  0
 14 16  1  0
 16 17  2  0
 17 18  1  0
 18 19  2  0
 19 20  1  0
 19 21  1  0
 21 22  2  0
 13 23  1  0
 23 24  1  0
 24 25  1  0
 25 26  1  0
  5 27  2  0
 27  2  1  0
 10  6  1  0
 22 16  1  0
 23  9  1  0
  1 28  1  0
  1 29  1  0
  1 30  1  0
 11 31  1  0
 11 32  1  0
 12 33  1  0
 12 34  1  0
 17 35  1  0
 18 36  1  0
 21 37  1  0
 22 38  1  0
 23 39  1  1
 24 40  1  0
 24 41  1  0
 25 42  1  0
 25 43  1  0
 26 44  1  0
M  END
$$$$
