
     RDKit          3D

 58 61  0  0  0  0  0  0  0  0999 V2000
   -5.9740   -2.6755    2.2055 C   0  0  0  0  0  0  0  0  0  0  0  0
   -5.2909   -2.5988    0.8655 C   0  0  0  0  0  0  0  0  0  0  0  0
   -5.4804   -3.5002    0.0172 O   0  0  0  0  0  0  0  0  0  0  0  0
   -4.4279   -1.5188    0.5353 N   0  0  0  0  0  0  0  0  0  0  0  0
   -3.8085   -1.5039   -0.7557 C   0  0  0  0  0  0  0  0  0  0  0  0
   -2.9211   -0.3199   -0.9931 C   0  0  0  0  0  0  0  0  0  0  0  0
   -1.8291   -0.2410   -0.0427 N   0  0  0  0  0  0  0  0  0  0  0  0
   -0.4687   -0.2966   -0.4152 C   0  0  0  0  0  0  0  0  0  0  0  0
   -0.1723   -0.4193   -1.6141 O   0  0  0  0  0  0  0  0  0  0  0  0
    0.6562   -0.2132    0.5839 C   0  0  0  0  0  0  0  0  0  0  0  0
    0.1397   -0.0673    1.9334 N   0  0  0  0  0  0  0  0  0  0  0  0
    1.5061    0.9481    0.1680 C   0  0  0  0  0  0  0  0  0  0  0  0
    2.5899    0.5504   -0.8339 C   0  0  0  0  0  0  0  0  0  0  0  0
    3.4606   -0.3957   -0.1730 N   0  0  0  0  0  0  0  0  0  0  0  0
    4.8058   -0.6469   -0.5401 C   0  0  0  0  0  0  0  0  0  0  0  0
    5.2228   -1.8695   -0.9559 N   0  0  0  0  0  0  0  0  0  0  0  0
    6.4836   -2.1474   -1.3142 C   0  0  0  0  0  0  0  0  0  0  0  0
    7.3936   -1.1599   -1.2605 N   0  0  0  0  0  0  0  0  0  0  0  0
    7.0601    0.0747   -0.8605 C   0  0  0  0  0  0  0  0  0  0  0  0
    7.8109    1.1915   -0.7358 N   0  0  0  0  0  0  0  0  0  0  0  0
    7.0372    2.1932   -0.2965 C   0  0  0  0  0  0  0  0  0  0  0  0
    5.7472    1.6775   -0.1407 C   0  0  0  0  0  0  0  0  0  0  0  0
    5.7604    0.3475   -0.4946 C   0  0  0  0  0  0  0  0  0  0  0  0
    2.8881   -1.1228    0.9406 C   0  0  0  0  0  0  0  0  0  0  0  0
    1.4705   -1.4667    0.5314 C   0  0  0  0  0  0  0  0  0  0  0  0
   -3.6515    0.9654   -0.9527 C   0  0  0  0  0  0  0  0  0  0  0  0
   -5.0272    1.0428   -0.9205 C   0  0  0  0  0  0  0  0  0  0  0  0
   -5.6520    2.2741   -0.8832 C   0  0  0  0  0  0  0  0  0  0  0  0
   -4.9236    3.4470   -0.8772 C   0  0  0  0  0  0  0  0  0  0  0  0
   -5.7959    4.9582   -0.8289 Cl  0  0  0  0  0  0  0  0  0  0  0  0
   -3.5613    3.3802   -0.9088 C   0  0  0  0  0  0  0  0  0  0  0  0
   -2.9363    2.1407   -0.9464 C   0  0  0  0  0  0  0  0  0  0  0  0
   -5.9779   -1.6884    2.6897 H   0  0  0  0  0  0  0  0  0  0  0  0
   -6.9964   -3.0199    2.0044 H   0  0  0  0  0  0  0  0  0  0  0  0
   -5.4626   -3.3958    2.8522 H   0  0  0  0  0  0  0  0  0  0  0  0
   -4.2443   -0.7592    1.1986 H   0  0  0  0  0  0  0  0  0  0  0  0
   -3.1696   -2.4132   -0.8271 H   0  0  0  0  0  0  0  0  0  0  0  0
   -4.5308   -1.5530   -1.5929 H   0  0  0  0  0  0  0  0  0  0  0  0
   -2.5362   -0.4269   -2.0422 H   0  0  0  0  0  0  0  0  0  0  0  0
   -2.0507   -0.1377    0.9702 H   0  0  0  0  0  0  0  0  0  0  0  0
   -0.3107   -0.9444    2.2320 H   0  0  0  0  0  0  0  0  0  0  0  0
   -0.4367    0.7784    2.0644 H   0  0  0  0  0  0  0  0  0  0  0  0
    0.9105    1.7460   -0.3223 H   0  0  0  0  0  0  0  0  0  0  0  0
    2.0588    1.3408    1.0570 H   0  0  0  0  0  0  0  0  0  0  0  0
    2.1172    0.1075   -1.7341 H   0  0  0  0  0  0  0  0  0  0  0  0
    3.0780    1.4764   -1.1610 H   0  0  0  0  0  0  0  0  0  0  0  0
    6.8227   -3.1186   -1.6462 H   0  0  0  0  0  0  0  0  0  0  0  0
    8.8479    1.2239   -0.9621 H   0  0  0  0  0  0  0  0  0  0  0  0
    7.3660    3.2087   -0.1029 H   0  0  0  0  0  0  0  0  0  0  0  0
    4.8987    2.2204    0.1954 H   0  0  0  0  0  0  0  0  0  0  0  0
    2.8359   -0.4674    1.8409 H   0  0  0  0  0  0  0  0  0  0  0  0
    3.4067   -2.0765    1.1443 H   0  0  0  0  0  0  0  0  0  0  0  0
    1.0390   -2.2408    1.1989 H   0  0  0  0  0  0  0  0  0  0  0  0
    1.4539   -1.8353   -0.5309 H   0  0  0  0  0  0  0  0  0  0  0  0
   -5.6574    0.1626   -0.9232 H   0  0  0  0  0  0  0  0  0  0  0  0
   -6.7274    2.3142   -0.8582 H   0  0  0  0  0  0  0  0  0  0  0  0
   -2.9982    4.3020   -0.9040 H   0  0  0  0  0  0  0  0  0  0  0  0
   -1.8485    2.1684   -0.9702 H   0  0  0  0  0  0  0  0  0  0  0  0
  1  2  1  0
  2  3  2  0
  2  4  1  0
  4  5  1  0
  5  6  1  0
  6  7  1  0
  7  8  1  0
  8  9  2  0
  8 10  1  0
 10 11  1  0
 10 12  1  0
 12 13  1  0
 13 14  1  0
 14 15  1  0
 15 16  2  0
 16 17  1  0
 17 18  2  0
 18 19  1  0
 19 20  1  0
 20 21  1  0
 21 22  2  0
 22 23  1  0
 14 24  1  0
 24 25  1  0
  6 26  1  0
 26 27  2  0
 27 28  1  0
 28 29  2  0
 29 30  1  0
 29 31  1  0
 31 32  2  0
 25 10  1  0
 32 26  1  0
 23 15  1  0
 23 19  2  0
  1 33  1  0
  1 34  1  0
  1 35  1  0
  4 36  1  0
  5 37  1  0
  5 38  1  0
  6 39  1  0
  7 40  1  0
 11 41  1  0
 11 42  1  0
 12 43  1  0
 12 44  1  0
 13 45  1  0
 13 46  1  0
 17 47  1  0
 20 48  1  0
 21 49  1  0
 22 50  1  0
 24 51  1  0
 24 52  1  0
 25 53  1  0
 25 54  1  0
 27 55  1  0
 28 56  1  0
 31 57  1  0
 32 58  1  0
M  END
$$$$
