
     RDKit          3D

 14 14  0  0  0  0  0  0  0  0999 V2000
    1.9381   -0.0547    0.3808 N   0  0  0  0  0  0  0  0  0  0  0  0
    0.5465    0.3000    0.4134 C   0  0  2  0  0  0  0  0  0  0  0  0
   -0.3854   -0.8710    0.1767 C   0  0  0  0  0  0  0  0  0  0  0  0
   -1.6744   -0.0911   -0.0737 C   0  0  0  0  0  0  0  0  0  0  0  0
   -1.2113    0.9458   -0.8842 O   0  0  0  0  0  0  0  0  0  0  0  0
    0.1562    1.1595   -0.7546 C   0  0  0  0  0  0  0  0  0  0  0  0
    0.8786    1.9124   -1.4725 O   0  0  0  0  0  0  0  0  0  0  0  0
    2.1662   -0.9997    0.7286 H   0  0  0  0  0  0  0  0  0  0  0  0
    2.4493    0.2212   -0.4732 H   0  0  0  0  0  0  0  0  0  0  0  0
    0.2214    0.7982    1.3304 H   0  0  0  0  0  0  0  0  0  0  0  0
   -0.1406   -1.4243   -0.7641 H   0  0  0  0  0  0  0  0  0  0  0  0
   -0.4722   -1.5307    1.0460 H   0  0  0  0  0  0  0  0  0  0  0  0
   -2.4572   -0.7116   -0.5418 H   0  0  0  0  0  0  0  0  0  0  0  0
   -2.0152    0.3461    0.8883 H   0  0  0  0  0  0  0  0  0  0  0  0
  1  2  1  0
  2  3  1  0
  3  4  1  0
  4  5  1  0
  5  6  1  0
  6  7  2  0
  6  2  1  0
  1  8  1  0
  1  9  1  0
  2 10  1  1
  3 11  1  0
  3 12  1  0
  4 13  1  0
  4 14  1  0
M  END
$$$$
