
     RDKit          3D

 27 27  0  0  0  0  0  0  0  0999 V2000
   -2.6428   -0.2608    1.5685 C   0  0  0  0  0  0  0  0  0  0  0  0
   -1.4696    0.2717    0.8825 N   0  0  0  0  0  0  0  0  0  0  0  0
   -1.2525   -0.4637   -0.3515 C   0  0  1  0  0  0  0  0  0  0  0  0
   -2.4868   -0.2934   -1.2119 C   0  0  0  0  0  0  0  0  0  0  0  0
   -0.1089    0.1443   -1.1120 C   0  0  2  0  0  0  0  0  0  0  0  0
    0.0575   -0.6012   -2.2908 O   0  0  0  0  0  0  0  0  0  0  0  0
    1.1524    0.1733   -0.3275 C   0  0  0  0  0  0  0  0  0  0  0  0
    1.8358   -1.0245   -0.1782 C   0  0  0  0  0  0  0  0  0  0  0  0
    3.0121   -1.1023    0.5296 C   0  0  0  0  0  0  0  0  0  0  0  0
    3.5270    0.0394    1.1067 C   0  0  0  0  0  0  0  0  0  0  0  0
    2.8410    1.2196    0.9518 C   0  0  0  0  0  0  0  0  0  0  0  0
    1.6730    1.3332    0.2572 C   0  0  0  0  0  0  0  0  0  0  0  0
   -2.6582    0.0312    2.6246 H   0  0  0  0  0  0  0  0  0  0  0  0
   -3.5466    0.0305    1.0213 H   0  0  0  0  0  0  0  0  0  0  0  0
   -2.5303   -1.3820    1.5451 H   0  0  0  0  0  0  0  0  0  0  0  0
   -1.6669    1.2736    0.6876 H   0  0  0  0  0  0  0  0  0  0  0  0
   -1.1000   -1.5286   -0.1002 H   0  0  0  0  0  0  0  0  0  0  0  0
   -3.2910   -0.9934   -0.9421 H   0  0  0  0  0  0  0  0  0  0  0  0
   -2.8036    0.7746   -1.1228 H   0  0  0  0  0  0  0  0  0  0  0  0
   -2.1685   -0.4228   -2.2645 H   0  0  0  0  0  0  0  0  0  0  0  0
   -0.4029    1.1696   -1.4002 H   0  0  0  0  0  0  0  0  0  0  0  0
    0.2656    0.0115   -3.0632 H   0  0  0  0  0  0  0  0  0  0  0  0
    1.4715   -1.9502   -0.6133 H   0  0  0  0  0  0  0  0  0  0  0  0
    3.5258   -2.0483    0.6315 H   0  0  0  0  0  0  0  0  0  0  0  0
    4.4423   -0.0279    1.6559 H   0  0  0  0  0  0  0  0  0  0  0  0
    3.2079    2.1511    1.3898 H   0  0  0  0  0  0  0  0  0  0  0  0
    1.1168    2.2651    0.1260 H   0  0  0  0  0  0  0  0  0  0  0  0
  1  2  1  0
  2  3  1  0
  3  4  1  0
  3  5  1  0
  5  6  1  0
  5  7  1  0
  7  8  2  0
  8  9  1  0
  9 10  2  0
 10 11  1  0
 11 12  2  0
 12  7  1  0
  1 13  1  0
  1 14  1  0
  1 15  1  0
  2 16  1  0
  3 17  1  1
  4 18  1  0
  4 19  1  0
  4 20  1  0
  5 21  1  6
  6 22  1  0
  8 23  1  0
  9 24  1  0
 10 25  1  0
 11 26  1  0
 12 27  1  0
M  END
$$$$
