
     RDKit          3D

 69 73  0  0  0  0  0  0  0  0999 V2000
    1.0147   -1.8075   -3.5217 O   0  0  0  0  0  0  0  0  0  0  0  0
    1.1411   -0.8395   -2.7322 C   0  0  0  0  0  0  0  0  0  0  0  0
    2.2947    0.0436   -2.6524 C   0  0  0  0  0  0  0  0  0  0  0  0
    3.3325   -0.0215   -3.3511 O   0  0  0  0  0  0  0  0  0  0  0  0
    2.0699    1.0138   -1.6442 N   0  0  0  0  0  0  0  0  0  0  0  0
    2.9698    2.0778   -1.2452 C   0  0  0  0  0  0  0  0  0  0  0  0
    3.8776    1.6000   -0.1758 C   0  0  0  0  0  0  0  0  0  0  0  0
    3.6071    1.6905    1.1720 C   0  0  0  0  0  0  0  0  0  0  0  0
    4.4698    1.2360    2.1291 C   0  0  0  0  0  0  0  0  0  0  0  0
    5.7115    0.6372    1.7629 C   0  0  0  0  0  0  0  0  0  0  0  0
    6.5358    0.2013    2.7138 O   0  0  0  0  0  0  0  0  0  0  0  0
    7.6679   -0.3636    3.0597 C   0  0  0  0  0  0  0  0  0  0  0  0
    8.9913    0.2344    2.7024 C   0  0  0  0  0  0  0  0  0  0  0  0
    9.3044    0.3759    1.3919 O   0  0  0  0  0  0  0  0  0  0  0  0
    9.4328   -0.8427    0.7172 C   0  0  0  0  0  0  0  0  0  0  0  0
    9.7751   -0.5753   -0.7316 C   0  0  0  0  0  0  0  0  0  0  0  0
   10.9755    0.1273   -0.8252 F   0  0  0  0  0  0  0  0  0  0  0  0
    5.9648    0.5552    0.4162 C   0  0  0  0  0  0  0  0  0  0  0  0
    5.0704    1.0244   -0.5171 C   0  0  0  0  0  0  0  0  0  0  0  0
    0.7777    0.7557   -1.0786 C   0  0  0  0  0  0  0  0  0  0  0  0
    0.0659    1.3852   -0.0765 C   0  0  0  0  0  0  0  0  0  0  0  0
   -1.1872    0.9072    0.2675 C   0  0  0  0  0  0  0  0  0  0  0  0
   -1.7560   -0.1805   -0.3559 C   0  0  0  0  0  0  0  0  0  0  0  0
   -3.3462   -0.7239    0.1442 S   0  0  0  0  0  6  0  0  0  0  0  0
   -3.4487   -0.5132    1.6060 O   0  0  0  0  0  0  0  0  0  0  0  0
   -3.4385   -2.2061   -0.1728 O   0  0  0  0  0  0  0  0  0  0  0  0
   -4.5156    0.1079   -0.7606 N   0  0  0  0  0  0  0  0  0  0  0  0
   -4.4317   -0.1368   -2.2073 C   0  0  0  0  0  0  0  0  0  0  0  0
   -5.5955   -1.1205   -2.0102 C   0  0  0  0  0  0  0  0  0  0  0  0
   -5.8806   -0.3662   -0.7079 C   0  0  1  0  0  0  0  0  0  0  0  0
   -6.2612   -1.2774    0.4007 C   0  0  0  0  0  0  0  0  0  0  0  0
   -7.5942   -1.6381    0.3277 O   0  0  0  0  0  0  0  0  0  0  0  0
   -8.7493   -0.9485    0.4086 C   0  0  0  0  0  0  0  0  0  0  0  0
   -9.9443   -1.6797    0.2571 C   0  0  0  0  0  0  0  0  0  0  0  0
  -11.1719   -1.1010    0.3201 C   0  0  0  0  0  0  0  0  0  0  0  0
  -11.2926    0.2544    0.5397 C   0  0  0  0  0  0  0  0  0  0  0  0
  -10.1678    1.0153    0.6946 C   0  0  0  0  0  0  0  0  0  0  0  0
   -8.9294    0.3916    0.6248 C   0  0  0  0  0  0  0  0  0  0  0  0
   -1.0451   -0.8058   -1.3538 C   0  0  0  0  0  0  0  0  0  0  0  0
    0.2114   -0.3519   -1.7217 C   0  0  0  0  0  0  0  0  0  0  0  0
    2.4017    2.9361   -0.8146 H   0  0  0  0  0  0  0  0  0  0  0  0
    3.5454    2.4863   -2.0958 H   0  0  0  0  0  0  0  0  0  0  0  0
    2.6591    2.1472    1.4862 H   0  0  0  0  0  0  0  0  0  0  0  0
    4.2687    1.3015    3.1904 H   0  0  0  0  0  0  0  0  0  0  0  0
    7.7101   -0.4380    4.2132 H   0  0  0  0  0  0  0  0  0  0  0  0
    7.6513   -1.4722    2.7926 H   0  0  0  0  0  0  0  0  0  0  0  0
    9.0014    1.2676    3.1558 H   0  0  0  0  0  0  0  0  0  0  0  0
    9.8353   -0.2963    3.1984 H   0  0  0  0  0  0  0  0  0  0  0  0
   10.2924   -1.4366    1.1309 H   0  0  0  0  0  0  0  0  0  0  0  0
    8.5597   -1.4865    0.7625 H   0  0  0  0  0  0  0  0  0  0  0  0
    9.8510   -1.4953   -1.3229 H   0  0  0  0  0  0  0  0  0  0  0  0
    8.9938    0.0583   -1.2236 H   0  0  0  0  0  0  0  0  0  0  0  0
    6.9093    0.0978    0.0863 H   0  0  0  0  0  0  0  0  0  0  0  0
    5.3355    0.9277   -1.5742 H   0  0  0  0  0  0  0  0  0  0  0  0
    0.5289    2.2372    0.3998 H   0  0  0  0  0  0  0  0  0  0  0  0
   -1.7227    1.4311    1.0665 H   0  0  0  0  0  0  0  0  0  0  0  0
   -3.4976   -0.5910   -2.5532 H   0  0  0  0  0  0  0  0  0  0  0  0
   -4.7955    0.7454   -2.7780 H   0  0  0  0  0  0  0  0  0  0  0  0
   -6.4156   -1.0036   -2.7313 H   0  0  0  0  0  0  0  0  0  0  0  0
   -5.2098   -2.1264   -1.8214 H   0  0  0  0  0  0  0  0  0  0  0  0
   -6.5588    0.4750   -0.8377 H   0  0  0  0  0  0  0  0  0  0  0  0
   -5.6756   -2.2309    0.4085 H   0  0  0  0  0  0  0  0  0  0  0  0
   -6.1271   -0.7396    1.3817 H   0  0  0  0  0  0  0  0  0  0  0  0
   -9.8749   -2.7438    0.0840 H   0  0  0  0  0  0  0  0  0  0  0  0
  -12.0709   -1.6855    0.2004 H   0  0  0  0  0  0  0  0  0  0  0  0
  -12.2892    0.6965    0.5861 H   0  0  0  0  0  0  0  0  0  0  0  0
  -10.2463    2.0686    0.8657 H   0  0  0  0  0  0  0  0  0  0  0  0
   -8.0841    1.0203    0.7680 H   0  0  0  0  0  0  0  0  0  0  0  0
   -1.4815   -1.6512   -1.8388 H   0  0  0  0  0  0  0  0  0  0  0  0
  1  2  2  0
  2  3  1  0
  3  4  2  0
  3  5  1  0
  5  6  1  0
  6  7  1  0
  7  8  2  0
  8  9  1  0
  9 10  2  0
 10 11  1  0
 11 12  1  0
 12 13  1  0
 13 14  1  0
 14 15  1  0
 15 16  1  0
 16 17  1  0
 10 18  1  0
 18 19  2  0
  5 20  1  0
 20 21  2  0
 21 22  1  0
 22 23  2  0
 23 24  1  0
 24 25  2  0
 24 26  2  0
 24 27  1  0
 27 28  1  0
 28 29  1  0
 29 30  1  0
 30 31  1  0
 31 32  1  0
 32 33  1  0
 33 34  2  0
 34 35  1  0
 35 36  2  0
 36 37  1  0
 37 38  2  0
 23 39  1  0
 39 40  2  0
 40  2  1  0
 19  7  1  0
 40 20  1  0
 30 27  1  0
 38 33  1  0
  6 41  1  0
  6 42  1  0
  8 43  1  0
  9 44  1  0
 12 45  1  0
 12 46  1  0
 13 47  1  0
 13 48  1  0
 15 49  1  0
 15 50  1  0
 16 51  1  0
 16 52  1  0
 18 53  1  0
 19 54  1  0
 21 55  1  0
 22 56  1  0
 28 57  1  0
 28 58  1  0
 29 59  1  0
 29 60  1  0
 30 61  1  6
 31 62  1  0
 31 63  1  0
 34 64  1  0
 35 65  1  0
 36 66  1  0
 37 67  1  0
 38 68  1  0
 39 69  1  0
M  END
$$$$
