
     RDKit          3D

 50 53  0  0  0  0  0  0  0  0999 V2000
   -5.8373   -3.1388   -0.5789 C   0  0  0  0  0  0  0  0  0  0  0  0
   -4.4929   -2.5523   -0.4669 N   0  0  0  0  0  0  0  0  0  0  0  0
   -3.4103   -2.9722   -1.0972 N   0  0  0  0  0  0  0  0  0  0  0  0
   -2.3368   -2.2286   -0.7820 C   0  0  0  0  0  0  0  0  0  0  0  0
   -0.9757   -2.3882   -1.2763 C   0  0  0  0  0  0  0  0  0  0  0  0
   -0.6630   -3.4006   -2.1582 C   0  0  0  0  0  0  0  0  0  0  0  0
    0.5860   -3.5836   -2.6376 N   0  0  0  0  0  0  0  0  0  0  0  0
    1.5859   -2.7650   -2.2607 C   0  0  0  0  0  0  0  0  0  0  0  0
    2.9011   -2.6702   -2.5390 N   0  0  0  0  0  0  0  0  0  0  0  0
    3.4135   -1.6268   -1.8547 C   0  0  0  0  0  0  0  0  0  0  0  0
    2.4271   -1.0160   -1.1076 C   0  0  0  0  0  0  0  0  0  0  0  0
    2.5085    0.1391   -0.2240 C   0  0  0  0  0  0  0  0  0  0  0  0
    1.8039    0.1839    0.8308 O   0  0  0  0  0  0  0  0  0  0  0  0
    3.3656    1.2362   -0.5112 N   0  0  0  0  0  0  0  0  0  0  0  0
    3.4758    2.3989    0.3325 C   0  0  0  0  0  0  0  0  0  0  0  0
    3.9444    2.0416    1.7366 C   0  0  0  0  0  0  0  0  0  0  0  0
    2.2133    3.2025    0.3926 C   0  0  0  0  0  0  0  0  0  0  0  0
    4.5521    3.3064   -0.2529 C   0  0  0  0  0  0  0  0  0  0  0  0
    1.2729   -1.7511   -1.3771 C   0  0  0  0  0  0  0  0  0  0  0  0
    0.0248   -1.5753   -0.9042 N   0  0  0  0  0  0  0  0  0  0  0  0
   -2.8250   -1.2857    0.1150 C   0  0  0  0  0  0  0  0  0  0  0  0
   -2.1784   -0.2858    0.7552 C   0  0  0  0  0  0  0  0  0  0  0  0
   -2.8484    0.5829    1.6410 C   0  0  0  0  0  0  0  0  0  0  0  0
   -2.2111    1.5372    2.2470 O   0  0  0  0  0  0  0  0  0  0  0  0
   -1.5182    2.4587    2.8134 C   0  0  0  0  0  0  0  0  0  0  0  0
   -1.6449    2.6256    4.1979 F   0  0  0  0  0  0  0  0  0  0  0  0
   -1.8382    3.7371    2.3104 F   0  0  0  0  0  0  0  0  0  0  0  0
   -4.2281    0.3435    1.8156 C   0  0  0  0  0  0  0  0  0  0  0  0
   -4.8550   -0.6749    1.1557 C   0  0  0  0  0  0  0  0  0  0  0  0
   -4.1759   -1.5039    0.2998 C   0  0  0  0  0  0  0  0  0  0  0  0
   -5.7219   -4.0536   -1.1818 H   0  0  0  0  0  0  0  0  0  0  0  0
   -6.1756   -3.4740    0.4395 H   0  0  0  0  0  0  0  0  0  0  0  0
   -6.5273   -2.4323   -1.0328 H   0  0  0  0  0  0  0  0  0  0  0  0
   -1.4759   -4.0578   -2.4550 H   0  0  0  0  0  0  0  0  0  0  0  0
    3.3937   -3.3159   -3.1800 H   0  0  0  0  0  0  0  0  0  0  0  0
    4.4481   -1.3318   -1.8985 H   0  0  0  0  0  0  0  0  0  0  0  0
    3.9239    1.1361   -1.4068 H   0  0  0  0  0  0  0  0  0  0  0  0
    3.1362    1.5213    2.3022 H   0  0  0  0  0  0  0  0  0  0  0  0
    4.1267    2.9937    2.2684 H   0  0  0  0  0  0  0  0  0  0  0  0
    4.8658    1.4599    1.6615 H   0  0  0  0  0  0  0  0  0  0  0  0
    1.8930    3.4430   -0.6517 H   0  0  0  0  0  0  0  0  0  0  0  0
    2.4456    4.1545    0.9142 H   0  0  0  0  0  0  0  0  0  0  0  0
    1.3871    2.6681    0.8999 H   0  0  0  0  0  0  0  0  0  0  0  0
    5.2630    2.6727   -0.8377 H   0  0  0  0  0  0  0  0  0  0  0  0
    4.0597    3.9725   -0.9703 H   0  0  0  0  0  0  0  0  0  0  0  0
    5.0901    3.8357    0.5641 H   0  0  0  0  0  0  0  0  0  0  0  0
   -1.1224   -0.1332    0.5963 H   0  0  0  0  0  0  0  0  0  0  0  0
   -0.4041    2.3631    2.6114 H   0  0  0  0  0  0  0  0  0  0  0  0
   -4.7292    1.0212    2.5003 H   0  0  0  0  0  0  0  0  0  0  0  0
   -5.9125   -0.8178    1.3223 H   0  0  0  0  0  0  0  0  0  0  0  0
  1  2  1  0
  2  3  1  0
  3  4  2  0
  4  5  1  0
  5  6  2  0
  6  7  1  0
  7  8  2  0
  8  9  1  0
  9 10  1  0
 10 11  2  0
 11 12  1  0
 12 13  2  0
 12 14  1  0
 14 15  1  0
 15 16  1  0
 15 17  1  0
 15 18  1  0
 11 19  1  0
 19 20  2  0
  4 21  1  0
 21 22  2  0
 22 23  1  0
 23 24  1  0
 24 25  1  0
 25 26  1  0
 25 27  1  0
 23 28  2  0
 28 29  1  0
 29 30  2  0
 30  2  1  0
 20  5  1  0
 30 21  1  0
 19  8  1  0
  1 31  1  0
  1 32  1  0
  1 33  1  0
  6 34  1  0
  9 35  1  0
 10 36  1  0
 14 37  1  0
 16 38  1  0
 16 39  1  0
 16 40  1  0
 17 41  1  0
 17 42  1  0
 17 43  1  0
 18 44  1  0
 18 45  1  0
 18 46  1  0
 22 47  1  0
 25 48  1  0
 28 49  1  0
 29 50  1  0
M  END
$$$$
