
     RDKit          3D

 37 39  0  0  0  0  0  0  0  0999 V2000
    0.8210    4.1673    0.5508 C   0  0  0  0  0  0  0  0  0  0  0  0
   -0.1666    3.0702    0.3195 C   0  0  0  0  0  0  0  0  0  0  0  0
   -1.3537    3.4529    0.2539 O   0  0  0  0  0  0  0  0  0  0  0  0
    0.2426    1.6841    0.1867 C   0  0  0  0  0  0  0  0  0  0  0  0
   -0.6845    0.6753    0.0835 C   0  0  0  0  0  0  0  0  0  0  0  0
   -2.0903    0.8656    0.1394 N   0  0  0  0  0  0  0  0  0  0  0  0
   -2.9767   -0.2481   -0.0519 C   0  0  0  0  0  0  0  0  0  0  0  0
   -4.1919   -0.3162    0.5964 C   0  0  0  0  0  0  0  0  0  0  0  0
   -5.0950   -1.3433    0.4514 C   0  0  0  0  0  0  0  0  0  0  0  0
   -4.7669   -2.3676   -0.3915 C   0  0  0  0  0  0  0  0  0  0  0  0
   -5.8554   -3.7321   -0.6423 Cl  0  0  0  0  0  0  0  0  0  0  0  0
   -3.5618   -2.3364   -1.0578 C   0  0  0  0  0  0  0  0  0  0  0  0
   -2.6529   -1.2750   -0.8962 C   0  0  0  0  0  0  0  0  0  0  0  0
   -0.1960   -0.5989   -0.0570 N   0  0  0  0  0  0  0  0  0  0  0  0
    1.1100   -0.8641   -0.0938 C   0  0  0  0  0  0  0  0  0  0  0  0
    1.6078   -2.1484   -0.2368 C   0  0  0  0  0  0  0  0  0  0  0  0
    0.4632   -3.4720   -0.3807 Cl  0  0  0  0  0  0  0  0  0  0  0  0
    2.9380   -2.4102   -0.2735 C   0  0  0  0  0  0  0  0  0  0  0  0
    3.8704   -1.3918   -0.1687 C   0  0  0  0  0  0  0  0  0  0  0  0
    5.2642   -1.6494   -0.2090 N   0  0  0  0  0  4  0  0  0  0  0  0
    5.6810   -2.8170   -0.3343 O   0  0  0  0  0  0  0  0  0  0  0  0
    6.1223   -0.5828   -0.1107 O   0  0  0  0  0  1  0  0  0  0  0  0
    3.3857   -0.1158   -0.0271 C   0  0  0  0  0  0  0  0  0  0  0  0
    2.0436    0.1542    0.0105 C   0  0  0  0  0  0  0  0  0  0  0  0
    1.6189    1.4567    0.1535 C   0  0  0  0  0  0  0  0  0  0  0  0
    2.5636    2.4700    0.2563 O   0  0  0  0  0  0  0  0  0  0  0  0
    1.4640    4.3656   -0.3150 H   0  0  0  0  0  0  0  0  0  0  0  0
    1.4488    4.0007    1.4552 H   0  0  0  0  0  0  0  0  0  0  0  0
    0.2190    5.0835    0.8219 H   0  0  0  0  0  0  0  0  0  0  0  0
   -2.4827    1.8031    0.3220 H   0  0  0  0  0  0  0  0  0  0  0  0
   -4.4476    0.4933    1.2579 H   0  0  0  0  0  0  0  0  0  0  0  0
   -6.0445   -1.3747    0.9692 H   0  0  0  0  0  0  0  0  0  0  0  0
   -3.2958   -3.1297   -1.7191 H   0  0  0  0  0  0  0  0  0  0  0  0
   -1.7558   -1.3400   -1.4723 H   0  0  0  0  0  0  0  0  0  0  0  0
    3.3454   -3.4306   -0.3881 H   0  0  0  0  0  0  0  0  0  0  0  0
    4.1012    0.6962    0.0575 H   0  0  0  0  0  0  0  0  0  0  0  0
    3.3075    2.5051    0.9402 H   0  0  0  0  0  0  0  0  0  0  0  0
  1  2  1  0
  2  3  2  0
  2  4  1  0
  4  5  2  0
  5  6  1  0
  6  7  1  0
  7  8  2  0
  8  9  1  0
  9 10  2  0
 10 11  1  0
 10 12  1  0
 12 13  2  0
  5 14  1  0
 14 15  2  0
 15 16  1  0
 16 17  1  0
 16 18  2  0
 18 19  1  0
 19 20  1  0
 20 21  2  0
 20 22  1  0
 19 23  2  0
 23 24  1  0
 24 25  2  0
 25 26  1  0
 25  4  1  0
 13  7  1  0
 24 15  1  0
  1 27  1  0
  1 28  1  0
  1 29  1  0
  6 30  1  0
  8 31  1  0
  9 32  1  0
 12 33  1  0
 13 34  1  0
 18 35  1  0
 23 36  1  0
 26 37  1  0
M  CHG  2  20   1  22  -1
M  END
$$$$
