
     RDKit          3D

 55 59  0  0  0  0  0  0  0  0999 V2000
   -5.0691    0.7265    0.4661 C   0  0  1  0  0  0  0  0  0  0  0  0
   -5.8277    0.3705   -0.7749 C   0  0  0  0  0  0  0  0  0  0  0  0
   -6.0918   -1.1067   -0.9161 C   0  0  0  0  0  0  0  0  0  0  0  0
   -6.5251   -1.7700    0.3458 C   0  0  0  0  0  0  0  0  0  0  0  0
   -6.7325   -0.7653    1.4170 C   0  0  0  0  0  0  0  0  0  0  0  0
   -5.6936    0.1649    1.6147 N   0  0  0  0  0  0  0  0  0  0  0  0
   -3.6236    0.3519    0.5051 C   0  0  0  0  0  0  0  0  0  0  0  0
   -3.1109    0.7618    1.7211 F   0  0  0  0  0  0  0  0  0  0  0  0
   -3.5302   -1.0347    0.5516 F   0  0  0  0  0  0  0  0  0  0  0  0
   -2.7738    0.8747   -0.5741 C   0  0  0  0  0  0  0  0  0  0  0  0
   -1.4025    0.4468   -0.4412 N   0  0  0  0  0  0  0  0  0  0  0  0
   -0.4366    0.7486    0.5690 C   0  0  0  0  0  0  0  0  0  0  0  0
   -0.6661    1.5416    1.6171 N   0  0  0  0  0  0  0  0  0  0  0  0
    0.2123    1.8538    2.5788 C   0  0  0  0  0  0  0  0  0  0  0  0
    1.4703    1.3412    2.5293 C   0  0  0  0  0  0  0  0  0  0  0  0
    1.7942    0.5114    1.4802 C   0  0  0  0  0  0  0  0  0  0  0  0
    0.8587    0.2198    0.5169 C   0  0  0  0  0  0  0  0  0  0  0  0
    1.4709   -0.5943   -0.3459 N   0  0  0  0  0  0  0  0  0  0  0  0
    2.7402   -0.8141    0.0468 C   0  0  0  0  0  0  0  0  0  0  0  0
    3.7224   -1.6776   -0.6801 C   0  0  0  0  0  0  0  0  0  0  0  0
    4.4737   -0.8530   -1.6395 C   0  0  0  0  0  0  0  0  0  0  0  0
    4.2560   -0.8310   -2.9849 C   0  0  0  0  0  0  0  0  0  0  0  0
    5.0392   -0.0038   -3.7542 C   0  0  0  0  0  0  0  0  0  0  0  0
    6.0371    0.8126   -3.2675 C   0  0  0  0  0  0  0  0  0  0  0  0
    6.2333    0.7670   -1.8954 C   0  0  0  0  0  0  0  0  0  0  0  0
    5.4631   -0.0571   -1.0713 C   0  0  0  0  0  0  0  0  0  0  0  0
    5.8359    0.0515    0.3022 N   0  0  0  0  0  0  0  0  0  0  0  0
    5.8928    1.0697    1.1764 C   0  0  0  0  0  0  0  0  0  0  0  0
    6.3245    0.6061    2.3681 N   0  0  0  0  0  0  0  0  0  0  0  0
    6.5254   -0.7105    2.1905 C   0  0  0  0  0  0  0  0  0  0  0  0
    6.2273   -1.0481    0.9310 N   0  0  0  0  0  0  0  0  0  0  0  0
    2.8712   -0.1206    1.1515 O   0  0  0  0  0  0  0  0  0  0  0  0
   -5.1416    1.8335    0.5642 H   0  0  0  0  0  0  0  0  0  0  0  0
   -5.4015    0.7706   -1.6953 H   0  0  0  0  0  0  0  0  0  0  0  0
   -6.8276    0.8456   -0.6535 H   0  0  0  0  0  0  0  0  0  0  0  0
   -6.8441   -1.2473   -1.7208 H   0  0  0  0  0  0  0  0  0  0  0  0
   -5.1898   -1.6539   -1.3029 H   0  0  0  0  0  0  0  0  0  0  0  0
   -5.8790   -2.6303    0.6503 H   0  0  0  0  0  0  0  0  0  0  0  0
   -7.5261   -2.2593    0.1730 H   0  0  0  0  0  0  0  0  0  0  0  0
   -6.8467   -1.3457    2.3796 H   0  0  0  0  0  0  0  0  0  0  0  0
   -7.7043   -0.2656    1.2356 H   0  0  0  0  0  0  0  0  0  0  0  0
   -5.7168    0.7204    2.4682 H   0  0  0  0  0  0  0  0  0  0  0  0
   -3.1024    0.6553   -1.6004 H   0  0  0  0  0  0  0  0  0  0  0  0
   -2.7183    2.0084   -0.5461 H   0  0  0  0  0  0  0  0  0  0  0  0
   -1.0264   -0.1983   -1.2036 H   0  0  0  0  0  0  0  0  0  0  0  0
   -0.1879    2.5246    3.3497 H   0  0  0  0  0  0  0  0  0  0  0  0
    2.1555    1.5975    3.2987 H   0  0  0  0  0  0  0  0  0  0  0  0
    4.3737   -2.2254    0.0152 H   0  0  0  0  0  0  0  0  0  0  0  0
    3.1457   -2.4297   -1.2608 H   0  0  0  0  0  0  0  0  0  0  0  0
    3.4873   -1.4544   -3.3916 H   0  0  0  0  0  0  0  0  0  0  0  0
    4.8455   -0.0039   -4.8221 H   0  0  0  0  0  0  0  0  0  0  0  0
    6.6202    1.4413   -3.9207 H   0  0  0  0  0  0  0  0  0  0  0  0
    7.0329    1.4256   -1.5343 H   0  0  0  0  0  0  0  0  0  0  0  0
    5.6095    2.0653    0.8566 H   0  0  0  0  0  0  0  0  0  0  0  0
    6.8773   -1.4368    2.9273 H   0  0  0  0  0  0  0  0  0  0  0  0
  1  2  1  0
  2  3  1  0
  3  4  1  0
  4  5  1  0
  5  6  1  0
  1  7  1  0
  7  8  1  0
  7  9  1  0
  7 10  1  0
 10 11  1  0
 11 12  1  0
 12 13  2  0
 13 14  1  0
 14 15  2  0
 15 16  1  0
 16 17  2  0
 17 18  1  0
 18 19  2  0
 19 20  1  0
 20 21  1  0
 21 22  2  0
 22 23  1  0
 23 24  2  0
 24 25  1  0
 25 26  2  0
 26 27  1  0
 27 28  1  0
 28 29  2  0
 29 30  1  0
 30 31  2  0
 19 32  1  0
  6  1  1  0
 17 12  1  0
 26 21  1  0
 31 27  1  0
 32 16  1  0
  1 33  1  1
  2 34  1  0
  2 35  1  0
  3 36  1  0
  3 37  1  0
  4 38  1  0
  4 39  1  0
  5 40  1  0
  5 41  1  0
  6 42  1  0
 10 43  1  0
 10 44  1  0
 11 45  1  0
 14 46  1  0
 15 47  1  0
 20 48  1  0
 20 49  1  0
 22 50  1  0
 23 51  1  0
 24 52  1  0
 25 53  1  0
 28 54  1  0
 30 55  1  0
M  END
$$$$
