
     RDKit          3D

 51 53  0  0  0  0  0  0  0  0999 V2000
   -5.8041    1.2232   -1.3343 C   0  0  0  0  0  0  0  0  0  0  0  0
   -5.1547    0.2267   -1.9623 O   0  0  0  0  0  0  0  0  0  0  0  0
   -5.1120   -1.0216   -1.4610 C   0  0  0  0  0  0  0  0  0  0  0  0
   -4.5211   -1.2783   -0.1507 C   0  0  2  0  0  0  0  0  0  0  0  0
   -5.3937   -0.8736    0.9829 C   0  0  0  0  0  0  0  0  0  0  0  0
   -4.5306   -0.0178    1.8608 C   0  0  0  0  0  0  0  0  0  0  0  0
   -3.2360    0.1339    1.1229 C   0  0  0  0  0  0  0  0  0  0  0  0
   -3.1858   -0.8853    0.1125 N   0  0  0  0  0  0  0  0  0  0  0  0
   -2.1919   -0.4475   -1.1722 S   0  0  0  0  0  6  0  0  0  0  0  0
   -2.0834   -1.5134   -2.2272 O   0  0  0  0  0  0  0  0  0  0  0  0
   -2.6187    0.8728   -1.8102 O   0  0  0  0  0  0  0  0  0  0  0  0
   -0.5649   -0.2357   -0.5324 C   0  0  0  0  0  0  0  0  0  0  0  0
    0.2458   -1.3482   -0.4957 C   0  0  0  0  0  0  0  0  0  0  0  0
    1.5399   -1.3083   -0.0165 C   0  0  0  0  0  0  0  0  0  0  0  0
    2.0217   -0.1125    0.4354 C   0  0  0  0  0  0  0  0  0  0  0  0
    1.2216    1.0016    0.4029 C   0  0  0  0  0  0  0  0  0  0  0  0
   -0.0819    0.9501   -0.0824 C   0  0  0  0  0  0  0  0  0  0  0  0
    1.9841    2.1216    0.9393 C   0  0  0  0  0  0  0  0  0  0  0  0
    1.5959    3.2955    1.0701 O   0  0  0  0  0  0  0  0  0  0  0  0
    3.3074    1.5607    1.2900 C   0  0  0  0  0  0  0  0  0  0  0  0
    4.2042    2.2955    1.7863 O   0  0  0  0  0  0  0  0  0  0  0  0
    3.3109    0.1855    0.9727 N   0  0  0  0  0  0  0  0  0  0  0  0
    4.4245   -0.7133    1.1665 C   0  0  0  0  0  0  0  0  0  0  0  0
    5.3515   -0.8158    0.0016 C   0  0  0  0  0  0  0  0  0  0  0  0
    6.0034    0.4809   -0.3857 C   0  0  0  0  0  0  0  0  0  0  0  0
    6.7536    0.9589    0.6901 O   0  0  0  0  0  0  0  0  0  0  0  0
    6.9712    0.2396   -1.5200 C   0  0  0  0  0  0  0  0  0  0  0  0
    7.5494    1.4752   -1.8414 F   0  0  0  0  0  0  0  0  0  0  0  0
   -5.6994    2.1368   -2.0378 H   0  0  0  0  0  0  0  0  0  0  0  0
   -6.8886    1.0934   -1.1723 H   0  0  0  0  0  0  0  0  0  0  0  0
   -5.3716    1.5586   -0.3539 H   0  0  0  0  0  0  0  0  0  0  0  0
   -4.7204   -1.6871   -2.2817 H   0  0  0  0  0  0  0  0  0  0  0  0
   -6.2054   -1.3735   -1.3949 H   0  0  0  0  0  0  0  0  0  0  0  0
   -4.4604   -2.4476   -0.0319 H   0  0  0  0  0  0  0  0  0  0  0  0
   -6.2904   -0.2683    0.6692 H   0  0  0  0  0  0  0  0  0  0  0  0
   -5.7726   -1.7752    1.5608 H   0  0  0  0  0  0  0  0  0  0  0  0
   -4.2961   -0.5415    2.8161 H   0  0  0  0  0  0  0  0  0  0  0  0
   -5.0151    0.9758    2.0677 H   0  0  0  0  0  0  0  0  0  0  0  0
   -3.2490    1.1696    0.6684 H   0  0  0  0  0  0  0  0  0  0  0  0
   -2.3761    0.0650    1.8297 H   0  0  0  0  0  0  0  0  0  0  0  0
   -0.1101   -2.3227   -0.8506 H   0  0  0  0  0  0  0  0  0  0  0  0
    2.1397   -2.2110   -0.0077 H   0  0  0  0  0  0  0  0  0  0  0  0
   -0.7156    1.8228   -0.1104 H   0  0  0  0  0  0  0  0  0  0  0  0
    5.0425   -0.4170    2.0506 H   0  0  0  0  0  0  0  0  0  0  0  0
    4.0450   -1.7328    1.4216 H   0  0  0  0  0  0  0  0  0  0  0  0
    6.1833   -1.5029    0.3181 H   0  0  0  0  0  0  0  0  0  0  0  0
    4.8915   -1.3166   -0.8775 H   0  0  0  0  0  0  0  0  0  0  0  0
    5.2571    1.2256   -0.7164 H   0  0  0  0  0  0  0  0  0  0  0  0
    7.2993    1.7366    0.3477 H   0  0  0  0  0  0  0  0  0  0  0  0
    6.4971   -0.2166   -2.4074 H   0  0  0  0  0  0  0  0  0  0  0  0
    7.8087   -0.4220   -1.2179 H   0  0  0  0  0  0  0  0  0  0  0  0
  1  2  1  0
  2  3  1  0
  3  4  1  0
  4  5  1  0
  5  6  1  0
  6  7  1  0
  7  8  1  0
  8  9  1  0
  9 10  2  0
  9 11  2  0
  9 12  1  0
 12 13  2  0
 13 14  1  0
 14 15  2  0
 15 16  1  0
 16 17  2  0
 16 18  1  0
 18 19  2  0
 18 20  1  0
 20 21  2  0
 20 22  1  0
 22 23  1  0
 23 24  1  0
 24 25  1  0
 25 26  1  0
 25 27  1  0
 27 28  1  0
  8  4  1  0
 17 12  1  0
 22 15  1  0
  1 29  1  0
  1 30  1  0
  1 31  1  0
  3 32  1  0
  3 33  1  0
  4 34  1  1
  5 35  1  0
  5 36  1  0
  6 37  1  0
  6 38  1  0
  7 39  1  0
  7 40  1  0
 13 41  1  0
 14 42  1  0
 17 43  1  0
 23 44  1  0
 23 45  1  0
 24 46  1  0
 24 47  1  0
 25 48  1  0
 26 49  1  0
 27 50  1  0
 27 51  1  0
M  END
$$$$
