
     RDKit          3D

 48 51  0  0  0  0  0  0  0  0999 V2000
    7.8244   -1.9115   -0.4670 C   0  0  0  0  0  0  0  0  0  0  0  0
    6.9787   -2.2440    0.6144 O   0  0  0  0  0  0  0  0  0  0  0  0
    5.7214   -1.6268    0.6782 C   0  0  0  0  0  0  0  0  0  0  0  0
    4.8366   -1.8930    1.6962 C   0  0  0  0  0  0  0  0  0  0  0  0
    3.6514   -1.2884    1.7226 N   0  0  0  0  0  0  0  0  0  0  0  0
    3.2607   -0.3914    0.7609 C   0  0  0  0  0  0  0  0  0  0  0  0
    1.9719    0.2182    0.9292 C   0  0  0  0  0  0  0  0  0  0  0  0
    1.4842    0.3453    2.1222 O   0  0  0  0  0  0  0  0  0  0  0  0
    1.1850    0.6882   -0.1234 N   0  0  0  0  0  0  0  0  0  0  0  0
   -0.0839    1.2893    0.1767 C   0  0  0  0  0  0  0  0  0  0  0  0
   -0.1770    2.6421    0.4055 C   0  0  0  0  0  0  0  0  0  0  0  0
   -1.3817    3.2301    0.6930 C   0  0  0  0  0  0  0  0  0  0  0  0
   -2.5625    2.4910    0.7670 C   0  0  0  0  0  0  0  0  0  0  0  0
   -3.7453    3.1195    1.0465 F   0  0  0  0  0  0  0  0  0  0  0  0
   -2.4522    1.1408    0.5363 C   0  0  0  0  0  0  0  0  0  0  0  0
   -3.6719    0.2834    0.6057 C   0  0  1  0  0  0  0  0  0  0  0  0
   -4.2153    0.4074    2.0289 C   0  0  0  0  0  0  0  0  0  0  0  0
   -3.2752   -0.0164    2.9410 F   0  0  0  0  0  0  0  0  0  0  0  0
   -5.3054   -0.4493    2.1625 F   0  0  0  0  0  0  0  0  0  0  0  0
   -4.6276    0.7309   -0.3504 N   0  0  0  0  0  0  0  0  0  0  0  0
   -4.7682    0.2762   -1.5183 C   0  0  0  0  0  0  0  0  0  0  0  0
   -5.7375    0.7534   -2.4490 N   0  0  0  0  0  0  0  0  0  0  0  0
   -3.9196   -0.7610   -1.9224 O   0  0  0  0  0  0  0  0  0  0  0  0
   -3.5386   -1.7100   -0.9419 C   0  0  2  0  0  0  0  0  0  0  0  0
   -4.5096   -2.0966    0.1324 C   0  0  0  0  0  0  0  0  0  0  0  0
   -3.3489   -1.1613    0.3980 C   0  0  2  0  0  0  0  0  0  0  0  0
   -1.2404    0.5363    0.2447 C   0  0  0  0  0  0  0  0  0  0  0  0
    4.1176   -0.1190   -0.2409 C   0  0  0  0  0  0  0  0  0  0  0  0
    3.8713    0.8768   -1.3325 C   0  0  0  0  0  0  0  0  0  0  0  0
    5.3286   -0.7516   -0.2495 N   0  0  0  0  0  0  0  0  0  0  0  0
    7.8369   -0.7980   -0.6156 H   0  0  0  0  0  0  0  0  0  0  0  0
    8.8582   -2.2855   -0.2859 H   0  0  0  0  0  0  0  0  0  0  0  0
    7.3774   -2.3371   -1.3921 H   0  0  0  0  0  0  0  0  0  0  0  0
    5.1651   -2.6048    2.4458 H   0  0  0  0  0  0  0  0  0  0  0  0
    1.4116    0.6218   -1.1318 H   0  0  0  0  0  0  0  0  0  0  0  0
    0.7489    3.2321    0.3492 H   0  0  0  0  0  0  0  0  0  0  0  0
   -1.4343    4.2908    0.8690 H   0  0  0  0  0  0  0  0  0  0  0  0
   -4.5147    1.4313    2.2979 H   0  0  0  0  0  0  0  0  0  0  0  0
   -5.4555    1.4521   -3.1464 H   0  0  0  0  0  0  0  0  0  0  0  0
   -6.7008    0.3975   -2.4145 H   0  0  0  0  0  0  0  0  0  0  0  0
   -2.9119   -2.5153   -1.3368 H   0  0  0  0  0  0  0  0  0  0  0  0
   -4.4559   -3.1382    0.5241 H   0  0  0  0  0  0  0  0  0  0  0  0
   -5.5359   -1.6741    0.0800 H   0  0  0  0  0  0  0  0  0  0  0  0
   -2.5397   -1.6265    1.0314 H   0  0  0  0  0  0  0  0  0  0  0  0
   -1.1573   -0.5444    0.0574 H   0  0  0  0  0  0  0  0  0  0  0  0
    3.3879    0.4713   -2.2090 H   0  0  0  0  0  0  0  0  0  0  0  0
    4.9024    1.2804   -1.5908 H   0  0  0  0  0  0  0  0  0  0  0  0
    3.3466    1.7383   -0.9356 H   0  0  0  0  0  0  0  0  0  0  0  0
  1  2  1  0
  2  3  1  0
  3  4  2  0
  4  5  1  0
  5  6  2  0
  6  7  1  0
  7  8  2  0
  7  9  1  0
  9 10  1  0
 10 11  2  0
 11 12  1  0
 12 13  2  0
 13 14  1  0
 13 15  1  0
 15 16  1  0
 16 17  1  1
 17 18  1  0
 17 19  1  0
 16 20  1  0
 20 21  2  0
 21 22  1  0
 21 23  1  0
 23 24  1  0
 24 25  1  0
 25 26  1  0
 15 27  2  0
  6 28  1  0
 28 29  1  0
 28 30  2  0
 30  3  1  0
 27 10  1  0
 26 16  1  0
 26 24  1  0
  1 31  1  0
  1 32  1  0
  1 33  1  0
  4 34  1  0
  9 35  1  0
 11 36  1  0
 12 37  1  0
 17 38  1  0
 22 39  1  0
 22 40  1  0
 24 41  1  6
 25 42  1  0
 25 43  1  0
 26 44  1  1
 27 45  1  0
 29 46  1  0
 29 47  1  0
 29 48  1  0
M  END
$$$$
