
     RDKit          3D

 36 38  0  0  0  0  0  0  0  0999 V2000
    6.1444   -0.9017    0.3055 C   0  0  0  0  0  0  0  0  0  0  0  0
    4.8585   -1.4434   -0.2532 C   0  0  0  0  0  0  0  0  0  0  0  0
    3.7980   -0.5599    0.0846 O   0  0  0  0  0  0  0  0  0  0  0  0
    2.4893   -0.7409   -0.2616 C   0  0  0  0  0  0  0  0  0  0  0  0
    2.4216   -1.8086   -0.9150 O   0  0  0  0  0  0  0  0  0  0  0  0
    1.4153    0.1747    0.0931 C   0  0  0  0  0  0  0  0  0  0  0  0
    0.0776    0.0583   -0.2185 C   0  0  0  0  0  0  0  0  0  0  0  0
   -0.5574   -1.0166   -0.9721 C   0  0  0  0  0  0  0  0  0  0  0  0
   -1.8214   -1.4808   -0.4503 N   0  0  0  0  0  0  0  0  0  0  0  0
   -2.0533   -2.9303   -0.3649 C   0  0  0  0  0  0  0  0  0  0  0  0
   -2.9604   -0.7610    0.0284 C   0  0  0  0  0  0  0  0  0  0  0  0
   -4.0428   -1.3161    0.3415 O   0  0  0  0  0  0  0  0  0  0  0  0
   -2.9553    0.7065    0.1944 C   0  0  0  0  0  0  0  0  0  0  0  0
   -1.8557    1.5585    0.3270 C   0  0  0  0  0  0  0  0  0  0  0  0
   -1.9533    2.9182    0.4725 C   0  0  0  0  0  0  0  0  0  0  0  0
   -3.2414    3.4206    0.4821 C   0  0  0  0  0  0  0  0  0  0  0  0
   -4.3630    2.6257    0.3552 C   0  0  0  0  0  0  0  0  0  0  0  0
   -5.6319    3.0888    0.3612 F   0  0  0  0  0  0  0  0  0  0  0  0
   -4.2413    1.2524    0.2088 C   0  0  0  0  0  0  0  0  0  0  0  0
   -0.4914    1.1582    0.3355 N   0  0  0  0  0  0  0  0  0  0  0  0
    0.4319    1.9146    0.9549 C   0  0  0  0  0  0  0  0  0  0  0  0
    1.6383    1.2946    0.8027 N   0  0  0  0  0  0  0  0  0  0  0  0
    6.8828   -1.6806    0.5706 H   0  0  0  0  0  0  0  0  0  0  0  0
    6.6488   -0.2117   -0.4242 H   0  0  0  0  0  0  0  0  0  0  0  0
    5.9508   -0.2570    1.2029 H   0  0  0  0  0  0  0  0  0  0  0  0
    4.9750   -1.5026   -1.3508 H   0  0  0  0  0  0  0  0  0  0  0  0
    4.6685   -2.4694    0.1347 H   0  0  0  0  0  0  0  0  0  0  0  0
   -0.6893   -0.7746   -2.0634 H   0  0  0  0  0  0  0  0  0  0  0  0
    0.1044   -1.9075   -0.9692 H   0  0  0  0  0  0  0  0  0  0  0  0
   -1.1507   -3.5081   -0.6436 H   0  0  0  0  0  0  0  0  0  0  0  0
   -2.3858   -3.1224    0.6803 H   0  0  0  0  0  0  0  0  0  0  0  0
   -2.8849   -3.2316   -1.0333 H   0  0  0  0  0  0  0  0  0  0  0  0
   -1.1550    3.6066    0.5717 H   0  0  0  0  0  0  0  0  0  0  0  0
   -3.4423    4.4822    0.5914 H   0  0  0  0  0  0  0  0  0  0  0  0
   -5.0293    0.5236    0.1009 H   0  0  0  0  0  0  0  0  0  0  0  0
    0.4006    2.8413    1.5070 H   0  0  0  0  0  0  0  0  0  0  0  0
  1  2  1  0
  2  3  1  0
  3  4  1  0
  4  5  2  0
  4  6  1  0
  6  7  2  0
  7  8  1  0
  8  9  1  0
  9 10  1  0
  9 11  1  0
 11 12  2  0
 11 13  1  0
 13 14  2  0
 14 15  1  0
 15 16  2  0
 16 17  1  0
 17 18  1  0
 17 19  2  0
 14 20  1  0
 20 21  1  0
 21 22  2  0
 22  6  1  0
 20  7  1  0
 19 13  1  0
  1 23  1  0
  1 24  1  0
  1 25  1  0
  2 26  1  0
  2 27  1  0
  8 28  1  0
  8 29  1  0
 10 30  1  0
 10 31  1  0
 10 32  1  0
 15 33  1  0
 16 34  1  0
 19 35  1  0
 21 36  1  0
M  END
$$$$
