
     RDKit          3D

 40 43  0  0  0  0  0  0  0  0999 V2000
   -3.7230   -2.3721   -0.6281 C   0  0  0  0  0  0  0  0  0  0  0  0
   -2.7986   -1.3355   -0.1592 N   0  0  0  0  0  0  0  0  0  0  0  0
   -2.2509   -0.3042   -0.9689 C   0  0  0  0  0  0  0  0  0  0  0  0
   -2.4927   -0.1506   -2.2040 O   0  0  0  0  0  0  0  0  0  0  0  0
   -1.3842    0.4934   -0.0706 C   0  0  0  0  0  0  0  0  0  0  0  0
   -1.9354    1.8945    0.0932 C   0  0  0  0  0  0  0  0  0  0  0  0
   -2.6241    2.5585   -0.8295 C   0  0  0  0  0  0  0  0  0  0  0  0
   -3.0768    3.8134   -0.6046 C   0  0  0  0  0  0  0  0  0  0  0  0
   -2.4693    4.1217    1.1174 S   0  0  0  0  0  0  0  0  0  0  0  0
   -1.7080    2.5601    1.2968 C   0  0  0  0  0  0  0  0  0  0  0  0
    0.0168    0.5317   -0.5238 C   0  0  0  0  0  0  0  0  0  0  0  0
    0.3072    1.1046   -1.7375 C   0  0  0  0  0  0  0  0  0  0  0  0
    1.6294    1.1174   -2.1212 C   0  0  0  0  0  0  0  0  0  0  0  0
    2.6264    0.5835   -1.3342 C   0  0  0  0  0  0  0  0  0  0  0  0
    2.3452    0.0031   -0.1084 C   0  0  0  0  0  0  0  0  0  0  0  0
    3.4184   -0.5627    0.7191 C   0  0  0  0  0  0  0  0  0  0  0  0
    3.2140   -1.1519    1.9392 C   0  0  0  0  0  0  0  0  0  0  0  0
    4.2526   -1.6616    2.6643 N   0  0  0  0  0  0  0  0  0  0  0  0
    5.5118   -1.5980    2.1961 C   0  0  0  0  0  0  0  0  0  0  0  0
    5.7029   -1.0023    0.9667 C   0  0  0  0  0  0  0  0  0  0  0  0
    4.6758   -0.5017    0.2570 N   0  0  0  0  0  0  0  0  0  0  0  0
    1.0224   -0.0101    0.2765 C   0  0  0  0  0  0  0  0  0  0  0  0
   -1.5112   -0.1612    1.1938 N   0  0  0  0  0  0  0  0  0  0  0  0
   -2.2954   -1.1795    1.1574 C   0  0  0  0  0  0  0  0  0  0  0  0
   -2.6376   -2.0500    2.2491 N   0  0  0  0  0  0  0  0  0  0  0  0
   -4.2121   -1.9955   -1.5418 H   0  0  0  0  0  0  0  0  0  0  0  0
   -4.4370   -2.6270    0.1739 H   0  0  0  0  0  0  0  0  0  0  0  0
   -3.1714   -3.2952   -0.9133 H   0  0  0  0  0  0  0  0  0  0  0  0
   -2.8597    2.1041   -1.8391 H   0  0  0  0  0  0  0  0  0  0  0  0
   -3.6391    4.5487   -1.1612 H   0  0  0  0  0  0  0  0  0  0  0  0
   -1.1589    2.1815    2.1848 H   0  0  0  0  0  0  0  0  0  0  0  0
   -0.4234    1.5402   -2.4022 H   0  0  0  0  0  0  0  0  0  0  0  0
    1.9017    1.5626   -3.0763 H   0  0  0  0  0  0  0  0  0  0  0  0
    3.6622    0.6060   -1.6596 H   0  0  0  0  0  0  0  0  0  0  0  0
    2.2348   -1.2229    2.3459 H   0  0  0  0  0  0  0  0  0  0  0  0
    6.3173   -2.0115    2.7938 H   0  0  0  0  0  0  0  0  0  0  0  0
    6.7189   -0.9574    0.6019 H   0  0  0  0  0  0  0  0  0  0  0  0
    0.7463   -0.4501    1.2226 H   0  0  0  0  0  0  0  0  0  0  0  0
   -1.9542   -2.1779    3.0119 H   0  0  0  0  0  0  0  0  0  0  0  0
   -3.5410   -2.5462    2.2900 H   0  0  0  0  0  0  0  0  0  0  0  0
  1  2  1  0
  2  3  1  0
  3  4  2  0
  3  5  1  0
  5  6  1  0
  6  7  1  0
  7  8  2  0
  8  9  1  0
  9 10  1  0
  5 11  1  0
 11 12  2  0
 12 13  1  0
 13 14  2  0
 14 15  1  0
 15 16  1  0
 16 17  2  0
 17 18  1  0
 18 19  2  0
 19 20  1  0
 20 21  2  0
 15 22  2  0
  5 23  1  0
 23 24  2  0
 24 25  1  0
 24  2  1  0
 10  6  2  0
 22 11  1  0
 21 16  1  0
  1 26  1  0
  1 27  1  0
  1 28  1  0
  7 29  1  0
  8 30  1  0
 10 31  1  0
 12 32  1  0
 13 33  1  0
 14 34  1  0
 17 35  1  0
 19 36  1  0
 20 37  1  0
 22 38  1  0
 25 39  1  0
 25 40  1  0
M  END
$$$$
