
     RDKit          3D

 68 72  0  0  0  0  0  0  0  0999 V2000
   -7.1789   -0.2682   -2.5160 C   0  0  0  0  0  0  0  0  0  0  0  0
   -6.8167   -0.5863   -1.0589 C   0  0  0  0  0  0  0  0  0  0  0  0
   -7.5846   -1.8739   -0.7286 C   0  0  0  0  0  0  0  0  0  0  0  0
   -5.3722   -0.9256   -1.0053 C   0  0  0  0  0  0  0  0  0  0  0  0
   -4.6644   -0.0981    0.0266 C   0  0  0  0  0  0  0  0  0  0  0  0
   -3.3597   -0.7176    0.2270 N   0  0  0  0  0  0  0  0  0  0  0  0
   -2.1436   -0.0325    0.0699 C   0  0  0  0  0  0  0  0  0  0  0  0
   -2.2278    1.1974   -0.2680 O   0  0  0  0  0  0  0  0  0  0  0  0
   -0.8278   -0.6066    0.2588 C   0  0  0  0  0  0  0  0  0  0  0  0
   -0.7232   -1.9255    0.6337 C   0  0  0  0  0  0  0  0  0  0  0  0
    0.5307   -2.5181    0.8252 C   0  0  0  0  0  0  0  0  0  0  0  0
    1.6700   -1.7643    0.6341 C   0  0  0  0  0  0  0  0  0  0  0  0
    1.5882   -0.4437    0.2592 C   0  0  0  0  0  0  0  0  0  0  0  0
    2.7895    0.3708    0.0511 C   0  0  0  0  0  0  0  0  0  0  0  0
    2.8078    1.6945   -0.3252 C   0  0  0  0  0  0  0  0  0  0  0  0
    4.1335    2.0594   -0.4050 C   0  0  0  0  0  0  0  0  0  0  0  0
    4.6735    3.2485   -0.7345 N   0  0  0  0  0  0  0  0  0  0  0  0
    6.0014    3.4201   -0.7596 C   0  0  0  0  0  0  0  0  0  0  0  0
    6.7844    2.3047   -0.4276 C   0  0  0  0  0  0  0  0  0  0  0  0
    6.2438    1.1064   -0.0962 C   0  0  0  0  0  0  0  0  0  0  0  0
    7.0337   -0.0136    0.2155 N   0  0  0  0  0  0  0  0  0  0  0  0
    8.4265   -0.1446    0.0666 C   0  0  0  0  0  0  0  0  0  0  0  0
    9.0889    0.3153   -1.0388 C   0  0  0  0  0  0  0  0  0  0  0  0
   10.4738    0.2049   -1.1790 C   0  0  0  0  0  0  0  0  0  0  0  0
   11.2197   -0.3830   -0.1856 C   0  0  0  0  0  0  0  0  0  0  0  0
   10.5631   -0.8503    0.9313 C   0  0  0  0  0  0  0  0  0  0  0  0
   11.3496   -1.4385    1.9140 O   0  0  0  0  0  0  0  0  0  0  0  0
    9.1918   -0.7419    1.0727 C   0  0  0  0  0  0  0  0  0  0  0  0
    4.8878    0.9944   -0.0882 N   0  0  0  0  0  0  0  0  0  0  0  0
    4.0718   -0.0041    0.1812 N   0  0  0  0  0  0  0  0  0  0  0  0
    0.3368    0.0997    0.0815 C   0  0  0  0  0  0  0  0  0  0  0  0
   -5.4793   -0.1467    1.3003 C   0  0  0  0  0  0  0  0  0  0  0  0
   -6.8326    0.4587    1.1132 C   0  0  0  0  0  0  0  0  0  0  0  0
   -7.8867   -0.1802    1.9826 C   0  0  0  0  0  0  0  0  0  0  0  0
   -6.7319    1.9190    1.5790 C   0  0  0  0  0  0  0  0  0  0  0  0
   -7.2488    0.5098   -0.2650 N   0  0  0  0  0  0  0  0  0  0  0  0
   -7.1333    1.7079   -0.8349 O   0  0  0  0  0  1  0  0  0  0  0  0
   -7.5299   -1.1770   -3.0461 H   0  0  0  0  0  0  0  0  0  0  0  0
   -6.2737    0.0836   -3.0728 H   0  0  0  0  0  0  0  0  0  0  0  0
   -7.9097    0.5460   -2.5823 H   0  0  0  0  0  0  0  0  0  0  0  0
   -8.6155   -1.6796   -0.4335 H   0  0  0  0  0  0  0  0  0  0  0  0
   -7.6452   -2.5180   -1.6548 H   0  0  0  0  0  0  0  0  0  0  0  0
   -7.0333   -2.4882    0.0116 H   0  0  0  0  0  0  0  0  0  0  0  0
   -4.9012   -0.7625   -2.0135 H   0  0  0  0  0  0  0  0  0  0  0  0
   -5.1706   -1.9918   -0.7725 H   0  0  0  0  0  0  0  0  0  0  0  0
   -4.5358    0.9586   -0.2567 H   0  0  0  0  0  0  0  0  0  0  0  0
   -3.3497   -1.7207    0.5003 H   0  0  0  0  0  0  0  0  0  0  0  0
   -1.5581   -2.5897    0.8060 H   0  0  0  0  0  0  0  0  0  0  0  0
    0.6383   -3.5396    1.1159 H   0  0  0  0  0  0  0  0  0  0  0  0
    2.6660   -2.1916    0.7747 H   0  0  0  0  0  0  0  0  0  0  0  0
    1.9318    2.3064   -0.5148 H   0  0  0  0  0  0  0  0  0  0  0  0
    6.4635    4.3669   -1.0219 H   0  0  0  0  0  0  0  0  0  0  0  0
    7.8492    2.4896   -0.4453 H   0  0  0  0  0  0  0  0  0  0  0  0
    6.5379   -0.8725    0.6125 H   0  0  0  0  0  0  0  0  0  0  0  0
    8.4945    0.7690   -1.8409 H   0  0  0  0  0  0  0  0  0  0  0  0
   10.9465    0.5883   -2.0788 H   0  0  0  0  0  0  0  0  0  0  0  0
   12.3137   -0.4838   -0.2692 H   0  0  0  0  0  0  0  0  0  0  0  0
   11.3893   -0.9923    2.8110 H   0  0  0  0  0  0  0  0  0  0  0  0
    8.6882   -1.1093    1.9487 H   0  0  0  0  0  0  0  0  0  0  0  0
    0.2285    1.1490   -0.2177 H   0  0  0  0  0  0  0  0  0  0  0  0
   -4.8954    0.3238    2.1318 H   0  0  0  0  0  0  0  0  0  0  0  0
   -5.6066   -1.2146    1.5690 H   0  0  0  0  0  0  0  0  0  0  0  0
   -7.9837   -1.2649    1.8438 H   0  0  0  0  0  0  0  0  0  0  0  0
   -8.8749    0.2612    1.7390 H   0  0  0  0  0  0  0  0  0  0  0  0
   -7.6327    0.0441    3.0400 H   0  0  0  0  0  0  0  0  0  0  0  0
   -6.1369    2.0147    2.4999 H   0  0  0  0  0  0  0  0  0  0  0  0
   -6.3554    2.5110    0.7361 H   0  0  0  0  0  0  0  0  0  0  0  0
   -7.7937    2.2354    1.7337 H   0  0  0  0  0  0  0  0  0  0  0  0
  1  2  1  0
  2  3  1  0
  2  4  1  0
  4  5  1  0
  5  6  1  0
  6  7  1  0
  7  8  2  0
  7  9  1  0
  9 10  2  0
 10 11  1  0
 11 12  2  0
 12 13  1  0
 13 14  1  0
 14 15  1  0
 15 16  2  0
 16 17  1  0
 17 18  2  0
 18 19  1  0
 19 20  2  0
 20 21  1  0
 21 22  1  0
 22 23  2  0
 23 24  1  0
 24 25  2  0
 25 26  1  0
 26 27  1  0
 26 28  2  0
 20 29  1  0
 29 30  1  0
 13 31  2  0
  5 32  1  0
 32 33  1  0
 33 34  1  0
 33 35  1  0
 33 36  1  0
 36 37  1  0
 36  2  1  0
 31  9  1  0
 30 14  2  0
 29 16  1  0
 28 22  1  0
  1 38  1  0
  1 39  1  0
  1 40  1  0
  3 41  1  0
  3 42  1  0
  3 43  1  0
  4 44  1  0
  4 45  1  0
  5 46  1  0
  6 47  1  0
 10 48  1  0
 11 49  1  0
 12 50  1  0
 15 51  1  0
 18 52  1  0
 19 53  1  0
 21 54  1  0
 23 55  1  0
 24 56  1  0
 25 57  1  0
 27 58  1  0
 28 59  1  0
 31 60  1  0
 32 61  1  0
 32 62  1  0
 34 63  1  0
 34 64  1  0
 34 65  1  0
 35 66  1  0
 35 67  1  0
 35 68  1  0
M  RAD  1  37   2
M  END
$$$$
