
     RDKit          3D

 44 47  0  0  0  0  0  0  0  0999 V2000
   -3.7216   -0.7842    1.3723 C   0  0  0  0  0  0  0  0  0  0  0  0
   -3.0081   -0.4735    0.0790 C   0  0  1  0  0  0  0  0  0  0  0  0
   -1.7715    0.2875    0.4130 C   0  0  0  0  0  0  0  0  0  0  0  0
   -0.5345   -0.1578    0.0283 C   0  0  0  0  0  0  0  0  0  0  0  0
    0.6526    0.5270    0.3096 C   0  0  0  0  0  0  0  0  0  0  0  0
    1.9483   -0.0382   -0.1630 C   0  0  0  0  0  0  0  0  0  0  0  0
    3.0223    0.7433    0.4441 N   0  0  0  0  0  0  0  0  0  0  0  0
    4.2587    0.4705    0.0302 C   0  0  0  0  0  0  0  0  0  0  0  0
    5.0103   -0.8313    0.1838 C   0  0  0  0  0  0  0  0  0  0  0  0
    5.9234    0.0210   -0.6622 C   0  0  0  0  0  0  0  0  0  0  0  0
    4.6712    0.3747   -1.4255 C   0  0  0  0  0  0  0  0  0  0  0  0
    5.5384    1.1582    0.2511 C   0  0  0  0  0  0  0  0  0  0  0  0
    0.5333    1.7048    1.0102 C   0  0  0  0  0  0  0  0  0  0  0  0
    1.6341    2.4453    1.3174 F   0  0  0  0  0  0  0  0  0  0  0  0
   -0.6801    2.1923    1.4181 C   0  0  0  0  0  0  0  0  0  0  0  0
   -1.8375    1.4730    1.1137 C   0  0  0  0  0  0  0  0  0  0  0  0
   -3.0611    1.9069    1.4887 F   0  0  0  0  0  0  0  0  0  0  0  0
   -2.7083   -1.7087   -0.7069 C   0  0  0  0  0  0  0  0  0  0  0  0
   -3.9383   -2.5487   -0.8669 C   0  0  0  0  0  0  0  0  0  0  0  0
   -5.4139   -1.5599   -1.2498 S   0  0  0  0  0  0  0  0  0  0  0  0
   -4.8574    0.1363   -1.3720 C   0  0  0  0  0  0  0  0  0  0  0  0
   -5.5100    1.1206   -2.1132 N   0  0  0  0  0  0  0  0  0  0  0  0
   -3.8020    0.4318   -0.7354 N   0  0  0  0  0  0  0  0  0  0  0  0
   -3.1793   -0.2946    2.2007 H   0  0  0  0  0  0  0  0  0  0  0  0
   -3.7626   -1.8721    1.5513 H   0  0  0  0  0  0  0  0  0  0  0  0
   -4.7620   -0.3938    1.3771 H   0  0  0  0  0  0  0  0  0  0  0  0
   -0.4035   -1.0942   -0.5340 H   0  0  0  0  0  0  0  0  0  0  0  0
    2.0799   -1.0837    0.1831 H   0  0  0  0  0  0  0  0  0  0  0  0
    2.0438    0.0530   -1.2634 H   0  0  0  0  0  0  0  0  0  0  0  0
    2.9578    0.6727    1.5006 H   0  0  0  0  0  0  0  0  0  0  0  0
    5.3849   -1.0519    1.2043 H   0  0  0  0  0  0  0  0  0  0  0  0
    4.5195   -1.6515   -0.3566 H   0  0  0  0  0  0  0  0  0  0  0  0
    6.8191   -0.2011   -1.0380 H   0  0  0  0  0  0  0  0  0  0  0  0
    4.7797    1.3340   -1.9370 H   0  0  0  0  0  0  0  0  0  0  0  0
    4.1759   -0.4491   -1.9663 H   0  0  0  0  0  0  0  0  0  0  0  0
    5.9913    1.1298    1.2502 H   0  0  0  0  0  0  0  0  0  0  0  0
    5.6038    2.1232   -0.2883 H   0  0  0  0  0  0  0  0  0  0  0  0
   -0.7773    3.1304    1.9794 H   0  0  0  0  0  0  0  0  0  0  0  0
   -2.3540   -1.4372   -1.7137 H   0  0  0  0  0  0  0  0  0  0  0  0
   -1.9429   -2.3577   -0.2316 H   0  0  0  0  0  0  0  0  0  0  0  0
   -4.1780   -3.1459    0.0242 H   0  0  0  0  0  0  0  0  0  0  0  0
   -3.8312   -3.2833   -1.7017 H   0  0  0  0  0  0  0  0  0  0  0  0
   -5.2656    1.2819   -3.1040 H   0  0  0  0  0  0  0  0  0  0  0  0
   -6.2476    1.7001   -1.6799 H   0  0  0  0  0  0  0  0  0  0  0  0
  2  1  1  1
  2  3  1  0
  3  4  2  0
  4  5  1  0
  5  6  1  0
  6  7  1  0
  7  8  1  0
  8  9  1  0
  9 10  1  0
 10 11  1  0
 10 12  1  0
  5 13  2  0
 13 14  1  0
 13 15  1  0
 15 16  2  0
 16 17  1  0
  2 18  1  0
 18 19  1  0
 19 20  1  0
 20 21  1  0
 21 22  1  0
 21 23  2  0
 23  2  1  0
 16  3  1  0
 11  8  1  0
 12  8  1  0
  1 24  1  0
  1 25  1  0
  1 26  1  0
  4 27  1  0
  6 28  1  0
  6 29  1  0
  7 30  1  0
  9 31  1  0
  9 32  1  0
 10 33  1  0
 11 34  1  0
 11 35  1  0
 12 36  1  0
 12 37  1  0
 15 38  1  0
 18 39  1  0
 18 40  1  0
 19 41  1  0
 19 42  1  0
 22 43  1  0
 22 44  1  0
M  END
$$$$
