
     RDKit          3D

 55 60  0  0  0  0  0  0  0  0999 V2000
   -0.1781   -2.1048    3.0251 C   0  0  0  0  0  0  0  0  0  0  0  0
    0.1507   -0.6425    2.8013 C   0  0  2  0  0  0  0  0  0  0  0  0
   -1.0707    0.0762    2.4071 C   0  0  0  0  0  0  0  0  0  0  0  0
   -1.9907    0.8188    3.0967 N   0  0  0  0  0  0  0  0  0  0  0  0
   -2.9257    1.2210    2.2596 N   0  0  0  0  0  0  0  0  0  0  0  0
   -2.6090    0.7408    1.0373 C   0  0  0  0  0  0  0  0  0  0  0  0
   -3.4174    0.9418   -0.2003 C   0  0  0  0  0  0  0  0  0  0  0  0
   -2.8946    1.4859   -1.3110 C   0  0  0  0  0  0  0  0  0  0  0  0
   -4.3373    1.5038   -2.4775 S   0  0  0  0  0  0  0  0  0  0  0  0
   -5.4344    0.7239   -1.1587 C   0  0  0  0  0  0  0  0  0  0  0  0
   -6.8802    0.4608   -1.5451 C   0  0  0  0  0  0  0  0  0  0  0  0
   -7.6835   -0.1373   -0.6030 C   0  0  0  0  0  0  0  0  0  0  0  0
   -9.0051   -0.4057   -0.8840 C   0  0  0  0  0  0  0  0  0  0  0  0
   -9.5434   -0.0736   -2.1282 C   0  0  0  0  0  0  0  0  0  0  0  0
  -10.8501   -0.3638   -2.3478 F   0  0  0  0  0  0  0  0  0  0  0  0
   -8.7125    0.5226   -3.0463 C   0  0  0  0  0  0  0  0  0  0  0  0
   -7.3646    0.8003   -2.7695 C   0  0  0  0  0  0  0  0  0  0  0  0
   -6.5870    1.3895   -3.7039 F   0  0  0  0  0  0  0  0  0  0  0  0
   -4.7049    0.6215   -0.3091 N   0  0  0  0  0  0  0  0  0  0  0  0
   -1.4795    0.0438    1.1196 N   0  0  0  0  0  0  0  0  0  0  0  0
   -0.6687   -0.6780    0.1566 C   0  0  0  0  0  0  0  0  0  0  0  0
    0.8168   -0.3554    0.4012 C   0  0  0  0  0  0  0  0  0  0  0  0
    1.1535   -0.4539    1.7811 N   0  0  0  0  0  0  0  0  0  0  0  0
    2.4919   -0.3770    2.2124 C   0  0  0  0  0  0  0  0  0  0  0  0
    2.7112   -0.4732    3.4800 O   0  0  0  0  0  0  0  0  0  0  0  0
    3.6710   -0.1969    1.3784 C   0  0  0  0  0  0  0  0  0  0  0  0
    4.0417    1.0441    0.9171 C   0  0  0  0  0  0  0  0  0  0  0  0
    5.2056    1.2199    0.1582 C   0  0  0  0  0  0  0  0  0  0  0  0
    6.0147    0.1536   -0.1486 C   0  0  0  0  0  0  0  0  0  0  0  0
    7.2455    0.3788   -0.9048 C   0  0  0  0  0  0  0  0  0  0  0  0
    8.1743   -0.4978   -1.3400 C   0  0  0  0  0  0  0  0  0  0  0  0
    9.2399   -0.0344   -2.0175 C   0  0  0  0  0  0  0  0  0  0  0  0
    9.3322    1.3202   -2.2347 C   0  0  0  0  0  0  0  0  0  0  0  0
    7.8517    1.9433   -1.4460 S   0  0  0  0  0  0  0  0  0  0  0  0
    5.6555   -1.0807    0.3028 C   0  0  0  0  0  0  0  0  0  0  0  0
    4.5054   -1.2610    1.0529 C   0  0  0  0  0  0  0  0  0  0  0  0
    0.1377   -2.4037    4.0486 H   0  0  0  0  0  0  0  0  0  0  0  0
   -1.2761   -2.2673    2.9775 H   0  0  0  0  0  0  0  0  0  0  0  0
    0.3703   -2.7725    2.3169 H   0  0  0  0  0  0  0  0  0  0  0  0
    0.4926   -0.2125    3.7814 H   0  0  0  0  0  0  0  0  0  0  0  0
   -1.8962    1.8761   -1.6194 H   0  0  0  0  0  0  0  0  0  0  0  0
   -7.3147   -0.4137    0.3768 H   0  0  0  0  0  0  0  0  0  0  0  0
   -9.6596   -0.8727   -0.1652 H   0  0  0  0  0  0  0  0  0  0  0  0
   -9.1220    0.7832   -4.0094 H   0  0  0  0  0  0  0  0  0  0  0  0
   -0.8996   -0.4194   -0.8895 H   0  0  0  0  0  0  0  0  0  0  0  0
   -0.7574   -1.7675    0.2655 H   0  0  0  0  0  0  0  0  0  0  0  0
    1.4684   -0.9933   -0.2131 H   0  0  0  0  0  0  0  0  0  0  0  0
    0.9370    0.6859   -0.0198 H   0  0  0  0  0  0  0  0  0  0  0  0
    3.3988    1.8725    1.1635 H   0  0  0  0  0  0  0  0  0  0  0  0
    5.4881    2.2064   -0.1986 H   0  0  0  0  0  0  0  0  0  0  0  0
    8.0146   -1.5920   -1.1181 H   0  0  0  0  0  0  0  0  0  0  0  0
   10.0554   -0.6849   -2.4140 H   0  0  0  0  0  0  0  0  0  0  0  0
   10.0960    1.9142   -2.7478 H   0  0  0  0  0  0  0  0  0  0  0  0
    6.2960   -1.9464    0.0612 H   0  0  0  0  0  0  0  0  0  0  0  0
    4.2462   -2.2418    1.3918 H   0  0  0  0  0  0  0  0  0  0  0  0
  1  2  1  0
  2  3  1  0
  3  4  2  0
  4  5  1  0
  5  6  2  0
  6  7  1  0
  7  8  2  0
  8  9  1  0
  9 10  1  0
 10 11  1  0
 11 12  2  0
 12 13  1  0
 13 14  2  0
 14 15  1  0
 14 16  1  0
 16 17  2  0
 17 18  1  0
 10 19  2  0
  6 20  1  0
 20 21  1  0
 21 22  1  0
 22 23  1  0
 23 24  1  0
 24 25  2  0
 24 26  1  0
 26 27  2  0
 27 28  1  0
 28 29  2  0
 29 30  1  0
 30 31  2  0
 31 32  1  0
 32 33  2  0
 33 34  1  0
 29 35  1  0
 35 36  2  0
 23  2  1  0
 36 26  1  0
 20  3  1  0
 34 30  1  0
 19  7  1  0
 17 11  1  0
  1 37  1  0
  1 38  1  0
  1 39  1  0
  2 40  1  1
  8 41  1  0
 12 42  1  0
 13 43  1  0
 16 44  1  0
 21 45  1  0
 21 46  1  0
 22 47  1  0
 22 48  1  0
 27 49  1  0
 28 50  1  0
 31 51  1  0
 32 52  1  0
 33 53  1  0
 35 54  1  0
 36 55  1  0
M  END
$$$$
