
     RDKit          3D

 36 39  0  0  0  0  0  0  0  0999 V2000
   -0.6819    3.1276    2.5457 C   0  0  0  0  0  0  0  0  0  0  0  0
   -0.4278    2.1873    1.5660 O   0  0  0  0  0  0  0  0  0  0  0  0
   -1.2882    1.3033    0.9594 C   0  0  0  0  0  0  0  0  0  0  0  0
   -2.6132    1.3024    1.3281 C   0  0  0  0  0  0  0  0  0  0  0  0
   -3.5207    0.4192    0.7320 C   0  0  0  0  0  0  0  0  0  0  0  0
   -4.8262    0.4180    1.0957 N   0  0  0  0  0  0  0  0  0  0  0  0
   -5.7332   -0.4139    0.5493 C   0  0  0  0  0  0  0  0  0  0  0  0
   -5.2988   -1.2911   -0.4150 C   0  0  0  0  0  0  0  0  0  0  0  0
   -3.9584   -1.3032   -0.8014 C   0  0  0  0  0  0  0  0  0  0  0  0
   -3.0428   -0.4430   -0.2307 C   0  0  0  0  0  0  0  0  0  0  0  0
   -1.6930   -0.4400   -0.6036 C   0  0  0  0  0  0  0  0  0  0  0  0
   -0.8168    0.4183   -0.0223 C   0  0  0  0  0  0  0  0  0  0  0  0
    0.5561    0.4871   -0.3175 N   0  0  0  0  0  0  0  0  0  0  0  0
    1.2540   -0.3176   -1.2434 C   0  0  0  0  0  0  0  0  0  0  0  0
    0.6798   -1.1916   -1.9082 O   0  0  0  0  0  0  0  0  0  0  0  0
    2.7489   -0.1038   -1.4250 C   0  0  0  0  0  0  0  0  0  0  0  0
    3.1156    1.0512   -2.0719 C   0  0  0  0  0  0  0  0  0  0  0  0
    4.9758    0.9107   -2.0777 S   0  0  0  0  0  0  0  0  0  0  0  0
    5.0315   -0.6953   -1.2034 C   0  0  0  0  0  0  0  0  0  0  0  0
    6.0570   -1.4998   -0.8090 C   0  0  0  0  0  0  0  0  0  0  0  0
    5.7797   -2.6703   -0.1568 N   0  0  0  0  0  0  0  0  0  0  0  0
    4.4811   -2.9408    0.0483 C   0  0  0  0  0  0  0  0  0  0  0  0
    3.4581   -2.1705   -0.3276 N   0  0  0  0  0  0  0  0  0  0  0  0
    3.6884   -0.9552   -1.0021 C   0  0  0  0  0  0  0  0  0  0  0  0
   -1.7389    3.4453    2.5053 H   0  0  0  0  0  0  0  0  0  0  0  0
   -0.3460    2.8193    3.5629 H   0  0  0  0  0  0  0  0  0  0  0  0
   -0.0205    4.0196    2.3043 H   0  0  0  0  0  0  0  0  0  0  0  0
   -3.0190    1.9615    2.0798 H   0  0  0  0  0  0  0  0  0  0  0  0
   -6.7641   -0.3699    0.8809 H   0  0  0  0  0  0  0  0  0  0  0  0
   -6.0120   -1.9650   -0.8641 H   0  0  0  0  0  0  0  0  0  0  0  0
   -3.6145   -1.9785   -1.5459 H   0  0  0  0  0  0  0  0  0  0  0  0
   -1.4348   -1.1554   -1.3655 H   0  0  0  0  0  0  0  0  0  0  0  0
    1.1865    1.2035    0.1760 H   0  0  0  0  0  0  0  0  0  0  0  0
    2.6027    1.8779   -2.4992 H   0  0  0  0  0  0  0  0  0  0  0  0
    7.0581   -1.1815   -1.0268 H   0  0  0  0  0  0  0  0  0  0  0  0
    4.1773   -3.8660    0.5680 H   0  0  0  0  0  0  0  0  0  0  0  0
  1  2  1  0
  2  3  1  0
  3  4  2  0
  4  5  1  0
  5  6  2  0
  6  7  1  0
  7  8  2  0
  8  9  1  0
  9 10  2  0
 10 11  1  0
 11 12  2  0
 12 13  1  0
 13 14  1  0
 14 15  2  0
 14 16  1  0
 16 17  2  0
 17 18  1  0
 18 19  1  0
 19 20  2  0
 20 21  1  0
 21 22  2  0
 22 23  1  0
 23 24  2  0
 12  3  1  0
 24 16  1  0
 10  5  1  0
 24 19  1  0
  1 25  1  0
  1 26  1  0
  1 27  1  0
  4 28  1  0
  7 29  1  0
  8 30  1  0
  9 31  1  0
 11 32  1  0
 13 33  1  0
 17 34  1  0
 20 35  1  0
 22 36  1  0
M  END
$$$$
