
     RDKit          3D

 55 59  0  0  0  0  0  0  0  0999 V2000
    2.5317    1.4222    3.5972 C   0  0  0  0  0  0  0  0  0  0  0  0
    2.3834    0.4143    2.4962 C   0  0  0  0  0  0  0  0  0  0  0  0
    3.2939   -0.5633    2.1969 N   0  0  0  0  0  0  0  0  0  0  0  0
    2.8429   -1.3071    1.1859 N   0  0  0  0  0  0  0  0  0  0  0  0
    3.5484   -2.4077    0.5986 C   0  0  0  0  0  0  0  0  0  0  0  0
    4.5246   -2.0518   -0.4617 C   0  0  2  0  0  0  0  0  0  0  0  0
    5.4928   -1.2017    0.0746 O   0  0  0  0  0  0  0  0  0  0  0  0
    3.8668   -1.4930   -1.6701 C   0  0  0  0  0  0  0  0  0  0  0  0
    4.8252   -1.1779   -2.6524 F   0  0  0  0  0  0  0  0  0  0  0  0
    3.1205   -0.3422   -1.3918 F   0  0  0  0  0  0  0  0  0  0  0  0
    3.0360   -2.4345   -2.2333 F   0  0  0  0  0  0  0  0  0  0  0  0
    1.6488   -0.8265    0.8283 C   0  0  0  0  0  0  0  0  0  0  0  0
    1.3446    0.2525    1.6242 C   0  0  0  0  0  0  0  0  0  0  0  0
    0.0652    0.8669    1.1105 C   0  0  1  0  0  0  0  0  0  0  0  0
    0.4838    1.9576    0.1559 C   0  0  0  0  0  0  0  0  0  0  0  0
   -0.3753    2.4054   -0.8190 C   0  0  0  0  0  0  0  0  0  0  0  0
   -0.0238    3.4184   -1.7298 C   0  0  0  0  0  0  0  0  0  0  0  0
    1.2134    4.0104   -1.6806 C   0  0  0  0  0  0  0  0  0  0  0  0
    1.6695    5.2779   -2.8106 Cl  0  0  0  0  0  0  0  0  0  0  0  0
    2.0736    3.5651   -0.7086 C   0  0  0  0  0  0  0  0  0  0  0  0
    1.7224    2.5535    0.2008 C   0  0  0  0  0  0  0  0  0  0  0  0
   -0.5860   -0.1965    0.4077 N   0  0  0  0  0  0  0  0  0  0  0  0
   -2.0089   -0.3496    0.1589 C   0  0  0  0  0  0  0  0  0  0  0  0
   -2.8986    0.5159    0.7505 C   0  0  0  0  0  0  0  0  0  0  0  0
   -4.2342    0.4095    0.5440 C   0  0  0  0  0  0  0  0  0  0  0  0
   -5.2144    1.3331    1.1726 C   0  0  0  0  0  0  0  0  0  0  0  0
   -4.6795   -0.6004   -0.2837 C   0  0  0  0  0  0  0  0  0  0  0  0
   -5.9062   -0.9988   -0.7075 N   0  0  0  0  0  0  0  0  0  0  0  0
   -5.7777   -2.0421   -1.5082 N   0  0  0  0  0  0  0  0  0  0  0  0
   -4.4777   -2.3552   -1.6318 C   0  0  0  0  0  0  0  0  0  0  0  0
   -3.8650   -3.4546   -2.4313 C   0  0  0  0  0  0  0  0  0  0  0  0
   -3.8153   -1.4507   -0.8660 N   0  0  0  0  0  0  0  0  0  0  0  0
   -2.4996   -1.3359   -0.6548 C   0  0  0  0  0  0  0  0  0  0  0  0
    0.4196   -1.1115    0.0289 C   0  0  0  0  0  0  0  0  0  0  0  0
    0.4001   -2.0261   -0.8025 O   0  0  0  0  0  0  0  0  0  0  0  0
    1.5171    1.7515    3.8997 H   0  0  0  0  0  0  0  0  0  0  0  0
    2.9404    0.8486    4.4645 H   0  0  0  0  0  0  0  0  0  0  0  0
    3.2106    2.2324    3.3368 H   0  0  0  0  0  0  0  0  0  0  0  0
    4.1417   -2.9487    1.4021 H   0  0  0  0  0  0  0  0  0  0  0  0
    2.8469   -3.2034    0.2371 H   0  0  0  0  0  0  0  0  0  0  0  0
    5.0511   -2.9804   -0.7733 H   0  0  0  0  0  0  0  0  0  0  0  0
    5.2143   -0.2593    0.0871 H   0  0  0  0  0  0  0  0  0  0  0  0
   -0.5804    1.2269    1.9153 H   0  0  0  0  0  0  0  0  0  0  0  0
   -1.3493    1.9901   -0.9265 H   0  0  0  0  0  0  0  0  0  0  0  0
   -0.7168    3.7512   -2.4847 H   0  0  0  0  0  0  0  0  0  0  0  0
    3.0539    4.0150   -0.6488 H   0  0  0  0  0  0  0  0  0  0  0  0
    2.4318    2.2333    0.9381 H   0  0  0  0  0  0  0  0  0  0  0  0
   -2.5516    1.3124    1.4029 H   0  0  0  0  0  0  0  0  0  0  0  0
   -4.6861    2.2794    1.4254 H   0  0  0  0  0  0  0  0  0  0  0  0
   -5.6179    0.9121    2.1136 H   0  0  0  0  0  0  0  0  0  0  0  0
   -6.0711    1.5208    0.5032 H   0  0  0  0  0  0  0  0  0  0  0  0
   -3.1091   -3.1004   -3.1355 H   0  0  0  0  0  0  0  0  0  0  0  0
   -4.6944   -4.0032   -2.9322 H   0  0  0  0  0  0  0  0  0  0  0  0
   -3.3705   -4.2088   -1.7689 H   0  0  0  0  0  0  0  0  0  0  0  0
   -1.8053   -2.0450   -1.1441 H   0  0  0  0  0  0  0  0  0  0  0  0
  1  2  1  0
  2  3  2  0
  3  4  1  0
  4  5  1  0
  5  6  1  0
  6  7  1  0
  6  8  1  0
  8  9  1  0
  8 10  1  0
  8 11  1  0
  4 12  1  0
 12 13  2  0
 13 14  1  0
 14 15  1  0
 15 16  2  0
 16 17  1  0
 17 18  2  0
 18 19  1  0
 18 20  1  0
 20 21  2  0
 14 22  1  0
 22 23  1  0
 23 24  1  0
 24 25  2  0
 25 26  1  0
 25 27  1  0
 27 28  2  0
 28 29  1  0
 29 30  2  0
 30 31  1  0
 30 32  1  0
 32 33  1  0
 22 34  1  0
 34 35  2  0
 13  2  1  0
 21 15  1  0
 33 23  2  0
 34 12  1  0
 32 27  1  0
  1 36  1  0
  1 37  1  0
  1 38  1  0
  5 39  1  0
  5 40  1  0
  6 41  1  6
  7 42  1  0
 14 43  1  1
 16 44  1  0
 17 45  1  0
 20 46  1  0
 21 47  1  0
 24 48  1  0
 26 49  1  0
 26 50  1  0
 26 51  1  0
 31 52  1  0
 31 53  1  0
 31 54  1  0
 33 55  1  0
M  END
$$$$
