
     RDKit          3D

 47 49  0  0  0  0  0  0  0  0999 V2000
    9.2465   -0.2138    0.4676 C   0  0  0  0  0  0  0  0  0  0  0  0
    8.1309   -1.0651    0.5696 O   0  0  0  0  0  0  0  0  0  0  0  0
    6.8597   -0.5319    0.4086 C   0  0  0  0  0  0  0  0  0  0  0  0
    5.7776   -1.3610    0.5082 C   0  0  0  0  0  0  0  0  0  0  0  0
    4.4934   -0.8241    0.3459 C   0  0  0  0  0  0  0  0  0  0  0  0
    4.2704    0.4886    0.0929 C   0  0  0  0  0  0  0  0  0  0  0  0
    3.0128    1.0976   -0.0820 N   0  0  0  0  0  0  0  0  0  0  0  0
    2.9540    2.5371   -0.3454 C   0  0  0  0  0  0  0  0  0  0  0  0
    1.7889    0.4269   -0.0233 C   0  0  0  0  0  0  0  0  0  0  0  0
    1.7258   -0.7997    0.1949 O   0  0  0  0  0  0  0  0  0  0  0  0
    0.5669    1.1113   -0.2090 O   0  0  0  0  0  0  0  0  0  0  0  0
   -0.5852    0.3619   -0.1325 C   0  0  0  0  0  0  0  0  0  0  0  0
   -1.2064    0.2085    1.0789 C   0  0  0  0  0  0  0  0  0  0  0  0
   -2.3703   -0.5471    1.1632 C   0  0  0  0  0  0  0  0  0  0  0  0
   -2.9166   -1.1488    0.0492 C   0  0  0  0  0  0  0  0  0  0  0  0
   -4.0739   -1.8901    0.1795 O   0  0  0  0  0  0  0  0  0  0  0  0
   -5.3414   -1.3454    0.0473 C   0  0  0  0  0  0  0  0  0  0  0  0
   -6.4845   -2.1028    0.1811 C   0  0  0  0  0  0  0  0  0  0  0  0
   -7.7492   -1.5565    0.0486 C   0  0  0  0  0  0  0  0  0  0  0  0
   -7.8671   -0.2279   -0.2227 C   0  0  0  0  0  0  0  0  0  0  0  0
   -9.1643    0.4720   -0.3869 C   0  0  0  0  0  0  0  0  0  0  0  0
   -9.5425    1.0198    0.8153 F   0  0  0  0  0  0  0  0  0  0  0  0
   -8.9820    1.5172   -1.2798 F   0  0  0  0  0  0  0  0  0  0  0  0
  -10.0718   -0.4523   -0.8528 F   0  0  0  0  0  0  0  0  0  0  0  0
   -6.7150    0.5299   -0.3565 C   0  0  0  0  0  0  0  0  0  0  0  0
   -5.4874   -0.0405   -0.2197 N   0  0  0  0  0  0  0  0  0  0  0  0
   -2.2757   -0.9803   -1.1527 C   0  0  0  0  0  0  0  0  0  0  0  0
   -1.1100   -0.2275   -1.2558 C   0  0  0  0  0  0  0  0  0  0  0  0
    5.4266    1.2934    0.0015 C   0  0  0  0  0  0  0  0  0  0  0  0
    6.6736    0.8063    0.1527 C   0  0  0  0  0  0  0  0  0  0  0  0
    9.2204    0.4125   -0.4651 H   0  0  0  0  0  0  0  0  0  0  0  0
   10.1955   -0.7632    0.5556 H   0  0  0  0  0  0  0  0  0  0  0  0
    9.2026    0.5015    1.3244 H   0  0  0  0  0  0  0  0  0  0  0  0
    5.8991   -2.4311    0.7114 H   0  0  0  0  0  0  0  0  0  0  0  0
    3.6998   -1.5216    0.4357 H   0  0  0  0  0  0  0  0  0  0  0  0
    3.5175    3.1107    0.4181 H   0  0  0  0  0  0  0  0  0  0  0  0
    3.3358    2.7034   -1.3710 H   0  0  0  0  0  0  0  0  0  0  0  0
    1.9177    2.9283   -0.3148 H   0  0  0  0  0  0  0  0  0  0  0  0
   -0.7752    0.6806    1.9445 H   0  0  0  0  0  0  0  0  0  0  0  0
   -2.8373   -0.6502    2.1309 H   0  0  0  0  0  0  0  0  0  0  0  0
   -6.4289   -3.1570    0.3957 H   0  0  0  0  0  0  0  0  0  0  0  0
   -8.6214   -2.1761    0.1591 H   0  0  0  0  0  0  0  0  0  0  0  0
   -6.7948    1.5937   -0.5735 H   0  0  0  0  0  0  0  0  0  0  0  0
   -2.7156   -1.4587   -2.0209 H   0  0  0  0  0  0  0  0  0  0  0  0
   -0.6552   -0.1352   -2.2360 H   0  0  0  0  0  0  0  0  0  0  0  0
    5.3040    2.3484   -0.1992 H   0  0  0  0  0  0  0  0  0  0  0  0
    7.5527    1.4584    0.0758 H   0  0  0  0  0  0  0  0  0  0  0  0
  1  2  1  0
  2  3  1  0
  3  4  2  0
  4  5  1  0
  5  6  2  0
  6  7  1  0
  7  8  1  0
  7  9  1  0
  9 10  2  0
  9 11  1  0
 11 12  1  0
 12 13  2  0
 13 14  1  0
 14 15  2  0
 15 16  1  0
 16 17  1  0
 17 18  2  0
 18 19  1  0
 19 20  2  0
 20 21  1  0
 21 22  1  0
 21 23  1  0
 21 24  1  0
 20 25  1  0
 25 26  2  0
 15 27  1  0
 27 28  2  0
  6 29  1  0
 29 30  2  0
 30  3  1  0
 28 12  1  0
 26 17  1  0
  1 31  1  0
  1 32  1  0
  1 33  1  0
  4 34  1  0
  5 35  1  0
  8 36  1  0
  8 37  1  0
  8 38  1  0
 13 39  1  0
 14 40  1  0
 18 41  1  0
 19 42  1  0
 25 43  1  0
 27 44  1  0
 28 45  1  0
 29 46  1  0
 30 47  1  0
M  END
$$$$
