
     RDKit          3D

 43 45  0  0  0  0  0  0  0  0999 V2000
   -5.0285    1.6331   -0.5922 C   0  0  0  0  0  0  0  0  0  0  0  0
   -3.7786    1.1464   -0.0126 C   0  0  0  0  0  0  0  0  0  0  0  0
   -2.6210    1.8729   -0.1734 C   0  0  0  0  0  0  0  0  0  0  0  0
   -1.4055    1.4331    0.3710 C   0  0  0  0  0  0  0  0  0  0  0  0
   -1.3121    0.2736    1.0794 C   0  0  0  0  0  0  0  0  0  0  0  0
    0.1934   -0.3843    1.7872 S   0  0  0  0  0  0  0  0  0  0  0  0
    0.8545   -1.6030    0.6830 C   0  0  0  0  0  0  0  0  0  0  0  0
    0.2424   -2.8749    0.7101 C   0  0  0  0  0  0  0  0  0  0  0  0
    0.7145   -3.9024   -0.0667 C   0  0  0  0  0  0  0  0  0  0  0  0
    1.8057   -3.6387   -0.8691 C   0  0  0  0  0  0  0  0  0  0  0  0
    2.4124   -2.4118   -0.9084 C   0  0  0  0  0  0  0  0  0  0  0  0
    1.9219   -1.3616   -0.1076 C   0  0  0  0  0  0  0  0  0  0  0  0
    2.5688   -0.1189   -0.1610 N   0  0  0  0  0  0  0  0  0  0  0  0
    2.1004    1.0892   -0.7770 C   0  0  0  0  0  0  0  0  0  0  0  0
    2.3134    2.3002    0.0998 C   0  0  0  0  0  0  0  0  0  0  0  0
    3.7006    2.4184    0.5163 N   0  0  0  0  0  0  0  0  0  0  0  0
    4.5083    1.3120    0.0385 C   0  0  0  0  0  0  0  0  0  0  0  0
    3.8997    0.0135    0.4861 C   0  0  0  0  0  0  0  0  0  0  0  0
   -2.4962   -0.4608    1.2393 C   0  0  0  0  0  0  0  0  0  0  0  0
   -3.6725   -0.0152    0.7010 C   0  0  0  0  0  0  0  0  0  0  0  0
   -4.8919   -0.8375    0.9056 C   0  0  0  0  0  0  0  0  0  0  0  0
   -4.8007    2.4427   -1.3122 H   0  0  0  0  0  0  0  0  0  0  0  0
   -5.6171    0.8691   -1.1359 H   0  0  0  0  0  0  0  0  0  0  0  0
   -5.6732    2.1142    0.1967 H   0  0  0  0  0  0  0  0  0  0  0  0
   -2.6761    2.7963   -0.7338 H   0  0  0  0  0  0  0  0  0  0  0  0
   -0.5428    2.0486    0.2282 H   0  0  0  0  0  0  0  0  0  0  0  0
   -0.6109   -3.0434    1.3517 H   0  0  0  0  0  0  0  0  0  0  0  0
    0.2735   -4.8936   -0.0753 H   0  0  0  0  0  0  0  0  0  0  0  0
    2.1900   -4.4439   -1.4899 H   0  0  0  0  0  0  0  0  0  0  0  0
    3.2665   -2.1810   -1.5273 H   0  0  0  0  0  0  0  0  0  0  0  0
    2.7027    1.2391   -1.7210 H   0  0  0  0  0  0  0  0  0  0  0  0
    1.0549    1.0654   -1.1045 H   0  0  0  0  0  0  0  0  0  0  0  0
    2.0642    3.1978   -0.4962 H   0  0  0  0  0  0  0  0  0  0  0  0
    1.6943    2.2519    1.0119 H   0  0  0  0  0  0  0  0  0  0  0  0
    4.1210    3.3239    0.2071 H   0  0  0  0  0  0  0  0  0  0  0  0
    4.6187    1.4117   -1.0467 H   0  0  0  0  0  0  0  0  0  0  0  0
    5.5039    1.4150    0.5489 H   0  0  0  0  0  0  0  0  0  0  0  0
    4.5439   -0.8327    0.2280 H   0  0  0  0  0  0  0  0  0  0  0  0
    3.7573    0.0697    1.5813 H   0  0  0  0  0  0  0  0  0  0  0  0
   -2.4428   -1.3979    1.8074 H   0  0  0  0  0  0  0  0  0  0  0  0
   -5.6468   -0.7267    0.1275 H   0  0  0  0  0  0  0  0  0  0  0  0
   -5.2585   -0.6959    1.9342 H   0  0  0  0  0  0  0  0  0  0  0  0
   -4.5517   -1.9136    0.8518 H   0  0  0  0  0  0  0  0  0  0  0  0
  1  2  1  0
  2  3  2  0
  3  4  1  0
  4  5  2  0
  5  6  1  0
  6  7  1  0
  7  8  2  0
  8  9  1  0
  9 10  2  0
 10 11  1  0
 11 12  2  0
 12 13  1  0
 13 14  1  0
 14 15  1  0
 15 16  1  0
 16 17  1  0
 17 18  1  0
  5 19  1  0
 19 20  2  0
 20 21  1  0
 20  2  1  0
 12  7  1  0
 18 13  1  0
  1 22  1  0
  1 23  1  0
  1 24  1  0
  3 25  1  0
  4 26  1  0
  8 27  1  0
  9 28  1  0
 10 29  1  0
 11 30  1  0
 14 31  1  0
 14 32  1  0
 15 33  1  0
 15 34  1  0
 16 35  1  0
 17 36  1  0
 17 37  1  0
 18 38  1  0
 18 39  1  0
 19 40  1  0
 21 41  1  0
 21 42  1  0
 21 43  1  0
M  END
$$$$
