
     RDKit          3D

 46 49  0  0  0  0  0  0  0  0999 V2000
    5.8290   -3.9739    0.9115 N   0  0  0  0  0  0  0  0  0  0  0  0
    5.7845   -2.8974    0.4984 C   0  0  0  0  0  0  0  0  0  0  0  0
    5.7306   -1.5329    0.0019 C   0  0  0  0  0  0  0  0  0  0  0  0
    6.8558   -0.7377   -0.0661 C   0  0  0  0  0  0  0  0  0  0  0  0
    6.8145    0.5501   -0.5327 C   0  0  0  0  0  0  0  0  0  0  0  0
    5.6032    1.0492   -0.9422 C   0  0  0  0  0  0  0  0  0  0  0  0
    4.4312    0.3068   -0.9019 C   0  0  0  0  0  0  0  0  0  0  0  0
    4.5213   -0.9808   -0.4261 C   0  0  0  0  0  0  0  0  0  0  0  0
    3.3591   -1.7347   -0.3800 O   0  0  0  0  0  0  0  0  0  0  0  0
    2.1279   -1.0460   -0.2878 C   0  0  0  0  0  0  0  0  0  0  0  0
    2.0392    0.0752   -1.3039 C   0  0  0  0  0  0  0  0  0  0  0  0
    0.9108    0.9849   -0.9549 C   0  0  0  0  0  0  0  0  0  0  0  0
    0.7711    2.2309   -1.5283 C   0  0  0  0  0  0  0  0  0  0  0  0
   -0.2538    3.0546   -1.2109 N   0  0  0  0  0  0  0  0  0  0  0  0
   -1.1885    2.6942   -0.3169 C   0  0  0  0  0  0  0  0  0  0  0  0
   -1.0942    1.4568    0.2856 C   0  0  0  0  0  0  0  0  0  0  0  0
   -2.1548    1.0868    1.2785 C   0  0  0  0  0  0  0  0  0  0  0  0
   -3.2087    0.4484    0.5700 N   0  0  0  0  0  0  0  0  0  0  0  0
   -4.4803    1.0574    0.5922 C   0  0  0  0  0  0  0  0  0  0  0  0
   -5.6405    0.1985    0.9589 C   0  0  0  0  0  0  0  0  0  0  0  0
   -5.7496   -1.0432    0.1054 C   0  0  0  0  0  0  0  0  0  0  0  0
   -4.6857   -2.0172    0.5591 C   0  0  0  0  0  0  0  0  0  0  0  0
   -3.1244   -1.2286    0.4182 S   0  0  0  0  0  6  0  0  0  0  0  0
   -2.6088   -1.5351   -0.9855 O   0  0  0  0  0  0  0  0  0  0  0  0
   -2.1142   -1.7765    1.3894 O   0  0  0  0  0  0  0  0  0  0  0  0
   -0.0509    0.6179   -0.0371 C   0  0  0  0  0  0  0  0  0  0  0  0
    3.2255    0.8417   -1.3230 O   0  0  0  0  0  0  0  0  0  0  0  0
    7.8127   -1.1486    0.2634 H   0  0  0  0  0  0  0  0  0  0  0  0
    7.7314    1.1442   -0.5688 H   0  0  0  0  0  0  0  0  0  0  0  0
    5.5286    2.0589   -1.3161 H   0  0  0  0  0  0  0  0  0  0  0  0
    1.3200   -1.7797   -0.4655 H   0  0  0  0  0  0  0  0  0  0  0  0
    2.0609   -0.5670    0.7116 H   0  0  0  0  0  0  0  0  0  0  0  0
    1.8363   -0.4091   -2.2835 H   0  0  0  0  0  0  0  0  0  0  0  0
    1.5247    2.5499   -2.2645 H   0  0  0  0  0  0  0  0  0  0  0  0
   -2.0115    3.3731   -0.0710 H   0  0  0  0  0  0  0  0  0  0  0  0
   -1.6489    0.4314    2.0178 H   0  0  0  0  0  0  0  0  0  0  0  0
   -2.4515    2.0285    1.7833 H   0  0  0  0  0  0  0  0  0  0  0  0
   -4.7439    1.5714   -0.3737 H   0  0  0  0  0  0  0  0  0  0  0  0
   -4.4443    1.8841    1.3593 H   0  0  0  0  0  0  0  0  0  0  0  0
   -5.6977   -0.1007    2.0040 H   0  0  0  0  0  0  0  0  0  0  0  0
   -6.5707    0.7958    0.7492 H   0  0  0  0  0  0  0  0  0  0  0  0
   -6.7344   -1.4901    0.2480 H   0  0  0  0  0  0  0  0  0  0  0  0
   -5.5573   -0.8231   -0.9627 H   0  0  0  0  0  0  0  0  0  0  0  0
   -4.8976   -2.4038    1.5745 H   0  0  0  0  0  0  0  0  0  0  0  0
   -4.7244   -2.9250   -0.1084 H   0  0  0  0  0  0  0  0  0  0  0  0
    0.0184   -0.3396    0.4324 H   0  0  0  0  0  0  0  0  0  0  0  0
  1  2  3  0
  2  3  1  0
  3  4  2  0
  4  5  1  0
  5  6  2  0
  6  7  1  0
  7  8  2  0
  8  9  1  0
  9 10  1  0
 10 11  1  0
 11 12  1  0
 12 13  2  0
 13 14  1  0
 14 15  2  0
 15 16  1  0
 16 17  1  0
 17 18  1  0
 18 19  1  0
 19 20  1  0
 20 21  1  0
 21 22  1  0
 22 23  1  0
 23 24  2  0
 23 25  2  0
 16 26  2  0
 11 27  1  0
  8  3  1  0
 26 12  1  0
 27  7  1  0
 23 18  1  0
  4 28  1  0
  5 29  1  0
  6 30  1  0
 10 31  1  0
 10 32  1  0
 11 33  1  0
 13 34  1  0
 15 35  1  0
 17 36  1  0
 17 37  1  0
 19 38  1  0
 19 39  1  0
 20 40  1  0
 20 41  1  0
 21 42  1  0
 21 43  1  0
 22 44  1  0
 22 45  1  0
 26 46  1  0
M  END
$$$$
