
     RDKit          3D

 61 63  0  0  0  0  0  0  0  0999 V2000
   -0.2502    1.0474    2.0674 C   0  0  0  0  0  0  0  0  0  0  0  0
   -0.4593    0.3782    0.7157 C   0  0  2  0  0  0  0  0  0  0  0  0
    0.5483    0.7831   -0.2321 N   0  0  0  0  0  0  0  0  0  0  0  0
    1.6673    0.0236   -0.6332 C   0  0  0  0  0  0  0  0  0  0  0  0
    1.7890   -1.1100   -0.1066 O   0  0  0  0  0  0  0  0  0  0  0  0
    2.6729    0.4982   -1.6129 C   0  0  0  0  0  0  0  0  0  0  0  0
    1.9709    0.3950   -2.9792 C   0  0  0  0  0  0  0  0  0  0  0  0
    3.0552    1.9288   -1.4378 C   0  0  0  0  0  0  0  0  0  0  0  0
    3.7717   -0.3874   -1.7192 O   0  0  0  0  0  0  0  0  0  0  0  0
    4.5948   -0.7014   -0.6652 C   0  0  0  0  0  0  0  0  0  0  0  0
    5.7163    0.0549   -0.4105 C   0  0  0  0  0  0  0  0  0  0  0  0
    6.5706   -0.2336    0.6503 C   0  0  0  0  0  0  0  0  0  0  0  0
    6.2902   -1.3197    1.4835 C   0  0  0  0  0  0  0  0  0  0  0  0
    7.1639   -1.6713    2.6347 C   0  0  0  0  0  0  0  0  0  0  0  0
    6.4331   -1.7049    3.8163 F   0  0  0  0  0  0  0  0  0  0  0  0
    7.7637   -2.8994    2.4880 F   0  0  0  0  0  0  0  0  0  0  0  0
    8.1259   -0.6817    2.8040 F   0  0  0  0  0  0  0  0  0  0  0  0
    5.1572   -2.0453    1.1848 C   0  0  0  0  0  0  0  0  0  0  0  0
    4.3498   -1.7361    0.1476 N   0  0  0  0  0  0  0  0  0  0  0  0
   -1.8551    0.6941    0.2918 C   0  0  1  0  0  0  0  0  0  0  0  0
   -2.1623    0.0848   -1.0352 C   0  0  0  0  0  0  0  0  0  0  0  0
   -3.5082    0.3458   -1.5605 C   0  0  0  0  0  0  0  0  0  0  0  0
   -4.5687   -0.4863   -1.3758 C   0  0  0  0  0  0  0  0  0  0  0  0
   -5.8069   -0.1419   -1.9034 C   0  0  0  0  0  0  0  0  0  0  0  0
   -6.0093    1.0198   -2.6144 C   0  0  0  0  0  0  0  0  0  0  0  0
   -7.5631    1.4393   -3.2747 Cl  0  0  0  0  0  0  0  0  0  0  0  0
   -4.9198    1.8731   -2.8033 C   0  0  0  0  0  0  0  0  0  0  0  0
   -3.6845    1.5189   -2.2716 C   0  0  0  0  0  0  0  0  0  0  0  0
   -2.7565    0.0889    1.3103 C   0  0  0  0  0  0  0  0  0  0  0  0
   -3.5330    0.8547    2.1514 C   0  0  0  0  0  0  0  0  0  0  0  0
   -4.3461    0.2323    3.0512 C   0  0  0  0  0  0  0  0  0  0  0  0
   -4.4040   -1.1484    3.1325 C   0  0  0  0  0  0  0  0  0  0  0  0
   -3.6310   -1.9392    2.2940 C   0  0  0  0  0  0  0  0  0  0  0  0
   -3.7646   -3.3548    2.4002 C   0  0  0  0  0  0  0  0  0  0  0  0
   -3.8663   -4.5208    2.5064 N   0  0  0  0  0  0  0  0  0  0  0  0
   -2.8151   -1.2902    1.3928 C   0  0  0  0  0  0  0  0  0  0  0  0
    0.6181    0.6635    2.6116 H   0  0  0  0  0  0  0  0  0  0  0  0
   -0.2222    2.1616    1.9392 H   0  0  0  0  0  0  0  0  0  0  0  0
   -1.1484    0.8368    2.6725 H   0  0  0  0  0  0  0  0  0  0  0  0
   -0.3485   -0.6991    0.9046 H   0  0  0  0  0  0  0  0  0  0  0  0
    0.4582    1.7355   -0.6755 H   0  0  0  0  0  0  0  0  0  0  0  0
    1.4297   -0.5947   -2.9422 H   0  0  0  0  0  0  0  0  0  0  0  0
    1.2980    1.2346   -3.1698 H   0  0  0  0  0  0  0  0  0  0  0  0
    2.7361    0.2719   -3.7729 H   0  0  0  0  0  0  0  0  0  0  0  0
    3.1755    2.2407   -0.3832 H   0  0  0  0  0  0  0  0  0  0  0  0
    3.9604    2.1135   -2.0453 H   0  0  0  0  0  0  0  0  0  0  0  0
    2.2652    2.5738   -1.8760 H   0  0  0  0  0  0  0  0  0  0  0  0
    5.9834    0.9046   -1.0170 H   0  0  0  0  0  0  0  0  0  0  0  0
    7.4534    0.3539    0.8601 H   0  0  0  0  0  0  0  0  0  0  0  0
    4.9360   -2.8971    1.8374 H   0  0  0  0  0  0  0  0  0  0  0  0
   -2.0366    1.7944    0.2429 H   0  0  0  0  0  0  0  0  0  0  0  0
   -2.0175   -1.0149   -1.0476 H   0  0  0  0  0  0  0  0  0  0  0  0
   -1.3969    0.4811   -1.7532 H   0  0  0  0  0  0  0  0  0  0  0  0
   -4.5320   -1.4185   -0.8494 H   0  0  0  0  0  0  0  0  0  0  0  0
   -6.6760   -0.7868   -1.7716 H   0  0  0  0  0  0  0  0  0  0  0  0
   -5.0865    2.7758   -3.3570 H   0  0  0  0  0  0  0  0  0  0  0  0
   -2.8827    2.2218   -2.4551 H   0  0  0  0  0  0  0  0  0  0  0  0
   -3.4693    1.9212    2.0682 H   0  0  0  0  0  0  0  0  0  0  0  0
   -4.9617    0.8161    3.7188 H   0  0  0  0  0  0  0  0  0  0  0  0
   -5.0515   -1.6397    3.8562 H   0  0  0  0  0  0  0  0  0  0  0  0
   -2.2207   -1.9384    0.7521 H   0  0  0  0  0  0  0  0  0  0  0  0
  1  2  1  0
  2  3  1  0
  3  4  1  0
  4  5  2  0
  4  6  1  0
  6  7  1  0
  6  8  1  0
  6  9  1  0
  9 10  1  0
 10 11  2  0
 11 12  1  0
 12 13  2  0
 13 14  1  0
 14 15  1  0
 14 16  1  0
 14 17  1  0
 13 18  1  0
 18 19  2  0
  2 20  1  0
 20 21  1  0
 21 22  1  0
 22 23  2  0
 23 24  1  0
 24 25  2  0
 25 26  1  0
 25 27  1  0
 27 28  2  0
 20 29  1  0
 29 30  2  0
 30 31  1  0
 31 32  2  0
 32 33  1  0
 33 34  1  0
 34 35  3  0
 33 36  2  0
 19 10  1  0
 28 22  1  0
 36 29  1  0
  1 37  1  0
  1 38  1  0
  1 39  1  0
  2 40  1  1
  3 41  1  0
  7 42  1  0
  7 43  1  0
  7 44  1  0
  8 45  1  0
  8 46  1  0
  8 47  1  0
 11 48  1  0
 12 49  1  0
 18 50  1  0
 20 51  1  6
 21 52  1  0
 21 53  1  0
 23 54  1  0
 24 55  1  0
 27 56  1  0
 28 57  1  0
 30 58  1  0
 31 59  1  0
 32 60  1  0
 36 61  1  0
M  END
$$$$
