
     RDKit          3D

 69 68  0  0  0  0  0  0  0  0999 V2000
   -2.9725   -0.2489   -2.9343 C   0  0  0  0  0  0  0  0  0  0  0  0
   -3.2706   -0.0358   -1.4836 C   0  0  0  0  0  0  0  0  0  0  0  0
   -3.7582   -1.0287   -0.8846 O   0  0  0  0  0  0  0  0  0  0  0  0
   -2.9990    1.2186   -0.8900 N   0  0  0  0  0  0  0  0  0  0  0  0
   -3.2765    1.4416    0.4907 C   0  0  1  0  0  0  0  0  0  0  0  0
   -4.7155    1.1732    0.8113 C   0  0  0  0  0  0  0  0  0  0  0  0
   -5.7191    2.0023    0.1027 C   0  0  0  0  0  0  0  0  0  0  0  0
   -5.7440    1.9117   -1.3811 C   0  0  0  0  0  0  0  0  0  0  0  0
   -5.6276    3.4754    0.4751 C   0  0  0  0  0  0  0  0  0  0  0  0
   -2.4416    0.5775    1.3888 C   0  0  0  0  0  0  0  0  0  0  0  0
   -2.5959    0.5972    2.6394 O   0  0  0  0  0  0  0  0  0  0  0  0
   -1.4484   -0.2931    0.8899 N   0  0  0  0  0  0  0  0  0  0  0  0
   -0.6362   -1.1411    1.8205 C   0  0  1  0  0  0  0  0  0  0  0  0
   -1.0263   -2.5170    1.4642 C   0  0  0  0  0  0  0  0  0  0  0  0
   -0.4650   -3.6887    2.1449 C   0  0  0  0  0  0  0  0  0  0  0  0
    1.0154   -3.9258    2.0430 C   0  0  0  0  0  0  0  0  0  0  0  0
   -1.1370   -4.9197    1.4896 C   0  0  0  0  0  0  0  0  0  0  0  0
    0.7703   -0.7440    1.6987 C   0  0  0  0  0  0  0  0  0  0  0  0
    1.6557   -1.1853    2.4596 O   0  0  0  0  0  0  0  0  0  0  0  0
    1.1755    0.1663    0.6994 N   0  0  0  0  0  0  0  0  0  0  0  0
    2.6497    0.5378    0.6237 C   0  0  1  0  0  0  0  0  0  0  0  0
    3.0230    0.0331   -0.7005 C   0  0  0  0  0  0  0  0  0  0  0  0
    4.3682    0.0972   -1.2739 C   0  0  0  0  0  0  0  0  0  0  0  0
    4.9721    1.4167   -1.5332 C   0  0  0  0  0  0  0  0  0  0  0  0
    6.2952    1.2803   -2.1806 N   0  0  0  0  0  0  0  0  0  0  0  0
    7.3972    0.7400   -1.4669 C   0  0  0  0  0  0  0  0  0  0  0  0
    7.1876    0.4795   -0.1997 N   0  0  0  0  0  0  0  0  0  0  0  0
    8.6556    0.4920   -2.0637 N   0  0  0  0  0  0  0  0  0  0  0  0
    2.6271    1.9602    0.9115 C   0  0  0  0  0  0  0  0  0  0  0  0
    3.6400    2.6290    1.1999 O   0  0  0  0  0  0  0  0  0  0  0  0
    1.4357    2.7036    0.8847 O   0  0  0  0  0  0  0  0  0  0  0  0
   -2.7309    0.6920   -3.4281 H   0  0  0  0  0  0  0  0  0  0  0  0
   -2.0688   -0.8970   -2.9952 H   0  0  0  0  0  0  0  0  0  0  0  0
   -3.7940   -0.7799   -3.4223 H   0  0  0  0  0  0  0  0  0  0  0  0
   -2.5759    1.9710   -1.5119 H   0  0  0  0  0  0  0  0  0  0  0  0
   -3.0342    2.5339    0.7252 H   0  0  0  0  0  0  0  0  0  0  0  0
   -4.9903    0.1010    0.6327 H   0  0  0  0  0  0  0  0  0  0  0  0
   -4.8770    1.3553    1.9137 H   0  0  0  0  0  0  0  0  0  0  0  0
   -6.7259    1.6704    0.4642 H   0  0  0  0  0  0  0  0  0  0  0  0
   -6.6264    2.5053   -1.7911 H   0  0  0  0  0  0  0  0  0  0  0  0
   -5.9641    0.8769   -1.7630 H   0  0  0  0  0  0  0  0  0  0  0  0
   -4.8697    2.3393   -1.8683 H   0  0  0  0  0  0  0  0  0  0  0  0
   -6.6151    3.9312    0.4210 H   0  0  0  0  0  0  0  0  0  0  0  0
   -5.2126    3.6033    1.4916 H   0  0  0  0  0  0  0  0  0  0  0  0
   -4.9200    3.9540   -0.2526 H   0  0  0  0  0  0  0  0  0  0  0  0
   -1.2447   -0.3755   -0.1192 H   0  0  0  0  0  0  0  0  0  0  0  0
   -1.0089   -0.9376    2.8699 H   0  0  0  0  0  0  0  0  0  0  0  0
   -2.1626   -2.5852    1.6056 H   0  0  0  0  0  0  0  0  0  0  0  0
   -0.9393   -2.6896    0.3486 H   0  0  0  0  0  0  0  0  0  0  0  0
   -0.7928   -3.7704    3.2206 H   0  0  0  0  0  0  0  0  0  0  0  0
    1.4932   -3.4773    1.1562 H   0  0  0  0  0  0  0  0  0  0  0  0
    1.2027   -5.0517    1.8738 H   0  0  0  0  0  0  0  0  0  0  0  0
    1.5599   -3.7628    3.0030 H   0  0  0  0  0  0  0  0  0  0  0  0
   -2.2069   -4.9318    1.7195 H   0  0  0  0  0  0  0  0  0  0  0  0
   -0.6050   -5.8422    1.7410 H   0  0  0  0  0  0  0  0  0  0  0  0
   -1.0283   -4.7523    0.3985 H   0  0  0  0  0  0  0  0  0  0  0  0
    0.5287    0.5769    0.0395 H   0  0  0  0  0  0  0  0  0  0  0  0
    3.1875   -0.0428    1.4141 H   0  0  0  0  0  0  0  0  0  0  0  0
    2.3175    0.5569   -1.4598 H   0  0  0  0  0  0  0  0  0  0  0  0
    2.6389   -1.0654   -0.7134 H   0  0  0  0  0  0  0  0  0  0  0  0
    4.4310   -0.5534   -2.2176 H   0  0  0  0  0  0  0  0  0  0  0  0
    5.0676   -0.5017   -0.5736 H   0  0  0  0  0  0  0  0  0  0  0  0
    4.3379    1.9841   -2.2399 H   0  0  0  0  0  0  0  0  0  0  0  0
    5.0982    1.9841   -0.6137 H   0  0  0  0  0  0  0  0  0  0  0  0
    6.4459    1.5746   -3.1660 H   0  0  0  0  0  0  0  0  0  0  0  0
    7.9799    0.0843    0.3398 H   0  0  0  0  0  0  0  0  0  0  0  0
    9.5171    0.8015   -1.5880 H   0  0  0  0  0  0  0  0  0  0  0  0
    8.7181    0.0046   -2.9704 H   0  0  0  0  0  0  0  0  0  0  0  0
    1.4345    3.7111    1.0558 H   0  0  0  0  0  0  0  0  0  0  0  0
  1  2  1  0
  2  3  2  0
  2  4  1  0
  4  5  1  0
  5  6  1  0
  6  7  1  0
  7  8  1  0
  7  9  1  0
  5 10  1  0
 10 11  2  0
 10 12  1  0
 12 13  1  0
 13 14  1  0
 14 15  1  0
 15 16  1  0
 15 17  1  0
 13 18  1  0
 18 19  2  0
 18 20  1  0
 20 21  1  0
 21 22  1  0
 22 23  1  0
 23 24  1  0
 24 25  1  0
 25 26  1  0
 26 27  2  3
 26 28  1  0
 21 29  1  0
 29 30  2  0
 29 31  1  0
  1 32  1  0
  1 33  1  0
  1 34  1  0
  4 35  1  0
  5 36  1  1
  6 37  1  0
  6 38  1  0
  7 39  1  0
  8 40  1  0
  8 41  1  0
  8 42  1  0
  9 43  1  0
  9 44  1  0
  9 45  1  0
 12 46  1  0
 13 47  1  1
 14 48  1  0
 14 49  1  0
 15 50  1  0
 16 51  1  0
 16 52  1  0
 16 53  1  0
 17 54  1  0
 17 55  1  0
 17 56  1  0
 20 57  1  0
 21 58  1  1
 22 59  1  0
 22 60  1  0
 23 61  1  0
 23 62  1  0
 24 63  1  0
 24 64  1  0
 25 65  1  0
 27 66  1  0
 28 67  1  0
 28 68  1  0
 31 69  1  0
M  END
$$$$
