
     RDKit          3D

 62 65  0  0  0  0  0  0  0  0999 V2000
    9.9373    1.1227    0.8803 C   0  0  0  0  0  0  0  0  0  0  0  0
    9.2682    0.9796   -0.3577 O   0  0  0  0  0  0  0  0  0  0  0  0
    7.9714    0.4863   -0.3345 C   0  0  0  0  0  0  0  0  0  0  0  0
    7.3332    0.1400    0.8378 C   0  0  0  0  0  0  0  0  0  0  0  0
    6.0441   -0.3499    0.8570 C   0  0  0  0  0  0  0  0  0  0  0  0
    5.3303   -0.5153   -0.3207 C   0  0  0  0  0  0  0  0  0  0  0  0
    3.9634   -1.0370   -0.2766 C   0  0  0  0  0  0  0  0  0  0  0  0
    3.4449   -1.7921   -1.3060 C   0  0  0  0  0  0  0  0  0  0  0  0
    2.1399   -2.2837   -1.2529 C   0  0  0  0  0  0  0  0  0  0  0  0
    1.3289   -2.0185   -0.1492 C   0  0  0  0  0  0  0  0  0  0  0  0
   -0.2844   -2.6803   -0.1643 S   0  0  0  0  0  6  0  0  0  0  0  0
   -0.2870   -4.0480   -0.7918 O   0  0  0  0  0  0  0  0  0  0  0  0
   -0.8022   -2.7409    1.2521 O   0  0  0  0  0  0  0  0  0  0  0  0
   -1.3170   -1.6089   -1.0293 N   0  0  0  0  0  0  0  0  0  0  0  0
   -1.3255   -0.3209   -0.3125 C   0  0  1  0  0  0  0  0  0  0  0  0
   -0.7380    0.6845   -1.2400 C   0  0  0  0  0  0  0  0  0  0  0  0
   -0.5387    1.8898   -0.9582 O   0  0  0  0  0  0  0  0  0  0  0  0
   -0.3548    0.3210   -2.5492 O   0  0  0  0  0  0  0  0  0  0  0  0
   -2.7339   -0.0034    0.1137 C   0  0  0  0  0  0  0  0  0  0  0  0
   -2.7639    1.2954    0.8548 C   0  0  0  0  0  0  0  0  0  0  0  0
   -4.1681    1.6012    1.3667 C   0  0  0  0  0  0  0  0  0  0  0  0
   -5.2102    1.0393    0.4185 C   0  0  0  0  0  0  0  0  0  0  0  0
   -4.5985    1.1286   -0.9850 C   0  0  0  0  0  0  0  0  0  0  0  0
   -3.6148   -0.0048   -1.1047 C   0  0  0  0  0  0  0  0  0  0  0  0
   -6.3408    1.8361    0.3994 O   0  0  0  0  0  0  0  0  0  0  0  0
   -7.2660    1.5190    1.3649 C   0  0  0  0  0  0  0  0  0  0  0  0
   -7.8049    0.1258    1.0670 C   0  0  0  0  0  0  0  0  0  0  0  0
   -6.7056   -0.7281    0.5014 C   0  0  0  0  0  0  0  0  0  0  0  0
   -5.4442   -0.2647    0.7830 O   0  0  0  0  0  0  0  0  0  0  0  0
    1.8342   -1.2685    0.8810 C   0  0  0  0  0  0  0  0  0  0  0  0
    3.1475   -0.7870    0.8026 C   0  0  0  0  0  0  0  0  0  0  0  0
    5.9547   -0.1742   -1.4927 C   0  0  0  0  0  0  0  0  0  0  0  0
    7.2410    0.3143   -1.5076 C   0  0  0  0  0  0  0  0  0  0  0  0
    9.3259    1.8165    1.5177 H   0  0  0  0  0  0  0  0  0  0  0  0
   10.9748    1.4701    0.7664 H   0  0  0  0  0  0  0  0  0  0  0  0
    9.8641    0.1272    1.3857 H   0  0  0  0  0  0  0  0  0  0  0  0
    7.8629    0.2553    1.7940 H   0  0  0  0  0  0  0  0  0  0  0  0
    5.5327   -0.6256    1.7755 H   0  0  0  0  0  0  0  0  0  0  0  0
    4.0855   -1.9887   -2.1538 H   0  0  0  0  0  0  0  0  0  0  0  0
    1.7455   -2.8733   -2.0644 H   0  0  0  0  0  0  0  0  0  0  0  0
   -1.0402   -1.5004   -2.0094 H   0  0  0  0  0  0  0  0  0  0  0  0
   -0.7031   -0.3325    0.5794 H   0  0  0  0  0  0  0  0  0  0  0  0
    0.0524    1.0028   -3.1744 H   0  0  0  0  0  0  0  0  0  0  0  0
   -3.0754   -0.8349    0.7666 H   0  0  0  0  0  0  0  0  0  0  0  0
   -2.1189    1.1998    1.7508 H   0  0  0  0  0  0  0  0  0  0  0  0
   -2.4018    2.1609    0.2776 H   0  0  0  0  0  0  0  0  0  0  0  0
   -4.3650    1.2364    2.3704 H   0  0  0  0  0  0  0  0  0  0  0  0
   -4.2756    2.7009    1.3585 H   0  0  0  0  0  0  0  0  0  0  0  0
   -5.3988    1.0836   -1.7484 H   0  0  0  0  0  0  0  0  0  0  0  0
   -4.0253    2.0781   -1.0022 H   0  0  0  0  0  0  0  0  0  0  0  0
   -3.0352    0.1416   -2.0420 H   0  0  0  0  0  0  0  0  0  0  0  0
   -4.1885   -0.9440   -1.2391 H   0  0  0  0  0  0  0  0  0  0  0  0
   -6.7798    1.5538    2.3616 H   0  0  0  0  0  0  0  0  0  0  0  0
   -8.0752    2.2838    1.3103 H   0  0  0  0  0  0  0  0  0  0  0  0
   -8.2748   -0.3103    1.9742 H   0  0  0  0  0  0  0  0  0  0  0  0
   -8.5745    0.2492    0.2729 H   0  0  0  0  0  0  0  0  0  0  0  0
   -6.8189   -0.9121   -0.5894 H   0  0  0  0  0  0  0  0  0  0  0  0
   -6.7966   -1.7372    0.9856 H   0  0  0  0  0  0  0  0  0  0  0  0
    1.2233   -1.0609    1.7395 H   0  0  0  0  0  0  0  0  0  0  0  0
    3.5316   -0.1945    1.6273 H   0  0  0  0  0  0  0  0  0  0  0  0
    5.3755   -0.3115   -2.4149 H   0  0  0  0  0  0  0  0  0  0  0  0
    7.7327    0.5823   -2.4232 H   0  0  0  0  0  0  0  0  0  0  0  0
  1  2  1  0
  2  3  1  0
  3  4  2  0
  4  5  1  0
  5  6  2  0
  6  7  1  0
  7  8  2  0
  8  9  1  0
  9 10  2  0
 10 11  1  0
 11 12  2  0
 11 13  2  0
 11 14  1  0
 14 15  1  0
 15 16  1  0
 16 17  2  0
 16 18  1  0
 15 19  1  0
 19 20  1  0
 20 21  1  0
 21 22  1  0
 22 23  1  0
 23 24  1  0
 22 25  1  0
 25 26  1  0
 26 27  1  0
 27 28  1  0
 28 29  1  0
 10 30  1  0
 30 31  2  0
  6 32  1  0
 32 33  2  0
 33  3  1  0
 31  7  1  0
 24 19  1  0
 29 22  1  0
  1 34  1  0
  1 35  1  0
  1 36  1  0
  4 37  1  0
  5 38  1  0
  8 39  1  0
  9 40  1  0
 14 41  1  0
 15 42  1  1
 18 43  1  0
 19 44  1  0
 20 45  1  0
 20 46  1  0
 21 47  1  0
 21 48  1  0
 23 49  1  0
 23 50  1  0
 24 51  1  0
 24 52  1  0
 26 53  1  0
 26 54  1  0
 27 55  1  0
 27 56  1  0
 28 57  1  0
 28 58  1  0
 30 59  1  0
 31 60  1  0
 32 61  1  0
 33 62  1  0
M  END
$$$$
