
     RDKit          3D

 44 47  0  0  0  0  0  0  0  0999 V2000
   -2.3822    0.7565    1.9275 C   0  0  0  0  0  0  0  0  0  0  0  0
   -2.7481    0.1911    0.4379 C   0  0  2  0  0  0  0  0  0  0  0  0
   -1.6251   -0.7802    0.3536 C   0  0  0  0  0  0  0  0  0  0  0  0
   -0.3844   -0.3822   -0.1011 C   0  0  0  0  0  0  0  0  0  0  0  0
    0.7475   -1.1786   -0.0007 C   0  0  0  0  0  0  0  0  0  0  0  0
    2.0714   -0.7631   -0.3164 C   0  0  0  0  0  0  0  0  0  0  0  0
    2.9284   -0.4468   -1.0994 C   0  0  0  0  0  0  0  0  0  0  0  0
    2.5214   -0.4485   -2.4748 F   0  0  0  0  0  0  0  0  0  0  0  0
    4.2728    0.0222   -0.8046 C   0  0  0  0  0  0  0  0  0  0  0  0
    4.7449    0.1148    0.4900 C   0  0  0  0  0  0  0  0  0  0  0  0
    5.9889    0.6139    0.7751 C   0  0  0  0  0  0  0  0  0  0  0  0
    6.8176    1.0352   -0.2321 C   0  0  0  0  0  0  0  0  0  0  0  0
    8.0612    1.6503    0.0314 C   0  0  0  0  0  0  0  0  0  0  0  0
    9.1614    2.2182    0.2717 N   0  0  0  0  0  0  0  0  0  0  0  0
    6.3291    0.9282   -1.5232 C   0  0  0  0  0  0  0  0  0  0  0  0
    5.1120    0.4393   -1.7579 N   0  0  0  0  0  0  0  0  0  0  0  0
    0.5682   -2.4524    0.5827 C   0  0  0  0  0  0  0  0  0  0  0  0
   -0.6293   -2.8731    1.0289 C   0  0  0  0  0  0  0  0  0  0  0  0
   -1.7411   -2.0231    0.9174 C   0  0  0  0  0  0  0  0  0  0  0  0
   -2.8782   -2.5177    1.4206 F   0  0  0  0  0  0  0  0  0  0  0  0
   -2.4881    1.4006   -0.3086 N   0  0  0  0  0  0  0  0  0  0  0  0
   -3.0802    1.7292   -1.3789 C   0  0  0  0  0  0  0  0  0  0  0  0
   -2.8780    2.8784   -2.1180 N   0  0  0  0  0  0  0  0  0  0  0  0
   -4.3562    0.6163   -1.9662 S   0  0  0  0  0  0  0  0  0  0  0  0
   -5.0950   -0.0294   -0.4445 C   0  0  1  0  0  0  0  0  0  0  0  0
   -6.4207    0.4122   -0.1082 C   0  0  0  0  0  0  0  0  0  0  0  0
   -7.5483    0.8035    0.1631 N   0  0  0  0  0  0  0  0  0  0  0  0
   -4.7102   -1.4415   -0.1259 C   0  0  0  0  0  0  0  0  0  0  0  0
   -4.0964   -0.3219    0.5977 C   0  0  1  0  0  0  0  0  0  0  0  0
   -2.2478   -0.0795    2.5909 H   0  0  0  0  0  0  0  0  0  0  0  0
   -3.1908    1.4358    2.2100 H   0  0  0  0  0  0  0  0  0  0  0  0
   -1.4026    1.2261    1.7395 H   0  0  0  0  0  0  0  0  0  0  0  0
   -0.2848    0.5920   -0.5478 H   0  0  0  0  0  0  0  0  0  0  0  0
    2.5801   -0.6902    0.8182 H   0  0  0  0  0  0  0  0  0  0  0  0
    4.1610   -0.2006    1.3720 H   0  0  0  0  0  0  0  0  0  0  0  0
    6.3427    0.6687    1.7909 H   0  0  0  0  0  0  0  0  0  0  0  0
    6.9753    1.2484   -2.2940 H   0  0  0  0  0  0  0  0  0  0  0  0
    1.4834   -3.0676    0.6325 H   0  0  0  0  0  0  0  0  0  0  0  0
   -0.7262   -3.8541    1.4823 H   0  0  0  0  0  0  0  0  0  0  0  0
   -2.0726    3.5587   -1.9584 H   0  0  0  0  0  0  0  0  0  0  0  0
   -3.5053    3.2140   -2.9023 H   0  0  0  0  0  0  0  0  0  0  0  0
   -5.5384   -2.0204    0.4036 H   0  0  0  0  0  0  0  0  0  0  0  0
   -4.2834   -2.0205   -0.9342 H   0  0  0  0  0  0  0  0  0  0  0  0
   -4.5539   -0.1620    1.6490 H   0  0  0  0  0  0  0  0  0  0  0  0
  2  1  1  1
  2  3  1  0
  3  4  2  0
  4  5  1  0
  5  6  1  0
  6  7  2  0
  7  8  1  0
  7  9  1  0
  9 10  2  0
 10 11  1  0
 11 12  2  0
 12 13  1  0
 13 14  3  0
 12 15  1  0
 15 16  2  0
  5 17  2  0
 17 18  1  0
 18 19  2  0
 19 20  1  0
  2 21  1  0
 21 22  2  0
 22 23  1  0
 22 24  1  0
 24 25  1  0
 25 26  1  1
 26 27  3  0
 25 28  1  0
 28 29  1  0
 29  2  1  0
 19  3  1  0
 29 25  1  0
 16  9  1  0
  1 30  1  0
  1 31  1  0
  1 32  1  0
  4 33  1  0
  6 34  1  0
 10 35  1  0
 11 36  1  0
 15 37  1  0
 17 38  1  0
 18 39  1  0
 23 40  1  0
 23 41  1  0
 28 42  1  0
 28 43  1  0
 29 44  1  1
M  END
$$$$
