
     RDKit          3D

 42 46  0  0  0  0  0  0  0  0999 V2000
    6.1803   -0.2678   -0.4774 O   0  0  0  0  0  0  0  0  0  0  0  0
    5.0339   -1.0427   -0.5029 C   0  0  0  0  0  0  0  0  0  0  0  0
    5.0581   -2.4130   -0.6960 C   0  0  0  0  0  0  0  0  0  0  0  0
    3.8626   -3.1258   -0.7093 C   0  0  0  0  0  0  0  0  0  0  0  0
    2.6561   -2.4698   -0.5308 C   0  0  0  0  0  0  0  0  0  0  0  0
    2.6211   -1.1073   -0.3380 C   0  0  0  0  0  0  0  0  0  0  0  0
    1.3675   -0.3773   -0.1457 C   0  0  0  0  0  0  0  0  0  0  0  0
    0.1796   -0.9969   -0.1466 N   0  0  0  0  0  0  0  0  0  0  0  0
   -0.9888   -0.3548    0.0273 C   0  0  0  0  0  0  0  0  0  0  0  0
   -2.2203   -1.0580    0.0179 N   0  0  0  0  0  0  0  0  0  0  0  0
   -3.2573   -0.7505   -0.9548 C   0  0  0  0  0  0  0  0  0  0  0  0
   -4.5928   -1.2677   -0.5338 C   0  0  0  0  0  0  0  0  0  0  0  0
   -4.6169   -2.5765   -0.1480 O   0  0  0  0  0  0  0  0  0  0  0  0
   -3.4204   -3.1026    0.2564 C   0  0  0  0  0  0  0  0  0  0  0  0
   -2.5253   -2.1195    0.9674 C   0  0  0  0  0  0  0  0  0  0  0  0
   -0.9965    1.0118    0.2187 C   0  0  0  0  0  0  0  0  0  0  0  0
   -1.9089    1.9256    0.4121 O   0  0  0  0  0  0  0  0  0  0  0  0
   -1.3870    3.1132    0.5402 C   0  0  0  0  0  0  0  0  0  0  0  0
   -1.9018    4.3592    0.7513 N   0  0  0  0  0  0  0  0  0  0  0  0
   -1.1054    5.4425    0.8452 C   0  0  0  0  0  0  0  0  0  0  0  0
    0.2643    5.2907    0.7252 C   0  0  0  0  0  0  0  0  0  0  0  0
    0.8383    4.0540    0.5111 C   0  0  0  0  0  0  0  0  0  0  0  0
   -0.0247    2.9783    0.4232 C   0  0  0  0  0  0  0  0  0  0  0  0
    0.2385    1.6387    0.2172 C   0  0  0  0  0  0  0  0  0  0  0  0
    1.3593    0.9547    0.0408 N   0  0  0  0  0  0  0  0  0  0  0  0
    3.8134   -0.4170   -0.3276 C   0  0  0  0  0  0  0  0  0  0  0  0
    6.6167    0.0709    0.3795 H   0  0  0  0  0  0  0  0  0  0  0  0
    6.0189   -2.9003   -0.8333 H   0  0  0  0  0  0  0  0  0  0  0  0
    3.9424   -4.1825   -0.8626 H   0  0  0  0  0  0  0  0  0  0  0  0
    1.7375   -3.0075   -0.5396 H   0  0  0  0  0  0  0  0  0  0  0  0
   -3.3209    0.3622   -0.9959 H   0  0  0  0  0  0  0  0  0  0  0  0
   -2.9999   -1.1380   -1.9588 H   0  0  0  0  0  0  0  0  0  0  0  0
   -5.2779   -1.1669   -1.4206 H   0  0  0  0  0  0  0  0  0  0  0  0
   -5.0680   -0.6397    0.2579 H   0  0  0  0  0  0  0  0  0  0  0  0
   -3.6264   -3.9366    0.9635 H   0  0  0  0  0  0  0  0  0  0  0  0
   -2.9247   -3.5509   -0.6374 H   0  0  0  0  0  0  0  0  0  0  0  0
   -1.6333   -2.6465    1.3242 H   0  0  0  0  0  0  0  0  0  0  0  0
   -3.1058   -1.7283    1.8331 H   0  0  0  0  0  0  0  0  0  0  0  0
   -1.5181    6.4365    1.0137 H   0  0  0  0  0  0  0  0  0  0  0  0
    0.9508    6.1463    0.7952 H   0  0  0  0  0  0  0  0  0  0  0  0
    1.8858    3.8871    0.4123 H   0  0  0  0  0  0  0  0  0  0  0  0
    3.7961    0.6723   -0.1743 H   0  0  0  0  0  0  0  0  0  0  0  0
  1  2  1  0
  2  3  2  0
  3  4  1  0
  4  5  2  0
  5  6  1  0
  6  7  1  0
  7  8  2  0
  8  9  1  0
  9 10  1  0
 10 11  1  0
 11 12  1  0
 12 13  1  0
 13 14  1  0
 14 15  1  0
  9 16  2  0
 16 17  1  0
 17 18  1  0
 18 19  2  0
 19 20  1  0
 20 21  2  0
 21 22  1  0
 22 23  2  0
 23 24  1  0
 24 25  2  0
  6 26  2  0
 26  2  1  0
 25  7  1  0
 15 10  1  0
 24 16  1  0
 23 18  1  0
  1 27  1  0
  3 28  1  0
  4 29  1  0
  5 30  1  0
 11 31  1  0
 11 32  1  0
 12 33  1  0
 12 34  1  0
 14 35  1  0
 14 36  1  0
 15 37  1  0
 15 38  1  0
 20 39  1  0
 21 40  1  0
 22 41  1  0
 26 42  1  0
M  END
$$$$
