
     RDKit          3D

 45 48  0  0  0  0  0  0  0  0999 V2000
    4.4044   -2.7797   -1.3317 N   0  0  0  0  0  0  0  0  0  0  0  0
    4.1318   -2.0902   -0.4514 C   0  0  0  0  0  0  0  0  0  0  0  0
    3.7669   -1.2152    0.6461 C   0  0  0  0  0  0  0  0  0  0  0  0
    4.5713   -0.8924    1.7191 C   0  0  0  0  0  0  0  0  0  0  0  0
    3.8202   -0.0604    2.4746 N   0  0  0  0  0  0  0  0  0  0  0  0
    2.6095    0.1167    1.8874 C   0  0  0  0  0  0  0  0  0  0  0  0
    1.5077    0.8681    2.2669 C   0  0  0  0  0  0  0  0  0  0  0  0
    0.4098    0.8382    1.4385 C   0  0  0  0  0  0  0  0  0  0  0  0
    0.3898    0.0994    0.2796 C   0  0  0  0  0  0  0  0  0  0  0  0
   -0.7908    0.1005   -0.5473 C   0  0  0  0  0  0  0  0  0  0  0  0
   -1.6867   -0.9472   -0.5506 C   0  0  0  0  0  0  0  0  0  0  0  0
   -1.6055   -2.1788    0.2391 C   0  0  0  0  0  0  0  0  0  0  0  0
   -1.5157   -3.4334   -0.3250 C   0  0  0  0  0  0  0  0  0  0  0  0
   -1.4402   -4.5776    0.4428 C   0  0  0  0  0  0  0  0  0  0  0  0
   -1.4511   -4.5209    1.8213 C   0  0  0  0  0  0  0  0  0  0  0  0
   -1.3767   -5.6465    2.5802 F   0  0  0  0  0  0  0  0  0  0  0  0
   -1.5409   -3.2675    2.3913 C   0  0  0  0  0  0  0  0  0  0  0  0
   -1.6162   -2.1241    1.6223 C   0  0  0  0  0  0  0  0  0  0  0  0
   -2.6614   -0.6504   -1.4112 N   0  0  0  0  0  0  0  0  0  0  0  0
   -2.3937    0.5338   -1.9305 C   0  0  0  0  0  0  0  0  0  0  0  0
   -1.2298    1.0155   -1.4018 N   0  0  0  0  0  0  0  0  0  0  0  0
   -0.6840    2.2650   -1.7748 C   0  0  2  0  0  0  0  0  0  0  0  0
    0.6562    2.0377   -2.4969 C   0  0  0  0  0  0  0  0  0  0  0  0
    1.2043    3.2678   -2.8696 O   0  0  0  0  0  0  0  0  0  0  0  0
   -0.5842    3.3261   -0.7478 C   0  0  0  0  0  0  0  0  0  0  0  0
   -1.9785    3.6332   -0.2139 C   0  0  0  0  0  0  0  0  0  0  0  0
   -2.7259    4.0564   -1.2980 F   0  0  0  0  0  0  0  0  0  0  0  0
   -2.5528    2.5113    0.3470 F   0  0  0  0  0  0  0  0  0  0  0  0
   -1.9539    4.6886    0.6902 F   0  0  0  0  0  0  0  0  0  0  0  0
    1.4887   -0.6070   -0.0329 N   0  0  0  0  0  0  0  0  0  0  0  0
    2.5690   -0.5970    0.7521 N   0  0  0  0  0  0  0  0  0  0  0  0
    5.5956   -1.2400    1.9089 H   0  0  0  0  0  0  0  0  0  0  0  0
    1.5373    1.4440    3.1822 H   0  0  0  0  0  0  0  0  0  0  0  0
   -0.4512    1.4160    1.7203 H   0  0  0  0  0  0  0  0  0  0  0  0
   -1.5060   -3.4795   -1.4186 H   0  0  0  0  0  0  0  0  0  0  0  0
   -1.3700   -5.5615    0.0036 H   0  0  0  0  0  0  0  0  0  0  0  0
   -1.5483   -3.2330    3.4821 H   0  0  0  0  0  0  0  0  0  0  0  0
   -1.6857   -1.1537    2.0819 H   0  0  0  0  0  0  0  0  0  0  0  0
   -3.0449    1.0063   -2.6688 H   0  0  0  0  0  0  0  0  0  0  0  0
   -1.3281    2.7027   -2.5934 H   0  0  0  0  0  0  0  0  0  0  0  0
    1.3477    1.4222   -1.9224 H   0  0  0  0  0  0  0  0  0  0  0  0
    0.3998    1.5258   -3.4710 H   0  0  0  0  0  0  0  0  0  0  0  0
    0.4460    3.8440   -3.1899 H   0  0  0  0  0  0  0  0  0  0  0  0
    0.1892    3.2627   -0.0001 H   0  0  0  0  0  0  0  0  0  0  0  0
   -0.3232    4.2739   -1.3299 H   0  0  0  0  0  0  0  0  0  0  0  0
  1  2  3  0
  2  3  1  0
  3  4  2  0
  4  5  1  0
  5  6  2  0
  6  7  1  0
  7  8  2  0
  8  9  1  0
  9 10  1  0
 10 11  2  0
 11 12  1  0
 12 13  2  0
 13 14  1  0
 14 15  2  0
 15 16  1  0
 15 17  1  0
 17 18  2  0
 11 19  1  0
 19 20  2  0
 20 21  1  0
 21 22  1  0
 22 23  1  0
 23 24  1  0
 22 25  1  0
 25 26  1  0
 26 27  1  0
 26 28  1  0
 26 29  1  0
  9 30  2  0
 30 31  1  0
 31  3  1  0
 31  6  1  0
 21 10  1  0
 18 12  1  0
  4 32  1  0
  7 33  1  0
  8 34  1  0
 13 35  1  0
 14 36  1  0
 17 37  1  0
 18 38  1  0
 20 39  1  0
 22 40  1  6
 23 41  1  0
 23 42  1  0
 24 43  1  0
 25 44  1  0
 25 45  1  0
M  END
$$$$
