
     RDKit          3D

 72 75  0  0  0  0  0  0  0  0999 V2000
   -3.7330    6.2356   -1.7461 C   0  0  0  0  0  0  0  0  0  0  0  0
   -3.1106    4.9728   -1.6028 O   0  0  0  0  0  0  0  0  0  0  0  0
   -3.1307    4.3381   -0.3590 C   0  0  0  0  0  0  0  0  0  0  0  0
   -3.7321    4.8798    0.7542 C   0  0  0  0  0  0  0  0  0  0  0  0
   -3.7316    4.2224    1.9664 C   0  0  0  0  0  0  0  0  0  0  0  0
   -3.1016    2.9841    2.0389 C   0  0  0  0  0  0  0  0  0  0  0  0
   -2.4880    2.4079    0.9468 C   0  0  0  0  0  0  0  0  0  0  0  0
   -1.8490    1.1071    1.1007 C   0  0  0  0  0  0  0  0  0  0  0  0
   -2.5925   -0.0737    0.8761 C   0  0  0  0  0  0  0  0  0  0  0  0
   -4.0244    0.1398    0.5659 C   0  0  0  0  0  0  0  0  0  0  0  0
   -2.0572   -1.2953    0.9973 N   0  0  0  0  0  0  0  0  0  0  0  0
   -2.7686   -2.5350    0.7155 C   0  0  0  0  0  0  0  0  0  0  0  0
   -2.5281   -3.1730   -0.5583 C   0  0  0  0  0  0  0  0  0  0  0  0
   -2.9383   -2.6849   -1.7532 C   0  0  0  0  0  0  0  0  0  0  0  0
   -3.6082   -1.5121   -1.8852 F   0  0  0  0  0  0  0  0  0  0  0  0
   -2.7197   -3.3355   -2.9671 C   0  0  0  0  0  0  0  0  0  0  0  0
   -2.0549   -4.5275   -2.9325 C   0  0  0  0  0  0  0  0  0  0  0  0
   -1.6275   -5.0465   -1.7321 C   0  0  0  0  0  0  0  0  0  0  0  0
   -1.8508   -4.3963   -0.5517 C   0  0  0  0  0  0  0  0  0  0  0  0
   -1.4296   -4.9799    0.6236 F   0  0  0  0  0  0  0  0  0  0  0  0
   -0.7446   -1.3379    1.3558 C   0  0  0  0  0  0  0  0  0  0  0  0
   -0.2161   -2.4725    1.4814 O   0  0  0  0  0  0  0  0  0  0  0  0
    0.0357   -0.2585    1.5892 N   0  0  0  0  0  0  0  0  0  0  0  0
    1.4171   -0.4445    1.9562 C   0  0  0  0  0  0  0  0  0  0  0  0
    2.3966   -0.4917    0.8321 C   0  0  2  0  0  0  0  0  0  0  0  0
    2.4781    0.6959    0.0538 N   0  0  0  0  0  0  0  0  0  0  0  0
    3.1631    1.7977    0.6898 C   0  0  0  0  0  0  0  0  0  0  0  0
    4.6540    1.5570    0.8381 C   0  0  0  0  0  0  0  0  0  0  0  0
    5.2643    1.3568   -0.5244 C   0  0  0  0  0  0  0  0  0  0  0  0
    6.7269    1.1153   -0.4426 C   0  0  0  0  0  0  0  0  0  0  0  0
    7.3479    0.9409   -1.5207 O   0  0  0  0  0  0  0  0  0  0  0  0
    7.4432    1.0707    0.7400 O   0  0  0  0  0  0  0  0  0  0  0  0
    2.3279   -1.7304    0.0191 C   0  0  0  0  0  0  0  0  0  0  0  0
    3.0539   -2.8373    0.3947 C   0  0  0  0  0  0  0  0  0  0  0  0
    3.0344   -4.0168   -0.3303 C   0  0  0  0  0  0  0  0  0  0  0  0
    2.2533   -4.0602   -1.4642 C   0  0  0  0  0  0  0  0  0  0  0  0
    1.5052   -2.9603   -1.8753 C   0  0  0  0  0  0  0  0  0  0  0  0
    1.5584   -1.8174   -1.1241 C   0  0  0  0  0  0  0  0  0  0  0  0
   -0.5282    0.9439    1.4580 C   0  0  0  0  0  0  0  0  0  0  0  0
    0.1024    2.0217    1.6516 O   0  0  0  0  0  0  0  0  0  0  0  0
   -2.5126    3.0969   -0.2393 C   0  0  0  0  0  0  0  0  0  0  0  0
   -1.8957    2.5033   -1.3080 F   0  0  0  0  0  0  0  0  0  0  0  0
   -4.8272    6.1874   -1.4847 H   0  0  0  0  0  0  0  0  0  0  0  0
   -3.2737    6.9174   -1.0070 H   0  0  0  0  0  0  0  0  0  0  0  0
   -3.5736    6.6157   -2.7718 H   0  0  0  0  0  0  0  0  0  0  0  0
   -4.2160    5.8396    0.6802 H   0  0  0  0  0  0  0  0  0  0  0  0
   -4.2121    4.6611    2.8422 H   0  0  0  0  0  0  0  0  0  0  0  0
   -3.1183    2.4941    3.0023 H   0  0  0  0  0  0  0  0  0  0  0  0
   -4.5245    0.7631    1.3498 H   0  0  0  0  0  0  0  0  0  0  0  0
   -4.6110   -0.7684    0.4672 H   0  0  0  0  0  0  0  0  0  0  0  0
   -4.1146    0.6824   -0.4234 H   0  0  0  0  0  0  0  0  0  0  0  0
   -2.4002   -3.2143    1.5765 H   0  0  0  0  0  0  0  0  0  0  0  0
   -3.8296   -2.4045    0.9826 H   0  0  0  0  0  0  0  0  0  0  0  0
   -3.0500   -2.9404   -3.9181 H   0  0  0  0  0  0  0  0  0  0  0  0
   -1.8633   -5.0686   -3.8598 H   0  0  0  0  0  0  0  0  0  0  0  0
   -1.0894   -6.0096   -1.6957 H   0  0  0  0  0  0  0  0  0  0  0  0
    1.5591   -1.4059    2.5360 H   0  0  0  0  0  0  0  0  0  0  0  0
    1.7697    0.3397    2.6713 H   0  0  0  0  0  0  0  0  0  0  0  0
    3.4043   -0.5528    1.3568 H   0  0  0  0  0  0  0  0  0  0  0  0
    2.7174    0.5769   -0.9389 H   0  0  0  0  0  0  0  0  0  0  0  0
    2.7681    1.8523    1.7471 H   0  0  0  0  0  0  0  0  0  0  0  0
    2.9951    2.7556    0.2112 H   0  0  0  0  0  0  0  0  0  0  0  0
    4.9172    0.7774    1.5563 H   0  0  0  0  0  0  0  0  0  0  0  0
    5.0728    2.5148    1.2462 H   0  0  0  0  0  0  0  0  0  0  0  0
    5.1265    2.2424   -1.1663 H   0  0  0  0  0  0  0  0  0  0  0  0
    4.8055    0.4900   -1.0210 H   0  0  0  0  0  0  0  0  0  0  0  0
    8.3774    0.7345    0.8251 H   0  0  0  0  0  0  0  0  0  0  0  0
    3.6756   -2.7966    1.3006 H   0  0  0  0  0  0  0  0  0  0  0  0
    3.6271   -4.8448    0.0198 H   0  0  0  0  0  0  0  0  0  0  0  0
    2.2084   -4.9633   -2.0623 H   0  0  0  0  0  0  0  0  0  0  0  0
    0.8870   -2.9665   -2.7585 H   0  0  0  0  0  0  0  0  0  0  0  0
    1.0034   -0.9091   -1.3756 H   0  0  0  0  0  0  0  0  0  0  0  0
  1  2  1  0
  2  3  1  0
  3  4  2  0
  4  5  1  0
  5  6  2  0
  6  7  1  0
  7  8  1  0
  8  9  2  0
  9 10  1  0
  9 11  1  0
 11 12  1  0
 12 13  1  0
 13 14  2  0
 14 15  1  0
 14 16  1  0
 16 17  2  0
 17 18  1  0
 18 19  2  0
 19 20  1  0
 11 21  1  0
 21 22  2  0
 21 23  1  0
 23 24  1  0
 24 25  1  0
 25 26  1  0
 26 27  1  0
 27 28  1  0
 28 29  1  0
 29 30  1  0
 30 31  2  0
 30 32  1  0
 25 33  1  0
 33 34  2  0
 34 35  1  0
 35 36  2  0
 36 37  1  0
 37 38  2  0
 23 39  1  0
 39 40  2  0
  7 41  2  0
 41 42  1  0
 41  3  1  0
 39  8  1  0
 19 13  1  0
 38 33  1  0
  1 43  1  0
  1 44  1  0
  1 45  1  0
  4 46  1  0
  5 47  1  0
  6 48  1  0
 10 49  1  0
 10 50  1  0
 10 51  1  0
 12 52  1  0
 12 53  1  0
 16 54  1  0
 17 55  1  0
 18 56  1  0
 24 57  1  0
 24 58  1  0
 25 59  1  1
 26 60  1  0
 27 61  1  0
 27 62  1  0
 28 63  1  0
 28 64  1  0
 29 65  1  0
 29 66  1  0
 32 67  1  0
 34 68  1  0
 35 69  1  0
 36 70  1  0
 37 71  1  0
 38 72  1  0
M  END
$$$$
