
     RDKit          3D

 77 79  0  0  0  0  0  0  0  0999 V2000
   -2.8416    3.9936    0.8231 C   0  0  0  0  0  0  0  0  0  0  0  0
   -2.3769    2.5795    0.9144 N   0  0  0  0  0  0  0  0  0  0  0  0
   -3.5378    1.7369    1.0590 C   0  0  2  0  0  0  0  0  0  0  0  0
   -3.2324    0.3818    1.5544 C   0  0  0  0  0  0  0  0  0  0  0  0
   -2.3307   -0.4399    0.8093 N   0  0  0  0  0  0  0  0  0  0  0  0
   -0.9402   -0.2087    0.6634 C   0  0  0  0  0  0  0  0  0  0  0  0
   -0.4681    0.8147    1.2847 O   0  0  0  0  0  0  0  0  0  0  0  0
   -0.0752   -1.0123   -0.0997 N   0  0  0  0  0  0  0  0  0  0  0  0
   -0.5357   -2.1546   -0.8160 C   0  0  0  0  0  0  0  0  0  0  0  0
    0.1227   -3.3442   -0.0944 C   0  0  0  0  0  0  0  0  0  0  0  0
    1.6113   -3.2283   -0.2833 C   0  0  0  0  0  0  0  0  0  0  0  0
    2.1855   -1.9166    0.1354 C   0  0  1  0  0  0  0  0  0  0  0  0
    3.5381   -1.7611   -0.5135 C   0  0  1  0  0  0  0  0  0  0  0  0
    4.1807   -0.5875   -0.2056 O   0  0  0  0  0  0  0  0  0  0  0  0
    4.4709    0.1036   -1.3692 C   0  0  0  0  0  0  0  0  0  0  0  0
    5.1765    1.4124   -1.1059 C   0  0  0  0  0  0  0  0  0  0  0  0
    4.4127    2.3089   -0.2991 N   0  0  0  0  0  0  0  0  0  0  0  0
    4.9564    3.5741    0.0248 C   0  0  0  0  0  0  0  0  0  0  0  0
    6.1072    3.8799   -0.4092 O   0  0  0  0  0  0  0  0  0  0  0  0
    4.2893    4.5111    0.8022 O   0  0  0  0  0  0  0  0  0  0  0  0
    4.9163    5.7511    1.0723 C   0  0  0  0  0  0  0  0  0  0  0  0
    4.4028   -2.9484   -0.1431 C   0  0  0  0  0  0  0  0  0  0  0  0
    4.5569   -3.9869   -1.0170 C   0  0  0  0  0  0  0  0  0  0  0  0
    5.3440   -5.1020   -0.7152 C   0  0  0  0  0  0  0  0  0  0  0  0
    5.9624   -5.1029    0.5170 C   0  0  0  0  0  0  0  0  0  0  0  0
    5.8197   -4.0625    1.4157 C   0  0  0  0  0  0  0  0  0  0  0  0
    6.6546   -4.1803    2.9467 Cl  0  0  0  0  0  0  0  0  0  0  0  0
    5.0315   -2.9844    1.0698 C   0  0  0  0  0  0  0  0  0  0  0  0
    1.3383   -0.7288   -0.1989 C   0  0  0  0  0  0  0  0  0  0  0  0
   -4.2051    1.6732   -0.3077 C   0  0  0  0  0  0  0  0  0  0  0  0
   -5.4412    0.8299   -0.3275 C   0  0  1  0  0  0  0  0  0  0  0  0
   -6.4591    1.3699    0.6244 C   0  0  0  0  0  0  0  0  0  0  0  0
   -7.7085    0.5086    0.5694 C   0  0  0  0  0  0  0  0  0  0  0  0
   -7.9050   -0.0218   -0.8325 C   0  0  0  0  0  0  0  0  0  0  0  0
   -7.4127    0.9129   -1.7123 O   0  0  0  0  0  0  0  0  0  0  0  0
   -6.0111    0.8804   -1.7418 C   0  0  0  0  0  0  0  0  0  0  0  0
   -3.7541    4.0246    1.4537 H   0  0  0  0  0  0  0  0  0  0  0  0
   -3.1016    4.1557   -0.2262 H   0  0  0  0  0  0  0  0  0  0  0  0
   -2.0493    4.6606    1.2067 H   0  0  0  0  0  0  0  0  0  0  0  0
   -1.9338    2.3787   -0.0598 H   0  0  0  0  0  0  0  0  0  0  0  0
   -4.2223    2.2343    1.7948 H   0  0  0  0  0  0  0  0  0  0  0  0
   -4.1982   -0.1669    1.7236 H   0  0  0  0  0  0  0  0  0  0  0  0
   -2.8169    0.4240    2.6270 H   0  0  0  0  0  0  0  0  0  0  0  0
   -2.7634   -1.2983    0.3291 H   0  0  0  0  0  0  0  0  0  0  0  0
   -0.1035   -2.1716   -1.8731 H   0  0  0  0  0  0  0  0  0  0  0  0
   -1.6045   -2.2911   -0.9220 H   0  0  0  0  0  0  0  0  0  0  0  0
   -0.1980   -4.3013   -0.5124 H   0  0  0  0  0  0  0  0  0  0  0  0
   -0.0993   -3.2173    0.9857 H   0  0  0  0  0  0  0  0  0  0  0  0
    2.0814   -4.0302    0.3221 H   0  0  0  0  0  0  0  0  0  0  0  0
    1.8165   -3.4754   -1.3455 H   0  0  0  0  0  0  0  0  0  0  0  0
    2.3571   -1.9064    1.2372 H   0  0  0  0  0  0  0  0  0  0  0  0
    3.3945   -1.8026   -1.6203 H   0  0  0  0  0  0  0  0  0  0  0  0
    5.2381   -0.5320   -1.9075 H   0  0  0  0  0  0  0  0  0  0  0  0
    3.6239    0.2004   -2.0506 H   0  0  0  0  0  0  0  0  0  0  0  0
    6.1890    1.2419   -0.6956 H   0  0  0  0  0  0  0  0  0  0  0  0
    5.3305    1.8913   -2.1089 H   0  0  0  0  0  0  0  0  0  0  0  0
    3.4678    2.0338    0.0459 H   0  0  0  0  0  0  0  0  0  0  0  0
    5.0844    6.2461    0.0978 H   0  0  0  0  0  0  0  0  0  0  0  0
    5.9352    5.5945    1.5193 H   0  0  0  0  0  0  0  0  0  0  0  0
    4.2799    6.3282    1.7533 H   0  0  0  0  0  0  0  0  0  0  0  0
    4.0679   -3.9777   -1.9841 H   0  0  0  0  0  0  0  0  0  0  0  0
    5.4372   -5.8920   -1.4279 H   0  0  0  0  0  0  0  0  0  0  0  0
    6.5831   -5.9794    0.7583 H   0  0  0  0  0  0  0  0  0  0  0  0
    4.9220   -2.1623    1.7863 H   0  0  0  0  0  0  0  0  0  0  0  0
    1.5561    0.1366    0.4567 H   0  0  0  0  0  0  0  0  0  0  0  0
    1.4820   -0.3567   -1.2541 H   0  0  0  0  0  0  0  0  0  0  0  0
   -3.4534    1.1562   -0.9736 H   0  0  0  0  0  0  0  0  0  0  0  0
   -4.3866    2.6683   -0.7238 H   0  0  0  0  0  0  0  0  0  0  0  0
   -5.1710   -0.2214   -0.0622 H   0  0  0  0  0  0  0  0  0  0  0  0
   -6.0467    1.3448    1.6446 H   0  0  0  0  0  0  0  0  0  0  0  0
   -6.7118    2.4145    0.3065 H   0  0  0  0  0  0  0  0  0  0  0  0
   -8.5704    1.1283    0.8950 H   0  0  0  0  0  0  0  0  0  0  0  0
   -7.5900   -0.3787    1.2373 H   0  0  0  0  0  0  0  0  0  0  0  0
   -8.9818   -0.2336   -1.0445 H   0  0  0  0  0  0  0  0  0  0  0  0
   -7.4007   -1.0260   -0.9355 H   0  0  0  0  0  0  0  0  0  0  0  0
   -5.5965    1.7476   -2.2753 H   0  0  0  0  0  0  0  0  0  0  0  0
   -5.6894   -0.0412   -2.2723 H   0  0  0  0  0  0  0  0  0  0  0  0
  1  2  1  0
  2  3  1  0
  3  4  1  0
  4  5  1  0
  5  6  1  0
  6  7  2  0
  6  8  1  0
  8  9  1  0
  9 10  1  0
 10 11  1  0
 11 12  1  0
 12 13  1  0
 13 14  1  0
 14 15  1  0
 15 16  1  0
 16 17  1  0
 17 18  1  0
 18 19  2  0
 18 20  1  0
 20 21  1  0
 13 22  1  0
 22 23  2  0
 23 24  1  0
 24 25  2  0
 25 26  1  0
 26 27  1  0
 26 28  2  0
 12 29  1  0
  3 30  1  0
 30 31  1  0
 31 32  1  0
 32 33  1  0
 33 34  1  0
 34 35  1  0
 35 36  1  0
 29  8  1  0
 36 31  1  0
 28 22  1  0
  1 37  1  0
  1 38  1  0
  1 39  1  0
  2 40  1  0
  3 41  1  1
  4 42  1  0
  4 43  1  0
  5 44  1  0
  9 45  1  0
  9 46  1  0
 10 47  1  0
 10 48  1  0
 11 49  1  0
 11 50  1  0
 12 51  1  1
 13 52  1  6
 15 53  1  0
 15 54  1  0
 16 55  1  0
 16 56  1  0
 17 57  1  0
 21 58  1  0
 21 59  1  0
 21 60  1  0
 23 61  1  0
 24 62  1  0
 25 63  1  0
 28 64  1  0
 29 65  1  0
 29 66  1  0
 30 67  1  0
 30 68  1  0
 31 69  1  1
 32 70  1  0
 32 71  1  0
 33 72  1  0
 33 73  1  0
 34 74  1  0
 34 75  1  0
 36 76  1  0
 36 77  1  0
M  END
$$$$
