
     RDKit          3D

 68 72  0  0  0  0  0  0  0  0999 V2000
   -0.4407    0.8835   -0.6836 C   0  0  0  0  0  0  0  0  0  0  0  0
    0.5219    0.0414   -1.2458 C   0  0  0  0  0  0  0  0  0  0  0  0
    0.9861   -1.0462   -0.5572 C   0  0  0  0  0  0  0  0  0  0  0  0
    1.9917   -1.9277   -1.1419 C   0  0  0  0  0  0  0  0  0  0  0  0
    3.3058   -1.4033   -0.7843 N   0  0  0  0  0  0  0  0  0  0  0  0
    3.9119   -1.8037    0.3453 C   0  0  0  0  0  0  0  0  0  0  0  0
    5.1530   -1.3195    0.7016 C   0  0  0  0  0  0  0  0  0  0  0  0
    5.8413   -0.3987   -0.0798 C   0  0  0  0  0  0  0  0  0  0  0  0
    6.9798    0.0253    0.2830 N   0  0  0  0  0  4  0  0  0  0  0  0
    7.5535   -0.4778    1.5466 C   0  0  0  0  0  0  0  0  0  0  0  0
    8.8298    0.2804    1.8607 C   0  0  0  0  0  0  0  0  0  0  0  0
    9.8709    0.1288    0.7952 C   0  0  0  0  0  0  0  0  0  0  0  0
    9.2528    0.4580   -0.5232 C   0  0  0  0  0  0  0  0  0  0  0  0
    7.8265    0.9703   -0.4021 C   0  0  0  0  0  0  0  0  0  0  0  0
    5.2126    0.0028   -1.2309 C   0  0  0  0  0  0  0  0  0  0  0  0
    3.9506   -0.5147   -1.5553 C   0  0  0  0  0  0  0  0  0  0  0  0
    0.4912   -1.3027    0.7023 C   0  0  0  0  0  0  0  0  0  0  0  0
   -0.4558   -0.4945    1.2837 C   0  0  0  0  0  0  0  0  0  0  0  0
   -0.9165    0.5947    0.5867 C   0  0  0  0  0  0  0  0  0  0  0  0
   -1.9353    1.4981    1.1706 C   0  0  0  0  0  0  0  0  0  0  0  0
   -3.2740    1.0902    0.8393 N   0  0  0  0  0  0  0  0  0  0  0  0
   -3.9452    0.2456    1.6266 C   0  0  0  0  0  0  0  0  0  0  0  0
   -5.2305   -0.1391    1.2996 C   0  0  0  0  0  0  0  0  0  0  0  0
   -5.8616    0.3204    0.1740 C   0  0  0  0  0  0  0  0  0  0  0  0
   -7.0431    0.0122   -0.2008 N   0  0  0  0  0  4  0  0  0  0  0  0
   -7.6104    0.5774   -1.4363 C   0  0  0  0  0  0  0  0  0  0  0  0
   -9.0536    0.1481   -1.5129 C   0  0  0  0  0  0  0  0  0  0  0  0
   -9.8325    0.3966   -0.2560 C   0  0  0  0  0  0  0  0  0  0  0  0
   -9.0978   -0.0631    0.9873 C   0  0  0  0  0  0  0  0  0  0  0  0
   -7.9198   -0.8888    0.5102 C   0  0  0  0  0  0  0  0  0  0  0  0
   -5.1246    1.1984   -0.6169 C   0  0  0  0  0  0  0  0  0  0  0  0
   -3.8408    1.5703   -0.2721 C   0  0  0  0  0  0  0  0  0  0  0  0
   -0.8050    1.7430   -1.2323 H   0  0  0  0  0  0  0  0  0  0  0  0
    0.8627    0.3062   -2.2372 H   0  0  0  0  0  0  0  0  0  0  0  0
    1.8368   -1.9599   -2.2348 H   0  0  0  0  0  0  0  0  0  0  0  0
    1.9646   -2.9710   -0.7780 H   0  0  0  0  0  0  0  0  0  0  0  0
    3.4132   -2.5233    0.9904 H   0  0  0  0  0  0  0  0  0  0  0  0
    5.6500   -1.6466    1.6239 H   0  0  0  0  0  0  0  0  0  0  0  0
    6.8652   -0.2200    2.4032 H   0  0  0  0  0  0  0  0  0  0  0  0
    7.7954   -1.5376    1.4886 H   0  0  0  0  0  0  0  0  0  0  0  0
    8.5750    1.3631    2.0315 H   0  0  0  0  0  0  0  0  0  0  0  0
    9.1935   -0.0763    2.8528 H   0  0  0  0  0  0  0  0  0  0  0  0
   10.2999   -0.8851    0.8659 H   0  0  0  0  0  0  0  0  0  0  0  0
   10.6937    0.8483    1.0546 H   0  0  0  0  0  0  0  0  0  0  0  0
    9.2949   -0.4318   -1.1728 H   0  0  0  0  0  0  0  0  0  0  0  0
    9.8280    1.2782   -1.0043 H   0  0  0  0  0  0  0  0  0  0  0  0
    7.8749    1.9245    0.2018 H   0  0  0  0  0  0  0  0  0  0  0  0
    7.5208    1.2655   -1.3968 H   0  0  0  0  0  0  0  0  0  0  0  0
    5.6920    0.7176   -1.8838 H   0  0  0  0  0  0  0  0  0  0  0  0
    3.4784   -0.1812   -2.4675 H   0  0  0  0  0  0  0  0  0  0  0  0
    0.8285   -2.1552    1.2898 H   0  0  0  0  0  0  0  0  0  0  0  0
   -0.8258   -0.7066    2.2545 H   0  0  0  0  0  0  0  0  0  0  0  0
   -1.8290    1.4690    2.2877 H   0  0  0  0  0  0  0  0  0  0  0  0
   -1.7323    2.5653    0.8822 H   0  0  0  0  0  0  0  0  0  0  0  0
   -3.4482   -0.1212    2.5200 H   0  0  0  0  0  0  0  0  0  0  0  0
   -5.7243   -0.8107    1.9570 H   0  0  0  0  0  0  0  0  0  0  0  0
   -7.5727    1.6865   -1.3681 H   0  0  0  0  0  0  0  0  0  0  0  0
   -7.0685    0.1559   -2.2896 H   0  0  0  0  0  0  0  0  0  0  0  0
   -9.1915   -0.8674   -1.9421 H   0  0  0  0  0  0  0  0  0  0  0  0
   -9.5180    0.8272   -2.2914 H   0  0  0  0  0  0  0  0  0  0  0  0
  -10.7558   -0.2165   -0.3173 H   0  0  0  0  0  0  0  0  0  0  0  0
  -10.1239    1.4636   -0.2114 H   0  0  0  0  0  0  0  0  0  0  0  0
   -9.7515   -0.6161    1.6891 H   0  0  0  0  0  0  0  0  0  0  0  0
   -8.7703    0.8618    1.5263 H   0  0  0  0  0  0  0  0  0  0  0  0
   -7.4596   -1.4949    1.2818 H   0  0  0  0  0  0  0  0  0  0  0  0
   -8.3385   -1.5854   -0.2536 H   0  0  0  0  0  0  0  0  0  0  0  0
   -5.5562    1.6071   -1.5301 H   0  0  0  0  0  0  0  0  0  0  0  0
   -3.2938    2.2615   -0.9179 H   0  0  0  0  0  0  0  0  0  0  0  0
  1  2  2  0
  2  3  1  0
  3  4  1  0
  4  5  1  0
  5  6  1  0
  6  7  2  0
  7  8  1  0
  8  9  2  3
  9 10  1  0
 10 11  1  0
 11 12  1  0
 12 13  1  0
 13 14  1  0
  8 15  1  0
 15 16  2  0
  3 17  2  0
 17 18  1  0
 18 19  2  0
 19 20  1  0
 20 21  1  0
 21 22  1  0
 22 23  2  0
 23 24  1  0
 24 25  2  3
 25 26  1  0
 26 27  1  0
 27 28  1  0
 28 29  1  0
 29 30  1  0
 24 31  1  0
 31 32  2  0
 19  1  1  0
 32 21  1  0
 16  5  1  0
 30 25  1  0
 14  9  1  0
  1 33  1  0
  2 34  1  0
  4 35  1  0
  4 36  1  0
  6 37  1  0
  7 38  1  0
 10 39  1  0
 10 40  1  0
 11 41  1  0
 11 42  1  0
 12 43  1  0
 12 44  1  0
 13 45  1  0
 13 46  1  0
 14 47  1  0
 14 48  1  0
 15 49  1  0
 16 50  1  0
 17 51  1  0
 18 52  1  0
 20 53  1  0
 20 54  1  0
 22 55  1  0
 23 56  1  0
 26 57  1  0
 26 58  1  0
 27 59  1  0
 27 60  1  0
 28 61  1  0
 28 62  1  0
 29 63  1  0
 29 64  1  0
 30 65  1  0
 30 66  1  0
 31 67  1  0
 32 68  1  0
M  CHG  2   9   1  25   1
M  END
$$$$
