
     RDKit          3D

 18 17  0  0  0  0  0  0  0  0999 V2000
    2.4401    0.5011   -1.2140 O   0  0  0  0  0  0  0  0  0  0  0  0
    1.7812    0.0637   -0.1104 N   0  0  0  0  0  0  0  0  0  0  0  0
    0.4472    0.5744    0.2469 C   0  0  0  0  0  0  0  0  0  0  0  0
   -0.5097   -0.3501   -0.4466 C   0  0  0  0  0  0  0  0  0  0  0  0
   -2.2372    0.0206   -0.1977 P   0  0  0  0  0  0  0  0  0  0  0  0
   -2.5584    1.5134    0.4699 O   0  0  0  0  0  0  0  0  0  0  0  0
   -3.0269   -1.1738    0.7131 O   0  0  0  0  0  0  0  0  0  0  0  0
   -2.9078   -0.0064   -1.5729 O   0  0  0  0  0  0  0  0  0  0  0  0
    2.4546   -0.9135    0.6762 C   0  0  0  0  0  0  0  0  0  0  0  0
    3.5728   -1.2727    0.2840 O   0  0  0  0  0  0  0  0  0  0  0  0
    2.9802    1.2682   -0.9059 H   0  0  0  0  0  0  0  0  0  0  0  0
    0.3852    1.6182   -0.0759 H   0  0  0  0  0  0  0  0  0  0  0  0
    0.3678    0.5061    1.3502 H   0  0  0  0  0  0  0  0  0  0  0  0
   -0.2068   -0.3017   -1.5334 H   0  0  0  0  0  0  0  0  0  0  0  0
   -0.2193   -1.3822   -0.1506 H   0  0  0  0  0  0  0  0  0  0  0  0
   -2.2598    2.2147   -0.1480 H   0  0  0  0  0  0  0  0  0  0  0  0
   -2.4509   -1.5902    1.3966 H   0  0  0  0  0  0  0  0  0  0  0  0
    1.9477   -1.2896    1.5784 H   0  0  0  0  0  0  0  0  0  0  0  0
  1  2  1  0
  2  3  1  0
  3  4  1  0
  4  5  1  0
  5  6  1  0
  5  7  1  0
  5  8  2  0
  2  9  1  0
  9 10  2  0
  1 11  1  0
  3 12  1  0
  3 13  1  0
  4 14  1  0
  4 15  1  0
  6 16  1  0
  7 17  1  0
  9 18  1  0
M  END
$$$$
