
     RDKit          3D

 48 50  0  0  0  0  0  0  0  0999 V2000
    4.9159    0.3681    0.9261 C   0  0  0  0  0  0  0  0  0  0  0  0
    3.7194   -0.3611    0.4562 N   0  0  0  0  0  0  0  0  0  0  0  0
    3.4756   -1.3252    1.5642 C   0  0  0  0  0  0  0  0  0  0  0  0
    4.0634   -1.1777   -0.6852 C   0  0  0  0  0  0  0  0  0  0  0  0
    2.8938   -1.8236   -1.3716 C   0  0  0  0  0  0  0  0  0  0  0  0
    1.9835   -0.8025   -1.9014 C   0  0  0  0  0  0  0  0  0  0  0  0
    2.0182   -0.4253   -3.2473 C   0  0  0  0  0  0  0  0  0  0  0  0
    1.1454    0.5368   -3.5777 N   0  0  0  0  0  0  0  0  0  0  0  0
    0.4969    0.8203   -2.4134 C   0  0  0  0  0  0  0  0  0  0  0  0
    0.9982    0.0163   -1.4038 C   0  0  0  0  0  0  0  0  0  0  0  0
    0.5283    0.0833   -0.1106 C   0  0  0  0  0  0  0  0  0  0  0  0
   -0.4885    0.9724    0.2695 C   0  0  0  0  0  0  0  0  0  0  0  0
   -0.8489    0.9731    1.6834 C   0  0  0  0  0  0  0  0  0  0  0  0
   -1.9440   -0.2307    2.2832 S   0  0  0  0  0  0  0  0  0  0  0  0
   -2.0480   -0.0296    3.8095 O   0  0  0  0  0  0  0  0  0  0  0  0
   -1.2949   -1.6165    2.1910 O   0  0  0  0  0  0  0  0  0  0  0  0
   -3.4807   -0.2257    1.6070 N   0  0  0  0  0  0  0  0  0  0  0  0
   -3.6664   -0.4688    0.2387 C   0  0  0  0  0  0  0  0  0  0  0  0
   -5.1847   -0.2655    0.1049 C   0  0  0  0  0  0  0  0  0  0  0  0
   -5.4371    0.9452    0.9864 C   0  0  0  0  0  0  0  0  0  0  0  0
   -4.2968    0.8841    1.9851 C   0  0  0  0  0  0  0  0  0  0  0  0
   -0.9461    1.7467   -0.7803 C   0  0  0  0  0  0  0  0  0  0  0  0
   -0.4997    1.7026   -2.0780 C   0  0  0  0  0  0  0  0  0  0  0  0
    5.2301    1.1355    0.2096 H   0  0  0  0  0  0  0  0  0  0  0  0
    5.7659   -0.3297    1.0717 H   0  0  0  0  0  0  0  0  0  0  0  0
    4.6623    0.7729    1.9305 H   0  0  0  0  0  0  0  0  0  0  0  0
    4.4737   -1.7073    1.8523 H   0  0  0  0  0  0  0  0  0  0  0  0
    2.8184   -2.1193    1.1726 H   0  0  0  0  0  0  0  0  0  0  0  0
    3.0286   -0.7944    2.4283 H   0  0  0  0  0  0  0  0  0  0  0  0
    4.8029   -1.9795   -0.3833 H   0  0  0  0  0  0  0  0  0  0  0  0
    4.6680   -0.5625   -1.4156 H   0  0  0  0  0  0  0  0  0  0  0  0
    3.2892   -2.4621   -2.2159 H   0  0  0  0  0  0  0  0  0  0  0  0
    2.3702   -2.5594   -0.7203 H   0  0  0  0  0  0  0  0  0  0  0  0
    2.6599   -0.8171   -4.0393 H   0  0  0  0  0  0  0  0  0  0  0  0
    0.8859    1.0625   -4.4329 H   0  0  0  0  0  0  0  0  0  0  0  0
    0.9361   -0.5663    0.6378 H   0  0  0  0  0  0  0  0  0  0  0  0
   -1.2876    1.9912    1.9646 H   0  0  0  0  0  0  0  0  0  0  0  0
    0.0766    0.9474    2.3478 H   0  0  0  0  0  0  0  0  0  0  0  0
   -3.1558    0.2145   -0.4201 H   0  0  0  0  0  0  0  0  0  0  0  0
   -3.4268   -1.5392   -0.0091 H   0  0  0  0  0  0  0  0  0  0  0  0
   -5.4465   -0.0098   -0.9207 H   0  0  0  0  0  0  0  0  0  0  0  0
   -5.7209   -1.1374    0.4722 H   0  0  0  0  0  0  0  0  0  0  0  0
   -5.2911    1.8637    0.3889 H   0  0  0  0  0  0  0  0  0  0  0  0
   -6.3788    0.9006    1.5351 H   0  0  0  0  0  0  0  0  0  0  0  0
   -3.6872    1.8180    1.9899 H   0  0  0  0  0  0  0  0  0  0  0  0
   -4.6923    0.7819    3.0267 H   0  0  0  0  0  0  0  0  0  0  0  0
   -1.7438    2.4405   -0.4711 H   0  0  0  0  0  0  0  0  0  0  0  0
   -0.9395    2.3590   -2.8034 H   0  0  0  0  0  0  0  0  0  0  0  0
  1  2  1  0
  2  3  1  0
  2  4  1  0
  4  5  1  0
  5  6  1  0
  6  7  2  0
  7  8  1  0
  8  9  1  0
  9 10  2  0
 10 11  1  0
 11 12  2  0
 12 13  1  0
 13 14  1  0
 14 15  2  0
 14 16  2  0
 14 17  1  0
 17 18  1  0
 18 19  1  0
 19 20  1  0
 20 21  1  0
 12 22  1  0
 22 23  2  0
 10  6  1  0
 21 17  1  0
 23  9  1  0
  1 24  1  0
  1 25  1  0
  1 26  1  0
  3 27  1  0
  3 28  1  0
  3 29  1  0
  4 30  1  0
  4 31  1  0
  5 32  1  0
  5 33  1  0
  7 34  1  0
  8 35  1  0
 11 36  1  0
 13 37  1  0
 13 38  1  0
 18 39  1  0
 18 40  1  0
 19 41  1  0
 19 42  1  0
 20 43  1  0
 20 44  1  0
 21 45  1  0
 21 46  1  0
 22 47  1  0
 23 48  1  0
M  END
$$$$
