
     RDKit          3D

 76 78  0  0  0  0  0  0  0  0999 V2000
   -8.3838    2.3147    0.4675 C   0  0  0  0  0  0  0  0  0  0  0  0
   -7.8336    1.3302   -0.3158 O   0  0  0  0  0  0  0  0  0  0  0  0
   -7.3639    0.2903    0.4115 C   0  0  0  0  0  0  0  0  0  0  0  0
   -6.2639    0.6889    1.3759 C   0  0  0  0  0  0  0  0  0  0  0  0
   -5.8571   -0.6143    2.0644 C   0  0  0  0  0  0  0  0  0  0  0  0
   -5.3937   -1.5100    1.1380 O   0  0  0  0  0  0  0  0  0  0  0  0
   -4.2737   -1.4212    0.3735 C   0  0  0  0  0  0  0  0  0  0  0  0
   -3.3172   -0.4364    0.3924 C   0  0  0  0  0  0  0  0  0  0  0  0
   -2.2000   -0.4176   -0.4332 C   0  0  0  0  0  0  0  0  0  0  0  0
   -1.2687    0.6823   -0.3204 C   0  0  0  0  0  0  0  0  0  0  0  0
   -1.7023    1.8246   -0.5526 O   0  0  0  0  0  0  0  0  0  0  0  0
    0.1156    0.4854    0.0448 N   0  0  0  0  0  0  0  0  0  0  0  0
    0.9933    1.5882    0.1109 C   0  0  0  0  0  0  0  0  0  0  0  0
    1.7509    2.1051   -1.0181 C   0  0  2  0  0  0  0  0  0  0  0  0
    0.9629    2.5689   -2.2297 C   0  0  0  0  0  0  0  0  0  0  0  0
    0.9016    1.3197   -2.9729 N   0  0  0  0  0  0  0  0  0  0  0  0
    2.3253    0.9888   -3.0316 C   0  0  0  0  0  0  0  0  0  0  0  0
    2.8390    1.3365   -1.6564 C   0  0  1  0  0  0  0  0  0  0  0  0
    4.0936    2.0700   -1.7306 N   0  0  0  0  0  0  0  0  0  0  0  0
    5.4013    1.3111   -0.9854 S   0  0  0  0  0  6  0  0  0  0  0  0
    5.7176   -0.0034   -1.6762 O   0  0  0  0  0  0  0  0  0  0  0  0
    6.6206    2.1727   -1.1621 O   0  0  0  0  0  0  0  0  0  0  0  0
    5.1808    1.0644    0.7590 C   0  0  0  0  0  0  0  0  0  0  0  0
    6.3567    0.3961    1.3650 C   0  0  0  0  0  0  0  0  0  0  0  0
    6.4589   -0.9708    1.4694 C   0  0  0  0  0  0  0  0  0  0  0  0
    7.5411   -1.6013    2.0243 C   0  0  0  0  0  0  0  0  0  0  0  0
    8.6022   -0.8591    2.5146 C   0  0  0  0  0  0  0  0  0  0  0  0
    8.5191    0.5114    2.4196 C   0  0  0  0  0  0  0  0  0  0  0  0
    7.4280    1.1384    1.8605 C   0  0  0  0  0  0  0  0  0  0  0  0
    0.4809   -0.8433    0.4644 C   0  0  0  0  0  0  0  0  0  0  0  0
    1.3543   -1.6166   -0.4836 C   0  0  0  0  0  0  0  0  0  0  0  0
    1.0222   -0.8558    1.8758 C   0  0  0  0  0  0  0  0  0  0  0  0
   -2.0663   -1.4677   -1.3182 C   0  0  0  0  0  0  0  0  0  0  0  0
   -3.0092   -2.4855   -1.3696 C   0  0  0  0  0  0  0  0  0  0  0  0
   -4.0930   -2.4736   -0.5472 C   0  0  0  0  0  0  0  0  0  0  0  0
   -5.0525   -3.4920   -0.5859 O   0  0  0  0  0  0  0  0  0  0  0  0
   -4.9792   -4.5852   -1.4529 C   0  0  0  0  0  0  0  0  0  0  0  0
   -7.6290    2.7319    1.1381 H   0  0  0  0  0  0  0  0  0  0  0  0
   -9.2211    1.8493    1.0457 H   0  0  0  0  0  0  0  0  0  0  0  0
   -8.7977    3.0864   -0.2373 H   0  0  0  0  0  0  0  0  0  0  0  0
   -6.9231   -0.5331   -0.2055 H   0  0  0  0  0  0  0  0  0  0  0  0
   -8.1508   -0.1868    1.0674 H   0  0  0  0  0  0  0  0  0  0  0  0
   -6.5942    1.4283    2.1391 H   0  0  0  0  0  0  0  0  0  0  0  0
   -5.4588    1.0943    0.7644 H   0  0  0  0  0  0  0  0  0  0  0  0
   -5.1460   -0.4104    2.8953 H   0  0  0  0  0  0  0  0  0  0  0  0
   -6.7832   -0.9866    2.5979 H   0  0  0  0  0  0  0  0  0  0  0  0
   -3.4006    0.3618    1.0964 H   0  0  0  0  0  0  0  0  0  0  0  0
    0.3601    2.4685    0.5186 H   0  0  0  0  0  0  0  0  0  0  0  0
    1.7296    1.4774    0.9788 H   0  0  0  0  0  0  0  0  0  0  0  0
    2.2669    3.0658   -0.6311 H   0  0  0  0  0  0  0  0  0  0  0  0
    1.6226    3.2606   -2.8173 H   0  0  0  0  0  0  0  0  0  0  0  0
    0.0485    3.0805   -2.0531 H   0  0  0  0  0  0  0  0  0  0  0  0
    0.5669    1.5752   -3.9305 H   0  0  0  0  0  0  0  0  0  0  0  0
    2.7433    1.6527   -3.8163 H   0  0  0  0  0  0  0  0  0  0  0  0
    2.3948   -0.0806   -3.2877 H   0  0  0  0  0  0  0  0  0  0  0  0
    3.0664    0.4267   -1.1097 H   0  0  0  0  0  0  0  0  0  0  0  0
    3.9957    3.0684   -1.5219 H   0  0  0  0  0  0  0  0  0  0  0  0
    4.3096    0.4032    0.9523 H   0  0  0  0  0  0  0  0  0  0  0  0
    5.0889    2.0507    1.2484 H   0  0  0  0  0  0  0  0  0  0  0  0
    5.6427   -1.5769    1.0936 H   0  0  0  0  0  0  0  0  0  0  0  0
    7.6358   -2.6747    2.1125 H   0  0  0  0  0  0  0  0  0  0  0  0
    9.4694   -1.3600    2.9592 H   0  0  0  0  0  0  0  0  0  0  0  0
    9.3516    1.0900    2.8050 H   0  0  0  0  0  0  0  0  0  0  0  0
    7.4212    2.2336    1.8139 H   0  0  0  0  0  0  0  0  0  0  0  0
   -0.4686   -1.5016    0.5046 H   0  0  0  0  0  0  0  0  0  0  0  0
    1.0998   -2.7229   -0.4721 H   0  0  0  0  0  0  0  0  0  0  0  0
    2.3948   -1.5820   -0.0720 H   0  0  0  0  0  0  0  0  0  0  0  0
    1.3724   -1.2291   -1.4962 H   0  0  0  0  0  0  0  0  0  0  0  0
    0.6310   -1.7152    2.4474 H   0  0  0  0  0  0  0  0  0  0  0  0
    0.6494    0.0618    2.3662 H   0  0  0  0  0  0  0  0  0  0  0  0
    2.1275   -0.9431    1.8962 H   0  0  0  0  0  0  0  0  0  0  0  0
   -1.2284   -1.5080   -1.9773 H   0  0  0  0  0  0  0  0  0  0  0  0
   -2.8809   -3.3119   -2.0838 H   0  0  0  0  0  0  0  0  0  0  0  0
   -5.6209   -5.4310   -1.1199 H   0  0  0  0  0  0  0  0  0  0  0  0
   -5.3477   -4.2829   -2.4574 H   0  0  0  0  0  0  0  0  0  0  0  0
   -3.9460   -4.9647   -1.5841 H   0  0  0  0  0  0  0  0  0  0  0  0
  1  2  1  0
  2  3  1  0
  3  4  1  0
  4  5  1  0
  5  6  1  0
  6  7  1  0
  7  8  2  0
  8  9  1  0
  9 10  1  0
 10 11  2  0
 10 12  1  0
 12 13  1  0
 13 14  1  0
 14 15  1  0
 15 16  1  0
 16 17  1  0
 17 18  1  0
 18 19  1  0
 19 20  1  0
 20 21  2  0
 20 22  2  0
 20 23  1  0
 23 24  1  0
 24 25  2  0
 25 26  1  0
 26 27  2  0
 27 28  1  0
 28 29  2  0
 12 30  1  0
 30 31  1  0
 30 32  1  0
  9 33  2  0
 33 34  1  0
 34 35  2  0
 35 36  1  0
 36 37  1  0
 35  7  1  0
 18 14  1  0
 29 24  1  0
  1 38  1  0
  1 39  1  0
  1 40  1  0
  3 41  1  0
  3 42  1  0
  4 43  1  0
  4 44  1  0
  5 45  1  0
  5 46  1  0
  8 47  1  0
 13 48  1  0
 13 49  1  0
 14 50  1  1
 15 51  1  0
 15 52  1  0
 16 53  1  0
 17 54  1  0
 17 55  1  0
 18 56  1  1
 19 57  1  0
 23 58  1  0
 23 59  1  0
 25 60  1  0
 26 61  1  0
 27 62  1  0
 28 63  1  0
 29 64  1  0
 30 65  1  0
 31 66  1  0
 31 67  1  0
 31 68  1  0
 32 69  1  0
 32 70  1  0
 32 71  1  0
 33 72  1  0
 34 73  1  0
 37 74  1  0
 37 75  1  0
 37 76  1  0
M  END
$$$$
