
     RDKit          3D

 66 69  0  0  0  0  0  0  0  0999 V2000
    0.1036    2.7752   -1.7826 C   0  0  0  0  0  0  0  0  0  0  0  0
    0.3057    1.2897   -2.0072 C   0  0  1  0  0  0  0  0  0  0  0  0
    1.6300    0.9194   -1.4939 C   0  0  0  0  0  0  0  0  0  0  0  0
    1.9982   -0.4047   -1.3833 C   0  0  0  0  0  0  0  0  0  0  0  0
    3.2274   -0.8194   -0.9065 C   0  0  0  0  0  0  0  0  0  0  0  0
    4.1224    0.1577   -0.5250 C   0  0  0  0  0  0  0  0  0  0  0  0
    5.4590   -0.1617   -0.0029 C   0  0  0  0  0  0  0  0  0  0  0  0
    6.4972    0.7221   -0.2408 C   0  0  0  0  0  0  0  0  0  0  0  0
    7.7772    0.4930    0.2166 C   0  0  0  0  0  0  0  0  0  0  0  0
    8.0159   -0.6287    0.9161 N   0  0  0  0  0  0  0  0  0  0  0  0
    9.3428   -0.9400    1.4328 C   0  0  0  0  0  0  0  0  0  0  0  0
    9.7634    0.1878    2.1388 F   0  0  0  0  0  0  0  0  0  0  0  0
    9.2818   -1.9666    2.3389 F   0  0  0  0  0  0  0  0  0  0  0  0
    7.0186   -1.4947    1.1544 C   0  0  0  0  0  0  0  0  0  0  0  0
    7.2834   -2.5496    1.8227 O   0  0  0  0  0  0  0  0  0  0  0  0
    5.7187   -1.2970    0.7098 C   0  0  0  0  0  0  0  0  0  0  0  0
    3.7680    1.4904   -0.6300 C   0  0  0  0  0  0  0  0  0  0  0  0
    2.5393    1.8861   -1.1071 C   0  0  0  0  0  0  0  0  0  0  0  0
   -0.7777    0.5138   -1.4508 N   0  0  0  0  0  0  0  0  0  0  0  0
   -1.7154   -0.2488   -2.2596 C   0  0  0  0  0  0  0  0  0  0  0  0
   -3.1259    0.0031   -1.7709 C   0  0  0  0  0  0  0  0  0  0  0  0
   -3.2905   -0.4183   -0.2915 C   0  0  2  0  0  0  0  0  0  0  0  0
   -3.6760   -1.8413   -0.3008 C   0  0  0  0  0  0  0  0  0  0  0  0
   -3.8729   -2.5556    0.9651 C   0  0  0  0  0  0  0  0  0  0  0  0
   -4.9406   -2.0100    1.8729 C   0  0  0  0  0  0  0  0  0  0  0  0
   -2.5946   -2.8036    1.7438 C   0  0  0  0  0  0  0  0  0  0  0  0
   -4.3207   -3.8616    0.6230 O   0  0  0  0  0  0  0  0  0  0  0  0
   -4.2851    0.5377    0.2365 C   0  0  0  0  0  0  0  0  0  0  0  0
   -3.8582    1.6200    0.9578 C   0  0  0  0  0  0  0  0  0  0  0  0
   -4.7618    2.5471    1.4372 C   0  0  0  0  0  0  0  0  0  0  0  0
   -6.1102    2.3883    1.1911 C   0  0  0  0  0  0  0  0  0  0  0  0
   -6.5621    1.3102    0.4697 C   0  0  0  0  0  0  0  0  0  0  0  0
   -5.6211    0.3891   -0.0020 C   0  0  0  0  0  0  0  0  0  0  0  0
   -2.0519   -0.3011    0.4035 O   0  0  0  0  0  0  0  0  0  0  0  0
   -0.9864    0.4610   -0.0457 C   0  0  0  0  0  0  0  0  0  0  0  0
   -0.1977    1.1034    0.6900 O   0  0  0  0  0  0  0  0  0  0  0  0
   -0.9373    3.0377   -2.1295 H   0  0  0  0  0  0  0  0  0  0  0  0
    0.2533    3.0215   -0.7293 H   0  0  0  0  0  0  0  0  0  0  0  0
    0.7778    3.3093   -2.4831 H   0  0  0  0  0  0  0  0  0  0  0  0
    0.2532    1.1598   -3.1280 H   0  0  0  0  0  0  0  0  0  0  0  0
    1.3172   -1.2140   -1.6750 H   0  0  0  0  0  0  0  0  0  0  0  0
    3.5023   -1.8744   -0.8259 H   0  0  0  0  0  0  0  0  0  0  0  0
    6.3462    1.6451   -0.8044 H   0  0  0  0  0  0  0  0  0  0  0  0
    8.6037    1.1636    0.0459 H   0  0  0  0  0  0  0  0  0  0  0  0
   10.0669   -1.1627    0.6461 H   0  0  0  0  0  0  0  0  0  0  0  0
    4.9242   -1.9986    0.9063 H   0  0  0  0  0  0  0  0  0  0  0  0
    4.4680    2.2860   -0.3314 H   0  0  0  0  0  0  0  0  0  0  0  0
    2.3009    2.9598   -1.1730 H   0  0  0  0  0  0  0  0  0  0  0  0
   -1.4674   -1.3243   -2.2957 H   0  0  0  0  0  0  0  0  0  0  0  0
   -1.6729    0.1396   -3.2894 H   0  0  0  0  0  0  0  0  0  0  0  0
   -3.7999   -0.6177   -2.3994 H   0  0  0  0  0  0  0  0  0  0  0  0
   -3.3850    1.0498   -1.9310 H   0  0  0  0  0  0  0  0  0  0  0  0
   -2.9350   -2.3822   -0.9329 H   0  0  0  0  0  0  0  0  0  0  0  0
   -4.6451   -1.9197   -0.8839 H   0  0  0  0  0  0  0  0  0  0  0  0
   -4.7127   -1.0174    2.2950 H   0  0  0  0  0  0  0  0  0  0  0  0
   -5.9159   -2.0915    1.3559 H   0  0  0  0  0  0  0  0  0  0  0  0
   -5.0768   -2.6992    2.7731 H   0  0  0  0  0  0  0  0  0  0  0  0
   -2.9041   -3.4076    2.6447 H   0  0  0  0  0  0  0  0  0  0  0  0
   -1.9197   -3.4728    1.1736 H   0  0  0  0  0  0  0  0  0  0  0  0
   -2.1316   -1.8944    2.1189 H   0  0  0  0  0  0  0  0  0  0  0  0
   -4.6773   -4.2597    1.4791 H   0  0  0  0  0  0  0  0  0  0  0  0
   -2.8138    1.7940    1.1806 H   0  0  0  0  0  0  0  0  0  0  0  0
   -4.4602    3.4112    2.0088 H   0  0  0  0  0  0  0  0  0  0  0  0
   -6.8238    3.0978    1.5554 H   0  0  0  0  0  0  0  0  0  0  0  0
   -7.6097    1.1945    0.2827 H   0  0  0  0  0  0  0  0  0  0  0  0
   -6.0297   -0.4576   -0.5745 H   0  0  0  0  0  0  0  0  0  0  0  0
  1  2  1  0
  2  3  1  0
  3  4  2  0
  4  5  1  0
  5  6  2  0
  6  7  1  0
  7  8  1  0
  8  9  2  0
  9 10  1  0
 10 11  1  0
 11 12  1  0
 11 13  1  0
 10 14  1  0
 14 15  2  0
 14 16  1  0
  6 17  1  0
 17 18  2  0
  2 19  1  0
 19 20  1  0
 20 21  1  0
 21 22  1  0
 22 23  1  6
 23 24  1  0
 24 25  1  0
 24 26  1  0
 24 27  1  0
 22 28  1  0
 28 29  2  0
 29 30  1  0
 30 31  2  0
 31 32  1  0
 32 33  2  0
 22 34  1  0
 34 35  1  0
 35 36  2  0
 18  3  1  0
 35 19  1  0
 16  7  2  0
 33 28  1  0
  1 37  1  0
  1 38  1  0
  1 39  1  0
  2 40  1  6
  4 41  1  0
  5 42  1  0
  8 43  1  0
  9 44  1  0
 11 45  1  0
 16 46  1  0
 17 47  1  0
 18 48  1  0
 20 49  1  0
 20 50  1  0
 21 51  1  0
 21 52  1  0
 23 53  1  0
 23 54  1  0
 25 55  1  0
 25 56  1  0
 25 57  1  0
 26 58  1  0
 26 59  1  0
 26 60  1  0
 27 61  1  0
 29 62  1  0
 30 63  1  0
 31 64  1  0
 32 65  1  0
 33 66  1  0
M  END
$$$$
