
     RDKit          3D

 76 80  0  0  0  0  0  0  0  0999 V2000
   -2.0728    0.8781   -0.1192 C   0  0  2  0  0  0  0  0  0  0  0  0
   -3.4505    1.0116    0.3557 C   0  0  0  0  0  0  0  0  0  0  0  0
   -4.1045   -0.1625   -0.3494 C   0  0  0  0  0  0  0  0  0  0  0  0
   -3.0384   -1.1950   -0.3656 C   0  0  2  0  0  0  0  0  0  0  0  0
   -2.9743   -2.0383   -1.4365 O   0  0  0  0  0  0  0  0  0  0  0  0
   -2.8435   -1.9054   -2.7585 C   0  0  0  0  0  0  0  0  0  0  0  0
   -2.8096   -3.1506   -3.5520 C   0  0  0  0  0  0  0  0  0  0  0  0
   -2.7708   -0.7291   -3.1001 O   0  0  0  0  0  0  0  0  0  0  0  0
   -3.4112   -2.1919    0.7444 C   0  0  0  0  0  0  0  0  0  0  0  0
   -3.2798   -2.6931   -0.3607 O   0  0  0  0  0  0  0  0  0  0  0  0
   -3.7601   -3.1221    1.7857 C   0  0  0  0  0  0  0  0  0  0  0  0
   -3.8747   -2.5848    3.0321 O   0  0  0  0  0  0  0  0  0  0  0  0
   -4.8930   -1.6514    3.0654 C   0  0  0  0  0  0  0  0  0  0  0  0
   -1.7649   -0.5797    0.1373 C   0  0  2  0  0  0  0  0  0  0  0  0
   -1.5428   -0.8615    1.6092 C   0  0  0  0  0  0  0  0  0  0  0  0
   -0.5211   -0.9402   -0.5710 C   0  0  0  0  0  0  0  0  0  0  0  0
    0.4985    0.1265   -0.7876 C   0  0  2  0  0  0  0  0  0  0  0  0
    1.8105   -0.2798   -0.1739 C   0  0  0  0  0  0  0  0  0  0  0  0
    2.1519    0.0022    1.1094 C   0  0  0  0  0  0  0  0  0  0  0  0
    3.3466   -0.3865    1.6804 C   0  0  0  0  0  0  0  0  0  0  0  0
    4.2803   -1.1061    0.9404 C   0  0  0  0  0  0  0  0  0  0  0  0
    3.9803   -1.4166   -0.3675 C   0  0  0  0  0  0  0  0  0  0  0  0
    2.7832   -1.0048   -0.8755 C   0  0  0  0  0  0  0  0  0  0  0  0
    5.5425   -1.5655    1.4096 N   0  0  0  0  0  0  0  0  0  0  0  0
    6.4734   -2.3165    0.5801 C   0  0  0  0  0  0  0  0  0  0  0  0
    5.8707   -1.2502    2.7773 C   0  0  0  0  0  0  0  0  0  0  0  0
    0.1246    1.5122   -0.5031 C   0  0  0  0  0  0  0  0  0  0  0  0
    0.8150    2.4884   -1.0979 C   0  0  0  0  0  0  0  0  0  0  0  0
    1.9544    2.3818   -2.0440 C   0  0  0  0  0  0  0  0  0  0  0  0
    3.1296    3.0623   -1.3268 C   0  0  0  0  0  0  0  0  0  0  0  0
    2.7041    4.4803   -1.0474 C   0  0  0  0  0  0  0  0  0  0  0  0
    3.5751    5.3895   -1.0662 O   0  0  0  0  0  0  0  0  0  0  0  0
    1.2967    4.8202   -0.7548 C   0  0  0  0  0  0  0  0  0  0  0  0
    0.3776    3.8651   -0.7769 C   0  0  0  0  0  0  0  0  0  0  0  0
   -1.0853    4.1183   -0.4956 C   0  0  0  0  0  0  0  0  0  0  0  0
   -1.4602    3.1524    0.5742 C   0  0  0  0  0  0  0  0  0  0  0  0
   -1.0026    1.7621    0.4372 C   0  0  1  0  0  0  0  0  0  0  0  0
   -2.0579    1.0307   -1.2146 H   0  0  0  0  0  0  0  0  0  0  0  0
   -3.9875    1.9234   -0.0076 H   0  0  0  0  0  0  0  0  0  0  0  0
   -3.5260    0.9650    1.4556 H   0  0  0  0  0  0  0  0  0  0  0  0
   -5.0755   -0.4591    0.0651 H   0  0  0  0  0  0  0  0  0  0  0  0
   -4.3592    0.2301   -1.3666 H   0  0  0  0  0  0  0  0  0  0  0  0
   -2.6861   -3.0013   -4.6228 H   0  0  0  0  0  0  0  0  0  0  0  0
   -3.7477   -3.7209   -3.2980 H   0  0  0  0  0  0  0  0  0  0  0  0
   -1.9782   -3.7874   -3.1456 H   0  0  0  0  0  0  0  0  0  0  0  0
   -4.8009   -3.5131    1.5329 H   0  0  0  0  0  0  0  0  0  0  0  0
   -3.1561   -4.0670    1.7661 H   0  0  0  0  0  0  0  0  0  0  0  0
   -5.8504   -2.1775    2.7661 H   0  0  0  0  0  0  0  0  0  0  0  0
   -4.7706   -0.8160    2.3643 H   0  0  0  0  0  0  0  0  0  0  0  0
   -5.1033   -1.2960    4.1055 H   0  0  0  0  0  0  0  0  0  0  0  0
   -1.5518   -1.9911    1.6961 H   0  0  0  0  0  0  0  0  0  0  0  0
   -2.3295   -0.4255    2.2508 H   0  0  0  0  0  0  0  0  0  0  0  0
   -0.5777   -0.5580    1.9823 H   0  0  0  0  0  0  0  0  0  0  0  0
   -0.7410   -1.5323   -1.5158 H   0  0  0  0  0  0  0  0  0  0  0  0
   -0.0214   -1.7579    0.0479 H   0  0  0  0  0  0  0  0  0  0  0  0
    0.7462    0.0316   -1.8993 H   0  0  0  0  0  0  0  0  0  0  0  0
    1.5097    0.5463    1.7472 H   0  0  0  0  0  0  0  0  0  0  0  0
    3.6429   -0.1762    2.6951 H   0  0  0  0  0  0  0  0  0  0  0  0
    4.6724   -1.9757   -0.9940 H   0  0  0  0  0  0  0  0  0  0  0  0
    2.5651   -1.2630   -1.9233 H   0  0  0  0  0  0  0  0  0  0  0  0
    6.8075   -1.7276   -0.3176 H   0  0  0  0  0  0  0  0  0  0  0  0
    7.3849   -2.5234    1.1667 H   0  0  0  0  0  0  0  0  0  0  0  0
    6.0411   -3.2811    0.2393 H   0  0  0  0  0  0  0  0  0  0  0  0
    6.8509   -1.7364    3.0378 H   0  0  0  0  0  0  0  0  0  0  0  0
    5.1183   -1.7163    3.4485 H   0  0  0  0  0  0  0  0  0  0  0  0
    5.9754   -0.1718    2.8942 H   0  0  0  0  0  0  0  0  0  0  0  0
    1.7820    3.0072   -2.9671 H   0  0  0  0  0  0  0  0  0  0  0  0
    2.1951    1.3730   -2.3684 H   0  0  0  0  0  0  0  0  0  0  0  0
    4.0568    3.0281   -1.8948 H   0  0  0  0  0  0  0  0  0  0  0  0
    3.1720    2.5895   -0.3250 H   0  0  0  0  0  0  0  0  0  0  0  0
    0.9913    5.8361   -0.5208 H   0  0  0  0  0  0  0  0  0  0  0  0
   -1.2319    5.1353   -0.1149 H   0  0  0  0  0  0  0  0  0  0  0  0
   -1.6762    3.8949   -1.4029 H   0  0  0  0  0  0  0  0  0  0  0  0
   -1.0529    3.6063    1.5325 H   0  0  0  0  0  0  0  0  0  0  0  0
   -2.5641    3.1452    0.7703 H   0  0  0  0  0  0  0  0  0  0  0  0
   -0.7207    1.4127    1.4819 H   0  0  0  0  0  0  0  0  0  0  0  0
  1  2  1  0
  2  3  1  0
  3  4  1  0
  4  5  1  6
  5  6  1  0
  6  7  1  0
  6  8  2  0
  4  9  1  0
  9 10  2  0
  9 11  1  0
 11 12  1  0
 12 13  1  0
  4 14  1  0
 14 15  1  1
 14 16  1  0
 16 17  1  0
 17 18  1  0
 18 19  2  0
 19 20  1  0
 20 21  2  0
 21 22  1  0
 22 23  2  0
 21 24  1  0
 24 25  1  0
 24 26  1  0
 17 27  1  0
 27 28  2  0
 28 29  1  0
 29 30  1  0
 30 31  1  0
 31 32  2  0
 31 33  1  0
 33 34  2  0
 34 35  1  0
 35 36  1  0
 36 37  1  0
 14  1  1  0
 23 18  1  0
 37 27  1  0
 37  1  1  0
 34 28  1  0
  1 38  1  6
  2 39  1  0
  2 40  1  0
  3 41  1  0
  3 42  1  0
  7 43  1  0
  7 44  1  0
  7 45  1  0
 11 46  1  0
 11 47  1  0
 13 48  1  0
 13 49  1  0
 13 50  1  0
 15 51  1  0
 15 52  1  0
 15 53  1  0
 16 54  1  0
 16 55  1  0
 17 56  1  6
 19 57  1  0
 20 58  1  0
 22 59  1  0
 23 60  1  0
 25 61  1  0
 25 62  1  0
 25 63  1  0
 26 64  1  0
 26 65  1  0
 26 66  1  0
 29 67  1  0
 29 68  1  0
 30 69  1  0
 30 70  1  0
 33 71  1  0
 35 72  1  0
 35 73  1  0
 36 74  1  0
 36 75  1  0
 37 76  1  1
M  END
$$$$
