
     RDKit          3D

 69 72  0  0  0  0  0  0  0  0999 V2000
   -0.7595   -0.9669   -2.3321 C   0  0  0  0  0  0  0  0  0  0  0  0
   -0.3356   -1.4647   -0.9592 C   0  0  1  0  0  0  0  0  0  0  0  0
    1.1327   -1.2633   -0.7572 C   0  0  0  0  0  0  0  0  0  0  0  0
    1.7064   -1.4725    0.4804 C   0  0  0  0  0  0  0  0  0  0  0  0
    3.0579   -1.2969    0.6996 C   0  0  0  0  0  0  0  0  0  0  0  0
    3.9066   -0.9021   -0.3119 C   0  0  0  0  0  0  0  0  0  0  0  0
    5.3459   -0.7159   -0.0804 C   0  0  0  0  0  0  0  0  0  0  0  0
    5.9499   -1.5255    0.8684 C   0  0  0  0  0  0  0  0  0  0  0  0
    7.3091   -1.4310    1.1622 C   0  0  0  0  0  0  0  0  0  0  0  0
    8.0070   -0.4764    0.4424 C   0  0  0  0  0  0  0  0  0  0  0  0
    9.2483   -0.3247    0.6479 O   0  0  0  0  0  0  0  0  0  0  0  0
    7.4332    0.3159   -0.4812 N   0  0  0  0  0  0  0  0  0  0  0  0
    8.2424    1.2928   -1.1913 C   0  0  0  0  0  0  0  0  0  0  0  0
    8.7898    0.6120   -2.4458 C   0  0  0  0  0  0  0  0  0  0  0  0
    7.7590    0.1829   -3.2514 F   0  0  0  0  0  0  0  0  0  0  0  0
    9.5016   -0.5236   -2.0822 F   0  0  0  0  0  0  0  0  0  0  0  0
    9.6472    1.4316   -3.1397 F   0  0  0  0  0  0  0  0  0  0  0  0
    6.1155    0.1933   -0.7362 C   0  0  0  0  0  0  0  0  0  0  0  0
    3.3426   -0.6905   -1.5522 C   0  0  0  0  0  0  0  0  0  0  0  0
    1.9837   -0.8674   -1.7700 C   0  0  0  0  0  0  0  0  0  0  0  0
   -1.1067   -0.8523    0.1010 N   0  0  0  0  0  0  0  0  0  0  0  0
   -1.9559   -1.6838    0.9038 C   0  0  0  0  0  0  0  0  0  0  0  0
   -3.1378   -1.0012    1.4905 C   0  0  0  0  0  0  0  0  0  0  0  0
   -3.2993    0.4379    1.1651 C   0  0  2  0  0  0  0  0  0  0  0  0
   -4.0410    1.1923    2.2068 C   0  0  0  0  0  0  0  0  0  0  0  0
   -5.4037    0.8407    2.5688 C   0  0  0  0  0  0  0  0  0  0  0  0
   -6.4309    0.8902    1.4752 C   0  0  0  0  0  0  0  0  0  0  0  0
   -5.6127   -0.4220    3.3681 C   0  0  0  0  0  0  0  0  0  0  0  0
   -5.8280    1.8729    3.4664 O   0  0  0  0  0  0  0  0  0  0  0  0
   -3.8478    0.6871   -0.2086 C   0  0  0  0  0  0  0  0  0  0  0  0
   -4.1746   -0.3296   -1.0621 C   0  0  0  0  0  0  0  0  0  0  0  0
   -4.6738   -0.0134   -2.3161 C   0  0  0  0  0  0  0  0  0  0  0  0
   -4.8568    1.2837   -2.7442 C   0  0  0  0  0  0  0  0  0  0  0  0
   -4.5088    2.2749   -1.8379 C   0  0  0  0  0  0  0  0  0  0  0  0
   -4.0131    1.9865   -0.5922 C   0  0  0  0  0  0  0  0  0  0  0  0
   -2.0127    1.1027    1.1009 O   0  0  0  0  0  0  0  0  0  0  0  0
   -1.0109    0.5506    0.3317 C   0  0  0  0  0  0  0  0  0  0  0  0
   -0.0557    1.2191   -0.1521 O   0  0  0  0  0  0  0  0  0  0  0  0
   -0.2143   -1.5819   -3.1002 H   0  0  0  0  0  0  0  0  0  0  0  0
   -0.5020    0.0752   -2.5108 H   0  0  0  0  0  0  0  0  0  0  0  0
   -1.8261   -1.2287   -2.4853 H   0  0  0  0  0  0  0  0  0  0  0  0
   -0.5435   -2.5739   -0.9888 H   0  0  0  0  0  0  0  0  0  0  0  0
    1.0499   -1.7854    1.2926 H   0  0  0  0  0  0  0  0  0  0  0  0
    3.4932   -1.4668    1.6849 H   0  0  0  0  0  0  0  0  0  0  0  0
    5.3524   -2.2519    1.3970 H   0  0  0  0  0  0  0  0  0  0  0  0
    7.7707   -2.0678    1.9048 H   0  0  0  0  0  0  0  0  0  0  0  0
    7.6461    2.1727   -1.4357 H   0  0  0  0  0  0  0  0  0  0  0  0
    9.1218    1.5108   -0.5562 H   0  0  0  0  0  0  0  0  0  0  0  0
    5.6453    0.8251   -1.4767 H   0  0  0  0  0  0  0  0  0  0  0  0
    4.0080   -0.3783   -2.3534 H   0  0  0  0  0  0  0  0  0  0  0  0
    1.5761   -0.6928   -2.7486 H   0  0  0  0  0  0  0  0  0  0  0  0
   -1.2905   -2.1222    1.7038 H   0  0  0  0  0  0  0  0  0  0  0  0
   -2.2521   -2.5575    0.2867 H   0  0  0  0  0  0  0  0  0  0  0  0
   -3.0593   -1.0849    2.6027 H   0  0  0  0  0  0  0  0  0  0  0  0
   -4.0593   -1.5461    1.2200 H   0  0  0  0  0  0  0  0  0  0  0  0
   -3.4055    1.1233    3.1420 H   0  0  0  0  0  0  0  0  0  0  0  0
   -3.9946    2.2913    1.9657 H   0  0  0  0  0  0  0  0  0  0  0  0
   -7.4360    0.8060    1.9883 H   0  0  0  0  0  0  0  0  0  0  0  0
   -6.4565    1.8708    0.9590 H   0  0  0  0  0  0  0  0  0  0  0  0
   -6.3892    0.0203    0.7906 H   0  0  0  0  0  0  0  0  0  0  0  0
   -6.5508   -0.2960    3.9963 H   0  0  0  0  0  0  0  0  0  0  0  0
   -4.8267   -0.6032    4.1270 H   0  0  0  0  0  0  0  0  0  0  0  0
   -5.8532   -1.3120    2.7507 H   0  0  0  0  0  0  0  0  0  0  0  0
   -5.7615    2.7366    3.0053 H   0  0  0  0  0  0  0  0  0  0  0  0
   -4.0500   -1.3913   -0.7802 H   0  0  0  0  0  0  0  0  0  0  0  0
   -4.9331   -0.8269   -2.9938 H   0  0  0  0  0  0  0  0  0  0  0  0
   -5.2496    1.5299   -3.7310 H   0  0  0  0  0  0  0  0  0  0  0  0
   -4.6469    3.3210   -2.1594 H   0  0  0  0  0  0  0  0  0  0  0  0
   -3.7761    2.8528    0.0276 H   0  0  0  0  0  0  0  0  0  0  0  0
  1  2  1  0
  2  3  1  0
  3  4  2  0
  4  5  1  0
  5  6  2  0
  6  7  1  0
  7  8  1  0
  8  9  2  0
  9 10  1  0
 10 11  2  0
 10 12  1  0
 12 13  1  0
 13 14  1  0
 14 15  1  0
 14 16  1  0
 14 17  1  0
 12 18  1  0
  6 19  1  0
 19 20  2  0
  2 21  1  0
 21 22  1  0
 22 23  1  0
 23 24  1  0
 24 25  1  1
 25 26  1  0
 26 27  1  0
 26 28  1  0
 26 29  1  0
 24 30  1  0
 30 31  2  0
 31 32  1  0
 32 33  2  0
 33 34  1  0
 34 35  2  0
 24 36  1  0
 36 37  1  0
 37 38  2  0
 20  3  1  0
 37 21  1  0
 18  7  2  0
 35 30  1  0
  1 39  1  0
  1 40  1  0
  1 41  1  0
  2 42  1  6
  4 43  1  0
  5 44  1  0
  8 45  1  0
  9 46  1  0
 13 47  1  0
 13 48  1  0
 18 49  1  0
 19 50  1  0
 20 51  1  0
 22 52  1  0
 22 53  1  0
 23 54  1  0
 23 55  1  0
 25 56  1  0
 25 57  1  0
 27 58  1  0
 27 59  1  0
 27 60  1  0
 28 61  1  0
 28 62  1  0
 28 63  1  0
 29 64  1  0
 31 65  1  0
 32 66  1  0
 33 67  1  0
 34 68  1  0
 35 69  1  0
M  END
$$$$
