
     RDKit          3D

 54 55  0  0  0  0  0  0  0  0999 V2000
   -5.2311    3.8401   -0.1857 C   0  0  0  0  0  0  0  0  0  0  0  0
   -4.5152    2.5536    0.0462 C   0  0  0  0  0  0  0  0  0  0  0  0
   -4.8032    1.7545    1.1466 C   0  0  0  0  0  0  0  0  0  0  0  0
   -4.1196    0.5686    1.3316 C   0  0  0  0  0  0  0  0  0  0  0  0
   -4.4461   -0.2799    2.5275 C   0  0  0  0  0  0  0  0  0  0  0  0
   -3.1853    0.1718    0.4738 N   0  0  0  0  0  0  0  0  0  0  0  0
   -2.8749    0.9081   -0.5990 C   0  0  0  0  0  0  0  0  0  0  0  0
   -1.8828    0.4630   -1.4894 N   0  0  0  0  0  0  0  0  0  0  0  0
   -1.2343   -0.7875   -1.4299 C   0  0  0  0  0  0  0  0  0  0  0  0
    0.1461   -0.7958   -1.1611 C   0  0  0  0  0  0  0  0  0  0  0  0
    0.8376   -1.9781   -1.0900 C   0  0  0  0  0  0  0  0  0  0  0  0
    2.2244   -2.0975   -0.8037 N   0  0  0  0  0  0  0  0  0  0  0  0
    3.0765   -0.9458   -0.4731 C   0  0  0  0  0  0  0  0  0  0  0  0
    2.7863   -0.4976    0.9076 C   0  0  1  0  0  0  0  0  0  0  0  0
    3.1034   -1.5179    1.9116 N   0  0  0  0  0  0  0  0  0  0  0  0
    3.1537    0.8516    1.2764 C   0  0  0  0  0  0  0  0  0  0  0  0
    4.4980    1.4154    1.2575 C   0  0  0  0  0  0  0  0  0  0  0  0
    5.3884    1.6167   -0.2122 S   0  0  0  0  0  6  0  0  0  0  0  0
    6.9668    2.4152    0.2447 C   0  0  0  0  0  0  0  0  0  0  0  0
    5.8128    0.3857   -0.9299 O   0  0  0  0  0  0  0  0  0  0  0  0
    4.7327    2.6042   -1.1390 O   0  0  0  0  0  0  0  0  0  0  0  0
    0.0888   -3.1254   -1.2992 C   0  0  0  0  0  0  0  0  0  0  0  0
   -1.2258   -3.1061   -1.5558 N   0  0  0  0  0  0  0  0  0  0  0  0
   -1.9444   -1.9455   -1.6337 C   0  0  0  0  0  0  0  0  0  0  0  0
   -3.3602   -1.9882   -1.9733 C   0  0  0  0  0  0  0  0  0  0  0  0
   -3.9832   -3.2531   -2.0801 N   0  0  0  0  0  0  0  0  0  0  0  0
   -4.0880   -0.9923   -2.1829 O   0  0  0  0  0  0  0  0  0  0  0  0
   -3.5390    2.0963   -0.8115 C   0  0  0  0  0  0  0  0  0  0  0  0
   -4.5527    4.6964   -0.1023 H   0  0  0  0  0  0  0  0  0  0  0  0
   -5.6912    3.8831   -1.2027 H   0  0  0  0  0  0  0  0  0  0  0  0
   -6.0374    3.9173    0.5801 H   0  0  0  0  0  0  0  0  0  0  0  0
   -5.5617    2.1147    1.8078 H   0  0  0  0  0  0  0  0  0  0  0  0
   -3.6856   -0.1857    3.3100 H   0  0  0  0  0  0  0  0  0  0  0  0
   -5.4174    0.0118    2.9702 H   0  0  0  0  0  0  0  0  0  0  0  0
   -4.5434   -1.3189    2.1345 H   0  0  0  0  0  0  0  0  0  0  0  0
   -1.5763    1.1013   -2.2829 H   0  0  0  0  0  0  0  0  0  0  0  0
    0.6630    0.1430   -1.0256 H   0  0  0  0  0  0  0  0  0  0  0  0
    2.6748   -3.0312   -0.8208 H   0  0  0  0  0  0  0  0  0  0  0  0
    2.9768   -0.1180   -1.1782 H   0  0  0  0  0  0  0  0  0  0  0  0
    4.1122   -1.3704   -0.5755 H   0  0  0  0  0  0  0  0  0  0  0  0
    1.5995   -0.5668    0.9485 H   0  0  0  0  0  0  0  0  0  0  0  0
    4.0566   -1.8922    1.8115 H   0  0  0  0  0  0  0  0  0  0  0  0
    3.0683   -1.0045    2.8337 H   0  0  0  0  0  0  0  0  0  0  0  0
    2.4512    1.6316    0.7880 H   0  0  0  0  0  0  0  0  0  0  0  0
    2.7953    0.9818    2.3779 H   0  0  0  0  0  0  0  0  0  0  0  0
    4.4172    2.4555    1.7298 H   0  0  0  0  0  0  0  0  0  0  0  0
    5.1654    0.8747    2.0095 H   0  0  0  0  0  0  0  0  0  0  0  0
    7.6973    2.2452   -0.5697 H   0  0  0  0  0  0  0  0  0  0  0  0
    6.7930    3.5063    0.3131 H   0  0  0  0  0  0  0  0  0  0  0  0
    7.2705    2.0325    1.2232 H   0  0  0  0  0  0  0  0  0  0  0  0
    0.6342   -4.0827   -1.2441 H   0  0  0  0  0  0  0  0  0  0  0  0
   -4.7463   -3.4103   -2.7546 H   0  0  0  0  0  0  0  0  0  0  0  0
   -3.6668   -4.0254   -1.4738 H   0  0  0  0  0  0  0  0  0  0  0  0
   -3.2787    2.6806   -1.6816 H   0  0  0  0  0  0  0  0  0  0  0  0
  1  2  1  0
  2  3  2  0
  3  4  1  0
  4  5  1  0
  4  6  2  0
  6  7  1  0
  7  8  1  0
  8  9  1  0
  9 10  2  0
 10 11  1  0
 11 12  1  0
 12 13  1  0
 13 14  1  0
 14 15  1  0
 14 16  1  0
 16 17  1  0
 17 18  1  0
 18 19  1  0
 18 20  2  0
 18 21  2  0
 11 22  2  0
 22 23  1  0
 23 24  2  0
 24 25  1  0
 25 26  1  0
 25 27  2  0
  7 28  2  0
 28  2  1  0
 24  9  1  0
  1 29  1  0
  1 30  1  0
  1 31  1  0
  3 32  1  0
  5 33  1  0
  5 34  1  0
  5 35  1  0
  8 36  1  0
 10 37  1  0
 12 38  1  0
 13 39  1  0
 13 40  1  0
 14 41  1  6
 15 42  1  0
 15 43  1  0
 16 44  1  0
 16 45  1  0
 17 46  1  0
 17 47  1  0
 19 48  1  0
 19 49  1  0
 19 50  1  0
 22 51  1  0
 26 52  1  0
 26 53  1  0
 28 54  1  0
M  END
$$$$
