
     RDKit          3D

 42 45  0  0  0  0  0  0  0  0999 V2000
    2.7911    0.9362   -1.4678 C   0  0  0  0  0  0  0  0  0  0  0  0
    2.0286    0.4556   -0.2305 C   0  0  1  0  0  0  0  0  0  0  0  0
    0.7412    0.3643   -0.3187 O   0  0  0  0  0  0  0  0  0  0  0  0
   -0.5439    0.3122   -0.3669 C   0  0  0  0  0  0  0  0  0  0  0  0
   -1.2365   -0.5432   -1.2391 C   0  0  0  0  0  0  0  0  0  0  0  0
   -2.6022   -0.6227   -1.3150 C   0  0  0  0  0  0  0  0  0  0  0  0
   -3.2931   -1.5479   -2.2601 C   0  0  0  0  0  0  0  0  0  0  0  0
   -4.6474   -1.6000   -2.3066 C   0  0  0  0  0  0  0  0  0  0  0  0
   -4.9705   -2.8648   -3.6013 S   0  0  0  0  0  0  0  0  0  0  0  0
   -3.0861   -3.1060   -3.8582 C   0  0  0  0  0  0  0  0  0  0  0  0
   -2.6809   -2.3629   -3.0987 N   0  0  0  0  0  0  0  0  0  0  0  0
   -3.3115    0.1968   -0.4739 C   0  0  0  0  0  0  0  0  0  0  0  0
   -2.6732    1.0591    0.4054 C   0  0  0  0  0  0  0  0  0  0  0  0
   -3.1371    1.9499    1.3186 N   0  0  0  0  0  0  0  0  0  0  0  0
   -2.1287    2.5432    1.9216 N   0  0  0  0  0  0  0  0  0  0  0  0
   -2.2209    3.5744    2.9770 C   0  0  0  0  0  0  0  0  0  0  0  0
   -0.9803    2.0645    1.4274 C   0  0  0  0  0  0  0  0  0  0  0  0
   -1.3082    1.1312    0.4737 C   0  0  0  0  0  0  0  0  0  0  0  0
    2.7979   -0.7856    0.2187 C   0  0  1  0  0  0  0  0  0  0  0  0
    4.2245   -0.4063    0.5415 C   0  0  0  0  0  0  0  0  0  0  0  0
    4.6435   -1.4779    1.4217 N   0  0  0  0  0  0  0  0  0  0  0  0
    3.4914   -1.8603    2.1530 C   0  0  0  0  0  0  0  0  0  0  0  0
    3.5168   -2.5768    3.1781 O   0  0  0  0  0  0  0  0  0  0  0  0
    2.2688   -1.2979    1.5387 C   0  0  0  0  0  0  0  0  0  0  0  0
    3.8040    1.2139   -1.1143 H   0  0  0  0  0  0  0  0  0  0  0  0
    2.9146    0.1314   -2.2107 H   0  0  0  0  0  0  0  0  0  0  0  0
    2.3458    1.8611   -1.8782 H   0  0  0  0  0  0  0  0  0  0  0  0
    2.3226    1.2315    0.5569 H   0  0  0  0  0  0  0  0  0  0  0  0
   -0.6708   -1.1937   -1.9068 H   0  0  0  0  0  0  0  0  0  0  0  0
   -5.4577   -1.0802   -1.7695 H   0  0  0  0  0  0  0  0  0  0  0  0
   -2.8002   -3.8383   -4.6104 H   0  0  0  0  0  0  0  0  0  0  0  0
   -4.3857    0.1600   -0.5077 H   0  0  0  0  0  0  0  0  0  0  0  0
   -1.7081    4.4787    2.6130 H   0  0  0  0  0  0  0  0  0  0  0  0
   -1.6887    3.1785    3.8534 H   0  0  0  0  0  0  0  0  0  0  0  0
   -3.2582    3.7634    3.2512 H   0  0  0  0  0  0  0  0  0  0  0  0
    0.0290    2.3447    1.7103 H   0  0  0  0  0  0  0  0  0  0  0  0
    2.8084   -1.5497   -0.5730 H   0  0  0  0  0  0  0  0  0  0  0  0
    4.8419   -0.3671   -0.3822 H   0  0  0  0  0  0  0  0  0  0  0  0
    4.2505    0.5540    1.0882 H   0  0  0  0  0  0  0  0  0  0  0  0
    5.6183   -1.8355    1.4478 H   0  0  0  0  0  0  0  0  0  0  0  0
    1.5300   -2.1030    1.2776 H   0  0  0  0  0  0  0  0  0  0  0  0
    1.8211   -0.4847    2.1158 H   0  0  0  0  0  0  0  0  0  0  0  0
  1  2  1  0
  2  3  1  0
  3  4  1  0
  4  5  2  0
  5  6  1  0
  6  7  1  0
  7  8  2  0
  8  9  1  0
  9 10  1  0
 10 11  2  0
  6 12  2  0
 12 13  1  0
 13 14  2  0
 14 15  1  0
 15 16  1  0
 15 17  1  0
 17 18  2  0
  2 19  1  0
 19 20  1  0
 20 21  1  0
 21 22  1  0
 22 23  2  0
 22 24  1  0
 18  4  1  0
 24 19  1  0
 11  7  1  0
 18 13  1  0
  1 25  1  0
  1 26  1  0
  1 27  1  0
  2 28  1  1
  5 29  1  0
  8 30  1  0
 10 31  1  0
 12 32  1  0
 16 33  1  0
 16 34  1  0
 16 35  1  0
 17 36  1  0
 19 37  1  6
 20 38  1  0
 20 39  1  0
 21 40  1  0
 24 41  1  0
 24 42  1  0
M  END
$$$$
