
     RDKit          3D

 49 53  0  0  0  0  0  0  0  0999 V2000
   -4.0345    3.4127   -0.0132 C   0  0  0  0  0  0  0  0  0  0  0  0
   -2.7871    3.5587   -0.8609 C   0  0  0  0  0  0  0  0  0  0  0  0
   -2.2685    2.1353   -1.0987 C   0  0  0  0  0  0  0  0  0  0  0  0
   -1.9800    1.5627    0.2708 C   0  0  0  0  0  0  0  0  0  0  0  0
   -1.4832    0.2273    0.2304 N   0  0  0  0  0  0  0  0  0  0  0  0
   -2.2532   -0.8749    0.2650 C   0  0  0  0  0  0  0  0  0  0  0  0
   -3.6458   -1.0051    0.3442 C   0  0  0  0  0  0  0  0  0  0  0  0
   -4.2201   -2.2504    0.3663 C   0  0  0  0  0  0  0  0  0  0  0  0
   -3.4566   -3.3813    0.3123 C   0  0  0  0  0  0  0  0  0  0  0  0
   -4.0212   -4.6707    0.3334 O   0  0  0  0  0  0  0  0  0  0  0  0
   -2.0721   -3.2287    0.2338 C   0  0  0  0  0  0  0  0  0  0  0  0
   -1.4635   -2.0091    0.2095 C   0  0  0  0  0  0  0  0  0  0  0  0
   -0.1435   -1.5533    0.1374 C   0  0  0  0  0  0  0  0  0  0  0  0
    1.0366   -2.2320    0.0633 C   0  0  0  0  0  0  0  0  0  0  0  0
    2.2180   -1.4776    0.0019 C   0  0  0  0  0  0  0  0  0  0  0  0
    2.1642   -0.0971    0.0172 C   0  0  0  0  0  0  0  0  0  0  0  0
    3.4156    0.6635   -0.0482 C   0  0  0  0  0  0  0  0  0  0  0  0
    4.1145    1.0374    1.0775 C   0  0  0  0  0  0  0  0  0  0  0  0
    5.3014    1.7592    1.0045 C   0  0  0  0  0  0  0  0  0  0  0  0
    5.7693    2.0981   -0.2647 C   0  0  0  0  0  0  0  0  0  0  0  0
    5.1003    1.7430   -1.4066 C   0  0  0  0  0  0  0  0  0  0  0  0
    3.9330    1.0310   -1.2878 C   0  0  0  0  0  0  0  0  0  0  0  0
    3.0454    0.5556   -2.7061 Cl  0  0  0  0  0  0  0  0  0  0  0  0
    0.9675    0.5821    0.0922 C   0  0  0  0  0  0  0  0  0  0  0  0
   -0.2086   -0.1739    0.1534 C   0  0  0  0  0  0  0  0  0  0  0  0
    3.3769   -2.3609   -0.0727 C   0  0  0  0  0  0  0  0  0  0  0  0
    4.5937   -2.0191   -0.1399 O   0  0  0  0  0  0  0  0  0  0  0  0
    2.8765   -3.6737   -0.0555 N   0  0  0  0  0  0  0  0  0  0  0  0
    1.4364   -3.6230    0.0280 C   0  0  0  0  0  0  0  0  0  0  0  0
    0.7732   -4.6703    0.0569 O   0  0  0  0  0  0  0  0  0  0  0  0
   -3.7936    3.4262    1.0810 H   0  0  0  0  0  0  0  0  0  0  0  0
   -4.5810    2.4743   -0.2104 H   0  0  0  0  0  0  0  0  0  0  0  0
   -4.6726    4.2929   -0.2203 H   0  0  0  0  0  0  0  0  0  0  0  0
   -3.0728    4.0417   -1.8119 H   0  0  0  0  0  0  0  0  0  0  0  0
   -2.0580    4.1422   -0.2680 H   0  0  0  0  0  0  0  0  0  0  0  0
   -3.1148    1.5939   -1.5674 H   0  0  0  0  0  0  0  0  0  0  0  0
   -1.4225    2.1070   -1.7812 H   0  0  0  0  0  0  0  0  0  0  0  0
   -1.3257    2.2262    0.8681 H   0  0  0  0  0  0  0  0  0  0  0  0
   -2.9704    1.5740    0.8145 H   0  0  0  0  0  0  0  0  0  0  0  0
   -4.2470   -0.0926    0.3869 H   0  0  0  0  0  0  0  0  0  0  0  0
   -5.2957   -2.3071    0.4278 H   0  0  0  0  0  0  0  0  0  0  0  0
   -4.2604   -5.0627   -0.5657 H   0  0  0  0  0  0  0  0  0  0  0  0
   -1.4983   -4.1266    0.1927 H   0  0  0  0  0  0  0  0  0  0  0  0
    3.7506    0.7741    2.0585 H   0  0  0  0  0  0  0  0  0  0  0  0
    5.8338    2.0424    1.9009 H   0  0  0  0  0  0  0  0  0  0  0  0
    6.6927    2.6580   -0.2816 H   0  0  0  0  0  0  0  0  0  0  0  0
    5.5130    2.0345   -2.3569 H   0  0  0  0  0  0  0  0  0  0  0  0
    0.9544    1.6646    0.1026 H   0  0  0  0  0  0  0  0  0  0  0  0
    3.4837   -4.5286   -0.0981 H   0  0  0  0  0  0  0  0  0  0  0  0
  1  2  1  0
  2  3  1  0
  3  4  1  0
  4  5  1  0
  5  6  1  0
  6  7  2  0
  7  8  1  0
  8  9  2  0
  9 10  1  0
  9 11  1  0
 11 12  2  0
 12 13  1  0
 13 14  2  0
 14 15  1  0
 15 16  2  0
 16 17  1  0
 17 18  2  0
 18 19  1  0
 19 20  2  0
 20 21  1  0
 21 22  2  0
 22 23  1  0
 16 24  1  0
 24 25  2  0
 15 26  1  0
 26 27  2  0
 26 28  1  0
 28 29  1  0
 29 30  2  0
 25  5  1  0
 12  6  1  0
 25 13  1  0
 29 14  1  0
 22 17  1  0
  1 31  1  0
  1 32  1  0
  1 33  1  0
  2 34  1  0
  2 35  1  0
  3 36  1  0
  3 37  1  0
  4 38  1  0
  4 39  1  0
  7 40  1  0
  8 41  1  0
 10 42  1  0
 11 43  1  0
 18 44  1  0
 19 45  1  0
 20 46  1  0
 21 47  1  0
 24 48  1  0
 28 49  1  0
M  END
$$$$
