
     RDKit          3D

 31 33  0  0  0  0  0  0  0  0999 V2000
    6.2888   -0.0160    1.1532 O   0  0  0  0  0  0  0  0  0  0  0  0
    5.1073   -0.2819    0.4445 C   0  0  0  0  0  0  0  0  0  0  0  0
    5.1068   -0.9914   -0.7229 C   0  0  0  0  0  0  0  0  0  0  0  0
    3.9151   -1.2193   -1.3682 C   0  0  0  0  0  0  0  0  0  0  0  0
    2.7215   -0.7747   -0.9085 C   0  0  0  0  0  0  0  0  0  0  0  0
    1.4746   -1.0335   -1.5857 N   0  0  0  0  0  0  0  0  0  0  0  0
    0.3516   -0.2578   -1.2027 C   0  0  0  0  0  0  0  0  0  0  0  0
   -0.8164   -0.3399   -0.8845 N   0  0  0  0  0  0  0  0  0  0  0  0
   -1.6323    0.6155   -0.5847 C   0  0  0  0  0  0  0  0  0  0  0  0
   -3.0360    0.3946   -0.1971 C   0  0  0  0  0  0  0  0  0  0  0  0
   -3.5648   -0.8771   -0.1252 C   0  0  0  0  0  0  0  0  0  0  0  0
   -4.8803   -1.1008    0.2359 C   0  0  0  0  0  0  0  0  0  0  0  0
   -5.7242   -0.0580    0.5427 C   0  0  0  0  0  0  0  0  0  0  0  0
   -7.3991   -0.3404    1.0021 Cl  0  0  0  0  0  0  0  0  0  0  0  0
   -5.2156    1.2197    0.4778 C   0  0  0  0  0  0  0  0  0  0  0  0
   -3.8897    1.4274    0.1115 C   0  0  0  0  0  0  0  0  0  0  0  0
   -1.1250    1.8889   -0.6281 C   0  0  0  0  0  0  0  0  0  0  0  0
    0.5454    1.6229   -1.1117 S   0  0  0  0  0  0  0  0  0  0  0  0
    2.7362   -0.0530    0.2826 C   0  0  0  0  0  0  0  0  0  0  0  0
    3.9144    0.1888    0.9481 C   0  0  0  0  0  0  0  0  0  0  0  0
    7.0873    0.2932    0.6154 H   0  0  0  0  0  0  0  0  0  0  0  0
    6.0593   -1.3536   -1.1086 H   0  0  0  0  0  0  0  0  0  0  0  0
    3.9550   -1.7956   -2.3102 H   0  0  0  0  0  0  0  0  0  0  0  0
    1.4743   -1.7746   -2.3133 H   0  0  0  0  0  0  0  0  0  0  0  0
   -2.8987   -1.7164   -0.3675 H   0  0  0  0  0  0  0  0  0  0  0  0
   -5.2778   -2.1137    0.2869 H   0  0  0  0  0  0  0  0  0  0  0  0
   -5.8359    2.0716    0.7107 H   0  0  0  0  0  0  0  0  0  0  0  0
   -3.5139    2.4467    0.0672 H   0  0  0  0  0  0  0  0  0  0  0  0
   -1.5983    2.8600   -0.4214 H   0  0  0  0  0  0  0  0  0  0  0  0
    1.7753    0.3111    0.6748 H   0  0  0  0  0  0  0  0  0  0  0  0
    3.8950    0.7573    1.8893 H   0  0  0  0  0  0  0  0  0  0  0  0
  1  2  1  0
  2  3  2  0
  3  4  1  0
  4  5  2  0
  5  6  1  0
  6  7  1  0
  7  8  2  0
  8  9  1  0
  9 10  1  0
 10 11  2  0
 11 12  1  0
 12 13  2  0
 13 14  1  0
 13 15  1  0
 15 16  2  0
  9 17  2  0
 17 18  1  0
  5 19  1  0
 19 20  2  0
 20  2  1  0
 18  7  1  0
 16 10  1  0
  1 21  1  0
  3 22  1  0
  4 23  1  0
  6 24  1  0
 11 25  1  0
 12 26  1  0
 15 27  1  0
 16 28  1  0
 17 29  1  0
 19 30  1  0
 20 31  1  0
M  END
$$$$
