
     RDKit          3D

 27 28  0  0  0  0  0  0  0  0999 V2000
   -0.9473   -0.4452   -0.1533 C   0  0  2  0  0  0  0  0  0  0  0  0
   -0.6540   -1.7290   -0.9274 C   0  0  0  0  0  0  0  0  0  0  0  0
    0.4424   -1.3250   -1.9150 C   0  0  0  0  0  0  0  0  0  0  0  0
    1.2756   -0.4561   -1.0146 C   0  0  0  0  0  0  0  0  0  0  0  0
    2.6228   -0.2145   -1.1809 C   0  0  0  0  0  0  0  0  0  0  0  0
    3.2645    0.5878   -0.2669 C   0  0  0  0  0  0  0  0  0  0  0  0
    2.5365    1.1145    0.7728 C   0  0  0  0  0  0  0  0  0  0  0  0
    3.2083    1.9138    1.6686 O   0  0  0  0  0  0  0  0  0  0  0  0
    1.1932    0.8333    0.8805 C   0  0  0  0  0  0  0  0  0  0  0  0
    0.4669    0.0461    0.0196 C   0  0  0  0  0  0  0  0  0  0  0  0
   -1.6330   -0.6863    1.0618 N   0  0  0  0  0  0  0  0  0  0  0  0
   -2.2255    0.5330    1.5506 C   0  0  0  0  0  0  0  0  0  0  0  0
   -3.3498    0.9487    0.6724 C   0  0  0  0  0  0  0  0  0  0  0  0
   -4.2494    1.2767   -0.0543 C   0  0  0  0  0  0  0  0  0  0  0  0
   -1.4416    0.2669   -0.8449 H   0  0  0  0  0  0  0  0  0  0  0  0
   -1.5239   -2.0089   -1.5259 H   0  0  0  0  0  0  0  0  0  0  0  0
   -0.3454   -2.5482   -0.2816 H   0  0  0  0  0  0  0  0  0  0  0  0
    0.0607   -0.7882   -2.7776 H   0  0  0  0  0  0  0  0  0  0  0  0
    1.0290   -2.2391   -2.1226 H   0  0  0  0  0  0  0  0  0  0  0  0
    3.1989   -0.6187   -1.9828 H   0  0  0  0  0  0  0  0  0  0  0  0
    4.2994    0.7830   -0.3781 H   0  0  0  0  0  0  0  0  0  0  0  0
    3.5288    1.6206    2.5804 H   0  0  0  0  0  0  0  0  0  0  0  0
    0.7413    1.2952    1.7369 H   0  0  0  0  0  0  0  0  0  0  0  0
   -2.2940   -1.4640    1.0855 H   0  0  0  0  0  0  0  0  0  0  0  0
   -1.5344    1.3877    1.5217 H   0  0  0  0  0  0  0  0  0  0  0  0
   -2.6360    0.3601    2.5827 H   0  0  0  0  0  0  0  0  0  0  0  0
   -5.0340    1.5560   -0.7077 H   0  0  0  0  0  0  0  0  0  0  0  0
  1  2  1  0
  2  3  1  0
  3  4  1  0
  4  5  2  0
  5  6  1  0
  6  7  2  0
  7  8  1  0
  7  9  1  0
  9 10  2  0
  1 11  1  0
 11 12  1  0
 12 13  1  0
 13 14  3  0
 10  1  1  0
 10  4  1  0
  1 15  1  6
  2 16  1  0
  2 17  1  0
  3 18  1  0
  3 19  1  0
  5 20  1  0
  6 21  1  0
  8 22  1  0
  9 23  1  0
 11 24  1  0
 12 25  1  0
 12 26  1  0
 14 27  1  0
M  END
$$$$
