
     RDKit          3D

 49 52  0  0  0  0  0  0  0  0999 V2000
   -7.7044    2.8848    1.4960 Cl  0  0  0  0  0  0  0  0  0  0  0  0
   -6.8000    1.4688    1.0118 C   0  0  0  0  0  0  0  0  0  0  0  0
   -7.4498    0.2945    0.6808 C   0  0  0  0  0  0  0  0  0  0  0  0
   -6.7045   -0.8075    0.3019 C   0  0  0  0  0  0  0  0  0  0  0  0
   -5.3150   -0.6929    0.2673 C   0  0  0  0  0  0  0  0  0  0  0  0
   -4.6711    0.4988    0.6040 C   0  0  0  0  0  0  0  0  0  0  0  0
   -5.4262    1.5952    0.9817 C   0  0  0  0  0  0  0  0  0  0  0  0
   -3.2517    0.3736    0.4937 N   0  0  0  0  0  0  0  0  0  0  0  0
   -2.4089    0.6389   -0.6900 C   0  0  0  0  0  0  0  0  0  0  0  0
   -1.4871   -0.5836   -0.7363 C   0  0  0  0  0  0  0  0  0  0  0  0
   -0.4797   -0.3941    0.2747 N   0  0  0  0  0  0  0  0  0  0  0  0
    0.5486    0.4764   -0.2313 C   0  0  0  0  0  0  0  0  0  0  0  0
    1.2018   -0.1255   -1.4170 C   0  0  0  0  0  0  0  0  0  0  0  0
    0.9725   -0.0051   -2.7731 C   0  0  0  0  0  0  0  0  0  0  0  0
    1.8518   -0.7837   -3.4317 N   0  0  0  0  0  0  0  0  0  0  0  0
    2.5994   -1.3628   -2.4651 C   0  0  0  0  0  0  0  0  0  0  0  0
    2.2351   -0.9877   -1.2249 N   0  0  0  0  0  0  0  0  0  0  0  0
    2.9666   -1.5334   -0.0895 C   0  0  0  0  0  0  0  0  0  0  0  0
    4.1218   -0.6852    0.2163 C   0  0  0  0  0  0  0  0  0  0  0  0
    5.2158   -1.0312   -0.5490 C   0  0  0  0  0  0  0  0  0  0  0  0
    6.4456   -0.3724   -0.4416 C   0  0  0  0  0  0  0  0  0  0  0  0
    6.5716    0.6705    0.4702 C   0  0  0  0  0  0  0  0  0  0  0  0
    5.4641    1.0182    1.2427 C   0  0  0  0  0  0  0  0  0  0  0  0
    4.2637    0.3429    1.1082 C   0  0  0  0  0  0  0  0  0  0  0  0
    7.7873    1.4074    0.6554 C   0  0  0  0  0  0  0  0  0  0  0  0
    8.7675    2.0015    0.8215 N   0  0  0  0  0  0  0  0  0  0  0  0
   -1.0154    0.0310    1.5311 C   0  0  0  0  0  0  0  0  0  0  0  0
   -2.4979   -0.0548    1.6262 C   0  0  0  0  0  0  0  0  0  0  0  0
   -3.0836   -0.4837    2.6523 O   0  0  0  0  0  0  0  0  0  0  0  0
   -8.5278    0.2214    0.7124 H   0  0  0  0  0  0  0  0  0  0  0  0
   -7.2177   -1.7277    0.0427 H   0  0  0  0  0  0  0  0  0  0  0  0
   -4.8173   -1.6188   -0.0446 H   0  0  0  0  0  0  0  0  0  0  0  0
   -4.8379    2.4451    1.2153 H   0  0  0  0  0  0  0  0  0  0  0  0
   -3.0290    0.7348   -1.5980 H   0  0  0  0  0  0  0  0  0  0  0  0
   -1.8937    1.5676   -0.4505 H   0  0  0  0  0  0  0  0  0  0  0  0
   -2.0691   -1.4967   -0.3875 H   0  0  0  0  0  0  0  0  0  0  0  0
   -1.1219   -0.7062   -1.7482 H   0  0  0  0  0  0  0  0  0  0  0  0
    1.2926    0.7142    0.5687 H   0  0  0  0  0  0  0  0  0  0  0  0
    0.1214    1.4432   -0.6117 H   0  0  0  0  0  0  0  0  0  0  0  0
    0.2182    0.6139   -3.1945 H   0  0  0  0  0  0  0  0  0  0  0  0
    3.3856   -2.0451   -2.7978 H   0  0  0  0  0  0  0  0  0  0  0  0
    2.2733   -1.4816    0.8062 H   0  0  0  0  0  0  0  0  0  0  0  0
    3.2104   -2.5761   -0.2764 H   0  0  0  0  0  0  0  0  0  0  0  0
    5.2801   -1.8125   -1.2969 H   0  0  0  0  0  0  0  0  0  0  0  0
    7.3281   -0.5971   -1.0088 H   0  0  0  0  0  0  0  0  0  0  0  0
    5.5200    1.8133    1.9543 H   0  0  0  0  0  0  0  0  0  0  0  0
    3.3896    0.5635    1.6728 H   0  0  0  0  0  0  0  0  0  0  0  0
   -0.5248   -0.4744    2.4013 H   0  0  0  0  0  0  0  0  0  0  0  0
   -0.6976    1.0999    1.6545 H   0  0  0  0  0  0  0  0  0  0  0  0
  1  2  1  0
  2  3  2  0
  3  4  1  0
  4  5  2  0
  5  6  1  0
  6  7  2  0
  6  8  1  0
  8  9  1  0
  9 10  1  0
 10 11  1  0
 11 12  1  0
 12 13  1  0
 13 14  2  0
 14 15  1  0
 15 16  2  0
 16 17  1  0
 17 18  1  0
 18 19  1  0
 19 20  2  0
 20 21  1  0
 21 22  2  0
 22 23  1  0
 23 24  2  0
 22 25  1  0
 25 26  3  0
 11 27  1  0
 27 28  1  0
 28 29  2  0
  7  2  1  0
 28  8  1  0
 17 13  1  0
 24 19  1  0
  3 30  1  0
  4 31  1  0
  5 32  1  0
  7 33  1  0
  9 34  1  0
  9 35  1  0
 10 36  1  0
 10 37  1  0
 12 38  1  0
 12 39  1  0
 14 40  1  0
 16 41  1  0
 18 42  1  0
 18 43  1  0
 20 44  1  0
 21 45  1  0
 23 46  1  0
 24 47  1  0
 27 48  1  0
 27 49  1  0
M  END
$$$$
