
     RDKit          3D

 34 35  0  0  0  0  0  0  0  0999 V2000
   -2.0785   -0.3953   -2.2640 C   0  0  0  0  0  0  0  0  0  0  0  0
   -1.9025   -0.3331   -0.8309 N   0  0  0  0  0  0  0  0  0  0  0  0
   -2.9451   -0.3039    0.0510 C   0  0  0  0  0  0  0  0  0  0  0  0
   -4.3938   -0.3319   -0.3528 C   0  0  0  0  0  0  0  0  0  0  0  0
   -4.9042    1.0486   -0.5447 C   0  0  0  0  0  0  0  0  0  0  0  0
   -6.2391    1.1597   -0.9217 O   0  0  0  0  0  0  0  0  0  0  0  0
   -4.1903    2.0595   -0.3812 O   0  0  0  0  0  0  0  0  0  0  0  0
   -2.5229   -0.2446    1.3692 C   0  0  0  0  0  0  0  0  0  0  0  0
   -1.1491   -0.2390    1.2456 C   0  0  0  0  0  0  0  0  0  0  0  0
   -0.7972   -0.2923   -0.0799 C   0  0  0  0  0  0  0  0  0  0  0  0
    0.5230   -0.3193   -0.6813 C   0  0  0  0  0  0  0  0  0  0  0  0
    0.5943   -0.4856   -1.9472 O   0  0  0  0  0  0  0  0  0  0  0  0
    1.8459   -0.1884   -0.0980 C   0  0  0  0  0  0  0  0  0  0  0  0
    2.9153   -0.8124   -0.7078 C   0  0  0  0  0  0  0  0  0  0  0  0
    4.2130   -0.7094   -0.1886 C   0  0  0  0  0  0  0  0  0  0  0  0
    4.4691    0.0207    0.9524 C   0  0  0  0  0  0  0  0  0  0  0  0
    5.8614    0.0978    1.4607 C   0  0  0  0  0  0  0  0  0  0  0  0
    3.4196    0.6558    1.5835 C   0  0  0  0  0  0  0  0  0  0  0  0
    2.1618    0.5265    1.0370 C   0  0  0  0  0  0  0  0  0  0  0  0
   -1.4224    0.3077   -2.8122 H   0  0  0  0  0  0  0  0  0  0  0  0
   -1.9667   -1.4445   -2.5961 H   0  0  0  0  0  0  0  0  0  0  0  0
   -3.1119   -0.0930   -2.5228 H   0  0  0  0  0  0  0  0  0  0  0  0
   -4.5275   -0.9336   -1.2756 H   0  0  0  0  0  0  0  0  0  0  0  0
   -4.9334   -0.8828    0.4423 H   0  0  0  0  0  0  0  0  0  0  0  0
   -6.6791    2.0798   -0.8183 H   0  0  0  0  0  0  0  0  0  0  0  0
   -3.1853   -0.2136    2.2206 H   0  0  0  0  0  0  0  0  0  0  0  0
   -0.5172   -0.2023    2.1114 H   0  0  0  0  0  0  0  0  0  0  0  0
    2.7743   -1.3908   -1.5944 H   0  0  0  0  0  0  0  0  0  0  0  0
    5.0315   -1.2060   -0.6829 H   0  0  0  0  0  0  0  0  0  0  0  0
    6.2018   -0.9186    1.7041 H   0  0  0  0  0  0  0  0  0  0  0  0
    6.5428    0.5784    0.7148 H   0  0  0  0  0  0  0  0  0  0  0  0
    5.9275    0.7061    2.3696 H   0  0  0  0  0  0  0  0  0  0  0  0
    3.5963    1.2338    2.4793 H   0  0  0  0  0  0  0  0  0  0  0  0
    1.3886    1.0440    1.5588 H   0  0  0  0  0  0  0  0  0  0  0  0
  1  2  1  0
  2  3  1  0
  3  4  1  0
  4  5  1  0
  5  6  1  0
  5  7  2  0
  3  8  2  0
  8  9  1  0
  9 10  2  0
 10 11  1  0
 11 12  2  0
 11 13  1  0
 13 14  2  0
 14 15  1  0
 15 16  2  0
 16 17  1  0
 16 18  1  0
 18 19  2  0
 10  2  1  0
 19 13  1  0
  1 20  1  0
  1 21  1  0
  1 22  1  0
  4 23  1  0
  4 24  1  0
  6 25  1  0
  8 26  1  0
  9 27  1  0
 14 28  1  0
 15 29  1  0
 17 30  1  0
 17 31  1  0
 17 32  1  0
 18 33  1  0
 19 34  1  0
M  END
$$$$
