
     RDKit          3D

 51 52  0  0  0  0  0  0  0  0999 V2000
   -6.5971    0.4467   -0.2040 C   0  0  0  0  0  0  0  0  0  0  0  0
   -5.2838    1.1021   -0.2901 N   0  0  0  0  0  0  0  0  0  0  0  0
   -5.4155    2.3087   -1.1202 C   0  0  0  0  0  0  0  0  0  0  0  0
   -4.0218    0.7582    0.2690 C   0  0  0  0  0  0  0  0  0  0  0  0
   -3.4090    1.6666    1.1380 C   0  0  0  0  0  0  0  0  0  0  0  0
   -2.1822    1.3273    1.6796 C   0  0  0  0  0  0  0  0  0  0  0  0
   -1.6259    0.1170    1.3380 C   0  0  0  0  0  0  0  0  0  0  0  0
   -2.1984   -0.7950    0.4889 C   0  0  0  0  0  0  0  0  0  0  0  0
   -3.4205   -0.4392   -0.0388 C   0  0  0  0  0  0  0  0  0  0  0  0
   -4.0535   -1.3188   -0.8721 C   0  0  0  0  0  0  0  0  0  0  0  0
   -3.4745   -2.5115   -1.1613 C   0  0  0  0  0  0  0  0  0  0  0  0
   -2.2550   -2.7920   -0.5974 C   0  0  0  0  0  0  0  0  0  0  0  0
   -1.5122   -1.9681    0.2690 C   0  0  0  0  0  0  0  0  0  0  0  0
    0.0453   -2.4029    0.8408 S   0  0  0  0  0  0  0  0  0  0  0  0
    0.2379   -3.8636    0.4097 O   0  0  0  0  0  0  0  0  0  0  0  0
    0.1261   -2.5535    2.3412 O   0  0  0  0  0  0  0  0  0  0  0  0
    1.3684   -1.6097    0.1781 N   0  0  0  0  0  0  0  0  0  0  0  0
    1.5685   -0.2435    0.2747 C   0  0  0  0  0  0  0  0  0  0  0  0
    2.8848    0.0693   -0.4595 C   0  0  0  0  0  0  0  0  0  0  0  0
    4.0259   -0.6779    0.1841 C   0  0  0  0  0  0  0  0  0  0  0  0
    5.3229   -0.3870   -0.5244 C   0  0  0  0  0  0  0  0  0  0  0  0
    5.6946    1.0592   -0.5116 C   0  0  2  0  0  0  0  0  0  0  0  0
    6.9587    1.1743   -1.2264 N   0  0  0  0  0  0  0  0  0  0  0  0
    5.8715    1.5724    0.8689 C   0  0  0  0  0  0  0  0  0  0  0  0
    4.8614    1.6166    1.8153 O   0  0  0  0  0  0  0  0  0  0  0  0
    6.9433    2.0255    1.3480 O   0  0  0  0  0  0  0  0  0  0  0  0
   -7.2658    1.2155    0.2612 H   0  0  0  0  0  0  0  0  0  0  0  0
   -6.9950    0.2493   -1.1991 H   0  0  0  0  0  0  0  0  0  0  0  0
   -6.5220   -0.4427    0.4450 H   0  0  0  0  0  0  0  0  0  0  0  0
   -4.5403    2.9842   -0.9883 H   0  0  0  0  0  0  0  0  0  0  0  0
   -5.4893    2.0616   -2.2014 H   0  0  0  0  0  0  0  0  0  0  0  0
   -6.3150    2.9032   -0.8450 H   0  0  0  0  0  0  0  0  0  0  0  0
   -3.8821    2.6016    1.3756 H   0  0  0  0  0  0  0  0  0  0  0  0
   -1.6783    2.0113    2.3597 H   0  0  0  0  0  0  0  0  0  0  0  0
   -0.6999   -0.1082    1.7999 H   0  0  0  0  0  0  0  0  0  0  0  0
   -4.9973   -1.0771   -1.2969 H   0  0  0  0  0  0  0  0  0  0  0  0
   -3.9562   -3.2148   -1.8119 H   0  0  0  0  0  0  0  0  0  0  0  0
   -1.8292   -3.7720   -0.8642 H   0  0  0  0  0  0  0  0  0  0  0  0
    1.7661   -2.0235   -0.6872 H   0  0  0  0  0  0  0  0  0  0  0  0
    0.7874    0.3873   -0.2435 H   0  0  0  0  0  0  0  0  0  0  0  0
    1.6752    0.2040    1.2705 H   0  0  0  0  0  0  0  0  0  0  0  0
    2.7965   -0.2204   -1.5149 H   0  0  0  0  0  0  0  0  0  0  0  0
    3.1102    1.1460   -0.4007 H   0  0  0  0  0  0  0  0  0  0  0  0
    3.8879   -1.7922    0.0974 H   0  0  0  0  0  0  0  0  0  0  0  0
    4.0631   -0.5082    1.2820 H   0  0  0  0  0  0  0  0  0  0  0  0
    6.0978   -1.0341   -0.0355 H   0  0  0  0  0  0  0  0  0  0  0  0
    5.2165   -0.7591   -1.5591 H   0  0  0  0  0  0  0  0  0  0  0  0
    4.9478    1.6300   -1.1015 H   0  0  0  0  0  0  0  0  0  0  0  0
    7.7704    0.9264   -0.6411 H   0  0  0  0  0  0  0  0  0  0  0  0
    6.9081    0.5492   -2.0796 H   0  0  0  0  0  0  0  0  0  0  0  0
    4.6837    2.4011    2.4242 H   0  0  0  0  0  0  0  0  0  0  0  0
  1  2  1  0
  2  3  1  0
  2  4  1  0
  4  5  2  0
  5  6  1  0
  6  7  2  0
  7  8  1  0
  8  9  2  0
  9 10  1  0
 10 11  2  0
 11 12  1  0
 12 13  2  0
 13 14  1  0
 14 15  2  0
 14 16  2  0
 14 17  1  0
 17 18  1  0
 18 19  1  0
 19 20  1  0
 20 21  1  0
 21 22  1  0
 22 23  1  0
 22 24  1  0
 24 25  1  0
 24 26  2  0
  9  4  1  0
 13  8  1  0
  1 27  1  0
  1 28  1  0
  1 29  1  0
  3 30  1  0
  3 31  1  0
  3 32  1  0
  5 33  1  0
  6 34  1  0
  7 35  1  0
 10 36  1  0
 11 37  1  0
 12 38  1  0
 17 39  1  0
 18 40  1  0
 18 41  1  0
 19 42  1  0
 19 43  1  0
 20 44  1  0
 20 45  1  0
 21 46  1  0
 21 47  1  0
 22 48  1  6
 23 49  1  0
 23 50  1  0
 25 51  1  0
M  END
$$$$
