
     RDKit          3D

 44 46  0  0  0  0  0  0  0  0999 V2000
   -2.3837    0.0063   -0.6224 C   0  0  1  0  0  0  0  0  0  0  0  0
   -1.5289    0.7422   -1.6218 C   0  0  0  0  0  0  0  0  0  0  0  0
   -1.6646    0.0661   -2.8551 O   0  0  0  0  0  0  0  0  0  0  0  0
   -2.3709    0.5547    0.6989 N   0  0  0  0  0  0  0  0  0  0  0  0
   -1.1500    0.6460    1.4218 C   0  0  0  0  0  0  0  0  0  0  0  0
    0.0144    0.2255    0.8942 N   0  0  0  0  0  0  0  0  0  0  0  0
    1.1418    0.3157    1.5757 N   0  0  0  0  0  0  0  0  0  0  0  0
    1.2030    0.8272    2.8277 C   0  0  0  0  0  0  0  0  0  0  0  0
    0.0577    1.2882    3.4604 C   0  0  0  0  0  0  0  0  0  0  0  0
   -1.1023    1.1700    2.6980 C   0  0  0  0  0  0  0  0  0  0  0  0
    2.4628    0.8005    3.2838 N   0  0  0  0  0  0  0  0  0  0  0  0
    3.2705    0.2687    2.3419 C   0  0  0  0  0  0  0  0  0  0  0  0
    2.4261   -0.0330    1.2699 C   0  0  0  0  0  0  0  0  0  0  0  0
    2.8668   -0.6330    0.0130 C   0  0  0  0  0  0  0  0  0  0  0  0
    4.0284   -0.0646   -0.5157 C   0  0  0  0  0  0  0  0  0  0  0  0
    4.5815   -0.5176   -1.7046 C   0  0  0  0  0  0  0  0  0  0  0  0
    5.7765    0.0967   -2.2099 N   0  0  0  0  0  0  0  0  0  0  0  0
    3.9655   -1.5575   -2.3806 C   0  0  0  0  0  0  0  0  0  0  0  0
    2.8193   -2.1079   -1.8455 C   0  0  0  0  0  0  0  0  0  0  0  0
    2.2560   -1.6703   -0.6656 C   0  0  0  0  0  0  0  0  0  0  0  0
   -3.7840   -0.1781   -1.1421 C   0  0  0  0  0  0  0  0  0  0  0  0
   -4.6725   -0.9189   -0.1541 C   0  0  0  0  0  0  0  0  0  0  0  0
   -4.4121    1.1462   -1.5063 C   0  0  0  0  0  0  0  0  0  0  0  0
   -1.9507   -1.0295   -0.5659 H   0  0  0  0  0  0  0  0  0  0  0  0
   -1.8396    1.7834   -1.8044 H   0  0  0  0  0  0  0  0  0  0  0  0
   -0.4663    0.7298   -1.3812 H   0  0  0  0  0  0  0  0  0  0  0  0
   -1.7337   -0.9144   -2.7315 H   0  0  0  0  0  0  0  0  0  0  0  0
   -3.2423    0.8968    1.1602 H   0  0  0  0  0  0  0  0  0  0  0  0
    0.0173    1.7071    4.4482 H   0  0  0  0  0  0  0  0  0  0  0  0
   -2.0351    1.5071    3.1214 H   0  0  0  0  0  0  0  0  0  0  0  0
    4.3191    0.0860    2.3365 H   0  0  0  0  0  0  0  0  0  0  0  0
    4.5584    0.7625   -0.0215 H   0  0  0  0  0  0  0  0  0  0  0  0
    5.9123    0.8600   -2.9307 H   0  0  0  0  0  0  0  0  0  0  0  0
    6.7023   -0.2125   -1.8504 H   0  0  0  0  0  0  0  0  0  0  0  0
    4.3818   -1.9359   -3.3239 H   0  0  0  0  0  0  0  0  0  0  0  0
    2.2956   -2.9281   -2.3376 H   0  0  0  0  0  0  0  0  0  0  0  0
    1.3632   -2.0663   -0.2064 H   0  0  0  0  0  0  0  0  0  0  0  0
   -3.7184   -0.8428   -2.0454 H   0  0  0  0  0  0  0  0  0  0  0  0
   -5.6110   -1.1644   -0.6907 H   0  0  0  0  0  0  0  0  0  0  0  0
   -4.1768   -1.8314    0.1954 H   0  0  0  0  0  0  0  0  0  0  0  0
   -4.9067   -0.2770    0.7339 H   0  0  0  0  0  0  0  0  0  0  0  0
   -5.4917    1.0331   -1.6732 H   0  0  0  0  0  0  0  0  0  0  0  0
   -4.2740    1.8375   -0.6666 H   0  0  0  0  0  0  0  0  0  0  0  0
   -3.9047    1.5261   -2.4191 H   0  0  0  0  0  0  0  0  0  0  0  0
  1  2  1  0
  2  3  1  0
  1  4  1  0
  4  5  1  0
  5  6  2  0
  6  7  1  0
  7  8  1  0
  8  9  1  0
  9 10  2  0
  8 11  2  0
 11 12  1  0
 12 13  2  0
 13 14  1  0
 14 15  2  0
 15 16  1  0
 16 17  1  0
 16 18  2  0
 18 19  1  0
 19 20  2  0
  1 21  1  0
 21 22  1  0
 21 23  1  0
 10  5  1  0
 20 14  1  0
 13  7  1  0
  1 24  1  1
  2 25  1  0
  2 26  1  0
  3 27  1  0
  4 28  1  0
  9 29  1  0
 10 30  1  0
 12 31  1  0
 15 32  1  0
 17 33  1  0
 17 34  1  0
 18 35  1  0
 19 36  1  0
 20 37  1  0
 21 38  1  0
 22 39  1  0
 22 40  1  0
 22 41  1  0
 23 42  1  0
 23 43  1  0
 23 44  1  0
M  END
$$$$
