
     RDKit          3D

  9  8  0  0  0  0  0  0  0  0999 V2000
   -1.4789   -0.3259   -0.1315 N   0  0  0  0  0  0  0  0  0  0  0  0
   -0.2451   -0.4086    0.5863 C   0  0  0  0  0  0  0  0  0  0  0  0
   -0.8031   -0.9068    1.5925 O   0  0  0  0  0  0  0  0  0  0  0  0
    0.8778    0.1038   -0.2204 C   0  0  0  0  0  0  0  0  0  0  0  0
    2.1593    0.1303    0.2458 O   0  0  0  0  0  0  0  0  0  0  0  0
    0.8722    0.5646   -1.3677 O   0  0  0  0  0  0  0  0  0  0  0  0
   -2.2862   -0.7512   -0.6780 H   0  0  0  0  0  0  0  0  0  0  0  0
   -1.8634    0.6580   -0.2019 H   0  0  0  0  0  0  0  0  0  0  0  0
    2.7675    0.9358    0.1750 H   0  0  0  0  0  0  0  0  0  0  0  0
  1  2  1  0
  2  3  2  0
  2  4  1  0
  4  5  1  0
  4  6  2  0
  1  7  1  0
  1  8  1  0
  5  9  1  0
M  END
$$$$
