
     RDKit          3D

 16 17  0  0  0  0  0  0  0  0999 V2000
    3.3866   -0.8348   -0.3254 O   0  0  0  0  0  0  0  0  0  0  0  0
    2.6036    0.0854   -0.0090 C   0  0  0  0  0  0  0  0  0  0  0  0
    3.1567    1.2900    0.4008 O   0  0  0  0  0  0  0  0  0  0  0  0
    1.1536   -0.0720   -0.0587 C   0  0  0  0  0  0  0  0  0  0  0  0
    0.4533   -1.1910   -0.4389 C   0  0  0  0  0  0  0  0  0  0  0  0
   -0.9084   -0.9569   -0.3552 C   0  0  0  0  0  0  0  0  0  0  0  0
   -2.1173   -1.4393   -0.5166 O   0  0  0  0  0  0  0  0  0  0  0  0
   -3.0273   -0.5467   -0.2092 C   0  0  0  0  0  0  0  0  0  0  0  0
   -2.3639    0.5929    0.1781 C   0  0  0  0  0  0  0  0  0  0  0  0
   -1.0140    0.3465    0.0902 C   0  0  0  0  0  0  0  0  0  0  0  0
    0.2400    0.8596    0.2620 N   0  0  0  0  0  0  0  0  0  0  0  0
    4.0450    1.3436    0.9114 H   0  0  0  0  0  0  0  0  0  0  0  0
    0.9151   -2.1095   -0.7538 H   0  0  0  0  0  0  0  0  0  0  0  0
   -4.1144   -0.7037   -0.2598 H   0  0  0  0  0  0  0  0  0  0  0  0
   -2.8417    1.5043    0.4907 H   0  0  0  0  0  0  0  0  0  0  0  0
    0.4332    1.8316    0.5934 H   0  0  0  0  0  0  0  0  0  0  0  0
  1  2  2  0
  2  3  1  0
  2  4  1  0
  4  5  2  0
  5  6  1  0
  6  7  1  0
  7  8  1  0
  8  9  2  0
  9 10  1  0
 10 11  1  0
 11  4  1  0
 10  6  2  0
  3 12  1  0
  5 13  1  0
  8 14  1  0
  9 15  1  0
 11 16  1  0
M  END
$$$$
