
     RDKit          3D

 58 61  0  0  0  0  0  0  0  0999 V2000
    6.9009    2.4360    1.3527 C   0  0  0  0  0  0  0  0  0  0  0  0
    6.1140    1.4108    0.8206 O   0  0  0  0  0  0  0  0  0  0  0  0
    5.7732    0.5658    1.8347 C   0  0  0  0  0  0  0  0  0  0  0  0
    4.9407   -0.6023    1.5308 C   0  0  2  0  0  0  0  0  0  0  0  0
    5.5940   -1.6225    0.6244 C   0  0  0  0  0  0  0  0  0  0  0  0
    4.3770   -2.4937    0.2971 C   0  0  0  0  0  0  0  0  0  0  0  0
    3.2058   -1.8431    0.9632 C   0  0  0  0  0  0  0  0  0  0  0  0
    3.6374   -0.4217    1.0031 N   0  0  0  0  0  0  0  0  0  0  0  0
    3.5281    0.2802   -0.5417 S   0  0  0  0  0  6  0  0  0  0  0  0
    3.9196    1.7507   -0.4165 O   0  0  0  0  0  0  0  0  0  0  0  0
    4.3897   -0.3196   -1.5817 O   0  0  0  0  0  0  0  0  0  0  0  0
    1.8693    0.2501   -1.1233 C   0  0  0  0  0  0  0  0  0  0  0  0
    1.0237    1.3023   -0.8548 C   0  0  0  0  0  0  0  0  0  0  0  0
   -0.2914    1.3256   -1.2910 C   0  0  0  0  0  0  0  0  0  0  0  0
   -0.7604    0.2396   -2.0256 C   0  0  0  0  0  0  0  0  0  0  0  0
    0.0970   -0.8077   -2.2875 C   0  0  0  0  0  0  0  0  0  0  0  0
    1.4179   -0.8274   -1.8475 C   0  0  0  0  0  0  0  0  0  0  0  0
   -0.6354   -1.8197   -3.0739 C   0  0  0  0  0  0  0  0  0  0  0  0
   -0.1663   -2.9019   -3.4870 O   0  0  0  0  0  0  0  0  0  0  0  0
   -1.9671   -1.2665   -3.2357 C   0  0  0  0  0  0  0  0  0  0  0  0
   -2.9059   -1.8261   -3.8529 O   0  0  0  0  0  0  0  0  0  0  0  0
   -2.0466    0.0016   -2.5909 N   0  0  0  0  0  0  0  0  0  0  0  0
   -3.2311    0.8482   -2.5486 C   0  0  0  0  0  0  0  0  0  0  0  0
   -4.0723    0.5267   -1.3738 C   0  0  0  0  0  0  0  0  0  0  0  0
   -5.0649   -0.4267   -1.4426 C   0  0  0  0  0  0  0  0  0  0  0  0
   -5.8561   -0.7394   -0.3679 C   0  0  0  0  0  0  0  0  0  0  0  0
   -5.6768   -0.0881    0.8550 C   0  0  0  0  0  0  0  0  0  0  0  0
   -6.5324   -0.4315    2.0158 C   0  0  0  0  0  0  0  0  0  0  0  0
   -5.7363   -0.7272    3.0832 F   0  0  0  0  0  0  0  0  0  0  0  0
   -7.4543    0.7425    2.3695 C   0  0  0  0  0  0  0  0  0  0  0  0
   -6.6372    1.8239    2.6804 O   0  0  0  0  0  0  0  0  0  0  0  0
   -4.6849    0.8602    0.9128 C   0  0  0  0  0  0  0  0  0  0  0  0
   -3.8834    1.1748   -0.1819 C   0  0  0  0  0  0  0  0  0  0  0  0
    7.8184    2.0266    1.8156 H   0  0  0  0  0  0  0  0  0  0  0  0
    6.3281    2.9131    2.1884 H   0  0  0  0  0  0  0  0  0  0  0  0
    7.1088    3.2336    0.6194 H   0  0  0  0  0  0  0  0  0  0  0  0
    6.7482    0.1761    2.2613 H   0  0  0  0  0  0  0  0  0  0  0  0
    5.3131    1.1021    2.6999 H   0  0  0  0  0  0  0  0  0  0  0  0
    4.8005   -1.1670    2.5099 H   0  0  0  0  0  0  0  0  0  0  0  0
    6.0840   -1.2106   -0.2512 H   0  0  0  0  0  0  0  0  0  0  0  0
    6.2991   -2.2504    1.1846 H   0  0  0  0  0  0  0  0  0  0  0  0
    4.2702   -2.5059   -0.7931 H   0  0  0  0  0  0  0  0  0  0  0  0
    4.5393   -3.5386    0.6354 H   0  0  0  0  0  0  0  0  0  0  0  0
    3.1459   -2.1384    2.0400 H   0  0  0  0  0  0  0  0  0  0  0  0
    2.2607   -1.9611    0.4423 H   0  0  0  0  0  0  0  0  0  0  0  0
    1.3383    2.1789   -0.2836 H   0  0  0  0  0  0  0  0  0  0  0  0
   -0.9558    2.1514   -1.0817 H   0  0  0  0  0  0  0  0  0  0  0  0
    2.0478   -1.6831   -2.0856 H   0  0  0  0  0  0  0  0  0  0  0  0
   -2.8726    1.8973   -2.5486 H   0  0  0  0  0  0  0  0  0  0  0  0
   -3.8509    0.7361   -3.4647 H   0  0  0  0  0  0  0  0  0  0  0  0
   -5.1804   -0.9183   -2.4122 H   0  0  0  0  0  0  0  0  0  0  0  0
   -6.6281   -1.4984   -0.4652 H   0  0  0  0  0  0  0  0  0  0  0  0
   -7.1973   -1.2912    1.7110 H   0  0  0  0  0  0  0  0  0  0  0  0
   -8.0946    0.4628    3.2134 H   0  0  0  0  0  0  0  0  0  0  0  0
   -8.0502    0.9705    1.4617 H   0  0  0  0  0  0  0  0  0  0  0  0
   -6.8242    2.6293    2.1640 H   0  0  0  0  0  0  0  0  0  0  0  0
   -4.5121    1.3896    1.8502 H   0  0  0  0  0  0  0  0  0  0  0  0
   -3.1218    1.9217   -0.0927 H   0  0  0  0  0  0  0  0  0  0  0  0
  1  2  1  0
  2  3  1  0
  3  4  1  0
  4  5  1  0
  5  6  1  0
  6  7  1  0
  7  8  1  0
  8  9  1  0
  9 10  2  0
  9 11  2  0
  9 12  1  0
 12 13  2  0
 13 14  1  0
 14 15  2  0
 15 16  1  0
 16 17  2  0
 16 18  1  0
 18 19  2  0
 18 20  1  0
 20 21  2  0
 20 22  1  0
 22 23  1  0
 23 24  1  0
 24 25  2  0
 25 26  1  0
 26 27  2  0
 27 28  1  0
 28 29  1  0
 28 30  1  0
 30 31  1  0
 27 32  1  0
 32 33  2  0
  8  4  1  0
 17 12  1  0
 33 24  1  0
 22 15  1  0
  1 34  1  0
  1 35  1  0
  1 36  1  0
  3 37  1  0
  3 38  1  0
  4 39  1  1
  5 40  1  0
  5 41  1  0
  6 42  1  0
  6 43  1  0
  7 44  1  0
  7 45  1  0
 13 46  1  0
 14 47  1  0
 17 48  1  0
 23 49  1  0
 23 50  1  0
 25 51  1  0
 26 52  1  0
 28 53  1  0
 30 54  1  0
 30 55  1  0
 31 56  1  0
 32 57  1  0
 33 58  1  0
M  END
$$$$
