
     RDKit          3D

 63 66  0  0  0  0  0  0  0  0999 V2000
    9.6097   -1.0161    0.7932 C   0  0  0  0  0  0  0  0  0  0  0  0
    8.4191   -1.0499    1.6859 C   0  0  0  0  0  0  0  0  0  0  0  0
    8.4613   -1.5309    2.8449 O   0  0  0  0  0  0  0  0  0  0  0  0
    7.1649   -0.4990    1.1782 C   0  0  0  0  0  0  0  0  0  0  0  0
    7.0612    0.0391   -0.0802 C   0  0  0  0  0  0  0  0  0  0  0  0
    5.8656    0.5651   -0.5672 C   0  0  0  0  0  0  0  0  0  0  0  0
    4.7221    0.5722    0.1919 C   0  0  0  0  0  0  0  0  0  0  0  0
    3.4759    1.0974   -0.2308 N   0  0  0  0  0  0  0  0  0  0  0  0
    2.3096    0.7775    0.6154 C   0  0  0  0  0  0  0  0  0  0  0  0
    1.0350    1.1661   -0.1806 C   0  0  0  0  0  0  0  0  0  0  0  0
    1.2497    0.7005   -1.4997 N   0  0  0  0  0  0  0  0  0  0  0  0
    0.6056   -0.3739   -2.1048 C   0  0  0  0  0  0  0  0  0  0  0  0
    1.0396   -0.6912   -3.3184 O   0  0  0  0  0  0  0  0  0  0  0  0
   -0.4694   -1.2449   -1.6724 C   0  0  0  0  0  0  0  0  0  0  0  0
   -1.1224   -0.9610   -0.4216 N   0  0  0  0  0  0  0  0  0  0  0  0
   -1.9386   -2.1585   -0.1401 C   0  0  0  0  0  0  0  0  0  0  0  0
   -3.0612   -2.0894   -1.1201 C   0  0  0  0  0  0  0  0  0  0  0  0
   -3.2368   -0.6373   -1.4525 C   0  0  1  0  0  0  0  0  0  0  0  0
   -4.6121   -0.1415   -1.1486 C   0  0  0  0  0  0  0  0  0  0  0  0
   -5.2906    0.3290   -2.0840 O   0  0  0  0  0  0  0  0  0  0  0  0
   -5.1634   -0.1865    0.1431 N   0  0  0  0  0  0  0  0  0  0  0  0
   -6.4426    0.2543    0.5337 C   0  0  0  0  0  0  0  0  0  0  0  0
   -6.7868    0.0868    1.8806 C   0  0  0  0  0  0  0  0  0  0  0  0
   -7.9811    0.4588    2.4294 C   0  0  0  0  0  0  0  0  0  0  0  0
   -8.9259    1.0466    1.5936 C   0  0  0  0  0  0  0  0  0  0  0  0
  -10.1492    1.4323    2.1360 O   0  0  0  0  0  0  0  0  0  0  0  0
   -8.6201    1.2241    0.2726 C   0  0  0  0  0  0  0  0  0  0  0  0
   -9.7830    1.9630   -0.8210 Cl  0  0  0  0  0  0  0  0  0  0  0  0
   -7.3877    0.8353   -0.2725 C   0  0  0  0  0  0  0  0  0  0  0  0
   -2.1877    0.0596   -0.6586 C   0  0  0  0  0  0  0  0  0  0  0  0
    2.2335    1.4423   -2.3105 C   0  0  0  0  0  0  0  0  0  0  0  0
    3.3341    1.8990   -1.3916 C   0  0  0  0  0  0  0  0  0  0  0  0
    4.8351    0.0199    1.4789 C   0  0  0  0  0  0  0  0  0  0  0  0
    6.0150   -0.4907    1.9382 C   0  0  0  0  0  0  0  0  0  0  0  0
    9.4694   -1.6782   -0.0811 H   0  0  0  0  0  0  0  0  0  0  0  0
    9.8148    0.0332    0.4336 H   0  0  0  0  0  0  0  0  0  0  0  0
   10.5087   -1.2962    1.3897 H   0  0  0  0  0  0  0  0  0  0  0  0
    7.9306    0.0559   -0.7117 H   0  0  0  0  0  0  0  0  0  0  0  0
    5.8404    0.9758   -1.5795 H   0  0  0  0  0  0  0  0  0  0  0  0
    2.3580    1.3035    1.5686 H   0  0  0  0  0  0  0  0  0  0  0  0
    2.2979   -0.3236    0.6994 H   0  0  0  0  0  0  0  0  0  0  0  0
    0.1600    0.8432    0.3635 H   0  0  0  0  0  0  0  0  0  0  0  0
    1.0811    2.3006   -0.2149 H   0  0  0  0  0  0  0  0  0  0  0  0
   -1.2273   -1.4337   -2.4797 H   0  0  0  0  0  0  0  0  0  0  0  0
   -0.0135   -2.2794   -1.5244 H   0  0  0  0  0  0  0  0  0  0  0  0
   -2.2482   -2.1755    0.9113 H   0  0  0  0  0  0  0  0  0  0  0  0
   -1.3342   -3.0712   -0.3217 H   0  0  0  0  0  0  0  0  0  0  0  0
   -2.7677   -2.6713   -2.0261 H   0  0  0  0  0  0  0  0  0  0  0  0
   -3.9994   -2.5436   -0.7226 H   0  0  0  0  0  0  0  0  0  0  0  0
   -3.0380   -0.4895   -2.5302 H   0  0  0  0  0  0  0  0  0  0  0  0
   -4.5309   -0.5982    0.8792 H   0  0  0  0  0  0  0  0  0  0  0  0
   -6.0538   -0.3717    2.5409 H   0  0  0  0  0  0  0  0  0  0  0  0
   -8.2251    0.3190    3.4751 H   0  0  0  0  0  0  0  0  0  0  0  0
  -10.7769    0.7300    2.5041 H   0  0  0  0  0  0  0  0  0  0  0  0
   -7.1807    0.9878   -1.3045 H   0  0  0  0  0  0  0  0  0  0  0  0
   -2.5270    0.4633    0.2931 H   0  0  0  0  0  0  0  0  0  0  0  0
   -1.6826    0.8712   -1.2199 H   0  0  0  0  0  0  0  0  0  0  0  0
    1.7726    2.3464   -2.7584 H   0  0  0  0  0  0  0  0  0  0  0  0
    2.6056    0.8216   -3.1480 H   0  0  0  0  0  0  0  0  0  0  0  0
    3.1499    2.9800   -1.0899 H   0  0  0  0  0  0  0  0  0  0  0  0
    4.2582    1.9183   -1.9776 H   0  0  0  0  0  0  0  0  0  0  0  0
    3.9780    0.0040    2.1015 H   0  0  0  0  0  0  0  0  0  0  0  0
    6.1014   -0.9201    2.9398 H   0  0  0  0  0  0  0  0  0  0  0  0
  1  2  1  0
  2  3  2  0
  2  4  1  0
  4  5  2  0
  5  6  1  0
  6  7  2  0
  7  8  1  0
  8  9  1  0
  9 10  1  0
 10 11  1  0
 11 12  1  0
 12 13  2  0
 12 14  1  0
 14 15  1  0
 15 16  1  0
 16 17  1  0
 17 18  1  0
 18 19  1  0
 19 20  2  0
 19 21  1  0
 21 22  1  0
 22 23  2  0
 23 24  1  0
 24 25  2  0
 25 26  1  0
 25 27  1  0
 27 28  1  0
 27 29  2  0
 18 30  1  0
 11 31  1  0
 31 32  1  0
  7 33  1  0
 33 34  2  0
 34  4  1  0
 32  8  1  0
 30 15  1  0
 29 22  1  0
  1 35  1  0
  1 36  1  0
  1 37  1  0
  5 38  1  0
  6 39  1  0
  9 40  1  0
  9 41  1  0
 10 42  1  0
 10 43  1  0
 14 44  1  0
 14 45  1  0
 16 46  1  0
 16 47  1  0
 17 48  1  0
 17 49  1  0
 18 50  1  6
 21 51  1  0
 23 52  1  0
 24 53  1  0
 26 54  1  0
 29 55  1  0
 30 56  1  0
 30 57  1  0
 31 58  1  0
 31 59  1  0
 32 60  1  0
 32 61  1  0
 33 62  1  0
 34 63  1  0
M  END
$$$$
