
     RDKit          3D

 52 55  0  0  0  0  0  0  0  0999 V2000
   -3.9960    0.6035   -2.0399 C   0  0  0  0  0  0  0  0  0  0  0  0
   -3.1168    0.0518   -1.1115 O   0  0  0  0  0  0  0  0  0  0  0  0
   -2.1446    0.8014   -0.4159 C   0  0  0  0  0  0  0  0  0  0  0  0
   -2.0091    2.1528   -0.6178 C   0  0  0  0  0  0  0  0  0  0  0  0
   -1.0490    2.8515    0.0807 C   0  0  0  0  0  0  0  0  0  0  0  0
   -0.2418    2.1772    0.9702 C   0  0  0  0  0  0  0  0  0  0  0  0
   -0.3905    0.8112    1.1636 C   0  0  0  0  0  0  0  0  0  0  0  0
    0.4182    0.1267    2.0577 O   0  0  0  0  0  0  0  0  0  0  0  0
    1.4154    0.8044    2.7941 C   0  0  0  0  0  0  0  0  0  0  0  0
   -1.3462    0.1059    0.4704 C   0  0  0  0  0  0  0  0  0  0  0  0
   -1.5365   -1.3581    0.6676 C   0  0  0  0  0  0  0  0  0  0  0  0
   -2.3919   -1.6401    1.8785 C   0  0  0  0  0  0  0  0  0  0  0  0
   -2.1470   -3.0567    2.3281 C   0  0  0  0  0  0  0  0  0  0  0  0
   -0.7304   -3.0772    2.9214 C   0  0  0  0  0  0  0  0  0  0  0  0
    0.1960   -2.6452    1.8175 C   0  0  0  0  0  0  0  0  0  0  0  0
    1.4251   -2.7890    2.0197 O   0  0  0  0  0  0  0  0  0  0  0  0
   -0.3130   -2.1062    0.6161 N   0  0  0  0  0  0  0  0  0  0  0  0
    0.3574   -2.3012   -0.6255 C   0  0  0  0  0  0  0  0  0  0  0  0
    1.3185   -1.2433   -0.9558 C   0  0  0  0  0  0  0  0  0  0  0  0
    2.6430   -1.2698   -0.5972 C   0  0  0  0  0  0  0  0  0  0  0  0
    3.5050   -0.2484   -0.9398 C   0  0  0  0  0  0  0  0  0  0  0  0
    3.0315    0.8245   -1.6579 C   0  0  0  0  0  0  0  0  0  0  0  0
    3.8208    1.8840   -2.0384 C   0  0  0  0  0  0  0  0  0  0  0  0
    3.3141    2.9518   -2.7598 C   0  0  0  0  0  0  0  0  0  0  0  0
    1.9777    2.9763   -3.1207 C   0  0  0  0  0  0  0  0  0  0  0  0
    1.2054    1.9194   -2.7378 C   0  0  0  0  0  0  0  0  0  0  0  0
    1.6939    0.8368   -2.0127 C   0  0  0  0  0  0  0  0  0  0  0  0
    0.9072   -0.1710   -1.6578 N   0  0  0  0  0  0  0  0  0  0  0  0
   -4.8851    1.0451   -1.5304 H   0  0  0  0  0  0  0  0  0  0  0  0
   -3.4527    1.3438   -2.6593 H   0  0  0  0  0  0  0  0  0  0  0  0
   -4.3486   -0.1895   -2.7422 H   0  0  0  0  0  0  0  0  0  0  0  0
   -2.6631    2.6648   -1.3292 H   0  0  0  0  0  0  0  0  0  0  0  0
   -0.9583    3.9128   -0.0921 H   0  0  0  0  0  0  0  0  0  0  0  0
    0.5139    2.7358    1.5178 H   0  0  0  0  0  0  0  0  0  0  0  0
    2.1677    0.0981    3.2119 H   0  0  0  0  0  0  0  0  0  0  0  0
    0.9637    1.4249    3.5761 H   0  0  0  0  0  0  0  0  0  0  0  0
    1.9847    1.4785    2.1274 H   0  0  0  0  0  0  0  0  0  0  0  0
   -2.1426   -1.7223   -0.2162 H   0  0  0  0  0  0  0  0  0  0  0  0
   -3.4490   -1.4780    1.5744 H   0  0  0  0  0  0  0  0  0  0  0  0
   -2.1024   -0.9651    2.7206 H   0  0  0  0  0  0  0  0  0  0  0  0
   -2.1303   -3.7507    1.4625 H   0  0  0  0  0  0  0  0  0  0  0  0
   -2.8712   -3.3658    3.1064 H   0  0  0  0  0  0  0  0  0  0  0  0
   -0.4615   -4.1194    3.1779 H   0  0  0  0  0  0  0  0  0  0  0  0
   -0.6071   -2.3787    3.7533 H   0  0  0  0  0  0  0  0  0  0  0  0
    0.9535   -3.2546   -0.5552 H   0  0  0  0  0  0  0  0  0  0  0  0
   -0.4233   -2.4018   -1.4216 H   0  0  0  0  0  0  0  0  0  0  0  0
    3.0434   -2.0864   -0.0471 H   0  0  0  0  0  0  0  0  0  0  0  0
    4.5417   -0.2628   -0.6619 H   0  0  0  0  0  0  0  0  0  0  0  0
    4.8663    1.8612   -1.7535 H   0  0  0  0  0  0  0  0  0  0  0  0
    3.9580    3.7542   -3.0342 H   0  0  0  0  0  0  0  0  0  0  0  0
    1.5372    3.7758   -3.6769 H   0  0  0  0  0  0  0  0  0  0  0  0
    0.1486    1.9071   -3.0058 H   0  0  0  0  0  0  0  0  0  0  0  0
  1  2  1  0
  2  3  1  0
  3  4  2  0
  4  5  1  0
  5  6  2  0
  6  7  1  0
  7  8  1  0
  8  9  1  0
  7 10  2  0
 10 11  1  0
 11 12  1  0
 12 13  1  0
 13 14  1  0
 14 15  1  0
 15 16  2  0
 15 17  1  0
 17 18  1  0
 18 19  1  0
 19 20  2  0
 20 21  1  0
 21 22  2  0
 22 23  1  0
 23 24  2  0
 24 25  1  0
 25 26  2  0
 26 27  1  0
 27 28  2  0
 10  3  1  0
 17 11  1  0
 28 19  1  0
 27 22  1  0
  1 29  1  0
  1 30  1  0
  1 31  1  0
  4 32  1  0
  5 33  1  0
  6 34  1  0
  9 35  1  0
  9 36  1  0
  9 37  1  0
 11 38  1  0
 12 39  1  0
 12 40  1  0
 13 41  1  0
 13 42  1  0
 14 43  1  0
 14 44  1  0
 18 45  1  0
 18 46  1  0
 20 47  1  0
 21 48  1  0
 23 49  1  0
 24 50  1  0
 25 51  1  0
 26 52  1  0
M  END
$$$$
