
     RDKit          3D

 61 60  0  0  0  0  0  0  0  0999 V2000
   -5.6220    2.3799   -0.7679 C   0  0  1  0  0  0  0  0  0  0  0  0
   -6.6431    2.5403   -1.8144 N   0  0  0  0  0  0  0  0  0  0  0  0
   -4.3760    1.8004   -1.4149 C   0  0  0  0  0  0  0  0  0  0  0  0
   -3.2516    1.5879   -0.4105 C   0  0  0  0  0  0  0  0  0  0  0  0
   -3.6993    0.6349    0.6490 C   0  0  0  0  0  0  0  0  0  0  0  0
   -4.1487   -0.2259    1.6451 O   0  0  0  0  0  0  0  0  0  0  0  0
   -3.0736   -0.3952    0.8470 N   0  0  0  0  0  0  0  0  0  0  0  0
   -1.9742   -1.1222    0.4236 C   0  0  1  0  0  0  0  0  0  0  0  0
   -0.7654   -0.9714    1.3914 C   0  0  0  0  0  0  0  0  0  0  0  0
    0.5695   -1.9744    0.8120 S   0  0  0  0  0  0  0  0  0  0  0  0
    2.1434   -1.2720    0.5531 C   0  0  0  0  0  0  0  0  0  0  0  0
    2.3748   -0.2557   -0.5277 C   0  0  0  0  0  0  0  0  0  0  0  0
    3.8859    0.0193   -0.4236 C   0  0  0  0  0  0  0  0  0  0  0  0
    4.4019    0.9832   -1.4206 C   0  0  0  0  0  0  0  0  0  0  0  0
    5.8920    1.1440   -1.2643 C   0  0  0  0  0  0  0  0  0  0  0  0
    6.2256    1.6733    0.0890 C   0  0  0  0  0  0  0  0  0  0  0  0
    7.7293    1.8683    0.2591 C   0  0  0  0  0  0  0  0  0  0  0  0
    8.5231    0.6217    0.0960 C   0  0  0  0  0  0  0  0  0  0  0  0
   -2.2583   -2.6187    0.4511 C   0  0  0  0  0  0  0  0  0  0  0  0
   -1.1399   -3.4160    0.3165 O   0  0  0  0  0  0  0  0  0  0  0  0
   -3.3656   -3.2770    0.5718 N   0  0  0  0  0  0  0  0  0  0  0  0
   -3.3989   -4.7344    0.5749 C   0  0  0  0  0  0  0  0  0  0  0  0
   -4.5347   -5.2388    1.3904 C   0  0  0  0  0  0  0  0  0  0  0  0
   -5.6177   -4.5967    1.9391 O   0  0  0  0  0  0  0  0  0  0  0  0
   -4.4966   -6.4766    1.6240 O   0  0  0  0  0  0  0  0  0  0  0  0
   -5.3899    3.6348   -0.0392 C   0  0  0  0  0  0  0  0  0  0  0  0
   -6.0716    4.7453   -0.5229 O   0  0  0  0  0  0  0  0  0  0  0  0
   -4.6652    3.8938    0.9779 O   0  0  0  0  0  0  0  0  0  0  0  0
   -6.0391    1.6373   -0.0511 H   0  0  0  0  0  0  0  0  0  0  0  0
   -6.5587    1.7424   -2.4491 H   0  0  0  0  0  0  0  0  0  0  0  0
   -6.5448    3.4467   -2.2710 H   0  0  0  0  0  0  0  0  0  0  0  0
   -4.0243    2.4464   -2.2314 H   0  0  0  0  0  0  0  0  0  0  0  0
   -4.6837    0.8019   -1.7868 H   0  0  0  0  0  0  0  0  0  0  0  0
   -2.3542    1.2168   -0.9223 H   0  0  0  0  0  0  0  0  0  0  0  0
   -3.0090    2.5760    0.0313 H   0  0  0  0  0  0  0  0  0  0  0  0
   -4.8904    0.0697    2.2900 H   0  0  0  0  0  0  0  0  0  0  0  0
   -1.5515   -0.8899   -0.5884 H   0  0  0  0  0  0  0  0  0  0  0  0
   -1.1336   -1.2076    2.4217 H   0  0  0  0  0  0  0  0  0  0  0  0
   -0.4604    0.1274    1.3779 H   0  0  0  0  0  0  0  0  0  0  0  0
    2.4952   -0.7080    1.5030 H   0  0  0  0  0  0  0  0  0  0  0  0
    2.9419   -2.0622    0.3956 H   0  0  0  0  0  0  0  0  0  0  0  0
    2.0888   -0.5383   -1.5319 H   0  0  0  0  0  0  0  0  0  0  0  0
    1.8873    0.6905   -0.1868 H   0  0  0  0  0  0  0  0  0  0  0  0
    4.0098    0.3381    0.6349 H   0  0  0  0  0  0  0  0  0  0  0  0
    4.3688   -0.9657   -0.5663 H   0  0  0  0  0  0  0  0  0  0  0  0
    3.9595    2.0141   -1.3003 H   0  0  0  0  0  0  0  0  0  0  0  0
    4.1315    0.6454   -2.4502 H   0  0  0  0  0  0  0  0  0  0  0  0
    6.3708    1.7172   -2.0895 H   0  0  0  0  0  0  0  0  0  0  0  0
    6.3005    0.0829   -1.3727 H   0  0  0  0  0  0  0  0  0  0  0  0
    5.7834    2.7088    0.1629 H   0  0  0  0  0  0  0  0  0  0  0  0
    5.8470    0.9948    0.8582 H   0  0  0  0  0  0  0  0  0  0  0  0
    7.8662    2.2671    1.3011 H   0  0  0  0  0  0  0  0  0  0  0  0
    8.0766    2.6542   -0.4314 H   0  0  0  0  0  0  0  0  0  0  0  0
    7.9725   -0.3231    0.2865 H   0  0  0  0  0  0  0  0  0  0  0  0
    9.0542    0.6336   -0.8878 H   0  0  0  0  0  0  0  0  0  0  0  0
    9.3450    0.6252    0.8701 H   0  0  0  0  0  0  0  0  0  0  0  0
   -1.0714   -4.2813   -0.1781 H   0  0  0  0  0  0  0  0  0  0  0  0
   -3.4546   -5.1676   -0.4422 H   0  0  0  0  0  0  0  0  0  0  0  0
   -2.4560   -5.1479    1.0382 H   0  0  0  0  0  0  0  0  0  0  0  0
   -5.8420   -4.7801    2.9057 H   0  0  0  0  0  0  0  0  0  0  0  0
   -5.6780    5.6830   -0.3449 H   0  0  0  0  0  0  0  0  0  0  0  0
  1  2  1  0
  1  3  1  0
  3  4  1  0
  4  5  1  0
  5  6  1  0
  5  7  2  3
  7  8  1  0
  8  9  1  0
  9 10  1  0
 10 11  1  0
 11 12  1  0
 12 13  1  0
 13 14  1  0
 14 15  1  0
 15 16  1  0
 16 17  1  0
 17 18  1  0
  8 19  1  0
 19 20  1  0
 19 21  2  3
 21 22  1  0
 22 23  1  0
 23 24  1  0
 23 25  2  0
  1 26  1  0
 26 27  1  0
 26 28  2  0
  1 29  1  1
  2 30  1  0
  2 31  1  0
  3 32  1  0
  3 33  1  0
  4 34  1  0
  4 35  1  0
  6 36  1  0
  8 37  1  6
  9 38  1  0
  9 39  1  0
 11 40  1  0
 11 41  1  0
 12 42  1  0
 12 43  1  0
 13 44  1  0
 13 45  1  0
 14 46  1  0
 14 47  1  0
 15 48  1  0
 15 49  1  0
 16 50  1  0
 16 51  1  0
 17 52  1  0
 17 53  1  0
 18 54  1  0
 18 55  1  0
 18 56  1  0
 20 57  1  0
 22 58  1  0
 22 59  1  0
 24 60  1  0
 27 61  1  0
M  END
$$$$
