
     RDKit          3D

 61 64  0  0  0  0  0  0  0  0999 V2000
   -3.7510   -1.1009   -1.5348 O   0  0  0  0  0  0  0  0  0  0  0  0
   -4.5538   -0.4437   -0.7935 C   0  0  0  0  0  0  0  0  0  0  0  0
   -4.3683   -0.4950    0.6042 N   0  0  0  0  0  0  0  0  0  0  0  0
   -3.2694   -1.2938    1.1782 C   0  0  2  0  0  0  0  0  0  0  0  0
   -3.9298   -2.2694    2.1296 C   0  0  0  0  0  0  0  0  0  0  0  0
   -4.0745   -1.4030    3.3678 C   0  0  0  0  0  0  0  0  0  0  0  0
   -2.6960   -0.7866    3.4718 C   0  0  0  0  0  0  0  0  0  0  0  0
   -2.3903   -0.4290    2.0474 C   0  0  1  0  0  0  0  0  0  0  0  0
   -1.0228   -0.5584    1.7326 O   0  0  0  0  0  0  0  0  0  0  0  0
   -0.1980    0.4417    1.2817 C   0  0  0  0  0  0  0  0  0  0  0  0
   -0.6970    1.5868    1.1314 O   0  0  0  0  0  0  0  0  0  0  0  0
    1.2143    0.2413    0.9720 C   0  0  0  0  0  0  0  0  0  0  0  0
    1.7762   -1.0175    1.1352 C   0  0  0  0  0  0  0  0  0  0  0  0
    3.0746   -1.2900    0.8690 C   0  0  0  0  0  0  0  0  0  0  0  0
    3.5419   -2.5877    1.0660 O   0  0  0  0  0  0  0  0  0  0  0  0
    3.9356   -0.3042    0.4079 C   0  0  0  0  0  0  0  0  0  0  0  0
    5.3215   -0.6563    0.2472 C   0  0  0  0  0  0  0  0  0  0  0  0
    5.7784   -1.6689    0.9128 O   0  0  0  0  0  0  0  0  0  0  0  0
    6.3236   -0.0078   -0.5764 C   0  0  0  0  0  0  0  0  0  0  0  0
    7.6247    0.1365   -0.0487 C   0  0  0  0  0  0  0  0  0  0  0  0
    7.8331   -0.3351    1.2385 O   0  0  0  0  0  0  0  0  0  0  0  0
    8.6313    0.7104   -0.7642 C   0  0  0  0  0  0  0  0  0  0  0  0
    8.4338    1.1804   -2.0405 C   0  0  0  0  0  0  0  0  0  0  0  0
    7.1823    1.0475   -2.5733 C   0  0  0  0  0  0  0  0  0  0  0  0
    6.1431    0.4522   -1.8384 C   0  0  0  0  0  0  0  0  0  0  0  0
    4.9555    0.1635   -2.6130 C   0  0  0  0  0  0  0  0  0  0  0  0
    4.8023    0.7393   -3.7355 O   0  0  0  0  0  0  0  0  0  0  0  0
    3.9921   -0.7165   -2.1876 O   0  0  0  0  0  0  0  0  0  0  0  0
    3.3905    0.9569    0.2416 C   0  0  0  0  0  0  0  0  0  0  0  0
    4.2207    1.9664   -0.2094 O   0  0  0  0  0  0  0  0  0  0  0  0
    2.0406    1.2191    0.5227 C   0  0  0  0  0  0  0  0  0  0  0  0
   -5.6221    0.3300   -1.3821 C   0  0  0  0  0  0  0  0  0  0  0  0
   -5.7851    0.3871   -2.7613 C   0  0  0  0  0  0  0  0  0  0  0  0
   -6.8037    1.1239   -3.3017 C   0  0  0  0  0  0  0  0  0  0  0  0
   -7.7013    1.8330   -2.5098 C   0  0  0  0  0  0  0  0  0  0  0  0
   -8.7335    2.5801   -3.0501 O   0  0  0  0  0  0  0  0  0  0  0  0
   -7.5337    1.7713   -1.1560 C   0  0  0  0  0  0  0  0  0  0  0  0
   -6.5001    1.0240   -0.5987 C   0  0  0  0  0  0  0  0  0  0  0  0
   -4.9879    0.0190    1.2589 H   0  0  0  0  0  0  0  0  0  0  0  0
   -2.7479   -1.7592    0.3492 H   0  0  0  0  0  0  0  0  0  0  0  0
   -4.9338   -2.5779    1.7522 H   0  0  0  0  0  0  0  0  0  0  0  0
   -3.2833   -3.1318    2.3639 H   0  0  0  0  0  0  0  0  0  0  0  0
   -4.8111   -0.5973    3.1948 H   0  0  0  0  0  0  0  0  0  0  0  0
   -4.3243   -2.0074    4.2633 H   0  0  0  0  0  0  0  0  0  0  0  0
   -1.9582   -1.4952    3.9084 H   0  0  0  0  0  0  0  0  0  0  0  0
   -2.6924    0.1511    4.0704 H   0  0  0  0  0  0  0  0  0  0  0  0
   -2.6764    0.6227    1.8671 H   0  0  0  0  0  0  0  0  0  0  0  0
    1.1207   -1.8096    1.4964 H   0  0  0  0  0  0  0  0  0  0  0  0
    3.0086   -3.3183    0.5777 H   0  0  0  0  0  0  0  0  0  0  0  0
    8.4899   -1.1108    1.3385 H   0  0  0  0  0  0  0  0  0  0  0  0
    9.6351    0.8073   -0.3225 H   0  0  0  0  0  0  0  0  0  0  0  0
    9.2464    1.6360   -2.5906 H   0  0  0  0  0  0  0  0  0  0  0  0
    7.0348    1.4194   -3.5770 H   0  0  0  0  0  0  0  0  0  0  0  0
    3.2086   -0.9993   -2.7798 H   0  0  0  0  0  0  0  0  0  0  0  0
    4.8551    2.4064    0.4454 H   0  0  0  0  0  0  0  0  0  0  0  0
    1.6501    2.2245    0.3775 H   0  0  0  0  0  0  0  0  0  0  0  0
   -5.1185   -0.1428   -3.4205 H   0  0  0  0  0  0  0  0  0  0  0  0
   -6.9454    1.1799   -4.3656 H   0  0  0  0  0  0  0  0  0  0  0  0
   -9.6698    2.5926   -2.6395 H   0  0  0  0  0  0  0  0  0  0  0  0
   -8.2228    2.3163   -0.5305 H   0  0  0  0  0  0  0  0  0  0  0  0
   -6.4634    1.0469    0.4806 H   0  0  0  0  0  0  0  0  0  0  0  0
  1  2  2  0
  2  3  1  0
  3  4  1  0
  4  5  1  0
  5  6  1  0
  6  7  1  0
  7  8  1  0
  8  9  1  0
  9 10  1  0
 10 11  2  0
 10 12  1  0
 12 13  2  0
 13 14  1  0
 14 15  1  0
 14 16  2  0
 16 17  1  0
 17 18  2  0
 17 19  1  0
 19 20  2  0
 20 21  1  0
 20 22  1  0
 22 23  2  0
 23 24  1  0
 24 25  2  0
 25 26  1  0
 26 27  2  0
 26 28  1  0
 16 29  1  0
 29 30  1  0
 29 31  2  0
  2 32  1  0
 32 33  2  0
 33 34  1  0
 34 35  2  0
 35 36  1  0
 35 37  1  0
 37 38  2  0
  8  4  1  0
 31 12  1  0
 38 32  1  0
 25 19  1  0
  3 39  1  0
  4 40  1  6
  5 41  1  0
  5 42  1  0
  6 43  1  0
  6 44  1  0
  7 45  1  0
  7 46  1  0
  8 47  1  1
 13 48  1  0
 15 49  1  0
 21 50  1  0
 22 51  1  0
 23 52  1  0
 24 53  1  0
 28 54  1  0
 30 55  1  0
 31 56  1  0
 33 57  1  0
 34 58  1  0
 36 59  1  0
 37 60  1  0
 38 61  1  0
M  END
$$$$
