
     RDKit          3D

 32 34  0  0  0  0  0  0  0  0999 V2000
   -6.0553    0.3129   -0.3227 C   0  0  0  0  0  0  0  0  0  0  0  0
   -4.7782    0.3288   -0.2828 O   0  0  0  0  0  0  0  0  0  0  0  0
   -3.5102    0.3969   -0.2557 C   0  0  0  0  0  0  0  0  0  0  0  0
   -2.7591    1.5695   -0.5079 C   0  0  0  0  0  0  0  0  0  0  0  0
   -1.3889    1.5490   -0.4562 C   0  0  0  0  0  0  0  0  0  0  0  0
   -0.6703    0.4111   -0.1621 C   0  0  0  0  0  0  0  0  0  0  0  0
    0.7809    0.3958   -0.1089 C   0  0  0  0  0  0  0  0  0  0  0  0
    1.3986   -0.7741    0.1865 N   0  0  0  0  0  0  0  0  0  0  0  0
    2.7138   -0.9115    0.2635 C   0  0  0  0  0  0  0  0  0  0  0  0
    3.2484   -2.1373    0.5691 C   0  0  0  0  0  0  0  0  0  0  0  0
    4.6324   -2.2341    0.6387 C   0  0  0  0  0  0  0  0  0  0  0  0
    5.4280   -1.1382    0.4088 C   0  0  0  0  0  0  0  0  0  0  0  0
    4.8659    0.0685    0.1068 C   0  0  0  0  0  0  0  0  0  0  0  0
    3.5016    0.1865    0.0327 C   0  0  0  0  0  0  0  0  0  0  0  0
    2.9013    1.4045   -0.2735 C   0  0  0  0  0  0  0  0  0  0  0  0
    3.6532    2.3901   -0.4790 O   0  0  0  0  0  0  0  0  0  0  0  0
    1.5582    1.4554   -0.3312 N   0  0  0  0  0  0  0  0  0  0  0  0
   -1.3832   -0.7564    0.0903 C   0  0  0  0  0  0  0  0  0  0  0  0
   -2.7474   -0.7507    0.0423 C   0  0  0  0  0  0  0  0  0  0  0  0
   -3.4659   -1.9192    0.2947 O   0  0  0  0  0  0  0  0  0  0  0  0
   -6.4986   -0.2186   -1.2414 H   0  0  0  0  0  0  0  0  0  0  0  0
   -6.6047    1.3023   -0.2394 H   0  0  0  0  0  0  0  0  0  0  0  0
   -6.5048   -0.2467    0.5775 H   0  0  0  0  0  0  0  0  0  0  0  0
   -3.3387    2.4570   -0.7378 H   0  0  0  0  0  0  0  0  0  0  0  0
   -0.8287    2.4592   -0.6524 H   0  0  0  0  0  0  0  0  0  0  0  0
    2.6532   -3.0115    0.7538 H   0  0  0  0  0  0  0  0  0  0  0  0
    5.0636   -3.1912    0.8771 H   0  0  0  0  0  0  0  0  0  0  0  0
    6.5067   -1.2662    0.4757 H   0  0  0  0  0  0  0  0  0  0  0  0
    5.4858    0.9270   -0.0734 H   0  0  0  0  0  0  0  0  0  0  0  0
    1.1440    2.3773   -0.5615 H   0  0  0  0  0  0  0  0  0  0  0  0
   -0.8259   -1.6643    0.3247 H   0  0  0  0  0  0  0  0  0  0  0  0
   -4.1756   -1.9026    1.0439 H   0  0  0  0  0  0  0  0  0  0  0  0
  1  2  1  0
  2  3  1  0
  3  4  2  0
  4  5  1  0
  5  6  2  0
  6  7  1  0
  7  8  2  0
  8  9  1  0
  9 10  2  0
 10 11  1  0
 11 12  2  0
 12 13  1  0
 13 14  2  0
 14 15  1  0
 15 16  2  0
 15 17  1  0
  6 18  1  0
 18 19  2  0
 19 20  1  0
 19  3  1  0
 17  7  1  0
 14  9  1  0
  1 21  1  0
  1 22  1  0
  1 23  1  0
  4 24  1  0
  5 25  1  0
 10 26  1  0
 11 27  1  0
 12 28  1  0
 13 29  1  0
 17 30  1  0
 18 31  1  0
 20 32  1  0
M  END
$$$$
