
     RDKit          3D

 59 61  0  0  0  0  0  0  0  0999 V2000
   -6.8301    1.2414    2.0533 C   0  0  0  0  0  0  0  0  0  0  0  0
   -6.2240    1.1775    0.6565 C   0  0  0  0  0  0  0  0  0  0  0  0
   -7.1771    1.8492   -0.3054 C   0  0  0  0  0  0  0  0  0  0  0  0
   -5.9634   -0.1410    0.2976 O   0  0  0  0  0  0  0  0  0  0  0  0
   -4.6814   -0.3632    0.1609 N   0  0  0  0  0  0  0  0  0  0  0  0
   -4.1767   -1.6386    0.4864 C   0  0  0  0  0  0  0  0  0  0  0  0
   -4.9046   -2.7278   -0.1649 C   0  0  0  0  0  0  0  0  0  0  0  0
   -4.5151   -3.9126    0.0836 O   0  0  0  0  0  0  0  0  0  0  0  0
   -5.9836   -2.5917   -1.0320 N   0  0  0  0  0  0  0  0  0  0  0  0
   -6.6125   -3.6815   -1.6023 O   0  0  0  0  0  0  0  0  0  0  0  0
   -3.9964    0.2877   -1.2431 S   0  0  0  0  0  6  0  0  0  0  0  0
   -4.1797   -0.5570   -2.4698 O   0  0  0  0  0  0  0  0  0  0  0  0
   -4.5654    1.6643   -1.5266 O   0  0  0  0  0  0  0  0  0  0  0  0
   -2.2570    0.4636   -0.9515 C   0  0  0  0  0  0  0  0  0  0  0  0
   -1.7920    1.6261   -0.3717 C   0  0  0  0  0  0  0  0  0  0  0  0
   -0.4420    1.8052   -0.1300 C   0  0  0  0  0  0  0  0  0  0  0  0
    0.4875    0.8385   -0.4553 C   0  0  0  0  0  0  0  0  0  0  0  0
    1.9043    1.0154   -0.2061 C   0  0  0  0  0  0  0  0  0  0  0  0
    2.3041    1.7622    0.8826 C   0  0  0  0  0  0  0  0  0  0  0  0
    3.6277    1.9658    1.1714 C   0  0  0  0  0  0  0  0  0  0  0  0
    4.6500    1.4201    0.3671 C   0  0  0  0  0  0  0  0  0  0  0  0
    5.9113    1.6694    0.7202 O   0  0  0  0  0  0  0  0  0  0  0  0
    7.1376    1.3665    0.2943 C   0  0  0  0  0  0  0  0  0  0  0  0
    7.4777   -0.0763    0.3144 C   0  0  0  0  0  0  0  0  0  0  0  0
    7.8654   -0.6468    1.5348 C   0  0  0  0  0  0  0  0  0  0  0  0
    8.2330   -1.9703    1.6380 C   0  0  0  0  0  0  0  0  0  0  0  0
    8.2370   -2.8018    0.5392 C   0  0  0  0  0  0  0  0  0  0  0  0
    8.6969   -4.4875    0.6312 Cl  0  0  0  0  0  0  0  0  0  0  0  0
    7.8582   -2.2525   -0.6657 C   0  0  0  0  0  0  0  0  0  0  0  0
    7.4869   -0.9114   -0.7658 C   0  0  0  0  0  0  0  0  0  0  0  0
    4.2628    0.6762   -0.7187 C   0  0  0  0  0  0  0  0  0  0  0  0
    2.9206    0.4977   -0.9700 C   0  0  0  0  0  0  0  0  0  0  0  0
    0.0013   -0.3172   -1.0347 C   0  0  0  0  0  0  0  0  0  0  0  0
   -1.3483   -0.5028   -1.2793 C   0  0  0  0  0  0  0  0  0  0  0  0
   -7.9193    1.3404    1.9431 H   0  0  0  0  0  0  0  0  0  0  0  0
   -6.4293    2.1295    2.6127 H   0  0  0  0  0  0  0  0  0  0  0  0
   -6.5920    0.3247    2.6072 H   0  0  0  0  0  0  0  0  0  0  0  0
   -5.2549    1.7109    0.7067 H   0  0  0  0  0  0  0  0  0  0  0  0
   -7.2767    1.3122   -1.2669 H   0  0  0  0  0  0  0  0  0  0  0  0
   -6.8096    2.8635   -0.4982 H   0  0  0  0  0  0  0  0  0  0  0  0
   -8.1947    1.8547    0.1451 H   0  0  0  0  0  0  0  0  0  0  0  0
   -4.1123   -1.8010    1.6098 H   0  0  0  0  0  0  0  0  0  0  0  0
   -3.0953   -1.7700    0.1743 H   0  0  0  0  0  0  0  0  0  0  0  0
   -6.3584   -1.6644   -1.2873 H   0  0  0  0  0  0  0  0  0  0  0  0
   -7.5893   -3.4968   -1.4240 H   0  0  0  0  0  0  0  0  0  0  0  0
   -2.5337    2.3920   -0.1146 H   0  0  0  0  0  0  0  0  0  0  0  0
   -0.0931    2.7275    0.3276 H   0  0  0  0  0  0  0  0  0  0  0  0
    1.5460    2.1992    1.5263 H   0  0  0  0  0  0  0  0  0  0  0  0
    3.9138    2.5593    2.0371 H   0  0  0  0  0  0  0  0  0  0  0  0
    7.3888    1.7892   -0.7463 H   0  0  0  0  0  0  0  0  0  0  0  0
    7.9013    1.9423    0.9245 H   0  0  0  0  0  0  0  0  0  0  0  0
    7.8678   -0.0127    2.4016 H   0  0  0  0  0  0  0  0  0  0  0  0
    8.5344   -2.4193    2.5789 H   0  0  0  0  0  0  0  0  0  0  0  0
    7.8407   -2.8458   -1.5549 H   0  0  0  0  0  0  0  0  0  0  0  0
    7.2016   -0.5008   -1.7425 H   0  0  0  0  0  0  0  0  0  0  0  0
    5.0126    0.2318   -1.3962 H   0  0  0  0  0  0  0  0  0  0  0  0
    2.6130   -0.0984   -1.8392 H   0  0  0  0  0  0  0  0  0  0  0  0
    0.7282   -1.0994   -1.3010 H   0  0  0  0  0  0  0  0  0  0  0  0
   -1.7023   -1.4152   -1.7350 H   0  0  0  0  0  0  0  0  0  0  0  0
  1  2  1  0
  2  3  1  0
  2  4  1  0
  4  5  1  0
  5  6  1  0
  6  7  1  0
  7  8  2  0
  7  9  1  0
  9 10  1  0
  5 11  1  0
 11 12  2  0
 11 13  2  0
 11 14  1  0
 14 15  2  0
 15 16  1  0
 16 17  2  0
 17 18  1  0
 18 19  2  0
 19 20  1  0
 20 21  2  0
 21 22  1  0
 22 23  1  0
 23 24  1  0
 24 25  2  0
 25 26  1  0
 26 27  2  0
 27 28  1  0
 27 29  1  0
 29 30  2  0
 21 31  1  0
 31 32  2  0
 17 33  1  0
 33 34  2  0
 34 14  1  0
 32 18  1  0
 30 24  1  0
  1 35  1  0
  1 36  1  0
  1 37  1  0
  2 38  1  0
  3 39  1  0
  3 40  1  0
  3 41  1  0
  6 42  1  0
  6 43  1  0
  9 44  1  0
 10 45  1  0
 15 46  1  0
 16 47  1  0
 19 48  1  0
 20 49  1  0
 23 50  1  0
 23 51  1  0
 25 52  1  0
 26 53  1  0
 29 54  1  0
 30 55  1  0
 31 56  1  0
 32 57  1  0
 33 58  1  0
 34 59  1  0
M  END
$$$$
