
     RDKit          3D

 26 27  0  0  0  0  0  0  0  0999 V2000
    4.1072    0.3716   -0.7564 C   0  0  0  0  0  0  0  0  0  0  0  0
    3.1755   -0.5958   -1.1500 O   0  0  0  0  0  0  0  0  0  0  0  0
    1.8668   -0.5407   -0.0882 P   0  0  2  0  0  5  0  0  0  0  0  0
    2.3644   -0.4830    1.3292 O   0  0  0  0  0  0  0  0  0  0  0  0
    0.8893   -1.8762   -0.3840 O   0  0  0  0  0  0  0  0  0  0  0  0
   -0.2574   -1.8878    0.3894 C   0  0  0  0  0  0  0  0  0  0  0  0
   -1.4185   -1.1807   -0.2263 C   0  0  1  0  0  0  0  0  0  0  0  0
   -2.6507   -1.5151    0.6202 C   0  0  0  0  0  0  0  0  0  0  0  0
   -3.5038   -0.4337    0.3077 O   0  0  0  0  0  0  0  0  0  0  0  0
   -2.7366    0.7248    0.1102 C   0  0  0  0  0  0  0  0  0  0  0  0
   -3.2231    1.8725    0.1581 O   0  0  0  0  0  0  0  0  0  0  0  0
   -1.3732    0.2755   -0.1378 C   0  0  0  0  0  0  0  0  0  0  0  0
   -0.3856    1.1464   -0.2388 C   0  0  0  0  0  0  0  0  0  0  0  0
   -0.7379    2.5947   -0.0871 C   0  0  0  0  0  0  0  0  0  0  0  0
    0.9465    0.8609   -0.4711 O   0  0  0  0  0  0  0  0  0  0  0  0
    3.5822    1.1616   -0.1774 H   0  0  0  0  0  0  0  0  0  0  0  0
    4.5866    0.8247   -1.6454 H   0  0  0  0  0  0  0  0  0  0  0  0
    4.8449   -0.1134   -0.0782 H   0  0  0  0  0  0  0  0  0  0  0  0
   -0.0705   -1.5652    1.4371 H   0  0  0  0  0  0  0  0  0  0  0  0
   -0.5551   -2.9749    0.4741 H   0  0  0  0  0  0  0  0  0  0  0  0
   -1.5728   -1.5770   -1.2469 H   0  0  0  0  0  0  0  0  0  0  0  0
   -2.3886   -1.4718    1.7033 H   0  0  0  0  0  0  0  0  0  0  0  0
   -3.0767   -2.4869    0.3380 H   0  0  0  0  0  0  0  0  0  0  0  0
   -1.1992    2.7849    0.8963 H   0  0  0  0  0  0  0  0  0  0  0  0
    0.1795    3.1841   -0.1436 H   0  0  0  0  0  0  0  0  0  0  0  0
   -1.3930    2.9004   -0.9322 H   0  0  0  0  0  0  0  0  0  0  0  0
  1  2  1  0
  3  2  1  6
  3  4  2  0
  3  5  1  0
  5  6  1  0
  6  7  1  0
  7  8  1  0
  8  9  1  0
  9 10  1  0
 10 11  2  0
 10 12  1  0
 12 13  2  0
 13 14  1  0
 13 15  1  0
 15  3  1  0
 12  7  1  0
  1 16  1  0
  1 17  1  0
  1 18  1  0
  6 19  1  0
  6 20  1  0
  7 21  1  6
  8 22  1  0
  8 23  1  0
 14 24  1  0
 14 25  1  0
 14 26  1  0
M  END
$$$$
