
     RDKit          3D

 51 55  0  0  0  0  0  0  0  0999 V2000
   -4.1882    1.2541    1.3412 C   0  0  0  0  0  0  0  0  0  0  0  0
   -2.9215    0.9485    0.6757 N   0  0  0  0  0  0  0  0  0  0  0  0
   -1.8573    1.7585    0.8890 C   0  0  0  0  0  0  0  0  0  0  0  0
   -1.9951    2.7473    1.6537 O   0  0  0  0  0  0  0  0  0  0  0  0
   -0.6385    1.5212    0.2893 C   0  0  0  0  0  0  0  0  0  0  0  0
   -0.4435    0.4527   -0.5539 C   0  0  0  0  0  0  0  0  0  0  0  0
    0.7863    0.1762   -1.2072 N   0  0  0  0  0  0  0  0  0  0  0  0
    1.9201    1.0204   -1.0894 C   0  0  0  0  0  0  0  0  0  0  0  0
    3.1001    0.5515   -0.4990 C   0  0  0  0  0  0  0  0  0  0  0  0
    4.1881    1.3849   -0.4134 C   0  0  0  0  0  0  0  0  0  0  0  0
    5.4296    0.9344    0.1922 C   0  0  0  0  0  0  0  0  0  0  0  0
    6.4352    1.7176    0.2666 O   0  0  0  0  0  0  0  0  0  0  0  0
    5.6135   -0.3473    0.7225 N   0  0  0  0  0  0  0  0  0  0  0  0
    6.8459   -0.8061    1.3279 C   0  0  0  0  0  0  0  0  0  0  0  0
    6.8936   -1.9337    2.2605 C   0  0  0  0  0  0  0  0  0  0  0  0
    7.2861   -2.1835    0.8081 C   0  0  0  0  0  0  0  0  0  0  0  0
    4.0824    2.6830   -0.9217 C   0  0  0  0  0  0  0  0  0  0  0  0
    2.9470    3.1701   -1.5032 C   0  0  0  0  0  0  0  0  0  0  0  0
    1.8531    2.3053   -1.5800 C   0  0  0  0  0  0  0  0  0  0  0  0
    0.3986    2.9173   -2.3544 Cl  0  0  0  0  0  0  0  0  0  0  0  0
   -1.5409   -0.3711   -0.7651 C   0  0  0  0  0  0  0  0  0  0  0  0
   -1.6854   -1.5070   -1.5370 C   0  0  0  0  0  0  0  0  0  0  0  0
   -2.9457   -1.9020   -1.3803 N   0  0  0  0  0  0  0  0  0  0  0  0
   -3.5922   -1.0712   -0.5515 N   0  0  0  0  0  0  0  0  0  0  0  0
   -4.9692   -1.2195   -0.1754 C   0  0  0  0  0  0  0  0  0  0  0  0
   -5.9661   -0.8978   -1.0746 C   0  0  0  0  0  0  0  0  0  0  0  0
   -7.2807   -1.0587   -0.7001 C   0  0  0  0  0  0  0  0  0  0  0  0
   -7.6682   -1.5288    0.5376 C   0  0  0  0  0  0  0  0  0  0  0  0
   -8.9611   -1.6865    0.9044 F   0  0  0  0  0  0  0  0  0  0  0  0
   -6.6393   -1.8389    1.4071 C   0  0  0  0  0  0  0  0  0  0  0  0
   -5.3155   -1.6906    1.0663 C   0  0  0  0  0  0  0  0  0  0  0  0
   -2.7604   -0.1023   -0.1421 C   0  0  0  0  0  0  0  0  0  0  0  0
   -5.0533    1.1603    0.6805 H   0  0  0  0  0  0  0  0  0  0  0  0
   -4.1779    2.3424    1.6687 H   0  0  0  0  0  0  0  0  0  0  0  0
   -4.2903    0.6960    2.2786 H   0  0  0  0  0  0  0  0  0  0  0  0
    0.2241    2.1712    0.4743 H   0  0  0  0  0  0  0  0  0  0  0  0
    0.8734   -0.6762   -1.7991 H   0  0  0  0  0  0  0  0  0  0  0  0
    3.0961   -0.4624   -0.1329 H   0  0  0  0  0  0  0  0  0  0  0  0
    4.8375   -1.0468    0.6996 H   0  0  0  0  0  0  0  0  0  0  0  0
    7.6752   -0.0729    1.3576 H   0  0  0  0  0  0  0  0  0  0  0  0
    6.0202   -2.5095    2.5759 H   0  0  0  0  0  0  0  0  0  0  0  0
    7.7224   -1.9480    3.0032 H   0  0  0  0  0  0  0  0  0  0  0  0
    6.6053   -2.7450    0.1657 H   0  0  0  0  0  0  0  0  0  0  0  0
    8.3540   -2.3319    0.5706 H   0  0  0  0  0  0  0  0  0  0  0  0
    4.9668    3.3033   -0.8310 H   0  0  0  0  0  0  0  0  0  0  0  0
    2.8674    4.1790   -1.8973 H   0  0  0  0  0  0  0  0  0  0  0  0
   -0.9228   -1.9702   -2.1403 H   0  0  0  0  0  0  0  0  0  0  0  0
   -5.6926   -0.5217   -2.0662 H   0  0  0  0  0  0  0  0  0  0  0  0
   -8.0712   -0.8006   -1.4209 H   0  0  0  0  0  0  0  0  0  0  0  0
   -6.9143   -2.2140    2.3959 H   0  0  0  0  0  0  0  0  0  0  0  0
   -4.5307   -1.9509    1.7929 H   0  0  0  0  0  0  0  0  0  0  0  0
  1  2  1  0
  2  3  1  0
  3  4  2  0
  3  5  1  0
  5  6  2  0
  6  7  1  0
  7  8  1  0
  8  9  2  0
  9 10  1  0
 10 11  1  0
 11 12  2  0
 11 13  1  0
 13 14  1  0
 14 15  1  0
 15 16  1  0
 10 17  2  0
 17 18  1  0
 18 19  2  0
 19 20  1  0
  6 21  1  0
 21 22  1  0
 22 23  2  0
 23 24  1  0
 24 25  1  0
 25 26  2  0
 26 27  1  0
 27 28  2  0
 28 29  1  0
 28 30  1  0
 30 31  2  0
 24 32  1  0
 32  2  1  0
 19  8  1  0
 32 21  2  0
 16 14  1  0
 31 25  1  0
  1 33  1  0
  1 34  1  0
  1 35  1  0
  5 36  1  0
  7 37  1  0
  9 38  1  0
 13 39  1  0
 14 40  1  0
 15 41  1  0
 15 42  1  0
 16 43  1  0
 16 44  1  0
 17 45  1  0
 18 46  1  0
 22 47  1  0
 26 48  1  0
 27 49  1  0
 30 50  1  0
 31 51  1  0
M  END
$$$$
