
     RDKit          3D

 28 29  0  0  0  0  0  0  0  0999 V2000
    4.5264    0.5495   -1.4598 N   0  0  0  0  0  0  0  0  0  0  0  0
    3.7858    0.8092    0.0537 S   0  0  0  0  0  0  0  0  0  0  0  0
    4.6384    0.2827    1.1513 O   0  0  0  0  0  0  0  0  0  0  0  0
    3.7509    2.3181    0.2488 O   0  0  0  0  0  0  0  0  0  0  0  0
    2.1440    0.1960    0.1040 C   0  0  0  0  0  0  0  0  0  0  0  0
    1.9332   -1.1494   -0.1168 C   0  0  0  0  0  0  0  0  0  0  0  0
    3.2411   -2.2786   -0.4472 Cl  0  0  0  0  0  0  0  0  0  0  0  0
    0.6584   -1.7071   -0.0923 C   0  0  0  0  0  0  0  0  0  0  0  0
   -0.4022   -0.8737    0.1609 C   0  0  0  0  0  0  0  0  0  0  0  0
   -1.7390   -1.3158    0.2115 N   0  0  0  0  0  0  0  0  0  0  0  0
   -2.9510   -0.5864    0.5115 C   0  0  0  0  0  0  0  0  0  0  0  0
   -2.7858    0.5999    1.2724 N   0  0  0  0  0  0  0  0  0  0  0  0
   -1.4899    1.5899    0.7107 S   0  0  0  0  0  0  0  0  0  0  0  0
   -1.8234    2.3377   -0.5399 O   0  0  0  0  0  0  0  0  0  0  0  0
   -1.1261    2.5244    1.8300 O   0  0  0  0  0  0  0  0  0  0  0  0
   -0.1832    0.4693    0.3805 C   0  0  0  0  0  0  0  0  0  0  0  0
    1.0486    1.0289    0.3605 C   0  0  0  0  0  0  0  0  0  0  0  0
   -3.8319   -0.4334   -0.7103 C   0  0  0  0  0  0  0  0  0  0  0  0
   -5.2896    0.4707   -0.2642 Cl  0  0  0  0  0  0  0  0  0  0  0  0
   -2.9792    0.2691   -2.0974 Cl  0  0  0  0  0  0  0  0  0  0  0  0
    3.8729    0.4498   -2.2398 H   0  0  0  0  0  0  0  0  0  0  0  0
    5.3432   -0.0767   -1.4540 H   0  0  0  0  0  0  0  0  0  0  0  0
    0.4652   -2.7715   -0.2644 H   0  0  0  0  0  0  0  0  0  0  0  0
   -1.8397   -2.3524   -0.0115 H   0  0  0  0  0  0  0  0  0  0  0  0
   -3.5357   -1.2969    1.1803 H   0  0  0  0  0  0  0  0  0  0  0  0
   -2.5608    0.3406    2.2588 H   0  0  0  0  0  0  0  0  0  0  0  0
    1.2683    2.0739    0.5265 H   0  0  0  0  0  0  0  0  0  0  0  0
   -4.1389   -1.4677   -1.0450 H   0  0  0  0  0  0  0  0  0  0  0  0
  1  2  1  0
  2  3  2  0
  2  4  2  0
  2  5  1  0
  5  6  2  0
  6  7  1  0
  6  8  1  0
  8  9  2  0
  9 10  1  0
 10 11  1  0
 11 12  1  0
 12 13  1  0
 13 14  2  0
 13 15  2  0
 13 16  1  0
 16 17  2  0
 11 18  1  0
 18 19  1  0
 18 20  1  0
 17  5  1  0
 16  9  1  0
  1 21  1  0
  1 22  1  0
  8 23  1  0
 10 24  1  0
 11 25  1  0
 12 26  1  0
 17 27  1  0
 18 28  1  0
M  END
$$$$
