
     RDKit          3D

 57 62  0  0  0  0  0  0  0  0999 V2000
    9.0926   -1.5315   -0.4920 N   0  0  0  0  0  0  0  0  0  0  0  0
    8.5618   -0.6478   -1.4612 C   0  0  0  0  0  0  0  0  0  0  0  0
    9.2004   -0.4475   -2.5094 O   0  0  0  0  0  0  0  0  0  0  0  0
    7.2912    0.0287   -1.2599 C   0  0  0  0  0  0  0  0  0  0  0  0
    6.8291    0.8749   -2.2347 C   0  0  0  0  0  0  0  0  0  0  0  0
    5.6296    1.5188   -2.0502 C   0  0  0  0  0  0  0  0  0  0  0  0
    4.9035    1.3125   -0.8972 C   0  0  0  0  0  0  0  0  0  0  0  0
    5.3543    0.4633    0.0950 C   0  0  0  0  0  0  0  0  0  0  0  0
    4.5959    0.2861    1.2326 C   0  0  0  0  0  0  0  0  0  0  0  0
    3.3288    0.9416    1.4803 C   0  0  0  0  0  0  0  0  0  0  0  0
    3.1104    2.1581    2.1109 C   0  0  0  0  0  0  0  0  0  0  0  0
    1.7906    2.4097    2.1430 N   0  0  0  0  0  0  0  0  0  0  0  0
    1.1526    1.4012    1.5571 N   0  0  0  0  0  0  0  0  0  0  0  0
   -0.1552    1.1626    1.3296 C   0  0  0  0  0  0  0  0  0  0  0  0
   -0.6049    0.0326    0.6939 C   0  0  0  0  0  0  0  0  0  0  0  0
   -2.0442   -0.1595    0.4779 C   0  0  0  0  0  0  0  0  0  0  0  0
   -2.9802    0.3242    1.3561 C   0  0  0  0  0  0  0  0  0  0  0  0
   -4.3333    0.1599    1.1780 C   0  0  0  0  0  0  0  0  0  0  0  0
   -4.8092   -0.5208    0.0716 C   0  0  0  0  0  0  0  0  0  0  0  0
   -6.1863   -0.7002   -0.1176 N   0  0  0  0  0  0  0  0  0  0  0  0
   -7.2209   -0.4469    0.8492 C   0  0  0  0  0  0  0  0  0  0  0  0
   -8.0834    0.7281    0.3785 C   0  0  0  0  0  0  0  0  0  0  0  0
   -8.1315    0.7677   -1.0718 N   0  0  0  0  0  0  0  0  0  0  0  0
   -8.0092   -0.5545   -1.6595 C   0  0  0  0  0  0  0  0  0  0  0  0
   -6.6479   -1.1803   -1.4237 C   0  0  0  0  0  0  0  0  0  0  0  0
   -3.8674   -1.0180   -0.8290 C   0  0  0  0  0  0  0  0  0  0  0  0
   -2.5213   -0.8382   -0.6250 C   0  0  0  0  0  0  0  0  0  0  0  0
    0.3528   -0.8720    0.2860 C   0  0  0  0  0  0  0  0  0  0  0  0
    1.6773   -0.6422    0.5101 N   0  0  0  0  0  0  0  0  0  0  0  0
    2.0769    0.4857    1.1410 C   0  0  0  0  0  0  0  0  0  0  0  0
    5.1047   -0.5722    2.1765 C   0  0  0  0  0  0  0  0  0  0  0  0
    6.3144   -1.2268    1.9994 C   0  0  0  0  0  0  0  0  0  0  0  0
    6.9817   -0.9946    0.8663 N   0  0  0  0  0  0  0  0  0  0  0  0
    6.5547   -0.1691   -0.1099 C   0  0  0  0  0  0  0  0  0  0  0  0
    8.5797   -2.3845   -0.2370 H   0  0  0  0  0  0  0  0  0  0  0  0
    9.9989   -1.3042   -0.0504 H   0  0  0  0  0  0  0  0  0  0  0  0
    7.4015    1.0362   -3.1417 H   0  0  0  0  0  0  0  0  0  0  0  0
    5.2812    2.1815   -2.8279 H   0  0  0  0  0  0  0  0  0  0  0  0
    3.9435    1.8158   -0.7322 H   0  0  0  0  0  0  0  0  0  0  0  0
    3.8478    2.8306    2.5251 H   0  0  0  0  0  0  0  0  0  0  0  0
   -0.8654    1.9018    1.6688 H   0  0  0  0  0  0  0  0  0  0  0  0
   -2.6126    0.8622    2.2311 H   0  0  0  0  0  0  0  0  0  0  0  0
   -5.0462    0.5717    1.9121 H   0  0  0  0  0  0  0  0  0  0  0  0
   -6.8643   -0.1940    1.8517 H   0  0  0  0  0  0  0  0  0  0  0  0
   -7.9453   -1.3106    0.8707 H   0  0  0  0  0  0  0  0  0  0  0  0
   -9.0975    0.6988    0.7842 H   0  0  0  0  0  0  0  0  0  0  0  0
   -7.5725    1.6444    0.7237 H   0  0  0  0  0  0  0  0  0  0  0  0
   -9.0578    1.1411   -1.3366 H   0  0  0  0  0  0  0  0  0  0  0  0
   -8.7750   -1.2554   -1.2855 H   0  0  0  0  0  0  0  0  0  0  0  0
   -8.1361   -0.4145   -2.7592 H   0  0  0  0  0  0  0  0  0  0  0  0
   -6.0013   -0.8638   -2.2480 H   0  0  0  0  0  0  0  0  0  0  0  0
   -6.7450   -2.2914   -1.3127 H   0  0  0  0  0  0  0  0  0  0  0  0
   -4.1935   -1.5526   -1.6962 H   0  0  0  0  0  0  0  0  0  0  0  0
   -1.7725   -1.2201   -1.3204 H   0  0  0  0  0  0  0  0  0  0  0  0
    0.0744   -1.7716   -0.2146 H   0  0  0  0  0  0  0  0  0  0  0  0
    4.5549   -0.7495    3.0853 H   0  0  0  0  0  0  0  0  0  0  0  0
    6.6946   -1.9055    2.7687 H   0  0  0  0  0  0  0  0  0  0  0  0
  1  2  1  0
  2  3  2  0
  2  4  1  0
  4  5  2  0
  5  6  1  0
  6  7  2  0
  7  8  1  0
  8  9  2  0
  9 10  1  0
 10 11  1  0
 11 12  2  0
 12 13  1  0
 13 14  1  0
 14 15  2  0
 15 16  1  0
 16 17  2  0
 17 18  1  0
 18 19  2  0
 19 20  1  0
 20 21  1  0
 21 22  1  0
 22 23  1  0
 23 24  1  0
 24 25  1  0
 19 26  1  0
 26 27  2  0
 15 28  1  0
 28 29  2  0
 29 30  1  0
  9 31  1  0
 31 32  2  0
 32 33  1  0
 33 34  2  0
 34  4  1  0
 34  8  1  0
 30 10  2  0
 30 13  1  0
 27 16  1  0
 25 20  1  0
  1 35  1  0
  1 36  1  0
  5 37  1  0
  6 38  1  0
  7 39  1  0
 11 40  1  0
 14 41  1  0
 17 42  1  0
 18 43  1  0
 21 44  1  0
 21 45  1  0
 22 46  1  0
 22 47  1  0
 23 48  1  0
 24 49  1  0
 24 50  1  0
 25 51  1  0
 25 52  1  0
 26 53  1  0
 27 54  1  0
 28 55  1  0
 31 56  1  0
 32 57  1  0
M  END
$$$$
