
     RDKit          3D

 62 66  0  0  0  0  0  0  0  0999 V2000
   -4.1480   -1.5381   -0.7813 C   0  0  1  0  0  0  0  0  0  0  0  0
   -5.2657   -2.5379   -1.1319 C   0  0  0  0  0  0  0  0  0  0  0  0
   -3.1998   -1.5196   -1.9519 C   0  0  0  0  0  0  0  0  0  0  0  0
   -2.1517   -0.6375   -1.8733 O   0  0  0  0  0  0  0  0  0  0  0  0
   -1.1091   -0.5524   -0.9895 C   0  0  0  0  0  0  0  0  0  0  0  0
   -0.3344    0.5534   -1.3724 C   0  0  0  0  0  0  0  0  0  0  0  0
    0.8193    0.9171   -0.6639 C   0  0  0  0  0  0  0  0  0  0  0  0
    1.2168    0.1850    0.4351 C   0  0  0  0  0  0  0  0  0  0  0  0
    0.4291   -0.9143    0.7992 C   0  0  0  0  0  0  0  0  0  0  0  0
   -0.6840   -1.2591    0.1092 C   0  0  0  0  0  0  0  0  0  0  0  0
    2.4217    0.4926    1.2509 C   0  0  2  0  0  0  0  0  0  0  0  0
    2.4508    1.8453    1.4760 O   0  0  0  0  0  0  0  0  0  0  0  0
    3.1960    2.8371    0.9335 C   0  0  0  0  0  0  0  0  0  0  0  0
    4.1068    2.5459   -0.0596 C   0  0  0  0  0  0  0  0  0  0  0  0
    4.2983    0.8433   -0.6279 S   0  0  0  0  0  0  0  0  0  0  0  0
    3.6842   -0.1430    0.7454 C   0  0  2  0  0  0  0  0  0  0  0  0
    3.5712   -1.5633    0.4461 C   0  0  0  0  0  0  0  0  0  0  0  0
    2.8669   -2.1140   -0.6113 C   0  0  0  0  0  0  0  0  0  0  0  0
    2.7533   -3.4527   -0.8978 C   0  0  0  0  0  0  0  0  0  0  0  0
    3.3953   -4.3412   -0.0632 C   0  0  0  0  0  0  0  0  0  0  0  0
    3.3024   -5.7013   -0.3217 O   0  0  0  0  0  0  0  0  0  0  0  0
    4.1223   -3.8973    1.0165 C   0  0  0  0  0  0  0  0  0  0  0  0
    4.1834   -2.5352    1.2302 C   0  0  0  0  0  0  0  0  0  0  0  0
    4.8286    3.5965   -0.5653 C   0  0  0  0  0  0  0  0  0  0  0  0
    4.6934    4.8961   -0.1421 C   0  0  0  0  0  0  0  0  0  0  0  0
    5.4538    5.9269   -0.6914 O   0  0  0  0  0  0  0  0  0  0  0  0
    3.7664    5.1594    0.8613 C   0  0  0  0  0  0  0  0  0  0  0  0
    3.0257    4.1353    1.3922 C   0  0  0  0  0  0  0  0  0  0  0  0
   -4.7783   -0.2639   -0.6149 N   0  0  0  0  0  0  0  0  0  0  0  0
   -3.9128    0.7963   -0.2336 C   0  0  0  0  0  0  0  0  0  0  0  0
   -4.8778    1.8545    0.2916 C   0  0  0  0  0  0  0  0  0  0  0  0
   -6.1142    1.1410    0.7486 C   0  0  0  0  0  0  0  0  0  0  0  0
   -5.8293   -0.2761    0.3719 C   0  0  0  0  0  0  0  0  0  0  0  0
   -3.6749   -1.8734    0.1523 H   0  0  0  0  0  0  0  0  0  0  0  0
   -5.8741   -2.7471   -0.2364 H   0  0  0  0  0  0  0  0  0  0  0  0
   -4.8121   -3.4656   -1.5398 H   0  0  0  0  0  0  0  0  0  0  0  0
   -5.8803   -2.0557   -1.9085 H   0  0  0  0  0  0  0  0  0  0  0  0
   -3.7771   -1.2883   -2.8999 H   0  0  0  0  0  0  0  0  0  0  0  0
   -2.8132   -2.5640   -2.1561 H   0  0  0  0  0  0  0  0  0  0  0  0
   -0.4734    1.2590   -2.2048 H   0  0  0  0  0  0  0  0  0  0  0  0
    1.4619    1.7471   -0.8935 H   0  0  0  0  0  0  0  0  0  0  0  0
    0.6613   -1.5485    1.6468 H   0  0  0  0  0  0  0  0  0  0  0  0
   -1.3477   -2.0854    0.3051 H   0  0  0  0  0  0  0  0  0  0  0  0
    2.2618    0.0112    2.2703 H   0  0  0  0  0  0  0  0  0  0  0  0
    4.4256   -0.0342    1.5936 H   0  0  0  0  0  0  0  0  0  0  0  0
    2.3537   -1.4506   -1.2889 H   0  0  0  0  0  0  0  0  0  0  0  0
    2.1807   -3.8026   -1.7479 H   0  0  0  0  0  0  0  0  0  0  0  0
    3.8545   -6.1729   -1.0255 H   0  0  0  0  0  0  0  0  0  0  0  0
    4.6491   -4.5621    1.7066 H   0  0  0  0  0  0  0  0  0  0  0  0
    4.7674   -2.1945    2.0970 H   0  0  0  0  0  0  0  0  0  0  0  0
    5.5539    3.4004   -1.3482 H   0  0  0  0  0  0  0  0  0  0  0  0
    6.1240    6.4624   -0.1208 H   0  0  0  0  0  0  0  0  0  0  0  0
    3.6964    6.2026    1.1618 H   0  0  0  0  0  0  0  0  0  0  0  0
    2.3276    4.4129    2.1655 H   0  0  0  0  0  0  0  0  0  0  0  0
   -3.2389    0.5446    0.5895 H   0  0  0  0  0  0  0  0  0  0  0  0
   -3.3961    1.1809   -1.1492 H   0  0  0  0  0  0  0  0  0  0  0  0
   -5.1099    2.5297   -0.5426 H   0  0  0  0  0  0  0  0  0  0  0  0
   -4.4429    2.4136    1.1227 H   0  0  0  0  0  0  0  0  0  0  0  0
   -7.0253    1.5248    0.2085 H   0  0  0  0  0  0  0  0  0  0  0  0
   -6.3011    1.2929    1.8423 H   0  0  0  0  0  0  0  0  0  0  0  0
   -6.7431   -0.7040   -0.0998 H   0  0  0  0  0  0  0  0  0  0  0  0
   -5.5884   -0.9121    1.2494 H   0  0  0  0  0  0  0  0  0  0  0  0
  1  2  1  0
  1  3  1  0
  3  4  1  0
  4  5  1  0
  5  6  2  0
  6  7  1  0
  7  8  2  0
  8  9  1  0
  9 10  2  0
  8 11  1  0
 11 12  1  0
 12 13  1  0
 13 14  2  0
 14 15  1  0
 15 16  1  0
 16 17  1  0
 17 18  2  0
 18 19  1  0
 19 20  2  0
 20 21  1  0
 20 22  1  0
 22 23  2  0
 14 24  1  0
 24 25  2  0
 25 26  1  0
 25 27  1  0
 27 28  2  0
  1 29  1  0
 29 30  1  0
 30 31  1  0
 31 32  1  0
 32 33  1  0
 10  5  1  0
 16 11  1  0
 23 17  1  0
 33 29  1  0
 28 13  1  0
  1 34  1  1
  2 35  1  0
  2 36  1  0
  2 37  1  0
  3 38  1  0
  3 39  1  0
  6 40  1  0
  7 41  1  0
  9 42  1  0
 10 43  1  0
 11 44  1  1
 16 45  1  1
 18 46  1  0
 19 47  1  0
 21 48  1  0
 22 49  1  0
 23 50  1  0
 24 51  1  0
 26 52  1  0
 27 53  1  0
 28 54  1  0
 30 55  1  0
 30 56  1  0
 31 57  1  0
 31 58  1  0
 32 59  1  0
 32 60  1  0
 33 61  1  0
 33 62  1  0
M  END
$$$$
