
     RDKit          3D

 43 45  0  0  0  0  0  0  0  0999 V2000
   -2.3723    3.2370   -2.2771 C   0  0  0  0  0  0  0  0  0  0  0  0
   -2.2667    2.1073   -1.4450 O   0  0  0  0  0  0  0  0  0  0  0  0
   -1.0091    1.6098   -1.1466 C   0  0  0  0  0  0  0  0  0  0  0  0
    0.1287    2.2301   -1.6704 C   0  0  0  0  0  0  0  0  0  0  0  0
    1.4068    1.8023   -1.4248 C   0  0  0  0  0  0  0  0  0  0  0  0
    1.6163    0.6830   -0.6063 C   0  0  0  0  0  0  0  0  0  0  0  0
    2.9841    0.2344   -0.3501 C   0  0  0  0  0  0  0  0  0  0  0  0
    3.9755    0.8482   -0.8605 O   0  0  0  0  0  0  0  0  0  0  0  0
    3.2049   -0.8903    0.4711 N   0  0  0  0  0  0  0  0  0  0  0  0
    4.5590   -1.3006    0.6996 C   0  0  0  0  0  0  0  0  0  0  0  0
    5.1333   -2.2084   -0.1623 C   0  0  0  0  0  0  0  0  0  0  0  0
    4.3006   -2.8994   -1.5358 Cl  0  0  0  0  0  0  0  0  0  0  0  0
    6.4346   -2.5974    0.0642 C   0  0  0  0  0  0  0  0  0  0  0  0
    7.0935   -2.0797    1.1130 N   0  0  0  0  0  0  0  0  0  0  0  0
    6.5517   -1.1947    1.9635 C   0  0  0  0  0  0  0  0  0  0  0  0
    5.2492   -0.7783    1.7721 C   0  0  0  0  0  0  0  0  0  0  0  0
    4.5467    0.3761    2.8841 Cl  0  0  0  0  0  0  0  0  0  0  0  0
    0.5164    0.0733   -0.0924 C   0  0  0  0  0  0  0  0  0  0  0  0
   -0.8071    0.5088   -0.3412 C   0  0  0  0  0  0  0  0  0  0  0  0
   -1.8352   -0.1717    0.2212 O   0  0  0  0  0  0  0  0  0  0  0  0
   -3.1883   -0.0794    0.2286 C   0  0  0  0  0  0  0  0  0  0  0  0
   -3.7394    0.1165    1.6482 C   0  0  0  0  0  0  0  0  0  0  0  0
   -5.1954   -0.2938    1.4987 C   0  0  0  0  0  0  0  0  0  0  0  0
   -5.1631   -1.4570    0.5283 C   0  0  0  0  0  0  0  0  0  0  0  0
   -3.8783   -1.3645   -0.2306 C   0  0  0  0  0  0  0  0  0  0  0  0
   -1.7905    4.1065   -1.8685 H   0  0  0  0  0  0  0  0  0  0  0  0
   -3.4020    3.5034   -2.5274 H   0  0  0  0  0  0  0  0  0  0  0  0
   -1.8698    2.9987   -3.2598 H   0  0  0  0  0  0  0  0  0  0  0  0
   -0.0674    3.1089   -2.3113 H   0  0  0  0  0  0  0  0  0  0  0  0
    2.2665    2.3010   -1.8429 H   0  0  0  0  0  0  0  0  0  0  0  0
    2.4340   -1.4325    0.9160 H   0  0  0  0  0  0  0  0  0  0  0  0
    6.9354   -3.3122   -0.5872 H   0  0  0  0  0  0  0  0  0  0  0  0
    7.1664   -0.8343    2.7819 H   0  0  0  0  0  0  0  0  0  0  0  0
    0.6142   -0.8050    0.5536 H   0  0  0  0  0  0  0  0  0  0  0  0
   -3.6242    0.7396   -0.3548 H   0  0  0  0  0  0  0  0  0  0  0  0
   -3.7305    1.1791    1.9439 H   0  0  0  0  0  0  0  0  0  0  0  0
   -3.2653   -0.5628    2.3685 H   0  0  0  0  0  0  0  0  0  0  0  0
   -5.6287   -0.6427    2.4536 H   0  0  0  0  0  0  0  0  0  0  0  0
   -5.8225    0.5364    1.1222 H   0  0  0  0  0  0  0  0  0  0  0  0
   -6.0644   -1.4969   -0.1121 H   0  0  0  0  0  0  0  0  0  0  0  0
   -5.1841   -2.4100    1.1254 H   0  0  0  0  0  0  0  0  0  0  0  0
   -4.0271   -1.2824   -1.3407 H   0  0  0  0  0  0  0  0  0  0  0  0
   -3.1866   -2.2063   -0.0100 H   0  0  0  0  0  0  0  0  0  0  0  0
  1  2  1  0
  2  3  1  0
  3  4  2  0
  4  5  1  0
  5  6  2  0
  6  7  1  0
  7  8  2  0
  7  9  1  0
  9 10  1  0
 10 11  2  0
 11 12  1  0
 11 13  1  0
 13 14  2  0
 14 15  1  0
 15 16  2  0
 16 17  1  0
  6 18  1  0
 18 19  2  0
 19 20  1  0
 20 21  1  0
 21 22  1  0
 22 23  1  0
 23 24  1  0
 24 25  1  0
 19  3  1  0
 25 21  1  0
 16 10  1  0
  1 26  1  0
  1 27  1  0
  1 28  1  0
  4 29  1  0
  5 30  1  0
  9 31  1  0
 13 32  1  0
 15 33  1  0
 18 34  1  0
 21 35  1  0
 22 36  1  0
 22 37  1  0
 23 38  1  0
 23 39  1  0
 24 40  1  0
 24 41  1  0
 25 42  1  0
 25 43  1  0
M  END
$$$$
