
     RDKit          3D

 29 30  0  0  0  0  0  0  0  0999 V2000
   -5.4395    0.0936   -0.0502 C   0  0  0  0  0  0  0  0  0  0  0  0
   -4.6120   -1.4956    0.2248 S   0  0  0  0  0  0  0  0  0  0  0  0
   -2.8642   -1.2619   -0.1872 C   0  0  0  0  0  0  0  0  0  0  0  0
   -2.0556   -0.8227    0.8542 C   0  0  0  0  0  0  0  0  0  0  0  0
   -0.6961   -0.6144    0.6187 C   0  0  0  0  0  0  0  0  0  0  0  0
   -0.1196   -0.8335   -0.6383 C   0  0  0  0  0  0  0  0  0  0  0  0
   -0.9814   -1.2670   -1.6148 C   0  0  0  0  0  0  0  0  0  0  0  0
   -2.3261   -1.4894   -1.4392 C   0  0  0  0  0  0  0  0  0  0  0  0
    1.2967   -0.5510   -0.8151 C   0  0  0  0  0  0  0  0  0  0  0  0
    1.8915   -1.2265   -1.6742 O   0  0  0  0  0  0  0  0  0  0  0  0
    2.0112    0.4618   -0.0442 C   0  0  0  0  0  0  0  0  0  0  0  0
    3.3450    0.6572    0.1320 C   0  0  0  0  0  0  0  0  0  0  0  0
    4.4238   -0.1801   -0.4078 C   0  0  0  0  0  0  0  0  0  0  0  0
    3.5872    1.7475    0.8888 N   0  0  0  0  0  0  0  0  0  0  0  0
    2.3770    2.2835    1.2195 C   0  0  0  0  0  0  0  0  0  0  0  0
    2.3155    3.3110    1.9246 O   0  0  0  0  0  0  0  0  0  0  0  0
    1.4508    1.4903    0.6448 N   0  0  0  0  0  0  0  0  0  0  0  0
   -4.8660    0.6432   -0.8231 H   0  0  0  0  0  0  0  0  0  0  0  0
   -6.5027   -0.0452   -0.3154 H   0  0  0  0  0  0  0  0  0  0  0  0
   -5.3394    0.6526    0.9269 H   0  0  0  0  0  0  0  0  0  0  0  0
   -2.4839   -0.6410    1.8534 H   0  0  0  0  0  0  0  0  0  0  0  0
   -0.1561   -0.2964    1.4866 H   0  0  0  0  0  0  0  0  0  0  0  0
   -0.5480   -1.4428   -2.5941 H   0  0  0  0  0  0  0  0  0  0  0  0
   -2.9922   -1.8312   -2.2163 H   0  0  0  0  0  0  0  0  0  0  0  0
    5.1672   -0.4719    0.3806 H   0  0  0  0  0  0  0  0  0  0  0  0
    4.0743   -1.1142   -0.8450 H   0  0  0  0  0  0  0  0  0  0  0  0
    5.0207    0.3428   -1.2076 H   0  0  0  0  0  0  0  0  0  0  0  0
    4.5401    2.1107    1.1696 H   0  0  0  0  0  0  0  0  0  0  0  0
    0.4818    1.7906    0.8061 H   0  0  0  0  0  0  0  0  0  0  0  0
  1  2  1  0
  2  3  1  0
  3  4  2  0
  4  5  1  0
  5  6  2  0
  6  7  1  0
  7  8  2  0
  6  9  1  0
  9 10  2  0
  9 11  1  0
 11 12  2  0
 12 13  1  0
 12 14  1  0
 14 15  1  0
 15 16  2  0
 15 17  1  0
  8  3  1  0
 17 11  1  0
  1 18  1  0
  1 19  1  0
  1 20  1  0
  4 21  1  0
  5 22  1  0
  7 23  1  0
  8 24  1  0
 13 25  1  0
 13 26  1  0
 13 27  1  0
 14 28  1  0
 17 29  1  0
M  END
$$$$
