
     RDKit          3D

 21 21  0  0  0  0  0  0  0  0999 V2000
    2.0615   -1.0394   -0.0198 C   0  0  0  0  0  0  0  0  0  0  0  0
    0.8205   -0.5685   -0.6997 C   0  0  0  0  0  0  0  0  0  0  0  0
   -0.0521    0.3177    0.1127 C   0  0  0  0  0  0  0  0  0  0  0  0
    0.6490    1.5851    0.5479 C   0  0  0  0  0  0  0  0  0  0  0  0
   -1.2153    0.7475   -0.7899 C   0  0  0  0  0  0  0  0  0  0  0  0
   -2.2356   -0.3212   -0.6323 C   0  0  0  0  0  0  0  0  0  0  0  0
   -3.1741   -0.6894   -1.3510 O   0  0  0  0  0  0  0  0  0  0  0  0
   -1.9524   -0.9522    0.6271 N   0  0  0  0  0  0  0  0  0  0  0  0
   -0.7719   -0.3574    1.2072 C   0  0  0  0  0  0  0  0  0  0  0  0
   -0.2916   -0.3156    2.3710 O   0  0  0  0  0  0  0  0  0  0  0  0
    1.8732   -1.5982    0.9135 H   0  0  0  0  0  0  0  0  0  0  0  0
    2.8298   -0.2481    0.1061 H   0  0  0  0  0  0  0  0  0  0  0  0
    2.5208   -1.7995   -0.7094 H   0  0  0  0  0  0  0  0  0  0  0  0
    0.2278   -1.4565   -1.0022 H   0  0  0  0  0  0  0  0  0  0  0  0
    1.1387    0.0270   -1.5916 H   0  0  0  0  0  0  0  0  0  0  0  0
    1.6101    1.7495   -0.0071 H   0  0  0  0  0  0  0  0  0  0  0  0
    0.0242    2.4901    0.3995 H   0  0  0  0  0  0  0  0  0  0  0  0
    0.9273    1.5580    1.6258 H   0  0  0  0  0  0  0  0  0  0  0  0
   -0.8878    0.9051   -1.8313 H   0  0  0  0  0  0  0  0  0  0  0  0
   -1.6729    1.6927   -0.4424 H   0  0  0  0  0  0  0  0  0  0  0  0
   -2.4295   -1.7266    1.1658 H   0  0  0  0  0  0  0  0  0  0  0  0
  1  2  1  0
  2  3  1  0
  3  4  1  0
  3  5  1  0
  5  6  1  0
  6  7  2  0
  6  8  1  0
  8  9  1  0
  9 10  2  0
  9  3  1  0
  1 11  1  0
  1 12  1  0
  1 13  1  0
  2 14  1  0
  2 15  1  0
  4 16  1  0
  4 17  1  0
  4 18  1  0
  5 19  1  0
  5 20  1  0
  8 21  1  0
M  END
$$$$
