
     RDKit          3D

 49 51  0  0  0  0  0  0  0  0999 V2000
   -6.0252   -2.8516    2.5219 C   0  0  0  0  0  0  0  0  0  0  0  0
   -5.9103   -1.5891    1.9379 O   0  0  0  0  0  0  0  0  0  0  0  0
   -4.7712   -1.1416    1.2998 C   0  0  0  0  0  0  0  0  0  0  0  0
   -3.6552   -1.9175    1.1905 C   0  0  0  0  0  0  0  0  0  0  0  0
   -2.4737   -1.5786    0.5833 C   0  0  0  0  0  0  0  0  0  0  0  0
   -1.3700   -2.4621    0.4898 N   0  0  0  0  0  0  0  0  0  0  0  0
   -0.0104   -2.1842    0.2116 C   0  0  0  0  0  0  0  0  0  0  0  0
    0.8413   -3.2171    0.0511 N   0  0  0  0  0  0  0  0  0  0  0  0
    2.1284   -3.0239   -0.1755 C   0  0  0  0  0  0  0  0  0  0  0  0
    2.6105   -1.7771   -0.2492 N   0  0  0  0  0  0  0  0  0  0  0  0
    1.7669   -0.7385   -0.0900 C   0  0  0  0  0  0  0  0  0  0  0  0
    2.2634    0.6105   -0.1250 N   0  0  0  0  0  0  0  0  0  0  0  0
    3.5998    1.0120   -0.3539 C   0  0  0  0  0  0  0  0  0  0  0  0
    4.0694    2.2637    0.0578 C   0  0  0  0  0  0  0  0  0  0  0  0
    5.3656    2.6832   -0.1408 C   0  0  0  0  0  0  0  0  0  0  0  0
    5.7340    4.3023    0.4605 Cl  0  0  0  0  0  0  0  0  0  0  0  0
    6.2913    1.8724   -0.7721 C   0  0  0  0  0  0  0  0  0  0  0  0
    7.5184    2.4525   -0.8678 O   0  0  0  0  0  0  0  0  0  0  0  0
    8.6764    1.9419   -1.4520 C   0  0  0  0  0  0  0  0  0  0  0  0
    5.8593    0.6305   -1.1950 C   0  0  0  0  0  0  0  0  0  0  0  0
    4.5663    0.2567   -0.9761 C   0  0  0  0  0  0  0  0  0  0  0  0
    0.4431   -0.8989    0.1422 N   0  0  0  0  0  0  0  0  0  0  0  0
   -2.4488   -0.3214    0.0407 C   0  0  0  0  0  0  0  0  0  0  0  0
   -3.5144    0.5437    0.0916 C   0  0  0  0  0  0  0  0  0  0  0  0
   -3.6639    1.8255   -0.3951 O   0  0  0  0  0  0  0  0  0  0  0  0
   -2.6808    2.5365   -1.0833 C   0  0  0  0  0  0  0  0  0  0  0  0
   -4.6924    0.1375    0.7266 C   0  0  0  0  0  0  0  0  0  0  0  0
   -5.8672    0.8815    0.8727 O   0  0  0  0  0  0  0  0  0  0  0  0
   -6.8460    0.7352   -0.1564 C   0  0  0  0  0  0  0  0  0  0  0  0
   -5.0996   -2.9801    3.1507 H   0  0  0  0  0  0  0  0  0  0  0  0
   -6.0523   -3.5963    1.6983 H   0  0  0  0  0  0  0  0  0  0  0  0
   -6.8707   -2.9389    3.2261 H   0  0  0  0  0  0  0  0  0  0  0  0
   -3.7021   -2.9250    1.6368 H   0  0  0  0  0  0  0  0  0  0  0  0
   -1.6427   -3.4680    0.6578 H   0  0  0  0  0  0  0  0  0  0  0  0
    2.7965   -3.8745   -0.3023 H   0  0  0  0  0  0  0  0  0  0  0  0
    1.5963    1.4092    0.0323 H   0  0  0  0  0  0  0  0  0  0  0  0
    3.3288    2.8994    0.5566 H   0  0  0  0  0  0  0  0  0  0  0  0
    9.5685    2.3090   -0.9003 H   0  0  0  0  0  0  0  0  0  0  0  0
    8.7482    2.0932   -2.5382 H   0  0  0  0  0  0  0  0  0  0  0  0
    8.6738    0.8294   -1.2461 H   0  0  0  0  0  0  0  0  0  0  0  0
    6.6101    0.0494   -1.6780 H   0  0  0  0  0  0  0  0  0  0  0  0
    4.3499   -0.7252   -1.3532 H   0  0  0  0  0  0  0  0  0  0  0  0
   -1.6067    0.0789   -0.4617 H   0  0  0  0  0  0  0  0  0  0  0  0
   -2.2606    3.3907   -0.4886 H   0  0  0  0  0  0  0  0  0  0  0  0
   -1.8407    1.8706   -1.3339 H   0  0  0  0  0  0  0  0  0  0  0  0
   -3.0650    3.0101   -2.0133 H   0  0  0  0  0  0  0  0  0  0  0  0
   -6.7655   -0.2960   -0.5616 H   0  0  0  0  0  0  0  0  0  0  0  0
   -7.8719    0.8455    0.2058 H   0  0  0  0  0  0  0  0  0  0  0  0
   -6.6991    1.5141   -0.9329 H   0  0  0  0  0  0  0  0  0  0  0  0
  1  2  1  0
  2  3  1  0
  3  4  2  0
  4  5  1  0
  5  6  1  0
  6  7  1  0
  7  8  2  0
  8  9  1  0
  9 10  2  0
 10 11  1  0
 11 12  1  0
 12 13  1  0
 13 14  2  0
 14 15  1  0
 15 16  1  0
 15 17  2  0
 17 18  1  0
 18 19  1  0
 17 20  1  0
 20 21  2  0
 11 22  2  0
  5 23  2  0
 23 24  1  0
 24 25  1  0
 25 26  1  0
 24 27  2  0
 27 28  1  0
 28 29  1  0
 27  3  1  0
 22  7  1  0
 21 13  1  0
  1 30  1  0
  1 31  1  0
  1 32  1  0
  4 33  1  0
  6 34  1  0
  9 35  1  0
 12 36  1  0
 14 37  1  0
 19 38  1  0
 19 39  1  0
 19 40  1  0
 20 41  1  0
 21 42  1  0
 23 43  1  0
 26 44  1  0
 26 45  1  0
 26 46  1  0
 29 47  1  0
 29 48  1  0
 29 49  1  0
M  END
$$$$
