
     RDKit          3D

102109  0  0  0  0  0  0  0  0999 V2000
    6.9073   -5.9790    0.0527 C   0  0  0  0  0  0  0  0  0  0  0  0
    5.7786   -5.1896   -0.0669 O   0  0  0  0  0  0  0  0  0  0  0  0
    5.7012   -3.8166   -0.1837 C   0  0  0  0  0  0  0  0  0  0  0  0
    4.4953   -3.1780   -0.2936 C   0  0  0  0  0  0  0  0  0  0  0  0
    4.3678   -1.7835   -0.4150 C   0  0  0  0  0  0  0  0  0  0  0  0
    3.1207   -1.1858   -0.5348 N   0  0  0  0  0  0  0  0  0  0  0  0
    2.8377    0.1786   -0.5976 C   0  0  0  0  0  0  0  0  0  0  0  0
    3.6959    1.2027   -0.5118 N   0  0  0  0  0  0  0  0  0  0  0  0
    3.3873    2.4911   -0.5722 C   0  0  0  0  0  0  0  0  0  0  0  0
    2.0614    2.8161   -0.7386 C   0  0  0  0  0  0  0  0  0  0  0  0
    1.1038    1.7989   -0.8371 C   0  0  0  0  0  0  0  0  0  0  0  0
   -0.1857    2.1871   -1.0019 O   0  0  0  0  0  0  0  0  0  0  0  0
   -1.3184    1.4366   -1.1541 C   0  0  0  0  0  0  0  0  0  0  0  0
   -2.0451    1.4570   -2.3528 C   0  0  0  0  0  0  0  0  0  0  0  0
   -3.1870    0.7093   -2.5027 C   0  0  0  0  0  0  0  0  0  0  0  0
   -3.6670   -0.0841   -1.4970 C   0  0  0  0  0  0  0  0  0  0  0  0
   -4.8694   -0.8639   -1.6157 N   0  0  0  0  0  0  0  0  0  0  0  0
   -6.1131   -0.2016   -1.3355 C   0  0  0  0  0  0  0  0  0  0  0  0
   -6.0682    1.0280   -1.0014 O   0  0  0  0  0  0  0  0  0  0  0  0
   -7.3823   -0.8489   -1.4170 N   0  0  0  0  0  0  0  0  0  0  0  0
   -8.5395   -0.0543   -1.1485 C   0  0  0  0  0  0  0  0  0  0  0  0
   -9.1848    0.6488   -2.1678 C   0  0  0  0  0  0  0  0  0  0  0  0
  -10.2261    1.3108   -1.5445 C   0  0  0  0  0  0  0  0  0  0  0  0
  -11.2301    2.2156   -2.1509 C   0  0  0  0  0  0  0  0  0  0  0  0
  -10.7906    3.6656   -2.2010 C   0  0  0  0  0  0  0  0  0  0  0  0
  -12.6731    2.0082   -1.6939 C   0  0  0  0  0  0  0  0  0  0  0  0
  -12.2583    1.7160   -3.0874 C   0  0  0  0  0  0  0  0  0  0  0  0
  -10.1673    0.9937   -0.2493 N   0  0  0  0  0  0  0  0  0  0  0  0
   -9.1533    0.1675    0.0144 N   0  0  0  0  0  0  0  0  0  0  0  0
   -8.8062   -0.3645    1.2984 C   0  0  0  0  0  0  0  0  0  0  0  0
   -8.6384    0.4835    2.3710 C   0  0  0  0  0  0  0  0  0  0  0  0
   -8.3061    0.0211    3.6278 C   0  0  0  0  0  0  0  0  0  0  0  0
   -8.1265   -1.3246    3.8640 C   0  0  0  0  0  0  0  0  0  0  0  0
   -7.7578   -1.8382    5.2249 C   0  0  0  0  0  0  0  0  0  0  0  0
   -8.2919   -2.1873    2.7978 C   0  0  0  0  0  0  0  0  0  0  0  0
   -8.6279   -1.7077    1.5306 C   0  0  0  0  0  0  0  0  0  0  0  0
   -2.9678   -0.1165   -0.3179 C   0  0  0  0  0  0  0  0  0  0  0  0
   -3.4451   -0.9054    0.7018 C   0  0  0  0  0  0  0  0  0  0  0  0
   -2.7627   -0.9494    1.9042 C   0  0  0  0  0  0  0  0  0  0  0  0
   -1.6126   -0.2153    2.0967 C   0  0  0  0  0  0  0  0  0  0  0  0
   -1.1486    0.5681    1.0686 C   0  0  0  0  0  0  0  0  0  0  0  0
   -1.8020    0.6347   -0.1406 C   0  0  0  0  0  0  0  0  0  0  0  0
    1.5369    0.5356   -0.7624 N   0  0  0  0  0  0  0  0  0  0  0  0
    5.5482   -1.1029   -0.4149 C   0  0  0  0  0  0  0  0  0  0  0  0
    6.7922   -1.7164   -0.3052 C   0  0  0  0  0  0  0  0  0  0  0  0
    8.0272   -0.9471   -0.2898 C   0  0  0  0  0  0  0  0  0  0  0  0
    7.9266    0.3074   -0.0606 O   0  0  0  0  0  0  0  0  0  0  0  0
    9.3113   -1.4572   -0.5053 N   0  0  0  0  0  0  0  0  0  0  0  0
   10.5532   -0.7076   -0.4854 C   0  0  0  0  0  0  0  0  0  0  0  0
   10.7639   -0.1333    0.8677 C   0  0  0  0  0  0  0  0  0  0  0  0
   11.9874    0.6164    0.9968 N   0  0  0  0  0  0  0  0  0  0  0  0
   12.2174    1.0842    2.3447 C   0  0  0  0  0  0  0  0  0  0  0  0
   11.7782    2.4886    2.5957 C   0  0  0  0  0  0  0  0  0  0  0  0
   10.8525    2.9374    1.6572 O   0  0  0  0  0  0  0  0  0  0  0  0
   11.3375    2.9147    0.3701 C   0  0  0  0  0  0  0  0  0  0  0  0
   12.1433    1.6793    0.0250 C   0  0  0  0  0  0  0  0  0  0  0  0
    6.8683   -3.0864   -0.1888 C   0  0  0  0  0  0  0  0  0  0  0  0
    7.2176   -6.3290   -0.9768 H   0  0  0  0  0  0  0  0  0  0  0  0
    7.7946   -5.4907    0.4939 H   0  0  0  0  0  0  0  0  0  0  0  0
    6.7380   -6.9105    0.6472 H   0  0  0  0  0  0  0  0  0  0  0  0
    3.5679   -3.7427   -0.2888 H   0  0  0  0  0  0  0  0  0  0  0  0
    2.2853   -1.8612   -0.5816 H   0  0  0  0  0  0  0  0  0  0  0  0
    4.0999    3.2843   -0.5005 H   0  0  0  0  0  0  0  0  0  0  0  0
    1.7049    3.8444   -0.8019 H   0  0  0  0  0  0  0  0  0  0  0  0
   -1.6811    2.0764   -3.1527 H   0  0  0  0  0  0  0  0  0  0  0  0
   -3.7657    0.7121   -3.4328 H   0  0  0  0  0  0  0  0  0  0  0  0
   -4.8926   -1.8610   -1.8861 H   0  0  0  0  0  0  0  0  0  0  0  0
   -7.4069   -1.8452   -1.6811 H   0  0  0  0  0  0  0  0  0  0  0  0
   -8.9481    0.6875   -3.2206 H   0  0  0  0  0  0  0  0  0  0  0  0
  -11.4020    4.2589   -2.9233 H   0  0  0  0  0  0  0  0  0  0  0  0
  -10.8469    4.0790   -1.1727 H   0  0  0  0  0  0  0  0  0  0  0  0
   -9.7195    3.7114   -2.5095 H   0  0  0  0  0  0  0  0  0  0  0  0
  -12.8784    1.1585   -1.0171 H   0  0  0  0  0  0  0  0  0  0  0  0
  -13.2614    2.9086   -1.4327 H   0  0  0  0  0  0  0  0  0  0  0  0
  -12.2536    0.6589   -3.4308 H   0  0  0  0  0  0  0  0  0  0  0  0
  -12.5522    2.4189   -3.8954 H   0  0  0  0  0  0  0  0  0  0  0  0
   -8.7792    1.5394    2.1832 H   0  0  0  0  0  0  0  0  0  0  0  0
   -8.1803    0.7008    4.4577 H   0  0  0  0  0  0  0  0  0  0  0  0
   -8.5237   -1.5827    5.9842 H   0  0  0  0  0  0  0  0  0  0  0  0
   -6.7815   -1.3778    5.5475 H   0  0  0  0  0  0  0  0  0  0  0  0
   -7.6813   -2.9214    5.1735 H   0  0  0  0  0  0  0  0  0  0  0  0
   -8.1533   -3.2528    2.9718 H   0  0  0  0  0  0  0  0  0  0  0  0
   -8.7461   -2.4192    0.7268 H   0  0  0  0  0  0  0  0  0  0  0  0
   -4.3520   -1.4887    0.5564 H   0  0  0  0  0  0  0  0  0  0  0  0
   -3.1609   -1.5732    2.6760 H   0  0  0  0  0  0  0  0  0  0  0  0
   -1.1106   -0.2868    3.0679 H   0  0  0  0  0  0  0  0  0  0  0  0
   -0.2664    1.1436    1.2167 H   0  0  0  0  0  0  0  0  0  0  0  0
    5.5697   -0.0129   -0.5051 H   0  0  0  0  0  0  0  0  0  0  0  0
    9.3612   -2.5054   -0.7073 H   0  0  0  0  0  0  0  0  0  0  0  0
   10.5337    0.0607   -1.2933 H   0  0  0  0  0  0  0  0  0  0  0  0
   11.3781   -1.4045   -0.7551 H   0  0  0  0  0  0  0  0  0  0  0  0
   10.8060   -0.9681    1.5928 H   0  0  0  0  0  0  0  0  0  0  0  0
    9.8761    0.4691    1.1738 H   0  0  0  0  0  0  0  0  0  0  0  0
   13.3381    1.0431    2.4911 H   0  0  0  0  0  0  0  0  0  0  0  0
   11.7832    0.3841    3.0490 H   0  0  0  0  0  0  0  0  0  0  0  0
   11.3353    2.5862    3.5968 H   0  0  0  0  0  0  0  0  0  0  0  0
   12.6484    3.2058    2.5780 H   0  0  0  0  0  0  0  0  0  0  0  0
   11.9628    3.8354    0.2388 H   0  0  0  0  0  0  0  0  0  0  0  0
   10.4716    2.9364   -0.3276 H   0  0  0  0  0  0  0  0  0  0  0  0
   12.0615    1.3574   -1.0144 H   0  0  0  0  0  0  0  0  0  0  0  0
   13.2311    1.9913    0.1338 H   0  0  0  0  0  0  0  0  0  0  0  0
    7.8303   -3.5757   -0.0973 H   0  0  0  0  0  0  0  0  0  0  0  0
  1  2  1  0
  2  3  1  0
  3  4  2  0
  4  5  1  0
  5  6  1  0
  6  7  1  0
  7  8  2  0
  8  9  1  0
  9 10  2  0
 10 11  1  0
 11 12  1  0
 12 13  1  0
 13 14  2  0
 14 15  1  0
 15 16  2  0
 16 17  1  0
 17 18  1  0
 18 19  2  0
 18 20  1  0
 20 21  1  0
 21 22  2  0
 22 23  1  0
 23 24  1  0
 24 25  1  0
 24 26  1  0
 26 27  1  0
 23 28  2  0
 28 29  1  0
 29 30  1  0
 30 31  2  0
 31 32  1  0
 32 33  2  0
 33 34  1  0
 33 35  1  0
 35 36  2  0
 16 37  1  0
 37 38  2  0
 38 39  1  0
 39 40  2  0
 40 41  1  0
 41 42  2  0
 11 43  2  0
  5 44  2  0
 44 45  1  0
 45 46  1  0
 46 47  2  0
 46 48  1  0
 48 49  1  0
 49 50  1  0
 50 51  1  0
 51 52  1  0
 52 53  1  0
 53 54  1  0
 54 55  1  0
 55 56  1  0
 45 57  2  0
 57  3  1  0
 43  7  1  0
 56 51  1  0
 42 13  1  0
 29 21  1  0
 36 30  1  0
 42 37  1  0
 27 24  1  0
  1 58  1  0
  1 59  1  0
  1 60  1  0
  4 61  1  0
  6 62  1  0
  9 63  1  0
 10 64  1  0
 14 65  1  0
 15 66  1  0
 17 67  1  0
 20 68  1  0
 22 69  1  0
 25 70  1  0
 25 71  1  0
 25 72  1  0
 26 73  1  0
 26 74  1  0
 27 75  1  0
 27 76  1  0
 31 77  1  0
 32 78  1  0
 34 79  1  0
 34 80  1  0
 34 81  1  0
 35 82  1  0
 36 83  1  0
 38 84  1  0
 39 85  1  0
 40 86  1  0
 41 87  1  0
 44 88  1  0
 48 89  1  0
 49 90  1  0
 49 91  1  0
 50 92  1  0
 50 93  1  0
 52 94  1  0
 52 95  1  0
 53 96  1  0
 53 97  1  0
 55 98  1  0
 55 99  1  0
 56100  1  0
 56101  1  0
 57102  1  0
M  END
$$$$
