
     RDKit          3D

 50 52  0  0  0  0  0  0  0  0999 V2000
    7.8820    1.9912   -1.4291 C   0  0  0  0  0  0  0  0  0  0  0  0
    7.1849    0.9003   -0.7758 N   0  0  0  0  0  0  0  0  0  0  0  0
    6.0142    1.0580   -0.0073 C   0  0  0  0  0  0  0  0  0  0  0  0
    5.5405    2.2176    0.1213 O   0  0  0  0  0  0  0  0  0  0  0  0
    5.3329   -0.0633    0.6419 C   0  0  0  0  0  0  0  0  0  0  0  0
    6.0276   -0.9385    1.4882 C   0  0  0  0  0  0  0  0  0  0  0  0
    5.2927   -1.9126    2.0108 N   0  0  0  0  0  0  0  0  0  0  0  0
    3.9997   -2.1396    1.8212 C   0  0  0  0  0  0  0  0  0  0  0  0
    3.4186   -3.2462    2.4860 N   0  0  0  0  0  0  0  0  0  0  0  0
    3.2470   -1.2836    0.9735 C   0  0  0  0  0  0  0  0  0  0  0  0
    1.9485   -1.3941    0.6973 C   0  0  0  0  0  0  0  0  0  0  0  0
    1.4140   -0.4136   -0.1810 C   0  0  0  0  0  0  0  0  0  0  0  0
    0.0367   -0.3036   -0.6385 C   0  0  0  0  0  0  0  0  0  0  0  0
   -0.9040   -1.2157   -0.2450 C   0  0  0  0  0  0  0  0  0  0  0  0
   -2.2212   -1.1011   -0.6854 C   0  0  0  0  0  0  0  0  0  0  0  0
   -2.6457   -0.0911   -1.5202 C   0  0  0  0  0  0  0  0  0  0  0  0
   -4.2873    0.0745   -2.0899 S   0  0  0  0  0  6  0  0  0  0  0  0
   -4.9088   -1.3047   -2.3005 O   0  0  0  0  0  0  0  0  0  0  0  0
   -4.2637    0.6711   -3.4946 O   0  0  0  0  0  0  0  0  0  0  0  0
   -5.2731    1.0748   -1.1511 N   0  0  0  0  0  0  0  0  0  0  0  0
   -5.5007    0.6980    0.1992 C   0  0  0  0  0  0  0  0  0  0  0  0
   -4.2744    0.6692    1.0767 C   0  0  0  0  0  0  0  0  0  0  0  0
   -6.4300    1.7670    0.7968 C   0  0  0  0  0  0  0  0  0  0  0  0
   -6.2725   -0.6072    0.2784 C   0  0  0  0  0  0  0  0  0  0  0  0
   -1.6596    0.8194   -1.9001 C   0  0  0  0  0  0  0  0  0  0  0  0
   -0.3554    0.7197   -1.4741 C   0  0  0  0  0  0  0  0  0  0  0  0
    2.7765    0.5766   -0.5424 S   0  0  0  0  0  0  0  0  0  0  0  0
    3.9831   -0.2788    0.4283 C   0  0  0  0  0  0  0  0  0  0  0  0
    7.7859    2.9419   -0.8694 H   0  0  0  0  0  0  0  0  0  0  0  0
    8.9687    1.7312   -1.4124 H   0  0  0  0  0  0  0  0  0  0  0  0
    7.5739    2.1085   -2.4846 H   0  0  0  0  0  0  0  0  0  0  0  0
    7.5700   -0.0791   -0.8755 H   0  0  0  0  0  0  0  0  0  0  0  0
    7.0619   -0.7613    1.6434 H   0  0  0  0  0  0  0  0  0  0  0  0
    2.8095   -3.9433    2.0112 H   0  0  0  0  0  0  0  0  0  0  0  0
    3.6179   -3.3588    3.5026 H   0  0  0  0  0  0  0  0  0  0  0  0
    1.2515   -2.1838    1.0934 H   0  0  0  0  0  0  0  0  0  0  0  0
   -0.6318   -2.0303    0.4087 H   0  0  0  0  0  0  0  0  0  0  0  0
   -2.9686   -1.8194   -0.3775 H   0  0  0  0  0  0  0  0  0  0  0  0
   -5.2376    2.0811   -1.3263 H   0  0  0  0  0  0  0  0  0  0  0  0
   -4.4450    1.2343    2.0459 H   0  0  0  0  0  0  0  0  0  0  0  0
   -3.3983    1.1708    0.6361 H   0  0  0  0  0  0  0  0  0  0  0  0
   -4.0560   -0.3746    1.4064 H   0  0  0  0  0  0  0  0  0  0  0  0
   -7.1894    1.2803    1.4408 H   0  0  0  0  0  0  0  0  0  0  0  0
   -6.9816    2.3114    0.0067 H   0  0  0  0  0  0  0  0  0  0  0  0
   -5.8694    2.4492    1.4766 H   0  0  0  0  0  0  0  0  0  0  0  0
   -6.9637   -0.5625    1.1386 H   0  0  0  0  0  0  0  0  0  0  0  0
   -5.6245   -1.4794    0.4322 H   0  0  0  0  0  0  0  0  0  0  0  0
   -6.8244   -0.7167   -0.6763 H   0  0  0  0  0  0  0  0  0  0  0  0
   -1.9593    1.6262   -2.5559 H   0  0  0  0  0  0  0  0  0  0  0  0
    0.4079    1.4304   -1.7727 H   0  0  0  0  0  0  0  0  0  0  0  0
  1  2  1  0
  2  3  1  0
  3  4  2  0
  3  5  1  0
  5  6  2  0
  6  7  1  0
  7  8  2  0
  8  9  1  0
  8 10  1  0
 10 11  1  0
 11 12  2  0
 12 13  1  0
 13 14  2  0
 14 15  1  0
 15 16  2  0
 16 17  1  0
 17 18  2  0
 17 19  2  0
 17 20  1  0
 20 21  1  0
 21 22  1  0
 21 23  1  0
 21 24  1  0
 16 25  1  0
 25 26  2  0
 12 27  1  0
 27 28  1  0
 28  5  1  0
 28 10  2  0
 26 13  1  0
  1 29  1  0
  1 30  1  0
  1 31  1  0
  2 32  1  0
  6 33  1  0
  9 34  1  0
  9 35  1  0
 11 36  1  0
 14 37  1  0
 15 38  1  0
 20 39  1  0
 22 40  1  0
 22 41  1  0
 22 42  1  0
 23 43  1  0
 23 44  1  0
 23 45  1  0
 24 46  1  0
 24 47  1  0
 24 48  1  0
 25 49  1  0
 26 50  1  0
M  END
$$$$
