
     RDKit          3D

 42 45  0  0  0  0  0  0  0  0999 V2000
    2.4855    0.3630   -1.5780 C   0  0  0  0  0  0  0  0  0  0  0  0
    1.8489    0.4533   -0.1630 C   0  0  1  0  0  0  0  0  0  0  0  0
    0.6412   -0.1016   -0.2302 O   0  0  0  0  0  0  0  0  0  0  0  0
   -0.6561    0.0181   -0.1286 C   0  0  0  0  0  0  0  0  0  0  0  0
   -1.4749   -1.1052   -0.3556 C   0  0  0  0  0  0  0  0  0  0  0  0
   -2.8397   -1.0516   -0.2662 C   0  0  0  0  0  0  0  0  0  0  0  0
   -3.6304   -2.2943   -0.5238 C   0  0  0  0  0  0  0  0  0  0  0  0
   -3.0137   -3.4635   -0.8423 C   0  0  0  0  0  0  0  0  0  0  0  0
   -4.4373   -4.5997   -1.0386 S   0  0  0  0  0  0  0  0  0  0  0  0
   -5.6805   -3.2632   -0.6445 C   0  0  0  0  0  0  0  0  0  0  0  0
   -4.9290   -2.3012   -0.4529 N   0  0  0  0  0  0  0  0  0  0  0  0
   -3.4550    0.1357    0.0565 C   0  0  0  0  0  0  0  0  0  0  0  0
   -2.6922    1.2560    0.2859 C   0  0  0  0  0  0  0  0  0  0  0  0
   -3.0295    2.5378    0.6161 N   0  0  0  0  0  0  0  0  0  0  0  0
   -1.9515    3.2750    0.7348 N   0  0  0  0  0  0  0  0  0  0  0  0
   -1.8381    4.6922    1.0727 C   0  0  0  0  0  0  0  0  0  0  0  0
   -0.8855    2.4677    0.4791 C   0  0  0  0  0  0  0  0  0  0  0  0
   -1.3210    1.1820    0.1913 C   0  0  0  0  0  0  0  0  0  0  0  0
    2.7991   -0.2525    0.8183 C   0  0  1  0  0  0  0  0  0  0  0  0
    3.0066   -1.6872    0.4655 C   0  0  0  0  0  0  0  0  0  0  0  0
    4.3986   -1.8181    0.0322 N   0  0  0  0  0  0  0  0  0  0  0  0
    5.0216   -0.5396    0.0239 C   0  0  0  0  0  0  0  0  0  0  0  0
    6.1094   -0.3235   -0.5707 O   0  0  0  0  0  0  0  0  0  0  0  0
    4.1679    0.3708    0.8010 C   0  0  0  0  0  0  0  0  0  0  0  0
    1.9066    1.1081   -2.1783 H   0  0  0  0  0  0  0  0  0  0  0  0
    3.5389    0.6442   -1.5498 H   0  0  0  0  0  0  0  0  0  0  0  0
    2.2788   -0.6268   -2.0244 H   0  0  0  0  0  0  0  0  0  0  0  0
    1.9689    1.5271    0.0912 H   0  0  0  0  0  0  0  0  0  0  0  0
   -0.9564   -2.0182   -0.6063 H   0  0  0  0  0  0  0  0  0  0  0  0
   -2.0005   -3.7587   -0.9706 H   0  0  0  0  0  0  0  0  0  0  0  0
   -6.7444   -3.4782   -0.6372 H   0  0  0  0  0  0  0  0  0  0  0  0
   -4.5293    0.1801    0.1274 H   0  0  0  0  0  0  0  0  0  0  0  0
   -0.9751    5.1089    0.5391 H   0  0  0  0  0  0  0  0  0  0  0  0
   -2.7841    5.2277    0.8635 H   0  0  0  0  0  0  0  0  0  0  0  0
   -1.6397    4.8248    2.1663 H   0  0  0  0  0  0  0  0  0  0  0  0
    0.1389    2.8070    0.5042 H   0  0  0  0  0  0  0  0  0  0  0  0
    2.3886   -0.1492    1.8426 H   0  0  0  0  0  0  0  0  0  0  0  0
    2.8876   -2.3246    1.3694 H   0  0  0  0  0  0  0  0  0  0  0  0
    2.3064   -2.0594   -0.3077 H   0  0  0  0  0  0  0  0  0  0  0  0
    4.8023   -2.7376   -0.2157 H   0  0  0  0  0  0  0  0  0  0  0  0
    4.1801    1.3869    0.3543 H   0  0  0  0  0  0  0  0  0  0  0  0
    4.5881    0.3875    1.8487 H   0  0  0  0  0  0  0  0  0  0  0  0
  1  2  1  0
  2  3  1  0
  3  4  1  0
  4  5  2  0
  5  6  1  0
  6  7  1  0
  7  8  2  0
  8  9  1  0
  9 10  1  0
 10 11  2  0
  6 12  2  0
 12 13  1  0
 13 14  2  0
 14 15  1  0
 15 16  1  0
 15 17  1  0
 17 18  2  0
  2 19  1  0
 19 20  1  0
 20 21  1  0
 21 22  1  0
 22 23  2  0
 22 24  1  0
 18  4  1  0
 24 19  1  0
 11  7  1  0
 18 13  1  0
  1 25  1  0
  1 26  1  0
  1 27  1  0
  2 28  1  1
  5 29  1  0
  8 30  1  0
 10 31  1  0
 12 32  1  0
 16 33  1  0
 16 34  1  0
 16 35  1  0
 17 36  1  0
 19 37  1  1
 20 38  1  0
 20 39  1  0
 21 40  1  0
 24 41  1  0
 24 42  1  0
M  END
$$$$
