
     RDKit          3D

 68 72  0  0  0  0  0  0  0  0999 V2000
   -5.2256   -4.2228    1.0180 C   0  0  0  0  0  0  0  0  0  0  0  0
   -3.9400   -3.5952    0.6855 C   0  0  0  0  0  0  0  0  0  0  0  0
   -2.7938   -4.3338    0.7659 C   0  0  0  0  0  0  0  0  0  0  0  0
   -1.5692   -3.7815    0.4623 C   0  0  0  0  0  0  0  0  0  0  0  0
   -1.4898   -2.4768    0.0742 C   0  0  0  0  0  0  0  0  0  0  0  0
   -0.2594   -1.8328   -0.2546 N   0  0  0  0  0  0  0  0  0  0  0  0
    1.0009   -2.4357   -0.2217 C   0  0  0  0  0  0  0  0  0  0  0  0
    1.1395   -3.6327    0.1128 O   0  0  0  0  0  0  0  0  0  0  0  0
    2.2065   -1.6666   -0.5838 C   0  0  0  0  0  0  0  0  0  0  0  0
    2.2002   -0.3552   -0.9727 C   0  0  0  0  0  0  0  0  0  0  0  0
    3.3866    0.3161   -1.3029 C   0  0  0  0  0  0  0  0  0  0  0  0
    4.6104   -0.3101   -1.2519 C   0  0  0  0  0  0  0  0  0  0  0  0
    5.8744    0.3728   -1.5947 C   0  0  0  0  0  0  0  0  0  0  0  0
    6.5251    1.0126   -0.5182 N   0  0  0  0  0  0  0  0  0  0  0  0
    6.9148    0.1909    0.5667 C   0  0  0  0  0  0  0  0  0  0  0  0
    7.6552    0.8802    1.6567 C   0  0  0  0  0  0  0  0  0  0  0  0
    8.7299    1.7201    1.1646 N   0  0  0  0  0  0  0  0  0  0  0  0
    9.2502    2.4601    2.3159 C   0  0  0  0  0  0  0  0  0  0  0  0
    8.1273    2.6934    0.2835 C   0  0  0  0  0  0  0  0  0  0  0  0
    7.3594    2.1078   -0.8442 C   0  0  0  0  0  0  0  0  0  0  0  0
    4.6081   -1.6307   -0.8595 C   0  0  0  0  0  0  0  0  0  0  0  0
    3.4512   -2.3054   -0.5314 C   0  0  0  0  0  0  0  0  0  0  0  0
   -2.6854   -1.7458    0.0017 C   0  0  0  0  0  0  0  0  0  0  0  0
   -3.9247   -2.2436    0.2912 C   0  0  0  0  0  0  0  0  0  0  0  0
   -5.1333   -1.5325    0.2284 N   0  0  0  0  0  0  0  0  0  0  0  0
   -5.3111   -0.1831   -0.1544 C   0  0  0  0  0  0  0  0  0  0  0  0
   -4.3222    0.6336   -0.5342 N   0  0  0  0  0  0  0  0  0  0  0  0
   -4.5213    1.9082   -0.8913 C   0  0  0  0  0  0  0  0  0  0  0  0
   -5.8201    2.4317   -0.8734 C   0  0  0  0  0  0  0  0  0  0  0  0
   -6.8584    1.6140   -0.4865 C   0  0  0  0  0  0  0  0  0  0  0  0
   -8.2482    2.1131   -0.4484 C   0  0  0  0  0  0  0  0  0  0  0  0
   -9.2380    1.2329   -0.0490 C   0  0  0  0  0  0  0  0  0  0  0  0
  -10.5608    1.5906    0.0223 C   0  0  0  0  0  0  0  0  0  0  0  0
  -10.8876    2.8804   -0.3221 C   0  0  0  0  0  0  0  0  0  0  0  0
   -9.9267    3.7355   -0.7099 N   0  0  0  0  0  0  0  0  0  0  0  0
   -8.6092    3.3743   -0.7796 C   0  0  0  0  0  0  0  0  0  0  0  0
   -6.5694    0.3578   -0.1472 N   0  0  0  0  0  0  0  0  0  0  0  0
   -5.8933   -4.1039    0.1397 H   0  0  0  0  0  0  0  0  0  0  0  0
   -5.6478   -3.8100    1.9421 H   0  0  0  0  0  0  0  0  0  0  0  0
   -5.1060   -5.3134    1.1661 H   0  0  0  0  0  0  0  0  0  0  0  0
   -2.8658   -5.3848    1.0792 H   0  0  0  0  0  0  0  0  0  0  0  0
   -0.7335   -4.4499    0.5585 H   0  0  0  0  0  0  0  0  0  0  0  0
   -0.3414   -0.8103   -0.5444 H   0  0  0  0  0  0  0  0  0  0  0  0
    1.2673    0.1754   -1.0272 H   0  0  0  0  0  0  0  0  0  0  0  0
    3.3290    1.3478   -1.6029 H   0  0  0  0  0  0  0  0  0  0  0  0
    6.5898   -0.3798   -2.0411 H   0  0  0  0  0  0  0  0  0  0  0  0
    5.7251    1.1314   -2.4105 H   0  0  0  0  0  0  0  0  0  0  0  0
    7.4791   -0.7165    0.2110 H   0  0  0  0  0  0  0  0  0  0  0  0
    5.9744   -0.2365    1.0250 H   0  0  0  0  0  0  0  0  0  0  0  0
    8.1281    0.1082    2.3019 H   0  0  0  0  0  0  0  0  0  0  0  0
    6.9628    1.4485    2.3327 H   0  0  0  0  0  0  0  0  0  0  0  0
    8.3843    3.0047    2.7768 H   0  0  0  0  0  0  0  0  0  0  0  0
    9.7410    1.8017    3.0422 H   0  0  0  0  0  0  0  0  0  0  0  0
    9.9443    3.2596    1.9567 H   0  0  0  0  0  0  0  0  0  0  0  0
    7.5412    3.4590    0.8685 H   0  0  0  0  0  0  0  0  0  0  0  0
    8.9818    3.2850   -0.1511 H   0  0  0  0  0  0  0  0  0  0  0  0
    8.0403    1.8512   -1.6894 H   0  0  0  0  0  0  0  0  0  0  0  0
    6.6988    2.9262   -1.2557 H   0  0  0  0  0  0  0  0  0  0  0  0
    5.5559   -2.1392   -0.8127 H   0  0  0  0  0  0  0  0  0  0  0  0
    3.4574   -3.3474   -0.2224 H   0  0  0  0  0  0  0  0  0  0  0  0
   -2.5804   -0.7135   -0.3097 H   0  0  0  0  0  0  0  0  0  0  0  0
   -6.0159   -2.0659    0.4990 H   0  0  0  0  0  0  0  0  0  0  0  0
   -3.7116    2.5567   -1.1962 H   0  0  0  0  0  0  0  0  0  0  0  0
   -5.9646    3.4449   -1.1591 H   0  0  0  0  0  0  0  0  0  0  0  0
   -8.9682    0.2158    0.2209 H   0  0  0  0  0  0  0  0  0  0  0  0
  -11.3149    0.8636    0.3440 H   0  0  0  0  0  0  0  0  0  0  0  0
  -11.9350    3.1614   -0.2653 H   0  0  0  0  0  0  0  0  0  0  0  0
   -7.8677    4.0881   -1.0950 H   0  0  0  0  0  0  0  0  0  0  0  0
  1  2  1  0
  2  3  2  0
  3  4  1  0
  4  5  2  0
  5  6  1  0
  6  7  1  0
  7  8  2  0
  7  9  1  0
  9 10  2  0
 10 11  1  0
 11 12  2  0
 12 13  1  0
 13 14  1  0
 14 15  1  0
 15 16  1  0
 16 17  1  0
 17 18  1  0
 17 19  1  0
 19 20  1  0
 12 21  1  0
 21 22  2  0
  5 23  1  0
 23 24  2  0
 24 25  1  0
 25 26  1  0
 26 27  2  0
 27 28  1  0
 28 29  2  0
 29 30  1  0
 30 31  1  0
 31 32  2  0
 32 33  1  0
 33 34  2  0
 34 35  1  0
 35 36  2  0
 30 37  2  0
 24  2  1  0
 37 26  1  0
 22  9  1  0
 36 31  1  0
 20 14  1  0
  1 38  1  0
  1 39  1  0
  1 40  1  0
  3 41  1  0
  4 42  1  0
  6 43  1  0
 10 44  1  0
 11 45  1  0
 13 46  1  0
 13 47  1  0
 15 48  1  0
 15 49  1  0
 16 50  1  0
 16 51  1  0
 18 52  1  0
 18 53  1  0
 18 54  1  0
 19 55  1  0
 19 56  1  0
 20 57  1  0
 20 58  1  0
 21 59  1  0
 22 60  1  0
 23 61  1  0
 25 62  1  0
 28 63  1  0
 29 64  1  0
 32 65  1  0
 33 66  1  0
 34 67  1  0
 36 68  1  0
M  END
$$$$
