
     RDKit          3D

 39 42  0  0  0  0  0  0  0  0999 V2000
   -3.9369   -1.5536    0.3415 C   0  0  0  0  0  0  0  0  0  0  0  0
   -2.8655   -0.9392   -0.4215 N   0  0  0  0  0  0  0  0  0  0  0  0
   -2.8977    0.4688   -0.2375 C   0  0  0  0  0  0  0  0  0  0  0  0
   -1.7820    0.8628    0.7076 C   0  0  0  0  0  0  0  0  0  0  0  0
   -0.5560    0.5460   -0.0397 N   0  0  0  0  0  0  0  0  0  0  0  0
   -0.4824   -0.7959   -0.5868 C   0  0  0  0  0  0  0  0  0  0  0  0
   -1.6234   -1.5931   -0.0696 C   0  0  0  0  0  0  0  0  0  0  0  0
    0.8409   -1.3084   -0.2455 C   0  0  0  0  0  0  0  0  0  0  0  0
    0.8260   -2.5390    0.3663 C   0  0  0  0  0  0  0  0  0  0  0  0
    1.9821   -3.1798    0.7606 C   0  0  0  0  0  0  0  0  0  0  0  0
    3.1960   -2.5845    0.5432 C   0  0  0  0  0  0  0  0  0  0  0  0
    3.1931   -1.3380   -0.0776 C   0  0  0  0  0  0  0  0  0  0  0  0
    2.0363   -0.6646   -0.4882 C   0  0  0  0  0  0  0  0  0  0  0  0
    2.3843    0.6424   -1.1164 C   0  0  0  0  0  0  0  0  0  0  0  0
    1.5580    1.7256   -0.5008 C   0  0  0  0  0  0  0  0  0  0  0  0
    0.2743    1.7002   -0.0261 C   0  0  0  0  0  0  0  0  0  0  0  0
   -0.3379    2.7737    0.5063 N   0  0  0  0  0  0  0  0  0  0  0  0
    0.2862    3.9474    0.6028 C   0  0  0  0  0  0  0  0  0  0  0  0
    1.5882    4.0350    0.1387 C   0  0  0  0  0  0  0  0  0  0  0  0
    2.2306    2.9389   -0.4114 C   0  0  0  0  0  0  0  0  0  0  0  0
   -3.6774   -2.6090    0.5705 H   0  0  0  0  0  0  0  0  0  0  0  0
   -4.0664   -0.9592    1.2848 H   0  0  0  0  0  0  0  0  0  0  0  0
   -4.8898   -1.5377   -0.2293 H   0  0  0  0  0  0  0  0  0  0  0  0
   -3.8981    0.7829    0.1114 H   0  0  0  0  0  0  0  0  0  0  0  0
   -2.7596    0.9515   -1.2225 H   0  0  0  0  0  0  0  0  0  0  0  0
   -1.8425    1.9116    1.0062 H   0  0  0  0  0  0  0  0  0  0  0  0
   -1.8016    0.2251    1.6082 H   0  0  0  0  0  0  0  0  0  0  0  0
   -0.5460   -0.8073   -1.7071 H   0  0  0  0  0  0  0  0  0  0  0  0
   -1.7027   -2.5824   -0.6084 H   0  0  0  0  0  0  0  0  0  0  0  0
   -1.5991   -1.7155    1.0129 H   0  0  0  0  0  0  0  0  0  0  0  0
   -0.0997   -3.0544    0.5626 H   0  0  0  0  0  0  0  0  0  0  0  0
    1.9371   -4.1608    1.2461 H   0  0  0  0  0  0  0  0  0  0  0  0
    4.1156   -3.0406    0.8302 H   0  0  0  0  0  0  0  0  0  0  0  0
    4.1733   -0.8832   -0.2402 H   0  0  0  0  0  0  0  0  0  0  0  0
    3.4277    0.8855   -0.8693 H   0  0  0  0  0  0  0  0  0  0  0  0
    2.1696    0.6627   -2.2030 H   0  0  0  0  0  0  0  0  0  0  0  0
   -0.2254    4.8029    1.0360 H   0  0  0  0  0  0  0  0  0  0  0  0
    2.1240    4.9645    0.1995 H   0  0  0  0  0  0  0  0  0  0  0  0
    3.2466    3.0187   -0.7703 H   0  0  0  0  0  0  0  0  0  0  0  0
  1  2  1  0
  2  3  1  0
  3  4  1  0
  4  5  1  0
  5  6  1  0
  6  7  1  0
  6  8  1  0
  8  9  2  0
  9 10  1  0
 10 11  2  0
 11 12  1  0
 12 13  2  0
 13 14  1  0
 14 15  1  0
 15 16  2  0
 16 17  1  0
 17 18  2  0
 18 19  1  0
 19 20  2  0
  7  2  1  0
 13  8  1  0
 20 15  1  0
 16  5  1  0
  1 21  1  0
  1 22  1  0
  1 23  1  0
  3 24  1  0
  3 25  1  0
  4 26  1  0
  4 27  1  0
  6 28  1  0
  7 29  1  0
  7 30  1  0
  9 31  1  0
 10 32  1  0
 11 33  1  0
 12 34  1  0
 14 35  1  0
 14 36  1  0
 18 37  1  0
 19 38  1  0
 20 39  1  0
M  END
$$$$
