
     RDKit          3D

 60 63  0  0  0  0  0  0  0  0999 V2000
    0.7451    1.0710   -0.2916 C   0  0  2  0  0  0  0  0  0  0  0  0
    1.1702    2.2595   -1.1265 C   0  0  0  0  0  0  0  0  0  0  0  0
    2.6179    1.9804   -1.3282 C   0  0  0  0  0  0  0  0  0  0  0  0
    2.8582    0.4893   -0.9665 C   0  0  2  0  0  0  0  0  0  0  0  0
    3.2830    0.5333    0.3579 O   0  0  0  0  0  0  0  0  0  0  0  0
    3.6860   -0.5258    1.1132 C   0  0  0  0  0  0  0  0  0  0  0  0
    4.0647   -0.1406    2.5076 C   0  0  0  0  0  0  0  0  0  0  0  0
    3.7495   -1.6991    0.7328 O   0  0  0  0  0  0  0  0  0  0  0  0
    3.8631   -0.0018   -1.9150 C   0  0  0  0  0  0  0  0  0  0  0  0
    5.2173   -0.3898   -1.4858 C   0  0  0  0  0  0  0  0  0  0  0  0
    3.7242   -0.1514   -3.1426 O   0  0  0  0  0  0  0  0  0  0  0  0
    1.4803   -0.0354   -1.0728 C   0  0  2  0  0  0  0  0  0  0  0  0
    0.9954    0.0634   -2.5083 C   0  0  0  0  0  0  0  0  0  0  0  0
    1.1115   -1.2961   -0.4122 C   0  0  0  0  0  0  0  0  0  0  0  0
   -0.3855   -1.5056   -0.7456 C   0  0  0  0  0  0  0  0  0  0  0  0
   -1.1137   -0.5094    0.0900 C   0  0  1  0  0  0  0  0  0  0  0  0
   -0.7212    0.8980   -0.2140 C   0  0  1  0  0  0  0  0  0  0  0  0
   -1.2021    1.7152    0.9464 C   0  0  0  0  0  0  0  0  0  0  0  0
   -2.3330    1.3505    1.5665 C   0  0  0  0  0  0  0  0  0  0  0  0
   -2.8867    2.1134    2.7384 C   0  0  0  0  0  0  0  0  0  0  0  0
   -3.1347    0.1904    1.1746 C   0  0  0  0  0  0  0  0  0  0  0  0
   -4.3013   -0.0838    1.7163 C   0  0  0  0  0  0  0  0  0  0  0  0
   -5.0365   -1.2478    1.2782 C   0  0  0  0  0  0  0  0  0  0  0  0
   -6.2906   -1.2760    1.3065 O   0  0  0  0  0  0  0  0  0  0  0  0
   -4.3135   -2.4363    0.7845 C   0  0  0  0  0  0  0  0  0  0  0  0
   -2.8778   -2.1584    0.4253 C   0  0  0  0  0  0  0  0  0  0  0  0
   -2.6041   -0.7209    0.1133 C   0  0  2  0  0  0  0  0  0  0  0  0
   -3.2621   -0.3501   -1.1855 C   0  0  0  0  0  0  0  0  0  0  0  0
    1.2096    1.2027    0.7090 H   0  0  0  0  0  0  0  0  0  0  0  0
    0.5914    2.3400   -2.0653 H   0  0  0  0  0  0  0  0  0  0  0  0
    1.0322    3.1732   -0.4925 H   0  0  0  0  0  0  0  0  0  0  0  0
    3.2187    2.6483   -0.6790 H   0  0  0  0  0  0  0  0  0  0  0  0
    2.9715    2.1726   -2.3557 H   0  0  0  0  0  0  0  0  0  0  0  0
    4.6025    0.8445    2.5286 H   0  0  0  0  0  0  0  0  0  0  0  0
    4.7074   -0.9276    2.9477 H   0  0  0  0  0  0  0  0  0  0  0  0
    3.1890   -0.0107    3.1467 H   0  0  0  0  0  0  0  0  0  0  0  0
    5.4313   -1.4494   -1.4239 H   0  0  0  0  0  0  0  0  0  0  0  0
    5.4906    0.0382   -0.4742 H   0  0  0  0  0  0  0  0  0  0  0  0
    5.9526    0.1384   -2.1628 H   0  0  0  0  0  0  0  0  0  0  0  0
   -0.0425    0.4572   -2.5445 H   0  0  0  0  0  0  0  0  0  0  0  0
    1.6163    0.8200   -3.0389 H   0  0  0  0  0  0  0  0  0  0  0  0
    1.0782   -0.9025   -3.0363 H   0  0  0  0  0  0  0  0  0  0  0  0
    1.5681   -2.2243   -0.7483 H   0  0  0  0  0  0  0  0  0  0  0  0
    1.1211   -1.1876    0.6939 H   0  0  0  0  0  0  0  0  0  0  0  0
   -0.4968   -1.3855   -1.8345 H   0  0  0  0  0  0  0  0  0  0  0  0
   -0.6313   -2.5316   -0.4052 H   0  0  0  0  0  0  0  0  0  0  0  0
   -0.7774   -0.6956    1.1529 H   0  0  0  0  0  0  0  0  0  0  0  0
   -1.2434    1.3230   -1.0947 H   0  0  0  0  0  0  0  0  0  0  0  0
   -0.7463    2.6037    1.3804 H   0  0  0  0  0  0  0  0  0  0  0  0
   -2.0695    2.7849    3.0788 H   0  0  0  0  0  0  0  0  0  0  0  0
   -3.7466    2.7184    2.3969 H   0  0  0  0  0  0  0  0  0  0  0  0
   -3.1135    1.4426    3.5757 H   0  0  0  0  0  0  0  0  0  0  0  0
   -4.7143    0.5586    2.4895 H   0  0  0  0  0  0  0  0  0  0  0  0
   -4.2730   -3.1883    1.6208 H   0  0  0  0  0  0  0  0  0  0  0  0
   -4.8768   -2.9012   -0.0665 H   0  0  0  0  0  0  0  0  0  0  0  0
   -2.6656   -2.7564   -0.4853 H   0  0  0  0  0  0  0  0  0  0  0  0
   -2.1537   -2.4875    1.2016 H   0  0  0  0  0  0  0  0  0  0  0  0
   -4.2013   -0.9498   -1.2410 H   0  0  0  0  0  0  0  0  0  0  0  0
   -3.5074    0.7319   -1.1620 H   0  0  0  0  0  0  0  0  0  0  0  0
   -2.6248   -0.5358   -2.0687 H   0  0  0  0  0  0  0  0  0  0  0  0
  1  2  1  0
  2  3  1  0
  3  4  1  0
  4  5  1  1
  5  6  1  0
  6  7  1  0
  6  8  2  0
  4  9  1  0
  9 10  1  0
  9 11  2  0
  4 12  1  0
 12 13  1  6
 12 14  1  0
 14 15  1  0
 15 16  1  0
 16 17  1  0
 17 18  1  0
 18 19  2  0
 19 20  1  0
 19 21  1  0
 21 22  2  0
 22 23  1  0
 23 24  2  0
 23 25  1  0
 25 26  1  0
 26 27  1  0
 27 28  1  6
 12  1  1  0
 27 16  1  0
 17  1  1  0
 27 21  1  0
  1 29  1  1
  2 30  1  0
  2 31  1  0
  3 32  1  0
  3 33  1  0
  7 34  1  0
  7 35  1  0
  7 36  1  0
 10 37  1  0
 10 38  1  0
 10 39  1  0
 13 40  1  0
 13 41  1  0
 13 42  1  0
 14 43  1  0
 14 44  1  0
 15 45  1  0
 15 46  1  0
 16 47  1  1
 17 48  1  6
 18 49  1  0
 20 50  1  0
 20 51  1  0
 20 52  1  0
 22 53  1  0
 25 54  1  0
 25 55  1  0
 26 56  1  0
 26 57  1  0
 28 58  1  0
 28 59  1  0
 28 60  1  0
M  END
$$$$
