
     RDKit          3D

 33 35  0  0  0  0  0  0  0  0999 V2000
    0.3358   -1.8884    0.4506 O   0  0  0  0  0  0  0  0  0  0  0  0
    0.2296   -0.6834    0.1972 C   0  0  0  0  0  0  0  0  0  0  0  0
   -1.1683   -0.1835    0.0758 C   0  0  0  0  0  0  0  0  0  0  0  0
   -2.2123   -0.9989    0.2338 C   0  0  0  0  0  0  0  0  0  0  0  0
   -3.5972   -0.6038    0.1345 C   0  0  0  0  0  0  0  0  0  0  0  0
   -4.0096    0.6768   -0.1385 C   0  0  0  0  0  0  0  0  0  0  0  0
   -5.3734    0.9908   -0.2206 C   0  0  0  0  0  0  0  0  0  0  0  0
   -6.3146    0.0079   -0.0263 C   0  0  0  0  0  0  0  0  0  0  0  0
   -5.8855   -1.2348    0.2389 N   0  0  0  0  0  0  0  0  0  0  0  0
   -4.5820   -1.5465    0.3198 C   0  0  0  0  0  0  0  0  0  0  0  0
    1.3136    0.2549    0.0139 C   0  0  0  0  0  0  0  0  0  0  0  0
    1.0785    1.5921   -0.2687 C   0  0  0  0  0  0  0  0  0  0  0  0
    2.1106    2.4822   -0.4425 C   0  0  0  0  0  0  0  0  0  0  0  0
    3.3979    2.0508   -0.3368 C   0  0  0  0  0  0  0  0  0  0  0  0
    3.6697    0.7221   -0.0555 C   0  0  0  0  0  0  0  0  0  0  0  0
    4.9832    0.3065    0.0473 C   0  0  0  0  0  0  0  0  0  0  0  0
    5.2684   -1.0082    0.3258 C   0  0  0  0  0  0  0  0  0  0  0  0
    4.2727   -1.9419    0.5092 C   0  0  0  0  0  0  0  0  0  0  0  0
    2.9563   -1.4797    0.3967 C   0  0  0  0  0  0  0  0  0  0  0  0
    2.6370   -0.1815    0.1212 C   0  0  0  0  0  0  0  0  0  0  0  0
   -1.4072    0.8274   -0.1386 H   0  0  0  0  0  0  0  0  0  0  0  0
   -1.9691   -2.0370    0.4539 H   0  0  0  0  0  0  0  0  0  0  0  0
   -3.2990    1.4597   -0.2937 H   0  0  0  0  0  0  0  0  0  0  0  0
   -5.7213    1.9920   -0.4343 H   0  0  0  0  0  0  0  0  0  0  0  0
   -7.3768    0.2588   -0.0916 H   0  0  0  0  0  0  0  0  0  0  0  0
   -4.2831   -2.5670    0.5370 H   0  0  0  0  0  0  0  0  0  0  0  0
    0.0589    1.9313   -0.3520 H   0  0  0  0  0  0  0  0  0  0  0  0
    1.8749    3.5330   -0.6653 H   0  0  0  0  0  0  0  0  0  0  0  0
    4.2203    2.7520   -0.4736 H   0  0  0  0  0  0  0  0  0  0  0  0
    5.7676    1.0489   -0.0986 H   0  0  0  0  0  0  0  0  0  0  0  0
    6.3076   -1.3135    0.4022 H   0  0  0  0  0  0  0  0  0  0  0  0
    4.4957   -2.9816    0.7295 H   0  0  0  0  0  0  0  0  0  0  0  0
    2.2209   -2.2375    0.5464 H   0  0  0  0  0  0  0  0  0  0  0  0
  1  2  2  0
  2  3  1  0
  3  4  2  0
  4  5  1  0
  5  6  2  0
  6  7  1  0
  7  8  2  0
  8  9  1  0
  9 10  2  0
  2 11  1  0
 11 12  2  0
 12 13  1  0
 13 14  2  0
 14 15  1  0
 15 16  2  0
 16 17  1  0
 17 18  2  0
 18 19  1  0
 19 20  2  0
 10  5  1  0
 20 11  1  0
 20 15  1  0
  3 21  1  0
  4 22  1  0
  6 23  1  0
  7 24  1  0
  8 25  1  0
 10 26  1  0
 12 27  1  0
 13 28  1  0
 14 29  1  0
 16 30  1  0
 17 31  1  0
 18 32  1  0
 19 33  1  0
M  END
$$$$
