
     RDKit          3D

 43 45  0  0  0  0  0  0  0  0999 V2000
   -1.3275    2.4954    0.2639 C   0  0  0  0  0  0  0  0  0  0  0  0
   -1.6602    1.0272    0.2255 C   0  0  0  0  0  0  0  0  0  0  0  0
   -2.5790    0.4422   -0.6317 C   0  0  0  0  0  0  0  0  0  0  0  0
   -3.4126    1.1425   -1.6679 C   0  0  0  0  0  0  0  0  0  0  0  0
   -4.5431    1.8555   -1.0438 C   0  0  0  0  0  0  0  0  0  0  0  0
   -4.7261    1.8275    0.2164 O   0  0  0  0  0  0  0  0  0  0  0  0
   -5.4534    2.5838   -1.7895 O   0  0  0  0  0  0  0  0  0  0  0  0
   -2.5759   -0.8934   -0.3422 C   0  0  0  0  0  0  0  0  0  0  0  0
   -3.2758   -1.9657   -0.8605 C   0  0  0  0  0  0  0  0  0  0  0  0
   -3.0457   -3.2242   -0.3437 C   0  0  0  0  0  0  0  0  0  0  0  0
   -2.1199   -3.3715    0.6786 C   0  0  0  0  0  0  0  0  0  0  0  0
   -1.4525   -2.3000    1.1622 N   0  0  0  0  0  0  0  0  0  0  0  0
   -1.6628   -1.0753    0.6736 C   0  0  0  0  0  0  0  0  0  0  0  0
   -1.1077    0.1026    1.0148 N   0  0  0  0  0  0  0  0  0  0  0  0
   -0.1091    0.3054    2.0413 C   0  0  0  0  0  0  0  0  0  0  0  0
    1.2665    0.1786    1.5061 C   0  0  0  0  0  0  0  0  0  0  0  0
    1.8839   -1.0547    1.4749 C   0  0  0  0  0  0  0  0  0  0  0  0
    3.1673   -1.2216    0.9858 C   0  0  0  0  0  0  0  0  0  0  0  0
    3.8841   -0.1487    0.5061 C   0  0  0  0  0  0  0  0  0  0  0  0
    5.5220   -0.3592   -0.1200 S   0  0  0  0  0  6  0  0  0  0  0  0
    5.3813   -0.6894   -1.8655 C   0  0  0  0  0  0  0  0  0  0  0  0
    6.3159    0.9127    0.0206 O   0  0  0  0  0  0  0  0  0  0  0  0
    6.2333   -1.4788    0.5802 O   0  0  0  0  0  0  0  0  0  0  0  0
    3.2828    1.0897    0.5299 C   0  0  0  0  0  0  0  0  0  0  0  0
    1.9844    1.2513    1.0261 C   0  0  0  0  0  0  0  0  0  0  0  0
   -0.6798    2.7014   -0.6294 H   0  0  0  0  0  0  0  0  0  0  0  0
   -2.2762    3.0586    0.2050 H   0  0  0  0  0  0  0  0  0  0  0  0
   -0.7851    2.7408    1.1874 H   0  0  0  0  0  0  0  0  0  0  0  0
   -2.7358    1.8485   -2.1805 H   0  0  0  0  0  0  0  0  0  0  0  0
   -3.8085    0.3780   -2.3662 H   0  0  0  0  0  0  0  0  0  0  0  0
   -5.8580    3.4440   -1.4236 H   0  0  0  0  0  0  0  0  0  0  0  0
   -4.0074   -1.8330   -1.6714 H   0  0  0  0  0  0  0  0  0  0  0  0
   -3.5906   -4.0897   -0.7407 H   0  0  0  0  0  0  0  0  0  0  0  0
   -1.9724   -4.3801    1.0533 H   0  0  0  0  0  0  0  0  0  0  0  0
   -0.2550    1.2882    2.5666 H   0  0  0  0  0  0  0  0  0  0  0  0
   -0.2752   -0.4686    2.8445 H   0  0  0  0  0  0  0  0  0  0  0  0
    1.3128   -1.8961    1.8546 H   0  0  0  0  0  0  0  0  0  0  0  0
    3.6554   -2.1790    0.9572 H   0  0  0  0  0  0  0  0  0  0  0  0
    4.7396   -1.5896   -1.9777 H   0  0  0  0  0  0  0  0  0  0  0  0
    4.8703    0.1877   -2.3182 H   0  0  0  0  0  0  0  0  0  0  0  0
    6.3964   -0.8134   -2.2803 H   0  0  0  0  0  0  0  0  0  0  0  0
    3.8458    1.9331    0.1524 H   0  0  0  0  0  0  0  0  0  0  0  0
    1.5537    2.2374    1.0260 H   0  0  0  0  0  0  0  0  0  0  0  0
  1  2  1  0
  2  3  2  0
  3  4  1  0
  4  5  1  0
  5  6  2  0
  5  7  1  0
  3  8  1  0
  8  9  2  0
  9 10  1  0
 10 11  2  0
 11 12  1  0
 12 13  2  0
 13 14  1  0
 14 15  1  0
 15 16  1  0
 16 17  2  0
 17 18  1  0
 18 19  2  0
 19 20  1  0
 20 21  1  0
 20 22  2  0
 20 23  2  0
 19 24  1  0
 24 25  2  0
 14  2  1  0
 25 16  1  0
 13  8  1  0
  1 26  1  0
  1 27  1  0
  1 28  1  0
  4 29  1  0
  4 30  1  0
  7 31  1  0
  9 32  1  0
 10 33  1  0
 11 34  1  0
 15 35  1  0
 15 36  1  0
 17 37  1  0
 18 38  1  0
 21 39  1  0
 21 40  1  0
 21 41  1  0
 24 42  1  0
 25 43  1  0
M  END
$$$$
