
     RDKit          3D

 68 70  0  0  0  0  0  0  0  0999 V2000
   -0.2048    4.0556   -3.0911 C   0  0  0  0  0  0  0  0  0  0  0  0
   -0.8185    2.6761   -3.1377 C   0  0  0  0  0  0  0  0  0  0  0  0
   -0.5546    2.0659   -1.7267 C   0  0  0  0  0  0  0  0  0  0  0  0
   -1.1462    0.7152   -1.7465 C   0  0  0  0  0  0  0  0  0  0  0  0
   -1.1191   -0.0910   -0.5665 N   0  0  0  0  0  0  0  0  0  0  0  0
   -2.2003    0.1699    0.3717 C   0  0  0  0  0  0  0  0  0  0  0  0
   -2.0229    1.1229    1.3451 C   0  0  0  0  0  0  0  0  0  0  0  0
   -3.0572    1.3645    2.2362 C   0  0  0  0  0  0  0  0  0  0  0  0
   -4.2454    0.6407    2.1254 C   0  0  0  0  0  0  0  0  0  0  0  0
   -4.4311   -0.3182    1.1496 C   0  0  0  0  0  0  0  0  0  0  0  0
   -5.6737   -1.0667    1.0171 C   0  0  0  0  0  0  0  0  0  0  0  0
   -6.3591   -1.2049   -0.1469 C   0  0  0  0  0  0  0  0  0  0  0  0
   -7.5274   -1.9315   -0.2055 C   0  0  0  0  0  0  0  0  0  0  0  0
   -8.0087   -2.5294    0.9426 C   0  0  0  0  0  0  0  0  0  0  0  0
   -9.4980   -3.4599    0.8829 Cl  0  0  0  0  0  0  0  0  0  0  0  0
   -7.3467   -2.4160    2.1464 C   0  0  0  0  0  0  0  0  0  0  0  0
   -6.1964   -1.6895    2.1598 C   0  0  0  0  0  0  0  0  0  0  0  0
   -3.3957   -0.5451    0.2755 C   0  0  0  0  0  0  0  0  0  0  0  0
   -3.5812   -1.5794   -0.7648 C   0  0  0  0  0  0  0  0  0  0  0  0
    0.0665   -1.2544   -0.2421 S   0  0  0  0  0  6  0  0  0  0  0  0
    0.0921   -2.1962   -1.4584 O   0  0  0  0  0  0  0  0  0  0  0  0
   -0.3495   -2.1762    0.9009 O   0  0  0  0  0  0  0  0  0  0  0  0
    1.6882   -0.7173   -0.0401 C   0  0  0  0  0  0  0  0  0  0  0  0
    2.0831    0.5648    0.1982 C   0  0  0  0  0  0  0  0  0  0  0  0
    3.4049    0.9115    0.4085 C   0  0  0  0  0  0  0  0  0  0  0  0
    4.3815   -0.0312    0.3869 C   0  0  0  0  0  0  0  0  0  0  0  0
    5.6926    0.2813    0.5906 O   0  0  0  0  0  0  0  0  0  0  0  0
    6.3128    1.4830    0.8423 C   0  0  2  0  0  0  0  0  0  0  0  0
    7.3168    1.8844   -0.2222 C   0  0  0  0  0  0  0  0  0  0  0  0
    6.9879    1.5203    2.1840 C   0  0  0  0  0  0  0  0  0  0  0  0
    7.6016    2.5384    2.5741 O   0  0  0  0  0  0  0  0  0  0  0  0
    6.9258    0.4044    2.9984 O   0  0  0  0  0  0  0  0  0  0  0  0
    4.0190   -1.3402    0.1501 C   0  0  0  0  0  0  0  0  0  0  0  0
    5.1037   -2.3632    0.1304 C   0  0  0  0  0  0  0  0  0  0  0  0
    2.6988   -1.6749   -0.0590 C   0  0  0  0  0  0  0  0  0  0  0  0
    2.3551   -3.0940   -0.3103 C   0  0  0  0  0  0  0  0  0  0  0  0
    0.7435    4.0952   -2.5314 H   0  0  0  0  0  0  0  0  0  0  0  0
   -0.9422    4.7109   -2.5424 H   0  0  0  0  0  0  0  0  0  0  0  0
   -0.1340    4.5125   -4.1081 H   0  0  0  0  0  0  0  0  0  0  0  0
   -0.3247    2.0514   -3.8942 H   0  0  0  0  0  0  0  0  0  0  0  0
   -1.8983    2.7775   -3.2396 H   0  0  0  0  0  0  0  0  0  0  0  0
    0.5797    2.0735   -1.7187 H   0  0  0  0  0  0  0  0  0  0  0  0
   -0.9945    2.7884   -1.0275 H   0  0  0  0  0  0  0  0  0  0  0  0
   -0.7166    0.1629   -2.6327 H   0  0  0  0  0  0  0  0  0  0  0  0
   -2.2433    0.8440   -2.0258 H   0  0  0  0  0  0  0  0  0  0  0  0
   -1.0951    1.6629    1.4027 H   0  0  0  0  0  0  0  0  0  0  0  0
   -2.9181    2.1020    2.9889 H   0  0  0  0  0  0  0  0  0  0  0  0
   -5.0498    0.8362    2.8277 H   0  0  0  0  0  0  0  0  0  0  0  0
   -5.9425   -0.7132   -1.0221 H   0  0  0  0  0  0  0  0  0  0  0  0
   -8.0361   -2.0114   -1.1591 H   0  0  0  0  0  0  0  0  0  0  0  0
   -7.7684   -2.9064    3.0211 H   0  0  0  0  0  0  0  0  0  0  0  0
   -5.6672   -1.5981    3.1191 H   0  0  0  0  0  0  0  0  0  0  0  0
   -2.5679   -2.0774   -0.8921 H   0  0  0  0  0  0  0  0  0  0  0  0
   -3.7329   -1.1249   -1.7879 H   0  0  0  0  0  0  0  0  0  0  0  0
   -4.2732   -2.3788   -0.5186 H   0  0  0  0  0  0  0  0  0  0  0  0
    1.3529    1.3310    0.2582 H   0  0  0  0  0  0  0  0  0  0  0  0
    3.6379    1.9388    0.5882 H   0  0  0  0  0  0  0  0  0  0  0  0
    5.5718    2.3017    0.8760 H   0  0  0  0  0  0  0  0  0  0  0  0
    7.3030    2.9658   -0.4057 H   0  0  0  0  0  0  0  0  0  0  0  0
    7.1809    1.2885   -1.1597 H   0  0  0  0  0  0  0  0  0  0  0  0
    8.3244    1.6284    0.1662 H   0  0  0  0  0  0  0  0  0  0  0  0
    7.5337    0.2981    3.8033 H   0  0  0  0  0  0  0  0  0  0  0  0
    5.0581   -2.9893   -0.7827 H   0  0  0  0  0  0  0  0  0  0  0  0
    5.0101   -2.9431    1.0585 H   0  0  0  0  0  0  0  0  0  0  0  0
    6.0956   -1.8777    0.1218 H   0  0  0  0  0  0  0  0  0  0  0  0
    1.5368   -3.4343    0.3563 H   0  0  0  0  0  0  0  0  0  0  0  0
    3.2274   -3.7484   -0.0523 H   0  0  0  0  0  0  0  0  0  0  0  0
    2.1553   -3.2864   -1.3863 H   0  0  0  0  0  0  0  0  0  0  0  0
  1  2  1  0
  2  3  1  0
  3  4  1  0
  4  5  1  0
  5  6  1  0
  6  7  2  0
  7  8  1  0
  8  9  2  0
  9 10  1  0
 10 11  1  0
 11 12  2  0
 12 13  1  0
 13 14  2  0
 14 15  1  0
 14 16  1  0
 16 17  2  0
 10 18  2  0
 18 19  1  0
  5 20  1  0
 20 21  2  0
 20 22  2  0
 20 23  1  0
 23 24  2  0
 24 25  1  0
 25 26  2  0
 26 27  1  0
 27 28  1  0
 28 29  1  0
 28 30  1  0
 30 31  2  0
 30 32  1  0
 26 33  1  0
 33 34  1  0
 33 35  2  0
 35 36  1  0
 18  6  1  0
 35 23  1  0
 17 11  1  0
  1 37  1  0
  1 38  1  0
  1 39  1  0
  2 40  1  0
  2 41  1  0
  3 42  1  0
  3 43  1  0
  4 44  1  0
  4 45  1  0
  7 46  1  0
  8 47  1  0
  9 48  1  0
 12 49  1  0
 13 50  1  0
 16 51  1  0
 17 52  1  0
 19 53  1  0
 19 54  1  0
 19 55  1  0
 24 56  1  0
 25 57  1  0
 28 58  1  1
 29 59  1  0
 29 60  1  0
 29 61  1  0
 32 62  1  0
 34 63  1  0
 34 64  1  0
 34 65  1  0
 36 66  1  0
 36 67  1  0
 36 68  1  0
M  END
$$$$
