
     RDKit          3D

 60 64  0  0  0  0  0  0  0  0999 V2000
    0.3594    4.4498    0.8137 C   0  0  0  0  0  0  0  0  0  0  0  0
   -0.6738    3.3750    0.7633 C   0  0  0  0  0  0  0  0  0  0  0  0
   -1.3854    3.0529    1.9032 C   0  0  0  0  0  0  0  0  0  0  0  0
   -2.3519    2.0690    1.9166 C   0  0  0  0  0  0  0  0  0  0  0  0
   -2.6242    1.3747    0.7483 C   0  0  0  0  0  0  0  0  0  0  0  0
   -3.6066    0.3490    0.6903 N   0  0  0  0  0  0  0  0  0  0  0  0
   -3.4257   -0.8858    1.1368 N   0  0  0  0  0  0  0  0  0  0  0  0
   -4.5171   -1.6252    0.9500 C   0  0  0  0  0  0  0  0  0  0  0  0
   -5.4493   -0.8108    0.3477 C   0  0  0  0  0  0  0  0  0  0  0  0
   -4.8383    0.3895    0.2116 N   0  0  0  0  0  0  0  0  0  0  0  0
   -1.9075    1.6959   -0.4086 C   0  0  0  0  0  0  0  0  0  0  0  0
   -2.2376    0.9416   -1.6079 C   0  0  0  0  0  0  0  0  0  0  0  0
   -3.1156    1.3115   -2.4352 O   0  0  0  0  0  0  0  0  0  0  0  0
   -1.5465   -0.2640   -1.8629 N   0  0  0  0  0  0  0  0  0  0  0  0
   -1.8159   -1.0941   -3.0441 C   0  0  0  0  0  0  0  0  0  0  0  0
   -2.2320   -2.4869   -2.5883 C   0  0  1  0  0  0  0  0  0  0  0  0
   -1.5653   -3.5824   -3.3489 C   0  0  0  0  0  0  0  0  0  0  0  0
   -1.9183   -2.6526   -1.2238 O   0  0  0  0  0  0  0  0  0  0  0  0
   -0.5874   -2.3085   -1.0835 C   0  0  0  0  0  0  0  0  0  0  0  0
   -0.5266   -0.7767   -0.9747 C   0  0  1  0  0  0  0  0  0  0  0  0
    0.8264   -0.3278   -1.4509 C   0  0  0  0  0  0  0  0  0  0  0  0
    1.9451   -0.7978   -0.5965 C   0  0  0  0  0  0  0  0  0  0  0  0
    2.5743   -1.9829   -0.8825 C   0  0  0  0  0  0  0  0  0  0  0  0
    3.6080   -2.4005   -0.0715 C   0  0  0  0  0  0  0  0  0  0  0  0
    4.0038   -1.6464    1.0044 C   0  0  0  0  0  0  0  0  0  0  0  0
    3.3891   -0.4546    1.3120 C   0  0  0  0  0  0  0  0  0  0  0  0
    3.8048    0.3521    2.4542 C   0  0  0  0  0  0  0  0  0  0  0  0
    4.7980   -0.0377    3.2429 N   0  0  0  0  0  0  0  0  0  0  0  0
    5.2048    0.6998    4.3170 C   0  0  0  0  0  0  0  0  0  0  0  0
    4.5744    1.8876    4.6036 C   0  0  0  0  0  0  0  0  0  0  0  0
    3.5420    2.2818    3.7745 C   0  0  0  0  0  0  0  0  0  0  0  0
    3.1717    1.5088    2.7116 N   0  0  0  0  0  0  0  0  0  0  0  0
    2.3593   -0.0545    0.4908 C   0  0  0  0  0  0  0  0  0  0  0  0
   -0.9449    2.6844   -0.3977 C   0  0  0  0  0  0  0  0  0  0  0  0
    0.0368    5.1647    1.5795 H   0  0  0  0  0  0  0  0  0  0  0  0
    1.3691    4.0437    0.9805 H   0  0  0  0  0  0  0  0  0  0  0  0
    0.2928    4.9784   -0.1740 H   0  0  0  0  0  0  0  0  0  0  0  0
   -1.1609    3.6025    2.8024 H   0  0  0  0  0  0  0  0  0  0  0  0
   -2.8968    1.8349    2.8251 H   0  0  0  0  0  0  0  0  0  0  0  0
   -4.6781   -2.6594    1.2056 H   0  0  0  0  0  0  0  0  0  0  0  0
   -6.4353   -1.1219    0.0696 H   0  0  0  0  0  0  0  0  0  0  0  0
   -0.8439   -1.2116   -3.5628 H   0  0  0  0  0  0  0  0  0  0  0  0
   -2.5519   -0.6570   -3.7173 H   0  0  0  0  0  0  0  0  0  0  0  0
   -3.3345   -2.5831   -2.6615 H   0  0  0  0  0  0  0  0  0  0  0  0
   -2.2106   -4.0341   -4.1311 H   0  0  0  0  0  0  0  0  0  0  0  0
   -0.6261   -3.2846   -3.8582 H   0  0  0  0  0  0  0  0  0  0  0  0
   -1.3081   -4.4105   -2.6582 H   0  0  0  0  0  0  0  0  0  0  0  0
   -0.1616   -2.7566   -0.1818 H   0  0  0  0  0  0  0  0  0  0  0  0
   -0.0731   -2.5993   -2.0222 H   0  0  0  0  0  0  0  0  0  0  0  0
   -0.7218   -0.5448    0.0751 H   0  0  0  0  0  0  0  0  0  0  0  0
    1.0004   -0.7604   -2.4712 H   0  0  0  0  0  0  0  0  0  0  0  0
    0.8508    0.7610   -1.5518 H   0  0  0  0  0  0  0  0  0  0  0  0
    2.2796   -2.6020   -1.7379 H   0  0  0  0  0  0  0  0  0  0  0  0
    4.1272   -3.3436   -0.2781 H   0  0  0  0  0  0  0  0  0  0  0  0
    4.8241   -1.9546    1.6676 H   0  0  0  0  0  0  0  0  0  0  0  0
    6.0034    0.3757    4.9424 H   0  0  0  0  0  0  0  0  0  0  0  0
    4.8624    2.5127    5.4502 H   0  0  0  0  0  0  0  0  0  0  0  0
    3.0283    3.2156    3.9795 H   0  0  0  0  0  0  0  0  0  0  0  0
    1.8480    0.8963    0.7128 H   0  0  0  0  0  0  0  0  0  0  0  0
   -0.4113    2.9037   -1.3154 H   0  0  0  0  0  0  0  0  0  0  0  0
  1  2  1  0
  2  3  2  0
  3  4  1  0
  4  5  2  0
  5  6  1  0
  6  7  1  0
  7  8  2  0
  8  9  1  0
  9 10  2  0
  5 11  1  0
 11 12  1  0
 12 13  2  0
 12 14  1  0
 14 15  1  0
 15 16  1  0
 16 17  1  0
 16 18  1  0
 18 19  1  0
 19 20  1  0
 20 21  1  0
 21 22  1  0
 22 23  2  0
 23 24  1  0
 24 25  2  0
 25 26  1  0
 26 27  1  0
 27 28  2  0
 28 29  1  0
 29 30  2  0
 30 31  1  0
 31 32  2  0
 26 33  2  0
 11 34  2  0
 34  2  1  0
 10  6  1  0
 20 14  1  0
 33 22  1  0
 32 27  1  0
  1 35  1  0
  1 36  1  0
  1 37  1  0
  3 38  1  0
  4 39  1  0
  8 40  1  0
  9 41  1  0
 15 42  1  0
 15 43  1  0
 16 44  1  1
 17 45  1  0
 17 46  1  0
 17 47  1  0
 19 48  1  0
 19 49  1  0
 20 50  1  1
 21 51  1  0
 21 52  1  0
 23 53  1  0
 24 54  1  0
 25 55  1  0
 29 56  1  0
 30 57  1  0
 31 58  1  0
 33 59  1  0
 34 60  1  0
M  END
$$$$
