
     RDKit          3D

 26 28  0  0  0  0  0  0  0  0999 V2000
    3.4240    1.7882   -0.7195 C   0  0  0  0  0  0  0  0  0  0  0  0
    2.7936    0.4802   -0.3332 C   0  0  0  0  0  0  0  0  0  0  0  0
    3.5576   -0.6016   -0.1076 N   0  0  0  0  0  0  0  0  0  0  0  0
    2.9935   -1.7729    0.2384 C   0  0  0  0  0  0  0  0  0  0  0  0
    1.6293   -1.9227    0.3771 C   0  0  0  0  0  0  0  0  0  0  0  0
    0.8371   -0.7915    0.1408 C   0  0  0  0  0  0  0  0  0  0  0  0
   -0.6120   -0.8697    0.2672 C   0  0  0  0  0  0  0  0  0  0  0  0
   -1.3681   -1.9664    0.6079 C   0  0  0  0  0  0  0  0  0  0  0  0
   -2.6789   -1.6038    0.6095 N   0  0  0  0  0  0  0  0  0  0  0  0
   -2.7997   -0.3058    0.2806 C   0  0  0  0  0  0  0  0  0  0  0  0
   -3.9016    0.5052    0.1503 C   0  0  0  0  0  0  0  0  0  0  0  0
   -3.7091    1.7885   -0.1977 N   0  0  0  0  0  0  0  0  0  0  0  0
   -2.4499    2.2669   -0.4144 C   0  0  0  0  0  0  0  0  0  0  0  0
   -1.3303    1.4752   -0.2903 C   0  0  0  0  0  0  0  0  0  0  0  0
   -1.4983    0.1566    0.0651 C   0  0  0  0  0  0  0  0  0  0  0  0
    1.4744    0.3398   -0.2001 N   0  0  0  0  0  0  0  0  0  0  0  0
    4.0442    2.1822    0.1274 H   0  0  0  0  0  0  0  0  0  0  0  0
    4.0955    1.6540   -1.5780 H   0  0  0  0  0  0  0  0  0  0  0  0
    2.6035    2.5060   -0.8975 H   0  0  0  0  0  0  0  0  0  0  0  0
    3.6686   -2.6013    0.4045 H   0  0  0  0  0  0  0  0  0  0  0  0
    1.1786   -2.8496    0.6513 H   0  0  0  0  0  0  0  0  0  0  0  0
   -0.9482   -2.9401    0.8305 H   0  0  0  0  0  0  0  0  0  0  0  0
   -3.4677   -2.2503    0.8354 H   0  0  0  0  0  0  0  0  0  0  0  0
   -4.9204    0.1845    0.3083 H   0  0  0  0  0  0  0  0  0  0  0  0
   -2.2854    3.3016   -0.6956 H   0  0  0  0  0  0  0  0  0  0  0  0
   -0.3304    1.8469   -0.4602 H   0  0  0  0  0  0  0  0  0  0  0  0
  1  2  1  0
  2  3  2  0
  3  4  1  0
  4  5  2  0
  5  6  1  0
  6  7  1  0
  7  8  2  0
  8  9  1  0
  9 10  1  0
 10 11  2  0
 11 12  1  0
 12 13  2  0
 13 14  1  0
 14 15  2  0
  6 16  2  0
 16  2  1  0
 15  7  1  0
 15 10  1  0
  1 17  1  0
  1 18  1  0
  1 19  1  0
  4 20  1  0
  5 21  1  0
  8 22  1  0
  9 23  1  0
 11 24  1  0
 13 25  1  0
 14 26  1  0
M  END
$$$$
