
     RDKit          3D

 51 55  0  0  0  0  0  0  0  0999 V2000
   -6.0798   -1.2821    1.9546 C   0  0  0  0  0  0  0  0  0  0  0  0
   -5.9264    0.1194    1.4085 C   0  0  2  0  0  0  0  0  0  0  0  0
   -7.2507    0.7375    1.0473 C   0  0  0  0  0  0  0  0  0  0  0  0
   -7.7732    0.1104   -0.1394 N   0  0  0  0  0  0  0  0  0  0  0  0
   -6.8933    0.0927   -1.2717 C   0  0  0  0  0  0  0  0  0  0  0  0
   -7.2933    0.0766   -2.4505 O   0  0  0  0  0  0  0  0  0  0  0  0
   -5.4573    0.0939   -0.9900 C   0  0  0  0  0  0  0  0  0  0  0  0
   -4.3428    0.0853   -1.8036 C   0  0  0  0  0  0  0  0  0  0  0  0
   -3.1942    0.0966   -1.0406 C   0  0  0  0  0  0  0  0  0  0  0  0
   -1.8416    0.0952   -1.3175 C   0  0  0  0  0  0  0  0  0  0  0  0
   -0.8790    0.1090   -0.3299 C   0  0  0  0  0  0  0  0  0  0  0  0
    0.5193    0.1073   -0.6360 N   0  0  0  0  0  0  0  0  0  0  0  0
    1.2628    1.3038   -0.8141 C   0  0  0  0  0  0  0  0  0  0  0  0
    0.6546    2.3940   -0.6950 O   0  0  0  0  0  0  0  0  0  0  0  0
    2.6779    1.2081   -1.1226 C   0  0  0  0  0  0  0  0  0  0  0  0
    3.5171    2.2837   -1.3200 C   0  0  0  0  0  0  0  0  0  0  0  0
    4.7438    1.7954   -1.5823 N   0  0  0  0  0  0  0  0  0  0  0  0
    4.7451    0.4752   -1.5657 N   0  0  0  0  0  0  0  0  0  0  0  0
    5.8939   -0.4107   -1.8059 C   0  0  0  0  0  0  0  0  0  0  0  0
    6.5210   -0.6416   -0.4813 C   0  0  0  0  0  0  0  0  0  0  0  0
    7.5125    0.2555   -0.1009 C   0  0  0  0  0  0  0  0  0  0  0  0
    8.1396    0.1089    1.1094 C   0  0  0  0  0  0  0  0  0  0  0  0
    7.7676   -0.9366    1.9293 C   0  0  0  0  0  0  0  0  0  0  0  0
    6.7790   -1.8234    1.5396 C   0  0  0  0  0  0  0  0  0  0  0  0
    6.1399   -1.6866    0.3234 C   0  0  0  0  0  0  0  0  0  0  0  0
    3.4832    0.1053   -1.2848 C   0  0  0  0  0  0  0  0  0  0  0  0
   -1.3220    0.1247    0.9762 C   0  0  0  0  0  0  0  0  0  0  0  0
   -2.6728    0.1261    1.2549 C   0  0  0  0  0  0  0  0  0  0  0  0
   -3.6349    0.1123    0.2663 C   0  0  0  0  0  0  0  0  0  0  0  0
   -5.0020    0.1105    0.2908 N   0  0  0  0  0  0  0  0  0  0  0  0
   -7.1675   -1.4840    2.0222 H   0  0  0  0  0  0  0  0  0  0  0  0
   -5.6525   -2.0042    1.2254 H   0  0  0  0  0  0  0  0  0  0  0  0
   -5.5442   -1.4206    2.9058 H   0  0  0  0  0  0  0  0  0  0  0  0
   -5.4930    0.7506    2.2298 H   0  0  0  0  0  0  0  0  0  0  0  0
   -7.9172    0.6756    1.9093 H   0  0  0  0  0  0  0  0  0  0  0  0
   -7.0657    1.8166    0.8546 H   0  0  0  0  0  0  0  0  0  0  0  0
   -8.7145   -0.3194   -0.2393 H   0  0  0  0  0  0  0  0  0  0  0  0
   -4.3795    0.0717   -2.8826 H   0  0  0  0  0  0  0  0  0  0  0  0
   -1.4982    0.0829   -2.3401 H   0  0  0  0  0  0  0  0  0  0  0  0
    0.9896   -0.8102   -0.7272 H   0  0  0  0  0  0  0  0  0  0  0  0
    3.2417    3.3343   -1.2732 H   0  0  0  0  0  0  0  0  0  0  0  0
    6.5711    0.0865   -2.5147 H   0  0  0  0  0  0  0  0  0  0  0  0
    5.4719   -1.3589   -2.1880 H   0  0  0  0  0  0  0  0  0  0  0  0
    7.8177    1.0800   -0.7283 H   0  0  0  0  0  0  0  0  0  0  0  0
    8.9190    0.8252    1.3933 H   0  0  0  0  0  0  0  0  0  0  0  0
    8.2718   -1.0377    2.8795 H   0  0  0  0  0  0  0  0  0  0  0  0
    6.5031   -2.6345    2.1960 H   0  0  0  0  0  0  0  0  0  0  0  0
    5.3674   -2.3604   -0.0073 H   0  0  0  0  0  0  0  0  0  0  0  0
    3.1094   -0.9139   -1.1900 H   0  0  0  0  0  0  0  0  0  0  0  0
   -0.5817    0.1357    1.7662 H   0  0  0  0  0  0  0  0  0  0  0  0
   -3.0426    0.1385    2.2842 H   0  0  0  0  0  0  0  0  0  0  0  0
  1  2  1  0
  2  3  1  0
  3  4  1  0
  4  5  1  0
  5  6  2  0
  5  7  1  0
  7  8  2  0
  8  9  1  0
  9 10  2  0
 10 11  1  0
 11 12  1  0
 12 13  1  0
 13 14  2  0
 13 15  1  0
 15 16  1  0
 16 17  2  0
 17 18  1  0
 18 19  1  0
 19 20  1  0
 20 21  2  0
 21 22  1  0
 22 23  2  0
 23 24  1  0
 24 25  2  0
 18 26  1  0
 11 27  2  0
 27 28  1  0
 28 29  2  0
 29 30  1  0
 30  2  1  0
 30  7  1  0
 29  9  1  0
 26 15  2  0
 25 20  1  0
  1 31  1  0
  1 32  1  0
  1 33  1  0
  2 34  1  1
  3 35  1  0
  3 36  1  0
  4 37  1  0
  8 38  1  0
 10 39  1  0
 12 40  1  0
 16 41  1  0
 19 42  1  0
 19 43  1  0
 21 44  1  0
 22 45  1  0
 23 46  1  0
 24 47  1  0
 25 48  1  0
 26 49  1  0
 27 50  1  0
 28 51  1  0
M  END
$$$$
