
     RDKit          3D

 52 55  0  0  0  0  0  0  0  0999 V2000
   -2.2421   -2.0507    2.0011 C   0  0  0  0  0  0  0  0  0  0  0  0
   -1.6648   -0.6835    1.7486 C   0  0  0  0  0  0  0  0  0  0  0  0
   -2.4245    0.4603    1.5676 C   0  0  0  0  0  0  0  0  0  0  0  0
   -3.8150    0.4746    1.5826 O   0  0  0  0  0  0  0  0  0  0  0  0
   -4.5500    0.2801    0.4031 C   0  0  0  0  0  0  0  0  0  0  0  0
   -3.9114    0.0658   -0.8006 C   0  0  0  0  0  0  0  0  0  0  0  0
   -4.6352   -0.1271   -1.9702 C   0  0  0  0  0  0  0  0  0  0  0  0
   -6.0064   -0.1025   -1.9178 C   0  0  0  0  0  0  0  0  0  0  0  0
   -6.9329   -0.3460   -3.3917 Cl  0  0  0  0  0  0  0  0  0  0  0  0
   -6.6381    0.1111   -0.7174 C   0  0  0  0  0  0  0  0  0  0  0  0
   -5.9238    0.3012    0.4354 C   0  0  0  0  0  0  0  0  0  0  0  0
   -1.5859    1.5327    1.3787 C   0  0  0  0  0  0  0  0  0  0  0  0
   -1.8180    2.8743    1.1584 C   0  0  0  0  0  0  0  0  0  0  0  0
   -0.7542    3.7340    1.0020 C   0  0  0  0  0  0  0  0  0  0  0  0
    0.5183    3.1749    1.0789 C   0  0  0  0  0  0  0  0  0  0  0  0
    0.7341    1.8814    1.2915 N   0  0  0  0  0  0  0  0  0  0  0  0
   -0.3147    1.0181    1.4484 C   0  0  0  0  0  0  0  0  0  0  0  0
   -0.3816   -0.3238    1.6721 N   0  0  0  0  0  0  0  0  0  0  0  0
    0.7941   -1.1155    1.8120 C   0  0  0  0  0  0  0  0  0  0  0  0
    1.3960   -1.6305    0.5796 C   0  0  0  0  0  0  0  0  0  0  0  0
    2.5203   -0.9458    0.0938 C   0  0  0  0  0  0  0  0  0  0  0  0
    3.1961   -1.2771   -1.0368 C   0  0  0  0  0  0  0  0  0  0  0  0
    4.3011   -0.6496   -1.5659 O   0  0  0  0  0  0  0  0  0  0  0  0
    4.9010    0.4671   -0.9762 C   0  0  1  0  0  0  0  0  0  0  0  0
    6.3604    0.1790   -0.6086 C   0  0  0  0  0  0  0  0  0  0  0  0
    4.8440    1.6099   -1.9249 C   0  0  0  0  0  0  0  0  0  0  0  0
    4.3138    1.4557   -3.0386 O   0  0  0  0  0  0  0  0  0  0  0  0
    5.3895    2.8165   -1.5289 O   0  0  0  0  0  0  0  0  0  0  0  0
    2.7389   -2.3751   -1.7645 C   0  0  0  0  0  0  0  0  0  0  0  0
    1.6500   -3.0721   -1.3317 C   0  0  0  0  0  0  0  0  0  0  0  0
    0.9767   -2.7013   -0.1589 C   0  0  0  0  0  0  0  0  0  0  0  0
   -0.0755   -3.4143    0.2347 F   0  0  0  0  0  0  0  0  0  0  0  0
   -1.4891   -2.7204    2.4617 H   0  0  0  0  0  0  0  0  0  0  0  0
   -2.7091   -2.4610    1.0987 H   0  0  0  0  0  0  0  0  0  0  0  0
   -3.0401   -1.9109    2.7760 H   0  0  0  0  0  0  0  0  0  0  0  0
   -2.8331    0.0487   -0.8288 H   0  0  0  0  0  0  0  0  0  0  0  0
   -4.1332   -0.2963   -2.9207 H   0  0  0  0  0  0  0  0  0  0  0  0
   -7.7297    0.1191   -0.7431 H   0  0  0  0  0  0  0  0  0  0  0  0
   -6.4195    0.4660    1.3604 H   0  0  0  0  0  0  0  0  0  0  0  0
   -2.8147    3.2741    1.1044 H   0  0  0  0  0  0  0  0  0  0  0  0
   -0.8768    4.8010    0.8259 H   0  0  0  0  0  0  0  0  0  0  0  0
    1.3665    3.8496    0.9558 H   0  0  0  0  0  0  0  0  0  0  0  0
    0.5606   -2.0181    2.4517 H   0  0  0  0  0  0  0  0  0  0  0  0
    1.5630   -0.5636    2.4298 H   0  0  0  0  0  0  0  0  0  0  0  0
    2.8690   -0.0970    0.6622 H   0  0  0  0  0  0  0  0  0  0  0  0
    4.4389    0.8276   -0.0448 H   0  0  0  0  0  0  0  0  0  0  0  0
    6.9986    0.4174   -1.4858 H   0  0  0  0  0  0  0  0  0  0  0  0
    6.4405   -0.8853   -0.2933 H   0  0  0  0  0  0  0  0  0  0  0  0
    6.6963    0.8244    0.2290 H   0  0  0  0  0  0  0  0  0  0  0  0
    5.5886    3.5656   -2.1952 H   0  0  0  0  0  0  0  0  0  0  0  0
    3.2527   -2.6797   -2.6839 H   0  0  0  0  0  0  0  0  0  0  0  0
    1.3106   -3.9262   -1.9159 H   0  0  0  0  0  0  0  0  0  0  0  0
  1  2  1  0
  2  3  2  0
  3  4  1  0
  4  5  1  0
  5  6  2  0
  6  7  1  0
  7  8  2  0
  8  9  1  0
  8 10  1  0
 10 11  2  0
  3 12  1  0
 12 13  2  0
 13 14  1  0
 14 15  2  0
 15 16  1  0
 16 17  2  0
 17 18  1  0
 18 19  1  0
 19 20  1  0
 20 21  2  0
 21 22  1  0
 22 23  1  0
 23 24  1  0
 24 25  1  0
 24 26  1  0
 26 27  2  0
 26 28  1  0
 22 29  2  0
 29 30  1  0
 30 31  2  0
 31 32  1  0
 18  2  1  0
 31 20  1  0
 11  5  1  0
 17 12  1  0
  1 33  1  0
  1 34  1  0
  1 35  1  0
  6 36  1  0
  7 37  1  0
 10 38  1  0
 11 39  1  0
 13 40  1  0
 14 41  1  0
 15 42  1  0
 19 43  1  0
 19 44  1  0
 21 45  1  0
 24 46  1  1
 25 47  1  0
 25 48  1  0
 25 49  1  0
 28 50  1  0
 29 51  1  0
 30 52  1  0
M  END
$$$$
