
     RDKit          3D

 54 56  0  0  0  0  0  0  0  0999 V2000
    9.5267    1.1704   -2.7516 C   0  0  0  0  0  0  0  0  0  0  0  0
    8.7178    0.2454   -2.3093 C   0  0  0  0  0  0  0  0  0  0  0  0
    7.4130    0.6436   -1.7719 C   0  0  0  0  0  0  0  0  0  0  0  0
    7.0594    1.8488   -1.7281 O   0  0  0  0  0  0  0  0  0  0  0  0
    6.4864   -0.3171   -1.2747 N   0  0  0  0  0  0  0  0  0  0  0  0
    5.2079    0.0417   -0.7445 C   0  0  0  0  0  0  0  0  0  0  0  0
    4.0961    0.1188   -1.5586 C   0  0  0  0  0  0  0  0  0  0  0  0
    2.8479    0.4638   -1.0577 C   0  0  0  0  0  0  0  0  0  0  0  0
    2.6676    0.7454    0.2836 C   0  0  0  0  0  0  0  0  0  0  0  0
    1.0951    1.1796    0.9301 S   0  0  0  0  0  6  0  0  0  0  0  0
    0.3127    1.9328   -0.1372 O   0  0  0  0  0  0  0  0  0  0  0  0
    1.2505    2.1606    2.0770 O   0  0  0  0  0  0  0  0  0  0  0  0
    0.1908   -0.1220    1.4520 N   0  0  0  0  0  0  0  0  0  0  0  0
   -0.1889   -1.1210    0.5491 C   0  0  0  0  0  0  0  0  0  0  0  0
   -1.6917   -1.2321    0.2849 C   0  0  0  0  0  0  0  0  0  0  0  0
   -2.4365   -0.9851    1.4684 N   0  0  0  0  0  0  0  0  0  0  0  0
   -3.7875   -0.6740    1.5676 C   0  0  0  0  0  0  0  0  0  0  0  0
   -4.2770   -0.4747    2.7660 O   0  0  0  0  0  0  0  0  0  0  0  0
   -4.7763   -0.5261    0.5645 N   0  0  0  0  0  0  0  0  0  0  0  0
   -6.1467   -0.1769    0.9249 C   0  0  0  0  0  0  0  0  0  0  0  0
   -6.7391    0.8742    0.0270 C   0  0  0  0  0  0  0  0  0  0  0  0
   -6.3980    0.6212   -1.4231 C   0  0  0  0  0  0  0  0  0  0  0  0
   -5.7861   -0.7537   -1.5959 C   0  0  0  0  0  0  0  0  0  0  0  0
   -4.4604   -0.7144   -0.8146 C   0  0  0  0  0  0  0  0  0  0  0  0
   -1.6641   -1.0797    2.7229 C   0  0  0  0  0  0  0  0  0  0  0  0
   -0.6257    0.0451    2.6095 C   0  0  0  0  0  0  0  0  0  0  0  0
    3.7874    0.6647    1.0863 C   0  0  0  0  0  0  0  0  0  0  0  0
    5.0295    0.3226    0.5947 C   0  0  0  0  0  0  0  0  0  0  0  0
    9.2354    2.2012   -2.7195 H   0  0  0  0  0  0  0  0  0  0  0  0
   10.4871    0.9118   -3.1504 H   0  0  0  0  0  0  0  0  0  0  0  0
    9.0299   -0.7834   -2.3514 H   0  0  0  0  0  0  0  0  0  0  0  0
    6.7553   -1.3375   -1.2990 H   0  0  0  0  0  0  0  0  0  0  0  0
    4.2396   -0.1012   -2.6052 H   0  0  0  0  0  0  0  0  0  0  0  0
    1.9744    0.5250   -1.6924 H   0  0  0  0  0  0  0  0  0  0  0  0
    0.3131   -0.9268   -0.4413 H   0  0  0  0  0  0  0  0  0  0  0  0
    0.1626   -2.1204    0.8715 H   0  0  0  0  0  0  0  0  0  0  0  0
   -1.8971   -2.2874   -0.0645 H   0  0  0  0  0  0  0  0  0  0  0  0
   -1.8931   -0.4877   -0.4920 H   0  0  0  0  0  0  0  0  0  0  0  0
   -6.1719    0.1236    1.9907 H   0  0  0  0  0  0  0  0  0  0  0  0
   -6.7467   -1.0965    0.8247 H   0  0  0  0  0  0  0  0  0  0  0  0
   -7.8328    0.9504    0.1554 H   0  0  0  0  0  0  0  0  0  0  0  0
   -6.3003    1.8490    0.3096 H   0  0  0  0  0  0  0  0  0  0  0  0
   -7.3394    0.6692   -2.0036 H   0  0  0  0  0  0  0  0  0  0  0  0
   -5.7290    1.4145   -1.8104 H   0  0  0  0  0  0  0  0  0  0  0  0
   -5.6042   -0.9016   -2.6705 H   0  0  0  0  0  0  0  0  0  0  0  0
   -6.4202   -1.4983   -1.1213 H   0  0  0  0  0  0  0  0  0  0  0  0
   -3.9895    0.2489   -1.1743 H   0  0  0  0  0  0  0  0  0  0  0  0
   -3.8664   -1.6097   -1.0553 H   0  0  0  0  0  0  0  0  0  0  0  0
   -2.3027   -0.8354    3.5766 H   0  0  0  0  0  0  0  0  0  0  0  0
   -1.1932   -2.0620    2.7453 H   0  0  0  0  0  0  0  0  0  0  0  0
   -0.0034    0.1372    3.4973 H   0  0  0  0  0  0  0  0  0  0  0  0
   -1.2144    0.9784    2.4934 H   0  0  0  0  0  0  0  0  0  0  0  0
    3.6771    0.8780    2.1305 H   0  0  0  0  0  0  0  0  0  0  0  0
    5.9188    0.2585    1.2322 H   0  0  0  0  0  0  0  0  0  0  0  0
  1  2  2  3
  2  3  1  0
  3  4  2  0
  3  5  1  0
  5  6  1  0
  6  7  2  0
  7  8  1  0
  8  9  2  0
  9 10  1  0
 10 11  2  0
 10 12  2  0
 10 13  1  0
 13 14  1  0
 14 15  1  0
 15 16  1  0
 16 17  1  0
 17 18  2  0
 17 19  1  0
 19 20  1  0
 20 21  1  0
 21 22  1  0
 22 23  1  0
 23 24  1  0
 16 25  1  0
 25 26  1  0
  9 27  1  0
 27 28  2  0
 28  6  1  0
 26 13  1  0
 24 19  1  0
  1 29  1  0
  1 30  1  0
  2 31  1  0
  5 32  1  0
  7 33  1  0
  8 34  1  0
 14 35  1  0
 14 36  1  0
 15 37  1  0
 15 38  1  0
 20 39  1  0
 20 40  1  0
 21 41  1  0
 21 42  1  0
 22 43  1  0
 22 44  1  0
 23 45  1  0
 23 46  1  0
 24 47  1  0
 24 48  1  0
 25 49  1  0
 25 50  1  0
 26 51  1  0
 26 52  1  0
 27 53  1  0
 28 54  1  0
M  END
$$$$
