
     RDKit          3D

 56 60  0  0  0  0  0  0  0  0999 V2000
    4.8608    2.8239   -2.1783 C   0  0  0  0  0  0  0  0  0  0  0  0
    4.6276    1.5743   -1.6059 O   0  0  0  0  0  0  0  0  0  0  0  0
    3.6436    0.8655   -2.2897 C   0  0  0  0  0  0  0  0  0  0  0  0
    3.4783   -0.4678   -1.5799 C   0  0  0  0  0  0  0  0  0  0  0  0
    3.0770   -0.2097   -0.1976 N   0  0  0  0  0  0  0  0  0  0  0  0
    3.9055   -0.0427    0.8427 C   0  0  0  0  0  0  0  0  0  0  0  0
    3.1065    0.1744    1.9400 C   0  0  0  0  0  0  0  0  0  0  0  0
    3.5641    0.4098    3.3109 C   0  0  0  0  0  0  0  0  0  0  0  0
    1.7562    0.1385    1.5559 C   0  0  0  0  0  0  0  0  0  0  0  0
    1.7718   -0.1042    0.2123 C   0  0  0  0  0  0  0  0  0  0  0  0
    0.3714   -0.1721   -0.2970 C   0  0  0  0  0  0  0  0  0  0  0  0
    0.1068   -1.4919   -0.9124 C   0  0  0  0  0  0  0  0  0  0  0  0
    0.0613   -2.6471   -0.1790 C   0  0  0  0  0  0  0  0  0  0  0  0
   -0.1873   -3.8842   -0.7438 C   0  0  0  0  0  0  0  0  0  0  0  0
   -0.3990   -3.9572   -2.1068 C   0  0  0  0  0  0  0  0  0  0  0  0
   -0.7189   -5.5041   -2.8735 Cl  0  0  0  0  0  0  0  0  0  0  0  0
   -0.3562   -2.8056   -2.8553 C   0  0  0  0  0  0  0  0  0  0  0  0
   -0.1038   -1.5649   -2.2683 C   0  0  0  0  0  0  0  0  0  0  0  0
   -0.4174    0.0878    0.8794 N   0  0  0  0  0  0  0  0  0  0  0  0
   -1.8635    0.1823    0.9278 C   0  0  0  0  0  0  0  0  0  0  0  0
   -2.6360   -0.9154    1.2108 C   0  0  0  0  0  0  0  0  0  0  0  0
   -4.0262   -0.8132    1.2502 C   0  0  0  0  0  0  0  0  0  0  0  0
   -4.8450   -2.0118    1.5579 C   0  0  0  0  0  0  0  0  0  0  0  0
   -4.5740    0.4203    0.9960 C   0  0  0  0  0  0  0  0  0  0  0  0
   -5.8768    0.7930    0.9704 N   0  0  0  0  0  0  0  0  0  0  0  0
   -5.8874    2.0799    0.6800 N   0  0  0  0  0  0  0  0  0  0  0  0
   -4.6422    2.5378    0.5205 C   0  0  0  0  0  0  0  0  0  0  0  0
   -4.2890    3.9501    0.1853 C   0  0  0  0  0  0  0  0  0  0  0  0
   -3.8159    1.4959    0.7188 N   0  0  0  0  0  0  0  0  0  0  0  0
   -2.4685    1.3983    0.6802 C   0  0  0  0  0  0  0  0  0  0  0  0
    0.3871    0.2681    2.0325 C   0  0  0  0  0  0  0  0  0  0  0  0
    0.0519    0.4916    3.2212 O   0  0  0  0  0  0  0  0  0  0  0  0
    3.8949    3.3726   -2.1300 H   0  0  0  0  0  0  0  0  0  0  0  0
    5.5468    3.3663   -1.4885 H   0  0  0  0  0  0  0  0  0  0  0  0
    5.2653    2.7485   -3.1981 H   0  0  0  0  0  0  0  0  0  0  0  0
    3.9195    0.7094   -3.3394 H   0  0  0  0  0  0  0  0  0  0  0  0
    2.6592    1.3898   -2.2788 H   0  0  0  0  0  0  0  0  0  0  0  0
    4.4442   -1.0152   -1.5801 H   0  0  0  0  0  0  0  0  0  0  0  0
    2.7384   -1.0457   -2.1331 H   0  0  0  0  0  0  0  0  0  0  0  0
    4.9827   -0.0807    0.7777 H   0  0  0  0  0  0  0  0  0  0  0  0
    4.4700   -0.1945    3.5632 H   0  0  0  0  0  0  0  0  0  0  0  0
    2.7822    0.1317    4.0364 H   0  0  0  0  0  0  0  0  0  0  0  0
    3.7855    1.4985    3.5021 H   0  0  0  0  0  0  0  0  0  0  0  0
    0.2845    0.6499   -1.0476 H   0  0  0  0  0  0  0  0  0  0  0  0
    0.2249   -2.5983    0.8814 H   0  0  0  0  0  0  0  0  0  0  0  0
   -0.2259   -4.7987   -0.1804 H   0  0  0  0  0  0  0  0  0  0  0  0
   -0.5203   -2.8682   -3.9064 H   0  0  0  0  0  0  0  0  0  0  0  0
   -0.0891   -0.7166   -2.9332 H   0  0  0  0  0  0  0  0  0  0  0  0
   -2.1984   -1.8701    1.4104 H   0  0  0  0  0  0  0  0  0  0  0  0
   -5.8891   -1.8180    1.2983 H   0  0  0  0  0  0  0  0  0  0  0  0
   -4.6703   -2.3207    2.5893 H   0  0  0  0  0  0  0  0  0  0  0  0
   -4.4814   -2.8590    0.9071 H   0  0  0  0  0  0  0  0  0  0  0  0
   -4.7991    4.5773    0.9654 H   0  0  0  0  0  0  0  0  0  0  0  0
   -4.7113    4.2667   -0.7805 H   0  0  0  0  0  0  0  0  0  0  0  0
   -3.1863    4.0835    0.2412 H   0  0  0  0  0  0  0  0  0  0  0  0
   -1.8901    2.2918    0.4522 H   0  0  0  0  0  0  0  0  0  0  0  0
  1  2  1  0
  2  3  1  0
  3  4  1  0
  4  5  1  0
  5  6  1  0
  6  7  2  0
  7  8  1  0
  7  9  1  0
  9 10  2  0
 10 11  1  0
 11 12  1  0
 12 13  2  0
 13 14  1  0
 14 15  2  0
 15 16  1  0
 15 17  1  0
 17 18  2  0
 11 19  1  0
 19 20  1  0
 20 21  1  0
 21 22  2  0
 22 23  1  0
 22 24  1  0
 24 25  2  0
 25 26  1  0
 26 27  2  0
 27 28  1  0
 27 29  1  0
 29 30  1  0
 19 31  1  0
 31 32  2  0
 10  5  1  0
 18 12  1  0
 30 20  2  0
 31  9  1  0
 29 24  1  0
  1 33  1  0
  1 34  1  0
  1 35  1  0
  3 36  1  0
  3 37  1  0
  4 38  1  0
  4 39  1  0
  6 40  1  0
  8 41  1  0
  8 42  1  0
  8 43  1  0
 11 44  1  0
 13 45  1  0
 14 46  1  0
 17 47  1  0
 18 48  1  0
 21 49  1  0
 23 50  1  0
 23 51  1  0
 23 52  1  0
 28 53  1  0
 28 54  1  0
 28 55  1  0
 30 56  1  0
M  END
$$$$
