
     RDKit          3D

 67 70  0  0  0  0  0  0  0  0999 V2000
   -1.9022   -5.5301    3.4532 C   0  0  0  0  0  0  0  0  0  0  0  0
   -2.1218   -4.8496    2.1704 C   0  0  0  0  0  0  0  0  0  0  0  0
   -2.8640   -5.3129    1.1351 N   0  0  0  0  0  0  0  0  0  0  0  0
   -2.7809   -4.3633    0.1791 C   0  0  0  0  0  0  0  0  0  0  0  0
   -1.9889   -3.3457    0.6590 C   0  0  0  0  0  0  0  0  0  0  0  0
   -1.6427   -2.0891   -0.1003 C   0  0  0  0  0  0  0  0  0  0  0  0
   -2.5880   -1.1446    0.1769 O   0  0  0  0  0  0  0  0  0  0  0  0
   -2.4831    0.0467   -0.4721 C   0  0  0  0  0  0  0  0  0  0  0  0
   -1.2569    0.8614   -0.2503 C   0  0  1  0  0  0  0  0  0  0  0  0
   -0.0165    0.2116   -0.6674 N   0  0  0  0  0  0  0  0  0  0  0  0
    0.2476   -0.2188   -1.9825 C   0  0  0  0  0  0  0  0  0  0  0  0
   -0.7102    0.0146   -2.8113 O   0  0  0  0  0  0  0  0  0  0  0  0
    1.4546   -0.8765   -2.4699 C   0  0  0  0  0  0  0  0  0  0  0  0
    1.4709   -1.2038   -3.8419 C   0  0  0  0  0  0  0  0  0  0  0  0
    2.5403   -1.8205   -4.4304 C   0  0  0  0  0  0  0  0  0  0  0  0
    3.6164   -2.1141   -3.6208 C   0  0  0  0  0  0  0  0  0  0  0  0
    3.5938   -1.7996   -2.3161 N   0  0  0  0  0  0  0  0  0  0  0  0
    2.5472   -1.1883   -1.7065 C   0  0  0  0  0  0  0  0  0  0  0  0
    2.5712   -0.8868   -0.3662 O   0  0  0  0  0  0  0  0  0  0  0  0
    3.6058   -1.1494    0.4940 C   0  0  0  0  0  0  0  0  0  0  0  0
    4.2441   -0.1183    1.1737 C   0  0  0  0  0  0  0  0  0  0  0  0
    5.2891   -0.3880    2.0419 C   0  0  0  0  0  0  0  0  0  0  0  0
    5.6977   -1.6993    2.2309 C   0  0  0  0  0  0  0  0  0  0  0  0
    6.8215   -1.9679    3.1684 C   0  0  0  0  0  0  0  0  0  0  0  0
    6.8906   -3.2790    3.5513 F   0  0  0  0  0  0  0  0  0  0  0  0
    7.9959   -1.6296    2.4990 F   0  0  0  0  0  0  0  0  0  0  0  0
    6.6935   -1.1132    4.2501 F   0  0  0  0  0  0  0  0  0  0  0  0
    5.0513   -2.7058    1.5473 C   0  0  0  0  0  0  0  0  0  0  0  0
    4.0068   -2.4609    0.6765 C   0  0  0  0  0  0  0  0  0  0  0  0
    3.2180   -3.7876   -0.1701 Cl  0  0  0  0  0  0  0  0  0  0  0  0
   -1.3619    2.2023   -0.9313 C   0  0  0  0  0  0  0  0  0  0  0  0
   -0.5168    2.4619   -1.8669 O   0  0  0  0  0  0  0  0  0  0  0  0
   -2.2945    3.1887   -0.6338 N   0  0  0  0  0  0  0  0  0  0  0  0
   -3.2664    3.0615    0.4152 C   0  0  0  0  0  0  0  0  0  0  0  0
   -3.4248    4.4924    0.9886 C   0  0  0  0  0  0  0  0  0  0  0  0
   -4.0721    5.3508    0.0161 N   0  0  0  0  0  0  0  0  0  0  0  0
   -3.6617    6.7186    0.2269 C   0  0  0  0  0  0  0  0  0  0  0  0
   -3.7382    4.9474   -1.3287 C   0  0  0  0  0  0  0  0  0  0  0  0
   -2.3205    4.4169   -1.3974 C   0  0  0  0  0  0  0  0  0  0  0  0
   -1.6048   -3.6663    1.8639 O   0  0  0  0  0  0  0  0  0  0  0  0
   -1.7216   -6.6175    3.2129 H   0  0  0  0  0  0  0  0  0  0  0  0
   -2.8071   -5.4382    4.0999 H   0  0  0  0  0  0  0  0  0  0  0  0
   -0.9882   -5.1635    3.9641 H   0  0  0  0  0  0  0  0  0  0  0  0
   -3.2578   -4.4222   -0.7707 H   0  0  0  0  0  0  0  0  0  0  0  0
   -0.6483   -1.7716    0.3351 H   0  0  0  0  0  0  0  0  0  0  0  0
   -1.5441   -2.3616   -1.1662 H   0  0  0  0  0  0  0  0  0  0  0  0
   -3.3667    0.6784   -0.1796 H   0  0  0  0  0  0  0  0  0  0  0  0
   -2.5995   -0.2096   -1.5812 H   0  0  0  0  0  0  0  0  0  0  0  0
   -1.1901    1.0737    0.8338 H   0  0  0  0  0  0  0  0  0  0  0  0
    0.7265    0.0714    0.0484 H   0  0  0  0  0  0  0  0  0  0  0  0
    0.6303   -0.9785   -4.4910 H   0  0  0  0  0  0  0  0  0  0  0  0
    2.5778   -2.0810   -5.4780 H   0  0  0  0  0  0  0  0  0  0  0  0
    4.4680   -2.6007   -4.0704 H   0  0  0  0  0  0  0  0  0  0  0  0
    3.9557    0.9246    1.0555 H   0  0  0  0  0  0  0  0  0  0  0  0
    5.8112    0.3848    2.5891 H   0  0  0  0  0  0  0  0  0  0  0  0
    5.3514   -3.7377    1.6778 H   0  0  0  0  0  0  0  0  0  0  0  0
   -4.2910    2.8155    0.0612 H   0  0  0  0  0  0  0  0  0  0  0  0
   -2.9359    2.4472    1.2798 H   0  0  0  0  0  0  0  0  0  0  0  0
   -2.4006    4.8489    1.1781 H   0  0  0  0  0  0  0  0  0  0  0  0
   -4.0401    4.4450    1.9184 H   0  0  0  0  0  0  0  0  0  0  0  0
   -3.0486    6.7871    1.1507 H   0  0  0  0  0  0  0  0  0  0  0  0
   -4.6014    7.3268    0.3662 H   0  0  0  0  0  0  0  0  0  0  0  0
   -3.0946    7.0717   -0.6582 H   0  0  0  0  0  0  0  0  0  0  0  0
   -3.8110    5.7782   -2.0565 H   0  0  0  0  0  0  0  0  0  0  0  0
   -4.3961    4.0861   -1.6290 H   0  0  0  0  0  0  0  0  0  0  0  0
   -2.0860    4.2521   -2.4677 H   0  0  0  0  0  0  0  0  0  0  0  0
   -1.6311    5.1248   -0.9260 H   0  0  0  0  0  0  0  0  0  0  0  0
  1  2  1  0
  2  3  2  0
  3  4  1  0
  4  5  2  0
  5  6  1  0
  6  7  1  0
  7  8  1  0
  8  9  1  0
  9 10  1  0
 10 11  1  0
 11 12  2  0
 11 13  1  0
 13 14  2  0
 14 15  1  0
 15 16  2  0
 16 17  1  0
 17 18  2  0
 18 19  1  0
 19 20  1  0
 20 21  2  0
 21 22  1  0
 22 23  2  0
 23 24  1  0
 24 25  1  0
 24 26  1  0
 24 27  1  0
 23 28  1  0
 28 29  2  0
 29 30  1  0
  9 31  1  0
 31 32  2  0
 31 33  1  0
 33 34  1  0
 34 35  1  0
 35 36  1  0
 36 37  1  0
 36 38  1  0
 38 39  1  0
  5 40  1  0
 40  2  1  0
 18 13  1  0
 29 20  1  0
 39 33  1  0
  1 41  1  0
  1 42  1  0
  1 43  1  0
  4 44  1  0
  6 45  1  0
  6 46  1  0
  8 47  1  0
  8 48  1  0
  9 49  1  1
 10 50  1  0
 14 51  1  0
 15 52  1  0
 16 53  1  0
 21 54  1  0
 22 55  1  0
 28 56  1  0
 34 57  1  0
 34 58  1  0
 35 59  1  0
 35 60  1  0
 37 61  1  0
 37 62  1  0
 37 63  1  0
 38 64  1  0
 38 65  1  0
 39 66  1  0
 39 67  1  0
M  END
$$$$
