
     RDKit          3D

 48 51  0  0  0  0  0  0  0  0999 V2000
    9.7515    2.7050    0.1190 C   0  0  0  0  0  0  0  0  0  0  0  0
    8.6887    3.1507    0.5042 C   0  0  0  0  0  0  0  0  0  0  0  0
    7.4168    3.6773    0.9384 C   0  0  0  0  0  0  0  0  0  0  0  0
    6.2948    3.1065    0.6534 O   0  0  0  0  0  0  0  0  0  0  0  0
    5.1892    2.5377    0.2819 C   0  0  0  0  0  0  0  0  0  0  0  0
    4.9327    2.2894   -1.1497 C   0  0  0  0  0  0  0  0  0  0  0  0
    3.7376    1.6890   -1.4274 C   0  0  0  0  0  0  0  0  0  0  0  0
    2.7709    1.2928   -0.5598 C   0  0  0  0  0  0  0  0  0  0  0  0
    1.6185    0.4915   -0.9265 C   0  0  0  0  0  0  0  0  0  0  0  0
    1.3826    0.3547   -2.2317 O   0  0  0  0  0  0  0  0  0  0  0  0
    0.8312   -0.1220    0.0159 N   0  0  0  0  0  0  0  0  0  0  0  0
   -0.2743   -1.0265   -0.2998 C   0  0  0  0  0  0  0  0  0  0  0  0
    0.1648   -2.3120   -0.4507 C   0  0  0  0  0  0  0  0  0  0  0  0
   -0.6959   -3.3622   -0.6554 C   0  0  0  0  0  0  0  0  0  0  0  0
   -2.0768   -3.0287   -0.7162 C   0  0  0  0  0  0  0  0  0  0  0  0
   -2.8964   -4.1083   -0.9270 F   0  0  0  0  0  0  0  0  0  0  0  0
   -2.5198   -1.7405   -0.5681 C   0  0  0  0  0  0  0  0  0  0  0  0
   -3.9593   -1.4608   -0.4616 C   0  0  1  0  0  0  0  0  0  0  0  0
   -4.7941   -2.1458   -1.5600 C   0  0  0  0  0  0  0  0  0  0  0  0
   -4.4418   -1.7318   -2.8206 F   0  0  0  0  0  0  0  0  0  0  0  0
   -4.3855   -2.1584    0.7738 N   0  0  0  0  0  0  0  0  0  0  0  0
   -4.6631   -1.5500    1.8462 C   0  0  0  0  0  0  0  0  0  0  0  0
   -5.0688   -2.1903    3.0353 N   0  0  0  0  0  0  0  0  0  0  0  0
   -4.5823   -0.1587    1.8892 O   0  0  0  0  0  0  0  0  0  0  0  0
   -4.7308    0.6054    0.7335 C   0  0  2  0  0  0  0  0  0  0  0  0
   -5.8301    0.2139   -0.2284 C   0  0  0  0  0  0  0  0  0  0  0  0
   -4.3098   -0.0238   -0.5151 C   0  0  2  0  0  0  0  0  0  0  0  0
   -1.5888   -0.7007   -0.3538 C   0  0  0  0  0  0  0  0  0  0  0  0
    3.0282    1.5388    0.7953 N   0  0  0  0  0  0  0  0  0  0  0  0
    4.2115    2.1333    1.0755 C   0  0  0  0  0  0  0  0  0  0  0  0
   10.7029    2.3204   -0.2275 H   0  0  0  0  0  0  0  0  0  0  0  0
    7.4348    4.8306    0.8528 H   0  0  0  0  0  0  0  0  0  0  0  0
    7.5529    3.6078    2.1309 H   0  0  0  0  0  0  0  0  0  0  0  0
    5.6901    2.6017   -1.8157 H   0  0  0  0  0  0  0  0  0  0  0  0
    3.5039    1.5093   -2.5175 H   0  0  0  0  0  0  0  0  0  0  0  0
    0.9932    0.0281    1.0682 H   0  0  0  0  0  0  0  0  0  0  0  0
    1.2530   -2.5335   -0.4067 H   0  0  0  0  0  0  0  0  0  0  0  0
   -0.4161   -4.3912   -0.7522 H   0  0  0  0  0  0  0  0  0  0  0  0
   -5.8501   -1.8990   -1.3717 H   0  0  0  0  0  0  0  0  0  0  0  0
   -4.7379   -3.2566   -1.4110 H   0  0  0  0  0  0  0  0  0  0  0  0
   -4.9138   -3.2386    3.0964 H   0  0  0  0  0  0  0  0  0  0  0  0
   -5.5123   -1.7329    3.8551 H   0  0  0  0  0  0  0  0  0  0  0  0
   -4.6806    1.7004    0.8487 H   0  0  0  0  0  0  0  0  0  0  0  0
   -6.3423    0.9820   -0.8106 H   0  0  0  0  0  0  0  0  0  0  0  0
   -6.4271   -0.6466    0.0944 H   0  0  0  0  0  0  0  0  0  0  0  0
   -3.9835    0.5426   -1.4352 H   0  0  0  0  0  0  0  0  0  0  0  0
   -1.8667    0.3166   -0.2091 H   0  0  0  0  0  0  0  0  0  0  0  0
    4.3985    2.2919    2.2010 H   0  0  0  0  0  0  0  0  0  0  0  0
  1  2  3  0
  2  3  1  0
  3  4  1  0
  4  5  1  0
  5  6  2  0
  6  7  1  0
  7  8  2  0
  8  9  1  0
  9 10  2  0
  9 11  1  0
 11 12  1  0
 12 13  2  0
 13 14  1  0
 14 15  2  0
 15 16  1  0
 15 17  1  0
 17 18  1  0
 18 19  1  6
 19 20  1  0
 18 21  1  0
 21 22  2  0
 22 23  1  0
 22 24  1  0
 24 25  1  0
 25 26  1  0
 26 27  1  0
 17 28  2  0
  8 29  1  0
 29 30  2  0
 30  5  1  0
 28 12  1  0
 27 18  1  0
 27 25  1  0
  1 31  1  0
  3 32  1  0
  3 33  1  0
  6 34  1  0
  7 35  1  0
 11 36  1  0
 13 37  1  0
 14 38  1  0
 19 39  1  0
 19 40  1  0
 23 41  1  0
 23 42  1  0
 25 43  1  1
 26 44  1  0
 26 45  1  0
 27 46  1  6
 28 47  1  0
 30 48  1  0
M  END
$$$$
