
     RDKit          3D

 61 64  0  0  0  0  0  0  0  0999 V2000
   -3.4252   -3.8761   -0.1816 C   0  0  0  0  0  0  0  0  0  0  0  0
   -3.7086   -2.4574   -0.1509 N   0  0  0  0  0  0  0  0  0  0  0  0
   -2.8847   -1.6876   -1.0186 C   0  0  0  0  0  0  0  0  0  0  0  0
   -2.5655   -0.3892   -0.3430 C   0  0  2  0  0  0  0  0  0  0  0  0
   -1.0826   -0.2727   -0.2768 C   0  0  0  0  0  0  0  0  0  0  0  0
   -0.2914   -1.2095    0.3623 C   0  0  0  0  0  0  0  0  0  0  0  0
    1.0912   -1.0637    0.4031 C   0  0  0  0  0  0  0  0  0  0  0  0
    1.7275    0.0074   -0.1840 C   0  0  0  0  0  0  0  0  0  0  0  0
    3.1730    0.1212   -0.1179 C   0  0  0  0  0  0  0  0  0  0  0  0
    3.8992    1.0825   -0.6307 C   0  0  0  0  0  0  0  0  0  0  0  0
    5.3256    1.1489   -0.5377 C   0  0  0  0  0  0  0  0  0  0  0  0
    5.9365    2.1346   -1.0760 O   0  0  0  0  0  0  0  0  0  0  0  0
    6.1017    0.1620    0.1308 N   0  0  0  0  0  0  0  0  0  0  0  0
    7.5300    0.3535    0.1485 C   0  0  0  0  0  0  0  0  0  0  0  0
    8.0739    1.0653    1.1931 C   0  0  0  0  0  0  0  0  0  0  0  0
    9.4557    1.2670    1.2369 C   0  0  0  0  0  0  0  0  0  0  0  0
   10.2719    0.7675    0.2575 C   0  0  0  0  0  0  0  0  0  0  0  0
    9.7053    0.0512   -0.7898 C   0  0  0  0  0  0  0  0  0  0  0  0
    8.3372   -0.1554   -0.8444 C   0  0  0  0  0  0  0  0  0  0  0  0
    7.7468   -0.8921   -1.9200 N   0  0  0  0  0  0  0  0  0  0  0  0
    0.9639    0.9354   -0.8153 C   0  0  0  0  0  0  0  0  0  0  0  0
   -0.4301    0.7926   -0.8590 C   0  0  0  0  0  0  0  0  0  0  0  0
   -3.2052   -0.4575    0.9926 C   0  0  1  0  0  0  0  0  0  0  0  0
   -4.4104    0.4347    0.9704 C   0  0  0  0  0  0  0  0  0  0  0  0
   -4.4815    1.3932    1.7700 O   0  0  0  0  0  0  0  0  0  0  0  0
   -5.4693    0.2148    0.0633 N   0  0  0  0  0  0  0  0  0  0  0  0
   -6.6303    1.0198   -0.0061 C   0  0  0  0  0  0  0  0  0  0  0  0
   -7.7624    0.7422    0.7436 C   0  0  0  0  0  0  0  0  0  0  0  0
   -8.8883    1.5273    0.6730 C   0  0  0  0  0  0  0  0  0  0  0  0
   -8.8997    2.6186   -0.1609 C   0  0  0  0  0  0  0  0  0  0  0  0
  -10.3175    3.6099   -0.2518 Cl  0  0  0  0  0  0  0  0  0  0  0  0
   -7.7810    2.9286   -0.9291 C   0  0  0  0  0  0  0  0  0  0  0  0
   -6.6483    2.1133   -0.8385 C   0  0  0  0  0  0  0  0  0  0  0  0
   -3.6218   -1.8938    1.1570 C   0  0  0  0  0  0  0  0  0  0  0  0
   -4.3976   -4.4040   -0.0843 H   0  0  0  0  0  0  0  0  0  0  0  0
   -2.7929   -4.1872    0.6499 H   0  0  0  0  0  0  0  0  0  0  0  0
   -3.0140   -4.1246   -1.1768 H   0  0  0  0  0  0  0  0  0  0  0  0
   -3.3564   -1.4742   -2.0056 H   0  0  0  0  0  0  0  0  0  0  0  0
   -1.9459   -2.2546   -1.2990 H   0  0  0  0  0  0  0  0  0  0  0  0
   -2.9176    0.4893   -0.9470 H   0  0  0  0  0  0  0  0  0  0  0  0
   -0.7824   -2.0568    0.8269 H   0  0  0  0  0  0  0  0  0  0  0  0
    1.6656   -1.8255    0.9165 H   0  0  0  0  0  0  0  0  0  0  0  0
    3.7601   -0.6594    0.4085 H   0  0  0  0  0  0  0  0  0  0  0  0
    3.3833    1.8719   -1.1556 H   0  0  0  0  0  0  0  0  0  0  0  0
    5.7062   -0.6721    0.5976 H   0  0  0  0  0  0  0  0  0  0  0  0
    7.4184    1.4480    1.9495 H   0  0  0  0  0  0  0  0  0  0  0  0
    9.8742    1.8327    2.0699 H   0  0  0  0  0  0  0  0  0  0  0  0
   11.3408    0.9087    0.2673 H   0  0  0  0  0  0  0  0  0  0  0  0
   10.3288   -0.3595   -1.5852 H   0  0  0  0  0  0  0  0  0  0  0  0
    8.2639   -0.9564   -2.8288 H   0  0  0  0  0  0  0  0  0  0  0  0
    6.8280   -1.3544   -1.8092 H   0  0  0  0  0  0  0  0  0  0  0  0
    1.4232    1.7843   -1.2849 H   0  0  0  0  0  0  0  0  0  0  0  0
   -0.9783    1.5809   -1.3859 H   0  0  0  0  0  0  0  0  0  0  0  0
   -2.5332   -0.1424    1.8262 H   0  0  0  0  0  0  0  0  0  0  0  0
   -5.4496   -0.5893   -0.6348 H   0  0  0  0  0  0  0  0  0  0  0  0
   -7.7388   -0.1243    1.3988 H   0  0  0  0  0  0  0  0  0  0  0  0
   -9.7526    1.2943    1.2616 H   0  0  0  0  0  0  0  0  0  0  0  0
   -7.8280    3.7917   -1.5705 H   0  0  0  0  0  0  0  0  0  0  0  0
   -5.8165    2.4105   -1.4609 H   0  0  0  0  0  0  0  0  0  0  0  0
   -2.9213   -2.4362    1.8176 H   0  0  0  0  0  0  0  0  0  0  0  0
   -4.6029   -1.9276    1.6833 H   0  0  0  0  0  0  0  0  0  0  0  0
  1  2  1  0
  2  3  1  0
  3  4  1  0
  4  5  1  0
  5  6  2  0
  6  7  1  0
  7  8  2  0
  8  9  1  0
  9 10  2  0
 10 11  1  0
 11 12  2  0
 11 13  1  0
 13 14  1  0
 14 15  2  0
 15 16  1  0
 16 17  2  0
 17 18  1  0
 18 19  2  0
 19 20  1  0
  8 21  1  0
 21 22  2  0
  4 23  1  0
 23 24  1  0
 24 25  2  0
 24 26  1  0
 26 27  1  0
 27 28  2  0
 28 29  1  0
 29 30  2  0
 30 31  1  0
 30 32  1  0
 32 33  2  0
 23 34  1  0
 34  2  1  0
 22  5  1  0
 33 27  1  0
 19 14  1  0
  1 35  1  0
  1 36  1  0
  1 37  1  0
  3 38  1  0
  3 39  1  0
  4 40  1  6
  6 41  1  0
  7 42  1  0
  9 43  1  0
 10 44  1  0
 13 45  1  0
 15 46  1  0
 16 47  1  0
 17 48  1  0
 18 49  1  0
 20 50  1  0
 20 51  1  0
 21 52  1  0
 22 53  1  0
 23 54  1  1
 26 55  1  0
 28 56  1  0
 29 57  1  0
 32 58  1  0
 33 59  1  0
 34 60  1  0
 34 61  1  0
M  END
$$$$
