
     RDKit          3D

 33 35  0  0  0  0  0  0  0  0999 V2000
    7.7926   -0.1813    0.0071 O   0  0  0  0  0  0  0  0  0  0  0  0
    6.5647   -0.2578   -0.1433 C   0  0  0  0  0  0  0  0  0  0  0  0
    5.8659    0.8368   -0.8710 C   0  0  0  0  0  0  0  0  0  0  0  0
    4.5555    0.9606   -0.3852 O   0  0  0  0  0  0  0  0  0  0  0  0
    3.7811   -0.0878    0.0735 C   0  0  0  0  0  0  0  0  0  0  0  0
    2.3477    0.1076    0.1457 C   0  0  0  0  0  0  0  0  0  0  0  0
    1.5705   -0.9297    0.6007 C   0  0  0  0  0  0  0  0  0  0  0  0
    0.2045   -0.7762    0.6815 C   0  0  0  0  0  0  0  0  0  0  0  0
   -0.4232    0.4116    0.3122 C   0  0  0  0  0  0  0  0  0  0  0  0
   -1.8540    0.5378    0.4094 N   0  0  0  0  0  0  0  0  0  0  0  0
   -2.6189   -0.3605   -0.1034 N   0  0  0  0  0  0  0  0  0  0  0  0
   -4.0390   -0.2737   -0.0295 C   0  0  0  0  0  0  0  0  0  0  0  0
   -4.7332   -0.9004    0.9742 C   0  0  0  0  0  0  0  0  0  0  0  0
   -6.1041   -0.7960    1.0158 C   0  0  0  0  0  0  0  0  0  0  0  0
   -6.8381   -0.0855    0.0915 C   0  0  0  0  0  0  0  0  0  0  0  0
   -6.1046    0.5341   -0.9073 C   0  0  0  0  0  0  0  0  0  0  0  0
   -6.7922    1.2414   -1.8335 F   0  0  0  0  0  0  0  0  0  0  0  0
   -4.7312    0.4443   -0.9705 C   0  0  0  0  0  0  0  0  0  0  0  0
    0.3559    1.4482   -0.1427 C   0  0  0  0  0  0  0  0  0  0  0  0
    1.7423    1.2833   -0.2214 C   0  0  0  0  0  0  0  0  0  0  0  0
    4.3573   -1.1822    0.4140 N   0  0  0  0  0  0  0  0  0  0  0  0
    5.7421   -1.3161    0.3241 N   0  0  0  0  0  0  0  0  0  0  0  0
    5.7856    0.5700   -1.9538 H   0  0  0  0  0  0  0  0  0  0  0  0
    6.3658    1.8204   -0.7249 H   0  0  0  0  0  0  0  0  0  0  0  0
    2.0075   -1.8684    0.8985 H   0  0  0  0  0  0  0  0  0  0  0  0
   -0.4039   -1.5957    1.0404 H   0  0  0  0  0  0  0  0  0  0  0  0
   -4.1925   -1.4829    1.7405 H   0  0  0  0  0  0  0  0  0  0  0  0
   -6.6513   -1.3004    1.8219 H   0  0  0  0  0  0  0  0  0  0  0  0
   -7.9143   -0.0250    0.1551 H   0  0  0  0  0  0  0  0  0  0  0  0
   -4.1888    0.9481   -1.7751 H   0  0  0  0  0  0  0  0  0  0  0  0
   -0.0728    2.3905   -0.4426 H   0  0  0  0  0  0  0  0  0  0  0  0
    2.3738    2.0939   -0.5793 H   0  0  0  0  0  0  0  0  0  0  0  0
    6.2490   -2.2089    0.5983 H   0  0  0  0  0  0  0  0  0  0  0  0
  1  2  2  0
  2  3  1  0
  3  4  1  0
  4  5  1  0
  5  6  1  0
  6  7  2  0
  7  8  1  0
  8  9  2  0
  9 10  1  0
 10 11  2  0
 11 12  1  0
 12 13  2  0
 13 14  1  0
 14 15  2  0
 15 16  1  0
 16 17  1  0
 16 18  2  0
  9 19  1  0
 19 20  2  0
  5 21  2  0
 21 22  1  0
 22  2  1  0
 20  6  1  0
 18 12  1  0
  3 23  1  0
  3 24  1  0
  7 25  1  0
  8 26  1  0
 13 27  1  0
 14 28  1  0
 15 29  1  0
 18 30  1  0
 19 31  1  0
 20 32  1  0
 22 33  1  0
M  END
$$$$
