
     RDKit          3D

 50 53  0  0  0  0  0  0  0  0999 V2000
    7.2142    0.6829   -0.4796 C   0  0  0  0  0  0  0  0  0  0  0  0
    5.8907    0.1701   -0.1493 C   0  0  0  0  0  0  0  0  0  0  0  0
    5.6270   -1.1795   -0.1583 C   0  0  0  0  0  0  0  0  0  0  0  0
    4.3921   -1.7028    0.1467 C   0  0  0  0  0  0  0  0  0  0  0  0
    3.3705   -0.8231    0.4762 C   0  0  0  0  0  0  0  0  0  0  0  0
    3.5938    0.5327    0.4984 C   0  0  0  0  0  0  0  0  0  0  0  0
    4.8664    1.0274    0.1817 C   0  0  0  0  0  0  0  0  0  0  0  0
    5.1240    2.4689    0.1988 C   0  0  0  0  0  0  0  0  0  0  0  0
    3.9704    3.1441    0.5539 F   0  0  0  0  0  0  0  0  0  0  0  0
    5.5029    2.9508   -1.0433 F   0  0  0  0  0  0  0  0  0  0  0  0
    6.0713    2.8083    1.1753 F   0  0  0  0  0  0  0  0  0  0  0  0
    2.2375   -1.6261    0.7251 N   0  0  0  0  0  0  0  0  0  0  0  0
    0.8779   -1.2955    0.5015 C   0  0  0  0  0  0  0  0  0  0  0  0
    0.0248   -2.1115    0.9638 O   0  0  0  0  0  0  0  0  0  0  0  0
    0.4469   -0.1558   -0.1829 N   0  0  0  0  0  0  0  0  0  0  0  0
   -0.8967    0.1903   -0.4051 C   0  0  0  0  0  0  0  0  0  0  0  0
   -2.0095   -0.5027   -0.0046 C   0  0  0  0  0  0  0  0  0  0  0  0
   -3.3102   -0.0539   -0.2875 C   0  0  0  0  0  0  0  0  0  0  0  0
   -3.5275    1.1015   -0.9786 C   0  0  0  0  0  0  0  0  0  0  0  0
   -4.7866    1.5791   -1.2803 O   0  0  0  0  0  0  0  0  0  0  0  0
   -5.9354    0.9541   -0.8500 C   0  0  0  0  0  0  0  0  0  0  0  0
   -6.8462    0.3993   -1.7496 C   0  0  0  0  0  0  0  0  0  0  0  0
   -7.9649   -0.2034   -1.2517 C   0  0  0  0  0  0  0  0  0  0  0  0
   -8.2330   -0.2872    0.1003 C   0  0  0  0  0  0  0  0  0  0  0  0
   -7.3469    0.2522    0.9566 N   0  0  0  0  0  0  0  0  0  0  0  0
   -6.2267    0.8582    0.5000 C   0  0  0  0  0  0  0  0  0  0  0  0
   -5.2919    1.4651    1.5044 C   0  0  0  0  0  0  0  0  0  0  0  0
   -2.4285    1.7808   -1.3715 N   0  0  0  0  0  0  0  0  0  0  0  0
   -1.1860    1.3749   -1.1153 C   0  0  0  0  0  0  0  0  0  0  0  0
    2.6991   -2.9375    1.2187 C   0  0  0  0  0  0  0  0  0  0  0  0
    3.8799   -3.1164    0.2402 C   0  0  0  0  0  0  0  0  0  0  0  0
    7.6281    1.4168    0.2228 H   0  0  0  0  0  0  0  0  0  0  0  0
    7.2752    1.1233   -1.5005 H   0  0  0  0  0  0  0  0  0  0  0  0
    7.9517   -0.1722   -0.4947 H   0  0  0  0  0  0  0  0  0  0  0  0
    6.4319   -1.8769   -0.4194 H   0  0  0  0  0  0  0  0  0  0  0  0
    2.8049    1.2155    0.7758 H   0  0  0  0  0  0  0  0  0  0  0  0
    1.1861    0.4685   -0.5732 H   0  0  0  0  0  0  0  0  0  0  0  0
   -1.9212   -1.4117    0.5390 H   0  0  0  0  0  0  0  0  0  0  0  0
   -4.1616   -0.6651    0.0497 H   0  0  0  0  0  0  0  0  0  0  0  0
   -6.6311    0.4677   -2.8105 H   0  0  0  0  0  0  0  0  0  0  0  0
   -8.6944   -0.6464   -1.9434 H   0  0  0  0  0  0  0  0  0  0  0  0
   -9.1409   -0.7806    0.4250 H   0  0  0  0  0  0  0  0  0  0  0  0
   -5.9646    2.0499    2.1972 H   0  0  0  0  0  0  0  0  0  0  0  0
   -4.7648    0.7173    2.0990 H   0  0  0  0  0  0  0  0  0  0  0  0
   -4.6161    2.1767    1.0260 H   0  0  0  0  0  0  0  0  0  0  0  0
   -0.3146    1.9518   -1.4494 H   0  0  0  0  0  0  0  0  0  0  0  0
    1.9521   -3.7191    1.1286 H   0  0  0  0  0  0  0  0  0  0  0  0
    3.0610   -2.7620    2.2468 H   0  0  0  0  0  0  0  0  0  0  0  0
    4.5846   -3.7891    0.7222 H   0  0  0  0  0  0  0  0  0  0  0  0
    3.5344   -3.5099   -0.7205 H   0  0  0  0  0  0  0  0  0  0  0  0
  1  2  1  0
  2  3  2  0
  3  4  1  0
  4  5  2  0
  5  6  1  0
  6  7  2  0
  7  8  1  0
  8  9  1  0
  8 10  1  0
  8 11  1  0
  5 12  1  0
 12 13  1  0
 13 14  2  0
 13 15  1  0
 15 16  1  0
 16 17  2  0
 17 18  1  0
 18 19  2  0
 19 20  1  0
 20 21  1  0
 21 22  2  0
 22 23  1  0
 23 24  2  0
 24 25  1  0
 25 26  2  0
 26 27  1  0
 19 28  1  0
 28 29  2  0
 12 30  1  0
 30 31  1  0
  7  2  1  0
 29 16  1  0
 31  4  1  0
 26 21  1  0
  1 32  1  0
  1 33  1  0
  1 34  1  0
  3 35  1  0
  6 36  1  0
 15 37  1  0
 17 38  1  0
 18 39  1  0
 22 40  1  0
 23 41  1  0
 24 42  1  0
 27 43  1  0
 27 44  1  0
 27 45  1  0
 29 46  1  0
 30 47  1  0
 30 48  1  0
 31 49  1  0
 31 50  1  0
M  END
$$$$
