
     RDKit          3D

 53 56  0  0  0  0  0  0  0  0999 V2000
   -2.6504    0.6375   -0.4655 C   0  0  2  0  0  0  0  0  0  0  0  0
   -3.6046    1.7286   -0.1130 C   0  0  0  0  0  0  0  0  0  0  0  0
   -4.9521    1.0501   -0.3741 C   0  0  0  0  0  0  0  0  0  0  0  0
   -4.6729   -0.4200   -0.3862 C   0  0  0  0  0  0  0  0  0  0  0  0
   -5.4647   -1.2076   -0.8224 O   0  0  0  0  0  0  0  0  0  0  0  0
   -3.3211   -0.5292    0.2206 C   0  0  2  0  0  0  0  0  0  0  0  0
   -3.4840   -0.3623    1.6974 C   0  0  0  0  0  0  0  0  0  0  0  0
   -2.5643   -1.7543   -0.1800 C   0  0  0  0  0  0  0  0  0  0  0  0
   -1.1976   -1.6219    0.4586 C   0  0  0  0  0  0  0  0  0  0  0  0
   -0.4800   -0.4522   -0.1374 C   0  0  1  0  0  0  0  0  0  0  0  0
   -1.2307    0.8455   -0.1122 C   0  0  1  0  0  0  0  0  0  0  0  0
   -0.6071    1.6622   -1.2545 C   0  0  0  0  0  0  0  0  0  0  0  0
    0.8802    1.6757   -1.0150 C   0  0  0  0  0  0  0  0  0  0  0  0
    1.5453    0.8502   -0.2116 C   0  0  0  0  0  0  0  0  0  0  0  0
    3.0211    1.0318   -0.1150 C   0  0  0  0  0  0  0  0  0  0  0  0
    3.7052   -0.2970    0.0135 C   0  0  2  0  0  0  0  0  0  0  0  0
    3.0646   -1.2149    1.0151 C   0  0  0  0  0  0  0  0  0  0  0  0
    1.6246   -1.4822    0.6326 C   0  0  0  0  0  0  0  0  0  0  0  0
    0.8413   -0.2136    0.5605 C   0  0  2  0  0  0  0  0  0  0  0  0
    0.6277    0.3806    1.9561 C   0  0  0  0  0  0  0  0  0  0  0  0
    5.0255   -0.1068    0.4378 O   0  0  0  0  0  0  0  0  0  0  0  0
    6.0730   -0.7423   -0.6998 S   0  0  0  0  0  0  0  0  0  0  0  0
    6.8521    0.5150   -1.4876 O   0  0  0  0  0  0  0  0  0  0  0  0
    5.3103   -1.5727   -1.6926 O   0  0  0  0  0  0  0  0  0  0  0  0
    7.0930   -1.6599   -0.0489 O   0  0  0  0  0  0  0  0  0  0  0  0
   -2.7475    0.4556   -1.5501 H   0  0  0  0  0  0  0  0  0  0  0  0
   -3.4583    2.6121   -0.7517 H   0  0  0  0  0  0  0  0  0  0  0  0
   -3.5193    2.0614    0.9440 H   0  0  0  0  0  0  0  0  0  0  0  0
   -5.7040    1.3313    0.3844 H   0  0  0  0  0  0  0  0  0  0  0  0
   -5.2493    1.3698   -1.4003 H   0  0  0  0  0  0  0  0  0  0  0  0
   -2.9570    0.4860    2.1336 H   0  0  0  0  0  0  0  0  0  0  0  0
   -4.5600   -0.3117    2.0167 H   0  0  0  0  0  0  0  0  0  0  0  0
   -3.1051   -1.2692    2.2537 H   0  0  0  0  0  0  0  0  0  0  0  0
   -2.4106   -1.7092   -1.2693 H   0  0  0  0  0  0  0  0  0  0  0  0
   -3.0669   -2.6936    0.1290 H   0  0  0  0  0  0  0  0  0  0  0  0
   -1.2089   -1.5633    1.5449 H   0  0  0  0  0  0  0  0  0  0  0  0
   -0.6180   -2.5226    0.1771 H   0  0  0  0  0  0  0  0  0  0  0  0
   -0.2254   -0.7262   -1.1818 H   0  0  0  0  0  0  0  0  0  0  0  0
   -1.0644    1.4474    0.8080 H   0  0  0  0  0  0  0  0  0  0  0  0
   -1.0108    2.6728   -1.3229 H   0  0  0  0  0  0  0  0  0  0  0  0
   -0.7483    1.0419   -2.1649 H   0  0  0  0  0  0  0  0  0  0  0  0
    1.3722    2.4712   -1.5982 H   0  0  0  0  0  0  0  0  0  0  0  0
    3.1962    1.6579    0.8003 H   0  0  0  0  0  0  0  0  0  0  0  0
    3.4322    1.5348   -1.0143 H   0  0  0  0  0  0  0  0  0  0  0  0
    3.6775   -0.8154   -0.9602 H   0  0  0  0  0  0  0  0  0  0  0  0
    3.1835   -0.8955    2.0632 H   0  0  0  0  0  0  0  0  0  0  0  0
    3.5942   -2.1950    0.9273 H   0  0  0  0  0  0  0  0  0  0  0  0
    1.1588   -2.1515    1.3733 H   0  0  0  0  0  0  0  0  0  0  0  0
    1.6602   -1.8999   -0.3955 H   0  0  0  0  0  0  0  0  0  0  0  0
    1.4884    0.1040    2.6243 H   0  0  0  0  0  0  0  0  0  0  0  0
    0.6475    1.4898    1.9343 H   0  0  0  0  0  0  0  0  0  0  0  0
   -0.3287    0.0633    2.4063 H   0  0  0  0  0  0  0  0  0  0  0  0
    7.1377    1.2132   -0.8574 H   0  0  0  0  0  0  0  0  0  0  0  0
  1  2  1  0
  2  3  1  0
  3  4  1  0
  4  5  2  0
  4  6  1  0
  6  7  1  1
  6  8  1  0
  8  9  1  0
  9 10  1  0
 10 11  1  0
 11 12  1  0
 12 13  1  0
 13 14  2  0
 14 15  1  0
 15 16  1  0
 16 17  1  0
 17 18  1  0
 18 19  1  0
 19 20  1  1
 16 21  1  0
 21 22  1  0
 22 23  1  0
 22 24  2  0
 22 25  2  0
  6  1  1  0
 19 10  1  0
 11  1  1  0
 19 14  1  0
  1 26  1  6
  2 27  1  0
  2 28  1  0
  3 29  1  0
  3 30  1  0
  7 31  1  0
  7 32  1  0
  7 33  1  0
  8 34  1  0
  8 35  1  0
  9 36  1  0
  9 37  1  0
 10 38  1  6
 11 39  1  1
 12 40  1  0
 12 41  1  0
 13 42  1  0
 15 43  1  0
 15 44  1  0
 16 45  1  6
 17 46  1  0
 17 47  1  0
 18 48  1  0
 18 49  1  0
 20 50  1  0
 20 51  1  0
 20 52  1  0
 23 53  1  0
M  END
$$$$
