
     RDKit          3D

 30 31  0  0  0  0  0  0  0  0999 V2000
    4.5565    2.1296   -0.6623 O   0  0  0  0  0  0  0  0  0  0  0  0
    3.3886    1.8016   -0.3311 C   0  0  0  0  0  0  0  0  0  0  0  0
    2.4621    2.7413    0.0711 O   0  0  0  0  0  0  0  0  0  0  0  0
    2.9949    0.3811   -0.3716 C   0  0  0  0  0  0  0  0  0  0  0  0
    3.8821   -0.5925   -0.7653 C   0  0  0  0  0  0  0  0  0  0  0  0
    3.5477   -1.9271   -0.8146 C   0  0  0  0  0  0  0  0  0  0  0  0
    2.2868   -2.3407   -0.4643 C   0  0  0  0  0  0  0  0  0  0  0  0
    1.3794   -1.3571   -0.0634 C   0  0  0  0  0  0  0  0  0  0  0  0
    0.0914   -1.8144    0.3123 N   0  0  0  0  0  0  0  0  0  0  0  0
   -1.0382   -0.9728    0.1195 C   0  0  0  0  0  0  0  0  0  0  0  0
   -1.1177    0.0121   -0.8365 C   0  0  0  0  0  0  0  0  0  0  0  0
   -2.2398    0.8211   -0.9732 C   0  0  0  0  0  0  0  0  0  0  0  0
   -3.3391    0.6775   -0.1532 C   0  0  0  0  0  0  0  0  0  0  0  0
   -4.5221    1.5525   -0.3200 C   0  0  0  0  0  0  0  0  0  0  0  0
   -5.0740    1.8937    0.9169 F   0  0  0  0  0  0  0  0  0  0  0  0
   -4.1999    2.7378   -0.9369 F   0  0  0  0  0  0  0  0  0  0  0  0
   -5.5306    0.9482   -1.0436 F   0  0  0  0  0  0  0  0  0  0  0  0
   -3.2724   -0.3077    0.8098 C   0  0  0  0  0  0  0  0  0  0  0  0
   -2.1600   -1.1093    0.9455 C   0  0  0  0  0  0  0  0  0  0  0  0
    1.7260   -0.0200   -0.0170 C   0  0  0  0  0  0  0  0  0  0  0  0
    2.7863    3.6438    0.4410 H   0  0  0  0  0  0  0  0  0  0  0  0
    4.8912   -0.2604   -1.0458 H   0  0  0  0  0  0  0  0  0  0  0  0
    4.2754   -2.6599   -1.1297 H   0  0  0  0  0  0  0  0  0  0  0  0
    1.9873   -3.3901   -0.4915 H   0  0  0  0  0  0  0  0  0  0  0  0
    0.0192   -2.7697    0.7260 H   0  0  0  0  0  0  0  0  0  0  0  0
   -0.2908    0.1601   -1.5161 H   0  0  0  0  0  0  0  0  0  0  0  0
   -2.2806    1.5944   -1.7363 H   0  0  0  0  0  0  0  0  0  0  0  0
   -4.1407   -0.4161    1.4520 H   0  0  0  0  0  0  0  0  0  0  0  0
   -2.1105   -1.8879    1.7085 H   0  0  0  0  0  0  0  0  0  0  0  0
    1.0416    0.7310    0.3007 H   0  0  0  0  0  0  0  0  0  0  0  0
  1  2  2  0
  2  3  1  0
  2  4  1  0
  4  5  2  0
  5  6  1  0
  6  7  2  0
  7  8  1  0
  8  9  1  0
  9 10  1  0
 10 11  2  0
 11 12  1  0
 12 13  2  0
 13 14  1  0
 14 15  1  0
 14 16  1  0
 14 17  1  0
 13 18  1  0
 18 19  2  0
  8 20  2  0
 20  4  1  0
 19 10  1  0
  3 21  1  0
  5 22  1  0
  6 23  1  0
  7 24  1  0
  9 25  1  0
 11 26  1  0
 12 27  1  0
 18 28  1  0
 19 29  1  0
 20 30  1  0
M  END
$$$$
