
     RDKit          3D

 57 59  0  0  0  0  0  0  0  0999 V2000
    0.6160   -0.1931    1.1443 C   0  0  2  0  0  0  0  0  0  0  0  0
    0.8826    1.2146    0.6329 C   0  0  0  0  0  0  0  0  0  0  0  0
   -0.2980    1.7698   -0.1067 C   0  0  0  0  0  0  0  0  0  0  0  0
    0.0523    3.1817   -0.5859 C   0  0  0  0  0  0  0  0  0  0  0  0
   -1.0299    3.7865   -1.3071 N   0  0  0  0  0  0  0  0  0  0  0  0
   -0.7611    5.1096   -1.7842 C   0  0  0  0  0  0  0  0  0  0  0  0
   -1.6330    5.6744   -2.7829 N   0  0  0  0  0  0  0  0  0  0  0  0
    0.1987    5.8983   -1.4248 N   0  0  0  0  0  0  0  0  0  0  0  0
   -0.5182   -0.1589    2.0432 N   0  0  0  0  0  0  0  0  0  0  0  0
   -1.6686   -0.5673    1.6279 C   0  0  0  0  0  0  0  0  0  0  0  0
   -2.6547   -0.4715    2.6067 O   0  0  0  0  0  0  0  0  0  0  0  0
   -2.2656   -1.1294    0.3653 C   0  0  2  0  0  0  0  0  0  0  0  0
   -3.3580   -0.2467   -0.1555 C   0  0  0  0  0  0  0  0  0  0  0  0
   -4.4788   -1.2497   -0.4613 C   0  0  1  0  0  0  0  0  0  0  0  0
   -4.0560   -1.9891   -1.5506 O   0  0  0  0  0  0  0  0  0  0  0  0
   -4.3503   -2.1411    0.7815 C   0  0  0  0  0  0  0  0  0  0  0  0
   -2.9079   -2.4019    0.7229 N   0  0  0  0  0  0  0  0  0  0  0  0
   -2.2261   -3.6271    0.9579 C   0  0  0  0  0  0  0  0  0  0  0  0
   -3.0162   -4.8296    1.3103 C   0  0  0  0  0  0  0  0  0  0  0  0
   -0.9780   -3.7736    0.8885 O   0  0  0  0  0  0  0  0  0  0  0  0
    1.7694   -0.7159    1.9081 C   0  0  0  0  0  0  0  0  0  0  0  0
    1.8425   -1.0764    3.0947 O   0  0  0  0  0  0  0  0  0  0  0  0
    2.9116   -0.7332    0.9245 C   0  0  0  0  0  0  0  0  0  0  0  0
    3.3193   -0.5365   -0.1269 N   0  0  0  0  0  0  0  0  0  0  0  0
    4.5310   -0.7131   -0.6177 C   0  0  0  0  0  0  0  0  0  0  0  0
    5.0028   -0.4687   -1.8917 C   0  0  0  0  0  0  0  0  0  0  0  0
    6.3240   -0.7350   -2.1715 C   0  0  0  0  0  0  0  0  0  0  0  0
    7.2601   -1.2359   -1.2897 C   0  0  0  0  0  0  0  0  0  0  0  0
    6.8365   -1.4953   -0.0071 C   0  0  0  0  0  0  0  0  0  0  0  0
    5.4848   -1.2129    0.2449 C   0  0  0  0  0  0  0  0  0  0  0  0
    4.4725   -1.4031    1.8239 S   0  0  0  0  0  0  0  0  0  0  0  0
    0.3701   -0.8604    0.2945 H   0  0  0  0  0  0  0  0  0  0  0  0
    1.1030    1.8727    1.4959 H   0  0  0  0  0  0  0  0  0  0  0  0
    1.7419    1.2390   -0.0521 H   0  0  0  0  0  0  0  0  0  0  0  0
   -0.5868    1.1724   -0.9811 H   0  0  0  0  0  0  0  0  0  0  0  0
   -1.1721    1.8935    0.5609 H   0  0  0  0  0  0  0  0  0  0  0  0
    0.9480    3.1459   -1.2180 H   0  0  0  0  0  0  0  0  0  0  0  0
    0.3049    3.8338    0.2858 H   0  0  0  0  0  0  0  0  0  0  0  0
   -1.9649    3.3736   -1.5136 H   0  0  0  0  0  0  0  0  0  0  0  0
   -2.5464    6.1800   -2.7816 H   0  0  0  0  0  0  0  0  0  0  0  0
   -2.2082    6.0567   -3.5543 H   0  0  0  0  0  0  0  0  0  0  0  0
    0.9077    5.6131   -0.7043 H   0  0  0  0  0  0  0  0  0  0  0  0
   -2.5059   -0.0944    3.5322 H   0  0  0  0  0  0  0  0  0  0  0  0
   -1.4958   -1.2973   -0.3892 H   0  0  0  0  0  0  0  0  0  0  0  0
   -3.0762    0.3131   -1.0644 H   0  0  0  0  0  0  0  0  0  0  0  0
   -3.7656    0.3987    0.6521 H   0  0  0  0  0  0  0  0  0  0  0  0
   -5.4564   -0.7819   -0.5585 H   0  0  0  0  0  0  0  0  0  0  0  0
   -3.5110   -1.4577   -2.2004 H   0  0  0  0  0  0  0  0  0  0  0  0
   -4.9460   -3.0535    0.7180 H   0  0  0  0  0  0  0  0  0  0  0  0
   -4.5271   -1.5508    1.7013 H   0  0  0  0  0  0  0  0  0  0  0  0
   -2.3903   -5.5918    1.8413 H   0  0  0  0  0  0  0  0  0  0  0  0
   -3.8735   -4.6406    1.9648 H   0  0  0  0  0  0  0  0  0  0  0  0
   -3.4157   -5.3556    0.3993 H   0  0  0  0  0  0  0  0  0  0  0  0
    4.3911   -0.0721   -2.7085 H   0  0  0  0  0  0  0  0  0  0  0  0
    6.6880   -0.5341   -3.1960 H   0  0  0  0  0  0  0  0  0  0  0  0
    8.2798   -1.4478   -1.4831 H   0  0  0  0  0  0  0  0  0  0  0  0
    7.4037   -1.8845    0.8260 H   0  0  0  0  0  0  0  0  0  0  0  0
  1  2  1  0
  2  3  1  0
  3  4  1  0
  4  5  1  0
  5  6  1  0
  6  7  1  0
  6  8  2  3
  1  9  1  0
  9 10  2  3
 10 11  1  0
 10 12  1  0
 12 13  1  0
 13 14  1  0
 14 15  1  0
 14 16  1  0
 16 17  1  0
 17 18  1  0
 18 19  1  0
 18 20  2  0
  1 21  1  0
 21 22  2  0
 21 23  1  0
 23 24  2  0
 24 25  1  0
 25 26  2  0
 26 27  1  0
 27 28  2  0
 28 29  1  0
 29 30  2  0
 30 31  1  0
 17 12  1  0
 31 23  1  0
 30 25  1  0
  1 32  1  6
  2 33  1  0
  2 34  1  0
  3 35  1  0
  3 36  1  0
  4 37  1  0
  4 38  1  0
  5 39  1  0
  7 40  1  0
  7 41  1  0
  8 42  1  0
 11 43  1  0
 12 44  1  6
 13 45  1  0
 13 46  1  0
 14 47  1  6
 15 48  1  0
 16 49  1  0
 16 50  1  0
 19 51  1  0
 19 52  1  0
 19 53  1  0
 26 54  1  0
 27 55  1  0
 28 56  1  0
 29 57  1  0
M  END
$$$$
