
     RDKit          3D

 52 56  0  0  0  0  0  0  0  0999 V2000
    2.9921    4.8862    0.3470 N   0  0  0  0  0  0  0  0  0  0  0  0
    2.4723    4.2470   -0.5146 C   0  0  0  0  0  0  0  0  0  0  0  0
    1.8531    3.4699   -1.5240 C   0  0  0  0  0  0  0  0  0  0  0  0
    1.5613    3.8835   -2.8312 C   0  0  0  0  0  0  0  0  0  0  0  0
    0.9822    2.8390   -3.4415 N   0  0  0  0  0  0  0  0  0  0  0  0
    0.8946    1.7980   -2.5947 C   0  0  0  0  0  0  0  0  0  0  0  0
    0.3840    0.5100   -2.7428 C   0  0  0  0  0  0  0  0  0  0  0  0
    0.4403   -0.3410   -1.6708 C   0  0  0  0  0  0  0  0  0  0  0  0
    0.9871    0.0631   -0.4773 C   0  0  0  0  0  0  0  0  0  0  0  0
    1.0275   -0.8868    0.6449 C   0  0  0  0  0  0  0  0  0  0  0  0
    1.9659   -1.8577    0.9064 C   0  0  0  0  0  0  0  0  0  0  0  0
    3.1520   -2.1555    0.1272 C   0  0  0  0  0  0  0  0  0  0  0  0
    4.3980   -2.0402    0.6995 C   0  0  0  0  0  0  0  0  0  0  0  0
    5.5558   -2.3128    0.0028 C   0  0  0  0  0  0  0  0  0  0  0  0
    5.4591   -2.7127   -1.3053 C   0  0  0  0  0  0  0  0  0  0  0  0
    6.5905   -2.9796   -1.9851 F   0  0  0  0  0  0  0  0  0  0  0  0
    4.2327   -2.8429   -1.9225 C   0  0  0  0  0  0  0  0  0  0  0  0
    4.1769   -3.3577   -3.5992 Cl  0  0  0  0  0  0  0  0  0  0  0  0
    3.1010   -2.5597   -1.1879 C   0  0  0  0  0  0  0  0  0  0  0  0
    1.5885   -2.4882    2.0223 N   0  0  0  0  0  0  0  0  0  0  0  0
    0.4482   -1.9165    2.4326 C   0  0  0  0  0  0  0  0  0  0  0  0
    0.0946   -0.9346    1.5969 N   0  0  0  0  0  0  0  0  0  0  0  0
   -1.0910   -0.0860    1.7194 C   0  0  0  0  0  0  0  0  0  0  0  0
   -2.2274   -0.7279    0.9595 C   0  0  0  0  0  0  0  0  0  0  0  0
   -3.4320   -0.0014    0.9895 N   0  0  0  0  0  0  0  0  0  0  0  0
   -4.5399   -0.5449    0.2900 C   0  0  0  0  0  0  0  0  0  0  0  0
   -5.3475    0.6543   -0.2273 C   0  0  0  0  0  0  0  0  0  0  0  0
   -5.7288    1.3771    0.8966 O   0  0  0  0  0  0  0  0  0  0  0  0
   -4.6888    1.9285    1.5957 C   0  0  0  0  0  0  0  0  0  0  0  0
   -3.7158    0.8546    2.0628 C   0  0  0  0  0  0  0  0  0  0  0  0
    1.4783    1.3476   -0.3827 C   0  0  0  0  0  0  0  0  0  0  0  0
    1.4312    2.2018   -1.4297 N   0  0  0  0  0  0  0  0  0  0  0  0
    1.7546    4.8454   -3.2793 H   0  0  0  0  0  0  0  0  0  0  0  0
   -0.0414    0.2057   -3.6784 H   0  0  0  0  0  0  0  0  0  0  0  0
    0.0414   -1.3661   -1.7668 H   0  0  0  0  0  0  0  0  0  0  0  0
    4.5114   -1.7238    1.7405 H   0  0  0  0  0  0  0  0  0  0  0  0
    6.5260   -2.2129    0.4790 H   0  0  0  0  0  0  0  0  0  0  0  0
    2.1548   -2.6719   -1.6968 H   0  0  0  0  0  0  0  0  0  0  0  0
   -0.0680   -2.2543    3.3309 H   0  0  0  0  0  0  0  0  0  0  0  0
   -0.8675    0.9268    1.3948 H   0  0  0  0  0  0  0  0  0  0  0  0
   -1.3876   -0.1057    2.8110 H   0  0  0  0  0  0  0  0  0  0  0  0
   -2.4102   -1.7416    1.4095 H   0  0  0  0  0  0  0  0  0  0  0  0
   -1.9116   -0.8995   -0.0716 H   0  0  0  0  0  0  0  0  0  0  0  0
   -5.1966   -1.0536    1.0250 H   0  0  0  0  0  0  0  0  0  0  0  0
   -4.2096   -1.2064   -0.5072 H   0  0  0  0  0  0  0  0  0  0  0  0
   -6.2558    0.3410   -0.7552 H   0  0  0  0  0  0  0  0  0  0  0  0
   -4.7204    1.2422   -0.9257 H   0  0  0  0  0  0  0  0  0  0  0  0
   -4.1542    2.7455    1.0566 H   0  0  0  0  0  0  0  0  0  0  0  0
   -5.1183    2.3707    2.5254 H   0  0  0  0  0  0  0  0  0  0  0  0
   -2.7899    1.2959    2.4661 H   0  0  0  0  0  0  0  0  0  0  0  0
   -4.2698    0.2570    2.8456 H   0  0  0  0  0  0  0  0  0  0  0  0
    1.9169    1.6910    0.5575 H   0  0  0  0  0  0  0  0  0  0  0  0
  1  2  3  0
  2  3  1  0
  3  4  2  0
  4  5  1  0
  5  6  2  0
  6  7  1  0
  7  8  2  0
  8  9  1  0
  9 10  1  0
 10 11  2  0
 11 12  1  0
 12 13  2  0
 13 14  1  0
 14 15  2  0
 15 16  1  0
 15 17  1  0
 17 18  1  0
 17 19  2  0
 11 20  1  0
 20 21  2  0
 21 22  1  0
 22 23  1  0
 23 24  1  0
 24 25  1  0
 25 26  1  0
 26 27  1  0
 27 28  1  0
 28 29  1  0
 29 30  1  0
  9 31  2  0
 31 32  1  0
 32  3  1  0
 32  6  1  0
 22 10  1  0
 30 25  1  0
 19 12  1  0
  4 33  1  0
  7 34  1  0
  8 35  1  0
 13 36  1  0
 14 37  1  0
 19 38  1  0
 21 39  1  0
 23 40  1  0
 23 41  1  0
 24 42  1  0
 24 43  1  0
 26 44  1  0
 26 45  1  0
 27 46  1  0
 27 47  1  0
 29 48  1  0
 29 49  1  0
 30 50  1  0
 30 51  1  0
 31 52  1  0
M  END
$$$$
