
     RDKit          3D

 50 54  0  0  0  0  0  0  0  0999 V2000
    0.3878   -2.4629   -0.7000 N   0  0  0  0  0  0  0  0  0  0  0  0
   -0.9994   -2.2463   -0.5255 C   0  0  0  0  0  0  0  0  0  0  0  0
   -1.9001   -3.2415   -0.5102 N   0  0  0  0  0  0  0  0  0  0  0  0
   -3.2111   -2.9951   -0.3248 C   0  0  0  0  0  0  0  0  0  0  0  0
   -3.6865   -1.7498   -0.1462 N   0  0  0  0  0  0  0  0  0  0  0  0
   -2.8124   -0.7204   -0.1551 C   0  0  0  0  0  0  0  0  0  0  0  0
   -1.4633   -0.9432   -0.3436 C   0  0  0  0  0  0  0  0  0  0  0  0
   -0.8418    0.2797   -0.2968 C   0  0  0  0  0  0  0  0  0  0  0  0
    0.5785    0.5564   -0.4738 C   0  0  0  0  0  0  0  0  0  0  0  0
    1.3254    0.1706   -1.5598 C   0  0  0  0  0  0  0  0  0  0  0  0
    2.6935    0.4546   -1.6545 C   0  0  0  0  0  0  0  0  0  0  0  0
    3.3485    1.1384   -0.6536 C   0  0  0  0  0  0  0  0  0  0  0  0
    4.7041    1.3999   -0.7854 O   0  0  0  0  0  0  0  0  0  0  0  0
    5.7024    0.5888   -0.3577 C   0  0  0  0  0  0  0  0  0  0  0  0
    5.4236   -0.6006    0.2630 C   0  0  0  0  0  0  0  0  0  0  0  0
    6.4483   -1.4391    0.7051 C   0  0  0  0  0  0  0  0  0  0  0  0
    7.7446   -1.0659    0.5148 C   0  0  0  0  0  0  0  0  0  0  0  0
    8.0449    0.1315   -0.1099 C   0  0  0  0  0  0  0  0  0  0  0  0
    7.0136    0.9431   -0.5380 C   0  0  0  0  0  0  0  0  0  0  0  0
    2.5999    1.5269    0.4368 C   0  0  0  0  0  0  0  0  0  0  0  0
    1.2520    1.2505    0.5373 C   0  0  0  0  0  0  0  0  0  0  0  0
   -1.8527    1.2123   -0.0767 C   0  0  0  0  0  0  0  0  0  0  0  0
   -3.0337    0.5896    0.0056 N   0  0  0  0  0  0  0  0  0  0  0  0
   -4.3008    1.2503    0.2294 C   0  0  0  0  0  0  0  0  0  0  0  0
   -4.6043    1.4241    1.6973 C   0  0  0  0  0  0  0  0  0  0  0  0
   -6.0923    1.1774    1.7929 C   0  0  0  0  0  0  0  0  0  0  0  0
   -6.2951    0.0877    0.7694 C   0  0  0  0  0  0  0  0  0  0  0  0
   -5.4649    0.5640   -0.3991 C   0  0  0  0  0  0  0  0  0  0  0  0
    1.0823   -2.2774    0.0561 H   0  0  0  0  0  0  0  0  0  0  0  0
    0.7647   -2.8201   -1.6040 H   0  0  0  0  0  0  0  0  0  0  0  0
   -3.8811   -3.8451   -0.3241 H   0  0  0  0  0  0  0  0  0  0  0  0
    0.8281   -0.3537   -2.3626 H   0  0  0  0  0  0  0  0  0  0  0  0
    3.2387    0.1251   -2.5376 H   0  0  0  0  0  0  0  0  0  0  0  0
    4.4203   -0.9557    0.4448 H   0  0  0  0  0  0  0  0  0  0  0  0
    6.2380   -2.3708    1.1913 H   0  0  0  0  0  0  0  0  0  0  0  0
    8.5891   -1.6772    0.8375 H   0  0  0  0  0  0  0  0  0  0  0  0
    9.0711    0.4415   -0.2682 H   0  0  0  0  0  0  0  0  0  0  0  0
    7.2317    1.8800   -1.0269 H   0  0  0  0  0  0  0  0  0  0  0  0
    3.1027    2.0591    1.2184 H   0  0  0  0  0  0  0  0  0  0  0  0
    0.6656    1.5631    1.4073 H   0  0  0  0  0  0  0  0  0  0  0  0
   -1.6685    2.2657    0.0082 H   0  0  0  0  0  0  0  0  0  0  0  0
   -4.2285    2.2672   -0.2082 H   0  0  0  0  0  0  0  0  0  0  0  0
   -4.4149    2.4550    2.0606 H   0  0  0  0  0  0  0  0  0  0  0  0
   -4.0352    0.7223    2.3299 H   0  0  0  0  0  0  0  0  0  0  0  0
   -6.6430    2.0906    1.4979 H   0  0  0  0  0  0  0  0  0  0  0  0
   -6.3478    0.8740    2.8158 H   0  0  0  0  0  0  0  0  0  0  0  0
   -6.0124   -0.8909    1.1527 H   0  0  0  0  0  0  0  0  0  0  0  0
   -7.3680    0.0853    0.4801 H   0  0  0  0  0  0  0  0  0  0  0  0
   -6.1209    1.2977   -0.9544 H   0  0  0  0  0  0  0  0  0  0  0  0
   -5.2208   -0.2167   -1.1212 H   0  0  0  0  0  0  0  0  0  0  0  0
  1  2  1  0
  2  3  2  0
  3  4  1  0
  4  5  2  0
  5  6  1  0
  6  7  2  0
  7  8  1  0
  8  9  1  0
  9 10  2  0
 10 11  1  0
 11 12  2  0
 12 13  1  0
 13 14  1  0
 14 15  2  0
 15 16  1  0
 16 17  2  0
 17 18  1  0
 18 19  2  0
 12 20  1  0
 20 21  2  0
  8 22  2  0
 22 23  1  0
 23 24  1  0
 24 25  1  0
 25 26  1  0
 26 27  1  0
 27 28  1  0
  7  2  1  0
 21  9  1  0
 28 24  1  0
 23  6  1  0
 19 14  1  0
  1 29  1  0
  1 30  1  0
  4 31  1  0
 10 32  1  0
 11 33  1  0
 15 34  1  0
 16 35  1  0
 17 36  1  0
 18 37  1  0
 19 38  1  0
 20 39  1  0
 21 40  1  0
 22 41  1  0
 24 42  1  0
 25 43  1  0
 25 44  1  0
 26 45  1  0
 26 46  1  0
 27 47  1  0
 27 48  1  0
 28 49  1  0
 28 50  1  0
M  END
$$$$
