
     RDKit          3D

 58 60  0  0  0  0  0  0  0  0999 V2000
    6.5407   -1.9626   -1.1030 C   0  0  0  0  0  0  0  0  0  0  0  0
    5.8664   -0.8764   -1.8618 C   0  0  0  0  0  0  0  0  0  0  0  0
    6.5417   -0.2545   -2.7192 O   0  0  0  0  0  0  0  0  0  0  0  0
    4.5138   -0.5102   -1.6692 N   0  0  0  0  0  0  0  0  0  0  0  0
    3.8853    0.5664   -2.4371 C   0  0  0  0  0  0  0  0  0  0  0  0
    2.4429    0.7442   -2.0305 C   0  0  0  0  0  0  0  0  0  0  0  0
    2.4000    1.0762   -0.6101 N   0  0  0  0  0  0  0  0  0  0  0  0
    1.1630    1.3026    0.0639 C   0  0  0  0  0  0  0  0  0  0  0  0
    0.1512    1.1930   -0.6452 O   0  0  0  0  0  0  0  0  0  0  0  0
    1.0777    1.6370    1.4815 C   0  0  0  0  0  0  0  0  0  0  0  0
    2.2584    1.9786    2.1609 C   0  0  0  0  0  0  0  0  0  0  0  0
    2.2569    2.3524    3.4407 N   0  0  0  0  0  0  0  0  0  0  0  0
    1.0822    2.4134    4.1360 C   0  0  0  0  0  0  0  0  0  0  0  0
   -0.0840    2.0954    3.5339 C   0  0  0  0  0  0  0  0  0  0  0  0
   -0.0877    1.6956    2.1726 C   0  0  0  0  0  0  0  0  0  0  0  0
   -1.3453    1.3642    1.6648 N   0  0  0  0  0  0  0  0  0  0  0  0
   -1.9309    0.2548    1.0886 C   0  0  0  0  0  0  0  0  0  0  0  0
   -2.5705    0.3777   -0.1491 C   0  0  0  0  0  0  0  0  0  0  0  0
   -3.1681   -0.6415   -0.8311 C   0  0  0  0  0  0  0  0  0  0  0  0
   -3.8275   -0.4667   -2.1273 C   0  0  0  0  0  0  0  0  0  0  0  0
   -3.8921    0.7412   -2.7524 C   0  0  0  0  0  0  0  0  0  0  0  0
   -4.5287    0.8843   -3.9930 C   0  0  0  0  0  0  0  0  0  0  0  0
   -4.6163    2.4327   -4.8034 Cl  0  0  0  0  0  0  0  0  0  0  0  0
   -5.1052   -0.2172   -4.6013 C   0  0  0  0  0  0  0  0  0  0  0  0
   -5.0441   -1.4550   -3.9700 C   0  0  0  0  0  0  0  0  0  0  0  0
   -4.4047   -1.5551   -2.7423 C   0  0  0  0  0  0  0  0  0  0  0  0
   -4.3591   -2.7713   -2.1489 F   0  0  0  0  0  0  0  0  0  0  0  0
   -3.1274   -1.8584   -0.2467 N   0  0  0  0  0  0  0  0  0  0  0  0
   -2.5272   -2.0191    0.9353 C   0  0  0  0  0  0  0  0  0  0  0  0
   -1.9165   -0.9992    1.6434 C   0  0  0  0  0  0  0  0  0  0  0  0
   -1.3266   -1.3143    2.9644 C   0  0  0  0  0  0  0  0  0  0  0  0
    0.1676   -1.3450    2.8891 C   0  0  0  0  0  0  0  0  0  0  0  0
   -1.9117   -0.5692    4.1151 C   0  0  0  0  0  0  0  0  0  0  0  0
    5.9670   -2.2968   -0.2314 H   0  0  0  0  0  0  0  0  0  0  0  0
    6.7698   -2.8385   -1.7628 H   0  0  0  0  0  0  0  0  0  0  0  0
    7.4957   -1.5232   -0.7038 H   0  0  0  0  0  0  0  0  0  0  0  0
    3.9633   -1.0276   -0.9604 H   0  0  0  0  0  0  0  0  0  0  0  0
    3.9701    0.3471   -3.5147 H   0  0  0  0  0  0  0  0  0  0  0  0
    4.4672    1.4910   -2.2561 H   0  0  0  0  0  0  0  0  0  0  0  0
    2.0897    1.6747   -2.5547 H   0  0  0  0  0  0  0  0  0  0  0  0
    1.8120   -0.1011   -2.2970 H   0  0  0  0  0  0  0  0  0  0  0  0
    3.2772    1.1435   -0.0865 H   0  0  0  0  0  0  0  0  0  0  0  0
    3.1917    1.9470    1.6518 H   0  0  0  0  0  0  0  0  0  0  0  0
    1.1811    2.7295    5.1736 H   0  0  0  0  0  0  0  0  0  0  0  0
   -1.0089    2.1472    4.0667 H   0  0  0  0  0  0  0  0  0  0  0  0
   -2.0461    2.2154    1.7498 H   0  0  0  0  0  0  0  0  0  0  0  0
   -2.5815    1.3876   -0.5875 H   0  0  0  0  0  0  0  0  0  0  0  0
   -3.4680    1.6366   -2.3406 H   0  0  0  0  0  0  0  0  0  0  0  0
   -5.6011   -0.0946   -5.5723 H   0  0  0  0  0  0  0  0  0  0  0  0
   -5.5024   -2.2976   -4.4676 H   0  0  0  0  0  0  0  0  0  0  0  0
   -2.5285   -3.0425    1.3582 H   0  0  0  0  0  0  0  0  0  0  0  0
   -1.6156   -2.4041    3.1750 H   0  0  0  0  0  0  0  0  0  0  0  0
    0.6029   -2.3700    3.1047 H   0  0  0  0  0  0  0  0  0  0  0  0
    0.5152   -1.1618    1.8292 H   0  0  0  0  0  0  0  0  0  0  0  0
    0.6860   -0.6849    3.6063 H   0  0  0  0  0  0  0  0  0  0  0  0
   -2.5181    0.3093    3.8111 H   0  0  0  0  0  0  0  0  0  0  0  0
   -1.0810   -0.3013    4.8151 H   0  0  0  0  0  0  0  0  0  0  0  0
   -2.6118   -1.1789    4.7469 H   0  0  0  0  0  0  0  0  0  0  0  0
  1  2  1  0
  2  3  2  0
  2  4  1  0
  4  5  1  0
  5  6  1  0
  6  7  1  0
  7  8  1  0
  8  9  2  0
  8 10  1  0
 10 11  2  0
 11 12  1  0
 12 13  2  0
 13 14  1  0
 14 15  2  0
 15 16  1  0
 16 17  1  0
 17 18  2  0
 18 19  1  0
 19 20  1  0
 20 21  2  0
 21 22  1  0
 22 23  1  0
 22 24  2  0
 24 25  1  0
 25 26  2  0
 26 27  1  0
 19 28  2  0
 28 29  1  0
 29 30  2  0
 30 31  1  0
 31 32  1  0
 31 33  1  0
 15 10  1  0
 30 17  1  0
 26 20  1  0
  1 34  1  0
  1 35  1  0
  1 36  1  0
  4 37  1  0
  5 38  1  0
  5 39  1  0
  6 40  1  0
  6 41  1  0
  7 42  1  0
 11 43  1  0
 13 44  1  0
 14 45  1  0
 16 46  1  0
 18 47  1  0
 21 48  1  0
 24 49  1  0
 25 50  1  0
 29 51  1  0
 31 52  1  0
 32 53  1  0
 32 54  1  0
 32 55  1  0
 33 56  1  0
 33 57  1  0
 33 58  1  0
M  END
$$$$
