
     RDKit          3D

 46 48  0  0  0  0  0  0  0  0999 V2000
    9.2698    0.0070   -0.4535 C   0  0  0  0  0  0  0  0  0  0  0  0
    8.4895    0.4481    0.7481 C   0  0  0  0  0  0  0  0  0  0  0  0
    7.1140    0.1846    0.6893 O   0  0  0  0  0  0  0  0  0  0  0  0
    6.2287    0.6495   -0.2431 C   0  0  0  0  0  0  0  0  0  0  0  0
    6.8117    1.3646   -1.0687 O   0  0  0  0  0  0  0  0  0  0  0  0
    4.8110    0.3258   -0.2300 C   0  0  0  0  0  0  0  0  0  0  0  0
    3.9733    0.8225   -1.1923 C   0  0  0  0  0  0  0  0  0  0  0  0
    2.6651    0.4954   -1.1404 N   0  0  0  0  0  0  0  0  0  0  0  0
    2.2007   -0.3041   -0.1585 C   0  0  0  0  0  0  0  0  0  0  0  0
    3.0078   -0.8380    0.8466 C   0  0  0  0  0  0  0  0  0  0  0  0
    4.3535   -0.4936    0.7819 C   0  0  0  0  0  0  0  0  0  0  0  0
    0.8079   -0.6530   -0.1023 C   0  0  0  0  0  0  0  0  0  0  0  0
   -0.3848   -0.9303   -0.0579 C   0  0  0  0  0  0  0  0  0  0  0  0
   -1.7789   -1.2330   -0.0038 C   0  0  0  0  0  0  0  0  0  0  0  0
   -2.6541   -0.1683   -0.0403 C   0  0  0  0  0  0  0  0  0  0  0  0
   -4.0161   -0.3661    0.0071 C   0  0  0  0  0  0  0  0  0  0  0  0
   -4.5304   -1.6349    0.0922 C   0  0  0  0  0  0  0  0  0  0  0  0
   -6.2978   -1.9379    0.1563 S   0  0  0  0  0  0  0  0  0  0  0  0
   -7.0804   -0.4324   -0.5292 C   0  0  0  0  0  0  0  0  0  0  0  0
   -6.0595    0.5619   -0.9819 C   0  0  0  0  0  0  0  0  0  0  0  0
   -4.9260    0.7807   -0.0331 C   0  0  0  0  0  0  0  0  0  0  0  0
   -4.2366    2.0678   -0.4209 C   0  0  0  0  0  0  0  0  0  0  0  0
   -5.4718    1.0151    1.3724 C   0  0  0  0  0  0  0  0  0  0  0  0
   -3.6308   -2.7024    0.1282 C   0  0  0  0  0  0  0  0  0  0  0  0
   -2.2669   -2.5120    0.0812 C   0  0  0  0  0  0  0  0  0  0  0  0
    9.1379    0.6565   -1.3247 H   0  0  0  0  0  0  0  0  0  0  0  0
    9.1490   -1.0781   -0.6762 H   0  0  0  0  0  0  0  0  0  0  0  0
   10.3508    0.1100   -0.1637 H   0  0  0  0  0  0  0  0  0  0  0  0
    8.7627    1.4776    0.9893 H   0  0  0  0  0  0  0  0  0  0  0  0
    8.8747   -0.1703    1.6089 H   0  0  0  0  0  0  0  0  0  0  0  0
    4.3511    1.4648   -1.9796 H   0  0  0  0  0  0  0  0  0  0  0  0
    2.6081   -1.4762    1.6213 H   0  0  0  0  0  0  0  0  0  0  0  0
    5.0149   -0.8814    1.5355 H   0  0  0  0  0  0  0  0  0  0  0  0
   -2.2938    0.8676   -0.1081 H   0  0  0  0  0  0  0  0  0  0  0  0
   -7.6269   -0.7780   -1.4540 H   0  0  0  0  0  0  0  0  0  0  0  0
   -7.8546   -0.0190    0.1280 H   0  0  0  0  0  0  0  0  0  0  0  0
   -6.5931    1.5510   -1.0589 H   0  0  0  0  0  0  0  0  0  0  0  0
   -5.6652    0.3159   -1.9894 H   0  0  0  0  0  0  0  0  0  0  0  0
   -3.5929    1.9542   -1.3158 H   0  0  0  0  0  0  0  0  0  0  0  0
   -5.0299    2.7947   -0.6969 H   0  0  0  0  0  0  0  0  0  0  0  0
   -3.7093    2.4517    0.4540 H   0  0  0  0  0  0  0  0  0  0  0  0
   -6.0541    0.1681    1.7583 H   0  0  0  0  0  0  0  0  0  0  0  0
   -4.5665    1.1944    2.0081 H   0  0  0  0  0  0  0  0  0  0  0  0
   -6.0964    1.9343    1.3603 H   0  0  0  0  0  0  0  0  0  0  0  0
   -3.9991   -3.7230    0.1954 H   0  0  0  0  0  0  0  0  0  0  0  0
   -1.5660   -3.3316    0.1086 H   0  0  0  0  0  0  0  0  0  0  0  0
  1  2  1  0
  2  3  1  0
  3  4  1  0
  4  5  2  0
  4  6  1  0
  6  7  2  0
  7  8  1  0
  8  9  2  0
  9 10  1  0
 10 11  2  0
  9 12  1  0
 12 13  3  0
 13 14  1  0
 14 15  2  0
 15 16  1  0
 16 17  2  0
 17 18  1  0
 18 19  1  0
 19 20  1  0
 20 21  1  0
 21 22  1  0
 21 23  1  0
 17 24  1  0
 24 25  2  0
 11  6  1  0
 25 14  1  0
 21 16  1  0
  1 26  1  0
  1 27  1  0
  1 28  1  0
  2 29  1  0
  2 30  1  0
  7 31  1  0
 10 32  1  0
 11 33  1  0
 15 34  1  0
 19 35  1  0
 19 36  1  0
 20 37  1  0
 20 38  1  0
 22 39  1  0
 22 40  1  0
 22 41  1  0
 23 42  1  0
 23 43  1  0
 23 44  1  0
 24 45  1  0
 25 46  1  0
M  END
$$$$
