
     RDKit          3D

 75 80  0  0  0  0  0  0  0  0999 V2000
   -0.6203   -4.5242    2.3938 C   0  0  0  0  0  0  0  0  0  0  0  0
   -0.9619   -3.6005    1.2556 C   0  0  0  0  0  0  0  0  0  0  0  0
    0.1585   -2.6224    1.0896 C   0  0  0  0  0  0  0  0  0  0  0  0
   -0.0673   -1.6267    0.0545 C   0  0  0  0  0  0  0  0  0  0  0  0
    1.0883   -1.2557   -0.6830 C   0  0  0  0  0  0  0  0  0  0  0  0
    2.2227   -1.8099   -0.4445 O   0  0  0  0  0  0  0  0  0  0  0  0
    3.4363   -2.2603   -0.3378 C   0  0  0  0  0  0  0  0  0  0  0  0
    4.5237   -1.2884    0.0007 C   0  0  0  0  0  0  0  0  0  0  0  0
    4.2663    0.0610    0.0788 C   0  0  0  0  0  0  0  0  0  0  0  0
    5.2602    0.9940    0.3851 C   0  0  0  0  0  0  0  0  0  0  0  0
    6.5420    0.5398    0.6160 C   0  0  0  0  0  0  0  0  0  0  0  0
    7.5908    1.5116    0.9332 C   0  0  0  0  0  0  0  0  0  0  0  0
    8.6472    1.1692    1.7619 C   0  0  0  0  0  0  0  0  0  0  0  0
    9.6323    2.0895    2.0527 C   0  0  0  0  0  0  0  0  0  0  0  0
    9.5724    3.3788    1.5119 C   0  0  0  0  0  0  0  0  0  0  0  0
    8.5283    3.7263    0.6890 C   0  0  0  0  0  0  0  0  0  0  0  0
    7.5673    2.7737    0.4267 C   0  0  0  0  0  0  0  0  0  0  0  0
    6.7732   -0.8120    0.5322 C   0  0  0  0  0  0  0  0  0  0  0  0
    5.7810   -1.6940    0.2315 N   0  0  0  0  0  0  0  0  0  0  0  0
    0.8581   -0.2755   -1.6410 C   0  0  0  0  0  0  0  0  0  0  0  0
   -0.3859    0.3004   -1.8693 C   0  0  0  0  0  0  0  0  0  0  0  0
   -1.4954   -0.0746   -1.1416 C   0  0  0  0  0  0  0  0  0  0  0  0
   -1.2732   -1.0470   -0.1910 C   0  0  0  0  0  0  0  0  0  0  0  0
   -2.4742   -1.2896    0.4113 C   0  0  0  0  0  0  0  0  0  0  0  0
   -3.4465   -0.4893   -0.1394 C   0  0  0  0  0  0  0  0  0  0  0  0
   -4.8499   -0.5090    0.2699 C   0  0  0  0  0  0  0  0  0  0  0  0
   -5.6956   -1.6204   -0.2487 C   0  0  0  0  0  0  0  0  0  0  0  0
   -7.1232   -1.4225    0.3345 C   0  0  0  0  0  0  0  0  0  0  0  0
   -5.3012   -3.0044    0.1964 C   0  0  0  0  0  0  0  0  0  0  0  0
   -5.8663   -1.6490   -1.7222 C   0  0  0  0  0  0  0  0  0  0  0  0
   -5.3884   -2.5884   -2.3910 O   0  0  0  0  0  0  0  0  0  0  0  0
   -6.5507   -0.6564   -2.3993 O   0  0  0  0  0  0  0  0  0  0  0  0
   -2.8164    0.2599   -1.1017 N   0  0  0  0  0  0  0  0  0  0  0  0
   -3.3882    1.2524   -1.9447 C   0  0  0  0  0  0  0  0  0  0  0  0
   -3.4090    2.6227   -1.4604 C   0  0  0  0  0  0  0  0  0  0  0  0
   -2.3192    3.4374   -1.5398 C   0  0  0  0  0  0  0  0  0  0  0  0
   -2.3853    4.7294   -1.0823 C   0  0  0  0  0  0  0  0  0  0  0  0
   -3.5335    5.2352   -0.5383 C   0  0  0  0  0  0  0  0  0  0  0  0
   -3.6271    6.8833    0.0492 Cl  0  0  0  0  0  0  0  0  0  0  0  0
   -4.6587    4.4483   -0.4382 C   0  0  0  0  0  0  0  0  0  0  0  0
   -4.5567    3.1469   -0.9108 C   0  0  0  0  0  0  0  0  0  0  0  0
   -2.4250   -2.5553    1.7054 S   0  0  0  0  0  0  0  0  0  0  0  0
    0.1458   -4.0905    3.0790 H   0  0  0  0  0  0  0  0  0  0  0  0
   -0.1109   -5.4257    1.9450 H   0  0  0  0  0  0  0  0  0  0  0  0
   -1.4964   -4.8629    2.9582 H   0  0  0  0  0  0  0  0  0  0  0  0
   -1.1398   -4.1141    0.3007 H   0  0  0  0  0  0  0  0  0  0  0  0
    1.1547   -3.1089    1.0437 H   0  0  0  0  0  0  0  0  0  0  0  0
    0.1976   -2.0515    2.0711 H   0  0  0  0  0  0  0  0  0  0  0  0
    3.7651   -2.7344   -1.3229 H   0  0  0  0  0  0  0  0  0  0  0  0
    3.6234   -3.1312    0.3773 H   0  0  0  0  0  0  0  0  0  0  0  0
    3.2677    0.4445   -0.0994 H   0  0  0  0  0  0  0  0  0  0  0  0
    5.0614    2.0557    0.4472 H   0  0  0  0  0  0  0  0  0  0  0  0
    8.6674    0.1661    2.1647 H   0  0  0  0  0  0  0  0  0  0  0  0
   10.4570    1.8481    2.6905 H   0  0  0  0  0  0  0  0  0  0  0  0
   10.3417    4.1190    1.7306 H   0  0  0  0  0  0  0  0  0  0  0  0
    8.4263    4.7226    0.2339 H   0  0  0  0  0  0  0  0  0  0  0  0
    6.7557    3.0617   -0.2211 H   0  0  0  0  0  0  0  0  0  0  0  0
    7.7719   -1.2032    0.7099 H   0  0  0  0  0  0  0  0  0  0  0  0
    1.6682    0.0851   -2.2631 H   0  0  0  0  0  0  0  0  0  0  0  0
   -0.5223    1.0574   -2.6382 H   0  0  0  0  0  0  0  0  0  0  0  0
   -4.8701   -0.6393    1.4052 H   0  0  0  0  0  0  0  0  0  0  0  0
   -5.3884    0.4564    0.1486 H   0  0  0  0  0  0  0  0  0  0  0  0
   -7.5755   -0.5287   -0.1063 H   0  0  0  0  0  0  0  0  0  0  0  0
   -6.9990   -1.2360    1.4186 H   0  0  0  0  0  0  0  0  0  0  0  0
   -7.6706   -2.3589    0.1770 H   0  0  0  0  0  0  0  0  0  0  0  0
   -5.2851   -3.1114    1.2899 H   0  0  0  0  0  0  0  0  0  0  0  0
   -4.4050   -3.2987   -0.3453 H   0  0  0  0  0  0  0  0  0  0  0  0
   -6.1192   -3.6827   -0.2149 H   0  0  0  0  0  0  0  0  0  0  0  0
   -6.4249   -0.4599   -3.4000 H   0  0  0  0  0  0  0  0  0  0  0  0
   -4.4012    0.9359   -2.3366 H   0  0  0  0  0  0  0  0  0  0  0  0
   -2.7799    1.2839   -2.9055 H   0  0  0  0  0  0  0  0  0  0  0  0
   -1.4055    3.1024   -1.9512 H   0  0  0  0  0  0  0  0  0  0  0  0
   -1.4995    5.3896   -1.1480 H   0  0  0  0  0  0  0  0  0  0  0  0
   -5.5627    4.8522   -0.0072 H   0  0  0  0  0  0  0  0  0  0  0  0
   -5.4777    2.5733   -0.8163 H   0  0  0  0  0  0  0  0  0  0  0  0
  1  2  1  0
  2  3  1  0
  3  4  1  0
  4  5  2  0
  5  6  1  0
  6  7  1  0
  7  8  1  0
  8  9  2  0
  9 10  1  0
 10 11  2  0
 11 12  1  0
 12 13  2  0
 13 14  1  0
 14 15  2  0
 15 16  1  0
 16 17  2  0
 11 18  1  0
 18 19  2  0
  5 20  1  0
 20 21  2  0
 21 22  1  0
 22 23  2  0
 23 24  1  0
 24 25  2  0
 25 26  1  0
 26 27  1  0
 27 28  1  0
 27 29  1  0
 27 30  1  0
 30 31  2  0
 30 32  1  0
 25 33  1  0
 33 34  1  0
 34 35  1  0
 35 36  2  0
 36 37  1  0
 37 38  2  0
 38 39  1  0
 38 40  1  0
 40 41  2  0
 24 42  1  0
 42  2  1  0
 23  4  1  0
 41 35  1  0
 19  8  1  0
 33 22  1  0
 17 12  1  0
  1 43  1  0
  1 44  1  0
  1 45  1  0
  2 46  1  0
  3 47  1  0
  3 48  1  0
  7 49  1  0
  7 50  1  0
  9 51  1  0
 10 52  1  0
 13 53  1  0
 14 54  1  0
 15 55  1  0
 16 56  1  0
 17 57  1  0
 18 58  1  0
 20 59  1  0
 21 60  1  0
 26 61  1  0
 26 62  1  0
 28 63  1  0
 28 64  1  0
 28 65  1  0
 29 66  1  0
 29 67  1  0
 29 68  1  0
 32 69  1  0
 34 70  1  0
 34 71  1  0
 36 72  1  0
 37 73  1  0
 40 74  1  0
 41 75  1  0
M  END
$$$$
