
     RDKit          3D

 50 54  0  0  0  0  0  0  0  0999 V2000
    0.7937   -1.6042   -2.8959 C   0  0  0  0  0  0  0  0  0  0  0  0
    0.0134   -2.0018   -1.6944 C   0  0  0  0  0  0  0  0  0  0  0  0
    0.2422   -1.4598   -0.5468 C   0  0  0  0  0  0  0  0  0  0  0  0
    1.2324   -0.4473   -0.2652 C   0  0  0  0  0  0  0  0  0  0  0  0
    1.2377   -0.0741    0.9922 O   0  0  0  0  0  0  0  0  0  0  0  0
    2.1735    0.2145   -1.0182 N   0  0  0  0  0  0  0  0  0  0  0  0
    3.0681    1.2197   -0.4695 C   0  0  0  0  0  0  0  0  0  0  0  0
    2.6850    2.5415   -0.4661 C   0  0  0  0  0  0  0  0  0  0  0  0
    3.5573    3.4843    0.0638 C   0  0  0  0  0  0  0  0  0  0  0  0
    4.7889    3.1186    0.5812 C   0  0  0  0  0  0  0  0  0  0  0  0
    5.8151    3.7846    1.1443 N   0  0  0  0  0  0  0  0  0  0  0  0
    6.7728    2.9197    1.4676 N   0  0  0  0  0  0  0  0  0  0  0  0
    6.4111    1.6698    1.1311 C   0  0  0  0  0  0  0  0  0  0  0  0
    5.1620    1.7980    0.5734 C   0  0  0  0  0  0  0  0  0  0  0  0
    4.2985    0.8552    0.0476 C   0  0  0  0  0  0  0  0  0  0  0  0
   -0.5870   -1.8835    0.6514 C   0  0  0  0  0  0  0  0  0  0  0  0
   -1.6741   -0.9400    0.8638 C   0  0  0  0  0  0  0  0  0  0  0  0
   -1.7441   -0.2258    2.0634 C   0  0  0  0  0  0  0  0  0  0  0  0
   -2.7457    0.6803    2.3160 C   0  0  0  0  0  0  0  0  0  0  0  0
   -3.7251    0.9122    1.3752 C   0  0  0  0  0  0  0  0  0  0  0  0
   -4.7593    1.8266    1.5977 C   0  0  0  0  0  0  0  0  0  0  0  0
   -5.7361    2.0500    0.6452 C   0  0  0  0  0  0  0  0  0  0  0  0
   -5.6828    1.3455   -0.5602 C   0  0  0  0  0  0  0  0  0  0  0  0
   -4.6634    0.4563   -0.7575 C   0  0  0  0  0  0  0  0  0  0  0  0
   -3.6812    0.2215    0.1818 C   0  0  0  0  0  0  0  0  0  0  0  0
   -2.6546   -0.6934   -0.0520 C   0  0  0  0  0  0  0  0  0  0  0  0
   -0.9945   -3.2949    0.5253 C   0  0  0  0  0  0  0  0  0  0  0  0
   -1.7140   -3.4483   -0.7790 C   0  0  0  0  0  0  0  0  0  0  0  0
   -2.8572   -3.9052   -0.7951 O   0  0  0  0  0  0  0  0  0  0  0  0
   -0.9737   -3.0336   -1.9212 N   0  0  0  0  0  0  0  0  0  0  0  0
    0.3643   -2.2150   -3.7698 H   0  0  0  0  0  0  0  0  0  0  0  0
    0.6007   -0.5845   -3.2119 H   0  0  0  0  0  0  0  0  0  0  0  0
    1.8336   -1.9519   -2.8117 H   0  0  0  0  0  0  0  0  0  0  0  0
    2.2852    0.0166   -2.0027 H   0  0  0  0  0  0  0  0  0  0  0  0
    1.7392    2.8107   -0.8650 H   0  0  0  0  0  0  0  0  0  0  0  0
    3.2708    4.5084    0.0711 H   0  0  0  0  0  0  0  0  0  0  0  0
    5.8050    4.8253    1.2811 H   0  0  0  0  0  0  0  0  0  0  0  0
    6.9410    0.7364    1.2482 H   0  0  0  0  0  0  0  0  0  0  0  0
    4.6056   -0.1826    0.0478 H   0  0  0  0  0  0  0  0  0  0  0  0
    0.1256   -1.7540    1.5351 H   0  0  0  0  0  0  0  0  0  0  0  0
   -0.9818   -0.3958    2.8158 H   0  0  0  0  0  0  0  0  0  0  0  0
   -2.7826    1.2166    3.2383 H   0  0  0  0  0  0  0  0  0  0  0  0
   -4.7734    2.3564    2.5402 H   0  0  0  0  0  0  0  0  0  0  0  0
   -6.5054    2.7619    0.8680 H   0  0  0  0  0  0  0  0  0  0  0  0
   -6.4492    1.5203   -1.3083 H   0  0  0  0  0  0  0  0  0  0  0  0
   -4.6240   -0.0838   -1.6835 H   0  0  0  0  0  0  0  0  0  0  0  0
   -2.7039   -1.1808   -1.0114 H   0  0  0  0  0  0  0  0  0  0  0  0
   -0.0697   -3.9448    0.4887 H   0  0  0  0  0  0  0  0  0  0  0  0
   -1.5720   -3.6744    1.3659 H   0  0  0  0  0  0  0  0  0  0  0  0
   -1.1682   -3.4714   -2.8358 H   0  0  0  0  0  0  0  0  0  0  0  0
  1  2  1  0
  2  3  2  0
  3  4  1  0
  4  5  2  0
  4  6  1  0
  6  7  1  0
  7  8  2  0
  8  9  1  0
  9 10  2  0
 10 11  1  0
 11 12  1  0
 12 13  2  0
 13 14  1  0
 14 15  2  0
  3 16  1  0
 16 17  1  0
 17 18  2  0
 18 19  1  0
 19 20  2  0
 20 21  1  0
 21 22  2  0
 22 23  1  0
 23 24  2  0
 24 25  1  0
 25 26  2  0
 16 27  1  0
 27 28  1  0
 28 29  2  0
 28 30  1  0
 30  2  1  0
 15  7  1  0
 26 17  1  0
 14 10  1  0
 25 20  1  0
  1 31  1  0
  1 32  1  0
  1 33  1  0
  6 34  1  0
  8 35  1  0
  9 36  1  0
 11 37  1  0
 13 38  1  0
 15 39  1  0
 16 40  1  0
 18 41  1  0
 19 42  1  0
 21 43  1  0
 22 44  1  0
 23 45  1  0
 24 46  1  0
 26 47  1  0
 27 48  1  0
 27 49  1  0
 30 50  1  0
M  END
$$$$
