
     RDKit          3D

 36 38  0  0  0  0  0  0  0  0999 V2000
    6.6874    0.4320   -0.6512 O   0  0  0  0  0  0  0  0  0  0  0  0
    5.6081   -0.1805   -0.8148 C   0  0  0  0  0  0  0  0  0  0  0  0
    5.5453   -1.1715   -1.7759 O   0  0  0  0  0  0  0  0  0  0  0  0
    4.4762    0.1865    0.0189 C   0  0  0  0  0  0  0  0  0  0  0  0
    4.5741    1.1796    0.9675 C   0  0  0  0  0  0  0  0  0  0  0  0
    3.5580    1.5487    1.7555 N   0  0  0  0  0  0  0  0  0  0  0  0
    2.3541    0.9559    1.6631 C   0  0  0  0  0  0  0  0  0  0  0  0
    2.2147   -0.0450    0.7238 C   0  0  0  0  0  0  0  0  0  0  0  0
    0.6388   -0.8183    0.6053 S   0  0  0  0  0  6  0  0  0  0  0  0
    0.8914   -2.2297    0.1404 O   0  0  0  0  0  0  0  0  0  0  0  0
    0.0667   -0.8725    2.0070 O   0  0  0  0  0  0  0  0  0  0  0  0
   -0.3864   -0.0517   -0.4988 N   0  0  0  0  0  0  0  0  0  0  0  0
   -0.7199    1.2892   -0.2228 C   0  0  0  0  0  0  0  0  0  0  0  0
   -2.0414    1.5294    0.4076 C   0  0  0  0  0  0  0  0  0  0  0  0
   -3.0515    0.4913    0.1332 C   0  0  0  0  0  0  0  0  0  0  0  0
   -4.3239    0.6848    0.6081 C   0  0  0  0  0  0  0  0  0  0  0  0
   -5.2876   -0.2689    0.3663 C   0  0  0  0  0  0  0  0  0  0  0  0
   -4.9830   -1.4140   -0.3479 C   0  0  0  0  0  0  0  0  0  0  0  0
   -3.7047   -1.5980   -0.8192 C   0  0  0  0  0  0  0  0  0  0  0  0
   -2.7509   -0.6391   -0.5718 C   0  0  0  0  0  0  0  0  0  0  0  0
   -1.3868   -0.8592   -1.0877 C   0  0  0  0  0  0  0  0  0  0  0  0
    3.2403   -0.4496   -0.1034 C   0  0  0  0  0  0  0  0  0  0  0  0
    6.3002   -1.3444   -2.4405 H   0  0  0  0  0  0  0  0  0  0  0  0
    5.5450    1.6826    1.0669 H   0  0  0  0  0  0  0  0  0  0  0  0
    1.5240    1.2672    2.3165 H   0  0  0  0  0  0  0  0  0  0  0  0
    0.0687    1.7145    0.4614 H   0  0  0  0  0  0  0  0  0  0  0  0
   -0.6030    1.8858   -1.1692 H   0  0  0  0  0  0  0  0  0  0  0  0
   -2.0015    1.6972    1.5088 H   0  0  0  0  0  0  0  0  0  0  0  0
   -2.4557    2.4906   -0.0179 H   0  0  0  0  0  0  0  0  0  0  0  0
   -4.6217    1.5613    1.1735 H   0  0  0  0  0  0  0  0  0  0  0  0
   -6.3035   -0.1282    0.7379 H   0  0  0  0  0  0  0  0  0  0  0  0
   -5.7491   -2.1676   -0.5375 H   0  0  0  0  0  0  0  0  0  0  0  0
   -3.4645   -2.4937   -1.3784 H   0  0  0  0  0  0  0  0  0  0  0  0
   -1.4441   -0.6924   -2.2028 H   0  0  0  0  0  0  0  0  0  0  0  0
   -1.1448   -1.9374   -0.9391 H   0  0  0  0  0  0  0  0  0  0  0  0
    3.1308   -1.2349   -0.8403 H   0  0  0  0  0  0  0  0  0  0  0  0
  1  2  2  0
  2  3  1  0
  2  4  1  0
  4  5  2  0
  5  6  1  0
  6  7  2  0
  7  8  1  0
  8  9  1  0
  9 10  2  0
  9 11  2  0
  9 12  1  0
 12 13  1  0
 13 14  1  0
 14 15  1  0
 15 16  2  0
 16 17  1  0
 17 18  2  0
 18 19  1  0
 19 20  2  0
 20 21  1  0
  8 22  2  0
 22  4  1  0
 21 12  1  0
 20 15  1  0
  3 23  1  0
  5 24  1  0
  7 25  1  0
 13 26  1  0
 13 27  1  0
 14 28  1  0
 14 29  1  0
 16 30  1  0
 17 31  1  0
 18 32  1  0
 19 33  1  0
 21 34  1  0
 21 35  1  0
 22 36  1  0
M  END
$$$$
