
     RDKit          3D

 54 58  0  0  0  0  0  0  0  0999 V2000
    2.9047    1.8782   -1.8668 C   0  0  0  0  0  0  0  0  0  0  0  0
    3.8263    1.6317   -0.7253 C   0  0  0  0  0  0  0  0  0  0  0  0
    4.8310    2.5175   -0.4144 C   0  0  0  0  0  0  0  0  0  0  0  0
    5.6744    2.2728    0.6457 C   0  0  0  0  0  0  0  0  0  0  0  0
    5.4760    1.1207    1.3744 C   0  0  0  0  0  0  0  0  0  0  0  0
    4.4629    0.2310    1.0582 C   0  0  0  0  0  0  0  0  0  0  0  0
    3.6150    0.4687   -0.0008 C   0  0  0  0  0  0  0  0  0  0  0  0
    2.5715   -0.4281   -0.3412 N   0  0  0  0  0  0  0  0  0  0  0  0
    1.3084   -0.1693   -0.2026 N   0  0  0  0  0  0  0  0  0  0  0  0
    0.2934   -1.0288   -0.5284 C   0  0  0  0  0  0  0  0  0  0  0  0
   -1.0876   -0.6080   -0.3162 C   0  0  0  0  0  0  0  0  0  0  0  0
   -2.2451   -1.2905   -0.5649 C   0  0  0  0  0  0  0  0  0  0  0  0
   -2.4653   -2.6074   -1.1113 C   0  0  0  0  0  0  0  0  0  0  0  0
   -2.5925   -2.8318   -2.4758 C   0  0  0  0  0  0  0  0  0  0  0  0
   -2.8189   -4.1114   -2.9008 C   0  0  0  0  0  0  0  0  0  0  0  0
   -2.9269   -5.1894   -2.0382 C   0  0  0  0  0  0  0  0  0  0  0  0
   -3.1521   -6.4393   -2.5129 F   0  0  0  0  0  0  0  0  0  0  0  0
   -2.8018   -4.9748   -0.6825 C   0  0  0  0  0  0  0  0  0  0  0  0
   -2.5724   -3.6789   -0.2505 C   0  0  0  0  0  0  0  0  0  0  0  0
   -3.2859   -0.4808   -0.1994 N   0  0  0  0  0  0  0  0  0  0  0  0
   -2.8402    0.6661    0.2618 N   0  0  0  0  0  0  0  0  0  0  0  0
   -1.4892    0.6065    0.1975 C   0  0  0  0  0  0  0  0  0  0  0  0
   -0.7125    1.7331    0.6388 N   0  0  0  0  0  0  0  0  0  0  0  0
   -1.2148    2.6482    1.6621 C   0  0  0  0  0  0  0  0  0  0  0  0
   -2.5932    2.1853    2.0709 C   0  0  1  0  0  0  0  0  0  0  0  0
   -3.2995    3.1983    2.9197 C   0  0  0  0  0  0  0  0  0  0  0  0
   -2.5507    3.4177    4.0638 O   0  0  0  0  0  0  0  0  0  0  0  0
   -3.3825    1.9036    0.7907 C   0  0  0  0  0  0  0  0  0  0  0  0
    0.6847   -2.2337   -1.0316 C   0  0  0  0  0  0  0  0  0  0  0  0
    2.0066   -2.5761   -1.2060 C   0  0  0  0  0  0  0  0  0  0  0  0
    2.9432   -1.6316   -0.8435 C   0  0  0  0  0  0  0  0  0  0  0  0
    4.1592   -1.9012   -0.9853 O   0  0  0  0  0  0  0  0  0  0  0  0
    1.8408    1.6883   -1.5956 H   0  0  0  0  0  0  0  0  0  0  0  0
    2.9713    2.9572   -2.1091 H   0  0  0  0  0  0  0  0  0  0  0  0
    3.2052    1.3198   -2.7762 H   0  0  0  0  0  0  0  0  0  0  0  0
    4.9893    3.4189   -0.9816 H   0  0  0  0  0  0  0  0  0  0  0  0
    6.4797    2.9514    0.9202 H   0  0  0  0  0  0  0  0  0  0  0  0
    6.1233    0.8955    2.2184 H   0  0  0  0  0  0  0  0  0  0  0  0
    4.3647   -0.6499    1.6701 H   0  0  0  0  0  0  0  0  0  0  0  0
   -2.5128   -2.0018   -3.1904 H   0  0  0  0  0  0  0  0  0  0  0  0
   -2.9231   -4.3133   -3.9774 H   0  0  0  0  0  0  0  0  0  0  0  0
   -2.8852   -5.8152    0.0020 H   0  0  0  0  0  0  0  0  0  0  0  0
   -2.4816   -3.5695    0.8395 H   0  0  0  0  0  0  0  0  0  0  0  0
    0.2193    1.8883    0.2136 H   0  0  0  0  0  0  0  0  0  0  0  0
   -1.3572    3.6259    1.1362 H   0  0  0  0  0  0  0  0  0  0  0  0
   -0.5262    2.7699    2.5008 H   0  0  0  0  0  0  0  0  0  0  0  0
   -2.5272    1.2338    2.6165 H   0  0  0  0  0  0  0  0  0  0  0  0
   -4.2834    2.7563    3.2108 H   0  0  0  0  0  0  0  0  0  0  0  0
   -3.5168    4.1330    2.3638 H   0  0  0  0  0  0  0  0  0  0  0  0
   -2.5924    4.3713    4.3296 H   0  0  0  0  0  0  0  0  0  0  0  0
   -3.0881    2.7049    0.0796 H   0  0  0  0  0  0  0  0  0  0  0  0
   -4.4585    1.8520    0.9659 H   0  0  0  0  0  0  0  0  0  0  0  0
   -0.0446   -2.9618   -1.3082 H   0  0  0  0  0  0  0  0  0  0  0  0
    2.2773   -3.5536   -1.6133 H   0  0  0  0  0  0  0  0  0  0  0  0
  1  2  1  0
  2  3  2  0
  3  4  1  0
  4  5  2  0
  5  6  1  0
  6  7  2  0
  7  8  1  0
  8  9  1  0
  9 10  2  0
 10 11  1  0
 11 12  1  0
 12 13  1  0
 13 14  2  0
 14 15  1  0
 15 16  2  0
 16 17  1  0
 16 18  1  0
 18 19  2  0
 12 20  2  0
 20 21  1  0
 21 22  1  0
 22 23  1  0
 23 24  1  0
 24 25  1  0
 25 26  1  0
 26 27  1  0
 25 28  1  0
 10 29  1  0
 29 30  2  0
 30 31  1  0
 31 32  2  0
  7  2  1  0
 31  8  1  0
 22 11  2  0
 19 13  1  0
 28 21  1  0
  1 33  1  0
  1 34  1  0
  1 35  1  0
  3 36  1  0
  4 37  1  0
  5 38  1  0
  6 39  1  0
 14 40  1  0
 15 41  1  0
 18 42  1  0
 19 43  1  0
 23 44  1  0
 24 45  1  0
 24 46  1  0
 25 47  1  1
 26 48  1  0
 26 49  1  0
 27 50  1  0
 28 51  1  0
 28 52  1  0
 29 53  1  0
 30 54  1  0
M  END
$$$$
