
     RDKit          3D

 63 69  0  0  0  0  0  0  0  0999 V2000
    2.0819   -2.5831   -2.7176 O   0  0  0  0  0  0  0  0  0  0  0  0
    3.0632   -1.8443   -2.4415 C   0  0  0  0  0  0  0  0  0  0  0  0
    4.3520   -1.9452   -2.9873 N   0  0  0  0  0  0  0  0  0  0  0  0
    5.1472   -0.9323   -2.4146 C   0  0  0  0  0  0  0  0  0  0  0  0
    6.3548   -0.7386   -2.6844 O   0  0  0  0  0  0  0  0  0  0  0  0
    4.2784   -0.1838   -1.4699 C   0  0  0  0  0  0  0  0  0  0  0  0
    4.7671    0.9571   -0.6992 C   0  0  0  0  0  0  0  0  0  0  0  0
    4.3235    2.2518   -0.6112 C   0  0  0  0  0  0  0  0  0  0  0  0
    5.1182    2.9059    0.2717 N   0  0  0  0  0  0  0  0  0  0  0  0
    6.0517    2.0652    0.7444 C   0  0  0  0  0  0  0  0  0  0  0  0
    7.0790    2.2607    1.6600 C   0  0  0  0  0  0  0  0  0  0  0  0
    7.8976    1.1965    1.9657 C   0  0  0  0  0  0  0  0  0  0  0  0
    7.6599   -0.0065    1.3514 C   0  0  0  0  0  0  0  0  0  0  0  0
    6.6319   -0.1837    0.4403 C   0  0  0  0  0  0  0  0  0  0  0  0
    5.8453    0.8695    0.1565 N   0  0  0  0  0  0  0  0  0  0  0  0
    3.0768   -0.6977   -1.4757 C   0  0  0  0  0  0  0  0  0  0  0  0
    1.8573   -0.3491   -0.7695 C   0  0  0  0  0  0  0  0  0  0  0  0
    1.1845    0.8262   -0.6797 C   0  0  0  0  0  0  0  0  0  0  0  0
    0.1189    0.6614    0.1094 N   0  0  0  0  0  0  0  0  0  0  0  0
    0.1050   -0.6364    0.5328 C   0  0  0  0  0  0  0  0  0  0  0  0
   -0.7862   -1.2883    1.3574 C   0  0  0  0  0  0  0  0  0  0  0  0
   -0.6107   -2.6015    1.6581 C   0  0  0  0  0  0  0  0  0  0  0  0
    0.4591   -3.3162    1.1486 C   0  0  0  0  0  0  0  0  0  0  0  0
    1.3460   -2.6291    0.3149 C   0  0  0  0  0  0  0  0  0  0  0  0
    1.1811   -1.3045    0.0026 C   0  0  0  0  0  0  0  0  0  0  0  0
   -1.9934   -0.6429    1.9615 C   0  0  0  0  0  0  0  0  0  0  0  0
   -2.7369    0.0276    0.8507 N   0  0  0  0  0  0  0  0  0  0  0  0
   -3.9989   -0.5105    0.6344 C   0  0  0  0  0  0  0  0  0  0  0  0
   -4.2755   -1.4937    1.4852 O   0  0  0  0  0  0  0  0  0  0  0  0
   -5.0304   -0.2711   -0.2480 N   0  0  0  0  0  0  0  0  0  0  0  0
   -6.2436   -1.1188   -0.0945 C   0  0  0  0  0  0  0  0  0  0  0  0
   -7.4758   -0.2884   -0.0453 C   0  0  0  0  0  0  0  0  0  0  0  0
   -7.2385    1.1891    0.0236 C   0  0  0  0  0  0  0  0  0  0  0  0
   -6.1602    1.7151   -0.8475 C   0  0  0  0  0  0  0  0  0  0  0  0
   -5.1750    0.6632   -1.3327 C   0  0  0  0  0  0  0  0  0  0  0  0
   -2.2622    1.1006    0.0608 C   0  0  0  0  0  0  0  0  0  0  0  0
   -0.8855    1.6319    0.4914 C   0  0  0  0  0  0  0  0  0  0  0  0
    4.6779   -2.6523   -3.7004 H   0  0  0  0  0  0  0  0  0  0  0  0
    3.4931    2.6649   -1.1673 H   0  0  0  0  0  0  0  0  0  0  0  0
    7.2660    3.2066    2.1422 H   0  0  0  0  0  0  0  0  0  0  0  0
    8.7330    1.2642    2.6763 H   0  0  0  0  0  0  0  0  0  0  0  0
    8.3027   -0.8627    1.5855 H   0  0  0  0  0  0  0  0  0  0  0  0
    6.4539   -1.1383   -0.0264 H   0  0  0  0  0  0  0  0  0  0  0  0
    1.4165    1.7537   -1.1515 H   0  0  0  0  0  0  0  0  0  0  0  0
   -1.3011   -3.1191    2.3020 H   0  0  0  0  0  0  0  0  0  0  0  0
    0.6081   -4.3612    1.3823 H   0  0  0  0  0  0  0  0  0  0  0  0
    2.1702   -3.1904   -0.0690 H   0  0  0  0  0  0  0  0  0  0  0  0
   -2.6346   -1.3537    2.4772 H   0  0  0  0  0  0  0  0  0  0  0  0
   -1.6639    0.1312    2.6742 H   0  0  0  0  0  0  0  0  0  0  0  0
   -6.1172   -1.8132    0.7534 H   0  0  0  0  0  0  0  0  0  0  0  0
   -6.2683   -1.7338   -1.0171 H   0  0  0  0  0  0  0  0  0  0  0  0
   -8.0307   -0.5651    0.8930 H   0  0  0  0  0  0  0  0  0  0  0  0
   -8.2002   -0.5375   -0.8607 H   0  0  0  0  0  0  0  0  0  0  0  0
   -8.2045    1.6707   -0.3166 H   0  0  0  0  0  0  0  0  0  0  0  0
   -7.1123    1.5509    1.0676 H   0  0  0  0  0  0  0  0  0  0  0  0
   -6.5493    2.2016   -1.7782 H   0  0  0  0  0  0  0  0  0  0  0  0
   -5.5637    2.4922   -0.3291 H   0  0  0  0  0  0  0  0  0  0  0  0
   -5.6231    0.1078   -2.2144 H   0  0  0  0  0  0  0  0  0  0  0  0
   -4.2552    1.1602   -1.6074 H   0  0  0  0  0  0  0  0  0  0  0  0
   -2.1329    0.7201   -0.9889 H   0  0  0  0  0  0  0  0  0  0  0  0
   -2.9091    1.9915    0.0119 H   0  0  0  0  0  0  0  0  0  0  0  0
   -0.7317    2.5867   -0.0175 H   0  0  0  0  0  0  0  0  0  0  0  0
   -0.9309    1.7330    1.5758 H   0  0  0  0  0  0  0  0  0  0  0  0
  1  2  2  0
  2  3  1  0
  3  4  1  0
  4  5  2  0
  4  6  1  0
  6  7  1  0
  7  8  2  0
  8  9  1  0
  9 10  2  0
 10 11  1  0
 11 12  2  0
 12 13  1  0
 13 14  2  0
 14 15  1  0
  6 16  2  0
 16 17  1  0
 17 18  2  0
 18 19  1  0
 19 20  1  0
 20 21  2  0
 21 22  1  0
 22 23  2  0
 23 24  1  0
 24 25  2  0
 21 26  1  0
 26 27  1  0
 27 28  1  0
 28 29  2  0
 28 30  1  0
 30 31  1  0
 31 32  1  0
 32 33  1  0
 33 34  1  0
 34 35  1  0
 27 36  1  0
 36 37  1  0
 16  2  1  0
 25 17  1  0
 35 30  1  0
 15  7  1  0
 37 19  1  0
 15 10  1  0
 25 20  1  0
  3 38  1  0
  8 39  1  0
 11 40  1  0
 12 41  1  0
 13 42  1  0
 14 43  1  0
 18 44  1  0
 22 45  1  0
 23 46  1  0
 24 47  1  0
 26 48  1  0
 26 49  1  0
 31 50  1  0
 31 51  1  0
 32 52  1  0
 32 53  1  0
 33 54  1  0
 33 55  1  0
 34 56  1  0
 34 57  1  0
 35 58  1  0
 35 59  1  0
 36 60  1  0
 36 61  1  0
 37 62  1  0
 37 63  1  0
M  END
$$$$
