
     RDKit          3D

 63 67  0  0  0  0  0  0  0  0999 V2000
   -7.2316    1.2230    1.9641 C   0  0  0  0  0  0  0  0  0  0  0  0
   -7.0948    1.9488    0.7341 N   0  0  0  0  0  0  0  0  0  0  0  0
   -7.8062    3.1812    0.5407 C   0  0  0  0  0  0  0  0  0  0  0  0
   -6.2602    1.4561   -0.2896 C   0  0  0  0  0  0  0  0  0  0  0  0
   -6.1383    2.1006   -1.3875 O   0  0  0  0  0  0  0  0  0  0  0  0
   -5.5171    0.1754   -0.0849 C   0  0  2  0  0  0  0  0  0  0  0  0
   -4.5619    0.2076    1.1016 C   0  0  0  0  0  0  0  0  0  0  0  0
   -4.0853    0.1748   -0.3342 C   0  0  1  0  0  0  0  0  0  0  0  0
   -3.4249   -0.9492   -0.9123 C   0  0  1  0  0  0  0  0  0  0  0  0
   -2.5810   -0.3574   -2.1196 C   0  0  0  0  0  0  0  0  0  0  0  0
   -2.3810   -1.5419   -0.0506 C   0  0  0  0  0  0  0  0  0  0  0  0
   -1.0506   -1.1070   -0.1295 C   0  0  0  0  0  0  0  0  0  0  0  0
   -0.0512   -1.5678    0.6936 C   0  0  0  0  0  0  0  0  0  0  0  0
    1.3386   -1.1443    0.6408 C   0  0  0  0  0  0  0  0  0  0  0  0
    2.0086   -0.8840   -0.4684 C   0  0  0  0  0  0  0  0  0  0  0  0
    1.2910   -1.0413   -1.6317 F   0  0  0  0  0  0  0  0  0  0  0  0
    3.3963   -0.4631   -0.5075 C   0  0  0  0  0  0  0  0  0  0  0  0
    4.2029   -0.2799    0.5871 C   0  0  0  0  0  0  0  0  0  0  0  0
    5.4884    0.1099    0.5243 N   0  0  0  0  0  0  0  0  0  0  0  0
    6.0298    0.3371   -0.6690 C   0  0  0  0  0  0  0  0  0  0  0  0
    7.3527    0.7400   -0.7737 O   0  0  0  0  0  0  0  0  0  0  0  0
    8.1848    0.9288    0.3526 C   0  0  0  0  0  0  0  0  0  0  0  0
    9.5584    1.3670   -0.1055 C   0  0  0  0  0  0  0  0  0  0  0  0
   10.4923    1.5853    1.0462 C   0  0  0  0  0  0  0  0  0  0  0  0
   11.3755    0.6809    0.4485 O   0  0  0  0  0  0  0  0  0  0  0  0
   10.4731    0.2597   -0.5346 C   0  0  0  0  0  0  0  0  0  0  0  0
    5.2629    0.1683   -1.8078 C   0  0  0  0  0  0  0  0  0  0  0  0
    3.9653   -0.2269   -1.7109 N   0  0  0  0  0  0  0  0  0  0  0  0
   -0.4090   -2.5078    1.6377 C   0  0  0  0  0  0  0  0  0  0  0  0
   -1.7166   -2.9621    1.7439 C   0  0  0  0  0  0  0  0  0  0  0  0
   -2.6905   -2.4974    0.9220 C   0  0  0  0  0  0  0  0  0  0  0  0
   -3.9664   -2.9484    0.9429 F   0  0  0  0  0  0  0  0  0  0  0  0
   -4.1167   -1.9999   -1.5826 N   0  0  0  0  0  0  0  0  0  0  0  0
   -5.3533   -2.2974   -1.5332 C   0  0  0  0  0  0  0  0  0  0  0  0
   -5.9406   -3.3681   -2.2437 N   0  0  0  0  0  0  0  0  0  0  0  0
   -6.4119   -1.3031   -0.4994 S   0  0  0  0  0  0  0  0  0  0  0  0
   -6.9705    0.1619    1.7698 H   0  0  0  0  0  0  0  0  0  0  0  0
   -8.2752    1.2246    2.3402 H   0  0  0  0  0  0  0  0  0  0  0  0
   -6.5411    1.6064    2.7632 H   0  0  0  0  0  0  0  0  0  0  0  0
   -8.5975    3.0059   -0.2157 H   0  0  0  0  0  0  0  0  0  0  0  0
   -8.2052    3.5382    1.5129 H   0  0  0  0  0  0  0  0  0  0  0  0
   -7.0824    3.9107    0.1030 H   0  0  0  0  0  0  0  0  0  0  0  0
   -4.4624    1.2092    1.6350 H   0  0  0  0  0  0  0  0  0  0  0  0
   -4.6411   -0.6708    1.7348 H   0  0  0  0  0  0  0  0  0  0  0  0
   -3.6820    1.1981   -0.6734 H   0  0  0  0  0  0  0  0  0  0  0  0
   -2.1934    0.6190   -1.8044 H   0  0  0  0  0  0  0  0  0  0  0  0
   -3.2618   -0.2074   -2.9642 H   0  0  0  0  0  0  0  0  0  0  0  0
   -1.7963   -1.0368   -2.4045 H   0  0  0  0  0  0  0  0  0  0  0  0
   -0.7401   -0.3634   -0.8569 H   0  0  0  0  0  0  0  0  0  0  0  0
    1.8492   -1.0391    1.6014 H   0  0  0  0  0  0  0  0  0  0  0  0
    3.7862   -0.4570    1.5651 H   0  0  0  0  0  0  0  0  0  0  0  0
    7.7450    1.7443    0.9942 H   0  0  0  0  0  0  0  0  0  0  0  0
    8.2559    0.0457    1.0032 H   0  0  0  0  0  0  0  0  0  0  0  0
    9.4748    2.2301   -0.8003 H   0  0  0  0  0  0  0  0  0  0  0  0
   10.1500    1.1987    2.0149 H   0  0  0  0  0  0  0  0  0  0  0  0
   10.8778    2.6329    1.0729 H   0  0  0  0  0  0  0  0  0  0  0  0
   10.0390   -0.7403   -0.3770 H   0  0  0  0  0  0  0  0  0  0  0  0
   10.8655    0.3415   -1.5658 H   0  0  0  0  0  0  0  0  0  0  0  0
    5.7489    0.3655   -2.7534 H   0  0  0  0  0  0  0  0  0  0  0  0
    0.3427   -2.8982    2.3074 H   0  0  0  0  0  0  0  0  0  0  0  0
   -2.0091   -3.7111    2.4943 H   0  0  0  0  0  0  0  0  0  0  0  0
   -6.3664   -4.1504   -1.7278 H   0  0  0  0  0  0  0  0  0  0  0  0
   -5.9420   -3.3637   -3.2728 H   0  0  0  0  0  0  0  0  0  0  0  0
  1  2  1  0
  2  3  1  0
  2  4  1  0
  4  5  2  0
  6  4  1  6
  6  7  1  0
  7  8  1  0
  8  9  1  0
  9 10  1  6
  9 11  1  0
 11 12  2  0
 12 13  1  0
 13 14  1  0
 14 15  2  0
 15 16  1  0
 15 17  1  0
 17 18  2  0
 18 19  1  0
 19 20  2  0
 20 21  1  0
 21 22  1  0
 22 23  1  0
 23 24  1  0
 24 25  1  0
 25 26  1  0
 20 27  1  0
 27 28  2  0
 13 29  2  0
 29 30  1  0
 30 31  2  0
 31 32  1  0
  9 33  1  0
 33 34  2  0
 34 35  1  0
 34 36  1  0
  8  6  1  0
 31 11  1  0
 36  6  1  0
 28 17  1  0
 26 23  1  0
  1 37  1  0
  1 38  1  0
  1 39  1  0
  3 40  1  0
  3 41  1  0
  3 42  1  0
  7 43  1  0
  7 44  1  0
  8 45  1  6
 10 46  1  0
 10 47  1  0
 10 48  1  0
 12 49  1  0
 14 50  1  0
 18 51  1  0
 22 52  1  0
 22 53  1  0
 23 54  1  0
 24 55  1  0
 24 56  1  0
 26 57  1  0
 26 58  1  0
 27 59  1  0
 29 60  1  0
 30 61  1  0
 35 62  1  0
 35 63  1  0
M  END
$$$$
