
     RDKit          3D

 67 70  0  0  0  0  0  0  0  0999 V2000
    4.4656   -1.5564   -0.5858 O   0  0  0  0  0  0  0  0  0  0  0  0
    3.7781   -0.5014   -0.3660 C   0  0  0  0  0  0  0  0  0  0  0  0
    3.2023   -0.4209    0.9308 N   0  0  0  0  0  0  0  0  0  0  0  0
    3.3843   -1.4711    1.9408 C   0  0  1  0  0  0  0  0  0  0  0  0
    4.2053   -0.8556    3.0451 C   0  0  0  0  0  0  0  0  0  0  0  0
    5.0739   -1.8356    3.7648 C   0  0  0  0  0  0  0  0  0  0  0  0
    4.3300   -2.5691    4.8661 C   0  0  0  0  0  0  0  0  0  0  0  0
    3.1304   -3.2579    4.2552 C   0  0  0  0  0  0  0  0  0  0  0  0
    2.0540   -2.2840    3.9118 C   0  0  0  0  0  0  0  0  0  0  0  0
    2.0580   -2.0014    2.4184 C   0  0  1  0  0  0  0  0  0  0  0  0
    0.9714   -1.2129    2.0195 O   0  0  0  0  0  0  0  0  0  0  0  0
   -0.0499   -1.6344    1.1874 C   0  0  0  0  0  0  0  0  0  0  0  0
    0.0134   -2.8108    0.7662 O   0  0  0  0  0  0  0  0  0  0  0  0
   -1.1632   -0.7903    0.7929 C   0  0  0  0  0  0  0  0  0  0  0  0
   -1.2953    0.5182    1.2210 C   0  0  0  0  0  0  0  0  0  0  0  0
   -2.3653    1.2668    0.8161 C   0  0  0  0  0  0  0  0  0  0  0  0
   -2.4769    2.5762    1.2580 O   0  0  0  0  0  0  0  0  0  0  0  0
   -3.3645    0.7789   -0.0287 C   0  0  0  0  0  0  0  0  0  0  0  0
   -4.5267    1.5413   -0.3487 C   0  0  0  0  0  0  0  0  0  0  0  0
   -4.8409    2.4697    0.4788 O   0  0  0  0  0  0  0  0  0  0  0  0
   -5.3885    1.3741   -1.4879 C   0  0  0  0  0  0  0  0  0  0  0  0
   -6.7799    1.5013   -1.2777 C   0  0  0  0  0  0  0  0  0  0  0  0
   -7.2319    1.7490   -0.0006 O   0  0  0  0  0  0  0  0  0  0  0  0
   -7.6748    1.3883   -2.2834 C   0  0  0  0  0  0  0  0  0  0  0  0
   -7.2794    1.1407   -3.5819 C   0  0  0  0  0  0  0  0  0  0  0  0
   -5.9314    1.0154   -3.8230 C   0  0  0  0  0  0  0  0  0  0  0  0
   -5.0008    1.1374   -2.7742 C   0  0  0  0  0  0  0  0  0  0  0  0
   -3.6310    1.2289   -3.1958 C   0  0  0  0  0  0  0  0  0  0  0  0
   -3.3187    0.8661   -4.3752 O   0  0  0  0  0  0  0  0  0  0  0  0
   -2.6406    1.7059   -2.3734 O   0  0  0  0  0  0  0  0  0  0  0  0
   -3.2064   -0.5467   -0.4445 C   0  0  0  0  0  0  0  0  0  0  0  0
   -4.1525   -1.1343   -1.2837 O   0  0  0  0  0  0  0  0  0  0  0  0
   -2.1240   -1.3159   -0.0406 C   0  0  0  0  0  0  0  0  0  0  0  0
    3.6407    0.4883   -1.4011 C   0  0  0  0  0  0  0  0  0  0  0  0
    4.2442    0.3011   -2.6163 C   0  0  0  0  0  0  0  0  0  0  0  0
    4.1234    1.2534   -3.6401 C   0  0  0  0  0  0  0  0  0  0  0  0
    3.3816    2.4018   -3.4185 C   0  0  0  0  0  0  0  0  0  0  0  0
    3.2636    3.3391   -4.4285 O   0  0  0  0  0  0  0  0  0  0  0  0
    2.7731    2.5934   -2.1973 C   0  0  0  0  0  0  0  0  0  0  0  0
    2.9087    1.6263   -1.1891 C   0  0  0  0  0  0  0  0  0  0  0  0
    2.6329    0.4250    1.1517 H   0  0  0  0  0  0  0  0  0  0  0  0
    4.0185   -2.2451    1.4612 H   0  0  0  0  0  0  0  0  0  0  0  0
    4.8963   -0.0892    2.5853 H   0  0  0  0  0  0  0  0  0  0  0  0
    3.6118   -0.3073    3.7862 H   0  0  0  0  0  0  0  0  0  0  0  0
    5.5086   -2.6198    3.0980 H   0  0  0  0  0  0  0  0  0  0  0  0
    5.8763   -1.2467    4.2812 H   0  0  0  0  0  0  0  0  0  0  0  0
    4.0038   -1.8731    5.6645 H   0  0  0  0  0  0  0  0  0  0  0  0
    4.9960   -3.3273    5.2813 H   0  0  0  0  0  0  0  0  0  0  0  0
    3.4549   -3.8147    3.3787 H   0  0  0  0  0  0  0  0  0  0  0  0
    2.7637   -3.9799    5.0376 H   0  0  0  0  0  0  0  0  0  0  0  0
    2.0420   -1.3810    4.5238 H   0  0  0  0  0  0  0  0  0  0  0  0
    1.0700   -2.8030    4.1079 H   0  0  0  0  0  0  0  0  0  0  0  0
    1.9172   -2.9945    1.9360 H   0  0  0  0  0  0  0  0  0  0  0  0
   -0.5171    0.8854    1.8740 H   0  0  0  0  0  0  0  0  0  0  0  0
   -2.3937    3.3776    0.6464 H   0  0  0  0  0  0  0  0  0  0  0  0
   -7.2450    2.6995    0.3777 H   0  0  0  0  0  0  0  0  0  0  0  0
   -8.7557    1.4816   -2.1518 H   0  0  0  0  0  0  0  0  0  0  0  0
   -7.9921    1.0469   -4.3864 H   0  0  0  0  0  0  0  0  0  0  0  0
   -5.5992    0.8182   -4.8473 H   0  0  0  0  0  0  0  0  0  0  0  0
   -1.7464    2.0407   -2.7099 H   0  0  0  0  0  0  0  0  0  0  0  0
   -5.0638   -1.3331   -0.8773 H   0  0  0  0  0  0  0  0  0  0  0  0
   -2.0831   -2.3288   -0.4120 H   0  0  0  0  0  0  0  0  0  0  0  0
    4.8403   -0.5642   -2.8742 H   0  0  0  0  0  0  0  0  0  0  0  0
    4.5984    1.1099   -4.6014 H   0  0  0  0  0  0  0  0  0  0  0  0
    4.0138    3.6102   -5.0502 H   0  0  0  0  0  0  0  0  0  0  0  0
    2.1935    3.4924   -2.0266 H   0  0  0  0  0  0  0  0  0  0  0  0
    2.3991    1.8578   -0.2648 H   0  0  0  0  0  0  0  0  0  0  0  0
  1  2  2  0
  2  3  1  0
  3  4  1  0
  4  5  1  0
  5  6  1  0
  6  7  1  0
  7  8  1  0
  8  9  1  0
  9 10  1  0
 10 11  1  0
 11 12  1  0
 12 13  2  0
 12 14  1  0
 14 15  2  0
 15 16  1  0
 16 17  1  0
 16 18  2  0
 18 19  1  0
 19 20  2  0
 19 21  1  0
 21 22  2  0
 22 23  1  0
 22 24  1  0
 24 25  2  0
 25 26  1  0
 26 27  2  0
 27 28  1  0
 28 29  2  0
 28 30  1  0
 18 31  1  0
 31 32  1  0
 31 33  2  0
  2 34  1  0
 34 35  2  0
 35 36  1  0
 36 37  2  0
 37 38  1  0
 37 39  1  0
 39 40  2  0
 10  4  1  0
 33 14  1  0
 40 34  1  0
 27 21  1  0
  3 41  1  0
  4 42  1  6
  5 43  1  0
  5 44  1  0
  6 45  1  0
  6 46  1  0
  7 47  1  0
  7 48  1  0
  8 49  1  0
  8 50  1  0
  9 51  1  0
  9 52  1  0
 10 53  1  6
 15 54  1  0
 17 55  1  0
 23 56  1  0
 24 57  1  0
 25 58  1  0
 26 59  1  0
 30 60  1  0
 32 61  1  0
 33 62  1  0
 35 63  1  0
 36 64  1  0
 38 65  1  0
 39 66  1  0
 40 67  1  0
M  END
$$$$
