
     RDKit          3D

 58 62  0  0  0  0  0  0  0  0999 V2000
   -2.4737    1.2686   -0.7540 N   0  0  0  0  0  0  0  0  0  0  0  0
   -1.1124    1.4145   -0.4262 C   0  0  0  0  0  0  0  0  0  0  0  0
   -0.2869    0.4506    0.1447 C   0  0  0  0  0  0  0  0  0  0  0  0
   -0.6653   -0.9131    0.5364 C   0  0  0  0  0  0  0  0  0  0  0  0
   -2.0839   -1.2318    0.3891 C   0  0  0  0  0  0  0  0  0  0  0  0
   -2.5792   -1.7645   -0.7782 C   0  0  0  0  0  0  0  0  0  0  0  0
   -3.9290   -2.0653   -0.8917 C   0  0  0  0  0  0  0  0  0  0  0  0
   -4.8170   -1.8523    0.1291 C   0  0  0  0  0  0  0  0  0  0  0  0
   -6.5218   -2.2457   -0.0444 S   0  0  0  0  0  6  0  0  0  0  0  0
   -7.4042   -0.8805   -0.6683 N   0  0  0  0  0  0  0  0  0  0  0  0
   -6.6928   -3.4329   -0.9821 O   0  0  0  0  0  0  0  0  0  0  0  0
   -7.0644   -2.6339    1.2857 O   0  0  0  0  0  0  0  0  0  0  0  0
   -4.3263   -1.3158    1.3079 C   0  0  0  0  0  0  0  0  0  0  0  0
   -2.9681   -1.0129    1.4226 C   0  0  0  0  0  0  0  0  0  0  0  0
    0.9647    0.9885    0.3023 C   0  0  0  0  0  0  0  0  0  0  0  0
    2.1954    0.4395    0.8613 C   0  0  0  0  0  0  0  0  0  0  0  0
    2.9265    1.1581    1.8105 C   0  0  0  0  0  0  0  0  0  0  0  0
    4.0947    0.6915    2.3541 C   0  0  0  0  0  0  0  0  0  0  0  0
    4.5691   -0.5431    1.9453 C   0  0  0  0  0  0  0  0  0  0  0  0
    3.8940   -1.2987    1.0134 C   0  0  0  0  0  0  0  0  0  0  0  0
    4.4133   -2.5806    0.6053 C   0  0  0  0  0  0  0  0  0  0  0  0
    5.7673   -2.7971    0.5724 C   0  0  0  0  0  0  0  0  0  0  0  0
    6.3042   -4.0236    0.1813 C   0  0  0  0  0  0  0  0  0  0  0  0
    5.4318   -5.0374   -0.1800 C   0  0  0  0  0  0  0  0  0  0  0  0
    4.0778   -4.8401   -0.1537 C   0  0  0  0  0  0  0  0  0  0  0  0
    3.5738   -3.6011    0.2427 C   0  0  0  0  0  0  0  0  0  0  0  0
    2.7051   -0.7704    0.4918 C   0  0  0  0  0  0  0  0  0  0  0  0
    0.8640    2.2628   -0.1768 N   0  0  0  0  0  0  0  0  0  0  0  0
   -0.3511    2.4949   -0.5965 N   0  0  0  0  0  0  0  0  0  0  0  0
   -0.7721    3.7597   -1.1503 C   0  0  0  0  0  0  0  0  0  0  0  0
    0.0091    4.8732   -1.3303 N   0  0  0  0  0  0  0  0  0  0  0  0
   -0.4465    5.9390   -1.8135 C   0  0  0  0  0  0  0  0  0  0  0  0
    0.4244    7.1581   -2.0086 C   0  0  0  0  0  0  0  0  0  0  0  0
   -0.0762    8.1972   -2.4853 O   0  0  0  0  0  0  0  0  0  0  0  0
    1.7452    7.1319   -1.6703 O   0  0  0  0  0  0  0  0  0  0  0  0
   -1.8198    6.0110   -2.1932 C   0  0  0  0  0  0  0  0  0  0  0  0
   -2.2679    4.2791   -1.7149 S   0  0  0  0  0  0  0  0  0  0  0  0
   -2.8629    0.9644   -1.6584 H   0  0  0  0  0  0  0  0  0  0  0  0
   -3.1856    1.4956    0.0024 H   0  0  0  0  0  0  0  0  0  0  0  0
   -0.1104   -1.6566   -0.0923 H   0  0  0  0  0  0  0  0  0  0  0  0
   -0.3195   -1.0937    1.5770 H   0  0  0  0  0  0  0  0  0  0  0  0
   -1.8889   -1.9390   -1.5963 H   0  0  0  0  0  0  0  0  0  0  0  0
   -4.3057   -2.4876   -1.8273 H   0  0  0  0  0  0  0  0  0  0  0  0
   -6.9500   -0.5879   -1.5826 H   0  0  0  0  0  0  0  0  0  0  0  0
   -8.3768   -1.2440   -0.8772 H   0  0  0  0  0  0  0  0  0  0  0  0
   -5.0211   -1.1483    2.1106 H   0  0  0  0  0  0  0  0  0  0  0  0
   -2.5991   -0.5958    2.3451 H   0  0  0  0  0  0  0  0  0  0  0  0
    2.5230    2.1117    2.1005 H   0  0  0  0  0  0  0  0  0  0  0  0
    4.6605    1.2707    3.1020 H   0  0  0  0  0  0  0  0  0  0  0  0
    5.5005   -0.8710    2.4047 H   0  0  0  0  0  0  0  0  0  0  0  0
    6.4090   -1.9858    0.8593 H   0  0  0  0  0  0  0  0  0  0  0  0
    7.3742   -4.1702    0.1633 H   0  0  0  0  0  0  0  0  0  0  0  0
    5.8791   -5.9924   -0.4844 H   0  0  0  0  0  0  0  0  0  0  0  0
    3.4230   -5.6364   -0.4374 H   0  0  0  0  0  0  0  0  0  0  0  0
    2.4932   -3.4631    0.2576 H   0  0  0  0  0  0  0  0  0  0  0  0
    2.1977   -1.3733   -0.2434 H   0  0  0  0  0  0  0  0  0  0  0  0
    2.2783    7.9998   -1.5471 H   0  0  0  0  0  0  0  0  0  0  0  0
   -2.4205    6.7253   -2.5935 H   0  0  0  0  0  0  0  0  0  0  0  0
  1  2  1  0
  2  3  2  0
  3  4  1  0
  4  5  1  0
  5  6  2  0
  6  7  1  0
  7  8  2  0
  8  9  1  0
  9 10  1  0
  9 11  2  0
  9 12  2  0
  8 13  1  0
 13 14  2  0
  3 15  1  0
 15 16  1  0
 16 17  2  0
 17 18  1  0
 18 19  2  0
 19 20  1  0
 20 21  1  0
 21 22  2  0
 22 23  1  0
 23 24  2  0
 24 25  1  0
 25 26  2  0
 20 27  2  0
 15 28  2  0
 28 29  1  0
 29 30  1  0
 30 31  2  0
 31 32  1  0
 32 33  1  0
 33 34  2  0
 33 35  1  0
 32 36  2  0
 36 37  1  0
 29  2  1  0
 37 30  1  0
 14  5  1  0
 27 16  1  0
 26 21  1  0
  1 38  1  0
  1 39  1  0
  4 40  1  0
  4 41  1  0
  6 42  1  0
  7 43  1  0
 10 44  1  0
 10 45  1  0
 13 46  1  0
 14 47  1  0
 17 48  1  0
 18 49  1  0
 19 50  1  0
 22 51  1  0
 23 52  1  0
 24 53  1  0
 25 54  1  0
 26 55  1  0
 27 56  1  0
 35 57  1  0
 36 58  1  0
M  END
$$$$
