
     RDKit          3D

 57 61  0  0  0  0  0  0  0  0999 V2000
   -6.1342   -1.9705    3.9841 C   0  0  0  0  0  0  0  0  0  0  0  0
   -5.7378   -2.1320    2.6048 N   0  0  0  0  0  0  0  0  0  0  0  0
   -4.4203   -2.5543    2.2377 C   0  0  0  0  0  0  0  0  0  0  0  0
   -3.6424   -2.7720    3.2152 O   0  0  0  0  0  0  0  0  0  0  0  0
   -4.0611   -2.7059    0.8201 C   0  0  2  0  0  0  0  0  0  0  0  0
   -2.7108   -3.1146    0.3575 C   0  0  0  0  0  0  0  0  0  0  0  0
   -3.1353   -1.7273    0.2100 C   0  0  1  0  0  0  0  0  0  0  0  0
   -3.6348   -1.0675   -1.0146 C   0  0  1  0  0  0  0  0  0  0  0  0
   -4.7895   -0.1613   -0.5761 C   0  0  0  0  0  0  0  0  0  0  0  0
   -2.5582   -0.2293   -1.6310 C   0  0  0  0  0  0  0  0  0  0  0  0
   -1.2516   -0.2556   -1.1720 C   0  0  0  0  0  0  0  0  0  0  0  0
   -0.2840    0.4980   -1.8048 C   0  0  0  0  0  0  0  0  0  0  0  0
    1.1328    0.5816   -1.3898 C   0  0  0  0  0  0  0  0  0  0  0  0
    1.5045    0.7559   -0.1725 C   0  0  0  0  0  0  0  0  0  0  0  0
    0.6256    0.8626    0.8222 F   0  0  0  0  0  0  0  0  0  0  0  0
    2.9370    0.9882    0.1212 C   0  0  0  0  0  0  0  0  0  0  0  0
    3.9159    0.9556   -0.8057 C   0  0  0  0  0  0  0  0  0  0  0  0
    5.1881    1.3592   -0.5373 N   0  0  0  0  0  0  0  0  0  0  0  0
    5.5292    1.8118    0.6667 C   0  0  0  0  0  0  0  0  0  0  0  0
    6.8118    2.3420    1.0356 C   0  0  0  0  0  0  0  0  0  0  0  0
    7.8671    2.7581    1.3461 C   0  0  0  0  0  0  0  0  0  0  0  0
    9.2026    3.3109    1.7521 C   0  0  0  0  0  0  0  0  0  0  0  0
    9.7089    4.5043    0.8765 C   0  0  0  0  0  0  0  0  0  0  0  0
   10.3418    3.1801    0.8089 C   0  0  0  0  0  0  0  0  0  0  0  0
    4.5298    1.8449    1.6278 C   0  0  0  0  0  0  0  0  0  0  0  0
    3.2718    1.4501    1.3765 N   0  0  0  0  0  0  0  0  0  0  0  0
   -0.6129    1.2746   -2.8831 C   0  0  0  0  0  0  0  0  0  0  0  0
   -1.8977    1.3216   -3.3583 C   0  0  0  0  0  0  0  0  0  0  0  0
   -2.8771    0.5535   -2.7137 C   0  0  0  0  0  0  0  0  0  0  0  0
   -4.1471    0.5707   -3.1550 F   0  0  0  0  0  0  0  0  0  0  0  0
   -4.0549   -1.9235   -2.0820 N   0  0  0  0  0  0  0  0  0  0  0  0
   -4.8366   -2.9022   -1.9368 C   0  0  0  0  0  0  0  0  0  0  0  0
   -5.2707   -3.7783   -2.9947 N   0  0  0  0  0  0  0  0  0  0  0  0
   -5.4361   -3.2178   -0.2591 S   0  0  0  0  0  0  0  0  0  0  0  0
   -7.2404   -1.9181    4.0542 H   0  0  0  0  0  0  0  0  0  0  0  0
   -5.7313   -0.9843    4.3279 H   0  0  0  0  0  0  0  0  0  0  0  0
   -5.7229   -2.7695    4.6163 H   0  0  0  0  0  0  0  0  0  0  0  0
   -6.4300   -1.9412    1.8642 H   0  0  0  0  0  0  0  0  0  0  0  0
   -2.5900   -3.7975   -0.5180 H   0  0  0  0  0  0  0  0  0  0  0  0
   -1.9999   -3.3953    1.1838 H   0  0  0  0  0  0  0  0  0  0  0  0
   -2.6745   -1.0097    0.9649 H   0  0  0  0  0  0  0  0  0  0  0  0
   -5.4148   -0.7635    0.1112 H   0  0  0  0  0  0  0  0  0  0  0  0
   -4.4248    0.7002    0.0090 H   0  0  0  0  0  0  0  0  0  0  0  0
   -5.4441    0.1341   -1.4099 H   0  0  0  0  0  0  0  0  0  0  0  0
   -0.9803   -0.8660   -0.3210 H   0  0  0  0  0  0  0  0  0  0  0  0
    1.8489    0.4758   -2.1956 H   0  0  0  0  0  0  0  0  0  0  0  0
    3.7568    0.5971   -1.8118 H   0  0  0  0  0  0  0  0  0  0  0  0
    9.3371    3.4084    2.8222 H   0  0  0  0  0  0  0  0  0  0  0  0
    8.9703    4.8028    0.0724 H   0  0  0  0  0  0  0  0  0  0  0  0
   10.1415    5.3397    1.4329 H   0  0  0  0  0  0  0  0  0  0  0  0
   10.1364    2.5437   -0.0974 H   0  0  0  0  0  0  0  0  0  0  0  0
   11.3460    3.1149    1.2681 H   0  0  0  0  0  0  0  0  0  0  0  0
    4.7767    2.1941    2.6488 H   0  0  0  0  0  0  0  0  0  0  0  0
    0.1829    1.8798   -3.3825 H   0  0  0  0  0  0  0  0  0  0  0  0
   -2.1695    1.9246   -4.2036 H   0  0  0  0  0  0  0  0  0  0  0  0
   -4.5590   -3.9557   -3.7646 H   0  0  0  0  0  0  0  0  0  0  0  0
   -6.1892   -4.2259   -3.0480 H   0  0  0  0  0  0  0  0  0  0  0  0
  1  2  1  0
  2  3  1  0
  3  4  2  0
  5  3  1  1
  5  6  1  0
  6  7  1  0
  7  8  1  0
  8  9  1  1
  8 10  1  0
 10 11  2  0
 11 12  1  0
 12 13  1  0
 13 14  2  0
 14 15  1  0
 14 16  1  0
 16 17  2  0
 17 18  1  0
 18 19  2  0
 19 20  1  0
 20 21  3  0
 21 22  1  0
 22 23  1  0
 23 24  1  0
 19 25  1  0
 25 26  2  0
 12 27  2  0
 27 28  1  0
 28 29  2  0
 29 30  1  0
  8 31  1  0
 31 32  2  0
 32 33  1  0
 32 34  1  0
  7  5  1  0
 29 10  1  0
 34  5  1  0
 26 16  1  0
 24 22  1  0
  1 35  1  0
  1 36  1  0
  1 37  1  0
  2 38  1  0
  6 39  1  0
  6 40  1  0
  7 41  1  1
  9 42  1  0
  9 43  1  0
  9 44  1  0
 11 45  1  0
 13 46  1  0
 17 47  1  0
 22 48  1  0
 23 49  1  0
 23 50  1  0
 24 51  1  0
 24 52  1  0
 25 53  1  0
 27 54  1  0
 28 55  1  0
 33 56  1  0
 33 57  1  0
M  END
$$$$
