
     RDKit          3D

 47 51  0  0  0  0  0  0  0  0999 V2000
   -9.1133   -2.1762   -0.0214 O   0  0  0  0  0  0  0  0  0  0  0  0
   -8.9578   -0.9188   -0.0130 C   0  0  0  0  0  0  0  0  0  0  0  0
   -9.1920   -0.2436    1.1704 O   0  0  0  0  0  0  0  0  0  0  0  0
   -8.5277   -0.2044   -1.2632 C   0  0  0  0  0  0  0  0  0  0  0  0
   -7.1517    0.2280   -1.0809 N   0  0  0  0  0  0  0  0  0  0  0  0
   -6.7889    1.4066   -0.6035 N   0  0  0  0  0  0  0  0  0  0  0  0
   -5.4721    1.4359   -0.5425 N   0  0  0  0  0  0  0  0  0  0  0  0
   -4.9930    0.2776   -0.9811 C   0  0  0  0  0  0  0  0  0  0  0  0
   -3.6064   -0.1594   -1.0796 C   0  0  0  0  0  0  0  0  0  0  0  0
   -2.5814    0.3435   -0.2886 C   0  0  0  0  0  0  0  0  0  0  0  0
   -1.4159   -0.3102   -0.6677 C   0  0  0  0  0  0  0  0  0  0  0  0
   -0.1278   -0.1069   -0.1100 N   0  0  0  0  0  0  0  0  0  0  0  0
    0.4143   -0.8450    0.9980 C   0  0  0  0  0  0  0  0  0  0  0  0
    1.7702   -0.2778    1.2539 C   0  0  0  0  0  0  0  0  0  0  0  0
    2.8604   -0.9338    0.4094 C   0  0  0  0  0  0  0  0  0  0  0  0
    3.8431    0.1270    0.3347 N   0  0  0  0  0  0  0  0  0  0  0  0
    5.2588    0.0693    0.3315 C   0  0  0  0  0  0  0  0  0  0  0  0
    6.0384    0.7058    1.3001 C   0  0  0  0  0  0  0  0  0  0  0  0
    7.4102    0.6323    1.2733 C   0  0  0  0  0  0  0  0  0  0  0  0
    8.1295    1.2738    2.2247 F   0  0  0  0  0  0  0  0  0  0  0  0
    8.0831   -0.0656    0.3009 C   0  0  0  0  0  0  0  0  0  0  0  0
    7.3362   -0.7044   -0.6678 C   0  0  0  0  0  0  0  0  0  0  0  0
    5.9466   -0.6255   -0.6360 C   0  0  0  0  0  0  0  0  0  0  0  0
    5.0130   -1.4387   -1.8813 Cl  0  0  0  0  0  0  0  0  0  0  0  0
    3.1184    1.4005    0.2583 C   0  0  0  0  0  0  0  0  0  0  0  0
    1.7137    1.1031    0.6605 C   0  0  0  0  0  0  0  0  0  0  0  0
    0.8380    0.8782   -0.5637 C   0  0  0  0  0  0  0  0  0  0  0  0
   -1.7919   -1.1573   -1.6504 N   0  0  0  0  0  0  0  0  0  0  0  0
   -3.0880   -1.0427   -1.8677 O   0  0  0  0  0  0  0  0  0  0  0  0
   -6.0716   -0.4804   -1.3216 N   0  0  0  0  0  0  0  0  0  0  0  0
   -8.7631   -0.6291    2.0210 H   0  0  0  0  0  0  0  0  0  0  0  0
   -9.1937    0.6713   -1.4487 H   0  0  0  0  0  0  0  0  0  0  0  0
   -8.6367   -0.8902   -2.1145 H   0  0  0  0  0  0  0  0  0  0  0  0
   -2.6723    1.1036    0.4771 H   0  0  0  0  0  0  0  0  0  0  0  0
   -0.2139   -0.5865    1.8823 H   0  0  0  0  0  0  0  0  0  0  0  0
    0.4394   -1.9428    0.8107 H   0  0  0  0  0  0  0  0  0  0  0  0
    2.0431   -0.2862    2.3344 H   0  0  0  0  0  0  0  0  0  0  0  0
    2.4138   -1.1954   -0.5530 H   0  0  0  0  0  0  0  0  0  0  0  0
    3.2340   -1.8522    0.9045 H   0  0  0  0  0  0  0  0  0  0  0  0
    5.4892    1.2519    2.0584 H   0  0  0  0  0  0  0  0  0  0  0  0
    9.1831   -0.1265    0.2765 H   0  0  0  0  0  0  0  0  0  0  0  0
    7.8749   -1.2618   -1.4379 H   0  0  0  0  0  0  0  0  0  0  0  0
    3.5494    2.0687    1.0573 H   0  0  0  0  0  0  0  0  0  0  0  0
    3.2223    1.8502   -0.7289 H   0  0  0  0  0  0  0  0  0  0  0  0
    1.2704    1.8111    1.3623 H   0  0  0  0  0  0  0  0  0  0  0  0
    1.4940    0.4756   -1.3697 H   0  0  0  0  0  0  0  0  0  0  0  0
    0.3717    1.8475   -0.8076 H   0  0  0  0  0  0  0  0  0  0  0  0
  1  2  2  0
  2  3  1  0
  2  4  1  0
  4  5  1  0
  5  6  1  0
  6  7  2  0
  7  8  1  0
  8  9  1  0
  9 10  2  0
 10 11  1  0
 11 12  1  0
 12 13  1  0
 13 14  1  0
 14 15  1  0
 15 16  1  0
 16 17  1  0
 17 18  2  0
 18 19  1  0
 19 20  1  0
 19 21  2  0
 21 22  1  0
 22 23  2  0
 23 24  1  0
 16 25  1  0
 25 26  1  0
 26 27  1  0
 11 28  2  0
 28 29  1  0
  8 30  2  0
 30  5  1  0
 29  9  1  0
 27 12  1  0
 26 14  1  0
 23 17  1  0
  3 31  1  0
  4 32  1  0
  4 33  1  0
 10 34  1  0
 13 35  1  0
 13 36  1  0
 14 37  1  0
 15 38  1  0
 15 39  1  0
 18 40  1  0
 21 41  1  0
 22 42  1  0
 25 43  1  0
 25 44  1  0
 26 45  1  0
 27 46  1  0
 27 47  1  0
M  END
$$$$
