
     RDKit          3D

 26 25  0  0  0  0  0  0  0  0999 V2000
    4.1754   -0.0035   -0.0890 C   0  0  0  0  0  0  0  0  0  0  0  0
    2.8477   -0.6774   -0.2673 C   0  0  0  0  0  0  0  0  0  0  0  0
    1.7115    0.2703   -0.0092 C   0  0  0  0  0  0  0  0  0  0  0  0
    1.9208    1.4328    0.3034 O   0  0  0  0  0  0  0  0  0  0  0  0
    0.3381   -0.2911   -0.1570 C   0  0  0  0  0  0  0  0  0  0  0  0
   -0.7161    0.7414    0.1236 C   0  0  0  0  0  0  0  0  0  0  0  0
   -2.0714    0.0636   -0.0556 C   0  0  0  0  0  0  0  0  0  0  0  0
   -3.1248    1.0859    0.2223 C   0  0  0  0  0  0  0  0  0  0  0  0
   -2.1944   -1.1517    0.8336 C   0  0  0  0  0  0  0  0  0  0  0  0
   -2.0956   -0.4044   -1.3653 O   0  0  0  0  0  0  0  0  0  0  0  0
    4.7754   -0.0069   -1.0427 H   0  0  0  0  0  0  0  0  0  0  0  0
    4.7515   -0.5654    0.6645 H   0  0  0  0  0  0  0  0  0  0  0  0
    4.0645    1.0661    0.1913 H   0  0  0  0  0  0  0  0  0  0  0  0
    2.8092   -1.1274   -1.2672 H   0  0  0  0  0  0  0  0  0  0  0  0
    2.7052   -1.4967    0.4938 H   0  0  0  0  0  0  0  0  0  0  0  0
    0.2454   -0.5659   -1.2393 H   0  0  0  0  0  0  0  0  0  0  0  0
    0.2392   -1.1540    0.5100 H   0  0  0  0  0  0  0  0  0  0  0  0
   -0.6275    1.1715    1.1381 H   0  0  0  0  0  0  0  0  0  0  0  0
   -0.6343    1.5466   -0.6089 H   0  0  0  0  0  0  0  0  0  0  0  0
   -4.0694    0.6529    0.6176 H   0  0  0  0  0  0  0  0  0  0  0  0
   -2.7897    1.8086    1.0223 H   0  0  0  0  0  0  0  0  0  0  0  0
   -3.2946    1.6874   -0.6993 H   0  0  0  0  0  0  0  0  0  0  0  0
   -3.2923   -1.2654    1.0328 H   0  0  0  0  0  0  0  0  0  0  0  0
   -1.5939   -1.0610    1.7662 H   0  0  0  0  0  0  0  0  0  0  0  0
   -1.8280   -2.0833    0.3129 H   0  0  0  0  0  0  0  0  0  0  0  0
   -2.2519    0.3272   -2.0248 H   0  0  0  0  0  0  0  0  0  0  0  0
  1  2  1  0
  2  3  1  0
  3  4  2  0
  3  5  1  0
  5  6  1  0
  6  7  1  0
  7  8  1  0
  7  9  1  0
  7 10  1  0
  1 11  1  0
  1 12  1  0
  1 13  1  0
  2 14  1  0
  2 15  1  0
  5 16  1  0
  5 17  1  0
  6 18  1  0
  6 19  1  0
  8 20  1  0
  8 21  1  0
  8 22  1  0
  9 23  1  0
  9 24  1  0
  9 25  1  0
 10 26  1  0
M  END
$$$$
