
     RDKit          3D

 44 46  0  0  0  0  0  0  0  0999 V2000
    7.0472    1.8141   -0.4516 C   0  0  0  0  0  0  0  0  0  0  0  0
    6.4219    0.9898    0.5098 O   0  0  0  0  0  0  0  0  0  0  0  0
    5.1383    0.4919    0.3681 C   0  0  0  0  0  0  0  0  0  0  0  0
    4.9171   -0.7303   -0.2505 C   0  0  0  0  0  0  0  0  0  0  0  0
    6.0423   -1.4007   -0.7052 O   0  0  0  0  0  0  0  0  0  0  0  0
    3.6489   -1.2456   -0.4027 C   0  0  0  0  0  0  0  0  0  0  0  0
    2.5503   -0.5514    0.0619 C   0  0  0  0  0  0  0  0  0  0  0  0
    1.2177   -1.1275   -0.1161 C   0  0  0  0  0  0  0  0  0  0  0  0
    0.6398   -2.0826   -0.5621 N   0  0  0  0  0  0  0  0  0  0  0  0
   -0.6029   -2.3387   -0.5811 N   0  0  0  0  0  0  0  0  0  0  0  0
   -1.1397   -3.5877   -1.1842 C   0  0  0  0  0  0  0  0  0  0  0  0
   -1.4363   -1.4456   -0.0370 C   0  0  0  0  0  0  0  0  0  0  0  0
   -2.6750   -1.3497    0.1277 N   0  0  0  0  0  0  0  0  0  0  0  0
   -3.3216   -0.2274    0.7744 C   0  0  0  0  0  0  0  0  0  0  0  0
   -3.0420    1.0821    0.1015 C   0  0  0  0  0  0  0  0  0  0  0  0
   -4.2180    2.0013    0.3802 C   0  0  0  0  0  0  0  0  0  0  0  0
   -5.4525    1.5706   -0.3777 C   0  0  0  0  0  0  0  0  0  0  0  0
   -5.3609    0.0681   -0.5731 C   0  0  0  0  0  0  0  0  0  0  0  0
   -4.8158   -0.4961    0.7420 C   0  0  0  0  0  0  0  0  0  0  0  0
   -0.2674   -0.1619    0.5262 S   0  0  0  0  0  0  0  0  0  0  0  0
    2.7625    0.6588    0.6751 C   0  0  0  0  0  0  0  0  0  0  0  0
    4.0315    1.1738    0.8271 C   0  0  0  0  0  0  0  0  0  0  0  0
    4.2150    2.4029    1.4528 O   0  0  0  0  0  0  0  0  0  0  0  0
    7.4787    2.7375    0.0164 H   0  0  0  0  0  0  0  0  0  0  0  0
    7.8727    1.2606   -0.9337 H   0  0  0  0  0  0  0  0  0  0  0  0
    6.2589    2.1003   -1.1927 H   0  0  0  0  0  0  0  0  0  0  0  0
    6.8715   -0.9257   -1.0106 H   0  0  0  0  0  0  0  0  0  0  0  0
    3.4817   -2.2154   -0.8944 H   0  0  0  0  0  0  0  0  0  0  0  0
   -0.4983   -3.9752   -1.9731 H   0  0  0  0  0  0  0  0  0  0  0  0
   -2.1327   -3.3873   -1.6334 H   0  0  0  0  0  0  0  0  0  0  0  0
   -1.2279   -4.3535   -0.3936 H   0  0  0  0  0  0  0  0  0  0  0  0
   -3.0394   -0.1432    1.8413 H   0  0  0  0  0  0  0  0  0  0  0  0
   -2.8098    0.9998   -0.9625 H   0  0  0  0  0  0  0  0  0  0  0  0
   -2.1552    1.5585    0.5888 H   0  0  0  0  0  0  0  0  0  0  0  0
   -3.9734    3.0596    0.1847 H   0  0  0  0  0  0  0  0  0  0  0  0
   -4.4575    1.9002    1.4634 H   0  0  0  0  0  0  0  0  0  0  0  0
   -5.5528    2.0926   -1.3582 H   0  0  0  0  0  0  0  0  0  0  0  0
   -6.3749    1.7575    0.2332 H   0  0  0  0  0  0  0  0  0  0  0  0
   -6.3464   -0.3533   -0.8006 H   0  0  0  0  0  0  0  0  0  0  0  0
   -4.6913   -0.1354   -1.4114 H   0  0  0  0  0  0  0  0  0  0  0  0
   -5.3354    0.0606    1.5528 H   0  0  0  0  0  0  0  0  0  0  0  0
   -5.0736   -1.5470    0.8537 H   0  0  0  0  0  0  0  0  0  0  0  0
    1.9135    1.2256    1.0501 H   0  0  0  0  0  0  0  0  0  0  0  0
    3.4910    2.7749    2.0479 H   0  0  0  0  0  0  0  0  0  0  0  0
  1  2  1  0
  2  3  1  0
  3  4  2  0
  4  5  1  0
  4  6  1  0
  6  7  2  0
  7  8  1  0
  8  9  2  0
  9 10  1  0
 10 11  1  0
 10 12  1  0
 12 13  2  0
 13 14  1  0
 14 15  1  0
 15 16  1  0
 16 17  1  0
 17 18  1  0
 18 19  1  0
 12 20  1  0
  7 21  1  0
 21 22  2  0
 22 23  1  0
 22  3  1  0
 20  8  1  0
 19 14  1  0
  1 24  1  0
  1 25  1  0
  1 26  1  0
  5 27  1  0
  6 28  1  0
 11 29  1  0
 11 30  1  0
 11 31  1  0
 14 32  1  0
 15 33  1  0
 15 34  1  0
 16 35  1  0
 16 36  1  0
 17 37  1  0
 17 38  1  0
 18 39  1  0
 18 40  1  0
 19 41  1  0
 19 42  1  0
 21 43  1  0
 23 44  1  0
M  END
$$$$
