
     RDKit          3D

 69 71  0  0  0  0  0  0  0  0999 V2000
    7.7830    0.3151   -0.0723 C   0  0  0  0  0  0  0  0  0  0  0  0
    6.8921    0.7664   -1.1181 N   0  0  0  0  0  0  0  0  0  0  0  0
    7.3371    2.0461   -1.6311 C   0  0  0  0  0  0  0  0  0  0  0  0
    5.5397    0.9155   -0.6375 C   0  0  0  0  0  0  0  0  0  0  0  0
    4.9282   -0.4283   -0.3117 C   0  0  0  0  0  0  0  0  0  0  0  0
    3.5567   -0.2316    0.1727 N   0  0  0  0  0  0  0  0  0  0  0  0
    2.5303   -0.2300   -0.8293 C   0  0  0  0  0  0  0  0  0  0  0  0
    1.2509   -0.8451   -0.2187 C   0  0  0  0  0  0  0  0  0  0  0  0
    0.6349    0.0341    0.7035 N   0  0  0  0  0  0  0  0  0  0  0  0
   -0.6738   -0.0862    1.1037 C   0  0  0  0  0  0  0  0  0  0  0  0
   -1.0880    0.8452    1.9268 O   0  0  0  0  0  0  0  0  0  0  0  0
   -1.7073   -1.0811    0.7690 C   0  0  0  0  0  0  0  0  0  0  0  0
   -1.4574   -2.2865    0.2422 C   0  0  0  0  0  0  0  0  0  0  0  0
   -2.5046   -3.1507    0.0138 C   0  0  0  0  0  0  0  0  0  0  0  0
   -2.5010   -4.5420   -0.5611 C   0  0  0  0  0  0  0  0  0  0  0  0
   -3.9117   -5.0856   -0.5957 C   0  0  0  0  0  0  0  0  0  0  0  0
   -2.0007   -4.5296   -1.9887 C   0  0  0  0  0  0  0  0  0  0  0  0
   -1.6639   -5.4885    0.2625 C   0  0  0  0  0  0  0  0  0  0  0  0
   -3.9119   -2.2300    0.5666 S   0  0  0  0  0  0  0  0  0  0  0  0
   -3.0395   -0.7852    1.0550 C   0  0  0  0  0  0  0  0  0  0  0  0
   -3.6172    0.3913    1.6009 N   0  0  0  0  0  0  0  0  0  0  0  0
   -4.0317    1.4651    0.7680 C   0  0  0  0  0  0  0  0  0  0  0  0
   -3.8772    1.3585   -0.4789 O   0  0  0  0  0  0  0  0  0  0  0  0
   -4.6112    2.6535    1.2610 N   0  0  0  0  0  0  0  0  0  0  0  0
   -5.0313    3.7423    0.4603 C   0  0  0  0  0  0  0  0  0  0  0  0
   -4.1686    4.7639    0.1666 C   0  0  0  0  0  0  0  0  0  0  0  0
   -4.5766    5.8444   -0.6239 C   0  0  0  0  0  0  0  0  0  0  0  0
   -5.8580    5.9001   -1.1228 C   0  0  0  0  0  0  0  0  0  0  0  0
   -6.7221    4.8741   -0.8275 C   0  0  0  0  0  0  0  0  0  0  0  0
   -8.3604    4.9168   -1.4484 Cl  0  0  0  0  0  0  0  0  0  0  0  0
   -6.3094    3.7940   -0.0354 C   0  0  0  0  0  0  0  0  0  0  0  0
   -7.3957    2.4883    0.3450 Cl  0  0  0  0  0  0  0  0  0  0  0  0
    1.3475    1.1680    1.3408 C   0  0  0  0  0  0  0  0  0  0  0  0
    2.3811    0.6367    2.3139 C   0  0  0  0  0  0  0  0  0  0  0  0
    3.4750   -0.0665    1.5796 C   0  0  0  0  0  0  0  0  0  0  0  0
    4.4018   -0.5538    2.2583 O   0  0  0  0  0  0  0  0  0  0  0  0
    7.2561    0.0629    0.8621 H   0  0  0  0  0  0  0  0  0  0  0  0
    8.3915   -0.5392   -0.4479 H   0  0  0  0  0  0  0  0  0  0  0  0
    8.4870    1.1441    0.1651 H   0  0  0  0  0  0  0  0  0  0  0  0
    6.6266    2.3149   -2.4656 H   0  0  0  0  0  0  0  0  0  0  0  0
    7.2020    2.7981   -0.8368 H   0  0  0  0  0  0  0  0  0  0  0  0
    8.3848    2.0131   -2.0035 H   0  0  0  0  0  0  0  0  0  0  0  0
    4.9143    1.4337   -1.3975 H   0  0  0  0  0  0  0  0  0  0  0  0
    5.5795    1.5628    0.2610 H   0  0  0  0  0  0  0  0  0  0  0  0
    4.9453   -1.0708   -1.2011 H   0  0  0  0  0  0  0  0  0  0  0  0
    5.5287   -0.9080    0.4713 H   0  0  0  0  0  0  0  0  0  0  0  0
    2.8121   -0.9266   -1.6502 H   0  0  0  0  0  0  0  0  0  0  0  0
    2.3461    0.7955   -1.1825 H   0  0  0  0  0  0  0  0  0  0  0  0
    1.6000   -1.7928    0.2081 H   0  0  0  0  0  0  0  0  0  0  0  0
    0.5479   -1.0259   -1.0610 H   0  0  0  0  0  0  0  0  0  0  0  0
   -0.4457   -2.6999   -0.0234 H   0  0  0  0  0  0  0  0  0  0  0  0
   -4.4398   -4.8492   -1.5425 H   0  0  0  0  0  0  0  0  0  0  0  0
   -4.4581   -4.7395    0.3072 H   0  0  0  0  0  0  0  0  0  0  0  0
   -3.8359   -6.1909   -0.5396 H   0  0  0  0  0  0  0  0  0  0  0  0
   -2.3141   -3.6154   -2.5255 H   0  0  0  0  0  0  0  0  0  0  0  0
   -2.4444   -5.4274   -2.4899 H   0  0  0  0  0  0  0  0  0  0  0  0
   -0.8983   -4.6970   -2.0372 H   0  0  0  0  0  0  0  0  0  0  0  0
   -0.7150   -5.7332   -0.2643 H   0  0  0  0  0  0  0  0  0  0  0  0
   -1.5030   -5.1040    1.2883 H   0  0  0  0  0  0  0  0  0  0  0  0
   -2.2053   -6.4687    0.4070 H   0  0  0  0  0  0  0  0  0  0  0  0
   -3.7477    0.4883    2.6323 H   0  0  0  0  0  0  0  0  0  0  0  0
   -4.7313    2.7168    2.3028 H   0  0  0  0  0  0  0  0  0  0  0  0
   -3.1618    4.7134    0.5630 H   0  0  0  0  0  0  0  0  0  0  0  0
   -3.8840    6.6410   -0.8458 H   0  0  0  0  0  0  0  0  0  0  0  0
   -6.1930    6.7313   -1.7385 H   0  0  0  0  0  0  0  0  0  0  0  0
    1.8838    1.7330    0.5601 H   0  0  0  0  0  0  0  0  0  0  0  0
    0.6796    1.8288    1.8866 H   0  0  0  0  0  0  0  0  0  0  0  0
    2.8176    1.5161    2.8265 H   0  0  0  0  0  0  0  0  0  0  0  0
    1.9356   -0.0038    3.1021 H   0  0  0  0  0  0  0  0  0  0  0  0
  1  2  1  0
  2  3  1  0
  2  4  1  0
  4  5  1  0
  5  6  1  0
  6  7  1  0
  7  8  1  0
  8  9  1  0
  9 10  1  0
 10 11  2  0
 10 12  1  0
 12 13  1  0
 13 14  2  0
 14 15  1  0
 15 16  1  0
 15 17  1  0
 15 18  1  0
 14 19  1  0
 19 20  1  0
 20 21  1  0
 21 22  1  0
 22 23  2  0
 22 24  1  0
 24 25  1  0
 25 26  2  0
 26 27  1  0
 27 28  2  0
 28 29  1  0
 29 30  1  0
 29 31  2  0
 31 32  1  0
  9 33  1  0
 33 34  1  0
 34 35  1  0
 35 36  2  0
 35  6  1  0
 20 12  2  0
 31 25  1  0
  1 37  1  0
  1 38  1  0
  1 39  1  0
  3 40  1  0
  3 41  1  0
  3 42  1  0
  4 43  1  0
  4 44  1  0
  5 45  1  0
  5 46  1  0
  7 47  1  0
  7 48  1  0
  8 49  1  0
  8 50  1  0
 13 51  1  0
 16 52  1  0
 16 53  1  0
 16 54  1  0
 17 55  1  0
 17 56  1  0
 17 57  1  0
 18 58  1  0
 18 59  1  0
 18 60  1  0
 21 61  1  0
 24 62  1  0
 26 63  1  0
 27 64  1  0
 28 65  1  0
 33 66  1  0
 33 67  1  0
 34 68  1  0
 34 69  1  0
M  END
$$$$
