
     RDKit          3D

 29 28  0  0  0  0  0  0  0  0999 V2000
    4.7010    0.6542   -0.2320 C   0  0  0  0  0  0  0  0  0  0  0  0
    3.3460    0.6415   -0.9444 C   0  0  0  0  0  0  0  0  0  0  0  0
    2.3771    0.0382    0.0529 C   0  0  0  0  0  0  0  0  0  0  0  0
    0.9960   -0.0213   -0.5551 C   0  0  0  0  0  0  0  0  0  0  0  0
   -0.0988   -0.7529    0.6983 P   0  0  0  0  0  0  0  0  0  0  0  0
    0.4779   -0.2858    2.2259 O   0  0  0  0  0  0  0  0  0  0  0  0
   -0.0316   -2.2493    0.5503 O   0  0  0  0  0  0  0  0  0  0  0  0
   -1.7739   -0.1099    0.5197 C   0  0  0  0  0  0  0  0  0  0  0  0
   -2.7727   -1.2329    0.2525 C   0  0  0  0  0  0  0  0  0  0  0  0
   -4.1339   -0.5822    0.1211 C   0  0  0  0  0  0  0  0  0  0  0  0
   -4.1183    0.3355   -0.9450 N   0  0  0  0  0  0  0  0  0  0  0  0
    5.0547   -0.3976   -0.1802 H   0  0  0  0  0  0  0  0  0  0  0  0
    4.4721    1.0057    0.8156 H   0  0  0  0  0  0  0  0  0  0  0  0
    5.3957    1.3549   -0.6968 H   0  0  0  0  0  0  0  0  0  0  0  0
    3.0776    1.6402   -1.2929 H   0  0  0  0  0  0  0  0  0  0  0  0
    3.3701   -0.0553   -1.8140 H   0  0  0  0  0  0  0  0  0  0  0  0
    2.3004    0.6970    0.9411 H   0  0  0  0  0  0  0  0  0  0  0  0
    2.7173   -0.9717    0.2892 H   0  0  0  0  0  0  0  0  0  0  0  0
    0.9820   -0.5711   -1.5101 H   0  0  0  0  0  0  0  0  0  0  0  0
    0.6152    1.0072   -0.7514 H   0  0  0  0  0  0  0  0  0  0  0  0
    0.0264    0.5453    2.5406 H   0  0  0  0  0  0  0  0  0  0  0  0
   -1.8001    0.5781   -0.3586 H   0  0  0  0  0  0  0  0  0  0  0  0
   -2.1066    0.4834    1.3930 H   0  0  0  0  0  0  0  0  0  0  0  0
   -2.7273   -2.0138    1.0130 H   0  0  0  0  0  0  0  0  0  0  0  0
   -2.5265   -1.6107   -0.7754 H   0  0  0  0  0  0  0  0  0  0  0  0
   -4.3225   -0.0791    1.1119 H   0  0  0  0  0  0  0  0  0  0  0  0
   -4.9382   -1.3297   -0.0481 H   0  0  0  0  0  0  0  0  0  0  0  0
   -3.6794    1.2467   -0.7935 H   0  0  0  0  0  0  0  0  0  0  0  0
   -4.8798    0.2936   -1.6277 H   0  0  0  0  0  0  0  0  0  0  0  0
  1  2  1  0
  2  3  1  0
  3  4  1  0
  4  5  1  0
  5  6  1  0
  5  7  2  0
  5  8  1  0
  8  9  1  0
  9 10  1  0
 10 11  1  0
  1 12  1  0
  1 13  1  0
  1 14  1  0
  2 15  1  0
  2 16  1  0
  3 17  1  0
  3 18  1  0
  4 19  1  0
  4 20  1  0
  6 21  1  0
  8 22  1  0
  8 23  1  0
  9 24  1  0
  9 25  1  0
 10 26  1  0
 10 27  1  0
 11 28  1  0
 11 29  1  0
M  END
$$$$
