
     RDKit          3D

 60 64  0  0  0  0  0  0  0  0999 V2000
    2.0434    0.9893    0.0090 C   0  0  2  0  0  0  0  0  0  0  0  0
    0.8025    1.1544    0.8447 C   0  0  0  0  0  0  0  0  0  0  0  0
   -0.3741    0.3923    0.3344 C   0  0  2  0  0  0  0  0  0  0  0  0
   -1.3021    0.3323    1.3720 O   0  0  0  0  0  0  0  0  0  0  0  0
   -2.6225    0.2919    0.8596 C   0  0  2  0  0  0  0  0  0  0  0  0
   -3.4746    1.1633    1.7369 C   0  0  0  0  0  0  0  0  0  0  0  0
   -4.6180    1.7928    1.0225 C   0  0  0  0  0  0  0  0  0  0  0  0
   -5.7945    1.3020    0.6512 C   0  0  0  0  0  0  0  0  0  0  0  0
   -6.3057   -0.0838    0.8645 C   0  0  2  0  0  0  0  0  0  0  0  0
   -6.1626   -0.3735    2.2186 O   0  0  0  0  0  0  0  0  0  0  0  0
   -5.3383   -0.9793    0.0684 C   0  0  1  0  0  0  0  0  0  0  0  0
   -5.0893   -0.3020   -1.2161 C   0  0  0  0  0  0  0  0  0  0  0  0
   -4.3351   -1.0391   -2.1278 O   0  0  0  0  0  0  0  0  0  0  0  0
   -4.3957   -1.3752    0.8838 O   0  0  0  0  0  0  0  0  0  0  0  0
   -3.1014   -1.1511    0.8630 C   0  0  1  0  0  0  0  0  0  0  0  0
   -2.2872   -1.9345   -0.1111 C   0  0  0  0  0  0  0  0  0  0  0  0
   -1.0185   -1.8633   -0.4995 C   0  0  0  0  0  0  0  0  0  0  0  0
    0.0765   -0.9723   -0.1090 C   0  0  1  0  0  0  0  0  0  0  0  0
    0.9220   -0.7641   -1.1974 O   0  0  0  0  0  0  0  0  0  0  0  0
    2.1301   -0.3630   -0.6672 C   0  0  1  0  0  0  0  0  0  0  0  0
    3.2282   -0.2482   -1.6667 C   0  0  2  0  0  0  0  0  0  0  0  0
    3.4246   -1.4827   -2.3174 O   0  0  0  0  0  0  0  0  0  0  0  0
    4.4972    0.0738   -0.9230 C   0  0  1  0  0  0  0  0  0  0  0  0
    5.3946    0.6116   -1.8486 O   0  0  0  0  0  0  0  0  0  0  0  0
    6.6718    0.0754   -1.7108 C   0  0  0  0  0  0  0  0  0  0  0  0
    7.2121    0.1666   -0.3373 C   0  0  0  0  0  0  0  0  0  0  0  0
    6.6932    0.3522    0.8502 C   0  0  0  0  0  0  0  0  0  0  0  0
    5.3175    0.5520    1.3161 C   0  0  0  0  0  0  0  0  0  0  0  0
    4.3636    1.0133    0.2101 C   0  0  2  0  0  0  0  0  0  0  0  0
    3.1394    1.1051    0.8211 O   0  0  0  0  0  0  0  0  0  0  0  0
    2.0173    1.7894   -0.7845 H   0  0  0  0  0  0  0  0  0  0  0  0
    0.5346    2.2305    0.8979 H   0  0  0  0  0  0  0  0  0  0  0  0
    1.0350    0.7711    1.8744 H   0  0  0  0  0  0  0  0  0  0  0  0
   -0.8163    0.9252   -0.5556 H   0  0  0  0  0  0  0  0  0  0  0  0
   -2.5300    0.7229   -0.1575 H   0  0  0  0  0  0  0  0  0  0  0  0
   -3.8446    0.5667    2.5982 H   0  0  0  0  0  0  0  0  0  0  0  0
   -2.8243    1.9611    2.1598 H   0  0  0  0  0  0  0  0  0  0  0  0
   -4.5208    2.8479    0.7289 H   0  0  0  0  0  0  0  0  0  0  0  0
   -6.4595    1.9624    0.1417 H   0  0  0  0  0  0  0  0  0  0  0  0
   -7.3450   -0.1961    0.5122 H   0  0  0  0  0  0  0  0  0  0  0  0
   -6.3147    0.3882    2.8164 H   0  0  0  0  0  0  0  0  0  0  0  0
   -5.9948   -1.8702   -0.1787 H   0  0  0  0  0  0  0  0  0  0  0  0
   -6.0828   -0.1681   -1.7473 H   0  0  0  0  0  0  0  0  0  0  0  0
   -4.6804    0.7148   -1.1924 H   0  0  0  0  0  0  0  0  0  0  0  0
   -4.8136   -1.7722   -2.5524 H   0  0  0  0  0  0  0  0  0  0  0  0
   -2.7083   -1.5407    1.8590 H   0  0  0  0  0  0  0  0  0  0  0  0
   -2.8038   -2.7552   -0.6413 H   0  0  0  0  0  0  0  0  0  0  0  0
   -0.6920   -2.5981   -1.2578 H   0  0  0  0  0  0  0  0  0  0  0  0
    0.6950   -1.3749    0.7287 H   0  0  0  0  0  0  0  0  0  0  0  0
    2.4198   -1.1233    0.0846 H   0  0  0  0  0  0  0  0  0  0  0  0
    3.0345    0.5214   -2.4304 H   0  0  0  0  0  0  0  0  0  0  0  0
    3.5705   -1.3492   -3.3009 H   0  0  0  0  0  0  0  0  0  0  0  0
    4.9074   -0.9118   -0.5659 H   0  0  0  0  0  0  0  0  0  0  0  0
    6.7308   -0.9676   -2.1128 H   0  0  0  0  0  0  0  0  0  0  0  0
    7.3373    0.6676   -2.3724 H   0  0  0  0  0  0  0  0  0  0  0  0
    8.2904    0.0551   -0.2888 H   0  0  0  0  0  0  0  0  0  0  0  0
    7.3483    0.3767    1.7260 H   0  0  0  0  0  0  0  0  0  0  0  0
    4.8420   -0.3822    1.7161 H   0  0  0  0  0  0  0  0  0  0  0  0
    5.2478    1.2940    2.1537 H   0  0  0  0  0  0  0  0  0  0  0  0
    4.7228    2.0455   -0.0531 H   0  0  0  0  0  0  0  0  0  0  0  0
  1  2  1  0
  2  3  1  0
  3  4  1  0
  4  5  1  0
  5  6  1  0
  6  7  1  0
  7  8  2  0
  8  9  1  0
  9 10  1  0
  9 11  1  0
 11 12  1  0
 12 13  1  0
 11 14  1  0
 14 15  1  0
 15 16  1  0
 16 17  2  0
 17 18  1  0
 18 19  1  0
 19 20  1  0
 20 21  1  0
 21 22  1  0
 21 23  1  0
 23 24  1  0
 24 25  1  0
 25 26  1  0
 26 27  2  0
 27 28  1  0
 28 29  1  0
 29 30  1  0
 20  1  1  0
 29 23  1  0
 30  1  1  0
 18  3  1  0
 15  5  1  0
  1 31  1  6
  2 32  1  0
  2 33  1  0
  3 34  1  6
  5 35  1  6
  6 36  1  0
  6 37  1  0
  7 38  1  0
  8 39  1  0
  9 40  1  6
 10 41  1  0
 11 42  1  6
 12 43  1  0
 12 44  1  0
 13 45  1  0
 15 46  1  1
 16 47  1  0
 17 48  1  0
 18 49  1  1
 20 50  1  1
 21 51  1  6
 22 52  1  0
 23 53  1  1
 25 54  1  0
 25 55  1  0
 26 56  1  0
 27 57  1  0
 28 58  1  0
 28 59  1  0
 29 60  1  6
M  END
$$$$
