
     RDKit          3D

 55 58  0  0  0  0  0  0  0  0999 V2000
    0.3174   -1.0149   -3.9113 F   0  0  0  0  0  0  0  0  0  0  0  0
    0.6078   -0.9108   -2.5870 C   0  0  0  0  0  0  0  0  0  0  0  0
    1.8521   -1.3109   -2.1511 C   0  0  0  0  0  0  0  0  0  0  0  0
    2.1246   -1.1968   -0.8063 C   0  0  0  0  0  0  0  0  0  0  0  0
    3.3752   -1.5970   -0.3533 O   0  0  0  0  0  0  0  0  0  0  0  0
    4.3482   -2.1052   -1.2134 C   0  0  0  0  0  0  0  0  0  0  0  0
    3.9270   -3.2505   -1.8650 F   0  0  0  0  0  0  0  0  0  0  0  0
    4.7059   -1.1933   -2.2039 F   0  0  0  0  0  0  0  0  0  0  0  0
    5.6240   -2.4602   -0.4863 C   0  0  0  0  0  0  0  0  0  0  0  0
    6.5136   -2.9531   -1.4399 F   0  0  0  0  0  0  0  0  0  0  0  0
    6.1935   -1.3307    0.0832 F   0  0  0  0  0  0  0  0  0  0  0  0
    1.1675   -0.6929    0.0713 C   0  0  0  0  0  0  0  0  0  0  0  0
   -0.0929   -0.2845   -0.3559 C   0  0  0  0  0  0  0  0  0  0  0  0
   -1.0398    0.2054    0.6522 C   0  0  1  0  0  0  0  0  0  0  0  0
   -2.0277    1.2282    0.2429 C   0  0  0  0  0  0  0  0  0  0  0  0
   -1.5021    2.5333   -0.2101 C   0  0  0  0  0  0  0  0  0  0  0  0
   -1.2007    2.8811   -1.4863 C   0  0  0  0  0  0  0  0  0  0  0  0
   -0.7220    4.1470   -1.7617 C   0  0  0  0  0  0  0  0  0  0  0  0
   -0.5269    5.1016   -0.8021 C   0  0  0  0  0  0  0  0  0  0  0  0
   -0.8320    4.7529    0.4918 C   0  0  0  0  0  0  0  0  0  0  0  0
   -1.3060    3.5052    0.7801 C   0  0  0  0  0  0  0  0  0  0  0  0
   -1.7014   -0.9498    1.2777 N   0  0  0  0  0  0  0  0  0  0  0  0
   -2.4645   -1.8688    0.5259 C   0  0  0  0  0  0  0  0  0  0  0  0
   -2.4029   -2.8877   -0.0960 N   0  0  0  0  0  0  0  0  0  0  0  0
   -3.3122   -3.5594   -0.7289 C   0  0  0  0  0  0  0  0  0  0  0  0
   -3.1535   -4.8165   -1.4775 C   0  0  0  0  0  0  0  0  0  0  0  0
   -3.5185   -4.6129   -2.7936 F   0  0  0  0  0  0  0  0  0  0  0  0
   -3.9472   -5.8156   -0.8985 F   0  0  0  0  0  0  0  0  0  0  0  0
   -1.8725   -5.2679   -1.4328 F   0  0  0  0  0  0  0  0  0  0  0  0
   -4.5915   -2.9318   -0.6370 C   0  0  0  0  0  0  0  0  0  0  0  0
   -6.2555   -3.6576   -1.4815 Br  0  0  0  0  0  0  0  0  0  0  0  0
   -4.3494   -1.5332    0.2936 S   0  0  0  0  0  0  0  0  0  0  0  0
   -0.1988    0.8432    1.7264 C   0  0  0  0  0  0  0  0  0  0  0  0
    0.8059    1.6869    1.3548 C   0  0  0  0  0  0  0  0  0  0  0  0
    1.6108    2.3087    2.3184 C   0  0  0  0  0  0  0  0  0  0  0  0
    1.3624    2.0473    3.6356 C   0  0  0  0  0  0  0  0  0  0  0  0
    2.3494    2.8069    4.8866 Cl  0  0  0  0  0  0  0  0  0  0  0  0
    0.3511    1.1992    3.9805 C   0  0  0  0  0  0  0  0  0  0  0  0
   -0.4126    0.6112    3.0214 N   0  0  0  0  0  0  0  0  0  0  0  0
   -0.3262   -0.4143   -1.6997 C   0  0  0  0  0  0  0  0  0  0  0  0
    2.5700   -1.6979   -2.8674 H   0  0  0  0  0  0  0  0  0  0  0  0
    5.4817   -3.2717    0.2559 H   0  0  0  0  0  0  0  0  0  0  0  0
    1.4201   -0.6298    1.1154 H   0  0  0  0  0  0  0  0  0  0  0  0
   -2.6600    1.4377    1.1589 H   0  0  0  0  0  0  0  0  0  0  0  0
   -2.7858    0.8458   -0.4874 H   0  0  0  0  0  0  0  0  0  0  0  0
   -1.3500    2.1673   -2.2924 H   0  0  0  0  0  0  0  0  0  0  0  0
   -0.4938    4.3777   -2.8044 H   0  0  0  0  0  0  0  0  0  0  0  0
   -0.1445    6.0944   -1.0658 H   0  0  0  0  0  0  0  0  0  0  0  0
   -0.6798    5.5059    1.2583 H   0  0  0  0  0  0  0  0  0  0  0  0
   -1.5362    3.2875    1.8316 H   0  0  0  0  0  0  0  0  0  0  0  0
   -1.6213   -1.1172    2.3003 H   0  0  0  0  0  0  0  0  0  0  0  0
    1.0411    1.9171    0.3292 H   0  0  0  0  0  0  0  0  0  0  0  0
    2.4009    2.9719    2.0435 H   0  0  0  0  0  0  0  0  0  0  0  0
    0.1640    0.9997    5.0249 H   0  0  0  0  0  0  0  0  0  0  0  0
   -1.2858   -0.1302   -2.0691 H   0  0  0  0  0  0  0  0  0  0  0  0
  1  2  1  0
  2  3  2  0
  3  4  1  0
  4  5  1  0
  5  6  1  0
  6  7  1  0
  6  8  1  0
  6  9  1  0
  9 10  1  0
  9 11  1  0
  4 12  2  0
 12 13  1  0
 13 14  1  0
 14 15  1  0
 15 16  1  0
 16 17  2  0
 17 18  1  0
 18 19  2  0
 19 20  1  0
 20 21  2  0
 14 22  1  1
 22 23  1  0
 23 24  2  0
 24 25  1  0
 25 26  1  0
 26 27  1  0
 26 28  1  0
 26 29  1  0
 25 30  2  0
 30 31  1  0
 30 32  1  0
 14 33  1  0
 33 34  2  0
 34 35  1  0
 35 36  2  0
 36 37  1  0
 36 38  1  0
 38 39  2  0
 13 40  2  0
 40  2  1  0
 21 16  1  0
 32 23  1  0
 39 33  1  0
  3 41  1  0
  9 42  1  0
 12 43  1  0
 15 44  1  0
 15 45  1  0
 17 46  1  0
 18 47  1  0
 19 48  1  0
 20 49  1  0
 21 50  1  0
 22 51  1  0
 34 52  1  0
 35 53  1  0
 38 54  1  0
 40 55  1  0
M  END
$$$$
