
     RDKit          3D

117118  0  0  0  0  0  0  0  0999 V2000
   13.2935    2.7597    0.3299 C   0  0  0  0  0  0  0  0  0  0  0  0
   13.1852    1.3094    0.7103 C   0  0  0  0  0  0  0  0  0  0  0  0
   11.9122    0.8035    0.1286 C   0  0  0  0  0  0  0  0  0  0  0  0
   11.8460    0.2867   -1.1506 C   0  0  0  0  0  0  0  0  0  0  0  0
   10.6386   -0.1688   -1.6372 C   0  0  0  0  0  0  0  0  0  0  0  0
    9.4648   -0.1346   -0.8952 C   0  0  0  0  0  0  0  0  0  0  0  0
    8.2462   -0.6237   -1.5051 C   0  0  0  0  0  0  0  0  0  0  0  0
    8.2605   -0.9847   -2.7353 O   0  0  0  0  0  0  0  0  0  0  0  0
    7.0415   -0.7079   -0.7602 N   0  0  0  0  0  0  0  0  0  0  0  0
    5.8571   -1.1963   -1.4238 C   0  0  1  0  0  0  0  0  0  0  0  0
    5.3970   -2.5188   -0.8427 C   0  0  0  0  0  0  0  0  0  0  0  0
    5.0801   -2.4406    0.5867 C   0  0  0  0  0  0  0  0  0  0  0  0
    3.8373   -2.1298    1.0915 C   0  0  0  0  0  0  0  0  0  0  0  0
    3.5744   -2.0661    2.4418 C   0  0  0  0  0  0  0  0  0  0  0  0
    4.5961   -2.3239    3.3373 C   0  0  0  0  0  0  0  0  0  0  0  0
    5.8599   -2.6399    2.8653 C   0  0  0  0  0  0  0  0  0  0  0  0
    6.0898   -2.6952    1.5004 C   0  0  0  0  0  0  0  0  0  0  0  0
    4.8046   -0.1655   -1.4462 C   0  0  0  0  0  0  0  0  0  0  0  0
    4.9116    0.9655   -0.8612 O   0  0  0  0  0  0  0  0  0  0  0  0
    3.5743   -0.3775   -2.1456 N   0  0  0  0  0  0  0  0  0  0  0  0
    2.5356    0.6200   -2.1833 C   0  0  1  0  0  0  0  0  0  0  0  0
    2.4674    1.2593   -3.5641 C   0  0  0  0  0  0  0  0  0  0  0  0
    1.2387   -0.0113   -1.8270 C   0  0  0  0  0  0  0  0  0  0  0  0
    1.2457   -1.2253   -1.5572 O   0  0  0  0  0  0  0  0  0  0  0  0
    0.0329    0.6747   -1.7828 N   0  0  0  0  0  0  0  0  0  0  0  0
   -1.2395    0.1976   -1.4993 C   0  0  1  0  0  0  0  0  0  0  0  0
   -1.5040   -1.2725   -1.4388 C   0  0  0  0  0  0  0  0  0  0  0  0
   -1.3004   -1.9703   -2.7583 C   0  0  0  0  0  0  0  0  0  0  0  0
   -1.5784   -3.4489   -2.5387 C   0  0  0  0  0  0  0  0  0  0  0  0
   -2.4910   -1.4523   -3.6300 C   0  0  0  0  0  0  0  0  0  0  0  0
   -1.8829    0.9134   -0.4025 C   0  0  0  0  0  0  0  0  0  0  0  0
   -1.2175    1.7746    0.2665 O   0  0  0  0  0  0  0  0  0  0  0  0
   -3.2482    0.7363    0.0097 N   0  0  0  0  0  0  0  0  0  0  0  0
   -3.8272    1.4919    1.1256 C   0  0  1  0  0  0  0  0  0  0  0  0
   -4.7889    2.4550    0.4803 C   0  0  0  0  0  0  0  0  0  0  0  0
   -5.5531    3.3345    1.4243 C   0  0  0  0  0  0  0  0  0  0  0  0
   -6.3531    4.2940    0.6166 C   0  0  0  0  0  0  0  0  0  0  0  0
   -7.2808    3.7595   -0.3737 C   0  0  0  0  0  0  0  0  0  0  0  0
   -8.4045    3.0366   -0.1515 N   0  0  0  0  0  0  0  0  0  0  0  0
   -8.5603    1.7803    0.3244 C   0  0  0  0  0  0  0  0  0  0  0  0
   -8.3698    1.5026    1.7877 C   0  0  0  0  0  0  0  0  0  0  0  0
   -9.5322    3.6010   -0.8860 C   0  0  0  0  0  0  0  0  0  0  0  0
  -10.8075    2.8552   -0.7028 C   0  0  0  0  0  0  0  0  0  0  0  0
   -4.5312    0.5886    2.0313 C   0  0  0  0  0  0  0  0  0  0  0  0
   -5.0489    0.9801    3.1236 O   0  0  0  0  0  0  0  0  0  0  0  0
   -4.6983   -0.8110    1.7654 N   0  0  0  0  0  0  0  0  0  0  0  0
   -5.4088   -1.6774    2.6816 C   0  0  1  0  0  0  0  0  0  0  0  0
   -6.5996   -2.3399    1.9923 C   0  0  0  0  0  0  0  0  0  0  0  0
   -6.2051   -3.1086    0.9097 O   0  0  0  0  0  0  0  0  0  0  0  0
   -4.5068   -2.7640    3.1272 C   0  0  0  0  0  0  0  0  0  0  0  0
   -3.3310   -2.7847    2.6953 O   0  0  0  0  0  0  0  0  0  0  0  0
   -4.9082   -3.7612    4.0025 O   0  0  0  0  0  0  0  0  0  0  0  0
   -3.9697   -4.7649    4.3734 C   0  0  0  0  0  0  0  0  0  0  0  0
    9.5299    0.3764    0.3712 C   0  0  0  0  0  0  0  0  0  0  0  0
   10.7465    0.8451    0.8857 C   0  0  0  0  0  0  0  0  0  0  0  0
   12.3647    3.1328   -0.1689 H   0  0  0  0  0  0  0  0  0  0  0  0
   14.1059    2.9367   -0.4148 H   0  0  0  0  0  0  0  0  0  0  0  0
   13.4266    3.3582    1.2431 H   0  0  0  0  0  0  0  0  0  0  0  0
   13.0801    1.2176    1.8315 H   0  0  0  0  0  0  0  0  0  0  0  0
   14.0267    0.7030    0.3394 H   0  0  0  0  0  0  0  0  0  0  0  0
   12.7699    0.2657   -1.7201 H   0  0  0  0  0  0  0  0  0  0  0  0
   10.6161   -0.5650   -2.6339 H   0  0  0  0  0  0  0  0  0  0  0  0
    7.0267   -0.4253    0.2315 H   0  0  0  0  0  0  0  0  0  0  0  0
    6.1109   -1.4171   -2.4849 H   0  0  0  0  0  0  0  0  0  0  0  0
    6.0910   -3.3337   -1.0557 H   0  0  0  0  0  0  0  0  0  0  0  0
    4.4315   -2.7715   -1.3710 H   0  0  0  0  0  0  0  0  0  0  0  0
    3.0049   -1.9195    0.4195 H   0  0  0  0  0  0  0  0  0  0  0  0
    2.5877   -1.8189    2.7670 H   0  0  0  0  0  0  0  0  0  0  0  0
    4.3913   -2.2739    4.3819 H   0  0  0  0  0  0  0  0  0  0  0  0
    6.6298   -2.8342    3.5931 H   0  0  0  0  0  0  0  0  0  0  0  0
    7.0934   -2.9456    1.1875 H   0  0  0  0  0  0  0  0  0  0  0  0
    3.4854   -1.3123   -2.6275 H   0  0  0  0  0  0  0  0  0  0  0  0
    2.7300    1.4414   -1.4758 H   0  0  0  0  0  0  0  0  0  0  0  0
    2.5225    0.5263   -4.3680 H   0  0  0  0  0  0  0  0  0  0  0  0
    3.3645    1.9077   -3.6343 H   0  0  0  0  0  0  0  0  0  0  0  0
    1.5862    1.9095   -3.6524 H   0  0  0  0  0  0  0  0  0  0  0  0
    0.0894    1.7279   -1.9992 H   0  0  0  0  0  0  0  0  0  0  0  0
   -1.8603    0.4724   -2.4624 H   0  0  0  0  0  0  0  0  0  0  0  0
   -0.9785   -1.7830   -0.6035 H   0  0  0  0  0  0  0  0  0  0  0  0
   -2.5860   -1.3966   -1.2116 H   0  0  0  0  0  0  0  0  0  0  0  0
   -0.4434   -1.7404   -3.3488 H   0  0  0  0  0  0  0  0  0  0  0  0
   -2.5047   -3.5373   -1.9415 H   0  0  0  0  0  0  0  0  0  0  0  0
   -1.7293   -3.8992   -3.5481 H   0  0  0  0  0  0  0  0  0  0  0  0
   -0.7821   -3.9463   -1.9832 H   0  0  0  0  0  0  0  0  0  0  0  0
   -2.7247   -2.2276   -4.3748 H   0  0  0  0  0  0  0  0  0  0  0  0
   -3.3360   -1.1554   -2.9990 H   0  0  0  0  0  0  0  0  0  0  0  0
   -2.1632   -0.5568   -4.1973 H   0  0  0  0  0  0  0  0  0  0  0  0
   -3.8025    0.0505   -0.5336 H   0  0  0  0  0  0  0  0  0  0  0  0
   -3.0099    2.0466    1.6581 H   0  0  0  0  0  0  0  0  0  0  0  0
   -5.5404    1.8742   -0.1047 H   0  0  0  0  0  0  0  0  0  0  0  0
   -4.2157    3.1000   -0.1977 H   0  0  0  0  0  0  0  0  0  0  0  0
   -4.7915    4.0083    1.9879 H   0  0  0  0  0  0  0  0  0  0  0  0
   -6.0724    2.8537    2.2364 H   0  0  0  0  0  0  0  0  0  0  0  0
   -6.8488    5.0698    1.2940 H   0  0  0  0  0  0  0  0  0  0  0  0
   -5.6156    4.9895    0.0542 H   0  0  0  0  0  0  0  0  0  0  0  0
   -7.5287    4.6774   -1.1070 H   0  0  0  0  0  0  0  0  0  0  0  0
   -6.6328    3.1889   -1.2006 H   0  0  0  0  0  0  0  0  0  0  0  0
   -7.7976    1.0551   -0.1766 H   0  0  0  0  0  0  0  0  0  0  0  0
   -9.5444    1.2751    0.0587 H   0  0  0  0  0  0  0  0  0  0  0  0
   -8.3631    2.4372    2.3985 H   0  0  0  0  0  0  0  0  0  0  0  0
   -7.4706    0.9274    2.0275 H   0  0  0  0  0  0  0  0  0  0  0  0
   -9.2962    0.9663    2.1872 H   0  0  0  0  0  0  0  0  0  0  0  0
   -9.6642    4.6376   -0.5360 H   0  0  0  0  0  0  0  0  0  0  0  0
   -9.3032    3.6333   -1.9625 H   0  0  0  0  0  0  0  0  0  0  0  0
  -11.6266    3.5237   -1.1025 H   0  0  0  0  0  0  0  0  0  0  0  0
  -11.0789    2.6854    0.3583 H   0  0  0  0  0  0  0  0  0  0  0  0
  -10.8934    1.9281   -1.3140 H   0  0  0  0  0  0  0  0  0  0  0  0
   -4.3070   -1.2381    0.9016 H   0  0  0  0  0  0  0  0  0  0  0  0
   -5.7984   -1.1134    3.5534 H   0  0  0  0  0  0  0  0  0  0  0  0
   -7.3571   -1.6068    1.6771 H   0  0  0  0  0  0  0  0  0  0  0  0
   -7.0722   -2.9715    2.7880 H   0  0  0  0  0  0  0  0  0  0  0  0
   -5.2267   -3.0638    0.7618 H   0  0  0  0  0  0  0  0  0  0  0  0
   -3.7193   -5.3487    3.4644 H   0  0  0  0  0  0  0  0  0  0  0  0
   -3.0478   -4.2474    4.7066 H   0  0  0  0  0  0  0  0  0  0  0  0
   -4.3365   -5.3841    5.2052 H   0  0  0  0  0  0  0  0  0  0  0  0
    8.6500    0.4285    0.9908 H   0  0  0  0  0  0  0  0  0  0  0  0
   10.7640    1.2411    1.8836 H   0  0  0  0  0  0  0  0  0  0  0  0
  1  2  1  0
  2  3  1  0
  3  4  2  0
  4  5  1  0
  5  6  2  0
  6  7  1  0
  7  8  2  0
  7  9  1  0
  9 10  1  0
 10 11  1  0
 11 12  1  0
 12 13  2  0
 13 14  1  0
 14 15  2  0
 15 16  1  0
 16 17  2  0
 10 18  1  0
 18 19  2  0
 18 20  1  0
 20 21  1  0
 21 22  1  0
 21 23  1  0
 23 24  2  0
 23 25  1  0
 25 26  1  0
 26 27  1  0
 27 28  1  0
 28 29  1  0
 28 30  1  0
 26 31  1  0
 31 32  2  0
 31 33  1  0
 33 34  1  0
 34 35  1  0
 35 36  1  0
 36 37  1  0
 37 38  1  0
 38 39  1  0
 39 40  1  0
 40 41  1  0
 39 42  1  0
 42 43  1  0
 34 44  1  0
 44 45  2  0
 44 46  1  0
 46 47  1  0
 47 48  1  0
 48 49  1  0
 47 50  1  0
 50 51  2  0
 50 52  1  0
 52 53  1  0
  6 54  1  0
 54 55  2  0
 55  3  1  0
 17 12  1  0
  1 56  1  0
  1 57  1  0
  1 58  1  0
  2 59  1  0
  2 60  1  0
  4 61  1  0
  5 62  1  0
  9 63  1  0
 10 64  1  6
 11 65  1  0
 11 66  1  0
 13 67  1  0
 14 68  1  0
 15 69  1  0
 16 70  1  0
 17 71  1  0
 20 72  1  0
 21 73  1  1
 22 74  1  0
 22 75  1  0
 22 76  1  0
 25 77  1  0
 26 78  1  6
 27 79  1  0
 27 80  1  0
 28 81  1  0
 29 82  1  0
 29 83  1  0
 29 84  1  0
 30 85  1  0
 30 86  1  0
 30 87  1  0
 33 88  1  0
 34 89  1  1
 35 90  1  0
 35 91  1  0
 36 92  1  0
 36 93  1  0
 37 94  1  0
 37 95  1  0
 38 96  1  0
 38 97  1  0
 40 98  1  0
 40 99  1  0
 41100  1  0
 41101  1  0
 41102  1  0
 42103  1  0
 42104  1  0
 43105  1  0
 43106  1  0
 43107  1  0
 46108  1  0
 47109  1  1
 48110  1  0
 48111  1  0
 49112  1  0
 53113  1  0
 53114  1  0
 53115  1  0
 54116  1  0
 55117  1  0
M  END
$$$$
