
     RDKit          3D

 55 58  0  0  0  0  0  0  0  0999 V2000
    8.9407   -2.9974   -2.4447 C   0  0  0  0  0  0  0  0  0  0  0  0
    8.8592   -1.4923   -2.4224 C   0  0  0  0  0  0  0  0  0  0  0  0
    7.5860   -1.0835   -1.9170 O   0  0  0  0  0  0  0  0  0  0  0  0
    7.2154    0.2317   -1.7779 C   0  0  0  0  0  0  0  0  0  0  0  0
    8.0286    1.1274   -2.1093 O   0  0  0  0  0  0  0  0  0  0  0  0
    5.9101    0.6399   -1.2583 C   0  0  0  0  0  0  0  0  0  0  0  0
    4.8919   -0.1993   -0.8401 C   0  0  0  0  0  0  0  0  0  0  0  0
    3.8163    0.5465   -0.4112 C   0  0  0  0  0  0  0  0  0  0  0  0
    2.5667    0.2552    0.0994 C   0  0  0  0  0  0  0  0  0  0  0  0
    1.6676    1.2344    0.4583 C   0  0  0  0  0  0  0  0  0  0  0  0
    0.3608    0.8621    0.9979 C   0  0  0  0  0  0  0  0  0  0  0  0
   -0.4910   -0.1066    0.5130 C   0  0  0  0  0  0  0  0  0  0  0  0
   -1.5903   -0.1152    1.3255 C   0  0  0  0  0  0  0  0  0  0  0  0
   -2.7778   -0.9612    1.2400 C   0  0  0  0  0  0  0  0  0  0  0  0
   -2.8604   -1.8038    0.3215 O   0  0  0  0  0  0  0  0  0  0  0  0
   -3.8138   -0.8281    2.1806 N   0  0  0  0  0  0  0  0  0  0  0  0
   -5.0321   -1.6071    2.1976 C   0  0  0  0  0  0  0  0  0  0  0  0
   -6.0253   -1.1830    1.1923 C   0  0  0  0  0  0  0  0  0  0  0  0
   -6.9275   -0.1692    1.5068 C   0  0  0  0  0  0  0  0  0  0  0  0
   -7.8615    0.2168    0.5780 C   0  0  0  0  0  0  0  0  0  0  0  0
   -7.9215   -0.3875   -0.6704 C   0  0  0  0  0  0  0  0  0  0  0  0
   -8.9119    0.0175   -1.6577 C   0  0  0  0  0  0  0  0  0  0  0  0
   -8.9343   -0.5437   -2.7614 O   0  0  0  0  0  0  0  0  0  0  0  0
   -9.8115    1.0215   -1.3487 O   0  0  0  0  0  0  0  0  0  0  0  0
   -7.0212   -1.3755   -0.9394 C   0  0  0  0  0  0  0  0  0  0  0  0
   -6.0647   -1.7932   -0.0306 C   0  0  0  0  0  0  0  0  0  0  0  0
   -1.3623    0.8327    2.2527 N   0  0  0  0  0  0  0  0  0  0  0  0
   -0.2048    1.4286    2.0770 N   0  0  0  0  0  0  0  0  0  0  0  0
    0.3411    2.5007    2.9117 C   0  0  0  0  0  0  0  0  0  0  0  0
    2.0458    2.5474    0.2947 C   0  0  0  0  0  0  0  0  0  0  0  0
    3.2956    2.8669   -0.2162 C   0  0  0  0  0  0  0  0  0  0  0  0
    4.1849    1.8652   -0.5706 C   0  0  0  0  0  0  0  0  0  0  0  0
    5.4432    1.8847   -1.0795 N   0  0  0  0  0  0  0  0  0  0  0  0
    9.1702   -3.3298   -1.4080 H   0  0  0  0  0  0  0  0  0  0  0  0
    7.9689   -3.4262   -2.7594 H   0  0  0  0  0  0  0  0  0  0  0  0
    9.7947   -3.3041   -3.0658 H   0  0  0  0  0  0  0  0  0  0  0  0
    9.0411   -1.0522   -3.4082 H   0  0  0  0  0  0  0  0  0  0  0  0
    9.6352   -1.1263   -1.6881 H   0  0  0  0  0  0  0  0  0  0  0  0
    4.9460   -1.2817   -0.8542 H   0  0  0  0  0  0  0  0  0  0  0  0
    2.3052   -0.8064    0.2127 H   0  0  0  0  0  0  0  0  0  0  0  0
   -0.3112   -0.7447   -0.3609 H   0  0  0  0  0  0  0  0  0  0  0  0
   -3.6600   -0.0861    2.9286 H   0  0  0  0  0  0  0  0  0  0  0  0
   -5.4792   -1.5286    3.2125 H   0  0  0  0  0  0  0  0  0  0  0  0
   -4.7224   -2.6578    1.9713 H   0  0  0  0  0  0  0  0  0  0  0  0
   -6.8850    0.2963    2.4614 H   0  0  0  0  0  0  0  0  0  0  0  0
   -8.5935    1.0094    0.7771 H   0  0  0  0  0  0  0  0  0  0  0  0
  -10.6614    1.1812   -1.8969 H   0  0  0  0  0  0  0  0  0  0  0  0
   -7.0496   -1.8605   -1.9070 H   0  0  0  0  0  0  0  0  0  0  0  0
   -5.3720   -2.5958   -0.3007 H   0  0  0  0  0  0  0  0  0  0  0  0
    0.0261    2.3788    3.9674 H   0  0  0  0  0  0  0  0  0  0  0  0
    1.4552    2.4524    2.9226 H   0  0  0  0  0  0  0  0  0  0  0  0
   -0.0293    3.4863    2.5631 H   0  0  0  0  0  0  0  0  0  0  0  0
    1.3485    3.3440    0.5727 H   0  0  0  0  0  0  0  0  0  0  0  0
    3.5902    3.8988   -0.3436 H   0  0  0  0  0  0  0  0  0  0  0  0
    5.9404    2.7726   -1.2880 H   0  0  0  0  0  0  0  0  0  0  0  0
  1  2  1  0
  2  3  1  0
  3  4  1  0
  4  5  2  0
  4  6  1  0
  6  7  2  0
  7  8  1  0
  8  9  2  0
  9 10  1  0
 10 11  1  0
 11 12  2  0
 12 13  1  0
 13 14  1  0
 14 15  2  0
 14 16  1  0
 16 17  1  0
 17 18  1  0
 18 19  2  0
 19 20  1  0
 20 21  2  0
 21 22  1  0
 22 23  2  0
 22 24  1  0
 21 25  1  0
 25 26  2  0
 13 27  2  0
 27 28  1  0
 28 29  1  0
 10 30  2  0
 30 31  1  0
 31 32  2  0
 32 33  1  0
 33  6  1  0
 32  8  1  0
 28 11  1  0
 26 18  1  0
  1 34  1  0
  1 35  1  0
  1 36  1  0
  2 37  1  0
  2 38  1  0
  7 39  1  0
  9 40  1  0
 12 41  1  0
 16 42  1  0
 17 43  1  0
 17 44  1  0
 19 45  1  0
 20 46  1  0
 24 47  1  0
 25 48  1  0
 26 49  1  0
 29 50  1  0
 29 51  1  0
 29 52  1  0
 30 53  1  0
 31 54  1  0
 33 55  1  0
M  END
$$$$
