
     RDKit          3D

 48 49  0  0  0  0  0  0  0  0999 V2000
    0.5057    0.6926    1.3727 C   0  0  2  0  0  0  0  0  0  0  0  0
    1.1892   -0.4058    2.1489 C   0  0  0  0  0  0  0  0  0  0  0  0
    0.3079   -1.6061    1.8745 C   0  0  0  0  0  0  0  0  0  0  0  0
   -0.3470   -1.1934    0.5730 C   0  0  0  0  0  0  0  0  0  0  0  0
   -0.7226    0.1781    0.8526 N   0  0  0  0  0  0  0  0  0  0  0  0
   -1.9131    0.9303    0.7077 C   0  0  0  0  0  0  0  0  0  0  0  0
   -2.0768    2.1615    1.0058 O   0  0  0  0  0  0  0  0  0  0  0  0
   -3.0574    0.1543    0.1466 C   0  0  0  0  0  0  0  0  0  0  0  0
   -4.2779    0.9810   -0.0741 C   0  0  0  0  0  0  0  0  0  0  0  0
   -5.4484    0.2197   -0.6386 C   0  0  0  0  0  0  0  0  0  0  0  0
   -5.9027   -0.9022    0.2361 C   0  0  0  0  0  0  0  0  0  0  0  0
   -5.1890   -0.3317   -2.0024 C   0  0  0  0  0  0  0  0  0  0  0  0
    1.4550    1.0880    0.2757 C   0  0  0  0  0  0  0  0  0  0  0  0
    1.1174    0.9671   -0.9256 O   0  0  0  0  0  0  0  0  0  0  0  0
    2.7189    1.5907    0.6856 N   0  0  0  0  0  0  0  0  0  0  0  0
    3.7503    2.0149   -0.2468 C   0  0  0  0  0  0  0  0  0  0  0  0
    4.4400    0.8500   -0.8582 C   0  0  0  0  0  0  0  0  0  0  0  0
    4.1284    0.1831   -2.0260 C   0  0  0  0  0  0  0  0  0  0  0  0
    4.8772   -0.8888   -2.4450 C   0  0  0  0  0  0  0  0  0  0  0  0
    4.3487   -1.6202   -3.9435 Cl  0  0  0  0  0  0  0  0  0  0  0  0
    5.9685   -1.3663   -1.7482 C   0  0  0  0  0  0  0  0  0  0  0  0
    6.3026   -0.7152   -0.5738 C   0  0  0  0  0  0  0  0  0  0  0  0
    5.5497    0.3563   -0.1599 C   0  0  0  0  0  0  0  0  0  0  0  0
    0.3510    1.5764    2.0467 H   0  0  0  0  0  0  0  0  0  0  0  0
    2.2406   -0.5635    1.8363 H   0  0  0  0  0  0  0  0  0  0  0  0
    1.1036   -0.2104    3.2441 H   0  0  0  0  0  0  0  0  0  0  0  0
    0.9453   -2.4995    1.6222 H   0  0  0  0  0  0  0  0  0  0  0  0
   -0.4179   -1.8284    2.6616 H   0  0  0  0  0  0  0  0  0  0  0  0
   -1.2574   -1.7942    0.3705 H   0  0  0  0  0  0  0  0  0  0  0  0
    0.3462   -1.2059   -0.2721 H   0  0  0  0  0  0  0  0  0  0  0  0
   -3.2984   -0.6568    0.8683 H   0  0  0  0  0  0  0  0  0  0  0  0
   -2.6979   -0.2904   -0.8020 H   0  0  0  0  0  0  0  0  0  0  0  0
   -4.0536    1.7991   -0.8017 H   0  0  0  0  0  0  0  0  0  0  0  0
   -4.5573    1.4937    0.8680 H   0  0  0  0  0  0  0  0  0  0  0  0
   -6.2855    0.9444   -0.7409 H   0  0  0  0  0  0  0  0  0  0  0  0
   -5.4572   -1.8787    0.0240 H   0  0  0  0  0  0  0  0  0  0  0  0
   -5.7423   -0.6296    1.3089 H   0  0  0  0  0  0  0  0  0  0  0  0
   -7.0186   -0.9958    0.1345 H   0  0  0  0  0  0  0  0  0  0  0  0
   -5.4074    0.3787   -2.8193 H   0  0  0  0  0  0  0  0  0  0  0  0
   -5.9246   -1.1721   -2.1656 H   0  0  0  0  0  0  0  0  0  0  0  0
   -4.1940   -0.8044   -2.0958 H   0  0  0  0  0  0  0  0  0  0  0  0
    2.9421    1.6686    1.7233 H   0  0  0  0  0  0  0  0  0  0  0  0
    4.5041    2.6350    0.2725 H   0  0  0  0  0  0  0  0  0  0  0  0
    3.3197    2.6216   -1.0764 H   0  0  0  0  0  0  0  0  0  0  0  0
    3.2857    0.5669   -2.5487 H   0  0  0  0  0  0  0  0  0  0  0  0
    6.5249   -2.2103   -2.1159 H   0  0  0  0  0  0  0  0  0  0  0  0
    7.1434   -1.0814   -0.0346 H   0  0  0  0  0  0  0  0  0  0  0  0
    5.8807    0.7987    0.7590 H   0  0  0  0  0  0  0  0  0  0  0  0
  1  2  1  0
  2  3  1  0
  3  4  1  0
  4  5  1  0
  5  6  1  0
  6  7  2  0
  6  8  1  0
  8  9  1  0
  9 10  1  0
 10 11  1  0
 10 12  1  0
  1 13  1  0
 13 14  2  0
 13 15  1  0
 15 16  1  0
 16 17  1  0
 17 18  2  0
 18 19  1  0
 19 20  1  0
 19 21  2  0
 21 22  1  0
 22 23  2  0
  5  1  1  0
 23 17  1  0
  1 24  1  1
  2 25  1  0
  2 26  1  0
  3 27  1  0
  3 28  1  0
  4 29  1  0
  4 30  1  0
  8 31  1  0
  8 32  1  0
  9 33  1  0
  9 34  1  0
 10 35  1  0
 11 36  1  0
 11 37  1  0
 11 38  1  0
 12 39  1  0
 12 40  1  0
 12 41  1  0
 15 42  1  0
 16 43  1  0
 16 44  1  0
 18 45  1  0
 21 46  1  0
 22 47  1  0
 23 48  1  0
M  END
$$$$
