
     RDKit          3D

 37 39  0  0  0  0  0  0  0  0999 V2000
    5.4764   -2.8305   -0.7593 Cl  0  0  0  0  0  0  0  0  0  0  0  0
    4.5906   -1.3221   -0.8874 C   0  0  0  0  0  0  0  0  0  0  0  0
    5.2688   -0.1244   -1.0640 C   0  0  0  0  0  0  0  0  0  0  0  0
    4.6145    1.0799   -1.1692 C   0  0  0  0  0  0  0  0  0  0  0  0
    3.2406    1.0867   -1.0955 C   0  0  0  0  0  0  0  0  0  0  0  0
    2.5213   -0.0812   -0.9201 C   0  0  0  0  0  0  0  0  0  0  0  0
    0.7447    0.0041   -0.8338 S   0  0  0  0  0  0  0  0  0  0  0  0
    0.2075    0.2278    0.8548 C   0  0  0  0  0  0  0  0  0  0  0  0
    1.1598    0.3043    1.8356 C   0  0  0  0  0  0  0  0  0  0  0  0
    0.8479    0.4765    3.1709 C   0  0  0  0  0  0  0  0  0  0  0  0
   -0.4767    0.5732    3.5132 C   0  0  0  0  0  0  0  0  0  0  0  0
   -1.4352    0.4958    2.5233 C   0  0  0  0  0  0  0  0  0  0  0  0
   -1.1221    0.3245    1.1952 C   0  0  0  0  0  0  0  0  0  0  0  0
   -2.1218    0.2507    0.2208 N   0  0  0  0  0  0  0  0  0  0  0  0
   -2.2558    1.1607   -0.8977 C   0  0  0  0  0  0  0  0  0  0  0  0
   -3.5246    0.7699   -1.6319 C   0  0  0  0  0  0  0  0  0  0  0  0
   -3.4199   -0.5844   -2.0749 N   0  0  0  0  0  0  0  0  0  0  0  0
   -3.0584   -1.5245   -1.0601 C   0  0  0  0  0  0  0  0  0  0  0  0
   -3.1336   -0.8142    0.2978 C   0  0  0  0  0  0  0  0  0  0  0  0
    3.2163   -1.2671   -0.8194 C   0  0  0  0  0  0  0  0  0  0  0  0
    2.3073   -2.7432   -0.5977 Cl  0  0  0  0  0  0  0  0  0  0  0  0
    6.3437   -0.1363   -1.1209 H   0  0  0  0  0  0  0  0  0  0  0  0
    5.2054    1.9964   -1.3082 H   0  0  0  0  0  0  0  0  0  0  0  0
    2.7142    2.0298   -1.1771 H   0  0  0  0  0  0  0  0  0  0  0  0
    2.2310    0.2306    1.5964 H   0  0  0  0  0  0  0  0  0  0  0  0
    1.6241    0.5341    3.9305 H   0  0  0  0  0  0  0  0  0  0  0  0
   -0.7214    0.7084    4.5622 H   0  0  0  0  0  0  0  0  0  0  0  0
   -2.4741    0.5810    2.8702 H   0  0  0  0  0  0  0  0  0  0  0  0
   -1.4284    1.0795   -1.6241 H   0  0  0  0  0  0  0  0  0  0  0  0
   -2.2899    2.2260   -0.5707 H   0  0  0  0  0  0  0  0  0  0  0  0
   -3.5390    1.4142   -2.5600 H   0  0  0  0  0  0  0  0  0  0  0  0
   -4.4297    0.9883   -1.0326 H   0  0  0  0  0  0  0  0  0  0  0  0
   -4.1403   -0.8916   -2.7322 H   0  0  0  0  0  0  0  0  0  0  0  0
   -1.9826   -1.8550   -1.1423 H   0  0  0  0  0  0  0  0  0  0  0  0
   -3.7106   -2.4219   -1.0168 H   0  0  0  0  0  0  0  0  0  0  0  0
   -2.9072   -1.5290    1.0980 H   0  0  0  0  0  0  0  0  0  0  0  0
   -4.1425   -0.4171    0.4267 H   0  0  0  0  0  0  0  0  0  0  0  0
  1  2  1  0
  2  3  2  0
  3  4  1  0
  4  5  2  0
  5  6  1  0
  6  7  1  0
  7  8  1  0
  8  9  2  0
  9 10  1  0
 10 11  2  0
 11 12  1  0
 12 13  2  0
 13 14  1  0
 14 15  1  0
 15 16  1  0
 16 17  1  0
 17 18  1  0
 18 19  1  0
  6 20  2  0
 20 21  1  0
 20  2  1  0
 13  8  1  0
 19 14  1  0
  3 22  1  0
  4 23  1  0
  5 24  1  0
  9 25  1  0
 10 26  1  0
 11 27  1  0
 12 28  1  0
 15 29  1  0
 15 30  1  0
 16 31  1  0
 16 32  1  0
 17 33  1  0
 18 34  1  0
 18 35  1  0
 19 36  1  0
 19 37  1  0
M  END
$$$$
