
     RDKit          3D

 54 55  0  0  0  0  0  0  0  0999 V2000
    7.1007    2.3312   -0.3999 C   0  0  0  0  0  0  0  0  0  0  0  0
    6.6822    1.2999    0.8864 S   0  0  0  0  0  6  0  0  0  0  0  0
    8.0236    1.1485    1.7082 O   0  0  0  0  0  0  0  0  0  0  0  0
    5.7131    1.7867    1.8779 O   0  0  0  0  0  0  0  0  0  0  0  0
    6.3293   -0.4056    0.4700 N   0  0  0  0  0  0  0  0  0  0  0  0
    5.5605   -0.0948   -0.7160 C   0  0  0  0  0  0  0  0  0  0  0  0
    4.1562   -0.2378   -0.6455 C   0  0  0  0  0  0  0  0  0  0  0  0
    3.5372    1.1141   -1.1186 N   0  0  0  0  0  0  0  0  0  0  0  0
    2.2215    0.7996   -1.0906 O   0  0  0  0  0  0  0  0  0  0  0  0
    2.0621   -0.4272   -0.6996 C   0  0  0  0  0  0  0  0  0  0  0  0
    0.6842   -1.1003   -0.6272 C   0  0  2  0  0  0  0  0  0  0  0  0
   -0.1446   -0.1195    0.1668 C   0  0  0  0  0  0  0  0  0  0  0  0
   -1.6208   -0.4950    0.1064 C   0  0  0  0  0  0  0  0  0  0  0  0
   -2.3715    0.7452   -0.4321 C   0  0  0  0  0  0  0  0  0  0  0  0
   -3.3750    1.1749    0.5898 C   0  0  0  0  0  0  0  0  0  0  0  0
   -4.4386    0.1192    0.7538 C   0  0  0  0  0  0  0  0  0  0  0  0
   -5.3347    0.0789   -0.4792 C   0  0  0  0  0  0  0  0  0  0  0  0
   -5.6830    1.4670   -0.9610 C   0  0  0  0  0  0  0  0  0  0  0  0
   -5.3776    2.5316    0.0718 C   0  0  0  0  0  0  0  0  0  0  0  0
   -3.8940    2.5556    0.3988 C   0  0  0  0  0  0  0  0  0  0  0  0
    0.9624   -2.4189    0.0896 C   0  0  0  0  0  0  0  0  0  0  0  0
    0.2299   -3.6297   -0.4725 C   0  0  0  0  0  0  0  0  0  0  0  0
    0.4525   -3.8779   -1.5861 O   0  0  0  0  0  0  0  0  0  0  0  0
   -0.5155   -4.3369    0.3685 N   0  0  0  0  0  0  0  0  0  0  0  0
   -1.3135   -5.3696   -0.0382 O   0  0  0  0  0  0  0  0  0  0  0  0
    3.1741   -0.8773   -0.4372 N   0  0  0  0  0  0  0  0  0  0  0  0
    8.0444    2.2988   -0.7782 H   0  0  0  0  0  0  0  0  0  0  0  0
    6.2529    2.2497   -1.2225 H   0  0  0  0  0  0  0  0  0  0  0  0
    6.8439    3.4152   -0.0397 H   0  0  0  0  0  0  0  0  0  0  0  0
    5.6788   -0.7584    1.1595 H   0  0  0  0  0  0  0  0  0  0  0  0
    6.0595    0.2509   -1.5945 H   0  0  0  0  0  0  0  0  0  0  0  0
    5.7289   -1.3964   -1.1728 H   0  0  0  0  0  0  0  0  0  0  0  0
    0.2821   -1.2366   -1.6391 H   0  0  0  0  0  0  0  0  0  0  0  0
    0.2501   -0.2345    1.2340 H   0  0  0  0  0  0  0  0  0  0  0  0
    0.0521    0.8843   -0.1893 H   0  0  0  0  0  0  0  0  0  0  0  0
   -1.7890   -1.3738   -0.5341 H   0  0  0  0  0  0  0  0  0  0  0  0
   -1.9487   -0.7344    1.1234 H   0  0  0  0  0  0  0  0  0  0  0  0
   -1.6831    1.5531   -0.7146 H   0  0  0  0  0  0  0  0  0  0  0  0
   -2.9349    0.3962   -1.3625 H   0  0  0  0  0  0  0  0  0  0  0  0
   -2.8001    1.1462    1.5790 H   0  0  0  0  0  0  0  0  0  0  0  0
   -3.9736   -0.8470    0.9077 H   0  0  0  0  0  0  0  0  0  0  0  0
   -5.0498    0.3863    1.6325 H   0  0  0  0  0  0  0  0  0  0  0  0
   -6.2599   -0.4722   -0.1776 H   0  0  0  0  0  0  0  0  0  0  0  0
   -4.8173   -0.4855   -1.2732 H   0  0  0  0  0  0  0  0  0  0  0  0
   -6.7667    1.5299   -1.1895 H   0  0  0  0  0  0  0  0  0  0  0  0
   -5.1165    1.6945   -1.8761 H   0  0  0  0  0  0  0  0  0  0  0  0
   -5.6725    3.4985   -0.3626 H   0  0  0  0  0  0  0  0  0  0  0  0
   -5.9698    2.3828    0.9906 H   0  0  0  0  0  0  0  0  0  0  0  0
   -3.7871    3.1583    1.3353 H   0  0  0  0  0  0  0  0  0  0  0  0
   -3.3310    3.1020   -0.3787 H   0  0  0  0  0  0  0  0  0  0  0  0
    0.6389   -2.2289    1.1563 H   0  0  0  0  0  0  0  0  0  0  0  0
    2.0163   -2.6646    0.0535 H   0  0  0  0  0  0  0  0  0  0  0  0
   -0.5047   -4.2130    1.4439 H   0  0  0  0  0  0  0  0  0  0  0  0
   -2.2639   -5.0631    0.1867 H   0  0  0  0  0  0  0  0  0  0  0  0
  1  2  1  0
  2  3  2  0
  2  4  2  0
  2  5  1  0
  5  6  1  0
  6  7  1  0
  7  8  2  0
  8  9  1  0
  9 10  1  0
 10 11  1  0
 11 12  1  0
 12 13  1  0
 13 14  1  0
 14 15  1  0
 15 16  1  0
 16 17  1  0
 17 18  1  0
 18 19  1  0
 19 20  1  0
 11 21  1  0
 21 22  1  0
 22 23  2  0
 22 24  1  0
 24 25  1  0
 10 26  2  0
 26  7  1  0
 20 15  1  0
  1 27  1  0
  1 28  1  0
  1 29  1  0
  5 30  1  0
  6 31  1  0
  6 32  1  0
 11 33  1  6
 12 34  1  0
 12 35  1  0
 13 36  1  0
 13 37  1  0
 14 38  1  0
 14 39  1  0
 15 40  1  0
 16 41  1  0
 16 42  1  0
 17 43  1  0
 17 44  1  0
 18 45  1  0
 18 46  1  0
 19 47  1  0
 19 48  1  0
 20 49  1  0
 20 50  1  0
 21 51  1  0
 21 52  1  0
 24 53  1  0
 25 54  1  0
M  END
$$$$
