
     RDKit          3D

 54 57  0  0  0  0  0  0  0  0999 V2000
   10.7109    1.2395   -1.2552 C   0  0  0  0  0  0  0  0  0  0  0  0
    9.5619    1.0483   -0.9456 C   0  0  0  0  0  0  0  0  0  0  0  0
    8.2110    0.8144   -0.5575 C   0  0  0  0  0  0  0  0  0  0  0  0
    7.2317    0.4940   -1.4673 C   0  0  0  0  0  0  0  0  0  0  0  0
    5.9121    0.2569   -1.0583 C   0  0  0  0  0  0  0  0  0  0  0  0
    5.5884    0.3454    0.2787 C   0  0  0  0  0  0  0  0  0  0  0  0
    4.2612    0.1024    0.7981 C   0  0  0  0  0  0  0  0  0  0  0  0
    4.0557    0.2522    2.1467 F   0  0  0  0  0  0  0  0  0  0  0  0
    3.2001   -0.2435    0.1071 C   0  0  0  0  0  0  0  0  0  0  0  0
    1.8880   -0.4749    0.7109 C   0  0  0  0  0  0  0  0  0  0  0  0
    1.8297   -1.1615    1.9011 C   0  0  0  0  0  0  0  0  0  0  0  0
    0.6139   -1.3844    2.5049 C   0  0  0  0  0  0  0  0  0  0  0  0
   -0.5607   -0.9087    1.9001 C   0  0  0  0  0  0  0  0  0  0  0  0
   -1.6849   -1.1813    2.6148 F   0  0  0  0  0  0  0  0  0  0  0  0
   -0.5164   -0.2284    0.7210 C   0  0  0  0  0  0  0  0  0  0  0  0
   -1.8060    0.2518    0.0952 C   0  0  1  0  0  0  0  0  0  0  0  0
   -2.3385    1.2858    1.0684 C   0  0  0  0  0  0  0  0  0  0  0  0
   -1.4935    0.9642   -1.1292 N   0  0  0  0  0  0  0  0  0  0  0  0
   -2.4035    1.3603   -1.9178 C   0  0  0  0  0  0  0  0  0  0  0  0
   -2.1728    2.0609   -3.1254 N   0  0  0  0  0  0  0  0  0  0  0  0
   -4.1027    0.9601   -1.4327 S   0  0  0  0  0  0  0  0  0  0  0  0
   -3.9874   -0.7267   -0.7326 C   0  0  1  0  0  0  0  0  0  0  0  0
   -5.1655   -1.3863   -0.1911 C   0  0  0  0  0  0  0  0  0  0  0  0
   -5.2371   -2.6583   -0.3337 O   0  0  0  0  0  0  0  0  0  0  0  0
   -6.2109   -0.7428    0.4651 N   0  0  0  0  0  0  0  0  0  0  0  0
   -7.3292   -1.5759    0.9622 C   0  0  0  0  0  0  0  0  0  0  0  0
   -6.3384    0.6705    0.7197 C   0  0  0  0  0  0  0  0  0  0  0  0
   -2.9324   -1.5510   -1.4219 C   0  0  0  0  0  0  0  0  0  0  0  0
   -2.6883   -0.9326   -0.0927 C   0  0  1  0  0  0  0  0  0  0  0  0
    0.7096   -0.0046    0.1147 C   0  0  0  0  0  0  0  0  0  0  0  0
    6.5741    0.6615    1.1301 N   0  0  0  0  0  0  0  0  0  0  0  0
    7.8306    0.8907    0.7677 C   0  0  0  0  0  0  0  0  0  0  0  0
   11.6959    1.4214   -1.5179 H   0  0  0  0  0  0  0  0  0  0  0  0
    7.4873    0.4243   -2.5202 H   0  0  0  0  0  0  0  0  0  0  0  0
    5.1425    0.0073   -1.7580 H   0  0  0  0  0  0  0  0  0  0  0  0
    3.3032   -0.3640   -0.9584 H   0  0  0  0  0  0  0  0  0  0  0  0
    2.7268   -1.5343    2.3638 H   0  0  0  0  0  0  0  0  0  0  0  0
    0.5976   -1.9289    3.4426 H   0  0  0  0  0  0  0  0  0  0  0  0
   -3.3612    1.6066    0.8842 H   0  0  0  0  0  0  0  0  0  0  0  0
   -1.6977    2.2180    1.0140 H   0  0  0  0  0  0  0  0  0  0  0  0
   -2.2472    0.9712    2.1324 H   0  0  0  0  0  0  0  0  0  0  0  0
   -2.8528    2.0150   -3.8984 H   0  0  0  0  0  0  0  0  0  0  0  0
   -1.3147    2.6212   -3.2272 H   0  0  0  0  0  0  0  0  0  0  0  0
   -8.1516   -1.4272    0.2420 H   0  0  0  0  0  0  0  0  0  0  0  0
   -6.9967   -2.6095    0.9809 H   0  0  0  0  0  0  0  0  0  0  0  0
   -7.5910   -1.2082    1.9967 H   0  0  0  0  0  0  0  0  0  0  0  0
   -7.3322    0.9032    1.1983 H   0  0  0  0  0  0  0  0  0  0  0  0
   -6.2585    1.2046   -0.2341 H   0  0  0  0  0  0  0  0  0  0  0  0
   -5.5803    1.0029    1.4334 H   0  0  0  0  0  0  0  0  0  0  0  0
   -2.3854   -1.1406   -2.2705 H   0  0  0  0  0  0  0  0  0  0  0  0
   -3.0972   -2.6464   -1.5028 H   0  0  0  0  0  0  0  0  0  0  0  0
   -2.6474   -1.7069    0.7293 H   0  0  0  0  0  0  0  0  0  0  0  0
    0.7503    0.5297   -0.8120 H   0  0  0  0  0  0  0  0  0  0  0  0
    8.5995    1.1425    1.4811 H   0  0  0  0  0  0  0  0  0  0  0  0
  1  2  3  0
  2  3  1  0
  3  4  2  0
  4  5  1  0
  5  6  2  0
  6  7  1  0
  7  8  1  0
  7  9  2  0
  9 10  1  0
 10 11  2  0
 11 12  1  0
 12 13  2  0
 13 14  1  0
 13 15  1  0
 15 16  1  0
 16 17  1  1
 16 18  1  0
 18 19  2  0
 19 20  1  0
 19 21  1  0
 21 22  1  0
 22 23  1  1
 23 24  2  0
 23 25  1  0
 25 26  1  0
 25 27  1  0
 22 28  1  0
 28 29  1  0
 15 30  2  0
  6 31  1  0
 31 32  2  0
 32  3  1  0
 30 10  1  0
 29 16  1  0
 29 22  1  0
  1 33  1  0
  4 34  1  0
  5 35  1  0
  9 36  1  0
 11 37  1  0
 12 38  1  0
 17 39  1  0
 17 40  1  0
 17 41  1  0
 20 42  1  0
 20 43  1  0
 26 44  1  0
 26 45  1  0
 26 46  1  0
 27 47  1  0
 27 48  1  0
 27 49  1  0
 28 50  1  0
 28 51  1  0
 29 52  1  1
 30 53  1  0
 32 54  1  0
M  END
$$$$
