
     RDKit          3D

 70 74  0  0  0  0  0  0  0  0999 V2000
  -10.5461    0.8761    0.2821 C   0  0  0  0  0  0  0  0  0  0  0  0
   -9.4320    1.0246   -0.7093 C   0  0  0  0  0  0  0  0  0  0  0  0
   -8.1218    0.9194   -0.1316 N   0  0  0  0  0  0  0  0  0  0  0  0
   -7.1489    1.0654   -1.1778 C   0  0  0  0  0  0  0  0  0  0  0  0
   -5.7327    0.8072   -0.7945 C   0  0  0  0  0  0  0  0  0  0  0  0
   -5.5746   -0.2093    0.1716 N   0  0  0  0  0  0  0  0  0  0  0  0
   -4.6512   -1.2257   -0.0314 C   0  0  2  0  0  0  0  0  0  0  0  0
   -4.5457   -2.2762    1.0342 C   0  0  0  0  0  0  0  0  0  0  0  0
   -3.3121   -0.6741   -0.3978 C   0  0  0  0  0  0  0  0  0  0  0  0
   -3.1954    0.5644   -0.5503 O   0  0  0  0  0  0  0  0  0  0  0  0
   -2.1736   -1.4811   -0.5791 N   0  0  0  0  0  0  0  0  0  0  0  0
   -0.8749   -1.0232   -0.9262 C   0  0  0  0  0  0  0  0  0  0  0  0
   -0.4282   -0.9232   -2.2315 C   0  0  0  0  0  0  0  0  0  0  0  0
    0.8269   -0.4843   -2.5611 C   0  0  0  0  0  0  0  0  0  0  0  0
    1.7006   -0.1201   -1.5600 C   0  0  0  0  0  0  0  0  0  0  0  0
    1.2752   -0.2108   -0.2355 C   0  0  0  0  0  0  0  0  0  0  0  0
    1.9689    0.1037    0.9305 C   0  0  0  0  0  0  0  0  0  0  0  0
    3.3352    0.5909    1.0240 C   0  0  0  0  0  0  0  0  0  0  0  0
    4.3775   -0.0806    0.5099 N   0  0  0  0  0  0  0  0  0  0  0  0
    5.6443    0.3688    0.5794 C   0  0  0  0  0  0  0  0  0  0  0  0
    6.7284   -0.3690    0.0488 N   0  0  0  0  0  0  0  0  0  0  0  0
    8.0742    0.0458    0.0067 C   0  0  0  0  0  0  0  0  0  0  0  0
    8.6231    1.2355    0.3882 C   0  0  0  0  0  0  0  0  0  0  0  0
    9.9686    1.2135    0.1574 N   0  0  0  0  0  0  0  0  0  0  0  0
   10.9126    2.2742    0.4191 C   0  0  0  0  0  0  0  0  0  0  0  0
   10.2641    0.0415   -0.3557 N   0  0  0  0  0  0  0  0  0  0  0  0
    9.1463   -0.7110   -0.4697 C   0  0  0  0  0  0  0  0  0  0  0  0
    9.0049   -1.9968   -0.9553 O   0  0  0  0  0  0  0  0  0  0  0  0
   10.1265   -2.7013   -1.4184 C   0  0  0  0  0  0  0  0  0  0  0  0
    5.8613    1.5395    1.1904 N   0  0  0  0  0  0  0  0  0  0  0  0
    4.8901    2.2964    1.7413 C   0  0  0  0  0  0  0  0  0  0  0  0
    3.6003    1.7934    1.6462 C   0  0  0  0  0  0  0  0  0  0  0  0
    2.5881    2.5025    2.1774 F   0  0  0  0  0  0  0  0  0  0  0  0
    1.0682   -0.1697    1.9384 C   0  0  0  0  0  0  0  0  0  0  0  0
   -0.1045   -0.6245    1.4058 N   0  0  0  0  0  0  0  0  0  0  0  0
    0.0200   -0.6510    0.0683 C   0  0  0  0  0  0  0  0  0  0  0  0
   -6.5081   -0.2236    1.2135 C   0  0  0  0  0  0  0  0  0  0  0  0
   -7.9561   -0.1960    0.7364 C   0  0  0  0  0  0  0  0  0  0  0  0
  -11.5004    0.8506   -0.2917 H   0  0  0  0  0  0  0  0  0  0  0  0
  -10.5147   -0.0752    0.8482 H   0  0  0  0  0  0  0  0  0  0  0  0
  -10.6111    1.7713    0.9379 H   0  0  0  0  0  0  0  0  0  0  0  0
   -9.5247    2.0742   -1.1179 H   0  0  0  0  0  0  0  0  0  0  0  0
   -9.5683    0.3485   -1.5841 H   0  0  0  0  0  0  0  0  0  0  0  0
   -7.2005    2.1550   -1.4878 H   0  0  0  0  0  0  0  0  0  0  0  0
   -7.4416    0.5022   -2.0964 H   0  0  0  0  0  0  0  0  0  0  0  0
   -5.2336    1.7561   -0.4812 H   0  0  0  0  0  0  0  0  0  0  0  0
   -5.2149    0.4562   -1.7387 H   0  0  0  0  0  0  0  0  0  0  0  0
   -4.9588   -1.7954   -0.9644 H   0  0  0  0  0  0  0  0  0  0  0  0
   -5.5465   -2.6928    1.2295 H   0  0  0  0  0  0  0  0  0  0  0  0
   -3.9666   -1.9872    1.9160 H   0  0  0  0  0  0  0  0  0  0  0  0
   -3.9754   -3.1347    0.5670 H   0  0  0  0  0  0  0  0  0  0  0  0
   -2.3143   -2.5169   -0.4413 H   0  0  0  0  0  0  0  0  0  0  0  0
   -1.1143   -1.2080   -3.0103 H   0  0  0  0  0  0  0  0  0  0  0  0
    1.1985   -0.3976   -3.5754 H   0  0  0  0  0  0  0  0  0  0  0  0
    2.6983    0.2321   -1.7614 H   0  0  0  0  0  0  0  0  0  0  0  0
    6.4647   -1.3298   -0.3487 H   0  0  0  0  0  0  0  0  0  0  0  0
    8.0847    2.0846    0.8125 H   0  0  0  0  0  0  0  0  0  0  0  0
   10.8495    2.9682   -0.4697 H   0  0  0  0  0  0  0  0  0  0  0  0
   10.5476    2.8736    1.2837 H   0  0  0  0  0  0  0  0  0  0  0  0
   11.9344    1.8926    0.5767 H   0  0  0  0  0  0  0  0  0  0  0  0
   10.1724   -3.7494   -1.0566 H   0  0  0  0  0  0  0  0  0  0  0  0
   11.0720   -2.1858   -1.1555 H   0  0  0  0  0  0  0  0  0  0  0  0
   10.1050   -2.7655   -2.5355 H   0  0  0  0  0  0  0  0  0  0  0  0
    5.1223    3.2422    2.2271 H   0  0  0  0  0  0  0  0  0  0  0  0
    1.2611   -0.0437    2.9989 H   0  0  0  0  0  0  0  0  0  0  0  0
   -0.9546   -0.9056    1.9314 H   0  0  0  0  0  0  0  0  0  0  0  0
   -6.3108   -0.9706    1.9766 H   0  0  0  0  0  0  0  0  0  0  0  0
   -6.4020    0.7715    1.7502 H   0  0  0  0  0  0  0  0  0  0  0  0
   -8.5571    0.0198    1.6606 H   0  0  0  0  0  0  0  0  0  0  0  0
   -8.2998   -1.1517    0.3462 H   0  0  0  0  0  0  0  0  0  0  0  0
  1  2  1  0
  2  3  1  0
  3  4  1  0
  4  5  1  0
  5  6  1  0
  6  7  1  0
  7  8  1  0
  7  9  1  0
  9 10  2  0
  9 11  1  0
 11 12  1  0
 12 13  2  0
 13 14  1  0
 14 15  2  0
 15 16  1  0
 16 17  1  0
 17 18  1  0
 18 19  2  0
 19 20  1  0
 20 21  1  0
 21 22  1  0
 22 23  2  0
 23 24  1  0
 24 25  1  0
 24 26  1  0
 26 27  2  0
 27 28  1  0
 28 29  1  0
 20 30  2  0
 30 31  1  0
 31 32  2  0
 32 33  1  0
 17 34  2  0
 34 35  1  0
 35 36  1  0
  6 37  1  0
 37 38  1  0
 38  3  1  0
 36 12  1  0
 36 16  2  0
 32 18  1  0
 27 22  1  0
  1 39  1  0
  1 40  1  0
  1 41  1  0
  2 42  1  0
  2 43  1  0
  4 44  1  0
  4 45  1  0
  5 46  1  0
  5 47  1  0
  7 48  1  6
  8 49  1  0
  8 50  1  0
  8 51  1  0
 11 52  1  0
 13 53  1  0
 14 54  1  0
 15 55  1  0
 21 56  1  0
 23 57  1  0
 25 58  1  0
 25 59  1  0
 25 60  1  0
 29 61  1  0
 29 62  1  0
 29 63  1  0
 31 64  1  0
 34 65  1  0
 35 66  1  0
 37 67  1  0
 37 68  1  0
 38 69  1  0
 38 70  1  0
M  END
$$$$
