
     RDKit          3D

 58 63  0  0  0  0  0  0  0  0999 V2000
    5.7582   -0.9993   -0.8678 C   0  0  0  0  0  0  0  0  0  0  0  0
    4.8208   -0.0078   -0.4799 O   0  0  0  0  0  0  0  0  0  0  0  0
    5.1915    1.1992    0.0892 C   0  0  0  0  0  0  0  0  0  0  0  0
    6.4699    1.5406    0.3253 N   0  0  0  0  0  0  0  0  0  0  0  0
    6.8234    2.7160    0.8791 C   0  0  0  0  0  0  0  0  0  0  0  0
    5.8576    3.6439    1.2366 C   0  0  0  0  0  0  0  0  0  0  0  0
    4.5424    3.3034    0.9984 C   0  0  0  0  0  0  0  0  0  0  0  0
    4.1935    2.0809    0.4236 C   0  0  0  0  0  0  0  0  0  0  0  0
    2.8152    1.7624    0.1914 N   0  0  0  0  0  0  0  0  0  0  0  0
    2.0543    2.2470   -0.7841 N   0  0  0  0  0  0  0  0  0  0  0  0
    0.8164    1.7446   -0.7147 C   0  0  0  0  0  0  0  0  0  0  0  0
    0.7631    0.8993    0.3438 C   0  0  0  0  0  0  0  0  0  0  0  0
    2.0306    0.9237    0.9027 C   0  0  0  0  0  0  0  0  0  0  0  0
    2.5297    0.1814    2.0889 C   0  0  0  0  0  0  0  0  0  0  0  0
   -0.5786    0.2743    0.4950 C   0  0  0  0  0  0  0  0  0  0  0  0
   -0.3725   -1.1838    0.3144 C   0  0  0  0  0  0  0  0  0  0  0  0
   -0.4176   -2.0691    1.3668 C   0  0  0  0  0  0  0  0  0  0  0  0
   -0.2138   -3.4379    1.2051 C   0  0  0  0  0  0  0  0  0  0  0  0
    0.0385   -3.8751   -0.0723 C   0  0  0  0  0  0  0  0  0  0  0  0
    0.2429   -5.1946   -0.2795 F   0  0  0  0  0  0  0  0  0  0  0  0
    0.0902   -3.0216   -1.1412 C   0  0  0  0  0  0  0  0  0  0  0  0
   -0.1173   -1.6665   -0.9432 C   0  0  0  0  0  0  0  0  0  0  0  0
   -0.0605   -0.8589   -2.0072 F   0  0  0  0  0  0  0  0  0  0  0  0
   -1.3753    0.8652   -0.5636 N   0  0  0  0  0  0  0  0  0  0  0  0
   -2.7620    0.5785   -0.7719 C   0  0  0  0  0  0  0  0  0  0  0  0
   -3.4788    1.1166   -1.8183 C   0  0  0  0  0  0  0  0  0  0  0  0
   -4.8274    0.7631   -1.9029 C   0  0  0  0  0  0  0  0  0  0  0  0
   -5.6118    1.3366   -3.0261 C   0  0  0  0  0  0  0  0  0  0  0  0
   -5.4336   -0.0787   -0.9991 C   0  0  0  0  0  0  0  0  0  0  0  0
   -6.6818   -0.5758   -0.8433 N   0  0  0  0  0  0  0  0  0  0  0  0
   -6.7119   -1.3603    0.2259 N   0  0  0  0  0  0  0  0  0  0  0  0
   -5.4963   -1.3848    0.7756 C   0  0  0  0  0  0  0  0  0  0  0  0
   -5.0866   -2.1328    1.9808 C   0  0  0  0  0  0  0  0  0  0  0  0
   -4.7185   -0.5939    0.0149 N   0  0  0  0  0  0  0  0  0  0  0  0
   -3.4319   -0.2588    0.0990 C   0  0  0  0  0  0  0  0  0  0  0  0
   -0.5278    1.7269   -1.2928 C   0  0  0  0  0  0  0  0  0  0  0  0
   -0.8657    2.3978   -2.3065 O   0  0  0  0  0  0  0  0  0  0  0  0
    5.7763   -1.8472   -0.1483 H   0  0  0  0  0  0  0  0  0  0  0  0
    5.4017   -1.4252   -1.8322 H   0  0  0  0  0  0  0  0  0  0  0  0
    6.7884   -0.5776   -0.9739 H   0  0  0  0  0  0  0  0  0  0  0  0
    7.8664    2.9788    1.0648 H   0  0  0  0  0  0  0  0  0  0  0  0
    6.1396    4.5999    1.6867 H   0  0  0  0  0  0  0  0  0  0  0  0
    3.7798    4.0229    1.2748 H   0  0  0  0  0  0  0  0  0  0  0  0
    3.3297   -0.5463    1.8348 H   0  0  0  0  0  0  0  0  0  0  0  0
    2.8235    0.8721    2.9135 H   0  0  0  0  0  0  0  0  0  0  0  0
    1.6842   -0.4173    2.4868 H   0  0  0  0  0  0  0  0  0  0  0  0
   -1.0593    0.4833    1.4662 H   0  0  0  0  0  0  0  0  0  0  0  0
   -0.6200   -1.6921    2.3690 H   0  0  0  0  0  0  0  0  0  0  0  0
   -0.2666   -4.0493    2.0748 H   0  0  0  0  0  0  0  0  0  0  0  0
    0.2941   -3.4315   -2.1240 H   0  0  0  0  0  0  0  0  0  0  0  0
   -3.0270    1.7789   -2.5415 H   0  0  0  0  0  0  0  0  0  0  0  0
   -4.9868    1.2085   -3.9461 H   0  0  0  0  0  0  0  0  0  0  0  0
   -5.8604    2.3946   -2.8380 H   0  0  0  0  0  0  0  0  0  0  0  0
   -6.5613    0.7821   -3.1186 H   0  0  0  0  0  0  0  0  0  0  0  0
   -5.8285   -2.8925    2.2660 H   0  0  0  0  0  0  0  0  0  0  0  0
   -4.1378   -2.6947    1.7753 H   0  0  0  0  0  0  0  0  0  0  0  0
   -4.9322   -1.4714    2.8508 H   0  0  0  0  0  0  0  0  0  0  0  0
   -2.8719   -0.6774    0.9229 H   0  0  0  0  0  0  0  0  0  0  0  0
  1  2  1  0
  2  3  1  0
  3  4  2  0
  4  5  1  0
  5  6  2  0
  6  7  1  0
  7  8  2  0
  8  9  1  0
  9 10  1  0
 10 11  2  0
 11 12  1  0
 12 13  2  0
 13 14  1  0
 12 15  1  0
 15 16  1  0
 16 17  2  0
 17 18  1  0
 18 19  2  0
 19 20  1  0
 19 21  1  0
 21 22  2  0
 22 23  1  0
 15 24  1  0
 24 25  1  0
 25 26  1  0
 26 27  2  0
 27 28  1  0
 27 29  1  0
 29 30  2  0
 30 31  1  0
 31 32  2  0
 32 33  1  0
 32 34  1  0
 34 35  1  0
 24 36  1  0
 36 37  2  0
  8  3  1  0
 13  9  1  0
 22 16  1  0
 35 25  2  0
 36 11  1  0
 34 29  1  0
  1 38  1  0
  1 39  1  0
  1 40  1  0
  5 41  1  0
  6 42  1  0
  7 43  1  0
 14 44  1  0
 14 45  1  0
 14 46  1  0
 15 47  1  0
 17 48  1  0
 18 49  1  0
 21 50  1  0
 26 51  1  0
 28 52  1  0
 28 53  1  0
 28 54  1  0
 33 55  1  0
 33 56  1  0
 33 57  1  0
 35 58  1  0
M  END
$$$$
