
     RDKit          3D

 62 65  0  0  0  0  0  0  0  0999 V2000
   -5.3340    2.3555    0.7258 N   0  0  0  0  0  0  0  0  0  0  0  0
   -5.2911    2.4298   -0.6720 C   0  0  0  0  0  0  0  0  0  0  0  0
   -6.3100    3.1852   -1.2588 C   0  0  0  0  0  0  0  0  0  0  0  0
   -6.3440    3.3123   -2.6220 C   0  0  0  0  0  0  0  0  0  0  0  0
   -5.3526    2.6747   -3.3480 C   0  0  0  0  0  0  0  0  0  0  0  0
   -4.3966    1.9621   -2.7525 N   0  0  0  0  0  0  0  0  0  0  0  0
   -4.3249    1.8096   -1.3939 C   0  0  0  0  0  0  0  0  0  0  0  0
   -3.2575    1.0199   -0.8091 C   0  0  1  0  0  0  0  0  0  0  0  0
   -2.0214    1.9202   -0.5807 C   0  0  0  0  0  0  0  0  0  0  0  0
   -0.8342    1.0772   -0.2464 C   0  0  0  0  0  0  0  0  0  0  0  0
   -1.0819   -0.3486    0.0216 C   0  0  2  0  0  0  0  0  0  0  0  0
   -1.0594   -1.2337   -1.1247 N   0  0  0  0  0  0  0  0  0  0  0  0
    0.0917   -1.3273   -1.9255 C   0  0  0  0  0  0  0  0  0  0  0  0
    0.3810   -2.7656   -1.5569 C   0  0  0  0  0  0  0  0  0  0  0  0
    1.7051   -2.8258   -0.9450 N   0  0  0  0  0  0  0  0  0  0  0  0
    2.6921   -3.7337   -1.3473 C   0  0  0  0  0  0  0  0  0  0  0  0
    2.3763   -4.5333   -2.2824 O   0  0  0  0  0  0  0  0  0  0  0  0
    4.0362   -3.7871   -0.7350 C   0  0  0  0  0  0  0  0  0  0  0  0
    4.2050   -2.7468    0.2527 N   0  0  0  0  0  0  0  0  0  0  0  0
    4.1655   -1.3551   -0.0691 C   0  0  0  0  0  0  0  0  0  0  0  0
    3.9815   -1.0484   -1.2798 O   0  0  0  0  0  0  0  0  0  0  0  0
    4.3245   -0.3077    0.9230 C   0  0  0  0  0  0  0  0  0  0  0  0
    4.1270    1.0049    0.4998 C   0  0  0  0  0  0  0  0  0  0  0  0
    4.2604    2.0522    1.3840 C   0  0  0  0  0  0  0  0  0  0  0  0
    4.5919    1.7753    2.6897 C   0  0  0  0  0  0  0  0  0  0  0  0
    4.7873    0.4999    3.1150 C   0  0  0  0  0  0  0  0  0  0  0  0
    5.1480    0.1954    4.5214 C   0  0  0  0  0  0  0  0  0  0  0  0
    4.3120   -0.7897    5.0078 F   0  0  0  0  0  0  0  0  0  0  0  0
    5.0408    1.3242    5.2810 F   0  0  0  0  0  0  0  0  0  0  0  0
    6.4837   -0.2267    4.5613 F   0  0  0  0  0  0  0  0  0  0  0  0
    4.6530   -0.5400    2.2285 C   0  0  0  0  0  0  0  0  0  0  0  0
   -0.7654   -2.5883   -0.6223 C   0  0  0  0  0  0  0  0  0  0  0  0
   -2.3574   -0.6093    0.7429 C   0  0  0  0  0  0  0  0  0  0  0  0
   -3.4777    0.3741    0.5070 C   0  0  0  0  0  0  0  0  0  0  0  0
   -5.8045    1.6395    1.2952 H   0  0  0  0  0  0  0  0  0  0  0  0
   -4.8283    3.1210    1.2632 H   0  0  0  0  0  0  0  0  0  0  0  0
   -7.0747    3.6727   -0.6508 H   0  0  0  0  0  0  0  0  0  0  0  0
   -7.1285    3.8962   -3.1319 H   0  0  0  0  0  0  0  0  0  0  0  0
   -5.4036    2.7953   -4.4369 H   0  0  0  0  0  0  0  0  0  0  0  0
   -2.8531    0.2620   -1.5652 H   0  0  0  0  0  0  0  0  0  0  0  0
   -1.8861    2.6495   -1.3744 H   0  0  0  0  0  0  0  0  0  0  0  0
   -2.3023    2.4967    0.3491 H   0  0  0  0  0  0  0  0  0  0  0  0
   -0.0718    1.2563   -1.0490 H   0  0  0  0  0  0  0  0  0  0  0  0
   -0.3315    1.5260    0.6639 H   0  0  0  0  0  0  0  0  0  0  0  0
   -0.2581   -0.6803    0.7397 H   0  0  0  0  0  0  0  0  0  0  0  0
    0.9097   -0.6319   -1.7915 H   0  0  0  0  0  0  0  0  0  0  0  0
   -0.2005   -1.2950   -3.0207 H   0  0  0  0  0  0  0  0  0  0  0  0
    0.2287   -3.4967   -2.3643 H   0  0  0  0  0  0  0  0  0  0  0  0
    1.8610   -2.1587   -0.1720 H   0  0  0  0  0  0  0  0  0  0  0  0
    4.8286   -3.6971   -1.5257 H   0  0  0  0  0  0  0  0  0  0  0  0
    4.2049   -4.7589   -0.2034 H   0  0  0  0  0  0  0  0  0  0  0  0
    4.3674   -2.9852    1.2688 H   0  0  0  0  0  0  0  0  0  0  0  0
    3.8691    1.2331   -0.5094 H   0  0  0  0  0  0  0  0  0  0  0  0
    4.1057    3.0859    1.0586 H   0  0  0  0  0  0  0  0  0  0  0  0
    4.6902    2.6013    3.3629 H   0  0  0  0  0  0  0  0  0  0  0  0
    4.8115   -1.5429    2.5786 H   0  0  0  0  0  0  0  0  0  0  0  0
   -1.5716   -3.3047   -0.8129 H   0  0  0  0  0  0  0  0  0  0  0  0
   -0.4512   -2.6245    0.4471 H   0  0  0  0  0  0  0  0  0  0  0  0
   -2.7612   -1.6417    0.4995 H   0  0  0  0  0  0  0  0  0  0  0  0
   -2.2225   -0.6272    1.8655 H   0  0  0  0  0  0  0  0  0  0  0  0
   -3.4595    1.1675    1.2995 H   0  0  0  0  0  0  0  0  0  0  0  0
   -4.4231   -0.1635    0.6170 H   0  0  0  0  0  0  0  0  0  0  0  0
  1  2  1  0
  2  3  2  0
  3  4  1  0
  4  5  2  0
  5  6  1  0
  6  7  2  0
  7  8  1  0
  8  9  1  0
  9 10  1  0
 10 11  1  0
 11 12  1  0
 12 13  1  0
 13 14  1  0
 14 15  1  0
 15 16  1  0
 16 17  2  0
 16 18  1  0
 18 19  1  0
 19 20  1  0
 20 21  2  0
 20 22  1  0
 22 23  2  0
 23 24  1  0
 24 25  2  0
 25 26  1  0
 26 27  1  0
 27 28  1  0
 27 29  1  0
 27 30  1  0
 26 31  2  0
 14 32  1  0
 11 33  1  0
 33 34  1  0
  7  2  1  0
 34  8  1  0
 32 12  1  0
 31 22  1  0
  1 35  1  0
  1 36  1  0
  3 37  1  0
  4 38  1  0
  5 39  1  0
  8 40  1  6
  9 41  1  0
  9 42  1  0
 10 43  1  0
 10 44  1  0
 11 45  1  1
 13 46  1  0
 13 47  1  0
 14 48  1  0
 15 49  1  0
 18 50  1  0
 18 51  1  0
 19 52  1  0
 23 53  1  0
 24 54  1  0
 25 55  1  0
 31 56  1  0
 32 57  1  0
 32 58  1  0
 33 59  1  0
 33 60  1  0
 34 61  1  0
 34 62  1  0
M  END
$$$$
