
     RDKit          3D

 64 67  0  0  0  0  0  0  0  0999 V2000
   -6.7525    2.1397   -0.8769 C   0  0  0  0  0  0  0  0  0  0  0  0
   -6.5867    1.8221   -2.2794 N   0  0  0  0  0  0  0  0  0  0  0  0
   -7.8536    1.8363   -2.9685 C   0  0  0  0  0  0  0  0  0  0  0  0
   -5.9979    0.5227   -2.3896 C   0  0  0  0  0  0  0  0  0  0  0  0
   -4.5513    0.5217   -1.8921 C   0  0  0  0  0  0  0  0  0  0  0  0
   -3.9333   -0.8434   -1.9929 C   0  0  0  0  0  0  0  0  0  0  0  0
   -2.5654   -0.7872   -1.5172 N   0  0  0  0  0  0  0  0  0  0  0  0
   -1.5198   -0.5477   -2.2850 N   0  0  0  0  0  0  0  0  0  0  0  0
   -0.3800   -0.5582   -1.5786 C   0  0  0  0  0  0  0  0  0  0  0  0
    0.9855   -0.3314   -2.0377 C   0  0  0  0  0  0  0  0  0  0  0  0
    1.1823   -0.0458   -3.3846 C   0  0  0  0  0  0  0  0  0  0  0  0
    2.4143    0.1854   -3.8945 N   0  0  0  0  0  0  0  0  0  0  0  0
    3.4711    0.1344   -3.0656 C   0  0  0  0  0  0  0  0  0  0  0  0
    4.7991    0.3097   -3.2428 N   0  0  0  0  0  0  0  0  0  0  0  0
    5.4458    0.1442   -2.0590 C   0  0  0  0  0  0  0  0  0  0  0  0
    4.5228   -0.1461   -1.0836 C   0  0  0  0  0  0  0  0  0  0  0  0
    4.7511   -0.4097    0.3212 C   0  0  0  0  0  0  0  0  0  0  0  0
    4.6058   -1.5878    0.7195 O   0  0  0  0  0  0  0  0  0  0  0  0
    5.1258    0.5862    1.2550 N   0  0  0  0  0  0  0  0  0  0  0  0
    5.3466    0.2955    2.6525 C   0  0  0  0  0  0  0  0  0  0  0  0
    4.1042   -0.2748    3.3044 C   0  0  0  0  0  0  0  0  0  0  0  0
    6.4036   -0.7851    2.7266 C   0  0  0  0  0  0  0  0  0  0  0  0
    5.7471    1.5456    3.3618 C   0  0  0  0  0  0  0  0  0  0  0  0
    3.2943   -0.1499   -1.7158 C   0  0  0  0  0  0  0  0  0  0  0  0
    2.0624   -0.3693   -1.2632 N   0  0  0  0  0  0  0  0  0  0  0  0
   -0.7818   -0.8284   -0.2651 C   0  0  0  0  0  0  0  0  0  0  0  0
   -0.1107   -0.9635    0.9191 C   0  0  0  0  0  0  0  0  0  0  0  0
   -0.7401   -1.2323    2.1247 C   0  0  0  0  0  0  0  0  0  0  0  0
    0.0479   -1.3422    3.2433 O   0  0  0  0  0  0  0  0  0  0  0  0
   -0.3271   -1.5860    4.5549 C   0  0  0  0  0  0  0  0  0  0  0  0
    0.3009   -2.7096    5.1167 F   0  0  0  0  0  0  0  0  0  0  0  0
   -0.0941   -0.4870    5.3806 F   0  0  0  0  0  0  0  0  0  0  0  0
   -2.1086   -1.3696    2.1253 C   0  0  0  0  0  0  0  0  0  0  0  0
   -2.8308   -1.2384    0.9364 C   0  0  0  0  0  0  0  0  0  0  0  0
   -2.1591   -0.9709   -0.2356 C   0  0  0  0  0  0  0  0  0  0  0  0
   -6.0048    2.9146   -0.5922 H   0  0  0  0  0  0  0  0  0  0  0  0
   -6.6077    1.2218   -0.2279 H   0  0  0  0  0  0  0  0  0  0  0  0
   -7.7888    2.4794   -0.6348 H   0  0  0  0  0  0  0  0  0  0  0  0
   -8.6913    1.4332   -2.3565 H   0  0  0  0  0  0  0  0  0  0  0  0
   -7.8295    1.2864   -3.9306 H   0  0  0  0  0  0  0  0  0  0  0  0
   -8.0584    2.9102   -3.2572 H   0  0  0  0  0  0  0  0  0  0  0  0
   -6.6187   -0.2038   -1.8647 H   0  0  0  0  0  0  0  0  0  0  0  0
   -6.0189    0.2416   -3.4780 H   0  0  0  0  0  0  0  0  0  0  0  0
   -4.0222    1.2587   -2.5052 H   0  0  0  0  0  0  0  0  0  0  0  0
   -4.6205    0.7785   -0.8138 H   0  0  0  0  0  0  0  0  0  0  0  0
   -4.5162   -1.6151   -1.4499 H   0  0  0  0  0  0  0  0  0  0  0  0
   -3.9332   -1.1529   -3.0554 H   0  0  0  0  0  0  0  0  0  0  0  0
    0.2980   -0.0136   -4.0268 H   0  0  0  0  0  0  0  0  0  0  0  0
    5.2687    0.5375   -4.1454 H   0  0  0  0  0  0  0  0  0  0  0  0
    6.5201    0.2345   -1.9433 H   0  0  0  0  0  0  0  0  0  0  0  0
    5.2428    1.5638    0.9247 H   0  0  0  0  0  0  0  0  0  0  0  0
    4.1187   -1.3683    3.2619 H   0  0  0  0  0  0  0  0  0  0  0  0
    4.1857    0.0092    4.3940 H   0  0  0  0  0  0  0  0  0  0  0  0
    3.1738    0.1636    2.9463 H   0  0  0  0  0  0  0  0  0  0  0  0
    7.1808   -0.5468    3.5134 H   0  0  0  0  0  0  0  0  0  0  0  0
    6.9110   -0.9043    1.7616 H   0  0  0  0  0  0  0  0  0  0  0  0
    5.9911   -1.7672    3.0502 H   0  0  0  0  0  0  0  0  0  0  0  0
    6.8650    1.6233    3.4419 H   0  0  0  0  0  0  0  0  0  0  0  0
    5.3015    2.4646    2.8978 H   0  0  0  0  0  0  0  0  0  0  0  0
    5.3068    1.5144    4.3872 H   0  0  0  0  0  0  0  0  0  0  0  0
    0.9746   -0.8544    0.8943 H   0  0  0  0  0  0  0  0  0  0  0  0
   -1.4155   -1.7599    4.6161 H   0  0  0  0  0  0  0  0  0  0  0  0
   -2.6282   -1.5759    3.0328 H   0  0  0  0  0  0  0  0  0  0  0  0
   -3.9026   -1.3520    0.9758 H   0  0  0  0  0  0  0  0  0  0  0  0
  1  2  1  0
  2  3  1  0
  2  4  1  0
  4  5  1  0
  5  6  1  0
  6  7  1  0
  7  8  1  0
  8  9  2  0
  9 10  1  0
 10 11  2  0
 11 12  1  0
 12 13  2  0
 13 14  1  0
 14 15  1  0
 15 16  2  0
 16 17  1  0
 17 18  2  0
 17 19  1  0
 19 20  1  0
 20 21  1  0
 20 22  1  0
 20 23  1  0
 16 24  1  0
 24 25  2  0
  9 26  1  0
 26 27  2  0
 27 28  1  0
 28 29  1  0
 29 30  1  0
 30 31  1  0
 30 32  1  0
 28 33  2  0
 33 34  1  0
 34 35  2  0
 35  7  1  0
 25 10  1  0
 35 26  1  0
 24 13  1  0
  1 36  1  0
  1 37  1  0
  1 38  1  0
  3 39  1  0
  3 40  1  0
  3 41  1  0
  4 42  1  0
  4 43  1  0
  5 44  1  0
  5 45  1  0
  6 46  1  0
  6 47  1  0
 11 48  1  0
 14 49  1  0
 15 50  1  0
 19 51  1  0
 21 52  1  0
 21 53  1  0
 21 54  1  0
 22 55  1  0
 22 56  1  0
 22 57  1  0
 23 58  1  0
 23 59  1  0
 23 60  1  0
 27 61  1  0
 30 62  1  0
 33 63  1  0
 34 64  1  0
M  END
$$$$
