
     RDKit          3D

 37 38  0  0  0  0  0  0  0  0999 V2000
    5.7565    1.1066    0.8112 C   0  0  0  0  0  0  0  0  0  0  0  0
    5.0735    1.4193   -0.5016 C   0  0  0  0  0  0  0  0  0  0  0  0
    3.7085    1.0698   -0.3739 O   0  0  0  0  0  0  0  0  0  0  0  0
    3.2207   -0.1786   -0.0976 C   0  0  0  0  0  0  0  0  0  0  0  0
    3.9910   -1.1562    0.0710 O   0  0  0  0  0  0  0  0  0  0  0  0
    1.8232   -0.3891    0.0036 N   0  0  0  0  0  0  0  0  0  0  0  0
    1.2099   -1.6485    0.2875 C   0  0  0  0  0  0  0  0  0  0  0  0
    0.0553   -1.9384   -0.6631 C   0  0  0  0  0  0  0  0  0  0  0  0
   -0.9522   -0.8098   -0.6736 C   0  0  0  0  0  0  0  0  0  0  0  0
   -0.4944    0.2885    0.2946 C   0  0  0  0  0  0  0  0  0  0  0  0
    0.8852    0.7017   -0.1816 C   0  0  0  0  0  0  0  0  0  0  0  0
   -2.2800   -1.2487   -0.3824 N   0  0  0  0  0  0  0  0  0  0  0  0
   -3.4195   -0.3994   -0.3361 C   0  0  0  0  0  0  0  0  0  0  0  0
   -3.3816    0.9246   -0.5632 N   0  0  0  0  0  0  0  0  0  0  0  0
   -4.4457    1.7311   -0.5222 C   0  0  0  0  0  0  0  0  0  0  0  0
   -5.6914    1.2477   -0.2361 C   0  0  0  0  0  0  0  0  0  0  0  0
   -5.8053   -0.1087    0.0089 C   0  0  0  0  0  0  0  0  0  0  0  0
   -7.3697   -0.7551    0.3746 Cl  0  0  0  0  0  0  0  0  0  0  0  0
   -4.6688   -0.9028   -0.0461 C   0  0  0  0  0  0  0  0  0  0  0  0
    6.7672    0.6747    0.6620 H   0  0  0  0  0  0  0  0  0  0  0  0
    5.8117    2.0159    1.4537 H   0  0  0  0  0  0  0  0  0  0  0  0
    5.1327    0.3943    1.3873 H   0  0  0  0  0  0  0  0  0  0  0  0
    5.0849    2.5239   -0.6180 H   0  0  0  0  0  0  0  0  0  0  0  0
    5.5585    0.9067   -1.3557 H   0  0  0  0  0  0  0  0  0  0  0  0
    0.7950   -1.7236    1.3210 H   0  0  0  0  0  0  0  0  0  0  0  0
    1.9084   -2.5088    0.1885 H   0  0  0  0  0  0  0  0  0  0  0  0
    0.4850   -2.1200   -1.6735 H   0  0  0  0  0  0  0  0  0  0  0  0
   -0.3986   -2.8966   -0.2982 H   0  0  0  0  0  0  0  0  0  0  0  0
   -0.9191   -0.3578   -1.6862 H   0  0  0  0  0  0  0  0  0  0  0  0
   -0.3959   -0.0675    1.3277 H   0  0  0  0  0  0  0  0  0  0  0  0
   -1.1392    1.1645    0.1769 H   0  0  0  0  0  0  0  0  0  0  0  0
    1.2280    1.6230    0.3315 H   0  0  0  0  0  0  0  0  0  0  0  0
    0.8080    0.8750   -1.2765 H   0  0  0  0  0  0  0  0  0  0  0  0
   -2.4090   -2.2603   -0.1932 H   0  0  0  0  0  0  0  0  0  0  0  0
   -4.2168    2.7875   -0.7361 H   0  0  0  0  0  0  0  0  0  0  0  0
   -6.4908    1.9593   -0.2229 H   0  0  0  0  0  0  0  0  0  0  0  0
   -4.8250   -1.9442    0.1534 H   0  0  0  0  0  0  0  0  0  0  0  0
  1  2  1  0
  2  3  1  0
  3  4  1  0
  4  5  2  0
  4  6  1  0
  6  7  1  0
  7  8  1  0
  8  9  1  0
  9 10  1  0
 10 11  1  0
  9 12  1  0
 12 13  1  0
 13 14  2  0
 14 15  1  0
 15 16  2  0
 16 17  1  0
 17 18  1  0
 17 19  2  0
 11  6  1  0
 19 13  1  0
  1 20  1  0
  1 21  1  0
  1 22  1  0
  2 23  1  0
  2 24  1  0
  7 25  1  0
  7 26  1  0
  8 27  1  0
  8 28  1  0
  9 29  1  0
 10 30  1  0
 10 31  1  0
 11 32  1  0
 11 33  1  0
 12 34  1  0
 15 35  1  0
 16 36  1  0
 19 37  1  0
M  END
$$$$
