
     RDKit          3D

 54 54  0  0  0  0  0  0  0  0999 V2000
   -4.9415   -2.5959    0.1834 C   0  0  1  0  0  0  0  0  0  0  0  0
   -5.6017   -2.2411   -1.0417 N   0  0  0  0  0  0  0  0  0  0  0  0
   -4.2947   -1.3639    0.8173 C   0  0  0  0  0  0  0  0  0  0  0  0
   -3.2990   -0.8538   -0.2076 C   0  0  0  0  0  0  0  0  0  0  0  0
   -2.5728    0.3577    0.2531 C   0  0  0  0  0  0  0  0  0  0  0  0
   -3.4075    1.4465    0.5403 O   0  0  0  0  0  0  0  0  0  0  0  0
   -1.3136    0.3294    0.3513 N   0  0  0  0  0  0  0  0  0  0  0  0
   -0.4225    1.3704    0.7700 C   0  0  1  0  0  0  0  0  0  0  0  0
    0.6103    0.8043    1.6909 C   0  0  0  0  0  0  0  0  0  0  0  0
    1.6264   -0.4985    1.0184 S   0  0  0  0  0  0  0  0  0  0  0  0
    2.6816    0.1227   -0.2990 C   0  0  1  0  0  0  0  0  0  0  0  0
    3.5915    1.0386    0.2765 O   0  0  0  0  0  0  0  0  0  0  0  0
    3.4867   -1.0229   -0.7430 N   0  0  0  0  0  0  0  0  0  0  0  0
    2.4521   -1.8496   -1.0799 O   0  0  0  0  0  0  0  0  0  0  0  0
    4.8143   -1.4501   -0.8995 C   0  0  0  0  0  0  0  0  0  0  0  0
    5.0378   -2.7145   -1.3919 C   0  0  0  0  0  0  0  0  0  0  0  0
    6.3620   -3.0647   -1.5194 C   0  0  0  0  0  0  0  0  0  0  0  0
    7.4116   -2.2573   -1.1964 C   0  0  0  0  0  0  0  0  0  0  0  0
    9.3717   -2.9724   -1.4621 I   0  0  0  0  0  0  0  0  0  0  0  0
    7.1560   -0.9978   -0.7062 C   0  0  0  0  0  0  0  0  0  0  0  0
    5.8547   -0.6077   -0.5632 C   0  0  0  0  0  0  0  0  0  0  0  0
    0.1005    2.2269   -0.2940 C   0  0  0  0  0  0  0  0  0  0  0  0
    0.6724    2.8532   -1.3946 O   0  0  0  0  0  0  0  0  0  0  0  0
   -0.0289    3.4861   -0.3244 N   0  0  0  0  0  0  0  0  0  0  0  0
   -0.6598    4.3753    0.5762 C   0  0  0  0  0  0  0  0  0  0  0  0
   -1.9174    4.8599   -0.0962 C   0  0  0  0  0  0  0  0  0  0  0  0
   -2.6224    5.7496    0.7022 O   0  0  0  0  0  0  0  0  0  0  0  0
   -2.3803    4.5703   -1.2339 O   0  0  0  0  0  0  0  0  0  0  0  0
   -5.8390   -3.2927    1.1280 C   0  0  0  0  0  0  0  0  0  0  0  0
   -5.2911   -3.6761    2.3460 O   0  0  0  0  0  0  0  0  0  0  0  0
   -7.0524   -3.5852    0.9641 O   0  0  0  0  0  0  0  0  0  0  0  0
   -4.1102   -3.3083   -0.0427 H   0  0  0  0  0  0  0  0  0  0  0  0
   -4.9333   -2.3897   -1.8387 H   0  0  0  0  0  0  0  0  0  0  0  0
   -5.8684   -1.2294   -1.0268 H   0  0  0  0  0  0  0  0  0  0  0  0
   -3.7510   -1.6768    1.7185 H   0  0  0  0  0  0  0  0  0  0  0  0
   -5.0608   -0.6091    1.0600 H   0  0  0  0  0  0  0  0  0  0  0  0
   -2.6195   -1.7055   -0.4492 H   0  0  0  0  0  0  0  0  0  0  0  0
   -3.8714   -0.6486   -1.1294 H   0  0  0  0  0  0  0  0  0  0  0  0
   -2.9853    2.3225    0.7898 H   0  0  0  0  0  0  0  0  0  0  0  0
   -1.0774    2.0480    1.4207 H   0  0  0  0  0  0  0  0  0  0  0  0
    0.1418    0.4019    2.6273 H   0  0  0  0  0  0  0  0  0  0  0  0
    1.2785    1.6283    2.0761 H   0  0  0  0  0  0  0  0  0  0  0  0
    2.1406    0.5828   -1.1249 H   0  0  0  0  0  0  0  0  0  0  0  0
    3.4736    1.8918   -0.1816 H   0  0  0  0  0  0  0  0  0  0  0  0
    2.2058   -2.4453   -0.3229 H   0  0  0  0  0  0  0  0  0  0  0  0
    4.2021   -3.3395   -1.6420 H   0  0  0  0  0  0  0  0  0  0  0  0
    6.5447   -4.0762   -1.9134 H   0  0  0  0  0  0  0  0  0  0  0  0
    8.0439   -0.4105   -0.4706 H   0  0  0  0  0  0  0  0  0  0  0  0
    5.7475    0.3841   -0.1767 H   0  0  0  0  0  0  0  0  0  0  0  0
    0.9111    2.3029   -2.2336 H   0  0  0  0  0  0  0  0  0  0  0  0
   -0.0213    5.3075    0.6590 H   0  0  0  0  0  0  0  0  0  0  0  0
   -0.8162    4.0434    1.5999 H   0  0  0  0  0  0  0  0  0  0  0  0
   -3.3152    6.4050    0.3286 H   0  0  0  0  0  0  0  0  0  0  0  0
   -5.8446   -4.0261    3.1078 H   0  0  0  0  0  0  0  0  0  0  0  0
  1  2  1  0
  1  3  1  0
  3  4  1  0
  4  5  1  0
  5  6  1  0
  5  7  2  3
  7  8  1  0
  8  9  1  0
  9 10  1  0
 10 11  1  0
 11 12  1  0
 11 13  1  0
 13 14  1  0
 13 15  1  0
 15 16  2  0
 16 17  1  0
 17 18  2  0
 18 19  1  0
 18 20  1  0
 20 21  2  0
  8 22  1  0
 22 23  1  0
 22 24  2  3
 24 25  1  0
 25 26  1  0
 26 27  1  0
 26 28  2  0
  1 29  1  0
 29 30  1  0
 29 31  2  0
 21 15  1  0
  1 32  1  6
  2 33  1  0
  2 34  1  0
  3 35  1  0
  3 36  1  0
  4 37  1  0
  4 38  1  0
  6 39  1  0
  8 40  1  1
  9 41  1  0
  9 42  1  0
 11 43  1  6
 12 44  1  0
 14 45  1  0
 16 46  1  0
 17 47  1  0
 20 48  1  0
 21 49  1  0
 23 50  1  0
 25 51  1  0
 25 52  1  0
 27 53  1  0
 30 54  1  0
M  END
$$$$
