
     RDKit          3D

 41 42  0  0  0  0  0  0  0  0999 V2000
   -4.8160    0.3164    1.9153 C   0  0  0  0  0  0  0  0  0  0  0  0
   -3.7490    1.4343    1.9646 C   0  0  0  0  0  0  0  0  0  0  0  0
   -4.0494    2.4597    0.9157 C   0  0  0  0  0  0  0  0  0  0  0  0
   -3.9553    2.1012    3.3326 C   0  0  0  0  0  0  0  0  0  0  0  0
   -2.5087    0.8014    1.8463 O   0  0  0  0  0  0  0  0  0  0  0  0
   -1.3129    1.3794    1.7838 C   0  0  0  0  0  0  0  0  0  0  0  0
   -1.1071    2.5994    1.8002 O   0  0  0  0  0  0  0  0  0  0  0  0
   -0.1096    0.5626    1.6809 N   0  0  0  0  0  0  0  0  0  0  0  0
   -0.2776   -0.8889    1.6853 C   0  0  0  0  0  0  0  0  0  0  0  0
    0.4880   -1.3094    0.4676 C   0  0  0  0  0  0  0  0  0  0  0  0
    1.6259   -0.8169    0.1645 C   0  0  0  0  0  0  0  0  0  0  0  0
    2.3622   -1.2287   -1.0569 C   0  0  0  0  0  0  0  0  0  0  0  0
    2.8847   -1.4997   -1.9040 C   0  0  0  0  0  0  0  0  0  0  0  0
    3.6450   -1.8660   -3.1306 C   0  0  0  0  0  0  0  0  0  0  0  0
    3.0663   -1.7144   -4.4020 C   0  0  0  0  0  0  0  0  0  0  0  0
    3.7405   -2.0567   -5.5981 C   0  0  0  0  0  0  0  0  0  0  0  0
    5.0338   -2.5615   -5.4481 C   0  0  0  0  0  0  0  0  0  0  0  0
    5.6536   -2.7259   -4.1220 C   0  0  0  0  0  0  0  0  0  0  0  0
    4.8272   -2.3392   -3.2190 N   0  0  0  0  0  0  0  0  0  0  0  0
    2.2255    0.2755    0.9857 C   0  0  0  0  0  0  0  0  0  0  0  0
    1.1549    1.1896    1.5409 C   0  0  0  0  0  0  0  0  0  0  0  0
   -4.6247   -0.3604    1.0657 H   0  0  0  0  0  0  0  0  0  0  0  0
   -4.7446   -0.2647    2.8590 H   0  0  0  0  0  0  0  0  0  0  0  0
   -5.8138    0.7449    1.8106 H   0  0  0  0  0  0  0  0  0  0  0  0
   -4.5503    1.9733    0.0499 H   0  0  0  0  0  0  0  0  0  0  0  0
   -4.6008    3.3338    1.2809 H   0  0  0  0  0  0  0  0  0  0  0  0
   -3.0662    2.9027    0.5785 H   0  0  0  0  0  0  0  0  0  0  0  0
   -3.8699    3.1955    3.3084 H   0  0  0  0  0  0  0  0  0  0  0  0
   -5.0018    1.8838    3.6158 H   0  0  0  0  0  0  0  0  0  0  0  0
   -3.3058    1.6585    4.1212 H   0  0  0  0  0  0  0  0  0  0  0  0
   -1.3697   -1.0771    1.4801 H   0  0  0  0  0  0  0  0  0  0  0  0
    0.1466   -1.3953    2.5485 H   0  0  0  0  0  0  0  0  0  0  0  0
   -0.0156   -2.0734   -0.1298 H   0  0  0  0  0  0  0  0  0  0  0  0
    2.0562   -1.2716   -4.4602 H   0  0  0  0  0  0  0  0  0  0  0  0
    3.3106   -1.9686   -6.5489 H   0  0  0  0  0  0  0  0  0  0  0  0
    5.6219   -2.8443   -6.2583 H   0  0  0  0  0  0  0  0  0  0  0  0
    6.6346   -3.1202   -4.1222 H   0  0  0  0  0  0  0  0  0  0  0  0
    2.8597    0.8736    0.2423 H   0  0  0  0  0  0  0  0  0  0  0  0
    2.9293   -0.0660    1.7353 H   0  0  0  0  0  0  0  0  0  0  0  0
    1.5408    1.7008    2.4441 H   0  0  0  0  0  0  0  0  0  0  0  0
    1.0416    2.0624    0.8199 H   0  0  0  0  0  0  0  0  0  0  0  0
  1  2  1  0
  2  3  1  0
  2  4  1  0
  2  5  1  0
  5  6  1  0
  6  7  2  0
  6  8  1  0
  8  9  1  0
  9 10  1  0
 10 11  2  0
 11 12  1  0
 12 13  3  0
 13 14  1  0
 14 15  2  0
 15 16  1  0
 16 17  2  0
 17 18  1  0
 18 19  2  0
 11 20  1  0
 20 21  1  0
 21  8  1  0
 19 14  1  0
  1 22  1  0
  1 23  1  0
  1 24  1  0
  3 25  1  0
  3 26  1  0
  3 27  1  0
  4 28  1  0
  4 29  1  0
  4 30  1  0
  9 31  1  0
  9 32  1  0
 10 33  1  0
 15 34  1  0
 16 35  1  0
 17 36  1  0
 18 37  1  0
 20 38  1  0
 20 39  1  0
 21 40  1  0
 21 41  1  0
M  END
$$$$
