
     RDKit          3D

 63 66  0  0  0  0  0  0  0  0999 V2000
    0.2499   -3.8366   -1.2454 C   0  0  0  0  0  0  0  0  0  0  0  0
    0.1563   -2.8128   -0.1882 C   0  0  1  0  0  0  0  0  0  0  0  0
    1.4084   -1.9744   -0.2179 C   0  0  0  0  0  0  0  0  0  0  0  0
    2.4619   -2.3893    0.6047 C   0  0  0  0  0  0  0  0  0  0  0  0
    3.6284   -1.6998    0.6514 C   0  0  0  0  0  0  0  0  0  0  0  0
    3.7714   -0.5691   -0.1299 C   0  0  0  0  0  0  0  0  0  0  0  0
    5.0244    0.1491   -0.0645 C   0  0  0  0  0  0  0  0  0  0  0  0
    6.1783   -0.5634    0.1713 C   0  0  0  0  0  0  0  0  0  0  0  0
    7.3790    0.1169    0.2348 C   0  0  0  0  0  0  0  0  0  0  0  0
    7.3655    1.4855    0.0579 C   0  0  0  0  0  0  0  0  0  0  0  0
    8.4534    2.1283    0.1120 O   0  0  0  0  0  0  0  0  0  0  0  0
    6.2203    2.1600   -0.1720 N   0  0  0  0  0  0  0  0  0  0  0  0
    6.2856    3.6127   -0.3495 C   0  0  0  0  0  0  0  0  0  0  0  0
    5.0398    1.5209   -0.2382 C   0  0  0  0  0  0  0  0  0  0  0  0
    2.7604   -0.1329   -0.9478 C   0  0  0  0  0  0  0  0  0  0  0  0
    1.5715   -0.8647   -0.9734 C   0  0  0  0  0  0  0  0  0  0  0  0
   -1.0038   -1.9676   -0.2028 N   0  0  0  0  0  0  0  0  0  0  0  0
   -1.7696   -1.8551    1.0271 C   0  0  0  0  0  0  0  0  0  0  0  0
   -2.3229   -0.4864    1.2460 C   0  0  0  0  0  0  0  0  0  0  0  0
   -2.8088    0.2540    0.0637 C   0  0  2  0  0  0  0  0  0  0  0  0
   -2.7364    1.7544    0.2606 C   0  0  0  0  0  0  0  0  0  0  0  0
   -3.5647    2.2230    1.4270 C   0  0  0  0  0  0  0  0  0  0  0  0
   -3.4240    3.7450    1.5435 C   0  0  0  0  0  0  0  0  0  0  0  0
   -2.0918    4.1102    1.7506 O   0  0  0  0  0  0  0  0  0  0  0  0
   -4.1791   -0.1700   -0.3559 C   0  0  0  0  0  0  0  0  0  0  0  0
   -4.4712   -0.3560   -1.7055 C   0  0  0  0  0  0  0  0  0  0  0  0
   -5.7081   -0.7393   -2.1413 C   0  0  0  0  0  0  0  0  0  0  0  0
   -6.7142   -0.9546   -1.2335 C   0  0  0  0  0  0  0  0  0  0  0  0
   -6.4573   -0.7795    0.1023 C   0  0  0  0  0  0  0  0  0  0  0  0
   -5.2149   -0.3953    0.5283 C   0  0  0  0  0  0  0  0  0  0  0  0
   -1.9719    0.0125   -1.0981 O   0  0  0  0  0  0  0  0  0  0  0  0
   -1.4413   -1.2192   -1.3288 C   0  0  0  0  0  0  0  0  0  0  0  0
   -1.3380   -1.6877   -2.4701 O   0  0  0  0  0  0  0  0  0  0  0  0
   -0.7284   -4.3595   -1.4108 H   0  0  0  0  0  0  0  0  0  0  0  0
    0.9378   -4.6516   -0.8804 H   0  0  0  0  0  0  0  0  0  0  0  0
    0.6961   -3.4942   -2.2002 H   0  0  0  0  0  0  0  0  0  0  0  0
    0.1869   -3.3709    0.8240 H   0  0  0  0  0  0  0  0  0  0  0  0
    2.3239   -3.2923    1.2156 H   0  0  0  0  0  0  0  0  0  0  0  0
    4.4391   -2.0416    1.3014 H   0  0  0  0  0  0  0  0  0  0  0  0
    6.1764   -1.6401    0.3089 H   0  0  0  0  0  0  0  0  0  0  0  0
    8.2950   -0.4428    0.4214 H   0  0  0  0  0  0  0  0  0  0  0  0
    7.1125    3.9784    0.3133 H   0  0  0  0  0  0  0  0  0  0  0  0
    6.5197    3.8075   -1.4296 H   0  0  0  0  0  0  0  0  0  0  0  0
    5.3362    4.0943   -0.0495 H   0  0  0  0  0  0  0  0  0  0  0  0
    4.1106    2.0629   -0.4240 H   0  0  0  0  0  0  0  0  0  0  0  0
    2.9026    0.7494   -1.5425 H   0  0  0  0  0  0  0  0  0  0  0  0
    0.8207   -0.4692   -1.6310 H   0  0  0  0  0  0  0  0  0  0  0  0
   -2.5661   -2.6185    0.9889 H   0  0  0  0  0  0  0  0  0  0  0  0
   -1.0962   -2.1166    1.8622 H   0  0  0  0  0  0  0  0  0  0  0  0
   -1.4956    0.1227    1.7134 H   0  0  0  0  0  0  0  0  0  0  0  0
   -3.1101   -0.5402    2.0150 H   0  0  0  0  0  0  0  0  0  0  0  0
   -1.6679    1.9914    0.4785 H   0  0  0  0  0  0  0  0  0  0  0  0
   -2.9895    2.2504   -0.6771 H   0  0  0  0  0  0  0  0  0  0  0  0
   -3.2656    1.8015    2.3811 H   0  0  0  0  0  0  0  0  0  0  0  0
   -4.6371    2.0638    1.1672 H   0  0  0  0  0  0  0  0  0  0  0  0
   -3.7848    4.2020    0.5860 H   0  0  0  0  0  0  0  0  0  0  0  0
   -4.0587    4.1324    2.3691 H   0  0  0  0  0  0  0  0  0  0  0  0
   -1.6173    3.4935    2.3465 H   0  0  0  0  0  0  0  0  0  0  0  0
   -3.6823   -0.1879   -2.4264 H   0  0  0  0  0  0  0  0  0  0  0  0
   -5.9155   -0.8797   -3.2074 H   0  0  0  0  0  0  0  0  0  0  0  0
   -7.7065   -1.2608   -1.5623 H   0  0  0  0  0  0  0  0  0  0  0  0
   -7.2416   -0.9450    0.8369 H   0  0  0  0  0  0  0  0  0  0  0  0
   -5.0307   -0.2580    1.5930 H   0  0  0  0  0  0  0  0  0  0  0  0
  1  2  1  0
  2  3  1  0
  3  4  2  0
  4  5  1  0
  5  6  2  0
  6  7  1  0
  7  8  1  0
  8  9  2  0
  9 10  1  0
 10 11  2  0
 10 12  1  0
 12 13  1  0
 12 14  1  0
  6 15  1  0
 15 16  2  0
  2 17  1  0
 17 18  1  0
 18 19  1  0
 19 20  1  0
 20 21  1  1
 21 22  1  0
 22 23  1  0
 23 24  1  0
 20 25  1  0
 25 26  2  0
 26 27  1  0
 27 28  2  0
 28 29  1  0
 29 30  2  0
 20 31  1  0
 31 32  1  0
 32 33  2  0
 16  3  1  0
 32 17  1  0
 14  7  2  0
 30 25  1  0
  1 34  1  0
  1 35  1  0
  1 36  1  0
  2 37  1  1
  4 38  1  0
  5 39  1  0
  8 40  1  0
  9 41  1  0
 13 42  1  0
 13 43  1  0
 13 44  1  0
 14 45  1  0
 15 46  1  0
 16 47  1  0
 18 48  1  0
 18 49  1  0
 19 50  1  0
 19 51  1  0
 21 52  1  0
 21 53  1  0
 22 54  1  0
 22 55  1  0
 23 56  1  0
 23 57  1  0
 24 58  1  0
 26 59  1  0
 27 60  1  0
 28 61  1  0
 29 62  1  0
 30 63  1  0
M  END
$$$$
