
     RDKit          3D

 75 79  0  0  0  0  0  0  0  0999 V2000
    8.8159    1.1711   -1.9961 C   0  0  0  0  0  0  0  0  0  0  0  0
    8.1219    1.1349   -0.6764 C   0  0  0  0  0  0  0  0  0  0  0  0
    8.7493    1.4061    0.5034 C   0  0  0  0  0  0  0  0  0  0  0  0
    8.0385    1.3486    1.6542 N   0  0  0  0  0  0  0  0  0  0  0  0
    6.7366    1.0334    1.6734 C   0  0  0  0  0  0  0  0  0  0  0  0
    6.0537    0.7477    0.4854 C   0  0  0  0  0  0  0  0  0  0  0  0
    4.6354    0.4403    0.4963 C   0  0  0  0  0  0  0  0  0  0  0  0
    3.6948    1.3261    0.9961 C   0  0  0  0  0  0  0  0  0  0  0  0
    2.3832    1.0600    0.9700 N   0  0  0  0  0  0  0  0  0  0  0  0
    1.8686   -0.0940    0.4543 C   0  0  0  0  0  0  0  0  0  0  0  0
    0.4781   -0.3293    0.4477 N   0  0  0  0  0  0  0  0  0  0  0  0
   -0.3777    0.7194    1.0332 C   0  0  2  0  0  0  0  0  0  0  0  0
   -0.0871    0.9071    2.5007 C   0  0  0  0  0  0  0  0  0  0  0  0
   -1.0019    0.0568    3.3619 C   0  0  0  0  0  0  0  0  0  0  0  0
   -1.2914   -1.2127    2.7234 N   0  0  0  0  0  0  0  0  0  0  0  0
   -2.1158   -0.9737    1.5541 C   0  0  0  0  0  0  0  0  0  0  0  0
   -1.8432    0.3493    0.9065 C   0  0  1  0  0  0  0  0  0  0  0  0
   -2.6825    1.3439    1.3159 O   0  0  0  0  0  0  0  0  0  0  0  0
   -3.4675    1.9297    0.3609 C   0  0  0  0  0  0  0  0  0  0  0  0
   -4.4419    1.0087   -0.3323 C   0  0  2  0  0  0  0  0  0  0  0  0
   -5.1988    1.8289   -1.3462 C   0  0  0  0  0  0  0  0  0  0  0  0
   -6.3618    1.1437   -1.9521 C   0  0  2  0  0  0  0  0  0  0  0  0
   -7.5861    2.0459   -1.7422 C   0  0  0  0  0  0  0  0  0  0  0  0
   -6.7508   -0.4457   -1.3423 S   0  0  0  0  0  6  0  0  0  0  0  0
   -6.4516   -1.5075   -2.3940 O   0  0  0  0  0  0  0  0  0  0  0  0
   -8.2435   -0.5703   -1.0857 O   0  0  0  0  0  0  0  0  0  0  0  0
   -5.9114   -0.8478    0.1617 C   0  0  2  0  0  0  0  0  0  0  0  0
   -6.8495   -1.5457    1.0888 C   0  0  0  0  0  0  0  0  0  0  0  0
   -5.3937    0.4619    0.7213 C   0  0  0  0  0  0  0  0  0  0  0  0
    2.7811   -0.9961   -0.0499 C   0  0  0  0  0  0  0  0  0  0  0  0
    2.3728   -2.1755   -0.5726 N   0  0  0  0  0  0  0  0  0  0  0  0
    3.2416   -3.0579   -1.0504 C   0  0  0  0  0  0  0  0  0  0  0  0
    2.8024   -4.1373   -1.5240 O   0  0  0  0  0  0  0  0  0  0  0  0
    4.6000   -2.8660   -1.0607 C   0  0  0  0  0  0  0  0  0  0  0  0
    5.5691   -3.8610   -1.5977 C   0  0  0  0  0  0  0  0  0  0  0  0
    5.0439   -1.6697   -0.5330 C   0  0  0  0  0  0  0  0  0  0  0  0
    4.1682   -0.7405   -0.0342 C   0  0  0  0  0  0  0  0  0  0  0  0
    6.7961    0.8126   -0.6727 C   0  0  0  0  0  0  0  0  0  0  0  0
    8.9407    0.1397   -2.3466 H   0  0  0  0  0  0  0  0  0  0  0  0
    8.1579    1.7033   -2.7110 H   0  0  0  0  0  0  0  0  0  0  0  0
    9.8147    1.6473   -1.9142 H   0  0  0  0  0  0  0  0  0  0  0  0
    9.8024    1.6604    0.4815 H   0  0  0  0  0  0  0  0  0  0  0  0
    6.1772    0.9895    2.5949 H   0  0  0  0  0  0  0  0  0  0  0  0
    4.1012    2.2486    1.4092 H   0  0  0  0  0  0  0  0  0  0  0  0
   -0.0012   -1.1541    0.0775 H   0  0  0  0  0  0  0  0  0  0  0  0
   -0.1327    1.6437    0.4905 H   0  0  0  0  0  0  0  0  0  0  0  0
   -0.3280    1.9754    2.7446 H   0  0  0  0  0  0  0  0  0  0  0  0
    0.9391    0.7211    2.8042 H   0  0  0  0  0  0  0  0  0  0  0  0
   -0.5992   -0.1495    4.3550 H   0  0  0  0  0  0  0  0  0  0  0  0
   -1.9495    0.5923    3.4673 H   0  0  0  0  0  0  0  0  0  0  0  0
   -1.7055   -1.9025    3.3557 H   0  0  0  0  0  0  0  0  0  0  0  0
   -3.1567   -1.1336    1.8786 H   0  0  0  0  0  0  0  0  0  0  0  0
   -1.9097   -1.7773    0.7869 H   0  0  0  0  0  0  0  0  0  0  0  0
   -1.9984    0.2179   -0.2034 H   0  0  0  0  0  0  0  0  0  0  0  0
   -4.0106    2.8233    0.7734 H   0  0  0  0  0  0  0  0  0  0  0  0
   -2.7525    2.3929   -0.3842 H   0  0  0  0  0  0  0  0  0  0  0  0
   -3.9042    0.1998   -0.8491 H   0  0  0  0  0  0  0  0  0  0  0  0
   -5.4517    2.7907   -0.8719 H   0  0  0  0  0  0  0  0  0  0  0  0
   -4.4692    2.0711   -2.1624 H   0  0  0  0  0  0  0  0  0  0  0  0
   -6.2707    1.0701   -3.0758 H   0  0  0  0  0  0  0  0  0  0  0  0
   -8.4958    1.4237   -1.5229 H   0  0  0  0  0  0  0  0  0  0  0  0
   -7.4122    2.6488   -0.8216 H   0  0  0  0  0  0  0  0  0  0  0  0
   -7.7562    2.7034   -2.6106 H   0  0  0  0  0  0  0  0  0  0  0  0
   -5.0512   -1.5229   -0.0544 H   0  0  0  0  0  0  0  0  0  0  0  0
   -7.9164   -1.2101    0.9630 H   0  0  0  0  0  0  0  0  0  0  0  0
   -6.8565   -2.6454    0.9087 H   0  0  0  0  0  0  0  0  0  0  0  0
   -6.6029   -1.3570    2.1562 H   0  0  0  0  0  0  0  0  0  0  0  0
   -6.2856    1.1563    0.7042 H   0  0  0  0  0  0  0  0  0  0  0  0
   -4.9755    0.3875    1.7162 H   0  0  0  0  0  0  0  0  0  0  0  0
    1.3375   -2.3432   -0.5742 H   0  0  0  0  0  0  0  0  0  0  0  0
    5.0526   -4.5034   -2.3182 H   0  0  0  0  0  0  0  0  0  0  0  0
    6.4850   -3.3758   -1.9768 H   0  0  0  0  0  0  0  0  0  0  0  0
    5.9010   -4.5261   -0.7527 H   0  0  0  0  0  0  0  0  0  0  0  0
    6.1006   -1.4561   -0.4934 H   0  0  0  0  0  0  0  0  0  0  0  0
    6.2873    0.6044   -1.6066 H   0  0  0  0  0  0  0  0  0  0  0  0
  1  2  1  0
  2  3  2  0
  3  4  1  0
  4  5  2  0
  5  6  1  0
  6  7  1  0
  7  8  2  0
  8  9  1  0
  9 10  2  0
 10 11  1  0
 11 12  1  0
 12 13  1  0
 13 14  1  0
 14 15  1  0
 15 16  1  0
 16 17  1  0
 17 18  1  0
 18 19  1  0
 19 20  1  0
 20 21  1  0
 21 22  1  0
 22 23  1  0
 22 24  1  0
 24 25  2  0
 24 26  2  0
 24 27  1  0
 27 28  1  0
 27 29  1  0
 10 30  1  0
 30 31  1  0
 31 32  1  0
 32 33  2  0
 32 34  1  0
 34 35  1  0
 34 36  2  0
 36 37  1  0
  6 38  2  0
 38  2  1  0
 37  7  1  0
 17 12  1  0
 29 20  1  0
 37 30  2  0
  1 39  1  0
  1 40  1  0
  1 41  1  0
  3 42  1  0
  5 43  1  0
  8 44  1  0
 11 45  1  0
 12 46  1  6
 13 47  1  0
 13 48  1  0
 14 49  1  0
 14 50  1  0
 15 51  1  0
 16 52  1  0
 16 53  1  0
 17 54  1  6
 19 55  1  0
 19 56  1  0
 20 57  1  6
 21 58  1  0
 21 59  1  0
 22 60  1  6
 23 61  1  0
 23 62  1  0
 23 63  1  0
 27 64  1  6
 28 65  1  0
 28 66  1  0
 28 67  1  0
 29 68  1  0
 29 69  1  0
 31 70  1  0
 35 71  1  0
 35 72  1  0
 35 73  1  0
 36 74  1  0
 38 75  1  0
M  END
$$$$
