
     RDKit          3D

 31 33  0  0  0  0  0  0  0  0999 V2000
   -1.7800    2.5442    1.8299 O   0  0  0  0  0  0  0  0  0  0  0  0
   -1.4715    1.6070    1.0715 C   0  0  0  0  0  0  0  0  0  0  0  0
   -0.1040    1.3281    0.8943 C   0  0  0  0  0  0  0  0  0  0  0  0
    0.8162    2.1113    1.5728 O   0  0  0  0  0  0  0  0  0  0  0  0
    0.2350    0.3027    0.0645 C   0  0  0  0  0  0  0  0  0  0  0  0
    1.6118   -0.0631   -0.1839 C   0  0  0  0  0  0  0  0  0  0  0  0
    1.8309   -1.1365   -1.0576 C   0  0  0  0  0  0  0  0  0  0  0  0
    3.0933   -1.5735   -1.3687 C   0  0  0  0  0  0  0  0  0  0  0  0
    4.1979   -0.9800   -0.8391 C   0  0  0  0  0  0  0  0  0  0  0  0
    5.4574   -1.4467   -1.1748 O   0  0  0  0  0  0  0  0  0  0  0  0
    4.0177    0.0663    0.0138 C   0  0  0  0  0  0  0  0  0  0  0  0
    5.1193    0.6840    0.5632 O   0  0  0  0  0  0  0  0  0  0  0  0
    2.7311    0.5071    0.3272 C   0  0  0  0  0  0  0  0  0  0  0  0
   -0.7442   -0.3824   -0.5357 O   0  0  0  0  0  0  0  0  0  0  0  0
   -2.0021   -0.1346   -0.3799 C   0  0  0  0  0  0  0  0  0  0  0  0
   -2.9432   -0.8874   -1.0341 C   0  0  0  0  0  0  0  0  0  0  0  0
   -4.2969   -0.6694   -0.9064 C   0  0  0  0  0  0  0  0  0  0  0  0
   -5.2388   -1.4245   -1.5627 O   0  0  0  0  0  0  0  0  0  0  0  0
   -4.7207    0.3655   -0.0721 C   0  0  0  0  0  0  0  0  0  0  0  0
   -3.8021    1.1318    0.5925 C   0  0  0  0  0  0  0  0  0  0  0  0
   -2.4576    0.8850    0.4408 C   0  0  0  0  0  0  0  0  0  0  0  0
    0.6050    2.4454    2.5076 H   0  0  0  0  0  0  0  0  0  0  0  0
    0.9670   -1.6494   -1.5118 H   0  0  0  0  0  0  0  0  0  0  0  0
    3.1822   -2.4039   -2.0477 H   0  0  0  0  0  0  0  0  0  0  0  0
    6.0618   -1.7086   -0.3973 H   0  0  0  0  0  0  0  0  0  0  0  0
    5.2256    0.6176    1.5759 H   0  0  0  0  0  0  0  0  0  0  0  0
    2.6427    1.3294    0.9995 H   0  0  0  0  0  0  0  0  0  0  0  0
   -2.6196   -1.6888   -1.6805 H   0  0  0  0  0  0  0  0  0  0  0  0
   -5.6896   -2.2467   -1.1805 H   0  0  0  0  0  0  0  0  0  0  0  0
   -5.7881    0.5451    0.0350 H   0  0  0  0  0  0  0  0  0  0  0  0
   -4.1366    1.9251    1.2318 H   0  0  0  0  0  0  0  0  0  0  0  0
  1  2  2  0
  2  3  1  0
  3  4  1  0
  3  5  2  0
  5  6  1  0
  6  7  2  0
  7  8  1  0
  8  9  2  0
  9 10  1  0
  9 11  1  0
 11 12  1  0
 11 13  2  0
  5 14  1  0
 14 15  1  0
 15 16  2  0
 16 17  1  0
 17 18  1  0
 17 19  2  0
 19 20  1  0
 20 21  2  0
 21  2  1  0
 13  6  1  0
 21 15  1  0
  4 22  1  0
  7 23  1  0
  8 24  1  0
 10 25  1  0
 12 26  1  0
 13 27  1  0
 16 28  1  0
 18 29  1  0
 19 30  1  0
 20 31  1  0
M  END
$$$$
