
     RDKit          3D

 65 68  0  0  0  0  0  0  0  0999 V2000
    0.0787   -0.6596   -1.0158 C   0  0  2  0  0  0  0  0  0  0  0  0
   -0.4920   -1.4971   -2.1200 C   0  0  0  0  0  0  0  0  0  0  0  0
   -1.8902   -1.6594   -1.5687 C   0  0  1  0  0  0  0  0  0  0  0  0
   -1.8837   -2.8953   -0.7306 C   0  0  0  0  0  0  0  0  0  0  0  0
   -2.1904   -0.3848   -0.7464 C   0  0  2  0  0  0  0  0  0  0  0  0
   -2.2992   -0.8287    0.5581 O   0  0  0  0  0  0  0  0  0  0  0  0
   -2.6368   -0.1720    1.6953 C   0  0  0  0  0  0  0  0  0  0  0  0
   -2.9421    1.0422    1.7150 O   0  0  0  0  0  0  0  0  0  0  0  0
   -2.6133   -1.0259    2.9305 C   0  0  0  0  0  0  0  0  0  0  0  0
   -3.0153   -0.1179    4.0608 C   0  0  0  0  0  0  0  0  0  0  0  0
   -3.4587    0.1507   -1.3043 C   0  0  0  0  0  0  0  0  0  0  0  0
   -3.9025    0.6432   -2.3582 O   0  0  0  0  0  0  0  0  0  0  0  0
   -5.0741    0.7521   -1.7876 S   0  0  0  0  0  0  0  0  0  0  0  0
   -6.2766    0.6015   -0.4437 C   0  0  0  0  0  0  0  0  0  0  0  0
   -5.8930    1.4538    0.5670 F   0  0  0  0  0  0  0  0  0  0  0  0
   -0.9856    0.4356   -1.0027 C   0  0  2  0  0  0  0  0  0  0  0  0
   -1.0073    1.1666   -2.3223 C   0  0  0  0  0  0  0  0  0  0  0  0
   -0.5372    1.3529    0.1086 C   0  0  0  0  0  0  0  0  0  0  0  0
    0.9060    1.8611   -0.1438 C   0  0  2  0  0  0  0  0  0  0  0  0
    0.8770    2.5574   -1.3004 O   0  0  0  0  0  0  0  0  0  0  0  0
    1.7827    0.6807   -0.0230 C   0  0  1  0  0  0  0  0  0  0  0  0
    1.3102   -0.0672    1.0684 F   0  0  0  0  0  0  0  0  0  0  0  0
    1.4698   -0.2095   -1.2089 C   0  0  1  0  0  0  0  0  0  0  0  0
    2.3573   -1.4302   -1.2602 C   0  0  0  0  0  0  0  0  0  0  0  0
    3.7939   -1.1201   -0.9299 C   0  0  2  0  0  0  0  0  0  0  0  0
    4.4649   -2.3220   -0.9219 F   0  0  0  0  0  0  0  0  0  0  0  0
    3.9597   -0.3793    0.3494 C   0  0  0  0  0  0  0  0  0  0  0  0
    4.6746   -0.8988    1.3334 C   0  0  0  0  0  0  0  0  0  0  0  0
    4.7410   -0.0530    2.5187 C   0  0  0  0  0  0  0  0  0  0  0  0
    5.3921   -0.4557    3.5008 O   0  0  0  0  0  0  0  0  0  0  0  0
    4.0744    1.2413    2.5926 C   0  0  0  0  0  0  0  0  0  0  0  0
    3.3999    1.6106    1.5157 C   0  0  0  0  0  0  0  0  0  0  0  0
    3.2183    0.8975    0.2295 C   0  0  2  0  0  0  0  0  0  0  0  0
    3.9205    1.7640   -0.7900 C   0  0  0  0  0  0  0  0  0  0  0  0
    0.0080   -1.1965   -0.0654 H   0  0  0  0  0  0  0  0  0  0  0  0
   -0.4702   -0.9925   -3.0898 H   0  0  0  0  0  0  0  0  0  0  0  0
   -0.0137   -2.4877   -2.2185 H   0  0  0  0  0  0  0  0  0  0  0  0
   -2.5990   -1.7780   -2.4085 H   0  0  0  0  0  0  0  0  0  0  0  0
   -2.8667   -3.4342   -0.7579 H   0  0  0  0  0  0  0  0  0  0  0  0
   -1.6750   -2.6650    0.3270 H   0  0  0  0  0  0  0  0  0  0  0  0
   -1.1110   -3.6363   -1.0374 H   0  0  0  0  0  0  0  0  0  0  0  0
   -3.3775   -1.8096    2.7502 H   0  0  0  0  0  0  0  0  0  0  0  0
   -1.6248   -1.4937    3.0550 H   0  0  0  0  0  0  0  0  0  0  0  0
   -2.5769    0.8963    3.8518 H   0  0  0  0  0  0  0  0  0  0  0  0
   -4.1194   -0.0467    4.0548 H   0  0  0  0  0  0  0  0  0  0  0  0
   -2.5890   -0.5078    5.0057 H   0  0  0  0  0  0  0  0  0  0  0  0
   -7.2413    0.9890   -0.8298 H   0  0  0  0  0  0  0  0  0  0  0  0
   -6.4454   -0.4407   -0.1146 H   0  0  0  0  0  0  0  0  0  0  0  0
   -1.7038    0.7717   -3.0683 H   0  0  0  0  0  0  0  0  0  0  0  0
   -0.0216    1.1070   -2.8722 H   0  0  0  0  0  0  0  0  0  0  0  0
   -1.2861    2.2191   -2.1161 H   0  0  0  0  0  0  0  0  0  0  0  0
   -0.3871    0.7569    1.0354 H   0  0  0  0  0  0  0  0  0  0  0  0
   -1.1029    2.2758    0.2076 H   0  0  0  0  0  0  0  0  0  0  0  0
    1.0817    2.5226    0.7576 H   0  0  0  0  0  0  0  0  0  0  0  0
    1.6693    2.6477   -1.8391 H   0  0  0  0  0  0  0  0  0  0  0  0
    1.7064    0.3697   -2.0974 H   0  0  0  0  0  0  0  0  0  0  0  0
    2.3747   -1.8734   -2.2773 H   0  0  0  0  0  0  0  0  0  0  0  0
    2.0428   -2.2419   -0.5716 H   0  0  0  0  0  0  0  0  0  0  0  0
    4.2360   -0.4949   -1.7310 H   0  0  0  0  0  0  0  0  0  0  0  0
    5.1393   -1.8600    1.2095 H   0  0  0  0  0  0  0  0  0  0  0  0
    4.1270    1.8633    3.4735 H   0  0  0  0  0  0  0  0  0  0  0  0
    2.9174    2.5841    1.6084 H   0  0  0  0  0  0  0  0  0  0  0  0
    3.7965    2.8469   -0.5580 H   0  0  0  0  0  0  0  0  0  0  0  0
    5.0252    1.5906   -0.6205 H   0  0  0  0  0  0  0  0  0  0  0  0
    3.7639    1.4832   -1.8286 H   0  0  0  0  0  0  0  0  0  0  0  0
  1  2  1  0
  2  3  1  0
  3  4  1  0
  3  5  1  0
  5  6  1  1
  6  7  1  0
  7  8  2  0
  7  9  1  0
  9 10  1  0
  5 11  1  0
 11 12  2  0
 11 13  1  0
 13 14  1  0
 14 15  1  0
  5 16  1  0
 16 17  1  6
 16 18  1  0
 18 19  1  0
 19 20  1  0
 19 21  1  0
 21 22  1  1
 21 23  1  0
 23 24  1  0
 24 25  1  0
 25 26  1  0
 25 27  1  0
 27 28  2  0
 28 29  1  0
 29 30  2  0
 29 31  1  0
 31 32  2  0
 32 33  1  0
 33 34  1  6
 16  1  1  0
 33 21  1  0
 23  1  1  0
 33 27  1  0
  1 35  1  1
  2 36  1  0
  2 37  1  0
  3 38  1  6
  4 39  1  0
  4 40  1  0
  4 41  1  0
  9 42  1  0
  9 43  1  0
 10 44  1  0
 10 45  1  0
 10 46  1  0
 14 47  1  0
 14 48  1  0
 17 49  1  0
 17 50  1  0
 17 51  1  0
 18 52  1  0
 18 53  1  0
 19 54  1  1
 20 55  1  0
 23 56  1  6
 24 57  1  0
 24 58  1  0
 25 59  1  6
 28 60  1  0
 31 61  1  0
 32 62  1  0
 34 63  1  0
 34 64  1  0
 34 65  1  0
M  END
$$$$
