
     RDKit          3D

 22 23  0  0  0  0  0  0  0  0999 V2000
    4.8727    0.7874    0.0364 N   0  0  0  0  0  0  0  0  0  0  0  0
    4.0847   -0.5472    0.7758 S   0  0  0  0  0  0  0  0  0  0  0  0
    4.0573   -0.3121    2.2599 O   0  0  0  0  0  0  0  0  0  0  0  0
    4.7277   -1.8290    0.4089 O   0  0  0  0  0  0  0  0  0  0  0  0
    2.4422   -0.6441    0.1382 C   0  0  0  0  0  0  0  0  0  0  0  0
    1.8556   -1.1450   -0.7424 N   0  0  0  0  0  0  0  0  0  0  0  0
    0.5826   -1.0189   -0.9539 N   0  0  0  0  0  0  0  0  0  0  0  0
   -0.1605   -0.4122   -0.3305 C   0  0  0  0  0  0  0  0  0  0  0  0
    1.0280    0.2683    0.9853 S   0  0  0  0  0  0  0  0  0  0  0  0
   -1.6627   -0.0413   -0.2689 C   0  0  0  0  0  0  0  0  0  0  0  0
   -2.3835   -0.6155   -1.2930 C   0  0  0  0  0  0  0  0  0  0  0  0
   -3.7254   -0.3051   -1.2672 C   0  0  0  0  0  0  0  0  0  0  0  0
   -4.2930    0.5103   -0.2979 C   0  0  0  0  0  0  0  0  0  0  0  0
   -3.4922    1.0425    0.6917 C   0  0  0  0  0  0  0  0  0  0  0  0
   -2.1455    0.7769    0.7302 C   0  0  0  0  0  0  0  0  0  0  0  0
   -1.0513    1.4058    1.9448 Cl  0  0  0  0  0  0  0  0  0  0  0  0
    4.9629    0.6610   -0.9842 H   0  0  0  0  0  0  0  0  0  0  0  0
    5.7707    0.9970    0.5049 H   0  0  0  0  0  0  0  0  0  0  0  0
   -1.9124   -1.2459   -2.0326 H   0  0  0  0  0  0  0  0  0  0  0  0
   -4.3262   -0.7514   -2.0757 H   0  0  0  0  0  0  0  0  0  0  0  0
   -5.3558    0.7282   -0.3167 H   0  0  0  0  0  0  0  0  0  0  0  0
   -3.8758    1.6904    1.4825 H   0  0  0  0  0  0  0  0  0  0  0  0
  1  2  1  0
  2  3  2  0
  2  4  2  0
  2  5  1  0
  5  6  2  0
  6  7  1  0
  7  8  2  0
  8  9  1  0
  8 10  1  0
 10 11  2  0
 11 12  1  0
 12 13  2  0
 13 14  1  0
 14 15  2  0
 15 16  1  0
  9  5  1  0
 15 10  1  0
  1 17  1  0
  1 18  1  0
 11 19  1  0
 12 20  1  0
 13 21  1  0
 14 22  1  0
M  END
$$$$
