
     RDKit          3D

 50 53  0  0  0  0  0  0  0  0999 V2000
    8.9868   -0.5158   -0.8436 C   0  0  0  0  0  0  0  0  0  0  0  0
    8.0719   -0.3270    0.2027 O   0  0  0  0  0  0  0  0  0  0  0  0
    6.7009   -0.3555    0.0265 C   0  0  0  0  0  0  0  0  0  0  0  0
    5.9275   -0.1527    1.1642 C   0  0  0  0  0  0  0  0  0  0  0  0
    4.5661   -0.1752    1.0213 C   0  0  0  0  0  0  0  0  0  0  0  0
    3.9435   -0.3910   -0.2049 C   0  0  0  0  0  0  0  0  0  0  0  0
    2.5153   -0.3992   -0.2527 N   0  0  0  0  0  0  0  0  0  0  0  0
    1.7937    0.8128   -0.5048 C   0  0  0  0  0  0  0  0  0  0  0  0
    2.4769    1.8479   -0.6907 O   0  0  0  0  0  0  0  0  0  0  0  0
    0.3055    0.8195   -0.5336 C   0  0  0  0  0  0  0  0  0  0  0  0
   -0.2463    1.7820    0.4911 C   0  0  0  0  0  0  0  0  0  0  0  0
   -0.2460   -0.4886   -0.3414 N   0  0  0  0  0  0  0  0  0  0  0  0
   -1.3273   -0.6631    0.5528 C   0  0  0  0  0  0  0  0  0  0  0  0
   -2.6120   -0.3849    0.2788 N   0  0  0  0  0  0  0  0  0  0  0  0
   -3.6213   -0.5709    1.1604 C   0  0  0  0  0  0  0  0  0  0  0  0
   -3.3307   -1.0755    2.4181 C   0  0  0  0  0  0  0  0  0  0  0  0
   -4.5288   -1.1563    3.0957 C   0  0  0  0  0  0  0  0  0  0  0  0
   -5.4839   -0.7163    2.2695 N   0  0  0  0  0  0  0  0  0  0  0  0
   -4.9412   -0.3594    1.0941 N   0  0  0  0  0  0  0  0  0  0  0  0
   -5.6386    0.1638   -0.0308 C   0  0  0  0  0  0  0  0  0  0  0  0
   -6.4436   -0.6043   -0.8441 C   0  0  0  0  0  0  0  0  0  0  0  0
   -7.1094   -0.0469   -1.9246 C   0  0  0  0  0  0  0  0  0  0  0  0
   -6.9960    1.2967   -2.2326 C   0  0  0  0  0  0  0  0  0  0  0  0
   -6.1910    2.0643   -1.4192 C   0  0  0  0  0  0  0  0  0  0  0  0
   -5.5269    1.5052   -0.3405 C   0  0  0  0  0  0  0  0  0  0  0  0
   -4.4951    2.4921    0.6968 Cl  0  0  0  0  0  0  0  0  0  0  0  0
   -2.0158   -1.3686    2.7214 C   0  0  0  0  0  0  0  0  0  0  0  0
   -1.7645   -1.8255    3.8632 O   0  0  0  0  0  0  0  0  0  0  0  0
   -1.0643   -1.1609    1.8038 N   0  0  0  0  0  0  0  0  0  0  0  0
    4.7249   -0.5885   -1.3095 C   0  0  0  0  0  0  0  0  0  0  0  0
    6.0927   -0.5671   -1.1742 C   0  0  0  0  0  0  0  0  0  0  0  0
    9.9735   -0.1205   -0.4623 H   0  0  0  0  0  0  0  0  0  0  0  0
    9.0684   -1.5813   -1.1386 H   0  0  0  0  0  0  0  0  0  0  0  0
    8.7677    0.0863   -1.7355 H   0  0  0  0  0  0  0  0  0  0  0  0
    6.3324    0.0199    2.1432 H   0  0  0  0  0  0  0  0  0  0  0  0
    3.9350   -0.0227    1.8751 H   0  0  0  0  0  0  0  0  0  0  0  0
    1.9913   -1.2887   -0.1031 H   0  0  0  0  0  0  0  0  0  0  0  0
    0.0060    1.2354   -1.5296 H   0  0  0  0  0  0  0  0  0  0  0  0
   -0.0763    1.3617    1.4890 H   0  0  0  0  0  0  0  0  0  0  0  0
   -1.3454    1.8063    0.3269 H   0  0  0  0  0  0  0  0  0  0  0  0
    0.2135    2.7789    0.4484 H   0  0  0  0  0  0  0  0  0  0  0  0
    0.1304   -1.2990   -0.8502 H   0  0  0  0  0  0  0  0  0  0  0  0
   -4.6118   -1.5208    4.1088 H   0  0  0  0  0  0  0  0  0  0  0  0
   -6.5270   -1.6558   -0.5975 H   0  0  0  0  0  0  0  0  0  0  0  0
   -7.7392   -0.6552   -2.5544 H   0  0  0  0  0  0  0  0  0  0  0  0
   -7.5341    1.7027   -3.0872 H   0  0  0  0  0  0  0  0  0  0  0  0
   -6.0863    3.1149   -1.6380 H   0  0  0  0  0  0  0  0  0  0  0  0
   -0.0663   -1.3747    2.0124 H   0  0  0  0  0  0  0  0  0  0  0  0
    4.3006   -0.7571   -2.2726 H   0  0  0  0  0  0  0  0  0  0  0  0
    6.7445   -0.7214   -2.0428 H   0  0  0  0  0  0  0  0  0  0  0  0
  1  2  1  0
  2  3  1  0
  3  4  2  0
  4  5  1  0
  5  6  2  0
  6  7  1  0
  7  8  1  0
  8  9  2  0
  8 10  1  0
 10 11  1  0
 10 12  1  0
 12 13  1  0
 13 14  2  0
 14 15  1  0
 15 16  2  0
 16 17  1  0
 17 18  2  0
 18 19  1  0
 19 20  1  0
 20 21  2  0
 21 22  1  0
 22 23  2  0
 23 24  1  0
 24 25  2  0
 25 26  1  0
 16 27  1  0
 27 28  2  0
 27 29  1  0
  6 30  1  0
 30 31  2  0
 31  3  1  0
 29 13  1  0
 19 15  1  0
 25 20  1  0
  1 32  1  0
  1 33  1  0
  1 34  1  0
  4 35  1  0
  5 36  1  0
  7 37  1  0
 10 38  1  0
 11 39  1  0
 11 40  1  0
 11 41  1  0
 12 42  1  0
 17 43  1  0
 21 44  1  0
 22 45  1  0
 23 46  1  0
 24 47  1  0
 29 48  1  0
 30 49  1  0
 31 50  1  0
M  END
$$$$
