
     RDKit          3D

 63 67  0  0  0  0  0  0  0  0999 V2000
   -0.2675   -1.1502   -0.8471 O   0  0  0  0  0  0  0  0  0  0  0  0
   -0.4125   -0.2647    0.0839 C   0  0  0  0  0  0  0  0  0  0  0  0
    0.7762    0.1627    0.7227 N   0  0  0  0  0  0  0  0  0  0  0  0
    1.9923   -0.4009    0.2667 C   0  0  0  0  0  0  0  0  0  0  0  0
    2.6972    0.1528   -0.7712 C   0  0  0  0  0  0  0  0  0  0  0  0
    3.8811   -0.3922   -1.2377 C   0  0  0  0  0  0  0  0  0  0  0  0
    4.3826   -1.5295   -0.6502 C   0  0  0  0  0  0  0  0  0  0  0  0
    5.5664   -2.0774   -1.1186 O   0  0  0  0  0  0  0  0  0  0  0  0
    6.7631   -1.6082   -0.6648 C   0  0  0  0  0  0  0  0  0  0  0  0
    6.8756   -0.5481    0.2150 C   0  0  0  0  0  0  0  0  0  0  0  0
    8.1001   -0.1066    0.6456 C   0  0  0  0  0  0  0  0  0  0  0  0
    9.2524   -0.7173    0.2064 C   0  0  0  0  0  0  0  0  0  0  0  0
   10.4726   -0.2785    0.6349 F   0  0  0  0  0  0  0  0  0  0  0  0
    9.1566   -1.7792   -0.6735 C   0  0  0  0  0  0  0  0  0  0  0  0
    7.9290   -2.2141   -1.0995 C   0  0  0  0  0  0  0  0  0  0  0  0
    3.6864   -2.0978    0.3955 C   0  0  0  0  0  0  0  0  0  0  0  0
    2.4977   -1.5319    0.8478 C   0  0  0  0  0  0  0  0  0  0  0  0
   -1.7456    0.1696    0.3566 C   0  0  2  0  0  0  0  0  0  0  0  0
   -2.7211   -0.2210   -0.7721 C   0  0  0  0  0  0  0  0  0  0  0  0
   -4.0082    0.2826   -0.1841 C   0  0  1  0  0  0  0  0  0  0  0  0
   -4.6541   -0.6849    0.7640 C   0  0  0  0  0  0  0  0  0  0  0  0
   -4.9866   -1.9970    0.1384 C   0  0  0  0  0  0  0  0  0  0  0  0
   -4.1065   -3.0541    0.1809 C   0  0  0  0  0  0  0  0  0  0  0  0
   -4.4183   -4.2700   -0.4149 C   0  0  0  0  0  0  0  0  0  0  0  0
   -5.6123   -4.4731   -1.0701 C   0  0  0  0  0  0  0  0  0  0  0  0
   -5.9042   -5.6599   -1.6471 F   0  0  0  0  0  0  0  0  0  0  0  0
   -6.4980   -3.4106   -1.1124 C   0  0  0  0  0  0  0  0  0  0  0  0
   -6.1919   -2.1941   -0.5189 C   0  0  0  0  0  0  0  0  0  0  0  0
   -3.5764    1.4867    0.6377 C   0  0  0  0  0  0  0  0  0  0  0  0
   -2.0852    1.5437    0.4876 N   0  0  0  0  0  0  0  0  0  0  0  0
   -1.4302    2.7731    0.4994 C   0  0  0  0  0  0  0  0  0  0  0  0
   -0.1980    2.8936    0.3463 O   0  0  0  0  0  0  0  0  0  0  0  0
   -2.1903    4.0567    0.7037 C   0  0  0  0  0  0  0  0  0  0  0  0
   -2.2934    4.7305   -0.5716 N   0  0  0  0  0  0  0  0  0  0  0  0
   -1.3740    5.6377   -1.0194 C   0  0  0  0  0  0  0  0  0  0  0  0
   -1.7372    6.0808   -2.2605 C   0  0  0  0  0  0  0  0  0  0  0  0
   -2.8917    5.4189   -2.5417 N   0  0  0  0  0  0  0  0  0  0  0  0
   -3.1902    4.6354   -1.5302 N   0  0  0  0  0  0  0  0  0  0  0  0
    0.7504    0.8526    1.5266 H   0  0  0  0  0  0  0  0  0  0  0  0
    2.2602    1.0625   -1.2117 H   0  0  0  0  0  0  0  0  0  0  0  0
    4.4005    0.0730   -2.0498 H   0  0  0  0  0  0  0  0  0  0  0  0
    5.9976   -0.0541    0.5697 H   0  0  0  0  0  0  0  0  0  0  0  0
    8.1335    0.7272    1.3317 H   0  0  0  0  0  0  0  0  0  0  0  0
   10.1002   -2.2300   -0.9944 H   0  0  0  0  0  0  0  0  0  0  0  0
    7.8876   -3.0462   -1.7856 H   0  0  0  0  0  0  0  0  0  0  0  0
    4.0956   -2.9889    0.8443 H   0  0  0  0  0  0  0  0  0  0  0  0
    2.0104   -2.0283    1.6654 H   0  0  0  0  0  0  0  0  0  0  0  0
   -2.0979   -0.3743    1.2967 H   0  0  0  0  0  0  0  0  0  0  0  0
   -2.6959   -1.3097   -0.9695 H   0  0  0  0  0  0  0  0  0  0  0  0
   -2.4536    0.3921   -1.6453 H   0  0  0  0  0  0  0  0  0  0  0  0
   -4.7621    0.5403   -0.9576 H   0  0  0  0  0  0  0  0  0  0  0  0
   -5.6122   -0.1885    1.1010 H   0  0  0  0  0  0  0  0  0  0  0  0
   -4.0678   -0.8693    1.6675 H   0  0  0  0  0  0  0  0  0  0  0  0
   -3.1500   -2.9227    0.7028 H   0  0  0  0  0  0  0  0  0  0  0  0
   -3.7046   -5.0832   -0.3616 H   0  0  0  0  0  0  0  0  0  0  0  0
   -7.4308   -3.5838   -1.6297 H   0  0  0  0  0  0  0  0  0  0  0  0
   -6.8821   -1.3906   -0.5616 H   0  0  0  0  0  0  0  0  0  0  0  0
   -3.9962    2.3634    0.1338 H   0  0  0  0  0  0  0  0  0  0  0  0
   -3.8299    1.3893    1.7081 H   0  0  0  0  0  0  0  0  0  0  0  0
   -1.5641    4.7010    1.3894 H   0  0  0  0  0  0  0  0  0  0  0  0
   -3.1651    3.8675    1.1602 H   0  0  0  0  0  0  0  0  0  0  0  0
   -0.5122    5.9389   -0.4633 H   0  0  0  0  0  0  0  0  0  0  0  0
   -1.2475    6.7984   -2.9174 H   0  0  0  0  0  0  0  0  0  0  0  0
  1  2  2  0
  2  3  1  0
  3  4  1  0
  4  5  2  0
  5  6  1  0
  6  7  2  0
  7  8  1  0
  8  9  1  0
  9 10  2  0
 10 11  1  0
 11 12  2  0
 12 13  1  0
 12 14  1  0
 14 15  2  0
  7 16  1  0
 16 17  2  0
  2 18  1  0
 18 19  1  0
 19 20  1  0
 20 21  1  0
 21 22  1  0
 22 23  2  0
 23 24  1  0
 24 25  2  0
 25 26  1  0
 25 27  1  0
 27 28  2  0
 20 29  1  0
 29 30  1  0
 30 31  1  0
 31 32  2  0
 31 33  1  0
 33 34  1  0
 34 35  1  0
 35 36  2  0
 36 37  1  0
 37 38  2  0
 17  4  1  0
 30 18  1  0
 38 34  1  0
 15  9  1  0
 28 22  1  0
  3 39  1  0
  5 40  1  0
  6 41  1  0
 10 42  1  0
 11 43  1  0
 14 44  1  0
 15 45  1  0
 16 46  1  0
 17 47  1  0
 18 48  1  1
 19 49  1  0
 19 50  1  0
 20 51  1  6
 21 52  1  0
 21 53  1  0
 23 54  1  0
 24 55  1  0
 27 56  1  0
 28 57  1  0
 29 58  1  0
 29 59  1  0
 33 60  1  0
 33 61  1  0
 35 62  1  0
 36 63  1  0
M  END
$$$$
