
     RDKit          3D

 54 57  0  0  0  0  0  0  0  0999 V2000
   -2.1934    0.5171    2.0332 O   0  0  0  0  0  0  0  0  0  0  0  0
   -1.8155    0.7823    0.8777 C   0  0  0  0  0  0  0  0  0  0  0  0
   -0.8209   -0.1196    0.3359 N   0  0  0  0  0  0  0  0  0  0  0  0
   -0.3147   -1.2421    1.0969 C   0  0  1  0  0  0  0  0  0  0  0  0
   -0.6464   -2.5623    0.4368 C   0  0  0  0  0  0  0  0  0  0  0  0
   -0.0766   -2.6824   -0.9176 C   0  0  0  0  0  0  0  0  0  0  0  0
    1.1826   -3.2197   -1.0811 C   0  0  0  0  0  0  0  0  0  0  0  0
    1.7316   -3.3377   -2.3629 C   0  0  0  0  0  0  0  0  0  0  0  0
    1.0326   -2.9238   -3.4774 C   0  0  0  0  0  0  0  0  0  0  0  0
   -0.2187   -2.3903   -3.3111 C   0  0  0  0  0  0  0  0  0  0  0  0
   -0.7662   -2.2720   -2.0378 C   0  0  0  0  0  0  0  0  0  0  0  0
    1.1456   -1.1076    1.3570 C   0  0  0  0  0  0  0  0  0  0  0  0
    1.7968   -1.9650    2.0000 O   0  0  0  0  0  0  0  0  0  0  0  0
    1.8108    0.0211    0.8624 N   0  0  0  0  0  0  0  0  0  0  0  0
    3.2402    0.2737    1.0475 C   0  0  2  0  0  0  0  0  0  0  0  0
    3.5608    1.6855    1.3749 C   0  0  0  0  0  0  0  0  0  0  0  0
    3.1777    2.4859    2.2538 O   0  0  0  0  0  0  0  0  0  0  0  0
    4.4953    1.8199    0.2965 N   0  0  0  0  0  0  0  0  0  0  0  0
    5.5474    2.2461   -0.5986 C   0  0  0  0  0  0  0  0  0  0  0  0
    6.5310    1.0904   -0.6954 C   0  0  0  0  0  0  0  0  0  0  0  0
    5.3796   -0.3216   -0.6497 S   0  0  0  0  0  4  0  0  0  0  0  0
    5.7567   -1.2319    0.5116 O   0  0  0  0  0  0  0  0  0  0  0  0
    3.8642    0.6144   -0.2672 C   0  0  1  0  0  0  0  0  0  0  0  0
   -2.2786    1.8399    0.1335 O   0  0  0  0  0  0  0  0  0  0  0  0
   -3.2379    2.7347    0.6137 C   0  0  0  0  0  0  0  0  0  0  0  0
   -4.5178    2.0900    0.9567 C   0  0  0  0  0  0  0  0  0  0  0  0
   -4.8344    1.7392    2.2281 C   0  0  0  0  0  0  0  0  0  0  0  0
   -6.0424    1.1162    2.5052 C   0  0  0  0  0  0  0  0  0  0  0  0
   -6.9199    0.8559    1.4819 C   0  0  0  0  0  0  0  0  0  0  0  0
   -6.6226    1.2013    0.1899 C   0  0  0  0  0  0  0  0  0  0  0  0
   -5.4227    1.8160   -0.0610 C   0  0  0  0  0  0  0  0  0  0  0  0
   -0.5067    0.1072   -0.6347 H   0  0  0  0  0  0  0  0  0  0  0  0
   -0.8244   -1.2323    2.0817 H   0  0  0  0  0  0  0  0  0  0  0  0
   -0.3159   -3.3933    1.0658 H   0  0  0  0  0  0  0  0  0  0  0  0
   -1.7435   -2.6274    0.3490 H   0  0  0  0  0  0  0  0  0  0  0  0
    1.7714   -3.5590   -0.2404 H   0  0  0  0  0  0  0  0  0  0  0  0
    2.7121   -3.7521   -2.5316 H   0  0  0  0  0  0  0  0  0  0  0  0
    1.4501   -3.0108   -4.4816 H   0  0  0  0  0  0  0  0  0  0  0  0
   -0.7678   -2.0660   -4.1771 H   0  0  0  0  0  0  0  0  0  0  0  0
   -1.7544   -1.8475   -1.9397 H   0  0  0  0  0  0  0  0  0  0  0  0
    1.2740    0.7393    0.3258 H   0  0  0  0  0  0  0  0  0  0  0  0
    3.7801   -0.4875    1.6096 H   0  0  0  0  0  0  0  0  0  0  0  0
    5.1193    2.4513   -1.6066 H   0  0  0  0  0  0  0  0  0  0  0  0
    6.0249    3.1338   -0.1874 H   0  0  0  0  0  0  0  0  0  0  0  0
    7.2384    1.0540    0.1299 H   0  0  0  0  0  0  0  0  0  0  0  0
    6.9713    1.1262   -1.7009 H   0  0  0  0  0  0  0  0  0  0  0  0
    3.2106    0.7907   -1.1193 H   0  0  0  0  0  0  0  0  0  0  0  0
   -2.8574    3.2705    1.5240 H   0  0  0  0  0  0  0  0  0  0  0  0
   -3.4933    3.5169   -0.1571 H   0  0  0  0  0  0  0  0  0  0  0  0
   -4.1855    1.9338    3.0835 H   0  0  0  0  0  0  0  0  0  0  0  0
   -6.2944    0.8333    3.5368 H   0  0  0  0  0  0  0  0  0  0  0  0
   -7.8509    0.3731    1.7120 H   0  0  0  0  0  0  0  0  0  0  0  0
   -7.3306    0.9896   -0.6225 H   0  0  0  0  0  0  0  0  0  0  0  0
   -5.1517    2.1029   -1.0603 H   0  0  0  0  0  0  0  0  0  0  0  0
  1  2  2  0
  2  3  1  0
  3  4  1  0
  4  5  1  0
  5  6  1  0
  6  7  2  0
  7  8  1  0
  8  9  2  0
  9 10  1  0
 10 11  2  0
  4 12  1  0
 12 13  2  0
 12 14  1  0
 14 15  1  0
 15 16  1  0
 16 17  2  0
 16 18  1  0
 18 19  1  0
 19 20  1  0
 20 21  1  0
 21 22  2  0
 21 23  1  0
  2 24  1  0
 24 25  1  0
 25 26  1  0
 26 27  2  0
 27 28  1  0
 28 29  2  0
 29 30  1  0
 30 31  2  0
 11  6  1  0
 23 15  1  0
 31 26  1  0
 23 18  1  0
  3 32  1  0
  4 33  1  1
  5 34  1  0
  5 35  1  0
  7 36  1  0
  8 37  1  0
  9 38  1  0
 10 39  1  0
 11 40  1  0
 14 41  1  0
 15 42  1  1
 19 43  1  0
 19 44  1  0
 20 45  1  0
 20 46  1  0
 23 47  1  6
 25 48  1  0
 25 49  1  0
 27 50  1  0
 28 51  1  0
 29 52  1  0
 30 53  1  0
 31 54  1  0
M  END
$$$$
