
     RDKit          3D

 59 60  0  0  0  0  0  0  0  0999 V2000
    8.6392    1.3790    1.3593 C   0  0  0  0  0  0  0  0  0  0  0  0
    7.1804    1.2228    0.9574 C   0  0  0  0  0  0  0  0  0  0  0  0
    7.1479    0.9701   -0.5193 C   0  0  0  0  0  0  0  0  0  0  0  0
    5.8124    0.8082   -1.0051 N   0  0  0  0  0  0  0  0  0  0  0  0
    4.9484   -0.2077   -0.5515 C   0  0  0  0  0  0  0  0  0  0  0  0
    5.3004   -1.0336    0.3076 O   0  0  0  0  0  0  0  0  0  0  0  0
    3.5591   -0.2941   -1.1250 C   0  0  1  0  0  0  0  0  0  0  0  0
    3.1656   -1.6524   -1.3889 O   0  0  0  0  0  0  0  0  0  0  0  0
    2.5489   -0.8846   -0.2502 C   0  0  2  0  0  0  0  0  0  0  0  0
    1.1266   -0.6491   -0.5923 C   0  0  0  0  0  0  0  0  0  0  0  0
    0.8292   -0.0755   -1.6669 O   0  0  0  0  0  0  0  0  0  0  0  0
    0.1080   -1.0657    0.2821 N   0  0  0  0  0  0  0  0  0  0  0  0
   -1.3155   -0.8265   -0.0670 C   0  0  2  0  0  0  0  0  0  0  0  0
   -1.9186   -0.0978    1.0543 C   0  0  0  0  0  0  0  0  0  0  0  0
   -1.2762   -0.0745    2.1699 O   0  0  0  0  0  0  0  0  0  0  0  0
   -3.1441    0.5917    1.0366 N   0  0  0  0  0  0  0  0  0  0  0  0
   -3.7154    1.2370    2.2366 C   0  0  0  0  0  0  0  0  0  0  0  0
   -5.1443    0.7879    2.1527 C   0  0  0  0  0  0  0  0  0  0  0  0
   -5.4207    0.6932    0.6697 C   0  0  0  0  0  0  0  0  0  0  0  0
   -4.0901    0.8992   -0.0111 C   0  0  1  0  0  0  0  0  0  0  0  0
   -4.0165    2.3429   -0.4287 C   0  0  0  0  0  0  0  0  0  0  0  0
   -3.1356    3.0979    0.0337 O   0  0  0  0  0  0  0  0  0  0  0  0
   -4.9071    2.8786   -1.3253 O   0  0  0  0  0  0  0  0  0  0  0  0
   -4.8656    4.2409   -1.7419 C   0  0  0  0  0  0  0  0  0  0  0  0
   -1.8405   -2.2397   -0.2415 C   0  0  1  0  0  0  0  0  0  0  0  0
   -3.2537   -2.3919   -0.5971 C   0  0  0  0  0  0  0  0  0  0  0  0
   -0.9371   -2.8919   -1.2933 C   0  0  0  0  0  0  0  0  0  0  0  0
   -1.3409   -4.3066   -1.5712 C   0  0  0  0  0  0  0  0  0  0  0  0
    8.9925    2.3813    1.0363 H   0  0  0  0  0  0  0  0  0  0  0  0
    8.6992    1.2474    2.4599 H   0  0  0  0  0  0  0  0  0  0  0  0
    9.2515    0.5910    0.8947 H   0  0  0  0  0  0  0  0  0  0  0  0
    6.6198    2.1494    1.2194 H   0  0  0  0  0  0  0  0  0  0  0  0
    6.7091    0.3920    1.4892 H   0  0  0  0  0  0  0  0  0  0  0  0
    7.6426    1.8230   -1.0447 H   0  0  0  0  0  0  0  0  0  0  0  0
    7.7484    0.0636   -0.7364 H   0  0  0  0  0  0  0  0  0  0  0  0
    5.4336    1.4750   -1.7436 H   0  0  0  0  0  0  0  0  0  0  0  0
    3.2488    0.4282   -1.8776 H   0  0  0  0  0  0  0  0  0  0  0  0
    2.8060   -1.3852    0.6876 H   0  0  0  0  0  0  0  0  0  0  0  0
    0.3392   -1.5392    1.1701 H   0  0  0  0  0  0  0  0  0  0  0  0
   -1.3250   -0.3199   -1.0355 H   0  0  0  0  0  0  0  0  0  0  0  0
   -3.6537    2.3070    2.0943 H   0  0  0  0  0  0  0  0  0  0  0  0
   -3.2061    0.8703    3.1540 H   0  0  0  0  0  0  0  0  0  0  0  0
   -5.1906   -0.2474    2.5607 H   0  0  0  0  0  0  0  0  0  0  0  0
   -5.8458    1.4563    2.6756 H   0  0  0  0  0  0  0  0  0  0  0  0
   -5.8789   -0.2839    0.4022 H   0  0  0  0  0  0  0  0  0  0  0  0
   -6.1220    1.5374    0.4279 H   0  0  0  0  0  0  0  0  0  0  0  0
   -3.9915    0.2537   -0.9131 H   0  0  0  0  0  0  0  0  0  0  0  0
   -3.9022    4.5224   -2.1667 H   0  0  0  0  0  0  0  0  0  0  0  0
   -5.6983    4.4297   -2.4366 H   0  0  0  0  0  0  0  0  0  0  0  0
   -5.0864    4.8424   -0.8163 H   0  0  0  0  0  0  0  0  0  0  0  0
   -1.6300   -2.7809    0.7019 H   0  0  0  0  0  0  0  0  0  0  0  0
   -3.8974   -1.9813    0.2228 H   0  0  0  0  0  0  0  0  0  0  0  0
   -3.4970   -3.4771   -0.6248 H   0  0  0  0  0  0  0  0  0  0  0  0
   -3.5398   -2.0005   -1.5935 H   0  0  0  0  0  0  0  0  0  0  0  0
    0.0783   -2.8882   -0.8549 H   0  0  0  0  0  0  0  0  0  0  0  0
   -0.8973   -2.2713   -2.2108 H   0  0  0  0  0  0  0  0  0  0  0  0
   -0.4256   -4.9144   -1.7396 H   0  0  0  0  0  0  0  0  0  0  0  0
   -1.8923   -4.7504   -0.7347 H   0  0  0  0  0  0  0  0  0  0  0  0
   -1.9332   -4.3879   -2.5235 H   0  0  0  0  0  0  0  0  0  0  0  0
  1  2  1  0
  2  3  1  0
  3  4  1  0
  4  5  1  0
  5  6  2  0
  5  7  1  0
  7  8  1  0
  8  9  1  0
  9 10  1  0
 10 11  2  0
 10 12  1  0
 12 13  1  0
 13 14  1  0
 14 15  2  0
 14 16  1  0
 16 17  1  0
 17 18  1  0
 18 19  1  0
 19 20  1  0
 20 21  1  0
 21 22  2  0
 21 23  1  0
 23 24  1  0
 13 25  1  0
 25 26  1  0
 25 27  1  0
 27 28  1  0
  9  7  1  0
 20 16  1  0
  1 29  1  0
  1 30  1  0
  1 31  1  0
  2 32  1  0
  2 33  1  0
  3 34  1  0
  3 35  1  0
  4 36  1  0
  7 37  1  6
  9 38  1  1
 12 39  1  0
 13 40  1  6
 17 41  1  0
 17 42  1  0
 18 43  1  0
 18 44  1  0
 19 45  1  0
 19 46  1  0
 20 47  1  6
 24 48  1  0
 24 49  1  0
 24 50  1  0
 25 51  1  1
 26 52  1  0
 26 53  1  0
 26 54  1  0
 27 55  1  0
 27 56  1  0
 28 57  1  0
 28 58  1  0
 28 59  1  0
M  END
$$$$
