
     RDKit          3D

 38 40  0  0  0  0  0  0  0  0999 V2000
    0.9105   -3.2183    0.3610 O   0  0  0  0  0  0  0  0  0  0  0  0
   -0.1034   -2.3380    0.5953 C   0  0  0  0  0  0  0  0  0  0  0  0
   -0.7279   -3.3012    1.1035 O   0  0  0  0  0  0  0  0  0  0  0  0
   -0.6337   -0.9899    0.5033 C   0  0  0  0  0  0  0  0  0  0  0  0
    0.1718   -0.0476   -0.0835 C   0  0  0  0  0  0  0  0  0  0  0  0
    1.4710   -0.2069   -0.6253 N   0  0  0  0  0  0  0  0  0  0  0  0
    2.6164   -0.0124    0.2293 C   0  0  0  0  0  0  0  0  0  0  0  0
    2.3102    0.2874    1.4322 O   0  0  0  0  0  0  0  0  0  0  0  0
    4.0415   -0.1009   -0.0581 C   0  0  0  0  0  0  0  0  0  0  0  0
    4.8293   -1.1248   -0.5351 C   0  0  0  0  0  0  0  0  0  0  0  0
    3.9460   -2.5802   -0.8580 Cl  0  0  0  0  0  0  0  0  0  0  0  0
    6.1804   -0.9189   -0.7104 C   0  0  0  0  0  0  0  0  0  0  0  0
    6.8019    0.2788   -0.4298 C   0  0  0  0  0  0  0  0  0  0  0  0
    8.5318    0.3904   -0.7039 Cl  0  0  0  0  0  0  0  0  0  0  0  0
    6.0202    1.3092    0.0482 C   0  0  0  0  0  0  0  0  0  0  0  0
    4.6626    1.1152    0.2285 C   0  0  0  0  0  0  0  0  0  0  0  0
   -0.3256    1.2446   -0.1745 C   0  0  0  0  0  0  0  0  0  0  0  0
   -1.5824    1.5032    0.3228 C   0  0  0  0  0  0  0  0  0  0  0  0
   -2.3415    0.5044    0.9025 C   0  0  0  0  0  0  0  0  0  0  0  0
   -3.6068    0.8246    1.3888 O   0  0  0  0  0  0  0  0  0  0  0  0
   -4.7399    0.7495    0.6247 C   0  0  0  0  0  0  0  0  0  0  0  0
   -5.8483    1.0947    1.2659 N   0  0  0  0  0  0  0  0  0  0  0  0
   -7.0725    1.0999    0.7265 C   0  0  0  0  0  0  0  0  0  0  0  0
   -7.2097    0.7210   -0.5930 C   0  0  0  0  0  0  0  0  0  0  0  0
   -6.0601    0.3548   -1.2849 C   0  0  0  0  0  0  0  0  0  0  0  0
   -4.8437    0.3728   -0.6721 N   0  0  0  0  0  0  0  0  0  0  0  0
   -1.8910   -0.7944    1.0161 C   0  0  0  0  0  0  0  0  0  0  0  0
    1.7236   -3.3796    0.9771 H   0  0  0  0  0  0  0  0  0  0  0  0
    1.7827   -0.4603   -1.6110 H   0  0  0  0  0  0  0  0  0  0  0  0
    6.7171   -1.7739   -1.0867 H   0  0  0  0  0  0  0  0  0  0  0  0
    6.5542    2.2259    0.2525 H   0  0  0  0  0  0  0  0  0  0  0  0
    4.1923    2.0271    0.6117 H   0  0  0  0  0  0  0  0  0  0  0  0
    0.2065    2.0759   -0.6127 H   0  0  0  0  0  0  0  0  0  0  0  0
   -1.9950    2.5034    0.2647 H   0  0  0  0  0  0  0  0  0  0  0  0
   -7.9694    1.3917    1.2860 H   0  0  0  0  0  0  0  0  0  0  0  0
   -8.1786    0.7104   -1.0687 H   0  0  0  0  0  0  0  0  0  0  0  0
   -6.0943    0.0475   -2.3201 H   0  0  0  0  0  0  0  0  0  0  0  0
   -2.4464   -1.5849    1.4547 H   0  0  0  0  0  0  0  0  0  0  0  0
  1  2  1  0
  2  3  2  0
  2  4  1  0
  4  5  2  0
  5  6  1  0
  6  7  1  0
  7  8  2  0
  7  9  1  0
  9 10  2  0
 10 11  1  0
 10 12  1  0
 12 13  2  0
 13 14  1  0
 13 15  1  0
 15 16  2  0
  5 17  1  0
 17 18  2  0
 18 19  1  0
 19 20  1  0
 20 21  1  0
 21 22  2  0
 22 23  1  0
 23 24  2  0
 24 25  1  0
 25 26  2  0
 19 27  2  0
 27  4  1  0
 16  9  1  0
 26 21  1  0
  1 28  1  0
  6 29  1  0
 12 30  1  0
 15 31  1  0
 16 32  1  0
 17 33  1  0
 18 34  1  0
 23 35  1  0
 24 36  1  0
 25 37  1  0
 27 38  1  0
M  END
$$$$
