
     RDKit          3D

 28 29  0  0  0  0  0  0  0  0999 V2000
    5.2694    0.7364    0.7641 N   0  0  0  0  0  0  0  0  0  0  0  0
    3.8718    0.6685    0.5146 C   0  0  0  0  0  0  0  0  0  0  0  0
    3.0377    1.6683    0.8351 N   0  0  0  0  0  0  0  0  0  0  0  0
    1.7087    1.5241    0.5619 C   0  0  0  0  0  0  0  0  0  0  0  0
    0.9464    2.4796    0.8736 O   0  0  0  0  0  0  0  0  0  0  0  0
    1.1850    0.4157   -0.0201 N   0  0  0  0  0  0  0  0  0  0  0  0
    2.0595   -0.5589   -0.3229 C   0  0  0  0  0  0  0  0  0  0  0  0
    3.3838   -0.4538   -0.0681 N   0  0  0  0  0  0  0  0  0  0  0  0
   -0.1986    0.2836   -0.2964 C   0  0  1  0  0  0  0  0  0  0  0  0
   -0.5760   -0.4184   -1.5559 C   0  0  0  0  0  0  0  0  0  0  0  0
   -1.8868   -1.1006   -1.1371 C   0  0  2  0  0  0  0  0  0  0  0  0
   -2.9001   -0.8811   -2.0456 O   0  0  0  0  0  0  0  0  0  0  0  0
   -2.1811   -0.2944    0.1114 C   0  0  1  0  0  0  0  0  0  0  0  0
   -3.2887   -0.8467    0.9466 C   0  0  0  0  0  0  0  0  0  0  0  0
   -3.3193   -0.0995    2.1240 O   0  0  0  0  0  0  0  0  0  0  0  0
   -0.9304   -0.3693    0.7251 O   0  0  0  0  0  0  0  0  0  0  0  0
    5.8800    0.0438    1.2593 H   0  0  0  0  0  0  0  0  0  0  0  0
    5.6795    1.6158    0.3777 H   0  0  0  0  0  0  0  0  0  0  0  0
    1.7717   -1.4822   -0.7845 H   0  0  0  0  0  0  0  0  0  0  0  0
   -0.7137    1.2894   -0.3431 H   0  0  0  0  0  0  0  0  0  0  0  0
   -0.8657    0.2851   -2.3834 H   0  0  0  0  0  0  0  0  0  0  0  0
    0.0873   -1.2063   -1.9011 H   0  0  0  0  0  0  0  0  0  0  0  0
   -1.7350   -2.1410   -0.8401 H   0  0  0  0  0  0  0  0  0  0  0  0
   -2.7047   -0.1794   -2.7061 H   0  0  0  0  0  0  0  0  0  0  0  0
   -2.3604    0.7420   -0.1684 H   0  0  0  0  0  0  0  0  0  0  0  0
   -4.2389   -0.5904    0.4171 H   0  0  0  0  0  0  0  0  0  0  0  0
   -3.2446   -1.9214    1.1063 H   0  0  0  0  0  0  0  0  0  0  0  0
   -3.7366    0.7911    1.9137 H   0  0  0  0  0  0  0  0  0  0  0  0
  1  2  1  0
  2  3  2  0
  3  4  1  0
  4  5  2  0
  4  6  1  0
  6  7  1  0
  7  8  2  0
  6  9  1  0
  9 10  1  0
 10 11  1  0
 11 12  1  0
 11 13  1  0
 13 14  1  0
 14 15  1  0
 13 16  1  0
  8  2  1  0
 16  9  1  0
  1 17  1  0
  1 18  1  0
  7 19  1  0
  9 20  1  6
 10 21  1  0
 10 22  1  0
 11 23  1  1
 12 24  1  0
 13 25  1  6
 14 26  1  0
 14 27  1  0
 15 28  1  0
M  END
$$$$
