
     RDKit          3D

 56 59  0  0  0  0  0  0  0  0999 V2000
   -0.9273   -0.9216    0.5525 C   0  0  2  0  0  0  0  0  0  0  0  0
   -1.8099   -2.0766    0.7089 C   0  0  0  0  0  0  0  0  0  0  0  0
   -3.1600   -1.3995    0.9828 C   0  0  0  0  0  0  0  0  0  0  0  0
   -2.9575    0.0815    0.6718 C   0  0  2  0  0  0  0  0  0  0  0  0
   -2.5779    0.6961    1.8690 O   0  0  0  0  0  0  0  0  0  0  0  0
   -4.1696    0.6543    0.0772 C   0  0  0  0  0  0  0  0  0  0  0  0
   -4.9607    0.5869   -0.8727 O   0  0  0  0  0  0  0  0  0  0  0  0
   -5.0094    1.7564    0.5630 C   0  0  0  0  0  0  0  0  0  0  0  0
   -6.0519    1.9438   -0.3371 O   0  0  0  0  0  0  0  0  0  0  0  0
   -1.7841    0.0092   -0.2826 C   0  0  2  0  0  0  0  0  0  0  0  0
   -2.2808   -0.5817   -1.5558 C   0  0  0  0  0  0  0  0  0  0  0  0
   -1.1122    1.3460   -0.4629 C   0  0  0  0  0  0  0  0  0  0  0  0
    0.2702    1.1494   -1.0511 C   0  0  2  0  0  0  0  0  0  0  0  0
    0.2342    0.8332   -2.3605 O   0  0  0  0  0  0  0  0  0  0  0  0
    1.0484    0.2591   -0.1272 C   0  0  1  0  0  0  0  0  0  0  0  0
    0.3795   -1.0844   -0.1171 C   0  0  1  0  0  0  0  0  0  0  0  0
    1.2385   -2.1852    0.4755 C   0  0  0  0  0  0  0  0  0  0  0  0
    2.4098   -2.2703   -0.5125 C   0  0  0  0  0  0  0  0  0  0  0  0
    3.1887   -1.0174   -0.2455 C   0  0  0  0  0  0  0  0  0  0  0  0
    4.4736   -1.1213    0.0291 C   0  0  0  0  0  0  0  0  0  0  0  0
    5.2970    0.0253    0.2978 C   0  0  0  0  0  0  0  0  0  0  0  0
    6.5553   -0.0274    0.3860 O   0  0  0  0  0  0  0  0  0  0  0  0
    4.6522    1.3389    0.4823 C   0  0  0  0  0  0  0  0  0  0  0  0
    3.2025    1.1283    0.7636 C   0  0  0  0  0  0  0  0  0  0  0  0
    2.5128    0.2826   -0.2948 C   0  0  2  0  0  0  0  0  0  0  0  0
    2.9573    0.9401   -1.6074 C   0  0  0  0  0  0  0  0  0  0  0  0
   -0.7898   -0.4327    1.5398 H   0  0  0  0  0  0  0  0  0  0  0  0
   -1.5244   -2.6475    1.6394 H   0  0  0  0  0  0  0  0  0  0  0  0
   -1.8527   -2.8144   -0.0888 H   0  0  0  0  0  0  0  0  0  0  0  0
   -3.4443   -1.5360    2.0567 H   0  0  0  0  0  0  0  0  0  0  0  0
   -3.9165   -1.8352    0.3250 H   0  0  0  0  0  0  0  0  0  0  0  0
   -2.6911    1.6677    1.8231 H   0  0  0  0  0  0  0  0  0  0  0  0
   -4.3783    2.6760    0.6064 H   0  0  0  0  0  0  0  0  0  0  0  0
   -5.4501    1.5386    1.5772 H   0  0  0  0  0  0  0  0  0  0  0  0
   -6.6678    2.6311    0.0229 H   0  0  0  0  0  0  0  0  0  0  0  0
   -3.3316   -0.9870   -1.4670 H   0  0  0  0  0  0  0  0  0  0  0  0
   -2.3822    0.2004   -2.3541 H   0  0  0  0  0  0  0  0  0  0  0  0
   -1.6983   -1.3924   -1.9860 H   0  0  0  0  0  0  0  0  0  0  0  0
   -1.0135    1.8204    0.5217 H   0  0  0  0  0  0  0  0  0  0  0  0
   -1.6974    1.9236   -1.1944 H   0  0  0  0  0  0  0  0  0  0  0  0
    0.7566    2.1661   -0.9675 H   0  0  0  0  0  0  0  0  0  0  0  0
    0.2005   -0.0835   -2.6502 H   0  0  0  0  0  0  0  0  0  0  0  0
    0.8212    0.7176    0.8852 H   0  0  0  0  0  0  0  0  0  0  0  0
    0.1634   -1.4715   -1.1558 H   0  0  0  0  0  0  0  0  0  0  0  0
    0.6703   -3.1143    0.3580 H   0  0  0  0  0  0  0  0  0  0  0  0
    1.5979   -1.9664    1.4895 H   0  0  0  0  0  0  0  0  0  0  0  0
    3.0036   -3.1693   -0.3417 H   0  0  0  0  0  0  0  0  0  0  0  0
    2.0113   -2.1726   -1.5434 H   0  0  0  0  0  0  0  0  0  0  0  0
    4.9263   -2.1162    0.0527 H   0  0  0  0  0  0  0  0  0  0  0  0
    5.0624    1.8418    1.4068 H   0  0  0  0  0  0  0  0  0  0  0  0
    4.8477    2.0668   -0.3253 H   0  0  0  0  0  0  0  0  0  0  0  0
    2.7018    2.1364    0.6909 H   0  0  0  0  0  0  0  0  0  0  0  0
    3.0472    0.7506    1.7879 H   0  0  0  0  0  0  0  0  0  0  0  0
    2.8143    2.0286   -1.5544 H   0  0  0  0  0  0  0  0  0  0  0  0
    2.5357    0.4491   -2.4989 H   0  0  0  0  0  0  0  0  0  0  0  0
    4.0588    0.7786   -1.6961 H   0  0  0  0  0  0  0  0  0  0  0  0
  1  2  1  0
  2  3  1  0
  3  4  1  0
  4  5  1  1
  4  6  1  0
  6  7  2  0
  6  8  1  0
  8  9  1  0
  4 10  1  0
 10 11  1  6
 10 12  1  0
 12 13  1  0
 13 14  1  0
 13 15  1  0
 15 16  1  0
 16 17  1  0
 17 18  1  0
 18 19  1  0
 19 20  2  0
 20 21  1  0
 21 22  2  0
 21 23  1  0
 23 24  1  0
 24 25  1  0
 25 26  1  6
 10  1  1  0
 25 15  1  0
 16  1  1  0
 25 19  1  0
  1 27  1  1
  2 28  1  0
  2 29  1  0
  3 30  1  0
  3 31  1  0
  5 32  1  0
  8 33  1  0
  8 34  1  0
  9 35  1  0
 11 36  1  0
 11 37  1  0
 11 38  1  0
 12 39  1  0
 12 40  1  0
 13 41  1  6
 14 42  1  0
 15 43  1  1
 16 44  1  6
 17 45  1  0
 17 46  1  0
 18 47  1  0
 18 48  1  0
 20 49  1  0
 23 50  1  0
 23 51  1  0
 24 52  1  0
 24 53  1  0
 26 54  1  0
 26 55  1  0
 26 56  1  0
M  END
$$$$
