
     RDKit          3D

 54 56  0  0  0  0  0  0  0  0999 V2000
   -2.4475    2.6304    4.2711 C   0  0  0  0  0  0  0  0  0  0  0  0
   -2.6082    1.5082    3.2974 C   0  0  0  0  0  0  0  0  0  0  0  0
   -1.6730    1.5852    2.1167 C   0  0  2  0  0  0  0  0  0  0  0  0
   -1.9559    0.4411    1.2827 N   0  0  0  0  0  0  0  0  0  0  0  0
   -1.2213    0.2226    0.0914 C   0  0  0  0  0  0  0  0  0  0  0  0
   -0.1363   -0.5920    0.1769 N   0  0  0  0  0  0  0  0  0  0  0  0
    0.6365   -0.8718   -0.8923 C   0  0  0  0  0  0  0  0  0  0  0  0
    1.7598   -1.7225   -0.7918 N   0  0  0  0  0  0  0  0  0  0  0  0
    2.1065   -2.3061    0.4572 C   0  0  0  0  0  0  0  0  0  0  0  0
    3.2781   -3.1758    0.4350 C   0  0  0  0  0  0  0  0  0  0  0  0
    3.2220   -4.5298    0.1965 C   0  0  0  0  0  0  0  0  0  0  0  0
    4.3816   -5.3129    0.1858 C   0  0  0  0  0  0  0  0  0  0  0  0
    5.6114   -4.7349    0.4165 C   0  0  0  0  0  0  0  0  0  0  0  0
    5.6463   -3.4108    0.6476 N   0  0  0  0  0  0  0  0  0  0  0  0
    4.5265   -2.6402    0.6603 C   0  0  0  0  0  0  0  0  0  0  0  0
    0.2539   -0.2747   -2.0868 C   0  0  0  0  0  0  0  0  0  0  0  0
    0.7735   -0.3257   -3.3185 N   0  0  0  0  0  0  0  0  0  0  0  0
    0.0229    0.4399   -4.1349 C   0  0  0  0  0  0  0  0  0  0  0  0
   -0.9935    0.9997   -3.4512 N   0  0  0  0  0  0  0  0  0  0  0  0
   -2.0085    1.8846   -3.9897 C   0  0  0  0  0  0  0  0  0  0  0  0
   -1.8384    3.3118   -3.5774 C   0  0  0  0  0  0  0  0  0  0  0  0
   -3.3869    1.3984   -3.6055 C   0  0  0  0  0  0  0  0  0  0  0  0
   -0.8453    0.5543   -2.1866 C   0  0  0  0  0  0  0  0  0  0  0  0
   -1.5777    0.7968   -1.0890 N   0  0  0  0  0  0  0  0  0  0  0  0
   -0.2302    1.6137    2.4876 C   0  0  1  0  0  0  0  0  0  0  0  0
    0.1383    0.3172    3.1848 C   0  0  0  0  0  0  0  0  0  0  0  0
    0.5341    1.6996    1.3356 O   0  0  0  0  0  0  0  0  0  0  0  0
   -3.1048    2.3885    5.1497 H   0  0  0  0  0  0  0  0  0  0  0  0
   -1.4240    2.7321    4.6360 H   0  0  0  0  0  0  0  0  0  0  0  0
   -2.8267    3.5860    3.8513 H   0  0  0  0  0  0  0  0  0  0  0  0
   -3.6343    1.4684    2.9051 H   0  0  0  0  0  0  0  0  0  0  0  0
   -2.4260    0.5443    3.8133 H   0  0  0  0  0  0  0  0  0  0  0  0
   -1.9103    2.4802    1.4812 H   0  0  0  0  0  0  0  0  0  0  0  0
   -2.7010   -0.2743    1.5042 H   0  0  0  0  0  0  0  0  0  0  0  0
    2.3224   -1.9125   -1.6366 H   0  0  0  0  0  0  0  0  0  0  0  0
    1.2460   -2.9071    0.8723 H   0  0  0  0  0  0  0  0  0  0  0  0
    2.2782   -1.5225    1.2482 H   0  0  0  0  0  0  0  0  0  0  0  0
    2.2679   -5.0044    0.0134 H   0  0  0  0  0  0  0  0  0  0  0  0
    4.3536   -6.3743    0.0011 H   0  0  0  0  0  0  0  0  0  0  0  0
    6.5333   -5.3302    0.4124 H   0  0  0  0  0  0  0  0  0  0  0  0
    4.6517   -1.5802    0.8561 H   0  0  0  0  0  0  0  0  0  0  0  0
    0.2181    0.5799   -5.1944 H   0  0  0  0  0  0  0  0  0  0  0  0
   -1.9587    1.8394   -5.0989 H   0  0  0  0  0  0  0  0  0  0  0  0
   -0.8016    3.5505   -3.2497 H   0  0  0  0  0  0  0  0  0  0  0  0
   -2.4872    3.5559   -2.7028 H   0  0  0  0  0  0  0  0  0  0  0  0
   -2.0678    3.9863   -4.4204 H   0  0  0  0  0  0  0  0  0  0  0  0
   -3.4621    0.3179   -3.4828 H   0  0  0  0  0  0  0  0  0  0  0  0
   -4.1427    1.7178   -4.3778 H   0  0  0  0  0  0  0  0  0  0  0  0
   -3.7236    1.8703   -2.6600 H   0  0  0  0  0  0  0  0  0  0  0  0
   -0.0290    2.4803    3.1733 H   0  0  0  0  0  0  0  0  0  0  0  0
    0.1999    0.4855    4.2941 H   0  0  0  0  0  0  0  0  0  0  0  0
   -0.6136   -0.4373    2.9318 H   0  0  0  0  0  0  0  0  0  0  0  0
    1.1174   -0.0675    2.8752 H   0  0  0  0  0  0  0  0  0  0  0  0
    0.1561    2.3210    0.6851 H   0  0  0  0  0  0  0  0  0  0  0  0
  1  2  1  0
  2  3  1  0
  3  4  1  0
  4  5  1  0
  5  6  2  0
  6  7  1  0
  7  8  1  0
  8  9  1  0
  9 10  1  0
 10 11  2  0
 11 12  1  0
 12 13  2  0
 13 14  1  0
 14 15  2  0
  7 16  2  0
 16 17  1  0
 17 18  2  0
 18 19  1  0
 19 20  1  0
 20 21  1  0
 20 22  1  0
 19 23  1  0
 23 24  2  0
  3 25  1  0
 25 26  1  0
 25 27  1  0
 24  5  1  0
 15 10  1  0
 23 16  1  0
  1 28  1  0
  1 29  1  0
  1 30  1  0
  2 31  1  0
  2 32  1  0
  3 33  1  6
  4 34  1  0
  8 35  1  0
  9 36  1  0
  9 37  1  0
 11 38  1  0
 12 39  1  0
 13 40  1  0
 15 41  1  0
 18 42  1  0
 20 43  1  0
 21 44  1  0
 21 45  1  0
 21 46  1  0
 22 47  1  0
 22 48  1  0
 22 49  1  0
 25 50  1  1
 26 51  1  0
 26 52  1  0
 26 53  1  0
 27 54  1  0
M  END
$$$$
