
     RDKit          3D

 77 79  0  0  0  0  0  0  0  0999 V2000
   -4.7303    4.3892   -1.8672 C   0  0  0  0  0  0  0  0  0  0  0  0
   -5.9629    3.5606   -1.6994 C   0  0  0  0  0  0  0  0  0  0  0  0
   -5.7677    2.1340   -2.1761 C   0  0  0  0  0  0  0  0  0  0  0  0
   -4.6457    1.4801   -1.3708 C   0  0  0  0  0  0  0  0  0  0  0  0
   -4.4034    0.0840   -1.7926 C   0  0  0  0  0  0  0  0  0  0  0  0
   -3.3011   -0.5428   -1.0354 N   0  0  0  0  0  0  0  0  0  0  0  0
   -3.6898   -1.3723    0.0882 C   0  0  0  0  0  0  0  0  0  0  0  0
   -3.5988   -0.7019    1.3806 C   0  0  0  0  0  0  0  0  0  0  0  0
   -3.9385   -1.3827    2.6290 C   0  0  0  0  0  0  0  0  0  0  0  0
   -3.2251   -2.5782    3.0856 C   0  0  0  0  0  0  0  0  0  0  0  0
   -3.3384   -3.7456    2.1588 C   0  0  0  0  0  0  0  0  0  0  0  0
   -2.0228   -0.3400   -1.5505 C   0  0  0  0  0  0  0  0  0  0  0  0
   -2.0438    0.3736   -2.6715 O   0  0  0  0  0  0  0  0  0  0  0  0
   -0.7485   -0.7114   -1.1577 N   0  0  0  0  0  0  0  0  0  0  0  0
   -0.3835   -1.4607   -0.0114 C   0  0  0  0  0  0  0  0  0  0  0  0
    0.3780   -0.4706    0.8995 C   0  0  0  0  0  0  0  0  0  0  0  0
    1.6526   -0.1897    0.1757 N   0  0  0  0  0  0  0  0  0  0  0  0
    2.8288   -0.5151    0.8572 C   0  0  0  0  0  0  0  0  0  0  0  0
    2.6552   -1.0301    2.0513 O   0  0  0  0  0  0  0  0  0  0  0  0
    4.1656   -0.3949    0.5093 N   0  0  0  0  0  0  0  0  0  0  0  0
    5.1931   -0.8057    1.4444 C   0  0  0  0  0  0  0  0  0  0  0  0
    5.6923   -2.0889    1.4684 C   0  0  0  0  0  0  0  0  0  0  0  0
    6.6747   -2.4713    2.3658 C   0  0  0  0  0  0  0  0  0  0  0  0
    7.1878   -1.5659    3.2727 C   0  0  0  0  0  0  0  0  0  0  0  0
    6.6974   -0.2782    3.2598 C   0  0  0  0  0  0  0  0  0  0  0  0
    5.7120    0.0939    2.3553 C   0  0  0  0  0  0  0  0  0  0  0  0
    4.6500    0.0958   -0.7104 C   0  0  0  0  0  0  0  0  0  0  0  0
    4.9542   -0.7051   -1.7996 C   0  0  0  0  0  0  0  0  0  0  0  0
    5.4463   -0.2233   -2.9844 C   0  0  0  0  0  0  0  0  0  0  0  0
    5.6619    1.1226   -3.1344 C   0  0  0  0  0  0  0  0  0  0  0  0
    5.3726    1.9524   -2.0764 C   0  0  0  0  0  0  0  0  0  0  0  0
    4.8777    1.4672   -0.8854 C   0  0  0  0  0  0  0  0  0  0  0  0
    1.4725    0.3852   -1.1155 C   0  0  2  0  0  0  0  0  0  0  0  0
    1.0807    1.8331   -1.0323 C   0  0  0  0  0  0  0  0  0  0  0  0
    0.8781    2.5039   -2.0670 O   0  0  0  0  0  0  0  0  0  0  0  0
    0.9386    2.4449    0.1971 O   0  0  0  0  0  0  0  0  0  0  0  0
    0.4412   -0.3150   -1.9764 C   0  0  0  0  0  0  0  0  0  0  0  0
   -4.0477    4.2133   -1.0098 H   0  0  0  0  0  0  0  0  0  0  0  0
   -4.9277    5.4650   -1.9256 H   0  0  0  0  0  0  0  0  0  0  0  0
   -4.2003    4.0405   -2.7984 H   0  0  0  0  0  0  0  0  0  0  0  0
   -6.8516    4.0184   -2.1580 H   0  0  0  0  0  0  0  0  0  0  0  0
   -6.1728    3.5119   -0.5962 H   0  0  0  0  0  0  0  0  0  0  0  0
   -6.7031    1.5646   -2.1069 H   0  0  0  0  0  0  0  0  0  0  0  0
   -5.4764    2.1830   -3.2441 H   0  0  0  0  0  0  0  0  0  0  0  0
   -4.9764    1.5354   -0.3250 H   0  0  0  0  0  0  0  0  0  0  0  0
   -3.7203    2.0780   -1.5480 H   0  0  0  0  0  0  0  0  0  0  0  0
   -5.3527   -0.5050   -1.6428 H   0  0  0  0  0  0  0  0  0  0  0  0
   -4.1683   -0.0279   -2.8694 H   0  0  0  0  0  0  0  0  0  0  0  0
   -3.2295   -2.3362   -0.0825 H   0  0  0  0  0  0  0  0  0  0  0  0
   -4.8208   -1.6402   -0.0539 H   0  0  0  0  0  0  0  0  0  0  0  0
   -2.5686   -0.2282    1.4741 H   0  0  0  0  0  0  0  0  0  0  0  0
   -4.2533    0.2257    1.3439 H   0  0  0  0  0  0  0  0  0  0  0  0
   -5.0473   -1.6478    2.6209 H   0  0  0  0  0  0  0  0  0  0  0  0
   -3.9154   -0.5920    3.4485 H   0  0  0  0  0  0  0  0  0  0  0  0
   -3.7307   -2.9067    4.0511 H   0  0  0  0  0  0  0  0  0  0  0  0
   -2.1770   -2.3996    3.4278 H   0  0  0  0  0  0  0  0  0  0  0  0
   -4.2660   -3.6402    1.5667 H   0  0  0  0  0  0  0  0  0  0  0  0
   -2.4854   -3.8910    1.4868 H   0  0  0  0  0  0  0  0  0  0  0  0
   -3.5107   -4.7042    2.7457 H   0  0  0  0  0  0  0  0  0  0  0  0
   -1.1773   -1.9049    0.5517 H   0  0  0  0  0  0  0  0  0  0  0  0
    0.3865   -2.2192   -0.3421 H   0  0  0  0  0  0  0  0  0  0  0  0
    0.5724   -1.0064    1.8395 H   0  0  0  0  0  0  0  0  0  0  0  0
   -0.2029    0.4333    1.0563 H   0  0  0  0  0  0  0  0  0  0  0  0
    5.3138   -2.8355    0.7682 H   0  0  0  0  0  0  0  0  0  0  0  0
    7.0707   -3.4840    2.3876 H   0  0  0  0  0  0  0  0  0  0  0  0
    7.9698   -1.8626    3.9896 H   0  0  0  0  0  0  0  0  0  0  0  0
    7.1171    0.4155    3.9827 H   0  0  0  0  0  0  0  0  0  0  0  0
    5.3510    1.1015    2.3697 H   0  0  0  0  0  0  0  0  0  0  0  0
    4.7862   -1.7696   -1.6879 H   0  0  0  0  0  0  0  0  0  0  0  0
    5.6829   -0.8517   -3.8345 H   0  0  0  0  0  0  0  0  0  0  0  0
    6.0470    1.5852   -4.0341 H   0  0  0  0  0  0  0  0  0  0  0  0
    5.5276    3.0242   -2.1512 H   0  0  0  0  0  0  0  0  0  0  0  0
    4.6554    2.1391   -0.0629 H   0  0  0  0  0  0  0  0  0  0  0  0
    2.4054    0.3544   -1.6891 H   0  0  0  0  0  0  0  0  0  0  0  0
    1.2631    3.4168    0.2911 H   0  0  0  0  0  0  0  0  0  0  0  0
    0.1550    0.3582   -2.7826 H   0  0  0  0  0  0  0  0  0  0  0  0
    0.8671   -1.2421   -2.3657 H   0  0  0  0  0  0  0  0  0  0  0  0
  1  2  1  0
  2  3  1  0
  3  4  1  0
  4  5  1  0
  5  6  1  0
  6  7  1  0
  7  8  1  0
  8  9  1  0
  9 10  1  0
 10 11  1  0
  6 12  1  0
 12 13  2  0
 12 14  1  0
 14 15  1  0
 15 16  1  0
 16 17  1  0
 17 18  1  0
 18 19  2  0
 18 20  1  0
 20 21  1  0
 21 22  2  0
 22 23  1  0
 23 24  2  0
 24 25  1  0
 25 26  2  0
 20 27  1  0
 27 28  2  0
 28 29  1  0
 29 30  2  0
 30 31  1  0
 31 32  2  0
 17 33  1  0
 33 34  1  0
 34 35  2  0
 34 36  1  0
 33 37  1  0
 37 14  1  0
 26 21  1  0
 32 27  1  0
  1 38  1  0
  1 39  1  0
  1 40  1  0
  2 41  1  0
  2 42  1  0
  3 43  1  0
  3 44  1  0
  4 45  1  0
  4 46  1  0
  5 47  1  0
  5 48  1  0
  7 49  1  0
  7 50  1  0
  8 51  1  0
  8 52  1  0
  9 53  1  0
  9 54  1  0
 10 55  1  0
 10 56  1  0
 11 57  1  0
 11 58  1  0
 11 59  1  0
 15 60  1  0
 15 61  1  0
 16 62  1  0
 16 63  1  0
 22 64  1  0
 23 65  1  0
 24 66  1  0
 25 67  1  0
 26 68  1  0
 28 69  1  0
 29 70  1  0
 30 71  1  0
 31 72  1  0
 32 73  1  0
 33 74  1  6
 36 75  1  0
 37 76  1  0
 37 77  1  0
M  END
$$$$
