
     RDKit          3D

 53 58  0  0  0  0  0  0  0  0999 V2000
   -0.6206   -0.9975   -3.1396 N   0  0  0  0  0  0  0  0  0  0  0  0
   -0.8681   -0.2024   -1.9989 C   0  0  0  0  0  0  0  0  0  0  0  0
   -1.1307   -0.7670   -0.8789 N   0  0  0  0  0  0  0  0  0  0  0  0
   -1.4007   -0.0763    0.3543 C   0  0  0  0  0  0  0  0  0  0  0  0
   -1.7811    1.3481    0.0664 C   0  0  0  0  0  0  0  0  0  0  0  0
   -1.0778    2.0239   -1.0356 C   0  0  0  0  0  0  0  0  0  0  0  0
   -0.8215    1.1763   -2.1167 O   0  0  0  0  0  0  0  0  0  0  0  0
   -0.2221   -0.1376    1.2443 C   0  0  0  0  0  0  0  0  0  0  0  0
    1.0067    0.3371    0.7518 C   0  0  0  0  0  0  0  0  0  0  0  0
    2.1479    0.3466    1.5229 C   0  0  0  0  0  0  0  0  0  0  0  0
    3.3856    0.8342    1.0020 N   0  0  0  0  0  0  0  0  0  0  0  0
    4.3271    0.0152    0.3364 C   0  0  0  0  0  0  0  0  0  0  0  0
    4.0221   -1.2101    0.2149 O   0  0  0  0  0  0  0  0  0  0  0  0
    5.5874    0.5249   -0.1911 C   0  0  0  0  0  0  0  0  0  0  0  0
    6.4901   -0.2848   -0.8347 C   0  0  0  0  0  0  0  0  0  0  0  0
    7.6859    0.1791   -1.3397 C   0  0  0  0  0  0  0  0  0  0  0  0
    7.9543    1.5341   -1.1702 C   0  0  0  0  0  0  0  0  0  0  0  0
    9.4751    2.1880   -1.7980 Cl  0  0  0  0  0  0  0  0  0  0  0  0
    7.0450    2.3471   -0.5225 C   0  0  0  0  0  0  0  0  0  0  0  0
    5.8993    1.8141   -0.0586 N   0  0  0  0  0  0  0  0  0  0  0  0
    2.0425   -0.1324    2.8116 C   0  0  0  0  0  0  0  0  0  0  0  0
    0.8485   -0.6019    3.3088 C   0  0  0  0  0  0  0  0  0  0  0  0
   -0.3165   -0.6134    2.5245 C   0  0  0  0  0  0  0  0  0  0  0  0
   -1.4976   -1.0983    3.0493 O   0  0  0  0  0  0  0  0  0  0  0  0
   -2.6410   -1.1237    2.2921 C   0  0  0  0  0  0  0  0  0  0  0  0
   -3.8282   -1.6287    2.8476 C   0  0  0  0  0  0  0  0  0  0  0  0
   -4.9089   -1.6412    2.0824 N   0  0  0  0  0  0  0  0  0  0  0  0
   -4.9459   -1.2045    0.8134 C   0  0  0  0  0  0  0  0  0  0  0  0
   -6.2137   -1.2492   -0.0010 C   0  0  0  0  0  0  0  0  0  0  0  0
   -6.0403   -1.6797   -1.4193 C   0  0  0  0  0  0  0  0  0  0  0  0
   -6.3865   -0.2684   -1.0969 C   0  0  0  0  0  0  0  0  0  0  0  0
   -3.7872   -0.7086    0.2644 C   0  0  0  0  0  0  0  0  0  0  0  0
   -2.6079   -0.6664    1.0209 C   0  0  0  0  0  0  0  0  0  0  0  0
    0.3465   -1.4004   -3.2778 H   0  0  0  0  0  0  0  0  0  0  0  0
   -1.3604   -1.2110   -3.8670 H   0  0  0  0  0  0  0  0  0  0  0  0
   -2.8781    1.3394   -0.2022 H   0  0  0  0  0  0  0  0  0  0  0  0
   -1.7187    1.9308    1.0250 H   0  0  0  0  0  0  0  0  0  0  0  0
   -0.1517    2.5784   -0.7470 H   0  0  0  0  0  0  0  0  0  0  0  0
   -1.7590    2.8806   -1.3867 H   0  0  0  0  0  0  0  0  0  0  0  0
    1.1090    0.7003   -0.2553 H   0  0  0  0  0  0  0  0  0  0  0  0
    3.6489    1.8590    1.0995 H   0  0  0  0  0  0  0  0  0  0  0  0
    6.2689   -1.3345   -0.9593 H   0  0  0  0  0  0  0  0  0  0  0  0
    8.3639   -0.4961   -1.8383 H   0  0  0  0  0  0  0  0  0  0  0  0
    7.2837    3.3853   -0.4094 H   0  0  0  0  0  0  0  0  0  0  0  0
    2.9369   -0.1249    3.4184 H   0  0  0  0  0  0  0  0  0  0  0  0
    0.7513   -0.9853    4.3305 H   0  0  0  0  0  0  0  0  0  0  0  0
   -3.7786   -1.9765    3.8732 H   0  0  0  0  0  0  0  0  0  0  0  0
   -7.1056   -1.6614    0.5088 H   0  0  0  0  0  0  0  0  0  0  0  0
   -6.8532   -2.2572   -1.9269 H   0  0  0  0  0  0  0  0  0  0  0  0
   -5.0513   -1.8622   -1.8564 H   0  0  0  0  0  0  0  0  0  0  0  0
   -7.4323    0.0885   -1.3298 H   0  0  0  0  0  0  0  0  0  0  0  0
   -5.6158    0.5324   -1.1567 H   0  0  0  0  0  0  0  0  0  0  0  0
   -3.8258   -0.3617   -0.7576 H   0  0  0  0  0  0  0  0  0  0  0  0
  1  2  1  0
  2  3  2  0
  3  4  1  0
  4  5  1  0
  5  6  1  0
  6  7  1  0
  4  8  1  0
  8  9  2  0
  9 10  1  0
 10 11  1  0
 11 12  1  0
 12 13  2  0
 12 14  1  0
 14 15  2  0
 15 16  1  0
 16 17  2  0
 17 18  1  0
 17 19  1  0
 19 20  2  0
 10 21  2  0
 21 22  1  0
 22 23  2  0
 23 24  1  0
 24 25  1  0
 25 26  2  0
 26 27  1  0
 27 28  2  0
 28 29  1  0
 29 30  1  0
 30 31  1  0
 28 32  1  0
 32 33  2  0
  7  2  1  0
 23  8  1  0
 33 25  1  0
 33  4  1  0
 20 14  1  0
 31 29  1  0
  1 34  1  0
  1 35  1  0
  5 36  1  0
  5 37  1  0
  6 38  1  0
  6 39  1  0
  9 40  1  0
 11 41  1  0
 15 42  1  0
 16 43  1  0
 19 44  1  0
 21 45  1  0
 22 46  1  0
 26 47  1  0
 29 48  1  0
 30 49  1  0
 30 50  1  0
 31 51  1  0
 31 52  1  0
 32 53  1  0
M  END
$$$$
