
     RDKit          3D

 49 51  0  0  0  0  0  0  0  0999 V2000
    3.6083   -2.5686    3.5914 C   0  0  0  0  0  0  0  0  0  0  0  0
    2.8463   -1.8902    2.6470 O   0  0  0  0  0  0  0  0  0  0  0  0
    2.9935   -1.9492    1.2744 C   0  0  0  0  0  0  0  0  0  0  0  0
    3.9315   -2.7168    0.8695 O   0  0  0  0  0  0  0  0  0  0  0  0
    2.2195   -1.2639    0.3207 N   0  0  0  0  0  0  0  0  0  0  0  0
    2.3302   -1.3403   -1.0939 C   0  0  0  0  0  0  0  0  0  0  0  0
    0.9753   -1.0107   -1.6222 C   0  0  0  0  0  0  0  0  0  0  0  0
    0.1888   -0.4518   -0.5037 C   0  0  2  0  0  0  0  0  0  0  0  0
   -0.6083    0.6813   -0.8164 N   0  0  0  0  0  0  0  0  0  0  0  0
   -2.0732    0.5662   -0.6495 C   0  0  0  0  0  0  0  0  0  0  0  0
   -2.4504   -0.6491    0.1279 C   0  0  0  0  0  0  0  0  0  0  0  0
   -2.9167   -1.7529   -0.5776 C   0  0  0  0  0  0  0  0  0  0  0  0
   -3.2724   -2.8912    0.0911 C   0  0  0  0  0  0  0  0  0  0  0  0
   -3.7351   -3.9637   -0.6036 F   0  0  0  0  0  0  0  0  0  0  0  0
   -3.1651   -2.9396    1.4609 C   0  0  0  0  0  0  0  0  0  0  0  0
   -2.6952   -1.8267    2.1642 C   0  0  0  0  0  0  0  0  0  0  0  0
   -2.3404   -0.6860    1.4875 C   0  0  0  0  0  0  0  0  0  0  0  0
   -1.8483    0.5270    2.2492 C   0  0  0  0  0  0  0  0  0  0  0  0
   -0.1756    1.9268   -1.3480 C   0  0  0  0  0  0  0  0  0  0  0  0
    1.1671    2.1768   -1.6044 C   0  0  0  0  0  0  0  0  0  0  0  0
    1.4824    3.3873   -2.1966 C   0  0  0  0  0  0  0  0  0  0  0  0
    0.5740    4.3447   -2.5417 C   0  0  0  0  0  0  0  0  0  0  0  0
    0.9498    5.5894   -3.2235 C   0  0  0  0  0  0  0  0  0  0  0  0
    1.2562    6.5474   -3.7388 N   0  0  0  0  0  0  0  0  0  0  0  0
   -0.7637    4.1035   -2.2859 C   0  0  0  0  0  0  0  0  0  0  0  0
   -1.9336    5.3178   -2.7335 Cl  0  0  0  0  0  0  0  0  0  0  0  0
   -1.1003    2.9018   -1.6971 C   0  0  0  0  0  0  0  0  0  0  0  0
    1.1606   -0.3195    0.6329 C   0  0  0  0  0  0  0  0  0  0  0  0
    4.1411   -3.4702    3.1757 H   0  0  0  0  0  0  0  0  0  0  0  0
    2.9943   -2.9630    4.4326 H   0  0  0  0  0  0  0  0  0  0  0  0
    4.4150   -1.9427    4.0218 H   0  0  0  0  0  0  0  0  0  0  0  0
    2.6807   -2.3520   -1.4470 H   0  0  0  0  0  0  0  0  0  0  0  0
    3.0571   -0.5688   -1.4633 H   0  0  0  0  0  0  0  0  0  0  0  0
    1.0038   -0.3617   -2.5316 H   0  0  0  0  0  0  0  0  0  0  0  0
    0.4845   -1.9544   -1.9780 H   0  0  0  0  0  0  0  0  0  0  0  0
   -0.5356   -1.2587   -0.1526 H   0  0  0  0  0  0  0  0  0  0  0  0
   -2.5982    0.5304   -1.6186 H   0  0  0  0  0  0  0  0  0  0  0  0
   -2.4220    1.4441   -0.0812 H   0  0  0  0  0  0  0  0  0  0  0  0
   -2.9877   -1.6770   -1.6832 H   0  0  0  0  0  0  0  0  0  0  0  0
   -3.4414   -3.8328    2.0036 H   0  0  0  0  0  0  0  0  0  0  0  0
   -2.6079   -1.8536    3.2395 H   0  0  0  0  0  0  0  0  0  0  0  0
   -2.7711    1.1361    2.4230 H   0  0  0  0  0  0  0  0  0  0  0  0
   -1.4610    0.2417    3.2314 H   0  0  0  0  0  0  0  0  0  0  0  0
   -1.1649    1.1310    1.6474 H   0  0  0  0  0  0  0  0  0  0  0  0
    1.9408    1.4763   -1.3645 H   0  0  0  0  0  0  0  0  0  0  0  0
    2.5564    3.5641   -2.3992 H   0  0  0  0  0  0  0  0  0  0  0  0
   -2.1823    2.7799   -1.5279 H   0  0  0  0  0  0  0  0  0  0  0  0
    0.6940   -0.5771    1.6227 H   0  0  0  0  0  0  0  0  0  0  0  0
    1.5992    0.6585    0.7692 H   0  0  0  0  0  0  0  0  0  0  0  0
  1  2  1  0
  2  3  1  0
  3  4  2  0
  3  5  1  0
  5  6  1  0
  6  7  1  0
  7  8  1  0
  8  9  1  0
  9 10  1  0
 10 11  1  0
 11 12  2  0
 12 13  1  0
 13 14  1  0
 13 15  2  0
 15 16  1  0
 16 17  2  0
 17 18  1  0
  9 19  1  0
 19 20  2  0
 20 21  1  0
 21 22  2  0
 22 23  1  0
 23 24  3  0
 22 25  1  0
 25 26  1  0
 25 27  2  0
  8 28  1  0
 28  5  1  0
 17 11  1  0
 27 19  1  0
  1 29  1  0
  1 30  1  0
  1 31  1  0
  6 32  1  0
  6 33  1  0
  7 34  1  0
  7 35  1  0
  8 36  1  1
 10 37  1  0
 10 38  1  0
 12 39  1  0
 15 40  1  0
 16 41  1  0
 18 42  1  0
 18 43  1  0
 18 44  1  0
 20 45  1  0
 21 46  1  0
 27 47  1  0
 28 48  1  0
 28 49  1  0
M  END
$$$$
