
     RDKit          3D

 74 76  0  0  0  0  0  0  0  0999 V2000
    6.1704    1.7109    0.3626 C   0  0  1  0  0  0  0  0  0  0  0  0
    6.1237    1.6974    1.8552 C   0  0  0  0  0  0  0  0  0  0  0  0
    7.4421    1.5058   -0.1110 O   0  0  0  0  0  0  0  0  0  0  0  0
    5.1861    0.7280   -0.2764 C   0  0  1  0  0  0  0  0  0  0  0  0
    3.9718    1.0142    0.2555 O   0  0  0  0  0  0  0  0  0  0  0  0
    2.8520    0.6016   -0.4219 C   0  0  2  0  0  0  0  0  0  0  0  0
    2.4662   -0.7065   -0.1854 O   0  0  0  0  0  0  0  0  0  0  0  0
    1.2177   -0.8265    0.4245 C   0  0  2  0  0  0  0  0  0  0  0  0
    1.3934   -1.5672    1.7089 C   0  0  1  0  0  0  0  0  0  0  0  0
    2.0154   -0.6480    2.6589 N   0  0  0  0  0  0  0  0  0  0  0  0
    0.1201   -2.0418    2.3428 C   0  0  0  0  0  0  0  0  0  0  0  0
   -0.8433   -2.6348    1.3292 C   0  0  1  0  0  0  0  0  0  0  0  0
   -2.0342   -3.0683    1.9865 N   0  0  0  0  0  0  0  0  0  0  0  0
   -1.1040   -1.5308    0.3124 C   0  0  2  0  0  0  0  0  0  0  0  0
   -2.2115   -1.7494   -0.4670 O   0  0  0  0  0  0  0  0  0  0  0  0
   -3.0920   -0.6817   -0.3049 C   0  0  1  0  0  0  0  0  0  0  0  0
   -3.2770   -0.1108   -1.5487 O   0  0  0  0  0  0  0  0  0  0  0  0
   -4.0640    1.0375   -1.5281 C   0  0  0  0  0  0  0  0  0  0  0  0
   -5.4429    0.7444   -0.9678 C   0  0  2  0  0  0  0  0  0  0  0  0
   -6.2230   -0.1651   -1.9052 C   0  0  0  0  0  0  0  0  0  0  0  0
   -6.1653    1.9136   -0.8587 O   0  0  0  0  0  0  0  0  0  0  0  0
   -5.2711    0.1424    0.3889 C   0  0  2  0  0  0  0  0  0  0  0  0
   -4.5853    1.0661    1.2473 N   0  0  0  0  0  0  0  0  0  0  0  0
   -5.2721    2.3054    1.4452 C   0  0  0  0  0  0  0  0  0  0  0  0
   -4.4345   -1.1106    0.2344 C   0  0  1  0  0  0  0  0  0  0  0  0
   -5.0152   -1.9702   -0.6831 O   0  0  0  0  0  0  0  0  0  0  0  0
    0.1962   -1.4644   -0.4914 C   0  0  1  0  0  0  0  0  0  0  0  0
   -0.0044   -0.6708   -1.5937 O   0  0  0  0  0  0  0  0  0  0  0  0
    2.8988    0.8465   -1.9137 C   0  0  2  0  0  0  0  0  0  0  0  0
    3.0967   -0.4039   -2.6314 N   0  0  0  0  0  0  0  0  0  0  0  0
    4.1163    1.7077   -2.2411 C   0  0  1  0  0  0  0  0  0  0  0  0
    3.9701    2.9293   -1.6258 O   0  0  0  0  0  0  0  0  0  0  0  0
    5.3014    0.9294   -1.7620 C   0  0  2  0  0  0  0  0  0  0  0  0
    5.3644   -0.2694   -2.4660 O   0  0  0  0  0  0  0  0  0  0  0  0
    5.8494    2.7280   -0.0093 H   0  0  0  0  0  0  0  0  0  0  0  0
    6.4130    2.7337    2.1966 H   0  0  0  0  0  0  0  0  0  0  0  0
    6.9193    1.0312    2.2405 H   0  0  0  0  0  0  0  0  0  0  0  0
    5.1208    1.4791    2.2469 H   0  0  0  0  0  0  0  0  0  0  0  0
    7.9484    0.8523    0.4478 H   0  0  0  0  0  0  0  0  0  0  0  0
    5.5877   -0.2837   -0.0346 H   0  0  0  0  0  0  0  0  0  0  0  0
    2.0289    1.2589   -0.0476 H   0  0  0  0  0  0  0  0  0  0  0  0
    0.8485    0.2318    0.5637 H   0  0  0  0  0  0  0  0  0  0  0  0
    2.0734   -2.4114    1.5450 H   0  0  0  0  0  0  0  0  0  0  0  0
    1.7597   -0.9676    3.6338 H   0  0  0  0  0  0  0  0  0  0  0  0
    3.0429   -0.7034    2.5192 H   0  0  0  0  0  0  0  0  0  0  0  0
   -0.4079   -1.2447    2.9089 H   0  0  0  0  0  0  0  0  0  0  0  0
    0.3703   -2.8326    3.0799 H   0  0  0  0  0  0  0  0  0  0  0  0
   -0.3170   -3.4457    0.8213 H   0  0  0  0  0  0  0  0  0  0  0  0
   -2.6818   -3.4221    1.2212 H   0  0  0  0  0  0  0  0  0  0  0  0
   -1.7925   -3.9308    2.5247 H   0  0  0  0  0  0  0  0  0  0  0  0
   -1.1423   -0.5721    0.8936 H   0  0  0  0  0  0  0  0  0  0  0  0
   -2.6305    0.0460    0.4212 H   0  0  0  0  0  0  0  0  0  0  0  0
   -4.2073    1.3367   -2.5848 H   0  0  0  0  0  0  0  0  0  0  0  0
   -3.6204    1.8749   -0.9598 H   0  0  0  0  0  0  0  0  0  0  0  0
   -6.9196   -0.7817   -1.3274 H   0  0  0  0  0  0  0  0  0  0  0  0
   -6.8817    0.4589   -2.5772 H   0  0  0  0  0  0  0  0  0  0  0  0
   -5.5391   -0.7037   -2.5727 H   0  0  0  0  0  0  0  0  0  0  0  0
   -7.1490    1.7681   -0.8652 H   0  0  0  0  0  0  0  0  0  0  0  0
   -6.2480   -0.0925    0.8758 H   0  0  0  0  0  0  0  0  0  0  0  0
   -4.4057    0.6199    2.1939 H   0  0  0  0  0  0  0  0  0  0  0  0
   -6.3804    2.1466    1.4490 H   0  0  0  0  0  0  0  0  0  0  0  0
   -4.9752    3.1129    0.7443 H   0  0  0  0  0  0  0  0  0  0  0  0
   -5.0003    2.7034    2.4663 H   0  0  0  0  0  0  0  0  0  0  0  0
   -4.3562   -1.5523    1.2501 H   0  0  0  0  0  0  0  0  0  0  0  0
   -5.1007   -2.8925   -0.3463 H   0  0  0  0  0  0  0  0  0  0  0  0
    0.4606   -2.5170   -0.7115 H   0  0  0  0  0  0  0  0  0  0  0  0
   -0.0777   -1.2889   -2.3810 H   0  0  0  0  0  0  0  0  0  0  0  0
    2.0213    1.3986   -2.3040 H   0  0  0  0  0  0  0  0  0  0  0  0
    2.2694   -0.5396   -3.2524 H   0  0  0  0  0  0  0  0  0  0  0  0
    3.1418   -1.2369   -1.9931 H   0  0  0  0  0  0  0  0  0  0  0  0
    4.1543    1.8895   -3.3268 H   0  0  0  0  0  0  0  0  0  0  0  0
    3.0516    3.0285   -1.2554 H   0  0  0  0  0  0  0  0  0  0  0  0
    6.2047    1.5061   -2.0497 H   0  0  0  0  0  0  0  0  0  0  0  0
    5.7046   -0.0463   -3.3723 H   0  0  0  0  0  0  0  0  0  0  0  0
  1  2  1  0
  1  3  1  0
  1  4  1  0
  4  5  1  0
  5  6  1  0
  6  7  1  0
  7  8  1  0
  8  9  1  0
  9 10  1  0
  9 11  1  0
 11 12  1  0
 12 13  1  0
 12 14  1  0
 14 15  1  0
 15 16  1  0
 16 17  1  0
 17 18  1  0
 18 19  1  0
 19 20  1  0
 19 21  1  1
 19 22  1  0
 22 23  1  0
 23 24  1  0
 22 25  1  0
 25 26  1  0
 14 27  1  0
 27 28  1  0
  6 29  1  0
 29 30  1  0
 29 31  1  0
 31 32  1  0
 31 33  1  0
 33 34  1  0
 33  4  1  0
 27  8  1  0
 25 16  1  0
  1 35  1  6
  2 36  1  0
  2 37  1  0
  2 38  1  0
  3 39  1  0
  4 40  1  6
  6 41  1  1
  8 42  1  1
  9 43  1  6
 10 44  1  0
 10 45  1  0
 11 46  1  0
 11 47  1  0
 12 48  1  6
 13 49  1  0
 13 50  1  0
 14 51  1  1
 16 52  1  1
 18 53  1  0
 18 54  1  0
 20 55  1  0
 20 56  1  0
 20 57  1  0
 21 58  1  0
 22 59  1  1
 23 60  1  0
 24 61  1  0
 24 62  1  0
 24 63  1  0
 25 64  1  1
 26 65  1  0
 27 66  1  6
 28 67  1  0
 29 68  1  6
 30 69  1  0
 30 70  1  0
 31 71  1  6
 32 72  1  0
 33 73  1  1
 34 74  1  0
M  END
$$$$
