
     RDKit          3D

 79 81  0  0  0  0  0  0  0  0999 V2000
   -4.9487   -1.5753   -1.0073 C   0  0  0  0  0  0  0  0  0  0  0  0
   -5.0273   -0.1158   -1.0135 N   0  0  0  0  0  0  0  0  0  0  0  0
   -3.8390    0.4812   -1.6475 C   0  0  1  0  0  0  0  0  0  0  0  0
   -4.1587    1.9693   -1.6178 C   0  0  2  0  0  0  0  0  0  0  0  0
   -3.0130    2.7332   -1.8116 O   0  0  0  0  0  0  0  0  0  0  0  0
   -4.5795    2.2175   -0.1671 C   0  0  1  0  0  0  0  0  0  0  0  0
   -5.8395    1.6796   -0.0052 O   0  0  0  0  0  0  0  0  0  0  0  0
   -3.6338    1.4662    0.7514 C   0  0  2  0  0  0  0  0  0  0  0  0
   -3.3188    2.3754    1.9135 C   0  0  0  0  0  0  0  0  0  0  0  0
   -4.4103    2.7301    2.6726 O   0  0  0  0  0  0  0  0  0  0  0  0
   -2.4376    1.2050    0.0928 O   0  0  0  0  0  0  0  0  0  0  0  0
   -2.5854    0.2647   -0.9084 C   0  0  1  0  0  0  0  0  0  0  0  0
   -2.2520   -1.0066   -0.5016 O   0  0  0  0  0  0  0  0  0  0  0  0
   -1.0739   -1.5159   -0.9406 C   0  0  1  0  0  0  0  0  0  0  0  0
   -0.1783   -1.5607    0.3244 C   0  0  2  0  0  0  0  0  0  0  0  0
    1.1446   -1.5917    0.0984 O   0  0  0  0  0  0  0  0  0  0  0  0
    1.9145   -0.5450    0.4571 C   0  0  1  0  0  0  0  0  0  0  0  0
    2.8581   -1.0248    1.5410 C   0  0  2  0  0  0  0  0  0  0  0  0
    2.9134   -0.1639    2.6315 O   0  0  0  0  0  0  0  0  0  0  0  0
    4.2409   -1.3592    1.0182 C   0  0  1  0  0  0  0  0  0  0  0  0
    4.1145   -2.2999   -0.0016 O   0  0  0  0  0  0  0  0  0  0  0  0
    4.9802   -0.1692    0.4721 C   0  0  2  0  0  0  0  0  0  0  0  0
    5.7753    0.4868    1.5042 N   0  0  0  0  0  0  0  0  0  0  0  0
    6.5787    1.6457    1.2944 C   0  0  0  0  0  0  0  0  0  0  0  0
    6.7457    2.5435    2.3784 N   0  0  0  0  0  0  0  0  0  0  0  0
    7.0806    1.7465    0.0979 N   0  0  0  0  0  0  0  0  0  0  0  0
    3.9647    0.8090   -0.0462 C   0  0  1  0  0  0  0  0  0  0  0  0
    4.5485    1.4713   -1.1499 O   0  0  0  0  0  0  0  0  0  0  0  0
    2.7489    0.1041   -0.6104 C   0  0  2  0  0  0  0  0  0  0  0  0
    2.0227    1.1039   -1.3821 N   0  0  0  0  0  0  0  0  0  0  0  0
    1.4185    2.2644   -0.8340 C   0  0  0  0  0  0  0  0  0  0  0  0
    0.6510    3.1680   -1.6304 N   0  0  0  0  0  0  0  0  0  0  0  0
    1.5691    2.5094    0.4248 N   0  0  0  0  0  0  0  0  0  0  0  0
   -0.7627   -2.5581    1.0423 O   0  0  0  0  0  0  0  0  0  0  0  0
   -0.9269   -3.6124    0.1503 C   0  0  1  0  0  0  0  0  0  0  0  0
   -2.0980   -4.4752    0.4768 C   0  0  0  0  0  0  0  0  0  0  0  0
   -1.0550   -3.0004   -1.2227 C   0  0  1  0  0  0  0  0  0  0  0  0
   -2.1695   -3.3900   -1.9218 O   0  0  0  0  0  0  0  0  0  0  0  0
    0.1668   -3.4098   -1.9668 C   0  0  0  0  0  0  0  0  0  0  0  0
   -0.7636   -3.8077   -2.6734 O   0  0  0  0  0  0  0  0  0  0  0  0
   -5.9727   -2.0223   -0.9900 H   0  0  0  0  0  0  0  0  0  0  0  0
   -4.3543   -1.9304   -0.1506 H   0  0  0  0  0  0  0  0  0  0  0  0
   -4.4128   -1.8406   -1.9371 H   0  0  0  0  0  0  0  0  0  0  0  0
   -5.8768    0.0514   -1.6387 H   0  0  0  0  0  0  0  0  0  0  0  0
   -3.7909    0.1562   -2.7206 H   0  0  0  0  0  0  0  0  0  0  0  0
   -4.9529    2.1620   -2.3403 H   0  0  0  0  0  0  0  0  0  0  0  0
   -3.1709    3.5800   -2.3015 H   0  0  0  0  0  0  0  0  0  0  0  0
   -4.6088    3.2754    0.1094 H   0  0  0  0  0  0  0  0  0  0  0  0
   -6.4811    2.3396    0.3733 H   0  0  0  0  0  0  0  0  0  0  0  0
   -4.0427    0.5323    1.1556 H   0  0  0  0  0  0  0  0  0  0  0  0
   -2.8108    3.2961    1.5588 H   0  0  0  0  0  0  0  0  0  0  0  0
   -2.5903    1.8972    2.6209 H   0  0  0  0  0  0  0  0  0  0  0  0
   -5.0770    2.0242    2.7822 H   0  0  0  0  0  0  0  0  0  0  0  0
   -1.6734    0.5024   -1.5690 H   0  0  0  0  0  0  0  0  0  0  0  0
   -0.4786   -0.8988   -1.6304 H   0  0  0  0  0  0  0  0  0  0  0  0
   -0.3910   -0.5912    0.8276 H   0  0  0  0  0  0  0  0  0  0  0  0
    1.2280    0.2175    0.9259 H   0  0  0  0  0  0  0  0  0  0  0  0
    2.4857   -1.9994    1.9775 H   0  0  0  0  0  0  0  0  0  0  0  0
    3.3819   -0.6703    3.3415 H   0  0  0  0  0  0  0  0  0  0  0  0
    4.7890   -1.8477    1.8556 H   0  0  0  0  0  0  0  0  0  0  0  0
    3.7735   -3.1764    0.3353 H   0  0  0  0  0  0  0  0  0  0  0  0
    5.6988   -0.4734   -0.3143 H   0  0  0  0  0  0  0  0  0  0  0  0
    5.7365    0.0504    2.4772 H   0  0  0  0  0  0  0  0  0  0  0  0
    6.3363    3.3997    2.8416 H   0  0  0  0  0  0  0  0  0  0  0  0
    7.4550    2.5905    3.1409 H   0  0  0  0  0  0  0  0  0  0  0  0
    7.6860    2.5613   -0.1592 H   0  0  0  0  0  0  0  0  0  0  0  0
    3.7379    1.5975    0.6828 H   0  0  0  0  0  0  0  0  0  0  0  0
    3.8539    1.7562   -1.8103 H   0  0  0  0  0  0  0  0  0  0  0  0
    3.1657   -0.6409   -1.3234 H   0  0  0  0  0  0  0  0  0  0  0  0
    1.9102    0.9996   -2.4331 H   0  0  0  0  0  0  0  0  0  0  0  0
    1.1400    4.0955   -1.5806 H   0  0  0  0  0  0  0  0  0  0  0  0
   -0.1842    3.3190   -2.2412 H   0  0  0  0  0  0  0  0  0  0  0  0
    1.1531    3.3442    0.8949 H   0  0  0  0  0  0  0  0  0  0  0  0
   -0.0082   -4.2443    0.2646 H   0  0  0  0  0  0  0  0  0  0  0  0
   -2.2950   -5.2091   -0.3135 H   0  0  0  0  0  0  0  0  0  0  0  0
   -1.9711   -4.9759    1.4762 H   0  0  0  0  0  0  0  0  0  0  0  0
   -3.0049   -3.8483    0.6027 H   0  0  0  0  0  0  0  0  0  0  0  0
   -2.9415   -3.6353   -1.3933 H   0  0  0  0  0  0  0  0  0  0  0  0
    1.1932   -3.5370   -2.2035 H   0  0  0  0  0  0  0  0  0  0  0  0
  1  2  1  0
  2  3  1  0
  3  4  1  0
  4  5  1  0
  4  6  1  0
  6  7  1  0
  6  8  1  0
  8  9  1  0
  9 10  1  0
  8 11  1  0
 11 12  1  0
 12 13  1  0
 13 14  1  0
 14 15  1  0
 15 16  1  0
 16 17  1  0
 17 18  1  0
 18 19  1  0
 18 20  1  0
 20 21  1  0
 20 22  1  0
 22 23  1  0
 23 24  1  0
 24 25  1  0
 24 26  2  3
 22 27  1  0
 27 28  1  0
 27 29  1  0
 29 30  1  0
 30 31  1  0
 31 32  1  0
 31 33  2  3
 15 34  1  0
 34 35  1  0
 35 36  1  0
 35 37  1  0
 37 38  1  6
 37 39  1  0
 39 40  2  0
 12  3  1  0
 37 14  1  0
 29 17  1  0
  1 41  1  0
  1 42  1  0
  1 43  1  0
  2 44  1  0
  3 45  1  6
  4 46  1  6
  5 47  1  0
  6 48  1  1
  7 49  1  0
  8 50  1  1
  9 51  1  0
  9 52  1  0
 10 53  1  0
 12 54  1  6
 14 55  1  6
 15 56  1  1
 17 57  1  1
 18 58  1  1
 19 59  1  0
 20 60  1  1
 21 61  1  0
 22 62  1  6
 23 63  1  0
 25 64  1  0
 25 65  1  0
 26 66  1  0
 27 67  1  1
 28 68  1  0
 29 69  1  6
 30 70  1  0
 32 71  1  0
 32 72  1  0
 33 73  1  0
 35 74  1  6
 36 75  1  0
 36 76  1  0
 36 77  1  0
 38 78  1  0
 39 79  1  0
M  END
$$$$
