
     RDKit          3D

 59 64  0  0  0  0  0  0  0  0999 V2000
   -8.6872    1.8847    1.4951 C   0  0  0  0  0  0  0  0  0  0  0  0
   -7.7762    0.8964    1.8155 C   0  0  0  0  0  0  0  0  0  0  0  0
   -7.0114    0.2552    0.8543 C   0  0  0  0  0  0  0  0  0  0  0  0
   -7.1817    0.6299   -0.4442 C   0  0  0  0  0  0  0  0  0  0  0  0
   -6.4430    0.0224   -1.4432 C   0  0  0  0  0  0  0  0  0  0  0  0
   -5.4711   -1.0246   -1.1377 C   0  0  0  0  0  0  0  0  0  0  0  0
   -5.6399   -2.3919   -1.0732 C   0  0  0  0  0  0  0  0  0  0  0  0
   -4.4535   -2.9360   -0.7562 N   0  0  0  0  0  0  0  0  0  0  0  0
   -3.5143   -2.0137   -0.6080 N   0  0  0  0  0  0  0  0  0  0  0  0
   -2.1891   -2.0846   -0.2938 C   0  0  0  0  0  0  0  0  0  0  0  0
   -1.4284   -0.9433   -0.2026 C   0  0  0  0  0  0  0  0  0  0  0  0
    0.0091   -0.9874    0.1386 C   0  0  0  0  0  0  0  0  0  0  0  0
    0.8182   -2.0393   -0.2231 C   0  0  0  0  0  0  0  0  0  0  0  0
    2.1457   -1.9787    0.1473 C   0  0  0  0  0  0  0  0  0  0  0  0
    2.6800   -0.9132    0.8581 C   0  0  0  0  0  0  0  0  0  0  0  0
    4.0243   -0.8960    1.2092 O   0  0  0  0  0  0  0  0  0  0  0  0
    4.5271    0.2100    1.9341 C   0  0  0  0  0  0  0  0  0  0  0  0
    6.0037   -0.0381    2.1737 C   0  0  0  0  0  0  0  0  0  0  0  0
    6.7214   -0.1692    0.9100 N   0  0  0  0  0  0  0  0  0  0  0  0
    8.1129   -0.3944    1.2441 C   0  0  0  0  0  0  0  0  0  0  0  0
    9.0518   -0.1475    0.1100 C   0  0  0  0  0  0  0  0  0  0  0  0
    8.8802    1.2274   -0.3449 N   0  0  0  0  0  0  0  0  0  0  0  0
    7.5326    1.2830   -0.9156 C   0  0  0  0  0  0  0  0  0  0  0  0
    6.5156    1.0401    0.1723 C   0  0  0  0  0  0  0  0  0  0  0  0
    1.8669    0.1141    1.2056 N   0  0  0  0  0  0  0  0  0  0  0  0
    0.5945    0.0501    0.8474 C   0  0  0  0  0  0  0  0  0  0  0  0
   -2.0654    0.2552   -0.4417 C   0  0  0  0  0  0  0  0  0  0  0  0
   -3.3740    0.2798   -0.7485 N   0  0  0  0  0  0  0  0  0  0  0  0
   -4.1209   -0.8390   -0.8381 C   0  0  0  0  0  0  0  0  0  0  0  0
   -6.6754    0.4598   -2.7292 C   0  0  0  0  0  0  0  0  0  0  0  0
   -7.5811    1.4417   -3.0439 C   0  0  0  0  0  0  0  0  0  0  0  0
   -8.2930    2.0226   -2.0513 N   0  0  0  0  0  0  0  0  0  0  0  0
   -8.1002    1.6273   -0.7740 C   0  0  0  0  0  0  0  0  0  0  0  0
   -8.8601    2.2640    0.1831 C   0  0  0  0  0  0  0  0  0  0  0  0
   -9.2811    2.3787    2.2664 H   0  0  0  0  0  0  0  0  0  0  0  0
   -7.6394    0.5955    2.8575 H   0  0  0  0  0  0  0  0  0  0  0  0
   -6.2934   -0.5233    1.1023 H   0  0  0  0  0  0  0  0  0  0  0  0
   -6.5841   -2.9206   -1.2525 H   0  0  0  0  0  0  0  0  0  0  0  0
   -1.7498   -3.0387   -0.1196 H   0  0  0  0  0  0  0  0  0  0  0  0
    0.4068   -2.8606   -0.7707 H   0  0  0  0  0  0  0  0  0  0  0  0
    2.8079   -2.7976   -0.1260 H   0  0  0  0  0  0  0  0  0  0  0  0
    4.3206    1.1625    1.4365 H   0  0  0  0  0  0  0  0  0  0  0  0
    4.0616    0.2782    2.9508 H   0  0  0  0  0  0  0  0  0  0  0  0
    6.4148    0.7817    2.7910 H   0  0  0  0  0  0  0  0  0  0  0  0
    6.0726   -0.9957    2.7288 H   0  0  0  0  0  0  0  0  0  0  0  0
    8.4232    0.1888    2.1364 H   0  0  0  0  0  0  0  0  0  0  0  0
    8.2091   -1.4710    1.5537 H   0  0  0  0  0  0  0  0  0  0  0  0
   10.0744   -0.2562    0.4690 H   0  0  0  0  0  0  0  0  0  0  0  0
    8.8894   -0.8392   -0.7235 H   0  0  0  0  0  0  0  0  0  0  0  0
    9.5336    1.4565   -1.1232 H   0  0  0  0  0  0  0  0  0  0  0  0
    7.3488    2.3280   -1.2821 H   0  0  0  0  0  0  0  0  0  0  0  0
    7.4027    0.5970   -1.7533 H   0  0  0  0  0  0  0  0  0  0  0  0
    6.4801    1.9399    0.8518 H   0  0  0  0  0  0  0  0  0  0  0  0
    5.5251    0.9319   -0.3590 H   0  0  0  0  0  0  0  0  0  0  0  0
   -0.0862    0.8707    1.1167 H   0  0  0  0  0  0  0  0  0  0  0  0
   -1.4875    1.1785   -0.3766 H   0  0  0  0  0  0  0  0  0  0  0  0
   -6.1167    0.0078   -3.5344 H   0  0  0  0  0  0  0  0  0  0  0  0
   -7.7696    1.7917   -4.0553 H   0  0  0  0  0  0  0  0  0  0  0  0
   -9.5813    3.0488   -0.0900 H   0  0  0  0  0  0  0  0  0  0  0  0
  1  2  2  0
  2  3  1  0
  3  4  2  0
  4  5  1  0
  5  6  1  0
  6  7  1  0
  7  8  2  0
  8  9  1  0
  9 10  1  0
 10 11  2  0
 11 12  1  0
 12 13  2  0
 13 14  1  0
 14 15  2  0
 15 16  1  0
 16 17  1  0
 17 18  1  0
 18 19  1  0
 19 20  1  0
 20 21  1  0
 21 22  1  0
 22 23  1  0
 23 24  1  0
 15 25  1  0
 25 26  2  0
 11 27  1  0
 27 28  2  0
 28 29  1  0
  5 30  2  0
 30 31  1  0
 31 32  2  0
 32 33  1  0
 33 34  2  0
 34  1  1  0
 33  4  1  0
 29  6  2  0
 29  9  1  0
 26 12  1  0
 24 19  1  0
  1 35  1  0
  2 36  1  0
  3 37  1  0
  7 38  1  0
 10 39  1  0
 13 40  1  0
 14 41  1  0
 17 42  1  0
 17 43  1  0
 18 44  1  0
 18 45  1  0
 20 46  1  0
 20 47  1  0
 21 48  1  0
 21 49  1  0
 22 50  1  0
 23 51  1  0
 23 52  1  0
 24 53  1  0
 24 54  1  0
 26 55  1  0
 27 56  1  0
 30 57  1  0
 31 58  1  0
 34 59  1  0
M  END
$$$$
