
     RDKit          3D

 44 45  0  0  0  0  0  0  0  0999 V2000
    4.7278    2.4968   -0.2223 C   0  0  0  0  0  0  0  0  0  0  0  0
    4.2566    1.4965   -1.2094 C   0  0  0  0  0  0  0  0  0  0  0  0
    4.2604    1.8216   -2.4220 O   0  0  0  0  0  0  0  0  0  0  0  0
    3.8179    0.2129   -0.7711 N   0  0  0  0  0  0  0  0  0  0  0  0
    3.8233   -0.1380    0.6362 C   0  0  0  0  0  0  0  0  0  0  0  0
    2.4498   -0.6659    1.0965 C   0  0  0  0  0  0  0  0  0  0  0  0
    1.5686   -0.6589   -0.1205 C   0  0  0  0  0  0  0  0  0  0  0  0
    0.1425   -0.5849    0.0118 C   0  0  0  0  0  0  0  0  0  0  0  0
   -0.5340    0.6149   -0.2763 C   0  0  0  0  0  0  0  0  0  0  0  0
   -1.8901    0.7939   -0.1880 C   0  0  0  0  0  0  0  0  0  0  0  0
   -2.6635   -0.2319    0.1997 C   0  0  0  0  0  0  0  0  0  0  0  0
   -4.1351   -0.1033    0.3149 C   0  0  0  0  0  0  0  0  0  0  0  0
   -4.8055   -1.1140    0.6875 O   0  0  0  0  0  0  0  0  0  0  0  0
   -4.8355    1.0800    0.0339 N   0  0  0  0  0  0  0  0  0  0  0  0
   -6.2406    1.2622    0.1262 C   0  0  0  0  0  0  0  0  0  0  0  0
   -6.9894    0.3278    0.4840 N   0  0  0  0  0  0  0  0  0  0  0  0
   -6.8007    2.5747   -0.2081 N   0  0  0  0  0  0  0  0  0  0  0  0
   -2.0564   -1.4322    0.4954 C   0  0  0  0  0  0  0  0  0  0  0  0
   -0.6615   -1.6273    0.4079 C   0  0  0  0  0  0  0  0  0  0  0  0
   -0.0942   -2.9248    0.7478 C   0  0  0  0  0  0  0  0  0  0  0  0
    0.5769   -3.6099   -0.1982 F   0  0  0  0  0  0  0  0  0  0  0  0
   -1.1996   -3.8010    0.9633 F   0  0  0  0  0  0  0  0  0  0  0  0
    0.4674   -2.9713    2.0147 F   0  0  0  0  0  0  0  0  0  0  0  0
    2.1885   -1.5299   -1.1721 C   0  0  0  0  0  0  0  0  0  0  0  0
    3.3638   -0.7301   -1.8086 C   0  0  0  0  0  0  0  0  0  0  0  0
    5.5146    2.0532    0.4560 H   0  0  0  0  0  0  0  0  0  0  0  0
    3.9040    2.8461    0.4454 H   0  0  0  0  0  0  0  0  0  0  0  0
    5.1557    3.3761   -0.7039 H   0  0  0  0  0  0  0  0  0  0  0  0
    4.1208    0.7647    1.2025 H   0  0  0  0  0  0  0  0  0  0  0  0
    4.6338   -0.8631    0.7691 H   0  0  0  0  0  0  0  0  0  0  0  0
    2.1071    0.0439    1.8698 H   0  0  0  0  0  0  0  0  0  0  0  0
    2.6947   -1.6669    1.4901 H   0  0  0  0  0  0  0  0  0  0  0  0
    1.8546    0.3976   -0.5273 H   0  0  0  0  0  0  0  0  0  0  0  0
    0.0359    1.4764   -0.5931 H   0  0  0  0  0  0  0  0  0  0  0  0
   -2.3491    1.7660   -0.4307 H   0  0  0  0  0  0  0  0  0  0  0  0
   -4.2819    1.9267   -0.2773 H   0  0  0  0  0  0  0  0  0  0  0  0
   -6.8375   -0.5985    0.7453 H   0  0  0  0  0  0  0  0  0  0  0  0
   -6.2636    3.2638   -0.7732 H   0  0  0  0  0  0  0  0  0  0  0  0
   -7.7398    2.7902    0.1341 H   0  0  0  0  0  0  0  0  0  0  0  0
   -2.6797   -2.2636    0.8098 H   0  0  0  0  0  0  0  0  0  0  0  0
    2.7729   -2.3955   -0.7316 H   0  0  0  0  0  0  0  0  0  0  0  0
    1.5195   -1.8811   -1.9564 H   0  0  0  0  0  0  0  0  0  0  0  0
    4.1728   -1.3747   -2.1369 H   0  0  0  0  0  0  0  0  0  0  0  0
    2.9279   -0.2189   -2.6640 H   0  0  0  0  0  0  0  0  0  0  0  0
  1  2  1  0
  2  3  2  0
  2  4  1  0
  4  5  1  0
  5  6  1  0
  6  7  1  0
  7  8  1  0
  8  9  2  0
  9 10  1  0
 10 11  2  0
 11 12  1  0
 12 13  2  0
 12 14  1  0
 14 15  1  0
 15 16  2  3
 15 17  1  0
 11 18  1  0
 18 19  2  0
 19 20  1  0
 20 21  1  0
 20 22  1  0
 20 23  1  0
  7 24  1  0
 24 25  1  0
 25  4  1  0
 19  8  1  0
  1 26  1  0
  1 27  1  0
  1 28  1  0
  5 29  1  0
  5 30  1  0
  6 31  1  0
  6 32  1  0
  7 33  1  0
  9 34  1  0
 10 35  1  0
 14 36  1  0
 16 37  1  0
 17 38  1  0
 17 39  1  0
 18 40  1  0
 24 41  1  0
 24 42  1  0
 25 43  1  0
 25 44  1  0
M  END
$$$$
