
     RDKit          3D

 72 76  0  0  0  0  0  0  0  0999 V2000
    6.5713   -0.0235   -2.9161 C   0  0  0  0  0  0  0  0  0  0  0  0
    6.3923   -0.1782   -1.4628 C   0  0  0  0  0  0  0  0  0  0  0  0
    7.3224   -0.8791   -0.8309 N   0  0  0  0  0  0  0  0  0  0  0  0
    7.2525   -1.0898    0.4668 C   0  0  0  0  0  0  0  0  0  0  0  0
    8.2571   -1.8450    1.1542 N   0  0  0  0  0  0  0  0  0  0  0  0
    6.2026   -0.5739    1.1636 C   0  0  0  0  0  0  0  0  0  0  0  0
    5.1345    0.2018    0.5889 C   0  0  0  0  0  0  0  0  0  0  0  0
    5.2791    0.3767   -0.7570 C   0  0  0  0  0  0  0  0  0  0  0  0
    4.4072    1.1233   -1.7001 C   0  0  0  0  0  0  0  0  0  0  0  0
    2.9926    0.7339   -1.5838 N   0  0  0  0  0  0  0  0  0  0  0  0
    2.5250   -0.5731   -1.5655 C   0  0  0  0  0  0  0  0  0  0  0  0
    3.6074   -1.3129   -1.7260 O   0  0  0  0  0  0  0  0  0  0  0  0
    1.2389   -1.2939   -1.4135 C   0  0  0  0  0  0  0  0  0  0  0  0
    1.2061   -2.5387   -0.7034 C   0  0  0  0  0  0  0  0  0  0  0  0
   -0.0465   -2.8890   -0.6905 N   0  0  0  0  0  0  0  0  0  0  0  0
   -0.8367   -1.9662   -1.3400 N   0  0  0  0  0  0  0  0  0  0  0  0
   -0.0486   -1.0024   -1.7791 C   0  0  0  0  0  0  0  0  0  0  0  0
   -2.2562   -2.2466   -1.3784 C   0  0  0  0  0  0  0  0  0  0  0  0
   -3.1724   -1.1229   -1.1434 C   0  0  0  0  0  0  0  0  0  0  0  0
   -4.0715   -0.8417   -2.2088 C   0  0  0  0  0  0  0  0  0  0  0  0
   -5.0138    0.1345   -2.1831 C   0  0  0  0  0  0  0  0  0  0  0  0
   -5.1448    0.9286   -1.0751 C   0  0  0  0  0  0  0  0  0  0  0  0
   -6.1821    2.0072   -0.9994 C   0  0  0  0  0  0  0  0  0  0  0  0
   -7.2687    1.4683   -0.2147 N   0  0  0  0  0  0  0  0  0  0  0  0
   -8.3373    0.7810   -0.6322 C   0  0  0  0  0  0  0  0  0  0  0  0
   -9.0865    0.4936    0.4870 C   0  0  0  0  0  0  0  0  0  0  0  0
   -8.4248    1.0315    1.5541 C   0  0  0  0  0  0  0  0  0  0  0  0
   -7.3245    1.6159    1.0955 N   0  0  0  0  0  0  0  0  0  0  0  0
   -4.3006    0.6880   -0.0354 C   0  0  0  0  0  0  0  0  0  0  0  0
   -3.3029   -0.3289   -0.0371 C   0  0  0  0  0  0  0  0  0  0  0  0
   -2.5648   -0.4064    1.0844 O   0  0  0  0  0  0  0  0  0  0  0  0
   -1.5811   -1.1213    1.6517 C   0  0  0  0  0  0  0  0  0  0  0  0
   -1.2243   -0.5253    3.0365 C   0  0  0  0  0  0  0  0  0  0  0  0
   -0.8457    0.9414    2.7372 C   0  0  0  0  0  0  0  0  0  0  0  0
   -0.1677    1.0328    1.4567 C   0  0  0  0  0  0  0  0  0  0  0  0
    1.0549    1.4038    1.1467 C   0  0  0  0  0  0  0  0  0  0  0  0
    2.0758    1.8370    2.0883 C   0  0  0  0  0  0  0  0  0  0  0  0
    3.2908    1.0128    2.2430 C   0  0  0  0  0  0  0  0  0  0  0  0
    4.2032    0.6113    1.4245 O   0  0  0  0  0  0  0  0  0  0  0  0
    6.8686    0.9620   -3.2494 H   0  0  0  0  0  0  0  0  0  0  0  0
    5.6707   -0.4520   -3.4616 H   0  0  0  0  0  0  0  0  0  0  0  0
    7.3815   -0.7155   -3.2496 H   0  0  0  0  0  0  0  0  0  0  0  0
    9.0664   -1.3573    1.5483 H   0  0  0  0  0  0  0  0  0  0  0  0
    8.1446   -2.8586    1.2371 H   0  0  0  0  0  0  0  0  0  0  0  0
    6.2456   -0.8117    2.2330 H   0  0  0  0  0  0  0  0  0  0  0  0
    4.6557    1.0213   -2.7621 H   0  0  0  0  0  0  0  0  0  0  0  0
    4.5110    2.2264   -1.5252 H   0  0  0  0  0  0  0  0  0  0  0  0
    2.4501    1.5881   -1.5816 H   0  0  0  0  0  0  0  0  0  0  0  0
    2.0682   -3.0747   -0.2634 H   0  0  0  0  0  0  0  0  0  0  0  0
   -0.3887   -0.0760   -2.3957 H   0  0  0  0  0  0  0  0  0  0  0  0
   -2.5907   -2.9920   -0.5980 H   0  0  0  0  0  0  0  0  0  0  0  0
   -2.5330   -2.8008   -2.3176 H   0  0  0  0  0  0  0  0  0  0  0  0
   -3.9767   -1.4683   -3.1034 H   0  0  0  0  0  0  0  0  0  0  0  0
   -5.6724    0.3101   -3.0181 H   0  0  0  0  0  0  0  0  0  0  0  0
   -6.5575    2.2784   -1.9933 H   0  0  0  0  0  0  0  0  0  0  0  0
   -5.7152    2.8752   -0.5254 H   0  0  0  0  0  0  0  0  0  0  0  0
   -8.5747    0.4980   -1.6721 H   0  0  0  0  0  0  0  0  0  0  0  0
  -10.0333   -0.0671    0.4825 H   0  0  0  0  0  0  0  0  0  0  0  0
   -8.7228    0.9981    2.5859 H   0  0  0  0  0  0  0  0  0  0  0  0
   -4.4299    1.3405    0.8338 H   0  0  0  0  0  0  0  0  0  0  0  0
   -1.7704   -2.2123    1.7959 H   0  0  0  0  0  0  0  0  0  0  0  0
   -0.5566   -1.0700    1.1489 H   0  0  0  0  0  0  0  0  0  0  0  0
   -0.4274   -1.0738    3.5272 H   0  0  0  0  0  0  0  0  0  0  0  0
   -2.1666   -0.5407    3.6140 H   0  0  0  0  0  0  0  0  0  0  0  0
   -1.8458    1.4589    2.6180 H   0  0  0  0  0  0  0  0  0  0  0  0
   -0.3540    1.4199    3.5781 H   0  0  0  0  0  0  0  0  0  0  0  0
   -0.7660    0.7715    0.5242 H   0  0  0  0  0  0  0  0  0  0  0  0
    1.2503    1.4003    0.0620 H   0  0  0  0  0  0  0  0  0  0  0  0
    2.4466    2.8605    1.7324 H   0  0  0  0  0  0  0  0  0  0  0  0
    1.6301    2.1098    3.0862 H   0  0  0  0  0  0  0  0  0  0  0  0
    3.8769    1.6418    3.0815 H   0  0  0  0  0  0  0  0  0  0  0  0
    3.0033    0.1453    3.0243 H   0  0  0  0  0  0  0  0  0  0  0  0
  1  2  1  0
  2  3  2  0
  3  4  1  0
  4  5  1  0
  4  6  2  0
  6  7  1  0
  7  8  2  0
  8  9  1  0
  9 10  1  0
 10 11  1  0
 11 12  2  0
 11 13  1  0
 13 14  1  0
 14 15  2  0
 15 16  1  0
 16 17  1  0
 16 18  1  0
 18 19  1  0
 19 20  2  0
 20 21  1  0
 21 22  2  0
 22 23  1  0
 23 24  1  0
 24 25  1  0
 25 26  2  0
 26 27  1  0
 27 28  2  0
 22 29  1  0
 29 30  2  0
 30 31  1  0
 31 32  1  0
 32 33  1  0
 33 34  1  0
 34 35  1  0
 35 36  2  0
 36 37  1  0
 37 38  1  0
 38 39  1  0
  8  2  1  0
 17 13  2  0
 30 19  1  0
 39  7  1  0
 28 24  1  0
  1 40  1  0
  1 41  1  0
  1 42  1  0
  5 43  1  0
  5 44  1  0
  6 45  1  0
  9 46  1  0
  9 47  1  0
 10 48  1  0
 14 49  1  0
 17 50  1  0
 18 51  1  0
 18 52  1  0
 20 53  1  0
 21 54  1  0
 23 55  1  0
 23 56  1  0
 25 57  1  0
 26 58  1  0
 27 59  1  0
 29 60  1  0
 32 61  1  0
 32 62  1  0
 33 63  1  0
 33 64  1  0
 34 65  1  0
 34 66  1  0
 35 67  1  0
 36 68  1  0
 37 69  1  0
 37 70  1  0
 38 71  1  0
 38 72  1  0
M  END
$$$$
