
     RDKit          3D

 54 58  0  0  0  0  0  0  0  0999 V2000
   -5.6381   -3.2663    1.2674 C   0  0  0  0  0  0  0  0  0  0  0  0
   -4.6099   -2.1923    1.3056 C   0  0  0  0  0  0  0  0  0  0  0  0
   -3.8786   -1.9774    2.4468 C   0  0  0  0  0  0  0  0  0  0  0  0
   -2.9138   -0.9699    2.4735 C   0  0  0  0  0  0  0  0  0  0  0  0
   -2.6837   -0.1839    1.3646 C   0  0  0  0  0  0  0  0  0  0  0  0
   -1.6454    0.8136    1.4157 C   0  0  0  0  0  0  0  0  0  0  0  0
   -2.0058    2.0091    1.6596 O   0  0  0  0  0  0  0  0  0  0  0  0
   -0.2486    0.5035    1.2096 N   0  0  0  0  0  0  0  0  0  0  0  0
    0.0656   -0.8673    0.9518 C   0  0  0  0  0  0  0  0  0  0  0  0
    1.5053   -1.1092    1.4252 C   0  0  0  0  0  0  0  0  0  0  0  0
    1.8242   -0.2909    2.4787 O   0  0  0  0  0  0  0  0  0  0  0  0
    1.8639    1.0397    2.1818 C   0  0  0  0  0  0  0  0  0  0  0  0
    0.7173    1.5250    1.3056 C   0  0  1  0  0  0  0  0  0  0  0  0
    1.1953    2.1994    0.0755 C   0  0  0  0  0  0  0  0  0  0  0  0
    1.8462    1.3588   -0.9520 C   0  0  0  0  0  0  0  0  0  0  0  0
    3.2421    1.2855   -1.0192 C   0  0  0  0  0  0  0  0  0  0  0  0
    3.9285    0.5205   -1.9228 C   0  0  0  0  0  0  0  0  0  0  0  0
    5.3842    0.4679   -1.9608 C   0  0  0  0  0  0  0  0  0  0  0  0
    6.1938   -0.2908   -2.7080 N   0  0  0  0  0  0  0  0  0  0  0  0
    7.4866   -0.0126   -2.4161 C   0  0  0  0  0  0  0  0  0  0  0  0
    7.4307    0.9264   -1.4808 O   0  0  0  0  0  0  0  0  0  0  0  0
    6.1874    1.2216   -1.2007 N   0  0  0  0  0  0  0  0  0  0  0  0
    3.1827   -0.2319   -2.8325 C   0  0  0  0  0  0  0  0  0  0  0  0
    1.8085   -0.1667   -2.7756 C   0  0  0  0  0  0  0  0  0  0  0  0
    1.1440    0.6080   -1.8607 C   0  0  0  0  0  0  0  0  0  0  0  0
   -0.2068    0.6580   -1.8540 F   0  0  0  0  0  0  0  0  0  0  0  0
   -3.4204   -0.4106    0.2406 C   0  0  0  0  0  0  0  0  0  0  0  0
   -3.2645    0.3840   -0.9030 N   0  0  0  0  0  0  0  0  0  0  0  0
   -3.3073   -0.0711   -2.1433 N   0  0  0  0  0  0  0  0  0  0  0  0
   -3.1517    0.9359   -3.0189 C   0  0  0  0  0  0  0  0  0  0  0  0
   -3.0069    2.0611   -2.2375 C   0  0  0  0  0  0  0  0  0  0  0  0
   -3.0782    1.7036   -0.9458 N   0  0  0  0  0  0  0  0  0  0  0  0
   -4.3913   -1.4150    0.1921 C   0  0  0  0  0  0  0  0  0  0  0  0
   -5.2649   -4.0235    0.5404 H   0  0  0  0  0  0  0  0  0  0  0  0
   -5.7578   -3.7695    2.2274 H   0  0  0  0  0  0  0  0  0  0  0  0
   -6.6181   -2.8611    0.9599 H   0  0  0  0  0  0  0  0  0  0  0  0
   -4.0652   -2.5953    3.3047 H   0  0  0  0  0  0  0  0  0  0  0  0
   -2.3428   -0.8116    3.3840 H   0  0  0  0  0  0  0  0  0  0  0  0
   -0.0746   -1.2341   -0.0606 H   0  0  0  0  0  0  0  0  0  0  0  0
   -0.5456   -1.5530    1.6210 H   0  0  0  0  0  0  0  0  0  0  0  0
    1.6112   -2.1612    1.7987 H   0  0  0  0  0  0  0  0  0  0  0  0
    2.2240   -1.0401    0.5872 H   0  0  0  0  0  0  0  0  0  0  0  0
    2.8588    1.3374    1.8046 H   0  0  0  0  0  0  0  0  0  0  0  0
    1.7613    1.5838    3.1649 H   0  0  0  0  0  0  0  0  0  0  0  0
    0.1816    2.3741    1.8976 H   0  0  0  0  0  0  0  0  0  0  0  0
    1.9094    3.0367    0.3312 H   0  0  0  0  0  0  0  0  0  0  0  0
    0.3607    2.7377   -0.4446 H   0  0  0  0  0  0  0  0  0  0  0  0
    3.8076    1.8769   -0.3101 H   0  0  0  0  0  0  0  0  0  0  0  0
    8.4027   -0.4234   -2.8152 H   0  0  0  0  0  0  0  0  0  0  0  0
    3.7239   -0.8327   -3.5410 H   0  0  0  0  0  0  0  0  0  0  0  0
    1.2473   -0.7758   -3.5119 H   0  0  0  0  0  0  0  0  0  0  0  0
   -3.1384    0.9028   -4.1099 H   0  0  0  0  0  0  0  0  0  0  0  0
   -2.8579    3.0724   -2.6405 H   0  0  0  0  0  0  0  0  0  0  0  0
   -4.9785   -1.6060   -0.6867 H   0  0  0  0  0  0  0  0  0  0  0  0
  1  2  1  0
  2  3  2  0
  3  4  1  0
  4  5  2  0
  5  6  1  0
  6  7  2  0
  6  8  1  0
  8  9  1  0
  9 10  1  0
 10 11  1  0
 11 12  1  0
 12 13  1  0
 13 14  1  0
 14 15  1  0
 15 16  2  0
 16 17  1  0
 17 18  1  0
 18 19  1  0
 19 20  2  0
 20 21  1  0
 21 22  1  0
 17 23  2  0
 23 24  1  0
 24 25  2  0
 25 26  1  0
  5 27  1  0
 27 28  1  0
 28 29  1  0
 29 30  2  0
 30 31  1  0
 31 32  2  0
 27 33  2  0
 33  2  1  0
 13  8  1  0
 25 15  1  0
 32 28  1  0
 22 18  2  0
  1 34  1  0
  1 35  1  0
  1 36  1  0
  3 37  1  0
  4 38  1  0
  9 39  1  0
  9 40  1  0
 10 41  1  0
 10 42  1  0
 12 43  1  0
 12 44  1  0
 13 45  1  1
 14 46  1  0
 14 47  1  0
 16 48  1  0
 20 49  1  0
 23 50  1  0
 24 51  1  0
 30 52  1  0
 31 53  1  0
 33 54  1  0
M  END
$$$$
