
     RDKit          3D

 59 63  0  0  0  0  0  0  0  0999 V2000
   -4.1504    0.9679    3.7939 C   0  0  0  0  0  0  0  0  0  0  0  0
   -3.8096    0.7413    2.3667 C   0  0  0  0  0  0  0  0  0  0  0  0
   -4.7637    0.8842    1.3918 C   0  0  0  0  0  0  0  0  0  0  0  0
   -4.4563    0.6743    0.0393 C   0  0  0  0  0  0  0  0  0  0  0  0
   -5.4980    0.8485   -0.9656 C   0  0  0  0  0  0  0  0  0  0  0  0
   -6.6122    1.4717   -0.7511 N   0  0  0  0  0  0  0  0  0  0  0  0
   -7.4553    1.4960   -1.9130 C   0  0  0  0  0  0  0  0  0  0  0  0
   -6.5103    1.0953   -3.0318 C   0  0  0  0  0  0  0  0  0  0  0  0
   -5.4655    0.3628   -2.3001 N   0  0  0  0  0  0  0  0  0  0  0  0
   -4.6324   -0.6409   -2.9130 C   0  0  0  0  0  0  0  0  0  0  0  0
   -3.1671    0.3221   -0.2602 C   0  0  0  0  0  0  0  0  0  0  0  0
   -2.2214    0.1832    0.7326 C   0  0  0  0  0  0  0  0  0  0  0  0
   -0.8850   -0.1509    0.7148 N   0  0  0  0  0  0  0  0  0  0  0  0
   -0.3434   -0.1642    1.9197 C   0  0  0  0  0  0  0  0  0  0  0  0
    0.9622   -0.5340    2.4375 C   0  0  0  0  0  0  0  0  0  0  0  0
    2.0402   -0.8179    1.6727 C   0  0  0  0  0  0  0  0  0  0  0  0
    2.1090   -0.4572    0.3248 N   0  0  0  0  0  0  0  0  0  0  0  0
    3.2487   -0.7619   -0.5089 C   0  0  0  0  0  0  0  0  0  0  0  0
    4.3435    0.2558   -0.3422 C   0  0  0  0  0  0  0  0  0  0  0  0
    3.8879    1.5358   -0.7065 O   0  0  0  0  0  0  0  0  0  0  0  0
    5.5247   -0.0383   -1.1723 C   0  0  0  0  0  0  0  0  0  0  0  0
    6.6263   -0.6008   -0.5669 C   0  0  0  0  0  0  0  0  0  0  0  0
    7.7669   -0.9012   -1.2742 C   0  0  0  0  0  0  0  0  0  0  0  0
    7.8046   -0.6316   -2.6216 C   0  0  0  0  0  0  0  0  0  0  0  0
    6.7098   -0.0693   -3.2399 C   0  0  0  0  0  0  0  0  0  0  0  0
    6.7272    0.2908   -4.9697 Cl  0  0  0  0  0  0  0  0  0  0  0  0
    5.5688    0.2309   -2.5301 C   0  0  0  0  0  0  0  0  0  0  0  0
    3.2199   -1.3596    2.2151 C   0  0  0  0  0  0  0  0  0  0  0  0
    3.2432   -1.5853    3.5663 C   0  0  0  0  0  0  0  0  0  0  0  0
    2.1773   -1.3009    4.3492 N   0  0  0  0  0  0  0  0  0  0  0  0
    1.0762   -0.7963    3.8216 C   0  0  0  0  0  0  0  0  0  0  0  0
    0.0802   -0.5270    4.5297 O   0  0  0  0  0  0  0  0  0  0  0  0
   -1.4008    0.1789    2.7488 N   0  0  0  0  0  0  0  0  0  0  0  0
   -2.5088    0.3854    2.0566 C   0  0  0  0  0  0  0  0  0  0  0  0
   -3.3189    0.6722    4.4537 H   0  0  0  0  0  0  0  0  0  0  0  0
   -5.0514    0.3929    4.0997 H   0  0  0  0  0  0  0  0  0  0  0  0
   -4.3523    2.0570    3.9081 H   0  0  0  0  0  0  0  0  0  0  0  0
   -5.7715    1.1607    1.6358 H   0  0  0  0  0  0  0  0  0  0  0  0
   -7.8007    2.5420   -2.1101 H   0  0  0  0  0  0  0  0  0  0  0  0
   -8.3234    0.8206   -1.8666 H   0  0  0  0  0  0  0  0  0  0  0  0
   -6.9736    0.4877   -3.8086 H   0  0  0  0  0  0  0  0  0  0  0  0
   -6.0672    1.9929   -3.5166 H   0  0  0  0  0  0  0  0  0  0  0  0
   -5.2179   -1.1763   -3.7237 H   0  0  0  0  0  0  0  0  0  0  0  0
   -4.3727   -1.4584   -2.1817 H   0  0  0  0  0  0  0  0  0  0  0  0
   -3.7515   -0.2421   -3.4479 H   0  0  0  0  0  0  0  0  0  0  0  0
   -2.8763    0.1539   -1.2722 H   0  0  0  0  0  0  0  0  0  0  0  0
   -0.4378   -0.4007   -0.2109 H   0  0  0  0  0  0  0  0  0  0  0  0
    1.3765    0.1005   -0.1250 H   0  0  0  0  0  0  0  0  0  0  0  0
    2.9585   -0.7396   -1.6056 H   0  0  0  0  0  0  0  0  0  0  0  0
    3.6474   -1.7744   -0.3436 H   0  0  0  0  0  0  0  0  0  0  0  0
    4.6623    0.3550    0.7026 H   0  0  0  0  0  0  0  0  0  0  0  0
    3.3624    1.9317    0.0120 H   0  0  0  0  0  0  0  0  0  0  0  0
    6.6087   -0.8212    0.5131 H   0  0  0  0  0  0  0  0  0  0  0  0
    8.6086   -1.3426   -0.7607 H   0  0  0  0  0  0  0  0  0  0  0  0
    8.7051   -0.8717   -3.1625 H   0  0  0  0  0  0  0  0  0  0  0  0
    4.7035    0.6711   -3.0021 H   0  0  0  0  0  0  0  0  0  0  0  0
    4.0610   -1.6105    1.6125 H   0  0  0  0  0  0  0  0  0  0  0  0
    4.1579   -2.0064    3.9975 H   0  0  0  0  0  0  0  0  0  0  0  0
    2.2268   -1.4818    5.3714 H   0  0  0  0  0  0  0  0  0  0  0  0
  1  2  1  0
  2  3  2  0
  3  4  1  0
  4  5  1  0
  5  6  2  0
  6  7  1  0
  7  8  1  0
  8  9  1  0
  9 10  1  0
  4 11  2  0
 11 12  1  0
 12 13  1  0
 13 14  1  0
 14 15  1  0
 15 16  2  0
 16 17  1  0
 17 18  1  0
 18 19  1  0
 19 20  1  0
 19 21  1  0
 21 22  2  0
 22 23  1  0
 23 24  2  0
 24 25  1  0
 25 26  1  0
 25 27  2  0
 16 28  1  0
 28 29  2  0
 29 30  1  0
 30 31  1  0
 31 32  2  0
 14 33  2  0
 33 34  1  0
 34  2  1  0
  9  5  1  0
 34 12  2  0
 31 15  1  0
 27 21  1  0
  1 35  1  0
  1 36  1  0
  1 37  1  0
  3 38  1  0
  7 39  1  0
  7 40  1  0
  8 41  1  0
  8 42  1  0
 10 43  1  0
 10 44  1  0
 10 45  1  0
 11 46  1  0
 13 47  1  0
 17 48  1  0
 18 49  1  0
 18 50  1  0
 19 51  1  0
 20 52  1  0
 22 53  1  0
 23 54  1  0
 24 55  1  0
 27 56  1  0
 28 57  1  0
 29 58  1  0
 30 59  1  0
M  END
$$$$
