
     RDKit          3D

 32 32  0  0  0  0  0  0  0  0999 V2000
    3.2966    1.2457   -4.1599 N   0  0  0  0  0  0  0  0  0  0  0  0
    2.9644    0.2656   -3.5843 N   0  0  0  0  0  4  0  0  0  0  0  0
    2.5991   -0.8558   -2.9498 C   0  0  0  0  0  3  0  0  0  0  0  0
    2.3173   -0.8404   -1.5198 C   0  0  0  0  0  0  0  0  0  0  0  0
    3.2852   -1.0490   -0.7517 O   0  0  0  0  0  0  0  0  0  0  0  0
    0.9863   -0.5978   -0.9526 C   0  0  2  0  0  0  0  0  0  0  0  0
    0.6235    0.8606   -1.2783 C   0  0  0  0  0  0  0  0  0  0  0  0
   -0.6993    1.2156   -0.7488 C   0  0  0  0  0  0  0  0  0  0  0  0
   -1.8545    1.0760   -1.4701 C   0  0  0  0  0  0  0  0  0  0  0  0
   -3.1002    1.4129   -0.9531 C   0  0  0  0  0  0  0  0  0  0  0  0
   -3.1809    1.9079    0.3379 C   0  0  0  0  0  0  0  0  0  0  0  0
   -2.0405    2.0543    1.0717 C   0  0  0  0  0  0  0  0  0  0  0  0
   -0.8135    1.7170    0.5479 C   0  0  0  0  0  0  0  0  0  0  0  0
    1.0811   -0.6591    0.4987 N   0  0  0  0  0  0  0  0  0  0  0  0
    0.2144   -1.4778    1.2872 C   0  0  0  0  0  0  0  0  0  0  0  0
   -0.6458   -2.1582    0.6821 O   0  0  0  0  0  0  0  0  0  0  0  0
    0.3352   -1.5159    2.7794 C   0  0  0  0  0  0  0  0  0  0  0  0
   -0.6229   -2.4011    3.3686 N   0  0  0  0  0  0  0  0  0  0  0  0
    2.5048   -1.7876   -3.4786 H   0  0  0  0  0  0  0  0  0  0  0  0
    0.2027   -1.2725   -1.3345 H   0  0  0  0  0  0  0  0  0  0  0  0
    0.6532    1.0036   -2.4004 H   0  0  0  0  0  0  0  0  0  0  0  0
    1.3990    1.5589   -0.9072 H   0  0  0  0  0  0  0  0  0  0  0  0
   -1.8439    0.6920   -2.4792 H   0  0  0  0  0  0  0  0  0  0  0  0
   -3.9977    1.3058   -1.5134 H   0  0  0  0  0  0  0  0  0  0  0  0
   -4.1716    2.1694    0.7342 H   0  0  0  0  0  0  0  0  0  0  0  0
   -2.1491    2.4439    2.0826 H   0  0  0  0  0  0  0  0  0  0  0  0
    0.0651    1.8460    1.1540 H   0  0  0  0  0  0  0  0  0  0  0  0
    1.7916   -0.1079    1.0236 H   0  0  0  0  0  0  0  0  0  0  0  0
    1.3807   -1.8676    2.9897 H   0  0  0  0  0  0  0  0  0  0  0  0
    0.2734   -0.4857    3.2004 H   0  0  0  0  0  0  0  0  0  0  0  0
   -0.5390   -2.3070    4.4158 H   0  0  0  0  0  0  0  0  0  0  0  0
   -0.3146   -3.3918    3.1337 H   0  0  0  0  0  0  0  0  0  0  0  0
  1  2  3  0
  2  3  1  0
  3  4  1  0
  4  5  2  0
  4  6  1  0
  6  7  1  0
  7  8  1  0
  8  9  2  0
  9 10  1  0
 10 11  2  0
 11 12  1  0
 12 13  2  0
  6 14  1  0
 14 15  1  0
 15 16  2  0
 15 17  1  0
 17 18  1  0
 13  8  1  0
  3 19  1  0
  6 20  1  6
  7 21  1  0
  7 22  1  0
  9 23  1  0
 10 24  1  0
 11 25  1  0
 12 26  1  0
 13 27  1  0
 14 28  1  0
 17 29  1  0
 17 30  1  0
 18 31  1  0
 18 32  1  0
M  CHG  2   2   1   3  -1
M  END
$$$$
