
     RDKit          3D

 46 48  0  0  0  0  0  0  0  0999 V2000
   -4.4006   -0.9285    1.3263 C   0  0  0  0  0  0  0  0  0  0  0  0
   -3.7010   -2.5420    1.5622 S   0  0  0  0  0  6  0  0  0  0  0  0
   -4.7024   -3.5495    1.1113 O   0  0  0  0  0  0  0  0  0  0  0  0
   -3.4985   -2.7143    3.0501 O   0  0  0  0  0  0  0  0  0  0  0  0
   -2.2188   -2.7591    0.7469 N   0  0  0  0  0  0  0  0  0  0  0  0
   -2.3004   -2.6333   -0.6691 C   0  0  0  0  0  0  0  0  0  0  0  0
   -1.1699   -1.6831   -1.0830 C   0  0  0  0  0  0  0  0  0  0  0  0
   -1.1092   -0.7863    0.1307 C   0  0  2  0  0  0  0  0  0  0  0  0
    0.1750   -0.0551    0.1944 N   0  0  0  0  0  0  0  0  0  0  0  0
    1.2475   -0.8535    0.6280 C   0  0  0  0  0  0  0  0  0  0  0  0
    2.6214   -0.4408    0.5833 C   0  0  0  0  0  0  0  0  0  0  0  0
    3.3619   -0.1109    1.7098 C   0  0  0  0  0  0  0  0  0  0  0  0
    4.6748    0.2251    1.5650 C   0  0  0  0  0  0  0  0  0  0  0  0
    5.2941    0.2476    0.3268 C   0  0  0  0  0  0  0  0  0  0  0  0
    4.5623   -0.0795   -0.7969 C   0  0  0  0  0  0  0  0  0  0  0  0
    3.2346   -0.4227   -0.6798 C   0  0  0  0  0  0  0  0  0  0  0  0
    2.2673   -0.8659   -2.2607 Br  0  0  0  0  0  0  0  0  0  0  0  0
    0.1523    1.2978   -0.2298 C   0  0  0  0  0  0  0  0  0  0  0  0
   -1.0059    1.7812   -0.8178 C   0  0  0  0  0  0  0  0  0  0  0  0
   -1.1567    3.0998   -1.2343 C   0  0  0  0  0  0  0  0  0  0  0  0
   -0.1365    4.0019   -1.0769 C   0  0  0  0  0  0  0  0  0  0  0  0
   -0.2685    5.3803   -1.5018 C   0  0  0  0  0  0  0  0  0  0  0  0
   -0.3686    6.4829   -1.8323 N   0  0  0  0  0  0  0  0  0  0  0  0
    1.0165    3.5346   -0.4960 C   0  0  0  0  0  0  0  0  0  0  0  0
    2.3594    4.6469   -0.2693 Cl  0  0  0  0  0  0  0  0  0  0  0  0
    1.1651    2.2054   -0.0766 C   0  0  0  0  0  0  0  0  0  0  0  0
   -1.1846   -1.8517    1.2362 C   0  0  0  0  0  0  0  0  0  0  0  0
   -4.6535   -0.7420    0.2563 H   0  0  0  0  0  0  0  0  0  0  0  0
   -5.3678   -0.9217    1.8783 H   0  0  0  0  0  0  0  0  0  0  0  0
   -3.7885   -0.1237    1.7741 H   0  0  0  0  0  0  0  0  0  0  0  0
   -3.2792   -2.2462   -1.0228 H   0  0  0  0  0  0  0  0  0  0  0  0
   -2.1283   -3.5834   -1.2157 H   0  0  0  0  0  0  0  0  0  0  0  0
   -1.4495   -1.1254   -2.0016 H   0  0  0  0  0  0  0  0  0  0  0  0
   -0.2826   -2.3027   -1.2407 H   0  0  0  0  0  0  0  0  0  0  0  0
   -1.9837   -0.1716    0.1961 H   0  0  0  0  0  0  0  0  0  0  0  0
    1.0368   -1.0923    1.7321 H   0  0  0  0  0  0  0  0  0  0  0  0
    1.1886   -1.8365    0.0575 H   0  0  0  0  0  0  0  0  0  0  0  0
    2.8255   -0.1457    2.6490 H   0  0  0  0  0  0  0  0  0  0  0  0
    5.2214    0.4774    2.4727 H   0  0  0  0  0  0  0  0  0  0  0  0
    6.3334    0.5142    0.2173 H   0  0  0  0  0  0  0  0  0  0  0  0
    5.0157   -0.0735   -1.7938 H   0  0  0  0  0  0  0  0  0  0  0  0
   -1.8796    1.1744   -1.0211 H   0  0  0  0  0  0  0  0  0  0  0  0
   -2.0664    3.4650   -1.6916 H   0  0  0  0  0  0  0  0  0  0  0  0
    2.0780    1.9044    0.3791 H   0  0  0  0  0  0  0  0  0  0  0  0
   -0.2669   -2.4381    1.2984 H   0  0  0  0  0  0  0  0  0  0  0  0
   -1.4639   -1.3598    2.1738 H   0  0  0  0  0  0  0  0  0  0  0  0
  1  2  1  0
  2  3  2  0
  2  4  2  0
  2  5  1  0
  5  6  1  0
  6  7  1  0
  7  8  1  0
  8  9  1  0
  9 10  1  0
 10 11  1  0
 11 12  2  0
 12 13  1  0
 13 14  2  0
 14 15  1  0
 15 16  2  0
 16 17  1  0
  9 18  1  0
 18 19  2  0
 19 20  1  0
 20 21  2  0
 21 22  1  0
 22 23  3  0
 21 24  1  0
 24 25  1  0
 24 26  2  0
  8 27  1  0
 27  5  1  0
 16 11  1  0
 26 18  1  0
  1 28  1  0
  1 29  1  0
  1 30  1  0
  6 31  1  0
  6 32  1  0
  7 33  1  0
  7 34  1  0
  8 35  1  6
 10 36  1  0
 10 37  1  0
 12 38  1  0
 13 39  1  0
 14 40  1  0
 15 41  1  0
 19 42  1  0
 20 43  1  0
 26 44  1  0
 27 45  1  0
 27 46  1  0
M  END
$$$$
