
     RDKit          3D

 50 53  0  0  0  0  0  0  0  0999 V2000
   -2.5766   -4.2202    0.7257 N   0  0  0  0  0  0  0  0  0  0  0  0
   -2.4180   -2.7369    0.4432 C   0  0  1  0  0  0  0  0  0  0  0  0
   -1.0799   -2.6592   -0.1790 C   0  0  0  0  0  0  0  0  0  0  0  0
   -0.5506   -1.3607   -0.5913 C   0  0  0  0  0  0  0  0  0  0  0  0
   -0.6015   -1.1016   -1.8421 O   0  0  0  0  0  0  0  0  0  0  0  0
    0.0061   -0.3788    0.2491 N   0  0  0  0  0  0  0  0  0  0  0  0
    0.2035   -0.3844    1.6921 C   0  0  0  0  0  0  0  0  0  0  0  0
   -0.1998    1.0269    2.0350 C   0  0  0  0  0  0  0  0  0  0  0  0
    0.3597    1.8508    0.9317 C   0  0  0  0  0  0  0  0  0  0  0  0
    0.5273    0.9161   -0.2288 C   0  0  1  0  0  0  0  0  0  0  0  0
    1.9697    0.7165   -0.5675 C   0  0  0  0  0  0  0  0  0  0  0  0
    2.4715   -0.3409   -1.2291 N   0  0  0  0  0  0  0  0  0  0  0  0
    3.7712   -0.1915   -1.3487 O   0  0  0  0  0  0  0  0  0  0  0  0
    4.1445    0.9334   -0.7856 C   0  0  0  0  0  0  0  0  0  0  0  0
    5.5275    1.4937   -0.6907 C   0  0  0  0  0  0  0  0  0  0  0  0
    6.1621    1.7426   -1.8846 O   0  0  0  0  0  0  0  0  0  0  0  0
    6.3690    1.1825    0.4881 C   0  0  0  0  0  0  0  0  0  0  0  0
    5.7158    2.5346    0.4472 C   0  0  0  0  0  0  0  0  0  0  0  0
    3.0131    1.5023   -0.2955 N   0  0  0  0  0  0  0  0  0  0  0  0
   -3.6092   -2.3295   -0.3328 C   0  0  0  0  0  0  0  0  0  0  0  0
   -3.7161   -0.9119   -0.7025 C   0  0  0  0  0  0  0  0  0  0  0  0
   -3.6060   -0.4143   -1.9860 C   0  0  0  0  0  0  0  0  0  0  0  0
   -3.7621    0.9171   -2.3178 C   0  0  0  0  0  0  0  0  0  0  0  0
   -3.6474    1.3722   -3.5855 F   0  0  0  0  0  0  0  0  0  0  0  0
   -4.0460    1.8306   -1.3249 C   0  0  0  0  0  0  0  0  0  0  0  0
   -4.2148    3.1500   -1.5682 F   0  0  0  0  0  0  0  0  0  0  0  0
   -4.1624    1.3685   -0.0317 C   0  0  0  0  0  0  0  0  0  0  0  0
   -4.0065    0.0421    0.2932 C   0  0  0  0  0  0  0  0  0  0  0  0
   -4.1189   -0.4169    1.5555 F   0  0  0  0  0  0  0  0  0  0  0  0
   -3.2439   -4.3352    1.5021 H   0  0  0  0  0  0  0  0  0  0  0  0
   -2.9630   -4.6700   -0.1371 H   0  0  0  0  0  0  0  0  0  0  0  0
   -2.3819   -2.2888    1.4655 H   0  0  0  0  0  0  0  0  0  0  0  0
   -0.3481   -3.0629    0.6027 H   0  0  0  0  0  0  0  0  0  0  0  0
   -0.9611   -3.4293   -1.0040 H   0  0  0  0  0  0  0  0  0  0  0  0
    1.2620   -0.5978    1.9492 H   0  0  0  0  0  0  0  0  0  0  0  0
   -0.4675   -1.1080    2.1448 H   0  0  0  0  0  0  0  0  0  0  0  0
    0.1759    1.3294    3.0374 H   0  0  0  0  0  0  0  0  0  0  0  0
   -1.3110    1.0790    1.9858 H   0  0  0  0  0  0  0  0  0  0  0  0
   -0.3154    2.7096    0.6350 H   0  0  0  0  0  0  0  0  0  0  0  0
    1.3764    2.2449    1.1754 H   0  0  0  0  0  0  0  0  0  0  0  0
   -0.0414    1.2682   -1.0961 H   0  0  0  0  0  0  0  0  0  0  0  0
    6.5696    2.6430   -1.8241 H   0  0  0  0  0  0  0  0  0  0  0  0
    6.0390    0.4236    1.1933 H   0  0  0  0  0  0  0  0  0  0  0  0
    7.4804    1.2189    0.3145 H   0  0  0  0  0  0  0  0  0  0  0  0
    6.2892    3.4225    0.1488 H   0  0  0  0  0  0  0  0  0  0  0  0
    4.8504    2.6496    1.1342 H   0  0  0  0  0  0  0  0  0  0  0  0
   -4.5636   -2.6758    0.1761 H   0  0  0  0  0  0  0  0  0  0  0  0
   -3.5994   -2.9280   -1.2888 H   0  0  0  0  0  0  0  0  0  0  0  0
   -3.3821   -1.1263   -2.7756 H   0  0  0  0  0  0  0  0  0  0  0  0
   -4.3895    2.1007    0.7551 H   0  0  0  0  0  0  0  0  0  0  0  0
  1  2  1  0
  2  3  1  0
  3  4  1  0
  4  5  2  0
  4  6  1  0
  6  7  1  0
  7  8  1  0
  8  9  1  0
  9 10  1  0
 10 11  1  0
 11 12  2  0
 12 13  1  0
 13 14  1  0
 14 15  1  0
 15 16  1  0
 15 17  1  0
 17 18  1  0
 14 19  2  0
  2 20  1  0
 20 21  1  0
 21 22  2  0
 22 23  1  0
 23 24  1  0
 23 25  2  0
 25 26  1  0
 25 27  1  0
 27 28  2  0
 28 29  1  0
 10  6  1  0
 19 11  1  0
 28 21  1  0
 18 15  1  0
  1 30  1  0
  1 31  1  0
  2 32  1  1
  3 33  1  0
  3 34  1  0
  7 35  1  0
  7 36  1  0
  8 37  1  0
  8 38  1  0
  9 39  1  0
  9 40  1  0
 10 41  1  6
 16 42  1  0
 17 43  1  0
 17 44  1  0
 18 45  1  0
 18 46  1  0
 20 47  1  0
 20 48  1  0
 22 49  1  0
 27 50  1  0
M  END
$$$$
