
     RDKit          3D

 63 67  0  0  0  0  0  0  0  0999 V2000
    4.8427   -4.3553   -0.9283 C   0  0  0  0  0  0  0  0  0  0  0  0
    5.5972   -3.0479   -0.0014 S   0  0  0  0  0  6  0  0  0  0  0  0
    7.0882   -3.1289    0.0080 O   0  0  0  0  0  0  0  0  0  0  0  0
    5.1457   -3.2320    1.4455 O   0  0  0  0  0  0  0  0  0  0  0  0
    5.0093   -1.4756   -0.5263 C   0  0  0  0  0  0  0  0  0  0  0  0
    5.5950   -0.4067    0.3370 C   0  0  0  0  0  0  0  0  0  0  0  0
    6.3804   -0.7380    1.2492 O   0  0  0  0  0  0  0  0  0  0  0  0
    5.2683    0.9471    0.1257 N   0  0  0  0  0  0  0  0  0  0  0  0
    5.7688    2.0509    0.9042 C   0  0  0  0  0  0  0  0  0  0  0  0
    7.2214    2.3724    0.5677 C   0  0  0  0  0  0  0  0  0  0  0  0
    8.2636    1.7489    1.3261 C   0  0  0  0  0  0  0  0  0  0  0  0
    9.7271    2.4417    0.5751 S   0  0  0  0  0  0  0  0  0  0  0  0
    8.8015    3.4834   -0.6654 C   0  0  0  0  0  0  0  0  0  0  0  0
    9.4634    4.3010   -1.5878 N   0  0  0  0  0  0  0  0  0  0  0  0
    7.5922    3.1663   -0.3393 N   0  0  0  0  0  0  0  0  0  0  0  0
    3.4902   -1.5088   -0.2570 C   0  0  0  0  0  0  0  0  0  0  0  0
    2.7366   -1.7725    0.5842 N   0  0  0  0  0  0  0  0  0  0  0  0
    1.4211   -1.6942    0.5682 C   0  0  0  0  0  0  0  0  0  0  0  0
    0.4928   -2.0103    1.5821 C   0  0  0  0  0  0  0  0  0  0  0  0
   -0.8444   -1.8528    1.3576 C   0  0  0  0  0  0  0  0  0  0  0  0
   -1.3887   -1.3882    0.1627 C   0  0  0  0  0  0  0  0  0  0  0  0
   -2.8107   -1.2285   -0.0233 C   0  0  0  0  0  0  0  0  0  0  0  0
   -3.5754   -0.8831    1.1005 C   0  0  0  0  0  0  0  0  0  0  0  0
   -4.9414   -0.7181    1.0492 C   0  0  0  0  0  0  0  0  0  0  0  0
   -5.6261   -0.8882   -0.1338 C   0  0  0  0  0  0  0  0  0  0  0  0
   -7.0603   -0.7108   -0.1404 C   0  0  0  0  0  0  0  0  0  0  0  0
   -7.7961   -1.7473   -0.2796 O   0  0  0  0  0  0  0  0  0  0  0  0
   -7.6015    0.5926    0.0079 N   0  0  0  0  0  0  0  0  0  0  0  0
   -6.7495    1.7279    0.1472 C   0  0  0  0  0  0  0  0  0  0  0  0
   -7.4442    3.0574   -0.0106 C   0  0  0  0  0  0  0  0  0  0  0  0
   -8.8064    2.9835    0.2817 O   0  0  0  0  0  0  0  0  0  0  0  0
   -9.4285    2.0354   -0.5552 C   0  0  0  0  0  0  0  0  0  0  0  0
   -9.0669    0.6847    0.0180 C   0  0  0  0  0  0  0  0  0  0  0  0
   -4.8991   -1.2251   -1.2510 C   0  0  0  0  0  0  0  0  0  0  0  0
   -3.5102   -1.3915   -1.1871 C   0  0  0  0  0  0  0  0  0  0  0  0
   -0.4822   -1.0758   -0.8404 C   0  0  0  0  0  0  0  0  0  0  0  0
    0.8722   -1.2421   -0.5932 C   0  0  0  0  0  0  0  0  0  0  0  0
    2.3616   -0.9560   -1.6105 S   0  0  0  0  0  0  0  0  0  0  0  0
    5.5570   -5.2202   -1.0612 H   0  0  0  0  0  0  0  0  0  0  0  0
    4.5046   -3.9853   -1.9257 H   0  0  0  0  0  0  0  0  0  0  0  0
    3.9558   -4.7772   -0.4254 H   0  0  0  0  0  0  0  0  0  0  0  0
    5.1814   -1.2628   -1.5947 H   0  0  0  0  0  0  0  0  0  0  0  0
    4.5960    1.1352   -0.6783 H   0  0  0  0  0  0  0  0  0  0  0  0
    5.1587    2.9602    0.6653 H   0  0  0  0  0  0  0  0  0  0  0  0
    5.6763    1.8860    1.9741 H   0  0  0  0  0  0  0  0  0  0  0  0
    8.1875    1.0808    2.1083 H   0  0  0  0  0  0  0  0  0  0  0  0
    9.1387    5.2706   -1.7919 H   0  0  0  0  0  0  0  0  0  0  0  0
   10.3010    3.9364   -2.0847 H   0  0  0  0  0  0  0  0  0  0  0  0
    0.7965   -2.3818    2.5518 H   0  0  0  0  0  0  0  0  0  0  0  0
   -1.5935   -2.0954    2.1268 H   0  0  0  0  0  0  0  0  0  0  0  0
   -3.0573   -0.7396    2.0379 H   0  0  0  0  0  0  0  0  0  0  0  0
   -5.5074   -0.4588    1.9295 H   0  0  0  0  0  0  0  0  0  0  0  0
   -6.1770    1.6510    1.0718 H   0  0  0  0  0  0  0  0  0  0  0  0
   -5.9943    1.6627   -0.6892 H   0  0  0  0  0  0  0  0  0  0  0  0
   -7.0006    3.7463    0.7383 H   0  0  0  0  0  0  0  0  0  0  0  0
   -7.2578    3.5170   -1.0062 H   0  0  0  0  0  0  0  0  0  0  0  0
   -9.0204    2.1133   -1.5603 H   0  0  0  0  0  0  0  0  0  0  0  0
  -10.5163    2.2176   -0.5141 H   0  0  0  0  0  0  0  0  0  0  0  0
   -9.3495    0.7317    1.1012 H   0  0  0  0  0  0  0  0  0  0  0  0
   -9.5142   -0.1623   -0.5009 H   0  0  0  0  0  0  0  0  0  0  0  0
   -5.3893   -1.3689   -2.2107 H   0  0  0  0  0  0  0  0  0  0  0  0
   -2.9376   -1.6600   -2.0815 H   0  0  0  0  0  0  0  0  0  0  0  0
   -0.8460   -0.7122   -1.7860 H   0  0  0  0  0  0  0  0  0  0  0  0
  1  2  1  0
  2  3  2  0
  2  4  2  0
  2  5  1  0
  5  6  1  0
  6  7  2  0
  6  8  1  0
  8  9  1  0
  9 10  1  0
 10 11  2  0
 11 12  1  0
 12 13  1  0
 13 14  1  0
 13 15  2  0
  5 16  1  0
 16 17  2  0
 17 18  1  0
 18 19  2  0
 19 20  1  0
 20 21  2  0
 21 22  1  0
 22 23  2  0
 23 24  1  0
 24 25  2  0
 25 26  1  0
 26 27  2  0
 26 28  1  0
 28 29  1  0
 29 30  1  0
 30 31  1  0
 31 32  1  0
 32 33  1  0
 25 34  1  0
 34 35  2  0
 21 36  1  0
 36 37  2  0
 37 38  1  0
 15 10  1  0
 38 16  1  0
 37 18  1  0
 35 22  1  0
 33 28  1  0
  1 39  1  0
  1 40  1  0
  1 41  1  0
  5 42  1  0
  8 43  1  0
  9 44  1  0
  9 45  1  0
 11 46  1  0
 14 47  1  0
 14 48  1  0
 19 49  1  0
 20 50  1  0
 23 51  1  0
 24 52  1  0
 29 53  1  0
 29 54  1  0
 30 55  1  0
 30 56  1  0
 32 57  1  0
 32 58  1  0
 33 59  1  0
 33 60  1  0
 34 61  1  0
 35 62  1  0
 36 63  1  0
M  END
$$$$
