
     RDKit          3D

 48 50  0  0  0  0  0  0  0  0999 V2000
   -4.1977    2.8496   -0.6791 N   0  0  0  0  0  0  0  0  0  0  0  0
   -4.9676    2.1780    0.2898 C   0  0  0  0  0  0  0  0  0  0  0  0
   -6.1123    2.7611    0.7861 C   0  0  0  0  0  0  0  0  0  0  0  0
   -6.8915    2.1390    1.7254 C   0  0  0  0  0  0  0  0  0  0  0  0
   -6.5186    0.8944    2.1870 C   0  0  0  0  0  0  0  0  0  0  0  0
   -5.3832    0.2940    1.7084 C   0  0  0  0  0  0  0  0  0  0  0  0
   -4.5996    0.9055    0.7718 C   0  0  0  0  0  0  0  0  0  0  0  0
   -3.4240    0.3654    0.2080 N   0  0  0  0  0  0  0  0  0  0  0  0
   -2.8775   -0.9240    0.4593 C   0  0  0  0  0  0  0  0  0  0  0  0
   -3.4624   -1.6876    1.2480 O   0  0  0  0  0  0  0  0  0  0  0  0
   -1.6497   -1.4015   -0.1701 C   0  0  0  0  0  0  0  0  0  0  0  0
   -1.2296   -2.6867    0.0953 C   0  0  0  0  0  0  0  0  0  0  0  0
   -0.0899   -3.2346   -0.4420 C   0  0  0  0  0  0  0  0  0  0  0  0
    0.7070   -2.4935   -1.2988 C   0  0  0  0  0  0  0  0  0  0  0  0
    1.9121   -3.0704   -1.8784 C   0  0  0  0  0  0  0  0  0  0  0  0
    3.1244   -2.9000   -1.1320 N   0  0  0  0  0  0  0  0  0  0  0  0
    3.9242   -1.7074   -1.1155 C   0  0  0  0  0  0  0  0  0  0  0  0
    3.5360   -0.7456   -1.8071 O   0  0  0  0  0  0  0  0  0  0  0  0
    5.0666   -1.5906   -0.3890 O   0  0  0  0  0  0  0  0  0  0  0  0
    5.9334   -0.4949   -0.2936 C   0  0  0  0  0  0  0  0  0  0  0  0
    5.2569    0.7130    0.2170 C   0  0  0  0  0  0  0  0  0  0  0  0
    5.1513    0.8481    1.5996 C   0  0  0  0  0  0  0  0  0  0  0  0
    4.5584    1.9565    2.1480 C   0  0  0  0  0  0  0  0  0  0  0  0
    4.0679    2.9377    1.2753 C   0  0  0  0  0  0  0  0  0  0  0  0
    4.1829    2.7814   -0.0489 N   0  0  0  0  0  0  0  0  0  0  0  0
    4.7605    1.7026   -0.5922 C   0  0  0  0  0  0  0  0  0  0  0  0
    0.2984   -1.2152   -1.5695 C   0  0  0  0  0  0  0  0  0  0  0  0
   -0.8646   -0.6559   -1.0214 C   0  0  0  0  0  0  0  0  0  0  0  0
   -3.8875    3.8545   -0.5589 H   0  0  0  0  0  0  0  0  0  0  0  0
   -3.8964    2.3662   -1.5783 H   0  0  0  0  0  0  0  0  0  0  0  0
   -6.4374    3.7464    0.4441 H   0  0  0  0  0  0  0  0  0  0  0  0
   -7.7935    2.5913    2.1214 H   0  0  0  0  0  0  0  0  0  0  0  0
   -7.1516    0.4152    2.9334 H   0  0  0  0  0  0  0  0  0  0  0  0
   -5.1440   -0.6658    2.1006 H   0  0  0  0  0  0  0  0  0  0  0  0
   -2.8678    0.9454   -0.4685 H   0  0  0  0  0  0  0  0  0  0  0  0
   -1.8087   -3.3455    0.7676 H   0  0  0  0  0  0  0  0  0  0  0  0
    0.2352   -4.2483   -0.2282 H   0  0  0  0  0  0  0  0  0  0  0  0
    1.6967   -4.1622   -2.0506 H   0  0  0  0  0  0  0  0  0  0  0  0
    2.0664   -2.6157   -2.8891 H   0  0  0  0  0  0  0  0  0  0  0  0
    3.4668   -3.6906   -0.5480 H   0  0  0  0  0  0  0  0  0  0  0  0
    6.3592   -0.3104   -1.3257 H   0  0  0  0  0  0  0  0  0  0  0  0
    6.8013   -0.7649    0.3767 H   0  0  0  0  0  0  0  0  0  0  0  0
    5.5240    0.1037    2.2733 H   0  0  0  0  0  0  0  0  0  0  0  0
    4.4790    2.0580    3.2154 H   0  0  0  0  0  0  0  0  0  0  0  0
    3.6019    3.8069    1.7265 H   0  0  0  0  0  0  0  0  0  0  0  0
    4.8545    1.5974   -1.6866 H   0  0  0  0  0  0  0  0  0  0  0  0
    0.8456   -0.5549   -2.2273 H   0  0  0  0  0  0  0  0  0  0  0  0
   -1.1553    0.3548   -1.2552 H   0  0  0  0  0  0  0  0  0  0  0  0
  1  2  1  0
  2  3  2  0
  3  4  1  0
  4  5  2  0
  5  6  1  0
  6  7  2  0
  7  8  1  0
  8  9  1  0
  9 10  2  0
  9 11  1  0
 11 12  2  0
 12 13  1  0
 13 14  2  0
 14 15  1  0
 15 16  1  0
 16 17  1  0
 17 18  2  0
 17 19  1  0
 19 20  1  0
 20 21  1  0
 21 22  2  0
 22 23  1  0
 23 24  2  0
 24 25  1  0
 25 26  2  0
 14 27  1  0
 27 28  2  0
  7  2  1  0
 28 11  1  0
 26 21  1  0
  1 29  1  0
  1 30  1  0
  3 31  1  0
  4 32  1  0
  5 33  1  0
  6 34  1  0
  8 35  1  0
 12 36  1  0
 13 37  1  0
 15 38  1  0
 15 39  1  0
 16 40  1  0
 20 41  1  0
 20 42  1  0
 22 43  1  0
 23 44  1  0
 24 45  1  0
 26 46  1  0
 27 47  1  0
 28 48  1  0
M  END
$$$$
