
     RDKit          3D

 61 65  0  0  0  0  0  0  0  0999 V2000
    3.7179    5.2178   -2.3057 C   0  0  0  0  0  0  0  0  0  0  0  0
    3.2941    3.8996   -1.7423 C   0  0  0  0  0  0  0  0  0  0  0  0
    2.0063    3.4024   -1.6169 C   0  0  0  0  0  0  0  0  0  0  0  0
    2.0649    2.1505   -1.0463 C   0  0  0  0  0  0  0  0  0  0  0  0
    0.9247    1.2731   -0.7375 C   0  0  0  0  0  0  0  0  0  0  0  0
    1.0898    0.1422   -0.2134 O   0  0  0  0  0  0  0  0  0  0  0  0
   -0.4105    1.6603   -1.0156 N   0  0  0  0  0  0  0  0  0  0  0  0
   -1.5160    0.8163   -0.7192 C   0  0  0  0  0  0  0  0  0  0  0  0
   -2.0282   -0.1080   -1.6036 C   0  0  0  0  0  0  0  0  0  0  0  0
   -3.1033   -0.9033   -1.2680 C   0  0  0  0  0  0  0  0  0  0  0  0
   -3.7053   -0.7954   -0.0205 C   0  0  0  0  0  0  0  0  0  0  0  0
   -4.8094   -1.6789    0.2986 C   0  0  0  0  0  0  0  0  0  0  0  0
   -4.5877   -3.0469    0.5081 C   0  0  0  0  0  0  0  0  0  0  0  0
   -5.5990   -3.9177    0.8413 C   0  0  0  0  0  0  0  0  0  0  0  0
   -6.8883   -3.4523    0.9806 C   0  0  0  0  0  0  0  0  0  0  0  0
   -7.1250   -2.1177    0.7793 C   0  0  0  0  0  0  0  0  0  0  0  0
   -6.0946   -1.2283    0.4388 C   0  0  0  0  0  0  0  0  0  0  0  0
   -6.5144    0.4544    0.1647 S   0  0  0  0  0  6  0  0  0  0  0  0
   -8.2478    0.6572    0.3568 N   0  0  0  0  0  0  0  0  0  0  0  0
   -6.1955    0.8698   -1.2407 O   0  0  0  0  0  0  0  0  0  0  0  0
   -5.9032    1.3553    1.1844 O   0  0  0  0  0  0  0  0  0  0  0  0
   -3.2213    0.1037    0.8673 C   0  0  0  0  0  0  0  0  0  0  0  0
   -2.1276    0.9061    0.5115 C   0  0  0  0  0  0  0  0  0  0  0  0
    3.3646    1.8999   -0.8327 N   0  0  0  0  0  0  0  0  0  0  0  0
    3.8916    0.7054   -0.2519 C   0  0  0  0  0  0  0  0  0  0  0  0
    4.3488   -0.3447   -1.0138 C   0  0  0  0  0  0  0  0  0  0  0  0
    4.8638   -1.5120   -0.4531 C   0  0  0  0  0  0  0  0  0  0  0  0
    5.3062   -2.5289   -1.2478 C   0  0  0  0  0  0  0  0  0  0  0  0
    5.8138   -3.6787   -0.6337 C   0  0  0  0  0  0  0  0  0  0  0  0
    5.8674   -3.7859    0.7289 C   0  0  0  0  0  0  0  0  0  0  0  0
    5.4167   -2.7504    1.5041 C   0  0  0  0  0  0  0  0  0  0  0  0
    4.9041   -1.5887    0.9261 C   0  0  0  0  0  0  0  0  0  0  0  0
    4.4444   -0.5330    1.6754 C   0  0  0  0  0  0  0  0  0  0  0  0
    3.9294    0.6346    1.1294 C   0  0  0  0  0  0  0  0  0  0  0  0
    3.4557    1.7231    1.9707 C   0  0  0  0  0  0  0  0  0  0  0  0
    3.5247    1.5815    3.3748 N   0  0  0  0  0  0  0  0  0  0  0  0
    2.9922    2.7738    1.4802 O   0  0  0  0  0  0  0  0  0  0  0  0
    4.0942    2.9398   -1.2466 N   0  0  0  0  0  0  0  0  0  0  0  0
    2.9102    5.9670   -2.2374 H   0  0  0  0  0  0  0  0  0  0  0  0
    3.9330    5.0696   -3.3800 H   0  0  0  0  0  0  0  0  0  0  0  0
    4.6308    5.5278   -1.7324 H   0  0  0  0  0  0  0  0  0  0  0  0
    1.0956    3.9209   -1.9216 H   0  0  0  0  0  0  0  0  0  0  0  0
   -0.5397    2.6153   -1.4574 H   0  0  0  0  0  0  0  0  0  0  0  0
   -1.5467   -0.1835   -2.5807 H   0  0  0  0  0  0  0  0  0  0  0  0
   -3.4950   -1.6258   -1.9744 H   0  0  0  0  0  0  0  0  0  0  0  0
   -3.5716   -3.3833    0.3927 H   0  0  0  0  0  0  0  0  0  0  0  0
   -5.3883   -4.9703    0.9955 H   0  0  0  0  0  0  0  0  0  0  0  0
   -7.6531   -4.1726    1.2443 H   0  0  0  0  0  0  0  0  0  0  0  0
   -8.1390   -1.7678    0.8918 H   0  0  0  0  0  0  0  0  0  0  0  0
   -8.5875    1.4456   -0.2210 H   0  0  0  0  0  0  0  0  0  0  0  0
   -8.4538    0.7836    1.3816 H   0  0  0  0  0  0  0  0  0  0  0  0
   -3.6272    0.2231    1.8602 H   0  0  0  0  0  0  0  0  0  0  0  0
   -1.7652    1.6070    1.2274 H   0  0  0  0  0  0  0  0  0  0  0  0
    4.3148   -0.2793   -2.1026 H   0  0  0  0  0  0  0  0  0  0  0  0
    5.2767   -2.4733   -2.3146 H   0  0  0  0  0  0  0  0  0  0  0  0
    6.1570   -4.4680   -1.3001 H   0  0  0  0  0  0  0  0  0  0  0  0
    6.2552   -4.6644    1.1903 H   0  0  0  0  0  0  0  0  0  0  0  0
    5.4421   -2.7963    2.5885 H   0  0  0  0  0  0  0  0  0  0  0  0
    4.4873   -0.6189    2.7505 H   0  0  0  0  0  0  0  0  0  0  0  0
    2.6057    1.3738    3.8639 H   0  0  0  0  0  0  0  0  0  0  0  0
    4.4202    1.6741    3.9043 H   0  0  0  0  0  0  0  0  0  0  0  0
  1  2  1  0
  2  3  1  0
  3  4  2  0
  4  5  1  0
  5  6  2  0
  5  7  1  0
  7  8  1  0
  8  9  2  0
  9 10  1  0
 10 11  2  0
 11 12  1  0
 12 13  2  0
 13 14  1  0
 14 15  2  0
 15 16  1  0
 16 17  2  0
 17 18  1  0
 18 19  1  0
 18 20  2  0
 18 21  2  0
 11 22  1  0
 22 23  2  0
  4 24  1  0
 24 25  1  0
 25 26  2  0
 26 27  1  0
 27 28  2  0
 28 29  1  0
 29 30  2  0
 30 31  1  0
 31 32  2  0
 32 33  1  0
 33 34  2  0
 34 35  1  0
 35 36  1  0
 35 37  2  0
 24 38  1  0
 38  2  2  0
 23  8  1  0
 34 25  1  0
 17 12  1  0
 32 27  1  0
  1 39  1  0
  1 40  1  0
  1 41  1  0
  3 42  1  0
  7 43  1  0
  9 44  1  0
 10 45  1  0
 13 46  1  0
 14 47  1  0
 15 48  1  0
 16 49  1  0
 19 50  1  0
 19 51  1  0
 22 52  1  0
 23 53  1  0
 26 54  1  0
 28 55  1  0
 29 56  1  0
 30 57  1  0
 31 58  1  0
 33 59  1  0
 36 60  1  0
 36 61  1  0
M  END
$$$$
