
     RDKit          3D

 64 64  0  0  0  0  0  0  0  0999 V2000
    6.5343   -2.3989   -1.1978 O   0  0  0  0  0  0  0  0  0  0  0  0
    7.4696   -1.3908   -1.4353 C   0  0  0  0  0  0  0  0  0  0  0  0
    7.4347   -0.4451   -0.2642 C   0  0  0  0  0  0  0  0  0  0  0  0
    8.3484    0.5724   -0.4579 O   0  0  0  0  0  0  0  0  0  0  0  0
    6.0043    0.1942   -0.2602 C   0  0  0  0  0  0  0  0  0  0  0  0
    5.9434    1.1281    0.8814 C   0  0  0  0  0  0  0  0  0  0  0  0
    4.8035    1.9775    1.1176 C   0  0  0  0  0  0  0  0  0  0  0  0
    3.4278    1.5998    1.3823 C   0  0  0  0  0  0  0  0  0  0  0  0
    2.6161    0.9228    0.3720 C   0  0  0  0  0  0  0  0  0  0  0  0
    3.0357   -0.2866   -0.0446 O   0  0  0  0  0  0  0  0  0  0  0  0
    1.1552    0.8491    0.9068 C   0  0  0  0  0  0  0  0  0  0  0  0
    0.3352    0.1486   -0.1478 C   0  0  0  0  0  0  0  0  0  0  0  0
    0.7554   -1.1249   -0.4309 O   0  0  0  0  0  0  0  0  0  0  0  0
   -1.1522    0.2339    0.2075 C   0  0  0  0  0  0  0  0  0  0  0  0
   -1.4494   -0.3978    1.5042 C   0  0  0  0  0  0  0  0  0  0  0  0
   -2.8374   -0.3633    1.9802 C   0  0  0  0  0  0  0  0  0  0  0  0
   -3.9295   -1.0681    1.3108 C   0  0  1  0  0  0  0  0  0  0  0  0
   -5.0964   -0.7589    2.1066 O   0  0  0  0  0  0  0  0  0  0  0  0
   -4.2434   -0.8604   -0.1109 C   0  0  1  0  0  0  0  0  0  0  0  0
   -5.4242   -1.6645   -0.5146 N   0  0  0  0  0  0  0  0  0  0  0  0
   -6.4525   -0.7364   -0.8665 C   0  0  2  0  0  0  0  0  0  0  0  0
   -6.7885   -0.8277   -2.3526 C   0  0  0  0  0  0  0  0  0  0  0  0
   -7.7850    0.0720   -2.6925 O   0  0  0  0  0  0  0  0  0  0  0  0
   -6.0009    0.6470   -0.5185 C   0  0  1  0  0  0  0  0  0  0  0  0
   -6.4434    1.0968    0.7057 O   0  0  0  0  0  0  0  0  0  0  0  0
   -4.4853    0.5211   -0.5768 C   0  0  2  0  0  0  0  0  0  0  0  0
   -4.1586    0.5732   -1.9519 O   0  0  0  0  0  0  0  0  0  0  0  0
    6.5064   -3.0538   -1.9487 H   0  0  0  0  0  0  0  0  0  0  0  0
    8.4549   -1.8403   -1.5566 H   0  0  0  0  0  0  0  0  0  0  0  0
    7.1820   -0.8113   -2.3510 H   0  0  0  0  0  0  0  0  0  0  0  0
    7.5827   -1.0133    0.6584 H   0  0  0  0  0  0  0  0  0  0  0  0
    8.6389    0.5710   -1.3869 H   0  0  0  0  0  0  0  0  0  0  0  0
    5.3534   -0.7126   -0.1226 H   0  0  0  0  0  0  0  0  0  0  0  0
    5.8680    0.6854   -1.2234 H   0  0  0  0  0  0  0  0  0  0  0  0
    6.1839    0.5247    1.8449 H   0  0  0  0  0  0  0  0  0  0  0  0
    6.8853    1.7883    0.7931 H   0  0  0  0  0  0  0  0  0  0  0  0
    5.0907    2.6936    2.0131 H   0  0  0  0  0  0  0  0  0  0  0  0
    4.8005    2.7957    0.2654 H   0  0  0  0  0  0  0  0  0  0  0  0
    3.4264    0.8999    2.3014 H   0  0  0  0  0  0  0  0  0  0  0  0
    2.8666    2.5289    1.7610 H   0  0  0  0  0  0  0  0  0  0  0  0
    2.4760    1.5619   -0.5565 H   0  0  0  0  0  0  0  0  0  0  0  0
    2.9445   -1.0287    0.6133 H   0  0  0  0  0  0  0  0  0  0  0  0
    0.8351    1.8789    1.0626 H   0  0  0  0  0  0  0  0  0  0  0  0
    1.1544    0.2761    1.8564 H   0  0  0  0  0  0  0  0  0  0  0  0
    0.4246    0.7376   -1.1068 H   0  0  0  0  0  0  0  0  0  0  0  0
    0.0484   -1.7762   -0.5976 H   0  0  0  0  0  0  0  0  0  0  0  0
   -1.7032   -0.1624   -0.6189 H   0  0  0  0  0  0  0  0  0  0  0  0
   -1.3631    1.3451    0.2997 H   0  0  0  0  0  0  0  0  0  0  0  0
   -0.7917    0.0368    2.3286 H   0  0  0  0  0  0  0  0  0  0  0  0
   -1.1359   -1.5032    1.4972 H   0  0  0  0  0  0  0  0  0  0  0  0
   -3.1846    0.7190    2.1549 H   0  0  0  0  0  0  0  0  0  0  0  0
   -2.7759   -0.7538    3.0747 H   0  0  0  0  0  0  0  0  0  0  0  0
   -3.8122   -2.1705    1.4785 H   0  0  0  0  0  0  0  0  0  0  0  0
   -4.8647   -1.1325    2.9907 H   0  0  0  0  0  0  0  0  0  0  0  0
   -3.4384   -1.3411   -0.7442 H   0  0  0  0  0  0  0  0  0  0  0  0
   -5.6766   -2.3371    0.2192 H   0  0  0  0  0  0  0  0  0  0  0  0
   -7.3807   -0.9396   -0.2910 H   0  0  0  0  0  0  0  0  0  0  0  0
   -7.1853   -1.8558   -2.5135 H   0  0  0  0  0  0  0  0  0  0  0  0
   -5.8755   -0.7235   -2.9637 H   0  0  0  0  0  0  0  0  0  0  0  0
   -7.4357    0.9634   -2.9627 H   0  0  0  0  0  0  0  0  0  0  0  0
   -6.2843    1.3948   -1.3059 H   0  0  0  0  0  0  0  0  0  0  0  0
   -7.3493    0.7412    0.8598 H   0  0  0  0  0  0  0  0  0  0  0  0
   -3.9792    1.3044   -0.0150 H   0  0  0  0  0  0  0  0  0  0  0  0
   -4.1031    1.4954   -2.2724 H   0  0  0  0  0  0  0  0  0  0  0  0
  1  2  1  0
  2  3  1  0
  3  4  1  0
  3  5  1  0
  5  6  1  0
  6  7  1  0
  7  8  1  0
  8  9  1  0
  9 10  1  0
  9 11  1  0
 11 12  1  0
 12 13  1  0
 12 14  1  0
 14 15  1  0
 15 16  1  0
 16 17  1  0
 17 18  1  0
 17 19  1  0
 19 20  1  0
 20 21  1  0
 21 22  1  0
 22 23  1  0
 21 24  1  0
 24 25  1  0
 24 26  1  0
 26 27  1  0
 26 19  1  0
  1 28  1  0
  2 29  1  0
  2 30  1  0
  3 31  1  0
  4 32  1  0
  5 33  1  0
  5 34  1  0
  6 35  1  0
  6 36  1  0
  7 37  1  0
  7 38  1  0
  8 39  1  0
  8 40  1  0
  9 41  1  0
 10 42  1  0
 11 43  1  0
 11 44  1  0
 12 45  1  0
 13 46  1  0
 14 47  1  0
 14 48  1  0
 15 49  1  0
 15 50  1  0
 16 51  1  0
 16 52  1  0
 17 53  1  6
 18 54  1  0
 19 55  1  6
 20 56  1  0
 21 57  1  1
 22 58  1  0
 22 59  1  0
 23 60  1  0
 24 61  1  6
 25 62  1  0
 26 63  1  1
 27 64  1  0
M  END
$$$$
