
     RDKit          3D

 54 55  0  0  0  0  0  0  0  0999 V2000
   -3.7776   -2.3001    1.7802 C   0  0  0  0  0  0  0  0  0  0  0  0
   -3.6981   -2.0736    0.2849 C   0  0  0  0  0  0  0  0  0  0  0  0
   -4.2809   -3.2944   -0.3752 C   0  0  0  0  0  0  0  0  0  0  0  0
   -2.4192   -1.7900   -0.0607 O   0  0  0  0  0  0  0  0  0  0  0  0
   -2.1428   -0.6369   -0.5982 N   0  0  0  0  0  0  0  0  0  0  0  0
   -2.2998    0.4994    0.2551 C   0  0  1  0  0  0  0  0  0  0  0  0
   -1.2139    0.6752    1.2512 C   0  0  0  0  0  0  0  0  0  0  0  0
   -0.9872    1.7306    1.8614 O   0  0  0  0  0  0  0  0  0  0  0  0
   -0.3793   -0.4378    1.5287 N   0  0  0  0  0  0  0  0  0  0  0  0
    0.6374   -0.2986    2.4459 O   0  0  0  0  0  0  0  0  0  0  0  0
   -2.7082    1.7154   -0.4563 C   0  0  0  0  0  0  0  0  0  0  0  0
   -2.8921    2.9389    0.4038 C   0  0  0  0  0  0  0  0  0  0  0  0
   -4.0065    1.5033   -1.2058 C   0  0  0  0  0  0  0  0  0  0  0  0
   -0.9369   -0.5003   -1.7383 S   0  0  0  0  0  6  0  0  0  0  0  0
   -0.9340   -1.8149   -2.5426 O   0  0  0  0  0  0  0  0  0  0  0  0
   -1.2044    0.5403   -2.8234 O   0  0  0  0  0  0  0  0  0  0  0  0
    0.6865   -0.2873   -1.2255 C   0  0  0  0  0  0  0  0  0  0  0  0
    1.5836   -1.2943   -0.9778 C   0  0  0  0  0  0  0  0  0  0  0  0
    2.8788   -1.0660   -0.5665 C   0  0  0  0  0  0  0  0  0  0  0  0
    3.3467    0.2208   -0.3794 C   0  0  0  0  0  0  0  0  0  0  0  0
    4.7193    0.4815    0.0572 C   0  0  0  0  0  0  0  0  0  0  0  0
    5.0942    1.5573    0.8239 C   0  0  0  0  0  0  0  0  0  0  0  0
    6.4177    1.7251    1.1909 C   0  0  0  0  0  0  0  0  0  0  0  0
    7.3990    0.8343    0.8088 C   0  0  0  0  0  0  0  0  0  0  0  0
    7.0248   -0.2467    0.0390 C   0  0  0  0  0  0  0  0  0  0  0  0
    5.6918   -0.4150   -0.3303 C   0  0  0  0  0  0  0  0  0  0  0  0
    2.4559    1.2478   -0.6245 C   0  0  0  0  0  0  0  0  0  0  0  0
    1.1590    1.0019   -1.0369 C   0  0  0  0  0  0  0  0  0  0  0  0
   -3.0783   -1.7075    2.3650 H   0  0  0  0  0  0  0  0  0  0  0  0
   -3.5042   -3.3815    1.9622 H   0  0  0  0  0  0  0  0  0  0  0  0
   -4.8398   -2.2292    2.1243 H   0  0  0  0  0  0  0  0  0  0  0  0
   -4.3464   -1.2056    0.0483 H   0  0  0  0  0  0  0  0  0  0  0  0
   -3.5953   -4.1565   -0.3650 H   0  0  0  0  0  0  0  0  0  0  0  0
   -5.1780   -3.5850    0.2108 H   0  0  0  0  0  0  0  0  0  0  0  0
   -4.6207   -3.1093   -1.4048 H   0  0  0  0  0  0  0  0  0  0  0  0
   -3.1845    0.2126    0.9370 H   0  0  0  0  0  0  0  0  0  0  0  0
   -0.4649   -1.3743    1.1101 H   0  0  0  0  0  0  0  0  0  0  0  0
    0.5638    0.5878    2.8818 H   0  0  0  0  0  0  0  0  0  0  0  0
   -1.9429    2.0040   -1.2175 H   0  0  0  0  0  0  0  0  0  0  0  0
   -1.9226    3.4647    0.5904 H   0  0  0  0  0  0  0  0  0  0  0  0
   -3.4987    3.6549   -0.1965 H   0  0  0  0  0  0  0  0  0  0  0  0
   -3.4597    2.7444    1.3232 H   0  0  0  0  0  0  0  0  0  0  0  0
   -4.1632    2.3165   -1.9419 H   0  0  0  0  0  0  0  0  0  0  0  0
   -4.8259    1.5858   -0.4628 H   0  0  0  0  0  0  0  0  0  0  0  0
   -4.0397    0.4920   -1.6815 H   0  0  0  0  0  0  0  0  0  0  0  0
    1.2642   -2.3037   -1.1097 H   0  0  0  0  0  0  0  0  0  0  0  0
    3.5607   -1.9056   -0.3806 H   0  0  0  0  0  0  0  0  0  0  0  0
    4.3406    2.2585    1.1283 H   0  0  0  0  0  0  0  0  0  0  0  0
    6.7054    2.5665    1.7895 H   0  0  0  0  0  0  0  0  0  0  0  0
    8.4430    0.9616    1.0951 H   0  0  0  0  0  0  0  0  0  0  0  0
    7.7783   -0.9650   -0.2766 H   0  0  0  0  0  0  0  0  0  0  0  0
    5.4296   -1.2742   -0.9354 H   0  0  0  0  0  0  0  0  0  0  0  0
    2.8335    2.2566   -0.4744 H   0  0  0  0  0  0  0  0  0  0  0  0
    0.5319    1.8754   -1.2046 H   0  0  0  0  0  0  0  0  0  0  0  0
  1  2  1  0
  2  3  1  0
  2  4  1  0
  4  5  1  0
  5  6  1  0
  6  7  1  0
  7  8  2  0
  7  9  1  0
  9 10  1  0
  6 11  1  0
 11 12  1  0
 11 13  1  0
  5 14  1  0
 14 15  2  0
 14 16  2  0
 14 17  1  0
 17 18  2  0
 18 19  1  0
 19 20  2  0
 20 21  1  0
 21 22  2  0
 22 23  1  0
 23 24  2  0
 24 25  1  0
 25 26  2  0
 20 27  1  0
 27 28  2  0
 28 17  1  0
 26 21  1  0
  1 29  1  0
  1 30  1  0
  1 31  1  0
  2 32  1  0
  3 33  1  0
  3 34  1  0
  3 35  1  0
  6 36  1  1
  9 37  1  0
 10 38  1  0
 11 39  1  0
 12 40  1  0
 12 41  1  0
 12 42  1  0
 13 43  1  0
 13 44  1  0
 13 45  1  0
 18 46  1  0
 19 47  1  0
 22 48  1  0
 23 49  1  0
 24 50  1  0
 25 51  1  0
 26 52  1  0
 27 53  1  0
 28 54  1  0
M  END
$$$$
