
     RDKit          3D

 26 27  0  0  0  0  0  0  0  0999 V2000
   -0.6004    0.3002   -0.7983 C   0  0  0  0  0  0  0  0  0  0  0  0
    0.2422   -0.2879    0.2258 N   0  0  0  0  0  0  0  0  0  0  0  0
    1.6735   -0.1627    0.2807 C   0  0  0  0  0  0  0  0  0  0  0  0
    2.4255   -0.7523    1.2916 C   0  0  0  0  0  0  0  0  0  0  0  0
    3.7971   -0.6038    1.3013 C   0  0  0  0  0  0  0  0  0  0  0  0
    4.4417    0.1169    0.3304 C   0  0  0  0  0  0  0  0  0  0  0  0
    3.7267    0.7173   -0.6905 C   0  0  0  0  0  0  0  0  0  0  0  0
    2.3554    0.5555   -0.6803 C   0  0  0  0  0  0  0  0  0  0  0  0
   -2.0302   -0.0306   -0.5447 C   0  0  0  0  0  0  0  0  0  0  0  0
   -2.7044    0.8885    0.2529 C   0  0  0  0  0  0  0  0  0  0  0  0
   -4.0377    0.7391    0.5896 C   0  0  0  0  0  0  0  0  0  0  0  0
   -4.6517   -0.3890    0.0767 C   0  0  0  0  0  0  0  0  0  0  0  0
   -4.0124   -1.2851   -0.6951 N   0  0  0  0  0  0  0  0  0  0  0  0
   -2.7135   -1.1355   -1.0206 C   0  0  0  0  0  0  0  0  0  0  0  0
   -0.3251   -0.2014   -1.7652 H   0  0  0  0  0  0  0  0  0  0  0  0
   -0.4780    1.3999   -0.8809 H   0  0  0  0  0  0  0  0  0  0  0  0
   -0.2059   -0.8490    0.9910 H   0  0  0  0  0  0  0  0  0  0  0  0
    1.8622   -1.3097    2.0316 H   0  0  0  0  0  0  0  0  0  0  0  0
    4.2848   -1.1016    2.1299 H   0  0  0  0  0  0  0  0  0  0  0  0
    5.5218    0.2110    0.3723 H   0  0  0  0  0  0  0  0  0  0  0  0
    4.2439    1.2909   -1.4626 H   0  0  0  0  0  0  0  0  0  0  0  0
    1.7725    1.0157   -1.4686 H   0  0  0  0  0  0  0  0  0  0  0  0
   -2.2064    1.7839    0.6566 H   0  0  0  0  0  0  0  0  0  0  0  0
   -4.5489    1.4713    1.2167 H   0  0  0  0  0  0  0  0  0  0  0  0
   -5.6931   -0.5692    0.2997 H   0  0  0  0  0  0  0  0  0  0  0  0
   -2.1396   -1.8124   -1.6330 H   0  0  0  0  0  0  0  0  0  0  0  0
  1  2  1  0
  2  3  1  0
  3  4  2  0
  4  5  1  0
  5  6  2  0
  6  7  1  0
  7  8  2  0
  1  9  1  0
  9 10  2  0
 10 11  1  0
 11 12  2  0
 12 13  1  0
 13 14  2  0
  8  3  1  0
 14  9  1  0
  1 15  1  0
  1 16  1  0
  2 17  1  0
  4 18  1  0
  5 19  1  0
  6 20  1  0
  7 21  1  0
  8 22  1  0
 10 23  1  0
 11 24  1  0
 12 25  1  0
 14 26  1  0
M  END
$$$$
