
     RDKit          3D

 49 52  0  0  0  0  0  0  0  0999 V2000
    6.3815   -1.9168    0.4630 C   0  0  0  0  0  0  0  0  0  0  0  0
    5.1458   -1.1657    0.4783 N   0  0  0  0  0  0  0  0  0  0  0  0
    4.9869    0.0315   -0.2940 C   0  0  0  0  0  0  0  0  0  0  0  0
    5.9869    0.3747   -0.9753 O   0  0  0  0  0  0  0  0  0  0  0  0
    3.7573    0.8208   -0.3085 C   0  0  2  0  0  0  0  0  0  0  0  0
    3.2328    1.4235    1.0022 C   0  0  0  0  0  0  0  0  0  0  0  0
    2.4892    0.3826    0.3030 C   0  0  1  0  0  0  0  0  0  0  0  0
    1.2720    0.5591   -0.5184 C   0  0  1  0  0  0  0  0  0  0  0  0
    1.3768   -0.3984   -1.7184 C   0  0  0  0  0  0  0  0  0  0  0  0
    0.0777    0.1589    0.2706 C   0  0  0  0  0  0  0  0  0  0  0  0
   -0.6980   -0.9277   -0.0635 C   0  0  0  0  0  0  0  0  0  0  0  0
   -1.8215   -1.3007    0.6888 C   0  0  0  0  0  0  0  0  0  0  0  0
   -2.5379   -2.4909    0.2893 C   0  0  0  0  0  0  0  0  0  0  0  0
   -3.8227   -2.4530    0.0181 C   0  0  0  0  0  0  0  0  0  0  0  0
   -4.3633   -3.6693   -0.3391 F   0  0  0  0  0  0  0  0  0  0  0  0
   -4.6574   -1.2711   -0.0102 C   0  0  0  0  0  0  0  0  0  0  0  0
   -6.0137   -1.4687   -0.2269 C   0  0  0  0  0  0  0  0  0  0  0  0
   -6.8957   -0.4374   -0.3093 C   0  0  0  0  0  0  0  0  0  0  0  0
   -6.4344    0.8599   -0.1734 C   0  0  0  0  0  0  0  0  0  0  0  0
   -7.6181    2.3500   -0.2786 Br  0  0  0  0  0  0  0  0  0  0  0  0
   -5.0783    1.0000    0.0403 C   0  0  0  0  0  0  0  0  0  0  0  0
   -4.2288   -0.0168    0.1185 N   0  0  0  0  0  0  0  0  0  0  0  0
   -2.1788   -0.5812    1.7921 C   0  0  0  0  0  0  0  0  0  0  0  0
   -1.4233    0.5126    2.1532 C   0  0  0  0  0  0  0  0  0  0  0  0
   -0.3254    0.8557    1.3952 C   0  0  0  0  0  0  0  0  0  0  0  0
    0.3817    1.9349    1.7836 F   0  0  0  0  0  0  0  0  0  0  0  0
    1.0328    1.9097   -0.9858 N   0  0  0  0  0  0  0  0  0  0  0  0
    1.9160    2.6402   -1.5208 C   0  0  0  0  0  0  0  0  0  0  0  0
    1.6249    3.9401   -1.9543 N   0  0  0  0  0  0  0  0  0  0  0  0
    3.5562    1.9700   -1.7064 S   0  0  0  0  0  0  0  0  0  0  0  0
    7.2031   -1.3375   -0.0151 H   0  0  0  0  0  0  0  0  0  0  0  0
    6.7303   -2.1764    1.4884 H   0  0  0  0  0  0  0  0  0  0  0  0
    6.2836   -2.8444   -0.1664 H   0  0  0  0  0  0  0  0  0  0  0  0
    4.3668   -1.4965    1.0537 H   0  0  0  0  0  0  0  0  0  0  0  0
    2.8671    2.4467    0.9959 H   0  0  0  0  0  0  0  0  0  0  0  0
    3.7880    1.1602    1.9303 H   0  0  0  0  0  0  0  0  0  0  0  0
    2.5362   -0.6420    0.7813 H   0  0  0  0  0  0  0  0  0  0  0  0
    2.2845   -0.1471   -2.3211 H   0  0  0  0  0  0  0  0  0  0  0  0
    1.5394   -1.4162   -1.3164 H   0  0  0  0  0  0  0  0  0  0  0  0
    0.4659   -0.3677   -2.3214 H   0  0  0  0  0  0  0  0  0  0  0  0
   -0.4390   -1.5126   -0.9271 H   0  0  0  0  0  0  0  0  0  0  0  0
   -1.9511   -3.4060    0.2292 H   0  0  0  0  0  0  0  0  0  0  0  0
   -6.4385   -2.4778   -0.3425 H   0  0  0  0  0  0  0  0  0  0  0  0
   -7.9566   -0.5526   -0.4766 H   0  0  0  0  0  0  0  0  0  0  0  0
   -4.7255    2.0318    0.1462 H   0  0  0  0  0  0  0  0  0  0  0  0
   -3.0279   -0.8659    2.3888 H   0  0  0  0  0  0  0  0  0  0  0  0
   -1.7035    1.0855    3.0264 H   0  0  0  0  0  0  0  0  0  0  0  0
    2.0389    4.7493   -1.4217 H   0  0  0  0  0  0  0  0  0  0  0  0
    1.0170    4.1427   -2.7801 H   0  0  0  0  0  0  0  0  0  0  0  0
  1  2  1  0
  2  3  1  0
  3  4  2  0
  5  3  1  1
  5  6  1  0
  6  7  1  0
  7  8  1  0
  8  9  1  6
  8 10  1  0
 10 11  2  0
 11 12  1  0
 12 13  1  0
 13 14  2  0
 14 15  1  0
 14 16  1  0
 16 17  2  0
 17 18  1  0
 18 19  2  0
 19 20  1  0
 19 21  1  0
 21 22  2  0
 12 23  2  0
 23 24  1  0
 24 25  2  0
 25 26  1  0
  8 27  1  0
 27 28  2  0
 28 29  1  0
 28 30  1  0
  7  5  1  0
 25 10  1  0
 30  5  1  0
 22 16  1  0
  1 31  1  0
  1 32  1  0
  1 33  1  0
  2 34  1  0
  6 35  1  0
  6 36  1  0
  7 37  1  1
  9 38  1  0
  9 39  1  0
  9 40  1  0
 11 41  1  0
 13 42  1  0
 17 43  1  0
 18 44  1  0
 21 45  1  0
 23 46  1  0
 24 47  1  0
 29 48  1  0
 29 49  1  0
M  END
$$$$
