
     RDKit          3D

 54 56  0  0  0  0  0  0  0  0999 V2000
   -7.2830   -1.1863   -0.5254 C   0  0  0  0  0  0  0  0  0  0  0  0
   -6.2029   -0.1492   -0.1693 C   0  0  0  0  0  0  0  0  0  0  0  0
   -4.9785   -0.5124   -0.9754 C   0  0  0  0  0  0  0  0  0  0  0  0
   -6.7461    1.1918   -0.6202 C   0  0  0  0  0  0  0  0  0  0  0  0
   -6.0134   -0.2250    1.2416 N   0  0  0  0  0  0  0  0  0  0  0  0
   -4.9446    0.8905    1.9322 S   0  0  0  0  0  6  0  0  0  0  0  0
   -4.8994    0.6148    3.4318 O   0  0  0  0  0  0  0  0  0  0  0  0
   -5.4119    2.3156    1.8076 O   0  0  0  0  0  0  0  0  0  0  0  0
   -3.3038    0.7871    1.3669 C   0  0  0  0  0  0  0  0  0  0  0  0
   -2.8760    1.6080    0.3458 C   0  0  0  0  0  0  0  0  0  0  0  0
   -1.5687    1.5123   -0.0906 C   0  0  0  0  0  0  0  0  0  0  0  0
   -0.6785    0.6257    0.4585 C   0  0  0  0  0  0  0  0  0  0  0  0
    0.6566    0.5936   -0.0518 C   0  0  0  0  0  0  0  0  0  0  0  0
    1.3016    1.2769   -1.0139 C   0  0  0  0  0  0  0  0  0  0  0  0
    2.5956    1.0197   -1.2750 C   0  0  0  0  0  0  0  0  0  0  0  0
    3.4344    1.6238   -2.2340 C   0  0  0  0  0  0  0  0  0  0  0  0
    2.9578    2.6562   -3.1004 N   0  0  0  0  0  0  0  0  0  0  0  0
    4.7054    1.2462   -2.3618 N   0  0  0  0  0  0  0  0  0  0  0  0
    5.3287    0.3041   -1.6486 C   0  0  0  0  0  0  0  0  0  0  0  0
    4.5448   -0.3245   -0.6869 C   0  0  0  0  0  0  0  0  0  0  0  0
    5.0403   -1.3600    0.1731 C   0  0  0  0  0  0  0  0  0  0  0  0
    4.2887   -2.2205    0.6989 O   0  0  0  0  0  0  0  0  0  0  0  0
    6.4319   -1.4578    0.4727 N   0  0  0  0  0  0  0  0  0  0  0  0
    6.9128   -2.5160    1.3463 C   0  0  0  0  0  0  0  0  0  0  0  0
    8.4090   -2.3989    1.5010 C   0  0  0  0  0  0  0  0  0  0  0  0
    8.7597   -1.1762    2.0514 O   0  0  0  0  0  0  0  0  0  0  0  0
    3.2102    0.0487   -0.5288 C   0  0  0  0  0  0  0  0  0  0  0  0
    1.9654   -0.5210    0.5599 S   0  0  0  0  0  0  0  0  0  0  0  0
   -1.1092   -0.1921    1.4775 C   0  0  0  0  0  0  0  0  0  0  0  0
   -2.4196   -0.1097    1.9291 C   0  0  0  0  0  0  0  0  0  0  0  0
   -7.2308   -1.3788   -1.6174 H   0  0  0  0  0  0  0  0  0  0  0  0
   -7.0534   -2.1579   -0.0309 H   0  0  0  0  0  0  0  0  0  0  0  0
   -8.2868   -0.8246   -0.2349 H   0  0  0  0  0  0  0  0  0  0  0  0
   -4.2116   -0.8657   -0.2427 H   0  0  0  0  0  0  0  0  0  0  0  0
   -4.6084    0.3476   -1.5722 H   0  0  0  0  0  0  0  0  0  0  0  0
   -5.2183   -1.3870   -1.6052 H   0  0  0  0  0  0  0  0  0  0  0  0
   -7.0575    1.8055    0.2319 H   0  0  0  0  0  0  0  0  0  0  0  0
   -7.6308    1.0793   -1.2800 H   0  0  0  0  0  0  0  0  0  0  0  0
   -5.9663    1.6890   -1.2628 H   0  0  0  0  0  0  0  0  0  0  0  0
   -6.9423   -0.1308    1.7024 H   0  0  0  0  0  0  0  0  0  0  0  0
   -3.5572    2.3210   -0.1104 H   0  0  0  0  0  0  0  0  0  0  0  0
   -1.2713    2.1724   -0.8927 H   0  0  0  0  0  0  0  0  0  0  0  0
    0.7044    2.0606   -1.5751 H   0  0  0  0  0  0  0  0  0  0  0  0
    2.2005    2.4930   -3.7868 H   0  0  0  0  0  0  0  0  0  0  0  0
    3.3825    3.5993   -3.0417 H   0  0  0  0  0  0  0  0  0  0  0  0
    6.3474   -0.0115   -1.7373 H   0  0  0  0  0  0  0  0  0  0  0  0
    7.0953   -0.7664    0.0607 H   0  0  0  0  0  0  0  0  0  0  0  0
    6.4535   -2.4524    2.3644 H   0  0  0  0  0  0  0  0  0  0  0  0
    6.7139   -3.5266    0.9266 H   0  0  0  0  0  0  0  0  0  0  0  0
    8.8259   -2.3873    0.4510 H   0  0  0  0  0  0  0  0  0  0  0  0
    8.8618   -3.2656    1.9875 H   0  0  0  0  0  0  0  0  0  0  0  0
    9.5121   -0.7366    1.5986 H   0  0  0  0  0  0  0  0  0  0  0  0
   -0.4014   -0.8943    1.9105 H   0  0  0  0  0  0  0  0  0  0  0  0
   -2.7685   -0.7475    2.7290 H   0  0  0  0  0  0  0  0  0  0  0  0
  1  2  1  0
  2  3  1  0
  2  4  1  0
  2  5  1  0
  5  6  1  0
  6  7  2  0
  6  8  2  0
  6  9  1  0
  9 10  2  0
 10 11  1  0
 11 12  2  0
 12 13  1  0
 13 14  2  0
 14 15  1  0
 15 16  2  0
 16 17  1  0
 16 18  1  0
 18 19  2  0
 19 20  1  0
 20 21  1  0
 21 22  2  0
 21 23  1  0
 23 24  1  0
 24 25  1  0
 25 26  1  0
 20 27  2  0
 27 28  1  0
 12 29  1  0
 29 30  2  0
 30  9  1  0
 28 13  1  0
 27 15  1  0
  1 31  1  0
  1 32  1  0
  1 33  1  0
  3 34  1  0
  3 35  1  0
  3 36  1  0
  4 37  1  0
  4 38  1  0
  4 39  1  0
  5 40  1  0
 10 41  1  0
 11 42  1  0
 14 43  1  0
 17 44  1  0
 17 45  1  0
 19 46  1  0
 23 47  1  0
 24 48  1  0
 24 49  1  0
 25 50  1  0
 25 51  1  0
 26 52  1  0
 29 53  1  0
 30 54  1  0
M  END
$$$$
