
     RDKit          3D

 57 61  0  0  0  0  0  0  0  0999 V2000
    3.2029    0.2482   -0.1713 O   0  0  0  0  0  0  0  0  0  0  0  0
    3.0412   -0.7060   -0.9806 C   0  0  0  0  0  0  0  0  0  0  0  0
    2.2340   -0.4599   -2.1176 N   0  0  0  0  0  0  0  0  0  0  0  0
    1.6114    0.8087   -2.3693 C   0  0  0  0  0  0  0  0  0  0  0  0
    2.2905    1.7519   -3.0970 C   0  0  0  0  0  0  0  0  0  0  0  0
    1.6468    2.9480   -3.3075 C   0  0  0  0  0  0  0  0  0  0  0  0
    0.3702    3.1995   -2.8116 C   0  0  0  0  0  0  0  0  0  0  0  0
   -0.2867    2.2428   -2.0885 C   0  0  0  0  0  0  0  0  0  0  0  0
   -1.6239    2.4495   -1.5446 C   0  0  0  0  0  0  0  0  0  0  0  0
   -2.2983    3.6190   -1.7291 C   0  0  0  0  0  0  0  0  0  0  0  0
   -3.5544    3.7866   -1.2067 N   0  0  0  0  0  0  0  0  0  0  0  0
   -4.4012    4.8371   -1.2583 C   0  0  0  0  0  0  0  0  0  0  0  0
   -5.5125    4.4602   -0.5700 C   0  0  0  0  0  0  0  0  0  0  0  0
   -5.3173    3.2125   -0.1250 N   0  0  0  0  0  0  0  0  0  0  0  0
   -4.1049    2.7823   -0.5136 C   0  0  0  0  0  0  0  0  0  0  0  0
   -3.4412    1.5751   -0.3078 C   0  0  0  0  0  0  0  0  0  0  0  0
   -4.0883    0.5661    0.4331 N   0  0  0  0  0  0  0  0  0  0  0  0
   -3.4458   -0.7007    0.6745 C   0  0  0  0  0  0  0  0  0  0  0  0
   -4.2954   -1.6143    1.4701 C   0  0  0  0  0  0  0  0  0  0  0  0
   -4.2279   -1.6199    2.8477 C   0  0  0  0  0  0  0  0  0  0  0  0
   -5.0191   -2.4706    3.5854 C   0  0  0  0  0  0  0  0  0  0  0  0
   -5.8709   -3.3095    2.9640 N   0  0  0  0  0  0  0  0  0  0  0  0
   -5.9635   -3.3321    1.6294 C   0  0  0  0  0  0  0  0  0  0  0  0
   -5.1849   -2.4936    0.8782 C   0  0  0  0  0  0  0  0  0  0  0  0
   -2.2189    1.4464   -0.8310 N   0  0  0  0  0  0  0  0  0  0  0  0
    0.3508    1.0095   -1.8591 C   0  0  0  0  0  0  0  0  0  0  0  0
    3.6586   -1.9714   -0.7353 N   0  0  0  0  0  0  0  0  0  0  0  0
    4.4653   -2.1937    0.4146 C   0  0  0  0  0  0  0  0  0  0  0  0
    3.9226   -2.6555    1.6016 C   0  0  0  0  0  0  0  0  0  0  0  0
    4.7076   -2.8673    2.7061 C   0  0  0  0  0  0  0  0  0  0  0  0
    6.0679   -2.6102    2.6185 C   0  0  0  0  0  0  0  0  0  0  0  0
    6.5880   -2.1529    1.4336 C   0  0  0  0  0  0  0  0  0  0  0  0
    8.0483   -1.8848    1.3649 C   0  0  0  0  0  0  0  0  0  0  0  0
    8.4379   -1.7938    0.0267 F   0  0  0  0  0  0  0  0  0  0  0  0
    8.3698   -0.7038    2.0365 F   0  0  0  0  0  0  0  0  0  0  0  0
    8.7463   -2.9308    1.9061 F   0  0  0  0  0  0  0  0  0  0  0  0
    5.8178   -1.9327    0.3101 C   0  0  0  0  0  0  0  0  0  0  0  0
    2.1051   -1.2561   -2.7831 H   0  0  0  0  0  0  0  0  0  0  0  0
    3.2762    1.4946   -3.4527 H   0  0  0  0  0  0  0  0  0  0  0  0
    2.1478    3.7078   -3.8719 H   0  0  0  0  0  0  0  0  0  0  0  0
   -0.0792    4.1606   -3.0128 H   0  0  0  0  0  0  0  0  0  0  0  0
   -1.8556    4.4255   -2.2860 H   0  0  0  0  0  0  0  0  0  0  0  0
   -4.1673    5.7505   -1.7625 H   0  0  0  0  0  0  0  0  0  0  0  0
   -6.3976    5.0524   -0.4060 H   0  0  0  0  0  0  0  0  0  0  0  0
   -5.0385    0.7247    0.8145 H   0  0  0  0  0  0  0  0  0  0  0  0
   -3.2356   -1.1651   -0.3234 H   0  0  0  0  0  0  0  0  0  0  0  0
   -2.4515   -0.5735    1.1538 H   0  0  0  0  0  0  0  0  0  0  0  0
   -3.5533   -0.9575    3.3795 H   0  0  0  0  0  0  0  0  0  0  0  0
   -4.9795   -2.4885    4.6639 H   0  0  0  0  0  0  0  0  0  0  0  0
   -6.6420   -4.0005    1.1358 H   0  0  0  0  0  0  0  0  0  0  0  0
   -5.2558   -2.5079   -0.1963 H   0  0  0  0  0  0  0  0  0  0  0  0
   -0.1838    0.2641   -1.2850 H   0  0  0  0  0  0  0  0  0  0  0  0
    3.5023   -2.7375   -1.4270 H   0  0  0  0  0  0  0  0  0  0  0  0
    2.8458   -2.8643    1.6876 H   0  0  0  0  0  0  0  0  0  0  0  0
    4.2440   -3.2280    3.6115 H   0  0  0  0  0  0  0  0  0  0  0  0
    6.7052   -2.7698    3.4753 H   0  0  0  0  0  0  0  0  0  0  0  0
    6.2905   -1.5712   -0.5929 H   0  0  0  0  0  0  0  0  0  0  0  0
  1  2  2  0
  2  3  1  0
  3  4  1  0
  4  5  2  0
  5  6  1  0
  6  7  2  0
  7  8  1  0
  8  9  1  0
  9 10  2  0
 10 11  1  0
 11 12  1  0
 12 13  2  0
 13 14  1  0
 14 15  2  0
 15 16  1  0
 16 17  1  0
 17 18  1  0
 18 19  1  0
 19 20  2  0
 20 21  1  0
 21 22  2  0
 22 23  1  0
 23 24  2  0
 16 25  2  0
  8 26  2  0
  2 27  1  0
 27 28  1  0
 28 29  2  0
 29 30  1  0
 30 31  2  0
 31 32  1  0
 32 33  1  0
 33 34  1  0
 33 35  1  0
 33 36  1  0
 32 37  2  0
 26  4  1  0
 37 28  1  0
 25  9  1  0
 15 11  1  0
 24 19  1  0
  3 38  1  0
  5 39  1  0
  6 40  1  0
  7 41  1  0
 10 42  1  0
 12 43  1  0
 13 44  1  0
 17 45  1  0
 18 46  1  0
 18 47  1  0
 20 48  1  0
 21 49  1  0
 23 50  1  0
 24 51  1  0
 26 52  1  0
 27 53  1  0
 29 54  1  0
 30 55  1  0
 31 56  1  0
 37 57  1  0
M  END
$$$$
