
     RDKit          3D

 26 27  0  0  0  0  0  0  0  0999 V2000
   -2.5265   -1.5298    1.6309 N   0  0  0  0  0  0  0  0  0  0  0  0
   -3.0574   -0.5538    0.7509 C   0  0  0  0  0  0  0  0  0  0  0  0
   -2.2880    0.2754   -0.0194 C   0  0  0  0  0  0  0  0  0  0  0  0
   -0.8922    0.3569   -0.1195 N   0  0  0  0  0  0  0  0  0  0  0  0
   -0.0496   -0.4880    0.2392 N   0  0  0  0  0  0  0  0  0  0  0  0
    1.3569   -0.3335    0.1044 C   0  0  0  0  0  0  0  0  0  0  0  0
    2.1221   -1.2172    0.8535 C   0  0  0  0  0  0  0  0  0  0  0  0
    3.4984   -1.1267    0.7732 C   0  0  0  0  0  0  0  0  0  0  0  0
    4.0294   -0.1574   -0.0520 C   0  0  0  0  0  0  0  0  0  0  0  0
    5.4204   -0.1185   -0.0885 O   0  0  0  0  0  0  0  0  0  0  0  0
    3.3046    0.7379   -0.8111 C   0  0  0  0  0  0  0  0  0  0  0  0
    1.9160    0.6291   -0.7152 C   0  0  0  0  0  0  0  0  0  0  0  0
   -3.1297    1.1065   -0.7615 C   0  0  0  0  0  0  0  0  0  0  0  0
   -2.7180    2.1249   -1.6976 N   0  0  0  0  0  0  0  0  0  0  0  0
   -4.3865    0.7550   -0.4177 N   0  0  0  0  0  0  0  0  0  0  0  0
   -4.3336   -0.2225    0.4725 N   0  0  0  0  0  0  0  0  0  0  0  0
   -2.6635   -2.4831    1.2320 H   0  0  0  0  0  0  0  0  0  0  0  0
   -2.0572   -1.4736    2.5395 H   0  0  0  0  0  0  0  0  0  0  0  0
    1.6688   -1.9644    1.4897 H   0  0  0  0  0  0  0  0  0  0  0  0
    4.1159   -1.8019    1.3454 H   0  0  0  0  0  0  0  0  0  0  0  0
    5.9798    0.5957   -0.4928 H   0  0  0  0  0  0  0  0  0  0  0  0
    3.7829    1.4768   -1.4403 H   0  0  0  0  0  0  0  0  0  0  0  0
    1.2917    1.2982   -1.2822 H   0  0  0  0  0  0  0  0  0  0  0  0
   -3.0630    1.8066   -2.6299 H   0  0  0  0  0  0  0  0  0  0  0  0
   -2.1752    2.9923   -1.4065 H   0  0  0  0  0  0  0  0  0  0  0  0
   -5.1463   -0.6854    0.9096 H   0  0  0  0  0  0  0  0  0  0  0  0
  1  2  1  0
  2  3  2  0
  3  4  1  0
  4  5  2  0
  5  6  1  0
  6  7  2  0
  7  8  1  0
  8  9  2  0
  9 10  1  0
  9 11  1  0
 11 12  2  0
  3 13  1  0
 13 14  1  0
 13 15  2  0
 15 16  1  0
 16  2  1  0
 12  6  1  0
  1 17  1  0
  1 18  1  0
  7 19  1  0
  8 20  1  0
 10 21  1  0
 11 22  1  0
 12 23  1  0
 14 24  1  0
 14 25  1  0
 16 26  1  0
M  END
$$$$
