
     RDKit          3D

 39 43  0  0  0  0  0  0  0  0999 V2000
    1.1998   -5.3618    0.2442 N   0  0  0  0  0  0  0  0  0  0  0  0
    0.4057   -4.5061    0.2241 C   0  0  0  0  0  0  0  0  0  0  0  0
   -0.5637   -3.4476    0.2224 C   0  0  0  0  0  0  0  0  0  0  0  0
   -1.8927   -3.7373    0.4525 C   0  0  0  0  0  0  0  0  0  0  0  0
   -2.8450   -2.7335    0.4556 C   0  0  0  0  0  0  0  0  0  0  0  0
   -2.4776   -1.4091    0.2259 C   0  0  0  0  0  0  0  0  0  0  0  0
   -3.4537   -0.4388    0.2369 C   0  0  0  0  0  0  0  0  0  0  0  0
   -3.0753    0.8653    0.0083 C   0  0  0  0  0  0  0  0  0  0  0  0
   -3.9593    1.9227   -0.0055 C   0  0  0  0  0  0  0  0  0  0  0  0
   -5.1694    1.6715    0.2023 O   0  0  0  0  0  0  0  0  0  0  0  0
   -3.5734    3.1919   -0.2305 N   0  0  0  0  0  0  0  0  0  0  0  0
   -2.2650    3.4096   -0.4480 C   0  0  0  0  0  0  0  0  0  0  0  0
   -1.9100    4.6027   -0.6584 O   0  0  0  0  0  0  0  0  0  0  0  0
   -1.3369    2.4360   -0.4517 N   0  0  0  0  0  0  0  0  0  0  0  0
   -1.6613    1.1408   -0.2321 C   0  0  0  0  0  0  0  0  0  0  0  0
   -0.7621    0.1491   -0.2292 N   0  0  0  0  0  0  0  0  0  0  0  0
    0.6068    0.4344   -0.4643 C   0  0  0  0  0  0  0  0  0  0  0  0
    1.0069    0.6961   -1.7823 C   0  0  0  0  0  0  0  0  0  0  0  0
    2.3152    0.9775   -2.0680 C   0  0  0  0  0  0  0  0  0  0  0  0
    3.2240    0.9968   -1.0326 C   0  0  0  0  0  0  0  0  0  0  0  0
    2.8647    0.7444    0.2723 C   0  0  0  0  0  0  0  0  0  0  0  0
    3.8449    0.7765    1.3095 N   0  0  0  0  0  0  0  0  0  0  0  0
    5.1517    0.4617    1.2549 C   0  0  0  0  0  0  0  0  0  0  0  0
    5.6998    0.6426    2.4897 N   0  0  0  0  0  0  0  0  0  0  0  0
    4.7302    1.0598    3.2680 N   0  0  0  0  0  0  0  0  0  0  0  0
    3.6212    1.1397    2.5615 N   0  0  0  0  0  0  0  0  0  0  0  0
    1.5475    0.4643    0.5379 C   0  0  0  0  0  0  0  0  0  0  0  0
   -1.1384   -1.1181   -0.0058 C   0  0  0  0  0  0  0  0  0  0  0  0
   -0.1978   -2.1364   -0.0053 C   0  0  0  0  0  0  0  0  0  0  0  0
   -2.2032   -4.7732    0.6355 H   0  0  0  0  0  0  0  0  0  0  0  0
   -3.8954   -2.9380    0.6342 H   0  0  0  0  0  0  0  0  0  0  0  0
   -4.4967   -0.6815    0.4196 H   0  0  0  0  0  0  0  0  0  0  0  0
   -4.2664    3.9874   -0.2370 H   0  0  0  0  0  0  0  0  0  0  0  0
    0.2860    0.6785   -2.5868 H   0  0  0  0  0  0  0  0  0  0  0  0
    2.6444    1.1832   -3.0844 H   0  0  0  0  0  0  0  0  0  0  0  0
    4.2808    1.2209   -1.2412 H   0  0  0  0  0  0  0  0  0  0  0  0
    5.6597    0.1225    0.3625 H   0  0  0  0  0  0  0  0  0  0  0  0
    1.1978    0.2570    1.5392 H   0  0  0  0  0  0  0  0  0  0  0  0
    0.8560   -1.9514   -0.1818 H   0  0  0  0  0  0  0  0  0  0  0  0
  1  2  3  0
  2  3  1  0
  3  4  2  0
  4  5  1  0
  5  6  2  0
  6  7  1  0
  7  8  2  0
  8  9  1  0
  9 10  2  0
  9 11  1  0
 11 12  1  0
 12 13  2  0
 12 14  1  0
 14 15  2  0
 15 16  1  0
 16 17  1  0
 17 18  2  0
 18 19  1  0
 19 20  2  0
 20 21  1  0
 21 22  1  0
 22 23  1  0
 23 24  2  0
 24 25  1  0
 25 26  2  0
 21 27  2  0
 16 28  1  0
 28 29  2  0
 29  3  1  0
 28  6  1  0
 15  8  1  0
 27 17  1  0
 26 22  1  0
  4 30  1  0
  5 31  1  0
  7 32  1  0
 11 33  1  0
 18 34  1  0
 19 35  1  0
 20 36  1  0
 23 37  1  0
 27 38  1  0
 29 39  1  0
M  END
$$$$
