
     RDKit          3D

 37 40  0  0  0  0  0  0  0  0999 V2000
   -0.0788   -0.4930    0.5595 O   0  0  0  0  0  0  0  0  0  0  0  0
   -0.2039   -0.0773   -0.6164 C   0  0  0  0  0  0  0  0  0  0  0  0
    0.8376    0.8262   -1.1488 C   0  0  0  0  0  0  0  0  0  0  0  0
    1.9196    1.1144   -0.2068 C   0  0  0  0  0  0  0  0  0  0  0  0
    1.9924    2.3191    0.4579 C   0  0  0  0  0  0  0  0  0  0  0  0
    3.0225    2.5540    1.3339 C   0  0  0  0  0  0  0  0  0  0  0  0
    3.9751    1.5819    1.5410 C   0  0  0  0  0  0  0  0  0  0  0  0
    3.9204    0.3709    0.8864 C   0  0  0  0  0  0  0  0  0  0  0  0
    4.8691   -0.5660    1.1065 N   0  0  0  0  0  0  0  0  0  0  0  0
    4.8120   -1.7595    0.4573 C   0  0  0  0  0  0  0  0  0  0  0  0
    3.7715   -1.9896   -0.4241 C   0  0  0  0  0  0  0  0  0  0  0  0
    2.7806   -1.0597   -0.6788 C   0  0  0  0  0  0  0  0  0  0  0  0
    2.8729    0.1362   -0.0025 C   0  0  0  0  0  0  0  0  0  0  0  0
   -1.3190   -0.4857   -1.3684 N   0  0  0  0  0  0  0  0  0  0  0  0
   -2.2709   -1.3526   -0.7794 C   0  0  0  0  0  0  0  0  0  0  0  0
   -2.0579   -3.1570   -0.7868 S   0  0  0  0  0  0  0  0  0  0  0  0
   -3.6052   -3.4597    0.0983 C   0  0  0  0  0  0  0  0  0  0  0  0
   -4.1343   -2.2039    0.3163 C   0  0  0  0  0  0  0  0  0  0  0  0
   -5.7125   -2.0938    1.1950 Cl  0  0  0  0  0  0  0  0  0  0  0  0
   -3.4375   -1.1482   -0.1398 C   0  0  0  0  0  0  0  0  0  0  0  0
   -3.9479    0.2464    0.0240 C   0  0  0  0  0  0  0  0  0  0  0  0
   -5.0778    0.6125    0.6364 N   0  0  0  0  0  0  0  0  0  0  0  0
   -5.2449    1.9174    0.5960 N   0  0  0  0  0  0  0  0  0  0  0  0
   -4.2019    2.4316   -0.0584 C   0  0  0  0  0  0  0  0  0  0  0  0
   -3.4096    1.3893   -0.4058 N   0  0  0  0  0  0  0  0  0  0  0  0
    1.1845    0.4864   -2.1429 H   0  0  0  0  0  0  0  0  0  0  0  0
    0.3093    1.8023   -1.3637 H   0  0  0  0  0  0  0  0  0  0  0  0
    1.2402    3.0781    0.2908 H   0  0  0  0  0  0  0  0  0  0  0  0
    3.0719    3.5216    1.8600 H   0  0  0  0  0  0  0  0  0  0  0  0
    4.7992    1.7630    2.2382 H   0  0  0  0  0  0  0  0  0  0  0  0
    5.5838   -2.4663    0.6645 H   0  0  0  0  0  0  0  0  0  0  0  0
    3.7327   -2.9513   -0.9425 H   0  0  0  0  0  0  0  0  0  0  0  0
    1.9625   -1.2270   -1.3655 H   0  0  0  0  0  0  0  0  0  0  0  0
   -1.4510   -0.1655   -2.3339 H   0  0  0  0  0  0  0  0  0  0  0  0
   -3.9610   -4.4764    0.3605 H   0  0  0  0  0  0  0  0  0  0  0  0
   -4.0228    3.4901   -0.2717 H   0  0  0  0  0  0  0  0  0  0  0  0
   -2.5212    1.4911   -0.9348 H   0  0  0  0  0  0  0  0  0  0  0  0
  1  2  2  0
  2  3  1  0
  3  4  1  0
  4  5  2  0
  5  6  1  0
  6  7  2  0
  7  8  1  0
  8  9  2  0
  9 10  1  0
 10 11  2  0
 11 12  1  0
 12 13  2  0
  2 14  1  0
 14 15  1  0
 15 16  1  0
 16 17  1  0
 17 18  2  0
 18 19  1  0
 18 20  1  0
 20 21  1  0
 21 22  2  0
 22 23  1  0
 23 24  2  0
 24 25  1  0
 13  4  1  0
 20 15  2  0
 25 21  1  0
 13  8  1  0
  3 26  1  0
  3 27  1  0
  5 28  1  0
  6 29  1  0
  7 30  1  0
 10 31  1  0
 11 32  1  0
 12 33  1  0
 14 34  1  0
 17 35  1  0
 24 36  1  0
 25 37  1  0
M  END
$$$$
