
     RDKit          3D

 41 45  0  0  0  0  0  0  0  0999 V2000
    1.6274    3.0473   -2.2164 O   0  0  0  0  0  0  0  0  0  0  0  0
    0.9951    2.1780   -1.5667 C   0  0  0  0  0  0  0  0  0  0  0  0
   -0.3439    2.1614   -1.4962 N   0  0  0  0  0  0  0  0  0  0  0  0
   -0.9631    1.1948   -0.7774 C   0  0  0  0  0  0  0  0  0  0  0  0
   -2.3252    1.1601   -0.6931 C   0  0  0  0  0  0  0  0  0  0  0  0
   -3.0172    0.1908    0.0309 C   0  0  0  0  0  0  0  0  0  0  0  0
   -4.4761    0.2075    0.0877 C   0  0  0  0  0  0  0  0  0  0  0  0
   -5.1721    1.3870    0.3487 C   0  0  0  0  0  0  0  0  0  0  0  0
   -6.5472    1.3564    0.3972 C   0  0  0  0  0  0  0  0  0  0  0  0
   -7.2737    0.2054    0.1982 C   0  0  0  0  0  0  0  0  0  0  0  0
   -6.5958   -0.9662   -0.0606 C   0  0  0  0  0  0  0  0  0  0  0  0
   -5.2146   -0.9394   -0.1101 C   0  0  0  0  0  0  0  0  0  0  0  0
   -4.3610   -2.4490   -0.4485 Cl  0  0  0  0  0  0  0  0  0  0  0  0
   -2.2532   -0.7542    0.6740 C   0  0  0  0  0  0  0  0  0  0  0  0
   -0.8596   -0.7600    0.6171 C   0  0  0  0  0  0  0  0  0  0  0  0
   -0.2382    0.2247   -0.1149 C   0  0  0  0  0  0  0  0  0  0  0  0
    1.1520    0.2129   -0.1672 C   0  0  0  0  0  0  0  0  0  0  0  0
    2.1104   -0.5680    0.3497 N   0  0  0  0  0  0  0  0  0  0  0  0
    3.3321   -0.0965   -0.0412 C   0  0  0  0  0  0  0  0  0  0  0  0
    4.6225   -0.6755    0.3167 C   0  0  0  0  0  0  0  0  0  0  0  0
    5.8347   -0.1824   -0.0893 C   0  0  0  0  0  0  0  0  0  0  0  0
    5.8710    0.9086   -0.8716 F   0  0  0  0  0  0  0  0  0  0  0  0
    7.0411   -0.7860    0.2899 C   0  0  0  0  0  0  0  0  0  0  0  0
    7.0548   -1.9042    1.0896 C   0  0  0  0  0  0  0  0  0  0  0  0
    5.8423   -2.4081    1.5032 C   0  0  0  0  0  0  0  0  0  0  0  0
    4.6522   -1.8147    1.1307 C   0  0  0  0  0  0  0  0  0  0  0  0
    3.1291   -2.4722    1.6679 Cl  0  0  0  0  0  0  0  0  0  0  0  0
    3.0875    0.9782   -0.7996 N   0  0  0  0  0  0  0  0  0  0  0  0
    1.7462    1.2063   -0.9041 C   0  0  0  0  0  0  0  0  0  0  0  0
   -0.9203    2.8959   -1.9966 H   0  0  0  0  0  0  0  0  0  0  0  0
   -2.8905    1.9151   -1.2086 H   0  0  0  0  0  0  0  0  0  0  0  0
   -4.5927    2.2808    0.5027 H   0  0  0  0  0  0  0  0  0  0  0  0
   -7.1055    2.2670    0.5995 H   0  0  0  0  0  0  0  0  0  0  0  0
   -8.3649    0.2107    0.2425 H   0  0  0  0  0  0  0  0  0  0  0  0
   -7.1317   -1.8929   -0.2228 H   0  0  0  0  0  0  0  0  0  0  0  0
   -2.7232   -1.5304    1.2533 H   0  0  0  0  0  0  0  0  0  0  0  0
   -0.3041   -1.5256    1.1407 H   0  0  0  0  0  0  0  0  0  0  0  0
    7.9869   -0.3719   -0.0478 H   0  0  0  0  0  0  0  0  0  0  0  0
    7.9574   -2.4067    1.4096 H   0  0  0  0  0  0  0  0  0  0  0  0
    5.8376   -3.2940    2.1374 H   0  0  0  0  0  0  0  0  0  0  0  0
    3.7935    1.6092   -1.2820 H   0  0  0  0  0  0  0  0  0  0  0  0
  1  2  2  0
  2  3  1  0
  3  4  1  0
  4  5  2  0
  5  6  1  0
  6  7  1  0
  7  8  2  0
  8  9  1  0
  9 10  2  0
 10 11  1  0
 11 12  2  0
 12 13  1  0
  6 14  2  0
 14 15  1  0
 15 16  2  0
 16 17  1  0
 17 18  1  0
 18 19  2  0
 19 20  1  0
 20 21  2  0
 21 22  1  0
 21 23  1  0
 23 24  2  0
 24 25  1  0
 25 26  2  0
 26 27  1  0
 19 28  1  0
 28 29  1  0
 29  2  1  0
 16  4  1  0
 29 17  2  0
 12  7  1  0
 26 20  1  0
  3 30  1  0
  5 31  1  0
  8 32  1  0
  9 33  1  0
 10 34  1  0
 11 35  1  0
 14 36  1  0
 15 37  1  0
 23 38  1  0
 24 39  1  0
 25 40  1  0
 28 41  1  0
M  END
$$$$
