
     RDKit          3D

 45 48  0  0  0  0  0  0  0  0999 V2000
   -4.9813    2.7159    0.6996 C   0  0  0  0  0  0  0  0  0  0  0  0
   -5.3608    1.3274    0.3002 C   0  0  0  0  0  0  0  0  0  0  0  0
   -6.5650    1.0480    0.0730 O   0  0  0  0  0  0  0  0  0  0  0  0
   -4.3881    0.3081    0.1698 N   0  0  0  0  0  0  0  0  0  0  0  0
   -4.8207   -1.0014   -0.2165 C   0  0  0  0  0  0  0  0  0  0  0  0
   -3.9615   -2.1053    0.3230 C   0  0  0  0  0  0  0  0  0  0  0  0
   -2.5073   -1.7654    0.1798 C   0  0  0  0  0  0  0  0  0  0  0  0
   -2.0777   -0.4688    0.2361 C   0  0  0  0  0  0  0  0  0  0  0  0
   -0.7058   -0.4515    0.0765 C   0  0  0  0  0  0  0  0  0  0  0  0
    0.1395    0.6955    0.0796 N   0  0  0  0  0  0  0  0  0  0  0  0
    1.5341    0.6281   -0.1184 C   0  0  0  0  0  0  0  0  0  0  0  0
    2.2773    1.7850    0.1599 C   0  0  0  0  0  0  0  0  0  0  0  0
    3.6538    1.8144   -0.0145 C   0  0  0  0  0  0  0  0  0  0  0  0
    4.3341    0.7184   -0.4632 C   0  0  0  0  0  0  0  0  0  0  0  0
    5.7680    0.7698   -0.6380 C   0  0  0  0  0  0  0  0  0  0  0  0
    6.5760    0.1090   -1.5408 C   0  0  0  0  0  0  0  0  0  0  0  0
    7.8441    0.4931   -1.3012 N   0  0  0  0  0  0  0  0  0  0  0  0
    7.8924    1.3590   -0.2998 N   0  0  0  0  0  0  0  0  0  0  0  0
    6.6401    1.5408    0.1175 C   0  0  0  0  0  0  0  0  0  0  0  0
    3.6378   -0.4274   -0.7443 C   0  0  0  0  0  0  0  0  0  0  0  0
    2.2527   -0.4363   -0.5622 C   0  0  0  0  0  0  0  0  0  0  0  0
   -0.3670   -1.7359   -0.0691 N   0  0  0  0  0  0  0  0  0  0  0  0
   -1.4178   -2.5304   -0.0112 N   0  0  0  0  0  0  0  0  0  0  0  0
   -1.4585   -3.9912   -0.1269 C   0  0  0  0  0  0  0  0  0  0  0  0
   -3.0108    0.6621    0.4387 C   0  0  0  0  0  0  0  0  0  0  0  0
   -3.8983    2.8291    0.6064 H   0  0  0  0  0  0  0  0  0  0  0  0
   -5.3598    2.9554    1.7215 H   0  0  0  0  0  0  0  0  0  0  0  0
   -5.4553    3.4083   -0.0470 H   0  0  0  0  0  0  0  0  0  0  0  0
   -4.9497   -1.1038   -1.3182 H   0  0  0  0  0  0  0  0  0  0  0  0
   -5.8483   -1.1593    0.2160 H   0  0  0  0  0  0  0  0  0  0  0  0
   -4.1614   -2.2272    1.4047 H   0  0  0  0  0  0  0  0  0  0  0  0
   -4.1422   -3.0392   -0.2286 H   0  0  0  0  0  0  0  0  0  0  0  0
   -0.3262    1.6507    0.2392 H   0  0  0  0  0  0  0  0  0  0  0  0
    1.7510    2.6577    0.5156 H   0  0  0  0  0  0  0  0  0  0  0  0
    4.1749    2.7530    0.2221 H   0  0  0  0  0  0  0  0  0  0  0  0
    6.2115   -0.5850   -2.2900 H   0  0  0  0  0  0  0  0  0  0  0  0
    8.7892    1.7864    0.0513 H   0  0  0  0  0  0  0  0  0  0  0  0
    6.3849    2.2116    0.9413 H   0  0  0  0  0  0  0  0  0  0  0  0
    4.1691   -1.2970   -1.0993 H   0  0  0  0  0  0  0  0  0  0  0  0
    1.7433   -1.3529   -0.8003 H   0  0  0  0  0  0  0  0  0  0  0  0
   -0.5684   -4.3504   -0.6930 H   0  0  0  0  0  0  0  0  0  0  0  0
   -1.4868   -4.4226    0.8779 H   0  0  0  0  0  0  0  0  0  0  0  0
   -2.3477   -4.3008   -0.7388 H   0  0  0  0  0  0  0  0  0  0  0  0
   -2.8721    1.0881    1.4344 H   0  0  0  0  0  0  0  0  0  0  0  0
   -2.7353    1.4368   -0.3197 H   0  0  0  0  0  0  0  0  0  0  0  0
  1  2  1  0
  2  3  2  0
  2  4  1  0
  4  5  1  0
  5  6  1  0
  6  7  1  0
  7  8  2  0
  8  9  1  0
  9 10  1  0
 10 11  1  0
 11 12  2  0
 12 13  1  0
 13 14  2  0
 14 15  1  0
 15 16  1  0
 16 17  2  0
 17 18  1  0
 18 19  1  0
 14 20  1  0
 20 21  2  0
  9 22  2  0
 22 23  1  0
 23 24  1  0
  8 25  1  0
 25  4  1  0
 23  7  1  0
 21 11  1  0
 19 15  2  0
  1 26  1  0
  1 27  1  0
  1 28  1  0
  5 29  1  0
  5 30  1  0
  6 31  1  0
  6 32  1  0
 10 33  1  0
 12 34  1  0
 13 35  1  0
 16 36  1  0
 18 37  1  0
 19 38  1  0
 20 39  1  0
 21 40  1  0
 24 41  1  0
 24 42  1  0
 24 43  1  0
 25 44  1  0
 25 45  1  0
M  END
$$$$
