
     RDKit          3D

 72 73  0  0  0  0  0  0  0  0999 V2000
   -4.9257    3.7388    2.2160 C   0  0  0  0  0  0  0  0  0  0  0  0
   -4.1528    2.4598    1.9637 C   0  0  0  0  0  0  0  0  0  0  0  0
   -2.7590    2.6223    2.4767 C   0  0  0  0  0  0  0  0  0  0  0  0
   -4.2965    2.1151    0.5269 C   0  0  0  0  0  0  0  0  0  0  0  0
   -3.5753    0.8626    0.0870 C   0  0  2  0  0  0  0  0  0  0  0  0
   -4.0362   -0.2880    0.8222 N   0  0  0  0  0  0  0  0  0  0  0  0
   -4.8899   -1.4324   -0.1008 S   0  0  0  0  0  0  0  0  0  0  0  0
   -5.1496   -0.8414   -1.4700 O   0  0  0  0  0  0  0  0  0  0  0  0
   -6.2480   -1.6038    0.5829 O   0  0  0  0  0  0  0  0  0  0  0  0
   -4.1843   -3.0254   -0.1930 C   0  0  0  0  0  0  0  0  0  0  0  0
   -2.8504   -3.1494   -0.7533 C   0  0  0  0  0  0  0  0  0  0  0  0
   -1.7786   -3.1588    0.1512 C   0  0  0  0  0  0  0  0  0  0  0  0
   -0.4709   -3.2924   -0.1946 C   0  0  0  0  0  0  0  0  0  0  0  0
   -0.0957   -3.4315   -1.5274 C   0  0  0  0  0  0  0  0  0  0  0  0
   -1.1493   -3.4229   -2.4126 C   0  0  0  0  0  0  0  0  0  0  0  0
   -2.4619   -3.2891   -2.0725 C   0  0  0  0  0  0  0  0  0  0  0  0
   -2.1296    0.9739   -0.0326 C   0  0  0  0  0  0  0  0  0  0  0  0
   -1.7075   -0.0033    0.6160 O   0  0  0  0  0  0  0  0  0  0  0  0
   -1.3198    1.9418   -0.7148 N   0  0  0  0  0  0  0  0  0  0  0  0
   -1.4356    3.1634   -1.5262 C   0  0  0  0  0  0  0  0  0  0  0  0
   -0.6414    4.2017   -0.7485 C   0  0  0  0  0  0  0  0  0  0  0  0
    0.4292    3.3113   -0.0769 C   0  0  0  0  0  0  0  0  0  0  0  0
    0.1168    2.0127   -0.8259 C   0  0  1  0  0  0  0  0  0  0  0  0
    0.8695    0.8545   -0.3252 C   0  0  0  0  0  0  0  0  0  0  0  0
    0.8101   -0.3439    0.1210 O   0  0  0  0  0  0  0  0  0  0  0  0
    2.2783    1.1397   -0.3113 N   0  0  0  0  0  0  0  0  0  0  0  0
    3.1955    0.0645    0.1349 C   0  0  0  0  0  0  0  0  0  0  0  0
    4.5631    0.6410    0.0913 C   0  0  0  0  0  0  0  0  0  0  0  0
    5.6963   -0.2626    0.4374 C   0  0  0  0  0  0  0  0  0  0  0  0
    5.7286   -1.4030   -0.5922 C   0  0  0  0  0  0  0  0  0  0  0  0
    6.7934   -2.3170   -0.3969 N   0  0  0  0  0  0  0  0  0  0  0  0
    6.7544   -3.4788    0.1738 C   0  0  0  0  0  0  0  0  0  0  0  0
    8.0775   -3.1227   -0.3033 N   0  0  0  0  0  0  0  0  0  0  0  0
    5.8247   -4.3763    0.8007 N   0  0  0  0  0  0  0  0  0  0  0  0
   -5.8475    3.4915    2.7732 H   0  0  0  0  0  0  0  0  0  0  0  0
   -4.3003    4.4265    2.8527 H   0  0  0  0  0  0  0  0  0  0  0  0
   -5.1747    4.2441    1.2386 H   0  0  0  0  0  0  0  0  0  0  0  0
   -4.6456    1.6749    2.6236 H   0  0  0  0  0  0  0  0  0  0  0  0
   -2.0930    3.0861    1.7186 H   0  0  0  0  0  0  0  0  0  0  0  0
   -2.7067    3.3125    3.3513 H   0  0  0  0  0  0  0  0  0  0  0  0
   -2.3174    1.6308    2.7124 H   0  0  0  0  0  0  0  0  0  0  0  0
   -4.0849    2.9162   -0.1818 H   0  0  0  0  0  0  0  0  0  0  0  0
   -5.4088    1.9121    0.3805 H   0  0  0  0  0  0  0  0  0  0  0  0
   -3.9487    0.6649   -0.9745 H   0  0  0  0  0  0  0  0  0  0  0  0
   -3.2799   -0.6630    1.4209 H   0  0  0  0  0  0  0  0  0  0  0  0
   -4.8498   -3.7119   -0.7857 H   0  0  0  0  0  0  0  0  0  0  0  0
   -4.2192   -3.4587    0.8455 H   0  0  0  0  0  0  0  0  0  0  0  0
   -1.9663   -3.0570    1.2340 H   0  0  0  0  0  0  0  0  0  0  0  0
    0.3209   -3.2874    0.5420 H   0  0  0  0  0  0  0  0  0  0  0  0
    0.9170   -3.5402   -1.8729 H   0  0  0  0  0  0  0  0  0  0  0  0
   -0.9057   -3.5316   -3.4800 H   0  0  0  0  0  0  0  0  0  0  0  0
   -3.2974   -3.2796   -2.7840 H   0  0  0  0  0  0  0  0  0  0  0  0
   -2.4659    3.5101   -1.6288 H   0  0  0  0  0  0  0  0  0  0  0  0
   -0.9467    3.0566   -2.5158 H   0  0  0  0  0  0  0  0  0  0  0  0
   -1.2190    4.7625   -0.0135 H   0  0  0  0  0  0  0  0  0  0  0  0
   -0.0956    4.8949   -1.4102 H   0  0  0  0  0  0  0  0  0  0  0  0
    1.4357    3.6939   -0.3017 H   0  0  0  0  0  0  0  0  0  0  0  0
    0.1673    3.2327    0.9780 H   0  0  0  0  0  0  0  0  0  0  0  0
    0.4404    2.2183   -1.9068 H   0  0  0  0  0  0  0  0  0  0  0  0
    2.6877    2.0800   -0.5940 H   0  0  0  0  0  0  0  0  0  0  0  0
    2.9153   -0.2757    1.1752 H   0  0  0  0  0  0  0  0  0  0  0  0
    3.0260   -0.8186   -0.5040 H   0  0  0  0  0  0  0  0  0  0  0  0
    4.5422    1.5707    0.7220 H   0  0  0  0  0  0  0  0  0  0  0  0
    4.7114    1.0267   -0.9593 H   0  0  0  0  0  0  0  0  0  0  0  0
    6.6392    0.2998    0.3072 H   0  0  0  0  0  0  0  0  0  0  0  0
    5.5990   -0.7078    1.4609 H   0  0  0  0  0  0  0  0  0  0  0  0
    4.7231   -1.8702   -0.5558 H   0  0  0  0  0  0  0  0  0  0  0  0
    5.8924   -0.8675   -1.5726 H   0  0  0  0  0  0  0  0  0  0  0  0
    8.9327   -3.6943   -0.2480 H   0  0  0  0  0  0  0  0  0  0  0  0
    8.9421   -3.7420   -0.2291 H   0  0  0  0  0  0  0  0  0  0  0  0
    5.4852   -4.5448   -0.1652 H   0  0  0  0  0  0  0  0  0  0  0  0
    5.5163   -4.5156   -0.1909 H   0  0  0  0  0  0  0  0  0  0  0  0
  1  2  1  0
  2  3  1  0
  2  4  1  0
  4  5  1  0
  5  6  1  0
  6  7  1  0
  7  8  2  0
  7  9  2  0
  7 10  1  0
 10 11  1  0
 11 12  2  0
 12 13  1  0
 13 14  2  0
 14 15  1  0
 15 16  2  0
  5 17  1  0
 17 18  2  0
 17 19  1  0
 19 20  1  0
 20 21  1  0
 21 22  1  0
 22 23  1  0
 23 24  1  0
 24 25  2  0
 24 26  1  0
 26 27  1  0
 27 28  1  0
 28 29  1  0
 29 30  1  0
 30 31  1  0
 31 32  2  3
 32 33  1  0
 32 34  1  0
 16 11  1  0
 23 19  1  0
  1 35  1  0
  1 36  1  0
  1 37  1  0
  2 38  1  0
  3 39  1  0
  3 40  1  0
  3 41  1  0
  4 42  1  0
  4 43  1  0
  5 44  1  6
  6 45  1  0
 10 46  1  0
 10 47  1  0
 12 48  1  0
 13 49  1  0
 14 50  1  0
 15 51  1  0
 16 52  1  0
 20 53  1  0
 20 54  1  0
 21 55  1  0
 21 56  1  0
 22 57  1  0
 22 58  1  0
 23 59  1  6
 26 60  1  0
 27 61  1  0
 27 62  1  0
 28 63  1  0
 28 64  1  0
 29 65  1  0
 29 66  1  0
 30 67  1  0
 30 68  1  0
 33 69  1  0
 33 70  1  0
 34 71  1  0
 34 72  1  0
M  END
$$$$
