
     RDKit          3D

 57 60  0  0  0  0  0  0  0  0999 V2000
   -3.2136    0.4992   -0.9322 C   0  0  0  0  0  0  0  0  0  0  0  0
   -2.6503   -0.3018    0.2297 C   0  0  2  0  0  0  0  0  0  0  0  0
   -2.4569    0.7206    1.3984 C   0  0  0  0  0  0  0  0  0  0  0  0
   -1.7415    1.8425    0.7208 C   0  0  0  0  0  0  0  0  0  0  0  0
   -0.7742    1.5376   -0.2356 C   0  0  0  0  0  0  0  0  0  0  0  0
   -0.2972    2.7059   -0.6908 N   0  0  0  0  0  0  0  0  0  0  0  0
   -0.9283    3.7071   -0.0560 C   0  0  0  0  0  0  0  0  0  0  0  0
   -0.8183    5.0799   -0.1466 C   0  0  0  0  0  0  0  0  0  0  0  0
   -1.6000    5.8950    0.6343 C   0  0  0  0  0  0  0  0  0  0  0  0
   -2.5242    5.4155    1.5386 C   0  0  0  0  0  0  0  0  0  0  0  0
   -2.6356    4.0464    1.6305 C   0  0  0  0  0  0  0  0  0  0  0  0
   -1.8589    3.2062    0.8543 C   0  0  0  0  0  0  0  0  0  0  0  0
   -0.4538    0.1356   -0.5624 C   0  0  1  0  0  0  0  0  0  0  0  0
    0.9639   -0.2292   -0.2916 C   0  0  0  0  0  0  0  0  0  0  0  0
    1.9880    0.0696   -1.1635 C   0  0  0  0  0  0  0  0  0  0  0  0
    1.7087    0.6981   -2.3216 F   0  0  0  0  0  0  0  0  0  0  0  0
    3.3132   -0.2529   -0.9178 C   0  0  0  0  0  0  0  0  0  0  0  0
    3.6784   -0.8932    0.2181 C   0  0  0  0  0  0  0  0  0  0  0  0
    5.0524   -1.2416    0.5015 C   0  0  0  0  0  0  0  0  0  0  0  0
    6.0275   -0.9568   -0.3288 C   0  0  0  0  0  0  0  0  0  0  0  0
    7.4154   -1.3073   -0.0450 C   0  0  0  0  0  0  0  0  0  0  0  0
    8.3090   -1.0213   -0.8545 O   0  0  0  0  0  0  0  0  0  0  0  0
    7.7281   -1.9576    1.1268 O   0  0  0  0  0  0  0  0  0  0  0  0
    2.6631   -1.2068    1.1156 C   0  0  0  0  0  0  0  0  0  0  0  0
    1.3541   -0.8858    0.8684 C   0  0  0  0  0  0  0  0  0  0  0  0
    0.3884   -1.2141    1.7883 F   0  0  0  0  0  0  0  0  0  0  0  0
   -1.3783   -0.8362   -0.0104 N   0  0  0  0  0  0  0  0  0  0  0  0
   -1.1783   -2.0533   -0.6755 C   0  0  0  0  0  0  0  0  0  0  0  0
   -1.9727   -3.2559   -0.2762 C   0  0  0  0  0  0  0  0  0  0  0  0
   -1.4845   -4.4657   -1.1451 C   0  0  0  0  0  0  0  0  0  0  0  0
   -3.4099   -3.1035   -0.6568 C   0  0  0  0  0  0  0  0  0  0  0  0
   -1.7565   -3.6306    1.0191 F   0  0  0  0  0  0  0  0  0  0  0  0
   -3.1911    1.5788   -0.6962 H   0  0  0  0  0  0  0  0  0  0  0  0
   -4.2731    0.2308   -1.1235 H   0  0  0  0  0  0  0  0  0  0  0  0
   -2.6655    0.2734   -1.8792 H   0  0  0  0  0  0  0  0  0  0  0  0
   -3.4216   -0.9686    0.5913 H   0  0  0  0  0  0  0  0  0  0  0  0
   -3.4700    0.9955    1.7222 H   0  0  0  0  0  0  0  0  0  0  0  0
   -1.8505    0.2310    2.1722 H   0  0  0  0  0  0  0  0  0  0  0  0
    0.4497    2.8700   -1.4253 H   0  0  0  0  0  0  0  0  0  0  0  0
   -0.0909    5.4699   -0.8582 H   0  0  0  0  0  0  0  0  0  0  0  0
   -1.5047    6.9655    0.5544 H   0  0  0  0  0  0  0  0  0  0  0  0
   -3.1261    6.0861    2.1404 H   0  0  0  0  0  0  0  0  0  0  0  0
   -3.3434    3.6176    2.3224 H   0  0  0  0  0  0  0  0  0  0  0  0
   -0.5979    0.0480   -1.6844 H   0  0  0  0  0  0  0  0  0  0  0  0
    4.0358    0.0292   -1.6706 H   0  0  0  0  0  0  0  0  0  0  0  0
    5.2771   -1.7517    1.4269 H   0  0  0  0  0  0  0  0  0  0  0  0
    5.8615   -0.4432   -1.2775 H   0  0  0  0  0  0  0  0  0  0  0  0
    8.5929   -2.4875    1.2632 H   0  0  0  0  0  0  0  0  0  0  0  0
    2.9726   -1.7219    2.0243 H   0  0  0  0  0  0  0  0  0  0  0  0
   -0.0636   -2.2784   -0.6311 H   0  0  0  0  0  0  0  0  0  0  0  0
   -1.3209   -1.8497   -1.7924 H   0  0  0  0  0  0  0  0  0  0  0  0
   -0.5406   -4.8384   -0.7199 H   0  0  0  0  0  0  0  0  0  0  0  0
   -1.4257   -4.1672   -2.1924 H   0  0  0  0  0  0  0  0  0  0  0  0
   -2.2695   -5.2361   -0.9942 H   0  0  0  0  0  0  0  0  0  0  0  0
   -4.1223   -3.1057    0.2013 H   0  0  0  0  0  0  0  0  0  0  0  0
   -3.7406   -4.0204   -1.2615 H   0  0  0  0  0  0  0  0  0  0  0  0
   -3.6293   -2.2729   -1.3456 H   0  0  0  0  0  0  0  0  0  0  0  0
  1  2  1  0
  2  3  1  0
  3  4  1  0
  4  5  2  0
  5  6  1  0
  6  7  1  0
  7  8  2  0
  8  9  1  0
  9 10  2  0
 10 11  1  0
 11 12  2  0
  5 13  1  0
 13 14  1  0
 14 15  2  0
 15 16  1  0
 15 17  1  0
 17 18  2  0
 18 19  1  0
 19 20  2  0
 20 21  1  0
 21 22  2  0
 21 23  1  0
 18 24  1  0
 24 25  2  0
 25 26  1  0
 13 27  1  0
 27 28  1  0
 28 29  1  0
 29 30  1  0
 29 31  1  0
 29 32  1  0
 27  2  1  0
 12  4  1  0
 25 14  1  0
 12  7  1  0
  1 33  1  0
  1 34  1  0
  1 35  1  0
  2 36  1  1
  3 37  1  0
  3 38  1  0
  6 39  1  0
  8 40  1  0
  9 41  1  0
 10 42  1  0
 11 43  1  0
 13 44  1  6
 17 45  1  0
 19 46  1  0
 20 47  1  0
 23 48  1  0
 24 49  1  0
 28 50  1  0
 28 51  1  0
 30 52  1  0
 30 53  1  0
 30 54  1  0
 31 55  1  0
 31 56  1  0
 31 57  1  0
M  END
$$$$
