
     RDKit          3D

 43 45  0  0  0  0  0  0  0  0999 V2000
   -1.6162    3.6720   -0.2551 C   0  0  0  0  0  0  0  0  0  0  0  0
   -1.7163    2.3363   -0.7108 O   0  0  0  0  0  0  0  0  0  0  0  0
   -0.9230    1.3281   -0.1277 C   0  0  0  0  0  0  0  0  0  0  0  0
   -0.1643    1.6907    0.7764 O   0  0  0  0  0  0  0  0  0  0  0  0
   -1.1035   -0.0193   -0.6724 C   0  0  2  0  0  0  0  0  0  0  0  0
   -2.5472   -0.4367   -0.3661 C   0  0  0  0  0  0  0  0  0  0  0  0
   -2.8322   -1.8198   -0.8556 C   0  0  0  0  0  0  0  0  0  0  0  0
   -2.3789   -2.7270    0.2356 C   0  0  0  0  0  0  0  0  0  0  0  0
   -1.9464   -1.7857    1.3319 C   0  0  0  0  0  0  0  0  0  0  0  0
   -0.4752   -1.5040    1.2313 C   0  0  0  0  0  0  0  0  0  0  0  0
   -0.1492   -1.0637   -0.1843 C   0  0  2  0  0  0  0  0  0  0  0  0
    1.2425   -0.6890   -0.4069 C   0  0  0  0  0  0  0  0  0  0  0  0
    1.9651   -1.4313   -1.1725 O   0  0  0  0  0  0  0  0  0  0  0  0
    1.9211    0.3913    0.1085 O   0  0  0  0  0  0  0  0  0  0  0  0
    3.2548    0.6760   -0.1554 C   0  0  0  0  0  0  0  0  0  0  0  0
    3.6571    1.4651   -1.2130 C   0  0  0  0  0  0  0  0  0  0  0  0
    4.9986    1.7368   -1.4580 C   0  0  0  0  0  0  0  0  0  0  0  0
    5.9638    1.2061   -0.6242 C   0  0  0  0  0  0  0  0  0  0  0  0
    5.5597    0.4168    0.4336 C   0  0  0  0  0  0  0  0  0  0  0  0
    4.2196    0.1442    0.6799 C   0  0  0  0  0  0  0  0  0  0  0  0
   -2.6583   -0.5466    1.0804 N   0  0  0  0  0  0  0  0  0  0  0  0
   -4.0287   -0.6075    1.5089 C   0  0  0  0  0  0  0  0  0  0  0  0
   -0.5283    3.8915   -0.0673 H   0  0  0  0  0  0  0  0  0  0  0  0
   -2.1365    3.7272    0.7250 H   0  0  0  0  0  0  0  0  0  0  0  0
   -1.9672    4.3868   -0.9972 H   0  0  0  0  0  0  0  0  0  0  0  0
   -1.0292    0.0332   -1.7751 H   0  0  0  0  0  0  0  0  0  0  0  0
   -3.2031    0.3460   -0.7457 H   0  0  0  0  0  0  0  0  0  0  0  0
   -3.9510   -1.8886   -0.9934 H   0  0  0  0  0  0  0  0  0  0  0  0
   -2.3168   -2.0400   -1.8267 H   0  0  0  0  0  0  0  0  0  0  0  0
   -1.5849   -3.4204   -0.0979 H   0  0  0  0  0  0  0  0  0  0  0  0
   -3.2130   -3.3929    0.5728 H   0  0  0  0  0  0  0  0  0  0  0  0
   -2.2057   -2.2376    2.2962 H   0  0  0  0  0  0  0  0  0  0  0  0
    0.1310   -2.4048    1.4403 H   0  0  0  0  0  0  0  0  0  0  0  0
   -0.2120   -0.7025    1.9402 H   0  0  0  0  0  0  0  0  0  0  0  0
   -0.3438   -2.0007   -0.7990 H   0  0  0  0  0  0  0  0  0  0  0  0
    2.8642    1.8598   -1.8406 H   0  0  0  0  0  0  0  0  0  0  0  0
    5.2557    2.3624   -2.3027 H   0  0  0  0  0  0  0  0  0  0  0  0
    7.0176    1.4037   -0.7946 H   0  0  0  0  0  0  0  0  0  0  0  0
    6.3332   -0.0037    1.0951 H   0  0  0  0  0  0  0  0  0  0  0  0
    3.9627   -0.4805    1.5233 H   0  0  0  0  0  0  0  0  0  0  0  0
   -4.7545   -0.3571    0.7180 H   0  0  0  0  0  0  0  0  0  0  0  0
   -4.1986   -1.6226    1.9487 H   0  0  0  0  0  0  0  0  0  0  0  0
   -4.1626    0.1078    2.3553 H   0  0  0  0  0  0  0  0  0  0  0  0
  1  2  1  0
  2  3  1  0
  3  4  2  0
  3  5  1  0
  5  6  1  0
  6  7  1  0
  7  8  1  0
  8  9  1  0
  9 10  1  0
 10 11  1  0
 11 12  1  0
 12 13  2  0
 12 14  1  0
 14 15  1  0
 15 16  2  0
 16 17  1  0
 17 18  2  0
 18 19  1  0
 19 20  2  0
  9 21  1  0
 21 22  1  0
 11  5  1  0
 20 15  1  0
 21  6  1  0
  1 23  1  0
  1 24  1  0
  1 25  1  0
  5 26  1  6
  6 27  1  0
  7 28  1  0
  7 29  1  0
  8 30  1  0
  8 31  1  0
  9 32  1  0
 10 33  1  0
 10 34  1  0
 11 35  1  6
 16 36  1  0
 17 37  1  0
 18 38  1  0
 19 39  1  0
 20 40  1  0
 22 41  1  0
 22 42  1  0
 22 43  1  0
M  END
$$$$
