
     RDKit          3D

 54 57  0  0  0  0  0  0  0  0999 V2000
    0.7367   -1.0722    0.2088 C   0  0  2  0  0  0  0  0  0  0  0  0
    1.4449   -1.7737    1.3160 C   0  0  0  0  0  0  0  0  0  0  0  0
    2.8951   -1.6289    0.8490 C   0  0  0  0  0  0  0  0  0  0  0  0
    2.9202   -0.2439    0.2362 C   0  0  1  0  0  0  0  0  0  0  0  0
    3.6148    0.5715    1.1341 O   0  0  0  0  0  0  0  0  0  0  0  0
    3.7122   -0.2146   -1.0494 C   0  0  0  0  0  0  0  0  0  0  0  0
    5.1227   -0.6270   -0.8108 C   0  0  0  0  0  0  0  0  0  0  0  0
    6.2697   -0.0010   -0.9969 C   0  0  0  0  0  0  0  0  0  0  0  0
    1.5235    0.2120    0.0957 C   0  0  2  0  0  0  0  0  0  0  0  0
    1.2058    1.2144    1.1620 C   0  0  0  0  0  0  0  0  0  0  0  0
    1.1574    0.7998   -1.2282 C   0  0  0  0  0  0  0  0  0  0  0  0
   -0.3043    1.2105   -1.0887 C   0  0  0  0  0  0  0  0  0  0  0  0
   -1.1969    0.1016   -0.6706 C   0  0  2  0  0  0  0  0  0  0  0  0
   -2.4957    0.7157   -0.1586 C   0  0  1  0  0  0  0  0  0  0  0  0
   -3.1139    1.5986   -1.2207 C   0  0  0  0  0  0  0  0  0  0  0  0
   -4.3466    2.2000   -0.6063 C   0  0  0  0  0  0  0  0  0  0  0  0
   -5.3099    1.1220   -0.2487 C   0  0  0  0  0  0  0  0  0  0  0  0
   -4.7250   -0.1959    0.0260 C   0  0  0  0  0  0  0  0  0  0  0  0
   -3.4170   -0.4359    0.0785 C   0  0  0  0  0  0  0  0  0  0  0  0
   -2.9938   -1.8180    0.3661 C   0  0  0  0  0  0  0  0  0  0  0  0
   -1.5345   -2.0414    0.4016 C   0  0  0  0  0  0  0  0  0  0  0  0
   -0.6965   -0.7664    0.4437 C   0  0  1  0  0  0  0  0  0  0  0  0
    0.8352   -1.6460   -0.7108 H   0  0  0  0  0  0  0  0  0  0  0  0
    1.3455   -1.1536    2.2297 H   0  0  0  0  0  0  0  0  0  0  0  0
    1.1692   -2.8257    1.4560 H   0  0  0  0  0  0  0  0  0  0  0  0
    3.1282   -2.3931    0.0629 H   0  0  0  0  0  0  0  0  0  0  0  0
    3.6062   -1.7304    1.6953 H   0  0  0  0  0  0  0  0  0  0  0  0
    4.3009    0.0698    1.6485 H   0  0  0  0  0  0  0  0  0  0  0  0
    3.7186    0.7603   -1.5313 H   0  0  0  0  0  0  0  0  0  0  0  0
    3.2829   -0.9555   -1.7483 H   0  0  0  0  0  0  0  0  0  0  0  0
    5.1707   -1.6339   -0.4099 H   0  0  0  0  0  0  0  0  0  0  0  0
    7.2784    0.4195   -1.1092 H   0  0  0  0  0  0  0  0  0  0  0  0
    6.3637    1.0055   -1.3900 H   0  0  0  0  0  0  0  0  0  0  0  0
    1.7868    1.0404    2.1045 H   0  0  0  0  0  0  0  0  0  0  0  0
    0.1454    1.3897    1.3546 H   0  0  0  0  0  0  0  0  0  0  0  0
    1.5921    2.2078    0.7865 H   0  0  0  0  0  0  0  0  0  0  0  0
    1.2686    0.0566   -2.0256 H   0  0  0  0  0  0  0  0  0  0  0  0
    1.6967    1.7666   -1.4313 H   0  0  0  0  0  0  0  0  0  0  0  0
   -0.3911    2.1243   -0.4717 H   0  0  0  0  0  0  0  0  0  0  0  0
   -0.6217    1.5217   -2.1194 H   0  0  0  0  0  0  0  0  0  0  0  0
   -1.4760   -0.5079   -1.5613 H   0  0  0  0  0  0  0  0  0  0  0  0
   -2.2936    1.2563    0.7739 H   0  0  0  0  0  0  0  0  0  0  0  0
   -3.3695    0.9631   -2.0832 H   0  0  0  0  0  0  0  0  0  0  0  0
   -2.3731    2.3985   -1.4724 H   0  0  0  0  0  0  0  0  0  0  0  0
   -4.0448    2.7748    0.3057 H   0  0  0  0  0  0  0  0  0  0  0  0
   -4.7930    2.9566   -1.3045 H   0  0  0  0  0  0  0  0  0  0  0  0
   -5.9530    1.4247    0.6063 H   0  0  0  0  0  0  0  0  0  0  0  0
   -6.0115    1.0246   -1.1280 H   0  0  0  0  0  0  0  0  0  0  0  0
   -5.4927   -0.9632    0.1836 H   0  0  0  0  0  0  0  0  0  0  0  0
   -3.5494   -2.1766    1.2717 H   0  0  0  0  0  0  0  0  0  0  0  0
   -3.4141   -2.4364   -0.4808 H   0  0  0  0  0  0  0  0  0  0  0  0
   -1.1680   -2.7397   -0.3876 H   0  0  0  0  0  0  0  0  0  0  0  0
   -1.2891   -2.5744    1.3623 H   0  0  0  0  0  0  0  0  0  0  0  0
   -0.9173   -0.3512    1.4579 H   0  0  0  0  0  0  0  0  0  0  0  0
  1  2  1  0
  2  3  1  0
  3  4  1  0
  4  5  1  1
  4  6  1  0
  6  7  1  0
  7  8  2  0
  4  9  1  0
  9 10  1  1
  9 11  1  0
 11 12  1  0
 12 13  1  0
 13 14  1  0
 14 15  1  0
 15 16  1  0
 16 17  1  0
 17 18  1  0
 18 19  2  0
 19 20  1  0
 20 21  1  0
 21 22  1  0
  9  1  1  0
 22 13  1  0
 22  1  1  0
 19 14  1  0
  1 23  1  6
  2 24  1  0
  2 25  1  0
  3 26  1  0
  3 27  1  0
  5 28  1  0
  6 29  1  0
  6 30  1  0
  7 31  1  0
  8 32  1  0
  8 33  1  0
 10 34  1  0
 10 35  1  0
 10 36  1  0
 11 37  1  0
 11 38  1  0
 12 39  1  0
 12 40  1  0
 13 41  1  6
 14 42  1  1
 15 43  1  0
 15 44  1  0
 16 45  1  0
 16 46  1  0
 17 47  1  0
 17 48  1  0
 18 49  1  0
 20 50  1  0
 20 51  1  0
 21 52  1  0
 21 53  1  0
 22 54  1  1
M  END
$$$$
