
     RDKit          3D

 52 54  0  0  0  0  0  0  0  0999 V2000
   -4.4236   -2.8052    1.2761 C   0  0  0  0  0  0  0  0  0  0  0  0
   -3.3587   -2.6437    0.5211 C   0  0  0  0  0  0  0  0  0  0  0  0
   -2.6073   -3.8302    0.0637 C   0  0  0  0  0  0  0  0  0  0  0  0
   -3.0338   -1.3218    0.0313 C   0  0  0  0  0  0  0  0  0  0  0  0
   -4.0929   -0.4117   -0.0775 C   0  0  0  0  0  0  0  0  0  0  0  0
   -3.9768    0.8329   -0.5138 N   0  0  0  0  0  0  0  0  0  0  0  0
   -2.7467    1.2878   -0.8937 C   0  0  0  0  0  0  0  0  0  0  0  0
   -2.6755    2.6671   -1.3729 C   0  0  0  0  0  0  0  0  0  0  0  0
   -1.4227    3.1724   -1.7297 C   0  0  0  0  0  0  0  0  0  0  0  0
   -1.3360    4.4802   -2.1890 C   0  0  0  0  0  0  0  0  0  0  0  0
    0.1985    5.1460   -2.6543 Cl  0  0  0  0  0  0  0  0  0  0  0  0
   -2.4571    5.2906   -2.3001 C   0  0  0  0  0  0  0  0  0  0  0  0
   -3.6675    4.7776   -1.9472 C   0  0  0  0  0  0  0  0  0  0  0  0
   -3.7562    3.4750   -1.4902 C   0  0  0  0  0  0  0  0  0  0  0  0
   -4.9868    2.9742   -1.1529 F   0  0  0  0  0  0  0  0  0  0  0  0
   -1.6914    0.4519   -0.8081 C   0  0  0  0  0  0  0  0  0  0  0  0
   -1.8054   -0.8781   -0.3374 C   0  0  0  0  0  0  0  0  0  0  0  0
   -0.5965   -1.6487   -0.2346 N   0  0  0  0  0  0  0  0  0  0  0  0
   -0.0806   -1.9081    1.0809 C   0  0  0  0  0  0  0  0  0  0  0  0
   -0.7920   -2.4478    2.0801 N   0  0  0  0  0  0  0  0  0  0  0  0
   -0.3767   -2.6869    3.3170 C   0  0  0  0  0  0  0  0  0  0  0  0
    0.9176   -2.3416    3.5917 N   0  0  0  0  0  0  0  0  0  0  0  0
    1.7022   -1.7875    2.6247 C   0  0  0  0  0  0  0  0  0  0  0  0
    1.2226   -1.5525    1.3311 C   0  0  0  0  0  0  0  0  0  0  0  0
    2.0681   -0.9492    0.3304 C   0  0  0  0  0  0  0  0  0  0  0  0
    1.6521   -0.7353   -0.8315 O   0  0  0  0  0  0  0  0  0  0  0  0
    3.4237   -0.5483    0.5660 N   0  0  0  0  0  0  0  0  0  0  0  0
    4.2662    0.0477   -0.4480 C   0  0  0  0  0  0  0  0  0  0  0  0
    5.6089    0.3716    0.1617 C   0  0  2  0  0  0  0  0  0  0  0  0
    6.4992    1.1087   -0.8202 C   0  0  0  0  0  0  0  0  0  0  0  0
    6.2137   -0.7706    0.6380 O   0  0  0  0  0  0  0  0  0  0  0  0
   -5.0167   -1.9963    1.6472 H   0  0  0  0  0  0  0  0  0  0  0  0
   -4.7188   -3.8079    1.5431 H   0  0  0  0  0  0  0  0  0  0  0  0
   -3.2529   -4.5010   -0.5790 H   0  0  0  0  0  0  0  0  0  0  0  0
   -2.3218   -4.4660    0.9605 H   0  0  0  0  0  0  0  0  0  0  0  0
   -1.7144   -3.6590   -0.5135 H   0  0  0  0  0  0  0  0  0  0  0  0
   -5.0876   -0.7465    0.2034 H   0  0  0  0  0  0  0  0  0  0  0  0
   -0.5217    2.5914   -1.6647 H   0  0  0  0  0  0  0  0  0  0  0  0
   -2.3824    6.3158   -2.6594 H   0  0  0  0  0  0  0  0  0  0  0  0
   -4.5743    5.3699   -2.0122 H   0  0  0  0  0  0  0  0  0  0  0  0
   -0.6956    0.7426   -1.0921 H   0  0  0  0  0  0  0  0  0  0  0  0
   -0.1393   -2.0045   -1.0717 H   0  0  0  0  0  0  0  0  0  0  0  0
   -0.9601   -3.1185    4.1156 H   0  0  0  0  0  0  0  0  0  0  0  0
    2.7159   -1.5384    2.8971 H   0  0  0  0  0  0  0  0  0  0  0  0
    3.8115   -0.6907    1.5045 H   0  0  0  0  0  0  0  0  0  0  0  0
    4.4067   -0.6481   -1.3178 H   0  0  0  0  0  0  0  0  0  0  0  0
    3.8557    1.0347   -0.8017 H   0  0  0  0  0  0  0  0  0  0  0  0
    5.4382    1.0511    1.0523 H   0  0  0  0  0  0  0  0  0  0  0  0
    7.3906    1.4968   -0.2879 H   0  0  0  0  0  0  0  0  0  0  0  0
    6.8748    0.3533   -1.5568 H   0  0  0  0  0  0  0  0  0  0  0  0
    5.9726    1.9616   -1.2955 H   0  0  0  0  0  0  0  0  0  0  0  0
    7.0309   -0.5574    1.1813 H   0  0  0  0  0  0  0  0  0  0  0  0
  1  2  2  3
  2  3  1  0
  2  4  1  0
  4  5  2  0
  5  6  1  0
  6  7  2  0
  7  8  1  0
  8  9  2  0
  9 10  1  0
 10 11  1  0
 10 12  2  0
 12 13  1  0
 13 14  2  0
 14 15  1  0
  7 16  1  0
 16 17  2  0
 17 18  1  0
 18 19  1  0
 19 20  2  0
 20 21  1  0
 21 22  2  0
 22 23  1  0
 23 24  2  0
 24 25  1  0
 25 26  2  0
 25 27  1  0
 27 28  1  0
 28 29  1  0
 29 30  1  0
 29 31  1  0
 17  4  1  0
 24 19  1  0
 14  8  1  0
  1 32  1  0
  1 33  1  0
  3 34  1  0
  3 35  1  0
  3 36  1  0
  5 37  1  0
  9 38  1  0
 12 39  1  0
 13 40  1  0
 16 41  1  0
 18 42  1  0
 21 43  1  0
 23 44  1  0
 27 45  1  0
 28 46  1  0
 28 47  1  0
 29 48  1  1
 30 49  1  0
 30 50  1  0
 30 51  1  0
 31 52  1  0
M  END
$$$$
