
     RDKit          3D

 43 45  0  0  0  0  0  0  0  0999 V2000
   -7.5409   -0.5811    0.2462 C   0  0  0  0  0  0  0  0  0  0  0  0
   -6.0788   -0.3507    0.0842 C   0  0  0  0  0  0  0  0  0  0  0  0
   -5.2360   -1.2991   -0.4552 C   0  0  0  0  0  0  0  0  0  0  0  0
   -3.8836   -1.0350   -0.5841 C   0  0  0  0  0  0  0  0  0  0  0  0
   -3.3357    0.1636   -0.1860 C   0  0  0  0  0  0  0  0  0  0  0  0
   -1.9073    0.4341   -0.3255 N   0  0  0  0  0  0  0  0  0  0  0  0
   -0.9773   -0.3033    0.1548 C   0  0  0  0  0  0  0  0  0  0  0  0
   -1.2745   -1.5426    0.9235 N   0  0  0  0  0  0  0  0  0  0  0  0
    0.3583   -0.0231    0.0074 C   0  0  0  0  0  0  0  0  0  0  0  0
    1.5667   -0.6624    0.4313 C   0  0  0  0  0  0  0  0  0  0  0  0
    1.5158   -1.7597    1.1130 O   0  0  0  0  0  0  0  0  0  0  0  0
    2.8400   -0.1355    0.1310 N   0  0  0  0  0  0  0  0  0  0  0  0
    3.0256    1.0789   -0.6194 C   0  0  0  0  0  0  0  0  0  0  0  0
    4.5099    1.4129   -0.6928 C   0  0  0  0  0  0  0  0  0  0  0  0
    5.3333    0.3171   -1.0847 N   0  0  0  0  0  0  0  0  0  0  0  0
    6.6857    0.5817   -0.6029 C   0  0  0  0  0  0  0  0  0  0  0  0
    4.9232   -0.9732   -0.6254 C   0  0  0  0  0  0  0  0  0  0  0  0
    4.0415   -0.8129    0.5762 C   0  0  0  0  0  0  0  0  0  0  0  0
    0.2663    1.5402   -0.9720 S   0  0  0  0  0  0  0  0  0  0  0  0
   -1.5204    1.5861   -1.0378 C   0  0  0  0  0  0  0  0  0  0  0  0
   -2.4840    2.6929   -1.7497 S   0  0  0  0  0  0  0  0  0  0  0  0
   -4.1747    1.1106    0.3522 C   0  0  0  0  0  0  0  0  0  0  0  0
   -5.5412    0.8495    0.4848 C   0  0  0  0  0  0  0  0  0  0  0  0
   -7.8933   -0.0009    1.1248 H   0  0  0  0  0  0  0  0  0  0  0  0
   -8.0789   -0.1564   -0.6381 H   0  0  0  0  0  0  0  0  0  0  0  0
   -7.7708   -1.6492    0.3126 H   0  0  0  0  0  0  0  0  0  0  0  0
   -5.6078   -2.2504   -0.7823 H   0  0  0  0  0  0  0  0  0  0  0  0
   -3.1957   -1.7808   -1.0127 H   0  0  0  0  0  0  0  0  0  0  0  0
   -1.4676   -1.3499    1.9252 H   0  0  0  0  0  0  0  0  0  0  0  0
   -1.2730   -2.4571    0.4557 H   0  0  0  0  0  0  0  0  0  0  0  0
    2.6086    0.9257   -1.6250 H   0  0  0  0  0  0  0  0  0  0  0  0
    2.5674    1.9041   -0.0528 H   0  0  0  0  0  0  0  0  0  0  0  0
    4.6279    2.2536   -1.3973 H   0  0  0  0  0  0  0  0  0  0  0  0
    4.7911    1.7833    0.3249 H   0  0  0  0  0  0  0  0  0  0  0  0
    7.2306    1.0737   -1.4133 H   0  0  0  0  0  0  0  0  0  0  0  0
    7.1652   -0.3931   -0.2959 H   0  0  0  0  0  0  0  0  0  0  0  0
    6.6644    1.1905    0.3388 H   0  0  0  0  0  0  0  0  0  0  0  0
    4.3123   -1.4642   -1.4233 H   0  0  0  0  0  0  0  0  0  0  0  0
    5.8299   -1.5762   -0.4124 H   0  0  0  0  0  0  0  0  0  0  0  0
    4.5439   -0.2052    1.3707 H   0  0  0  0  0  0  0  0  0  0  0  0
    3.7847   -1.7916    1.0520 H   0  0  0  0  0  0  0  0  0  0  0  0
   -3.7485    2.0498    0.6647 H   0  0  0  0  0  0  0  0  0  0  0  0
   -6.2024    1.6049    0.9127 H   0  0  0  0  0  0  0  0  0  0  0  0
  1  2  1  0
  2  3  2  0
  3  4  1  0
  4  5  2  0
  5  6  1  0
  6  7  1  0
  7  8  1  0
  7  9  2  0
  9 10  1  0
 10 11  2  0
 10 12  1  0
 12 13  1  0
 13 14  1  0
 14 15  1  0
 15 16  1  0
 15 17  1  0
 17 18  1  0
  9 19  1  0
 19 20  1  0
 20 21  2  0
  5 22  1  0
 22 23  2  0
 23  2  1  0
 20  6  1  0
 18 12  1  0
  1 24  1  0
  1 25  1  0
  1 26  1  0
  3 27  1  0
  4 28  1  0
  8 29  1  0
  8 30  1  0
 13 31  1  0
 13 32  1  0
 14 33  1  0
 14 34  1  0
 16 35  1  0
 16 36  1  0
 16 37  1  0
 17 38  1  0
 17 39  1  0
 18 40  1  0
 18 41  1  0
 22 42  1  0
 23 43  1  0
M  END
$$$$
