
     RDKit          3D

 37 39  0  0  0  0  0  0  0  0999 V2000
   -3.8522   -2.3718    0.3477 C   0  0  0  0  0  0  0  0  0  0  0  0
   -2.4317   -2.2232    0.5793 N   0  0  0  0  0  0  0  0  0  0  0  0
   -1.8401   -1.2238   -0.2954 C   0  0  1  0  0  0  0  0  0  0  0  0
   -2.4325    0.1279   -0.1232 C   0  0  0  0  0  0  0  0  0  0  0  0
   -1.4756    1.2371    0.0057 C   0  0  0  0  0  0  0  0  0  0  0  0
   -1.9766    2.4627    0.4077 C   0  0  0  0  0  0  0  0  0  0  0  0
   -1.1468    3.5621    0.5547 C   0  0  0  0  0  0  0  0  0  0  0  0
    0.2139    3.4622    0.3015 C   0  0  0  0  0  0  0  0  0  0  0  0
    0.7152    2.2297   -0.1023 C   0  0  0  0  0  0  0  0  0  0  0  0
   -0.1286    1.1595   -0.2394 C   0  0  0  0  0  0  0  0  0  0  0  0
    0.3973   -0.1482   -0.6662 C   0  0  1  0  0  0  0  0  0  0  0  0
    1.8354   -0.3159   -0.3708 C   0  0  0  0  0  0  0  0  0  0  0  0
    2.7632    0.0103   -1.3562 C   0  0  0  0  0  0  0  0  0  0  0  0
    4.1234   -0.1044   -1.1882 C   0  0  0  0  0  0  0  0  0  0  0  0
    4.6271   -0.5623    0.0035 C   0  0  0  0  0  0  0  0  0  0  0  0
    6.3390   -0.7362    0.2952 Cl  0  0  0  0  0  0  0  0  0  0  0  0
    3.7359   -0.8918    0.9943 C   0  0  0  0  0  0  0  0  0  0  0  0
    4.3504   -1.4759    2.5178 Cl  0  0  0  0  0  0  0  0  0  0  0  0
    2.3542   -0.7730    0.8176 C   0  0  0  0  0  0  0  0  0  0  0  0
   -0.3561   -1.2773   -0.0276 C   0  0  0  0  0  0  0  0  0  0  0  0
   -4.1476   -3.3347    0.8240 H   0  0  0  0  0  0  0  0  0  0  0  0
   -4.4441   -1.5860    0.8432 H   0  0  0  0  0  0  0  0  0  0  0  0
   -4.0930   -2.4729   -0.7332 H   0  0  0  0  0  0  0  0  0  0  0  0
   -1.9895   -3.1458    0.2915 H   0  0  0  0  0  0  0  0  0  0  0  0
   -1.9680   -1.5135   -1.3793 H   0  0  0  0  0  0  0  0  0  0  0  0
   -3.1806    0.4000   -0.9149 H   0  0  0  0  0  0  0  0  0  0  0  0
   -3.0349    0.1111    0.8314 H   0  0  0  0  0  0  0  0  0  0  0  0
   -3.0286    2.6082    0.6212 H   0  0  0  0  0  0  0  0  0  0  0  0
   -1.5645    4.5177    0.8727 H   0  0  0  0  0  0  0  0  0  0  0  0
    0.8613    4.3092    0.4134 H   0  0  0  0  0  0  0  0  0  0  0  0
    1.7823    2.1593   -0.2988 H   0  0  0  0  0  0  0  0  0  0  0  0
    0.2765   -0.2097   -1.7733 H   0  0  0  0  0  0  0  0  0  0  0  0
    2.3836    0.3718   -2.2992 H   0  0  0  0  0  0  0  0  0  0  0  0
    4.8305    0.1563   -1.9723 H   0  0  0  0  0  0  0  0  0  0  0  0
    1.6933   -1.0372    1.6114 H   0  0  0  0  0  0  0  0  0  0  0  0
    0.0268   -2.2282   -0.4483 H   0  0  0  0  0  0  0  0  0  0  0  0
   -0.2183   -1.2535    1.0549 H   0  0  0  0  0  0  0  0  0  0  0  0
  1  2  1  0
  2  3  1  0
  3  4  1  0
  4  5  1  0
  5  6  2  0
  6  7  1  0
  7  8  2  0
  8  9  1  0
  9 10  2  0
 10 11  1  0
 11 12  1  0
 12 13  2  0
 13 14  1  0
 14 15  2  0
 15 16  1  0
 15 17  1  0
 17 18  1  0
 17 19  2  0
 11 20  1  0
 20  3  1  0
 10  5  1  0
 19 12  1  0
  1 21  1  0
  1 22  1  0
  1 23  1  0
  2 24  1  0
  3 25  1  6
  4 26  1  0
  4 27  1  0
  6 28  1  0
  7 29  1  0
  8 30  1  0
  9 31  1  0
 11 32  1  6
 13 33  1  0
 14 34  1  0
 19 35  1  0
 20 36  1  0
 20 37  1  0
M  END
$$$$
