
     RDKit          3D

 57 60  0  0  0  0  0  0  0  0999 V2000
   -5.4551    2.5824    1.0598 C   0  0  0  0  0  0  0  0  0  0  0  0
   -5.3425    1.4305    0.3190 O   0  0  0  0  0  0  0  0  0  0  0  0
   -5.2795    1.6918   -1.0602 C   0  0  0  0  0  0  0  0  0  0  0  0
   -5.1569    0.4380   -1.8643 C   0  0  2  0  0  0  0  0  0  0  0  0
   -6.3608   -0.4387   -1.4833 C   0  0  0  0  0  0  0  0  0  0  0  0
   -5.7403   -1.3825   -0.4729 C   0  0  0  0  0  0  0  0  0  0  0  0
   -4.3832   -1.6240   -1.1056 C   0  0  0  0  0  0  0  0  0  0  0  0
   -4.0717   -0.3751   -1.6511 N   0  0  0  0  0  0  0  0  0  0  0  0
   -2.6048   -0.1414   -2.3797 S   0  0  0  0  0  6  0  0  0  0  0  0
   -2.3895   -1.2036   -3.4511 O   0  0  0  0  0  0  0  0  0  0  0  0
   -2.3839    1.1707   -3.0218 O   0  0  0  0  0  0  0  0  0  0  0  0
   -1.3228   -0.3924   -1.2017 C   0  0  0  0  0  0  0  0  0  0  0  0
   -0.8674    0.6881   -0.4506 C   0  0  0  0  0  0  0  0  0  0  0  0
    0.1335    0.5658    0.4899 C   0  0  0  0  0  0  0  0  0  0  0  0
    0.7262   -0.6777    0.7138 C   0  0  0  0  0  0  0  0  0  0  0  0
    0.2565   -1.7321   -0.0437 C   0  0  0  0  0  0  0  0  0  0  0  0
   -0.7449   -1.6040   -0.9831 C   0  0  0  0  0  0  0  0  0  0  0  0
    0.9870   -2.9583    0.3194 C   0  0  0  0  0  0  0  0  0  0  0  0
    0.8583   -4.1170   -0.1355 O   0  0  0  0  0  0  0  0  0  0  0  0
    1.9282   -2.5592    1.3502 C   0  0  0  0  0  0  0  0  0  0  0  0
    2.7781   -3.2587    1.9796 O   0  0  0  0  0  0  0  0  0  0  0  0
    1.7372   -1.1670    1.5599 N   0  0  0  0  0  0  0  0  0  0  0  0
    2.4789   -0.3506    2.5149 C   0  0  0  0  0  0  0  0  0  0  0  0
    3.6924    0.2374    1.9440 C   0  0  0  0  0  0  0  0  0  0  0  0
    3.7004    1.4690    1.3279 C   0  0  0  0  0  0  0  0  0  0  0  0
    4.8580    1.9966    0.7997 C   0  0  0  0  0  0  0  0  0  0  0  0
    6.0445    1.3006    0.8753 C   0  0  0  0  0  0  0  0  0  0  0  0
    7.2762    1.8804    0.3042 C   0  0  0  0  0  0  0  0  0  0  0  0
    8.2798    1.9915    1.2528 F   0  0  0  0  0  0  0  0  0  0  0  0
    7.8354    0.9880   -0.8087 C   0  0  0  0  0  0  0  0  0  0  0  0
    9.4399    1.7922   -1.5165 Br  0  0  0  0  0  0  0  0  0  0  0  0
    6.0423    0.0744    1.4875 C   0  0  0  0  0  0  0  0  0  0  0  0
    4.8818   -0.4538    2.0166 C   0  0  0  0  0  0  0  0  0  0  0  0
   -5.4984    2.2905    2.1270 H   0  0  0  0  0  0  0  0  0  0  0  0
   -6.3193    3.2214    0.7642 H   0  0  0  0  0  0  0  0  0  0  0  0
   -4.5585    3.2477    0.9623 H   0  0  0  0  0  0  0  0  0  0  0  0
   -6.2509    2.1636   -1.3266 H   0  0  0  0  0  0  0  0  0  0  0  0
   -4.4963    2.4285   -1.2246 H   0  0  0  0  0  0  0  0  0  0  0  0
   -5.2968    0.6757   -2.9303 H   0  0  0  0  0  0  0  0  0  0  0  0
   -6.6666   -1.0513   -2.3476 H   0  0  0  0  0  0  0  0  0  0  0  0
   -7.1649    0.1697   -1.0615 H   0  0  0  0  0  0  0  0  0  0  0  0
   -5.5521   -0.8911    0.5056 H   0  0  0  0  0  0  0  0  0  0  0  0
   -6.3193   -2.3201   -0.3698 H   0  0  0  0  0  0  0  0  0  0  0  0
   -4.5686   -2.3528   -1.9486 H   0  0  0  0  0  0  0  0  0  0  0  0
   -3.6532   -2.0328   -0.3805 H   0  0  0  0  0  0  0  0  0  0  0  0
   -1.3288    1.6706   -0.6208 H   0  0  0  0  0  0  0  0  0  0  0  0
    0.4853    1.4143    1.0743 H   0  0  0  0  0  0  0  0  0  0  0  0
   -1.1057   -2.4440   -1.5736 H   0  0  0  0  0  0  0  0  0  0  0  0
    1.8031    0.4924    2.8445 H   0  0  0  0  0  0  0  0  0  0  0  0
    2.7194   -0.9168    3.4316 H   0  0  0  0  0  0  0  0  0  0  0  0
    2.7894    2.0629    1.2401 H   0  0  0  0  0  0  0  0  0  0  0  0
    4.8890    2.9744    0.3049 H   0  0  0  0  0  0  0  0  0  0  0  0
    7.1064    2.8636   -0.1470 H   0  0  0  0  0  0  0  0  0  0  0  0
    8.1126   -0.0175   -0.4110 H   0  0  0  0  0  0  0  0  0  0  0  0
    7.1282    0.8730   -1.6342 H   0  0  0  0  0  0  0  0  0  0  0  0
    6.9737   -0.4586    1.5402 H   0  0  0  0  0  0  0  0  0  0  0  0
    4.9410   -1.4438    2.4968 H   0  0  0  0  0  0  0  0  0  0  0  0
  1  2  1  0
  2  3  1  0
  3  4  1  0
  4  5  1  0
  5  6  1  0
  6  7  1  0
  7  8  1  0
  8  9  1  0
  9 10  2  0
  9 11  2  0
  9 12  1  0
 12 13  2  0
 13 14  1  0
 14 15  2  0
 15 16  1  0
 16 17  2  0
 16 18  1  0
 18 19  2  0
 18 20  1  0
 20 21  2  0
 20 22  1  0
 22 23  1  0
 23 24  1  0
 24 25  2  0
 25 26  1  0
 26 27  2  0
 27 28  1  0
 28 29  1  0
 28 30  1  0
 30 31  1  0
 27 32  1  0
 32 33  2  0
  8  4  1  0
 17 12  1  0
 33 24  1  0
 22 15  1  0
  1 34  1  0
  1 35  1  0
  1 36  1  0
  3 37  1  0
  3 38  1  0
  4 39  1  6
  5 40  1  0
  5 41  1  0
  6 42  1  0
  6 43  1  0
  7 44  1  0
  7 45  1  0
 13 46  1  0
 14 47  1  0
 17 48  1  0
 23 49  1  0
 23 50  1  0
 25 51  1  0
 26 52  1  0
 28 53  1  0
 30 54  1  0
 30 55  1  0
 32 56  1  0
 33 57  1  0
M  END
$$$$
