
     RDKit          3D

 35 37  0  0  0  0  0  0  0  0999 V2000
    0.3159    2.1577   -2.1924 N   0  0  0  0  0  0  0  0  0  0  0  0
    0.2137    1.1358   -1.1928 C   0  0  0  0  0  0  0  0  0  0  0  0
    1.3197    0.6103   -0.6430 C   0  0  0  0  0  0  0  0  0  0  0  0
    0.6334   -0.5561    0.4840 S   0  0  0  0  0  0  0  0  0  0  0  0
   -1.1159   -0.2188    0.1013 C   0  0  0  0  0  0  0  0  0  0  0  0
   -2.2267   -0.8993    0.7072 N   0  0  0  0  0  0  0  0  0  0  0  0
   -3.6375   -0.7242    0.6775 C   0  0  0  0  0  0  0  0  0  0  0  0
   -4.4803   -1.7976    0.7610 C   0  0  0  0  0  0  0  0  0  0  0  0
   -5.8176   -1.4865    0.7415 C   0  0  0  0  0  0  0  0  0  0  0  0
   -7.0580   -2.7325    0.8385 Cl  0  0  0  0  0  0  0  0  0  0  0  0
   -6.2933   -0.2032    0.6478 C   0  0  0  0  0  0  0  0  0  0  0  0
   -5.4017    0.8483    0.5644 C   0  0  0  0  0  0  0  0  0  0  0  0
   -4.0551    0.5813    0.5804 C   0  0  0  0  0  0  0  0  0  0  0  0
   -1.0160    0.7573   -0.8564 N   0  0  0  0  0  4  0  0  0  0  0  0
    2.6881    0.8553   -0.8657 C   0  0  0  0  0  0  0  0  0  0  0  0
    2.9332    1.7100   -1.7868 O   0  0  0  0  0  0  0  0  0  0  0  0
    3.7757    0.2425   -0.1657 C   0  0  0  0  0  0  0  0  0  0  0  0
    3.7904   -0.3602    1.0500 C   0  0  0  0  0  0  0  0  0  0  0  0
    4.8589   -0.9383    1.6665 C   0  0  0  0  0  0  0  0  0  0  0  0
    6.0706   -0.9229    1.0055 C   0  0  0  0  0  0  0  0  0  0  0  0
    7.2127   -1.4655    1.5085 F   0  0  0  0  0  0  0  0  0  0  0  0
    6.1280   -0.3218   -0.2435 C   0  0  0  0  0  0  0  0  0  0  0  0
    5.0153    0.2372   -0.7999 C   0  0  0  0  0  0  0  0  0  0  0  0
    0.6944    1.8294   -3.1154 H   0  0  0  0  0  0  0  0  0  0  0  0
    0.1740    3.1490   -2.4376 H   0  0  0  0  0  0  0  0  0  0  0  0
   -1.9416   -1.7155    1.3165 H   0  0  0  0  0  0  0  0  0  0  0  0
   -4.1370   -2.8044    0.8390 H   0  0  0  0  0  0  0  0  0  0  0  0
   -7.3567    0.0408    0.6302 H   0  0  0  0  0  0  0  0  0  0  0  0
   -5.8185    1.8652    0.4901 H   0  0  0  0  0  0  0  0  0  0  0  0
   -3.4524    1.4810    0.5168 H   0  0  0  0  0  0  0  0  0  0  0  0
   -1.9355    1.0819   -1.2145 H   0  0  0  0  0  0  0  0  0  0  0  0
    2.8637   -0.3942    1.6063 H   0  0  0  0  0  0  0  0  0  0  0  0
    4.7983   -1.4070    2.6515 H   0  0  0  0  0  0  0  0  0  0  0  0
    7.0907   -0.3150   -0.7570 H   0  0  0  0  0  0  0  0  0  0  0  0
    5.1670    0.6802   -1.7856 H   0  0  0  0  0  0  0  0  0  0  0  0
  1  2  1  0
  2  3  2  0
  3  4  1  0
  4  5  1  0
  5  6  1  0
  6  7  1  0
  7  8  2  0
  8  9  1  0
  9 10  1  0
  9 11  2  0
 11 12  1  0
 12 13  2  0
  5 14  2  0
  3 15  1  0
 15 16  2  0
 15 17  1  0
 17 18  2  0
 18 19  1  0
 19 20  2  0
 20 21  1  0
 20 22  1  0
 22 23  2  0
 14  2  1  0
 23 17  1  0
 13  7  1  0
  1 24  1  0
  1 25  1  0
  6 26  1  0
  8 27  1  0
 11 28  1  0
 12 29  1  0
 13 30  1  0
 14 31  1  0
 18 32  1  0
 19 33  1  0
 22 34  1  0
 23 35  1  0
M  CHG  1  14   1
M  END
$$$$
