
     RDKit          3D

 52 56  0  0  0  0  0  0  0  0999 V2000
   -6.2399   -0.6621   -2.8103 F   0  0  0  0  0  0  0  0  0  0  0  0
   -5.2588   -0.5726   -1.8249 C   0  0  0  0  0  0  0  0  0  0  0  0
   -5.0508   -1.8579   -1.3971 F   0  0  0  0  0  0  0  0  0  0  0  0
   -4.1162   -0.1164   -2.4877 F   0  0  0  0  0  0  0  0  0  0  0  0
   -5.6731    0.3778   -0.7734 C   0  0  0  0  0  0  0  0  0  0  0  0
   -6.9142    1.0075   -0.9246 C   0  0  0  0  0  0  0  0  0  0  0  0
   -7.3521    1.9259    0.0010 C   0  0  0  0  0  0  0  0  0  0  0  0
   -6.5939    2.2484    1.0876 C   0  0  0  0  0  0  0  0  0  0  0  0
   -5.3850    1.6528    1.2609 C   0  0  0  0  0  0  0  0  0  0  0  0
   -4.9473    0.7182    0.3133 C   0  0  0  0  0  0  0  0  0  0  0  0
   -3.6661    0.1025    0.5837 C   0  0  0  0  0  0  0  0  0  0  0  0
   -3.5564   -1.2073    0.9522 C   0  0  0  0  0  0  0  0  0  0  0  0
   -2.2849   -1.7306    1.1631 C   0  0  0  0  0  0  0  0  0  0  0  0
   -2.1213   -3.1373    1.5599 C   0  0  0  0  0  0  0  0  0  0  0  0
   -1.4865   -3.2837    2.7749 F   0  0  0  0  0  0  0  0  0  0  0  0
   -3.3732   -3.7033    1.6917 F   0  0  0  0  0  0  0  0  0  0  0  0
   -1.4695   -3.8335    0.5550 F   0  0  0  0  0  0  0  0  0  0  0  0
   -1.1892   -0.9093    0.9936 C   0  0  0  0  0  0  0  0  0  0  0  0
    0.1428   -1.1323    1.1250 N   0  0  0  0  0  0  0  0  0  0  0  0
    0.8481   -0.0418    0.8609 C   0  0  0  0  0  0  0  0  0  0  0  0
    2.3000    0.1611    0.8810 C   0  0  0  0  0  0  0  0  0  0  0  0
    3.1526   -0.3674    1.6931 N   0  0  0  0  0  0  0  0  0  0  0  0
    4.4157    0.0392    1.4262 O   0  0  0  0  0  0  0  0  0  0  0  0
    4.4527    0.5581    0.1240 C   0  0  0  0  0  0  0  0  0  0  0  0
    5.4547    1.6703   -0.0376 C   0  0  0  0  0  0  0  0  0  0  0  0
    6.8157    1.0722   -0.2777 C   0  0  0  0  0  0  0  0  0  0  0  0
    6.9046   -0.3549    0.1993 C   0  0  0  0  0  0  0  0  0  0  0  0
    6.0137   -1.2711   -0.5848 C   0  0  0  0  0  0  0  0  0  0  0  0
    4.6926   -0.5790   -0.8361 C   0  0  0  0  0  0  0  0  0  0  0  0
    3.0306    1.0409   -0.0701 C   0  0  0  0  0  0  0  0  0  0  0  0
   -0.0329    0.9250    0.5477 N   0  0  0  0  0  0  0  0  0  0  0  0
   -1.2962    0.4132    0.6227 C   0  0  0  0  0  0  0  0  0  0  0  0
   -2.5401    0.9230    0.4164 C   0  0  0  0  0  0  0  0  0  0  0  0
   -7.5277    0.7591   -1.7862 H   0  0  0  0  0  0  0  0  0  0  0  0
   -8.3089    2.4120   -0.1147 H   0  0  0  0  0  0  0  0  0  0  0  0
   -6.9445    2.9785    1.8205 H   0  0  0  0  0  0  0  0  0  0  0  0
   -4.7500    1.8865    2.1197 H   0  0  0  0  0  0  0  0  0  0  0  0
   -4.4379   -1.8525    1.1080 H   0  0  0  0  0  0  0  0  0  0  0  0
    0.5324   -2.0510    1.3991 H   0  0  0  0  0  0  0  0  0  0  0  0
    5.2106    2.3472   -0.8661 H   0  0  0  0  0  0  0  0  0  0  0  0
    5.4765    2.2169    0.9475 H   0  0  0  0  0  0  0  0  0  0  0  0
    7.5645    1.6671    0.2947 H   0  0  0  0  0  0  0  0  0  0  0  0
    7.0635    1.0826   -1.3680 H   0  0  0  0  0  0  0  0  0  0  0  0
    7.9591   -0.6855    0.0199 H   0  0  0  0  0  0  0  0  0  0  0  0
    6.7073   -0.4158    1.2700 H   0  0  0  0  0  0  0  0  0  0  0  0
    5.8863   -2.1997    0.0030 H   0  0  0  0  0  0  0  0  0  0  0  0
    6.4405   -1.5371   -1.5810 H   0  0  0  0  0  0  0  0  0  0  0  0
    3.8933   -1.3281   -0.6587 H   0  0  0  0  0  0  0  0  0  0  0  0
    4.5908   -0.2616   -1.9009 H   0  0  0  0  0  0  0  0  0  0  0  0
    2.7205    0.8578   -1.1207 H   0  0  0  0  0  0  0  0  0  0  0  0
    2.8892    2.0866    0.2309 H   0  0  0  0  0  0  0  0  0  0  0  0
   -2.6416    1.9612    0.1244 H   0  0  0  0  0  0  0  0  0  0  0  0
  1  2  1  0
  2  3  1  0
  2  4  1  0
  2  5  1  0
  5  6  2  0
  6  7  1  0
  7  8  2  0
  8  9  1  0
  9 10  2  0
 10 11  1  0
 11 12  2  0
 12 13  1  0
 13 14  1  0
 14 15  1  0
 14 16  1  0
 14 17  1  0
 13 18  2  0
 18 19  1  0
 19 20  1  0
 20 21  1  0
 21 22  2  0
 22 23  1  0
 23 24  1  0
 24 25  1  0
 25 26  1  0
 26 27  1  0
 27 28  1  0
 28 29  1  0
 24 30  1  0
 20 31  2  0
 31 32  1  0
 32 33  2  0
 10  5  1  0
 33 11  1  0
 32 18  1  0
 30 21  1  0
 29 24  1  0
  6 34  1  0
  7 35  1  0
  8 36  1  0
  9 37  1  0
 12 38  1  0
 19 39  1  0
 25 40  1  0
 25 41  1  0
 26 42  1  0
 26 43  1  0
 27 44  1  0
 27 45  1  0
 28 46  1  0
 28 47  1  0
 29 48  1  0
 29 49  1  0
 30 50  1  0
 30 51  1  0
 33 52  1  0
M  END
$$$$
