
     RDKit          3D

 25 25  0  0  0  0  0  0  0  0999 V2000
    0.8590    0.6004    0.3792 C   0  0  2  0  0  0  0  0  0  0  0  0
    1.7460   -0.5956    0.3762 C   0  0  0  0  0  0  0  0  0  0  0  0
    1.1015   -1.8775    0.7619 C   0  0  0  0  0  0  0  0  0  0  0  0
   -0.1721   -2.1880    0.0515 C   0  0  0  0  0  0  0  0  0  0  0  0
   -0.9955   -1.0460   -0.3626 C   0  0  0  0  0  0  0  0  0  0  0  0
   -0.4787    0.2567   -0.0429 N   0  0  0  0  0  0  0  0  0  0  0  0
   -1.3862    1.3490   -0.1518 C   0  0  0  0  0  0  0  0  0  0  0  0
   -2.8097    1.2939   -0.5594 C   0  0  0  0  0  0  0  0  0  0  0  0
   -1.1089    2.5435    0.0861 O   0  0  0  0  0  0  0  0  0  0  0  0
    1.4715    1.5771   -0.5900 C   0  0  0  0  0  0  0  0  0  0  0  0
    2.7622    2.0187   -0.3386 O   0  0  0  0  0  0  0  0  0  0  0  0
    0.8273    1.9890   -1.6129 O   0  0  0  0  0  0  0  0  0  0  0  0
    0.8056    1.0300    1.3931 H   0  0  0  0  0  0  0  0  0  0  0  0
    2.2733   -0.6919   -0.5993 H   0  0  0  0  0  0  0  0  0  0  0  0
    2.5503   -0.3935    1.1330 H   0  0  0  0  0  0  0  0  0  0  0  0
    1.8441   -2.6837    0.5871 H   0  0  0  0  0  0  0  0  0  0  0  0
    0.9277   -1.8508    1.8625 H   0  0  0  0  0  0  0  0  0  0  0  0
   -0.7472   -2.8659    0.7249 H   0  0  0  0  0  0  0  0  0  0  0  0
    0.0746   -2.8402   -0.8366 H   0  0  0  0  0  0  0  0  0  0  0  0
   -1.2166   -1.0578   -1.4543 H   0  0  0  0  0  0  0  0  0  0  0  0
   -2.0121   -1.0961    0.1303 H   0  0  0  0  0  0  0  0  0  0  0  0
   -2.9226    1.9054   -1.4895 H   0  0  0  0  0  0  0  0  0  0  0  0
   -3.1785    0.2954   -0.7995 H   0  0  0  0  0  0  0  0  0  0  0  0
   -3.4754    1.7299    0.2173 H   0  0  0  0  0  0  0  0  0  0  0  0
    3.2603    2.5979   -1.0275 H   0  0  0  0  0  0  0  0  0  0  0  0
  1  2  1  0
  2  3  1  0
  3  4  1  0
  4  5  1  0
  5  6  1  0
  6  7  1  0
  7  8  1  0
  7  9  2  0
  1 10  1  0
 10 11  1  0
 10 12  2  0
  6  1  1  0
  1 13  1  1
  2 14  1  0
  2 15  1  0
  3 16  1  0
  3 17  1  0
  4 18  1  0
  4 19  1  0
  5 20  1  0
  5 21  1  0
  8 22  1  0
  8 23  1  0
  8 24  1  0
 11 25  1  0
M  END
$$$$
