
     RDKit          3D

 54 57  0  0  0  0  0  0  0  0999 V2000
   -5.3623   -0.0555    0.6949 C   0  0  2  0  0  0  0  0  0  0  0  0
   -4.1461    0.7843    0.9969 C   0  0  0  0  0  0  0  0  0  0  0  0
   -2.8907    0.2138    0.5203 C   0  0  0  0  0  0  0  0  0  0  0  0
   -2.2076   -0.6278    1.3848 C   0  0  0  0  0  0  0  0  0  0  0  0
   -1.0164   -1.2246    1.0569 C   0  0  0  0  0  0  0  0  0  0  0  0
   -0.4846   -0.9734   -0.1802 C   0  0  0  0  0  0  0  0  0  0  0  0
   -1.0977   -0.1511   -1.0983 C   0  0  0  0  0  0  0  0  0  0  0  0
   -2.3017    0.4230   -0.7055 C   0  0  0  0  0  0  0  0  0  0  0  0
    0.6767   -1.6244   -0.3587 N   0  0  0  0  0  0  0  0  0  0  0  0
    1.6790   -1.7365   -1.4018 C   0  0  0  0  0  0  0  0  0  0  0  0
    2.7751   -0.7379   -1.2307 C   0  0  0  0  0  0  0  0  0  0  0  0
    2.9094    0.5912   -1.4823 C   0  0  0  0  0  0  0  0  0  0  0  0
    1.8412    1.4219   -2.0795 C   0  0  0  0  0  0  0  0  0  0  0  0
    4.1021    0.9792   -1.1161 O   0  0  0  0  0  0  0  0  0  0  0  0
    4.7915   -0.0059   -0.6293 C   0  0  0  0  0  0  0  0  0  0  0  0
    3.9810   -1.0921   -0.6912 N   0  0  0  0  0  0  0  0  0  0  0  0
    6.1583    0.0593   -0.1229 C   0  0  0  0  0  0  0  0  0  0  0  0
    6.7448    1.3125   -0.1819 C   0  0  0  0  0  0  0  0  0  0  0  0
    5.9627    2.7391   -0.8077 Cl  0  0  0  0  0  0  0  0  0  0  0  0
    8.0502    1.4011    0.3004 C   0  0  0  0  0  0  0  0  0  0  0  0
    8.7184    0.2968    0.8086 C   0  0  0  0  0  0  0  0  0  0  0  0
    8.1109   -0.9470    0.8572 C   0  0  0  0  0  0  0  0  0  0  0  0
    6.8048   -1.0482    0.3775 C   0  0  0  0  0  0  0  0  0  0  0  0
    0.8618   -2.2935    0.7988 C   0  0  0  0  0  0  0  0  0  0  0  0
   -0.1521   -2.0826    1.7065 C   0  0  0  0  0  0  0  0  0  0  0  0
   -6.4456    0.6356    1.2187 O   0  0  0  0  0  0  0  0  0  0  0  0
   -7.3790    1.0653    0.3264 C   0  0  0  0  0  0  0  0  0  0  0  0
   -6.9173    2.0182   -0.7246 C   0  0  0  0  0  0  0  0  0  0  0  0
   -5.1938   -1.3822    1.3396 C   0  0  0  0  0  0  0  0  0  0  0  0
   -4.7508   -2.6390    1.7032 O   0  0  0  0  0  0  0  0  0  0  0  0
   -5.8848   -1.9260    2.2670 O   0  0  0  0  0  0  0  0  0  0  0  0
   -5.4897   -0.1256   -0.3843 H   0  0  0  0  0  0  0  0  0  0  0  0
   -4.0732    0.9396    2.0924 H   0  0  0  0  0  0  0  0  0  0  0  0
   -4.3613    1.7904    0.5558 H   0  0  0  0  0  0  0  0  0  0  0  0
   -2.6077   -0.8421    2.3699 H   0  0  0  0  0  0  0  0  0  0  0  0
   -0.6804    0.0399   -2.0704 H   0  0  0  0  0  0  0  0  0  0  0  0
   -2.8378    1.0800   -1.3763 H   0  0  0  0  0  0  0  0  0  0  0  0
    2.1046   -2.7476   -1.4300 H   0  0  0  0  0  0  0  0  0  0  0  0
    1.1996   -1.4811   -2.3936 H   0  0  0  0  0  0  0  0  0  0  0  0
    1.1107    1.6938   -1.2964 H   0  0  0  0  0  0  0  0  0  0  0  0
    2.2870    2.3900   -2.4186 H   0  0  0  0  0  0  0  0  0  0  0  0
    1.3644    0.9126   -2.9417 H   0  0  0  0  0  0  0  0  0  0  0  0
    8.5961    2.3428    0.2964 H   0  0  0  0  0  0  0  0  0  0  0  0
    9.7302    0.4166    1.1709 H   0  0  0  0  0  0  0  0  0  0  0  0
    8.6354   -1.7919    1.2513 H   0  0  0  0  0  0  0  0  0  0  0  0
    6.3230   -2.0148    0.4109 H   0  0  0  0  0  0  0  0  0  0  0  0
    1.6793   -2.9569    1.1003 H   0  0  0  0  0  0  0  0  0  0  0  0
   -0.3108   -2.4576    2.7056 H   0  0  0  0  0  0  0  0  0  0  0  0
   -8.1597    1.6137    0.9186 H   0  0  0  0  0  0  0  0  0  0  0  0
   -7.9578    0.2230   -0.1496 H   0  0  0  0  0  0  0  0  0  0  0  0
   -7.7295    2.2380   -1.4494 H   0  0  0  0  0  0  0  0  0  0  0  0
   -6.6180    3.0066   -0.3229 H   0  0  0  0  0  0  0  0  0  0  0  0
   -6.1171    1.5446   -1.3255 H   0  0  0  0  0  0  0  0  0  0  0  0
   -4.0246   -3.0821    1.1391 H   0  0  0  0  0  0  0  0  0  0  0  0
  1  2  1  0
  2  3  1  0
  3  4  2  0
  4  5  1  0
  5  6  2  0
  6  7  1  0
  7  8  2  0
  6  9  1  0
  9 10  1  0
 10 11  1  0
 11 12  2  0
 12 13  1  0
 12 14  1  0
 14 15  1  0
 15 16  2  0
 15 17  1  0
 17 18  2  0
 18 19  1  0
 18 20  1  0
 20 21  2  0
 21 22  1  0
 22 23  2  0
  9 24  1  0
 24 25  2  0
  1 26  1  0
 26 27  1  0
 27 28  1  0
  1 29  1  0
 29 30  1  0
 29 31  2  0
  8  3  1  0
 16 11  1  0
 23 17  1  0
 25  5  1  0
  1 32  1  6
  2 33  1  0
  2 34  1  0
  4 35  1  0
  7 36  1  0
  8 37  1  0
 10 38  1  0
 10 39  1  0
 13 40  1  0
 13 41  1  0
 13 42  1  0
 20 43  1  0
 21 44  1  0
 22 45  1  0
 23 46  1  0
 24 47  1  0
 25 48  1  0
 27 49  1  0
 27 50  1  0
 28 51  1  0
 28 52  1  0
 28 53  1  0
 30 54  1  0
M  END
$$$$
