
     RDKit          3D

 22 21  0  0  0  0  0  0  0  0999 V2000
   -1.6792    1.1552   -0.6516 C   0  0  0  0  0  0  0  0  0  0  0  0
   -1.3514   -0.2776   -0.5239 C   0  0  0  0  0  0  0  0  0  0  0  0
   -2.0196   -0.8409    0.7126 C   0  0  0  0  0  0  0  0  0  0  0  0
    0.0905   -0.6440   -0.5523 C   0  0  0  0  0  0  0  0  0  0  0  0
    0.9601   -0.0630    0.4990 C   0  0  2  0  0  0  0  0  0  0  0  0
    1.0223    1.3717    0.5254 N   0  0  0  0  0  0  0  0  0  0  0  0
    2.3499   -0.5404    0.1956 C   0  0  0  0  0  0  0  0  0  0  0  0
    3.6024    0.0376   -0.0501 O   0  0  0  0  0  0  0  0  0  0  0  0
    2.5178   -1.7766    0.1266 O   0  0  0  0  0  0  0  0  0  0  0  0
   -2.4212    1.3512   -1.4817 H   0  0  0  0  0  0  0  0  0  0  0  0
   -0.8669    1.8560   -0.8392 H   0  0  0  0  0  0  0  0  0  0  0  0
   -2.2161    1.5365    0.2668 H   0  0  0  0  0  0  0  0  0  0  0  0
   -1.8160   -0.8187   -1.3863 H   0  0  0  0  0  0  0  0  0  0  0  0
   -3.0539   -1.1745    0.5159 H   0  0  0  0  0  0  0  0  0  0  0  0
   -1.4243   -1.7189    1.0766 H   0  0  0  0  0  0  0  0  0  0  0  0
   -2.0557   -0.0810    1.5394 H   0  0  0  0  0  0  0  0  0  0  0  0
    0.1441   -1.7540   -0.4219 H   0  0  0  0  0  0  0  0  0  0  0  0
    0.5643   -0.4662   -1.5399 H   0  0  0  0  0  0  0  0  0  0  0  0
    0.7416   -0.4554    1.5097 H   0  0  0  0  0  0  0  0  0  0  0  0
    1.1027    1.7088    1.5031 H   0  0  0  0  0  0  0  0  0  0  0  0
    1.6926    1.7823   -0.1305 H   0  0  0  0  0  0  0  0  0  0  0  0
    4.1162   -0.1881   -0.8934 H   0  0  0  0  0  0  0  0  0  0  0  0
  1  2  1  0
  2  3  1  0
  2  4  1  0
  4  5  1  0
  5  6  1  0
  5  7  1  0
  7  8  1  0
  7  9  2  0
  1 10  1  0
  1 11  1  0
  1 12  1  0
  2 13  1  0
  3 14  1  0
  3 15  1  0
  3 16  1  0
  4 17  1  0
  4 18  1  0
  5 19  1  1
  6 20  1  0
  6 21  1  0
  8 22  1  0
M  END
$$$$
