
     RDKit          3D

 48 51  0  0  0  0  0  0  0  0999 V2000
   -7.0211   -0.7759    2.2217 C   0  0  0  0  0  0  0  0  0  0  0  0
   -5.5504   -0.6621    2.3561 C   0  0  0  0  0  0  0  0  0  0  0  0
   -5.0776   -0.7339    3.5361 O   0  0  0  0  0  0  0  0  0  0  0  0
   -4.6865   -0.4824    1.2498 N   0  0  0  0  0  0  0  0  0  0  0  0
   -5.2096   -0.3993   -0.0894 C   0  0  0  0  0  0  0  0  0  0  0  0
   -4.7439    0.9189   -0.6843 C   0  0  0  0  0  0  0  0  0  0  0  0
   -3.2399    0.7808   -0.7777 C   0  0  0  0  0  0  0  0  0  0  0  0
   -2.5709    0.1610    0.2467 C   0  0  0  0  0  0  0  0  0  0  0  0
   -1.2195    0.1659   -0.0862 C   0  0  0  0  0  0  0  0  0  0  0  0
   -0.1689   -0.3650    0.6783 N   0  0  0  0  0  0  0  0  0  0  0  0
    1.1965   -0.3554    0.3227 C   0  0  0  0  0  0  0  0  0  0  0  0
    1.7275    0.1685   -0.8220 C   0  0  0  0  0  0  0  0  0  0  0  0
    3.0921    0.1573   -1.1360 C   0  0  0  0  0  0  0  0  0  0  0  0
    3.9652   -0.4084   -0.2557 C   0  0  0  0  0  0  0  0  0  0  0  0
    5.3861   -0.4232   -0.5767 C   0  0  0  0  0  0  0  0  0  0  0  0
    5.9263   -0.5063   -1.8390 C   0  0  0  0  0  0  0  0  0  0  0  0
    7.2785   -0.4912   -1.7174 N   0  0  0  0  0  0  0  0  0  0  0  0
    7.6103   -0.4029   -0.4454 N   0  0  0  0  0  0  0  0  0  0  0  0
    8.9554   -0.3593    0.0962 C   0  0  0  0  0  0  0  0  0  0  0  0
    6.4742   -0.3586    0.2911 C   0  0  0  0  0  0  0  0  0  0  0  0
    3.4578   -0.9482    0.9139 C   0  0  0  0  0  0  0  0  0  0  0  0
    2.1308   -0.9306    1.2063 C   0  0  0  0  0  0  0  0  0  0  0  0
    1.6978   -1.4746    2.3659 F   0  0  0  0  0  0  0  0  0  0  0  0
   -1.1625    0.7805   -1.2743 N   0  0  0  0  0  0  0  0  0  0  0  0
   -2.3471    1.1458   -1.6889 N   0  0  0  0  0  0  0  0  0  0  0  0
   -2.7081    1.8400   -2.9291 C   0  0  0  0  0  0  0  0  0  0  0  0
   -3.2639   -0.3806    1.4477 C   0  0  0  0  0  0  0  0  0  0  0  0
   -7.4707    0.1225    1.7294 H   0  0  0  0  0  0  0  0  0  0  0  0
   -7.3313   -1.6492    1.6181 H   0  0  0  0  0  0  0  0  0  0  0  0
   -7.5206   -0.8658    3.2046 H   0  0  0  0  0  0  0  0  0  0  0  0
   -4.7155   -1.2177   -0.6860 H   0  0  0  0  0  0  0  0  0  0  0  0
   -6.2973   -0.5324   -0.1437 H   0  0  0  0  0  0  0  0  0  0  0  0
   -4.9395    1.7204    0.0284 H   0  0  0  0  0  0  0  0  0  0  0  0
   -5.1909    1.1403   -1.6535 H   0  0  0  0  0  0  0  0  0  0  0  0
   -0.4269   -0.8077    1.5961 H   0  0  0  0  0  0  0  0  0  0  0  0
    1.0533    0.6305   -1.5508 H   0  0  0  0  0  0  0  0  0  0  0  0
    3.4023    0.6043   -2.0777 H   0  0  0  0  0  0  0  0  0  0  0  0
    5.3547   -0.5724   -2.7685 H   0  0  0  0  0  0  0  0  0  0  0  0
    9.4216    0.6233    0.0447 H   0  0  0  0  0  0  0  0  0  0  0  0
    9.5840   -1.1555   -0.4006 H   0  0  0  0  0  0  0  0  0  0  0  0
    8.9405   -0.6577    1.1738 H   0  0  0  0  0  0  0  0  0  0  0  0
    6.3619   -0.2868    1.3534 H   0  0  0  0  0  0  0  0  0  0  0  0
    4.1878   -1.3935    1.5965 H   0  0  0  0  0  0  0  0  0  0  0  0
   -1.8200    2.0435   -3.5552 H   0  0  0  0  0  0  0  0  0  0  0  0
   -3.1450    2.8308   -2.6783 H   0  0  0  0  0  0  0  0  0  0  0  0
   -3.4969    1.2674   -3.4567 H   0  0  0  0  0  0  0  0  0  0  0  0
   -2.8788   -1.3872    1.7014 H   0  0  0  0  0  0  0  0  0  0  0  0
   -3.0012    0.2686    2.3141 H   0  0  0  0  0  0  0  0  0  0  0  0
  1  2  1  0
  2  3  2  0
  2  4  1  0
  4  5  1  0
  5  6  1  0
  6  7  1  0
  7  8  2  0
  8  9  1  0
  9 10  1  0
 10 11  1  0
 11 12  2  0
 12 13  1  0
 13 14  2  0
 14 15  1  0
 15 16  1  0
 16 17  2  0
 17 18  1  0
 18 19  1  0
 18 20  1  0
 14 21  1  0
 21 22  2  0
 22 23  1  0
  9 24  2  0
 24 25  1  0
 25 26  1  0
  8 27  1  0
 27  4  1  0
 25  7  1  0
 22 11  1  0
 20 15  2  0
  1 28  1  0
  1 29  1  0
  1 30  1  0
  5 31  1  0
  5 32  1  0
  6 33  1  0
  6 34  1  0
 10 35  1  0
 12 36  1  0
 13 37  1  0
 16 38  1  0
 19 39  1  0
 19 40  1  0
 19 41  1  0
 20 42  1  0
 21 43  1  0
 26 44  1  0
 26 45  1  0
 26 46  1  0
 27 47  1  0
 27 48  1  0
M  END
$$$$
