
     RDKit          3D

 69 73  0  0  0  0  0  0  0  0999 V2000
   -4.0491    2.5185    1.7146 C   0  0  0  0  0  0  0  0  0  0  0  0
   -4.7691    1.3221    2.3331 C   0  0  0  0  0  0  0  0  0  0  0  0
   -4.3636    0.0805    1.5201 C   0  0  2  0  0  0  0  0  0  0  0  0
   -2.8958   -0.0863    1.5927 C   0  0  0  0  0  0  0  0  0  0  0  0
   -2.3797   -0.7252    2.5765 O   0  0  0  0  0  0  0  0  0  0  0  0
   -1.9605    0.4113    0.6534 N   0  0  0  0  0  0  0  0  0  0  0  0
   -0.5439    0.1900    0.8186 C   0  0  0  0  0  0  0  0  0  0  0  0
    0.1401    1.1153    1.5941 C   0  0  0  0  0  0  0  0  0  0  0  0
    1.4890    1.0269    1.8278 C   0  0  0  0  0  0  0  0  0  0  0  0
    2.1802   -0.0253    1.2655 C   0  0  0  0  0  0  0  0  0  0  0  0
    1.5142   -0.9546    0.4909 C   0  0  0  0  0  0  0  0  0  0  0  0
    1.9548   -2.0747   -0.1792 C   0  0  0  0  0  0  0  0  0  0  0  0
    3.3276   -2.5635   -0.2096 C   0  0  0  0  0  0  0  0  0  0  0  0
    4.3675   -1.7361   -0.4517 N   0  0  0  0  0  0  0  0  0  0  0  0
    5.6374   -2.1382   -0.4973 C   0  0  0  0  0  0  0  0  0  0  0  0
    6.7436   -1.2862   -0.7393 N   0  0  0  0  0  0  0  0  0  0  0  0
    6.6342    0.1279   -0.9344 C   0  0  0  0  0  0  0  0  0  0  0  0
    5.5167    0.9028   -0.9264 C   0  0  0  0  0  0  0  0  0  0  0  0
    5.8814    2.1876   -1.1499 N   0  0  0  0  0  0  0  0  0  0  0  0
    4.9561    3.3038   -1.2095 C   0  0  0  0  0  0  0  0  0  0  0  0
    7.1820    2.2225   -1.2934 N   0  0  0  0  0  0  0  0  0  0  0  0
    7.7020    1.0014   -1.1741 C   0  0  0  0  0  0  0  0  0  0  0  0
    9.1426    0.5853   -1.2665 C   0  0  0  0  0  0  0  0  0  0  0  0
    5.9168   -3.4582   -0.2897 N   0  0  0  0  0  0  0  0  0  0  0  0
    4.9509   -4.3606   -0.0410 C   0  0  0  0  0  0  0  0  0  0  0  0
    3.6462   -3.8879   -0.0042 C   0  0  0  0  0  0  0  0  0  0  0  0
    2.6542   -4.7571    0.2418 F   0  0  0  0  0  0  0  0  0  0  0  0
    0.8169   -2.6014   -0.7869 C   0  0  0  0  0  0  0  0  0  0  0  0
   -0.2629   -1.8554   -0.5116 N   0  0  0  0  0  0  0  0  0  0  0  0
    0.1375   -0.8489    0.2632 C   0  0  0  0  0  0  0  0  0  0  0  0
   -4.8809    0.2535    0.1818 N   0  0  0  0  0  0  0  0  0  0  0  0
   -4.5598   -0.8441   -0.6837 C   0  0  0  0  0  0  0  0  0  0  0  0
   -5.2170   -0.8181   -2.0092 C   0  0  0  0  0  0  0  0  0  0  0  0
   -6.3987   -0.0381   -2.1051 N   0  0  0  0  0  0  0  0  0  0  0  0
   -6.2796    1.2523   -2.6923 C   0  0  0  0  0  0  0  0  0  0  0  0
   -7.1052   -0.0654   -0.8731 C   0  0  0  0  0  0  0  0  0  0  0  0
   -6.2909    0.5410    0.2271 C   0  0  0  0  0  0  0  0  0  0  0  0
   -2.9977    2.5551    2.0235 H   0  0  0  0  0  0  0  0  0  0  0  0
   -4.5566    3.4564    1.9822 H   0  0  0  0  0  0  0  0  0  0  0  0
   -4.1843    2.3865    0.6161 H   0  0  0  0  0  0  0  0  0  0  0  0
   -4.3876    1.1887    3.3535 H   0  0  0  0  0  0  0  0  0  0  0  0
   -5.8334    1.4784    2.2211 H   0  0  0  0  0  0  0  0  0  0  0  0
   -4.8552   -0.7748    1.9828 H   0  0  0  0  0  0  0  0  0  0  0  0
   -2.2812    0.9564   -0.1662 H   0  0  0  0  0  0  0  0  0  0  0  0
   -0.3884    1.9559    2.0496 H   0  0  0  0  0  0  0  0  0  0  0  0
    2.0464    1.7490    2.4398 H   0  0  0  0  0  0  0  0  0  0  0  0
    3.2512   -0.1244    1.4326 H   0  0  0  0  0  0  0  0  0  0  0  0
    7.7196   -1.6882   -0.7842 H   0  0  0  0  0  0  0  0  0  0  0  0
    4.4769    0.5771   -0.7683 H   0  0  0  0  0  0  0  0  0  0  0  0
    3.9994    2.9296   -1.6702 H   0  0  0  0  0  0  0  0  0  0  0  0
    4.7125    3.6633   -0.1771 H   0  0  0  0  0  0  0  0  0  0  0  0
    5.3844    4.1663   -1.7505 H   0  0  0  0  0  0  0  0  0  0  0  0
    9.4959    0.2141   -0.2993 H   0  0  0  0  0  0  0  0  0  0  0  0
    9.7173    1.5144   -1.5196 H   0  0  0  0  0  0  0  0  0  0  0  0
    9.2356   -0.1380   -2.0781 H   0  0  0  0  0  0  0  0  0  0  0  0
    5.2017   -5.4156    0.1229 H   0  0  0  0  0  0  0  0  0  0  0  0
    0.8672   -3.5121   -1.3996 H   0  0  0  0  0  0  0  0  0  0  0  0
   -1.2357   -2.0069   -0.8278 H   0  0  0  0  0  0  0  0  0  0  0  0
   -4.8944   -1.7806   -0.1447 H   0  0  0  0  0  0  0  0  0  0  0  0
   -3.4696   -0.9399   -0.7774 H   0  0  0  0  0  0  0  0  0  0  0  0
   -5.4618   -1.8691   -2.3471 H   0  0  0  0  0  0  0  0  0  0  0  0
   -4.5066   -0.4417   -2.7986 H   0  0  0  0  0  0  0  0  0  0  0  0
   -5.9672    1.2083   -3.7442 H   0  0  0  0  0  0  0  0  0  0  0  0
   -5.6385    1.9548   -2.1431 H   0  0  0  0  0  0  0  0  0  0  0  0
   -7.3192    1.6975   -2.6927 H   0  0  0  0  0  0  0  0  0  0  0  0
   -8.0423    0.5485   -0.9880 H   0  0  0  0  0  0  0  0  0  0  0  0
   -7.4309   -1.0933   -0.6126 H   0  0  0  0  0  0  0  0  0  0  0  0
   -6.6768    0.0530    1.1718 H   0  0  0  0  0  0  0  0  0  0  0  0
   -6.5158    1.6139    0.3196 H   0  0  0  0  0  0  0  0  0  0  0  0
  1  2  1  0
  2  3  1  0
  3  4  1  0
  4  5  2  0
  4  6  1  0
  6  7  1  0
  7  8  2  0
  8  9  1  0
  9 10  2  0
 10 11  1  0
 11 12  1  0
 12 13  1  0
 13 14  2  0
 14 15  1  0
 15 16  1  0
 16 17  1  0
 17 18  2  0
 18 19  1  0
 19 20  1  0
 19 21  1  0
 21 22  2  0
 22 23  1  0
 15 24  2  0
 24 25  1  0
 25 26  2  0
 26 27  1  0
 12 28  2  0
 28 29  1  0
 29 30  1  0
  3 31  1  0
 31 32  1  0
 32 33  1  0
 33 34  1  0
 34 35  1  0
 34 36  1  0
 36 37  1  0
 30  7  1  0
 37 31  1  0
 30 11  2  0
 26 13  1  0
 22 17  1  0
  1 38  1  0
  1 39  1  0
  1 40  1  0
  2 41  1  0
  2 42  1  0
  3 43  1  1
  6 44  1  0
  8 45  1  0
  9 46  1  0
 10 47  1  0
 16 48  1  0
 18 49  1  0
 20 50  1  0
 20 51  1  0
 20 52  1  0
 23 53  1  0
 23 54  1  0
 23 55  1  0
 25 56  1  0
 28 57  1  0
 29 58  1  0
 32 59  1  0
 32 60  1  0
 33 61  1  0
 33 62  1  0
 35 63  1  0
 35 64  1  0
 35 65  1  0
 36 66  1  0
 36 67  1  0
 37 68  1  0
 37 69  1  0
M  END
$$$$
