
     RDKit          3D

 44 45  0  0  0  0  0  0  0  0999 V2000
    1.1536    0.6712    1.6972 C   0  0  0  0  0  0  0  0  0  0  0  0
   -0.2059    0.6372    1.0601 C   0  0  1  0  0  0  0  0  0  0  0  0
   -1.1031   -0.2402    1.8985 C   0  0  0  0  0  0  0  0  0  0  0  0
   -0.6403   -1.6337    2.0239 C   0  0  0  0  0  0  0  0  0  0  0  0
   -1.0249   -2.5869    1.0734 C   0  0  0  0  0  0  0  0  0  0  0  0
   -0.6195   -3.9013    1.1568 C   0  0  0  0  0  0  0  0  0  0  0  0
    0.1832   -4.3069    2.1920 C   0  0  0  0  0  0  0  0  0  0  0  0
    0.6066   -5.6456    2.2926 O   0  0  0  0  0  0  0  0  0  0  0  0
    0.5792   -3.3929    3.1444 C   0  0  0  0  0  0  0  0  0  0  0  0
    1.3959   -3.7885    4.2043 O   0  0  0  0  0  0  0  0  0  0  0  0
    0.1553   -2.0698    3.0369 C   0  0  0  0  0  0  0  0  0  0  0  0
   -0.8065    1.9692    0.7583 C   0  0  2  0  0  0  0  0  0  0  0  0
   -2.1958    1.8405    0.1462 C   0  0  0  0  0  0  0  0  0  0  0  0
    0.0707    2.8407   -0.0910 C   0  0  0  0  0  0  0  0  0  0  0  0
    0.4212    2.3452   -1.4052 C   0  0  0  0  0  0  0  0  0  0  0  0
    1.5567    1.6112   -1.6280 C   0  0  0  0  0  0  0  0  0  0  0  0
    1.8827    1.1322   -2.9057 C   0  0  0  0  0  0  0  0  0  0  0  0
    1.0586    1.3974   -3.9563 C   0  0  0  0  0  0  0  0  0  0  0  0
    1.3674    0.9328   -5.2160 O   0  0  0  0  0  0  0  0  0  0  0  0
   -0.0742    2.1237   -3.7617 C   0  0  0  0  0  0  0  0  0  0  0  0
   -0.9263    2.4011   -4.8336 O   0  0  0  0  0  0  0  0  0  0  0  0
   -0.3798    2.5867   -2.5000 C   0  0  0  0  0  0  0  0  0  0  0  0
    1.7868   -0.1874    1.3428 H   0  0  0  0  0  0  0  0  0  0  0  0
    1.6845    1.5816    1.3957 H   0  0  0  0  0  0  0  0  0  0  0  0
    1.0785    0.6737    2.8080 H   0  0  0  0  0  0  0  0  0  0  0  0
   -0.0159    0.1459    0.0507 H   0  0  0  0  0  0  0  0  0  0  0  0
   -2.0893   -0.2816    1.3547 H   0  0  0  0  0  0  0  0  0  0  0  0
   -1.2567    0.1869    2.9091 H   0  0  0  0  0  0  0  0  0  0  0  0
   -1.6521   -2.2972    0.2537 H   0  0  0  0  0  0  0  0  0  0  0  0
   -0.9207   -4.6467    0.4128 H   0  0  0  0  0  0  0  0  0  0  0  0
    0.0993   -6.3428    1.7583 H   0  0  0  0  0  0  0  0  0  0  0  0
    2.0764   -4.5314    4.1181 H   0  0  0  0  0  0  0  0  0  0  0  0
    0.4791   -1.3935    3.7949 H   0  0  0  0  0  0  0  0  0  0  0  0
   -0.9675    2.5018    1.7091 H   0  0  0  0  0  0  0  0  0  0  0  0
   -2.2241    1.2034   -0.7291 H   0  0  0  0  0  0  0  0  0  0  0  0
   -2.8782    1.5662    0.9621 H   0  0  0  0  0  0  0  0  0  0  0  0
   -2.4790    2.8688   -0.1799 H   0  0  0  0  0  0  0  0  0  0  0  0
   -0.5306    3.7952   -0.2643 H   0  0  0  0  0  0  0  0  0  0  0  0
    0.9196    3.1865    0.5168 H   0  0  0  0  0  0  0  0  0  0  0  0
    2.2742    1.3503   -0.8712 H   0  0  0  0  0  0  0  0  0  0  0  0
    2.7796    0.5529   -3.0790 H   0  0  0  0  0  0  0  0  0  0  0  0
    2.1428    0.3084   -5.4076 H   0  0  0  0  0  0  0  0  0  0  0  0
   -1.4943    1.6867   -5.2411 H   0  0  0  0  0  0  0  0  0  0  0  0
   -1.2670    3.1494   -2.3754 H   0  0  0  0  0  0  0  0  0  0  0  0
  1  2  1  0
  2  3  1  0
  3  4  1  0
  4  5  2  0
  5  6  1  0
  6  7  2  0
  7  8  1  0
  7  9  1  0
  9 10  1  0
  9 11  2  0
  2 12  1  0
 12 13  1  0
 12 14  1  0
 14 15  1  0
 15 16  2  0
 16 17  1  0
 17 18  2  0
 18 19  1  0
 18 20  1  0
 20 21  1  0
 20 22  2  0
 11  4  1  0
 22 15  1  0
  1 23  1  0
  1 24  1  0
  1 25  1  0
  2 26  1  6
  3 27  1  0
  3 28  1  0
  5 29  1  0
  6 30  1  0
  8 31  1  0
 10 32  1  0
 11 33  1  0
 12 34  1  1
 13 35  1  0
 13 36  1  0
 13 37  1  0
 14 38  1  0
 14 39  1  0
 16 40  1  0
 17 41  1  0
 19 42  1  0
 21 43  1  0
 22 44  1  0
M  END
$$$$
