
     RDKit          3D

 43 46  0  0  0  0  0  0  0  0999 V2000
    0.0477    0.5229   -0.9526 C   0  0  2  0  0  0  0  0  0  0  0  0
    0.3798    1.9355   -0.8707 C   0  0  0  0  0  0  0  0  0  0  0  0
    0.6598    3.0521   -0.7949 N   0  0  0  0  0  0  0  0  0  0  0  0
   -1.2276    0.1900   -0.3194 C   0  0  0  0  0  0  0  0  0  0  0  0
   -1.5360   -1.0317    0.2460 C   0  0  0  0  0  0  0  0  0  0  0  0
   -2.7781   -1.0628    0.7569 N   0  0  0  0  0  0  0  0  0  0  0  0
   -3.4424   -2.1668    1.4229 C   0  0  0  0  0  0  0  0  0  0  0  0
   -3.3228    0.1332    0.5439 C   0  0  0  0  0  0  0  0  0  0  0  0
   -4.5831    0.6230    0.8738 C   0  0  0  0  0  0  0  0  0  0  0  0
   -5.7709   -0.3619    1.7074 Cl  0  0  0  0  0  0  0  0  0  0  0  0
   -4.9482    1.9143    0.5541 C   0  0  0  0  0  0  0  0  0  0  0  0
   -6.5222    2.5697    0.9504 Cl  0  0  0  0  0  0  0  0  0  0  0  0
   -4.0393    2.7148   -0.1006 C   0  0  0  0  0  0  0  0  0  0  0  0
   -2.7986    2.2004   -0.4138 C   0  0  0  0  0  0  0  0  0  0  0  0
   -2.3843    0.9263   -0.1202 C   0  0  0  0  0  0  0  0  0  0  0  0
   -0.4979   -2.0669    0.2025 C   0  0  0  0  0  0  0  0  0  0  0  0
   -0.6479   -3.2151    0.6776 O   0  0  0  0  0  0  0  0  0  0  0  0
    0.7297   -1.7111   -0.4199 N   0  0  0  0  0  0  0  0  0  0  0  0
    1.1964   -0.3385   -0.4125 C   0  0  0  0  0  0  0  0  0  0  0  0
    2.3035   -0.1653   -1.4218 C   0  0  0  0  0  0  0  0  0  0  0  0
    3.6778   -0.3754   -0.9014 C   0  0  0  0  0  0  0  0  0  0  0  0
    3.8314    0.2803    0.3817 N   0  0  0  0  0  0  0  0  0  0  0  0
    5.2121    0.3128    0.7735 C   0  0  0  0  0  0  0  0  0  0  0  0
    2.9696   -0.4095    1.2960 C   0  0  0  0  0  0  0  0  0  0  0  0
    1.5610    0.0332    0.9839 C   0  0  0  0  0  0  0  0  0  0  0  0
   -0.0204    0.2823   -2.0348 H   0  0  0  0  0  0  0  0  0  0  0  0
   -4.3515   -2.4143    0.8018 H   0  0  0  0  0  0  0  0  0  0  0  0
   -3.7770   -1.7902    2.4185 H   0  0  0  0  0  0  0  0  0  0  0  0
   -2.8411   -3.0726    1.4732 H   0  0  0  0  0  0  0  0  0  0  0  0
   -4.2930    3.7423   -0.3698 H   0  0  0  0  0  0  0  0  0  0  0  0
   -2.1304    2.8544   -0.9189 H   0  0  0  0  0  0  0  0  0  0  0  0
    1.3186   -2.4375   -0.8953 H   0  0  0  0  0  0  0  0  0  0  0  0
    2.2665    0.8423   -1.9092 H   0  0  0  0  0  0  0  0  0  0  0  0
    2.1165   -0.9400   -2.2217 H   0  0  0  0  0  0  0  0  0  0  0  0
    3.9371   -1.4445   -0.7931 H   0  0  0  0  0  0  0  0  0  0  0  0
    4.3919    0.1139   -1.6003 H   0  0  0  0  0  0  0  0  0  0  0  0
    5.6565   -0.6988    0.6617 H   0  0  0  0  0  0  0  0  0  0  0  0
    5.7352    0.9721    0.0387 H   0  0  0  0  0  0  0  0  0  0  0  0
    5.3070    0.7001    1.8057 H   0  0  0  0  0  0  0  0  0  0  0  0
    3.0373   -1.5068    1.0921 H   0  0  0  0  0  0  0  0  0  0  0  0
    3.2348   -0.2436    2.3548 H   0  0  0  0  0  0  0  0  0  0  0  0
    0.9027   -0.5668    1.6766 H   0  0  0  0  0  0  0  0  0  0  0  0
    1.4398    1.1040    1.2190 H   0  0  0  0  0  0  0  0  0  0  0  0
  1  2  1  0
  2  3  3  0
  1  4  1  0
  4  5  2  0
  5  6  1  0
  6  7  1  0
  6  8  1  0
  8  9  2  0
  9 10  1  0
  9 11  1  0
 11 12  1  0
 11 13  2  0
 13 14  1  0
 14 15  2  0
  5 16  1  0
 16 17  2  0
 16 18  1  0
 18 19  1  0
 19 20  1  0
 20 21  1  0
 21 22  1  0
 22 23  1  0
 22 24  1  0
 24 25  1  0
 19  1  1  0
 25 19  1  0
 15  4  1  0
 15  8  1  0
  1 26  1  6
  7 27  1  0
  7 28  1  0
  7 29  1  0
 13 30  1  0
 14 31  1  0
 18 32  1  0
 20 33  1  0
 20 34  1  0
 21 35  1  0
 21 36  1  0
 23 37  1  0
 23 38  1  0
 23 39  1  0
 24 40  1  0
 24 41  1  0
 25 42  1  0
 25 43  1  0
M  END
$$$$
