
     RDKit          3D

 43 47  0  0  0  0  0  0  0  0999 V2000
   -1.2237    2.0445   -4.7013 N   0  0  0  0  0  0  0  0  0  0  0  0
   -1.9816    1.4159   -3.8725 C   0  0  0  0  0  0  0  0  0  0  0  0
   -2.8216    0.7482   -2.9826 C   0  0  0  0  0  0  0  0  0  0  0  0
   -4.1085    0.4108   -3.0213 C   0  0  0  0  0  0  0  0  0  0  0  0
   -4.4120   -0.2842   -1.8934 N   0  0  0  0  0  0  0  0  0  0  0  0
   -3.2580   -0.3834   -1.1058 C   0  0  0  0  0  0  0  0  0  0  0  0
   -3.0406   -0.9723    0.0951 C   0  0  0  0  0  0  0  0  0  0  0  0
   -1.7769   -0.9186    0.6389 C   0  0  0  0  0  0  0  0  0  0  0  0
   -0.7966   -0.2648   -0.0535 C   0  0  0  0  0  0  0  0  0  0  0  0
    0.5320   -0.0762    0.4923 C   0  0  0  0  0  0  0  0  0  0  0  0
    1.5841   -0.9407    0.6044 C   0  0  0  0  0  0  0  0  0  0  0  0
    1.6345   -2.3559    0.2759 C   0  0  0  0  0  0  0  0  0  0  0  0
    2.4089   -3.1971    1.1130 C   0  0  0  0  0  0  0  0  0  0  0  0
    2.4650   -4.5438    0.8843 C   0  0  0  0  0  0  0  0  0  0  0  0
    1.7693   -5.1218   -0.1671 C   0  0  0  0  0  0  0  0  0  0  0  0
    1.8383   -6.4839   -0.3687 F   0  0  0  0  0  0  0  0  0  0  0  0
    1.0206   -4.3273   -0.9824 C   0  0  0  0  0  0  0  0  0  0  0  0
    0.1324   -5.0486   -2.3079 Cl  0  0  0  0  0  0  0  0  0  0  0  0
    0.9506   -2.9362   -0.7627 C   0  0  0  0  0  0  0  0  0  0  0  0
    2.6156   -0.2341    1.1836 N   0  0  0  0  0  0  0  0  0  0  0  0
    2.2422    1.0161    1.4322 C   0  0  0  0  0  0  0  0  0  0  0  0
    0.9788    1.1100    1.0151 N   0  0  0  0  0  0  0  0  0  0  0  0
    0.1985    2.3063    1.1447 C   0  0  0  0  0  0  0  0  0  0  0  0
    0.6235    3.4092    0.1963 C   0  0  0  0  0  0  0  0  0  0  0  0
    1.3359    4.4024    1.0514 C   0  0  0  0  0  0  0  0  0  0  0  0
    1.5337    3.8110    2.2901 O   0  0  0  0  0  0  0  0  0  0  0  0
    0.4217    2.9827    2.4921 C   0  0  0  0  0  0  0  0  0  0  0  0
   -1.0985    0.2884   -1.2354 N   0  0  0  0  0  0  0  0  0  0  0  0
   -2.3278    0.2502   -1.7981 N   0  0  0  0  0  0  0  0  0  0  0  0
   -4.7981    0.6396   -3.8309 H   0  0  0  0  0  0  0  0  0  0  0  0
   -3.8094   -1.4797    0.6497 H   0  0  0  0  0  0  0  0  0  0  0  0
   -1.5172   -1.4111    1.6015 H   0  0  0  0  0  0  0  0  0  0  0  0
    2.9779   -2.7971    1.9365 H   0  0  0  0  0  0  0  0  0  0  0  0
    3.0591   -5.1937    1.5100 H   0  0  0  0  0  0  0  0  0  0  0  0
    0.3280   -2.3619   -1.4373 H   0  0  0  0  0  0  0  0  0  0  0  0
    2.8762    1.7656    1.8911 H   0  0  0  0  0  0  0  0  0  0  0  0
   -0.8493    2.0598    0.9733 H   0  0  0  0  0  0  0  0  0  0  0  0
   -0.2105    3.8359   -0.3826 H   0  0  0  0  0  0  0  0  0  0  0  0
    1.3957    2.9317   -0.5022 H   0  0  0  0  0  0  0  0  0  0  0  0
    0.6858    5.3085    1.2841 H   0  0  0  0  0  0  0  0  0  0  0  0
    2.3019    4.7662    0.6709 H   0  0  0  0  0  0  0  0  0  0  0  0
   -0.4339    3.6286    2.7406 H   0  0  0  0  0  0  0  0  0  0  0  0
    0.5537    2.2005    3.2389 H   0  0  0  0  0  0  0  0  0  0  0  0
  1  2  3  0
  2  3  1  0
  3  4  2  0
  4  5  1  0
  5  6  2  0
  6  7  1  0
  7  8  2  0
  8  9  1  0
  9 10  1  0
 10 11  2  0
 11 12  1  0
 12 13  2  0
 13 14  1  0
 14 15  2  0
 15 16  1  0
 15 17  1  0
 17 18  1  0
 17 19  2  0
 11 20  1  0
 20 21  2  0
 21 22  1  0
 22 23  1  0
 23 24  1  0
 24 25  1  0
 25 26  1  0
 26 27  1  0
  9 28  2  0
 28 29  1  0
 29  3  1  0
 29  6  1  0
 22 10  1  0
 27 23  1  0
 19 12  1  0
  4 30  1  0
  7 31  1  0
  8 32  1  0
 13 33  1  0
 14 34  1  0
 19 35  1  0
 21 36  1  0
 23 37  1  0
 24 38  1  0
 24 39  1  0
 25 40  1  0
 25 41  1  0
 27 42  1  0
 27 43  1  0
M  END
$$$$
