
     RDKit          3D

 49 52  0  0  0  0  0  0  0  0999 V2000
    1.9705    0.7717    0.4647 C   0  0  2  0  0  0  0  0  0  0  0  0
    2.9517    1.6591   -0.2039 C   0  0  0  0  0  0  0  0  0  0  0  0
    4.2910    1.0910    0.2564 C   0  0  0  0  0  0  0  0  0  0  0  0
    3.9738   -0.2717    0.8093 C   0  0  0  0  0  0  0  0  0  0  0  0
    4.7369   -0.8828    1.5268 O   0  0  0  0  0  0  0  0  0  0  0  0
    2.6365   -0.5757    0.2757 C   0  0  2  0  0  0  0  0  0  0  0  0
    2.7720   -0.9439   -1.1795 C   0  0  0  0  0  0  0  0  0  0  0  0
    1.8442   -1.5493    1.0646 C   0  0  0  0  0  0  0  0  0  0  0  0
    0.4827   -1.6597    0.4102 C   0  0  0  0  0  0  0  0  0  0  0  0
   -0.2304   -0.3374    0.4332 C   0  0  1  0  0  0  0  0  0  0  0  0
    0.5789    0.8177   -0.0868 C   0  0  1  0  0  0  0  0  0  0  0  0
   -0.0666    2.0655    0.5009 C   0  0  0  0  0  0  0  0  0  0  0  0
   -1.5138    1.8221    0.8275 C   0  0  0  0  0  0  0  0  0  0  0  0
   -2.1618    0.9409   -0.2494 C   0  0  2  0  0  0  0  0  0  0  0  0
   -3.6256    1.0232   -0.0719 C   0  0  0  0  0  0  0  0  0  0  0  0
   -4.3766   -0.2174   -0.3461 C   0  0  0  0  0  0  0  0  0  0  0  0
   -5.5090   -0.2040   -0.8003 O   0  0  0  0  0  0  0  0  0  0  0  0
   -3.8075   -1.5432   -0.0894 C   0  0  0  0  0  0  0  0  0  0  0  0
   -2.3969   -1.4706    0.4695 C   0  0  0  0  0  0  0  0  0  0  0  0
   -1.5609   -0.4374   -0.2382 C   0  0  2  0  0  0  0  0  0  0  0  0
   -1.4628   -0.8846   -1.6859 C   0  0  0  0  0  0  0  0  0  0  0  0
    1.9491    0.9920    1.5395 H   0  0  0  0  0  0  0  0  0  0  0  0
    2.8684    2.7396    0.0603 H   0  0  0  0  0  0  0  0  0  0  0  0
    2.8402    1.6030   -1.3151 H   0  0  0  0  0  0  0  0  0  0  0  0
    4.7463    1.7591    1.0023 H   0  0  0  0  0  0  0  0  0  0  0  0
    4.9716    0.8871   -0.6016 H   0  0  0  0  0  0  0  0  0  0  0  0
    3.1237   -1.9881   -1.2283 H   0  0  0  0  0  0  0  0  0  0  0  0
    1.8289   -0.8370   -1.7584 H   0  0  0  0  0  0  0  0  0  0  0  0
    3.6057   -0.3141   -1.5976 H   0  0  0  0  0  0  0  0  0  0  0  0
    1.7239   -1.1295    2.0860 H   0  0  0  0  0  0  0  0  0  0  0  0
    2.2936   -2.5653    1.1122 H   0  0  0  0  0  0  0  0  0  0  0  0
   -0.0874   -2.3476    1.0716 H   0  0  0  0  0  0  0  0  0  0  0  0
    0.6575   -2.0524   -0.5993 H   0  0  0  0  0  0  0  0  0  0  0  0
   -0.4340   -0.1285    1.5072 H   0  0  0  0  0  0  0  0  0  0  0  0
    0.5224    0.8438   -1.1785 H   0  0  0  0  0  0  0  0  0  0  0  0
    0.0866    2.9628   -0.1524 H   0  0  0  0  0  0  0  0  0  0  0  0
    0.4182    2.3322    1.4824 H   0  0  0  0  0  0  0  0  0  0  0  0
   -2.0276    2.8157    0.7699 H   0  0  0  0  0  0  0  0  0  0  0  0
   -1.7032    1.4538    1.8405 H   0  0  0  0  0  0  0  0  0  0  0  0
   -1.8852    1.4503   -1.2091 H   0  0  0  0  0  0  0  0  0  0  0  0
   -3.8887    1.3787    0.9662 H   0  0  0  0  0  0  0  0  0  0  0  0
   -4.0579    1.8187   -0.7315 H   0  0  0  0  0  0  0  0  0  0  0  0
   -3.8269   -2.1835   -1.0055 H   0  0  0  0  0  0  0  0  0  0  0  0
   -4.4026   -2.0575    0.7187 H   0  0  0  0  0  0  0  0  0  0  0  0
   -1.9363   -2.4587    0.2168 H   0  0  0  0  0  0  0  0  0  0  0  0
   -2.4064   -1.2555    1.5564 H   0  0  0  0  0  0  0  0  0  0  0  0
   -2.5144   -1.0084   -2.0425 H   0  0  0  0  0  0  0  0  0  0  0  0
   -0.9684   -1.8512   -1.8148 H   0  0  0  0  0  0  0  0  0  0  0  0
   -1.0233   -0.0731   -2.3032 H   0  0  0  0  0  0  0  0  0  0  0  0
  1  2  1  0
  2  3  1  0
  3  4  1  0
  4  5  2  0
  4  6  1  0
  6  7  1  6
  6  8  1  0
  8  9  1  0
  9 10  1  0
 10 11  1  0
 11 12  1  0
 12 13  1  0
 13 14  1  0
 14 15  1  0
 15 16  1  0
 16 17  2  0
 16 18  1  0
 18 19  1  0
 19 20  1  0
 20 21  1  6
  6  1  1  0
 20 10  1  0
 11  1  1  0
 20 14  1  0
  1 22  1  1
  2 23  1  0
  2 24  1  0
  3 25  1  0
  3 26  1  0
  7 27  1  0
  7 28  1  0
  7 29  1  0
  8 30  1  0
  8 31  1  0
  9 32  1  0
  9 33  1  0
 10 34  1  1
 11 35  1  6
 12 36  1  0
 12 37  1  0
 13 38  1  0
 13 39  1  0
 14 40  1  6
 15 41  1  0
 15 42  1  0
 18 43  1  0
 18 44  1  0
 19 45  1  0
 19 46  1  0
 21 47  1  0
 21 48  1  0
 21 49  1  0
M  END
$$$$
