
     RDKit          3D

 30 32  0  0  0  0  0  0  0  0999 V2000
   -0.9171    3.4785   -0.2756 N   0  0  0  0  0  0  0  0  0  0  0  0
   -1.4608    2.1750   -0.1226 C   0  0  0  0  0  0  0  0  0  0  0  0
   -2.6196    1.8750    0.4591 N   0  0  0  0  0  0  0  0  0  0  0  0
   -2.8009    0.5431    0.4176 C   0  0  0  0  0  0  0  0  0  0  0  0
   -3.8168   -0.2544    0.8716 C   0  0  0  0  0  0  0  0  0  0  0  0
   -3.7145   -1.6053    0.6771 C   0  0  0  0  0  0  0  0  0  0  0  0
   -2.6210   -2.1548    0.0421 C   0  0  0  0  0  0  0  0  0  0  0  0
   -1.6034   -1.3291   -0.4098 C   0  0  0  0  0  0  0  0  0  0  0  0
   -1.6685    0.0366   -0.2333 C   0  0  0  0  0  0  0  0  0  0  0  0
   -0.8588    1.0525   -0.5565 N   0  0  0  0  0  0  0  0  0  0  0  0
    0.6576    0.9788   -1.3608 S   0  0  0  0  0  6  0  0  0  0  0  0
    1.2087    2.3833   -1.5778 O   0  0  0  0  0  0  0  0  0  0  0  0
    0.4951    0.4150   -2.7682 O   0  0  0  0  0  0  0  0  0  0  0  0
    1.8562    0.0625   -0.4762 C   0  0  0  0  0  0  0  0  0  0  0  0
    2.6151    0.6844    0.5108 C   0  0  0  0  0  0  0  0  0  0  0  0
    3.5754    0.0019    1.2277 C   0  0  0  0  0  0  0  0  0  0  0  0
    3.8299   -1.3345    0.9991 C   0  0  0  0  0  0  0  0  0  0  0  0
    5.0585   -2.1969    1.9203 Cl  0  0  0  0  0  0  0  0  0  0  0  0
    3.0855   -1.9624    0.0242 C   0  0  0  0  0  0  0  0  0  0  0  0
    2.1213   -1.2723   -0.6939 C   0  0  0  0  0  0  0  0  0  0  0  0
   -0.8654    4.1328    0.5599 H   0  0  0  0  0  0  0  0  0  0  0  0
   -0.5523    3.8635   -1.1632 H   0  0  0  0  0  0  0  0  0  0  0  0
   -4.6732    0.1962    1.3709 H   0  0  0  0  0  0  0  0  0  0  0  0
   -4.4960   -2.2579    1.0222 H   0  0  0  0  0  0  0  0  0  0  0  0
   -2.5028   -3.2176   -0.1309 H   0  0  0  0  0  0  0  0  0  0  0  0
   -0.7379   -1.7322   -0.9108 H   0  0  0  0  0  0  0  0  0  0  0  0
    2.4034    1.7355    0.6790 H   0  0  0  0  0  0  0  0  0  0  0  0
    4.1429    0.5087    1.9809 H   0  0  0  0  0  0  0  0  0  0  0  0
    3.2862   -3.0141   -0.1552 H   0  0  0  0  0  0  0  0  0  0  0  0
    1.5734   -1.7920   -1.4391 H   0  0  0  0  0  0  0  0  0  0  0  0
  1  2  1  0
  2  3  2  0
  3  4  1  0
  4  5  2  0
  5  6  1  0
  6  7  2  0
  7  8  1  0
  8  9  2  0
  9 10  1  0
 10 11  1  0
 11 12  2  0
 11 13  2  0
 11 14  1  0
 14 15  2  0
 15 16  1  0
 16 17  2  0
 17 18  1  0
 17 19  1  0
 19 20  2  0
 10  2  1  0
 20 14  1  0
  9  4  1  0
  1 21  1  0
  1 22  1  0
  5 23  1  0
  6 24  1  0
  7 25  1  0
  8 26  1  0
 15 27  1  0
 16 28  1  0
 19 29  1  0
 20 30  1  0
M  END
$$$$
