
     RDKit          3D

 50 54  0  0  0  0  0  0  0  0999 V2000
   -1.1969   -2.8538    0.6362 C   0  0  0  0  0  0  0  0  0  0  0  0
   -0.9756   -1.4618    1.1943 C   0  0  1  0  0  0  0  0  0  0  0  0
   -1.5540   -0.5000    0.3827 O   0  0  0  0  0  0  0  0  0  0  0  0
   -0.9563    0.5452   -0.2793 C   0  0  0  0  0  0  0  0  0  0  0  0
    0.3858    0.8387   -0.2533 C   0  0  0  0  0  0  0  0  0  0  0  0
    0.9340    1.9164   -0.9488 C   0  0  0  0  0  0  0  0  0  0  0  0
    2.3564    2.2178   -0.9241 C   0  0  0  0  0  0  0  0  0  0  0  0
    2.9738    3.4056   -0.7362 N   0  0  0  0  0  0  0  0  0  0  0  0
    4.2870    3.2376   -0.7950 N   0  0  0  0  0  0  0  0  0  0  0  0
    4.5878    1.9404   -1.0224 C   0  0  0  0  0  0  0  0  0  0  0  0
    5.7705    1.2480   -1.1668 C   0  0  0  0  0  0  0  0  0  0  0  0
    5.7278   -0.1074   -1.3963 C   0  0  0  0  0  0  0  0  0  0  0  0
    4.5385   -0.8103   -1.4893 C   0  0  0  0  0  0  0  0  0  0  0  0
    4.4969   -2.2244   -1.7282 C   0  0  0  0  0  0  0  0  0  0  0  0
    4.4808   -3.3712   -1.9128 N   0  0  0  0  0  0  0  0  0  0  0  0
    3.3620   -0.0687   -1.3367 C   0  0  0  0  0  0  0  0  0  0  0  0
    3.3520    1.2879   -1.1053 C   0  0  0  0  0  0  0  0  0  0  0  0
    0.0383    2.6866   -1.6780 C   0  0  0  0  0  0  0  0  0  0  0  0
   -1.3107    2.4244   -1.7282 C   0  0  0  0  0  0  0  0  0  0  0  0
   -2.3659    3.0109   -2.3511 N   0  0  0  0  0  0  0  0  0  0  0  0
   -3.4859    2.3682   -2.0794 N   0  0  0  0  0  0  0  0  0  0  0  0
   -4.8344    2.6861   -2.5574 C   0  0  0  0  0  0  0  0  0  0  0  0
   -3.1579    1.3441   -1.2655 C   0  0  0  0  0  0  0  0  0  0  0  0
   -1.8089    1.3530   -1.0288 C   0  0  0  0  0  0  0  0  0  0  0  0
   -1.5104   -1.3470    2.6081 C   0  0  1  0  0  0  0  0  0  0  0  0
   -2.9769   -1.6183    2.7022 C   0  0  0  0  0  0  0  0  0  0  0  0
   -3.1206   -2.9785    3.1641 N   0  0  0  0  0  0  0  0  0  0  0  0
   -1.8396   -3.5462    3.4008 C   0  0  0  0  0  0  0  0  0  0  0  0
   -1.5369   -4.7661    3.5037 O   0  0  0  0  0  0  0  0  0  0  0  0
   -0.8974   -2.4032    3.5073 C   0  0  0  0  0  0  0  0  0  0  0  0
   -2.1699   -3.2231    0.9827 H   0  0  0  0  0  0  0  0  0  0  0  0
   -1.1285   -2.8462   -0.4710 H   0  0  0  0  0  0  0  0  0  0  0  0
   -0.4192   -3.5070    1.0881 H   0  0  0  0  0  0  0  0  0  0  0  0
    0.1123   -1.2927    1.2565 H   0  0  0  0  0  0  0  0  0  0  0  0
    1.0419    0.2244    0.3249 H   0  0  0  0  0  0  0  0  0  0  0  0
    5.0355    3.9720   -0.6878 H   0  0  0  0  0  0  0  0  0  0  0  0
    6.6983    1.8039   -1.0929 H   0  0  0  0  0  0  0  0  0  0  0  0
    6.6685   -0.6276   -1.5061 H   0  0  0  0  0  0  0  0  0  0  0  0
    2.4232   -0.6003   -1.4115 H   0  0  0  0  0  0  0  0  0  0  0  0
    0.4340    3.5273   -2.2256 H   0  0  0  0  0  0  0  0  0  0  0  0
   -4.9709    3.7883   -2.6648 H   0  0  0  0  0  0  0  0  0  0  0  0
   -5.0538    2.2031   -3.5193 H   0  0  0  0  0  0  0  0  0  0  0  0
   -5.5501    2.3128   -1.7901 H   0  0  0  0  0  0  0  0  0  0  0  0
   -3.8444    0.6046   -0.8435 H   0  0  0  0  0  0  0  0  0  0  0  0
   -1.3089   -0.3225    2.9755 H   0  0  0  0  0  0  0  0  0  0  0  0
   -3.5223   -1.3993    1.7733 H   0  0  0  0  0  0  0  0  0  0  0  0
   -3.4428   -0.9657    3.4918 H   0  0  0  0  0  0  0  0  0  0  0  0
   -4.0370   -3.4410    3.2935 H   0  0  0  0  0  0  0  0  0  0  0  0
   -0.8551   -1.9787    4.5317 H   0  0  0  0  0  0  0  0  0  0  0  0
    0.1260   -2.6863    3.1779 H   0  0  0  0  0  0  0  0  0  0  0  0
  1  2  1  0
  2  3  1  0
  3  4  1  0
  4  5  2  0
  5  6  1  0
  6  7  1  0
  7  8  2  0
  8  9  1  0
  9 10  1  0
 10 11  2  0
 11 12  1  0
 12 13  2  0
 13 14  1  0
 14 15  3  0
 13 16  1  0
 16 17  2  0
  6 18  2  0
 18 19  1  0
 19 20  2  0
 20 21  1  0
 21 22  1  0
 21 23  1  0
 23 24  2  0
  2 25  1  0
 25 26  1  0
 26 27  1  0
 27 28  1  0
 28 29  2  0
 28 30  1  0
 24  4  1  0
 30 25  1  0
 17  7  1  0
 24 19  1  0
 17 10  1  0
  1 31  1  0
  1 32  1  0
  1 33  1  0
  2 34  1  1
  5 35  1  0
  9 36  1  0
 11 37  1  0
 12 38  1  0
 16 39  1  0
 18 40  1  0
 22 41  1  0
 22 42  1  0
 22 43  1  0
 23 44  1  0
 25 45  1  1
 26 46  1  0
 26 47  1  0
 27 48  1  0
 30 49  1  0
 30 50  1  0
M  END
$$$$
