
     RDKit          3D

 49 50  0  0  0  0  0  0  0  0999 V2000
   -3.7208   -0.9847   -3.0466 C   0  0  0  0  0  0  0  0  0  0  0  0
   -3.1637   -1.0632   -1.7763 O   0  0  0  0  0  0  0  0  0  0  0  0
   -1.9064   -0.7191   -1.3785 C   0  0  0  0  0  0  0  0  0  0  0  0
   -1.0229   -0.1999   -2.3379 C   0  0  0  0  0  0  0  0  0  0  0  0
    0.2617    0.1688   -1.9936 C   0  0  0  0  0  0  0  0  0  0  0  0
    0.7120    0.0354   -0.6901 C   0  0  0  0  0  0  0  0  0  0  0  0
    2.1051    0.3990   -0.3016 C   0  0  0  0  0  0  0  0  0  0  0  0
    3.0277   -0.7941   -0.4675 C   0  0  0  0  0  0  0  0  0  0  0  0
    4.4427   -0.4857   -0.0856 C   0  0  0  0  0  0  0  0  0  0  0  0
    5.0885    0.6025   -0.8671 C   0  0  0  0  0  0  0  0  0  0  0  0
    6.5156    0.8588   -0.4680 C   0  0  0  0  0  0  0  0  0  0  0  0
    6.6346    1.2439    0.9532 C   0  0  0  0  0  0  0  0  0  0  0  0
    6.5770    0.3777    1.8780 O   0  0  0  0  0  0  0  0  0  0  0  0
    6.8109    2.5780    1.2936 O   0  0  0  0  0  0  0  0  0  0  0  0
   -0.1417   -0.4671    0.2434 C   0  0  0  0  0  0  0  0  0  0  0  0
   -1.4725   -0.8535   -0.0948 C   0  0  0  0  0  0  0  0  0  0  0  0
   -2.2769   -1.4300    0.9808 C   0  0  0  0  0  0  0  0  0  0  0  0
   -3.3615   -0.5769    1.4802 C   0  0  0  0  0  0  0  0  0  0  0  0
   -3.0126    0.4377    2.3800 C   0  0  0  0  0  0  0  0  0  0  0  0
   -3.9491    1.3011    2.8172 N   0  0  0  0  0  0  0  0  0  0  0  0
   -5.2452    1.2314    2.4154 C   0  0  0  0  0  0  0  0  0  0  0  0
   -6.2404    2.1381    2.8801 N   0  0  0  0  0  0  0  0  0  0  0  0
   -5.5577    0.2651    1.5645 N   0  0  0  0  0  0  0  0  0  0  0  0
   -4.6745   -0.6271    1.0924 C   0  0  0  0  0  0  0  0  0  0  0  0
   -5.1341   -1.6660    0.2531 N   0  0  0  0  0  0  0  0  0  0  0  0
   -2.9662   -1.2571   -3.8096 H   0  0  0  0  0  0  0  0  0  0  0  0
   -4.5429   -1.7473   -3.1800 H   0  0  0  0  0  0  0  0  0  0  0  0
   -4.0716    0.0481   -3.2965 H   0  0  0  0  0  0  0  0  0  0  0  0
   -1.3932   -0.0989   -3.3550 H   0  0  0  0  0  0  0  0  0  0  0  0
    0.9460    0.5700   -2.7328 H   0  0  0  0  0  0  0  0  0  0  0  0
    2.4658    1.2859   -0.8539 H   0  0  0  0  0  0  0  0  0  0  0  0
    2.1026    0.6434    0.7860 H   0  0  0  0  0  0  0  0  0  0  0  0
    2.6831   -1.6081    0.2106 H   0  0  0  0  0  0  0  0  0  0  0  0
    3.0287   -1.1420   -1.5209 H   0  0  0  0  0  0  0  0  0  0  0  0
    4.4846   -0.2529    1.0192 H   0  0  0  0  0  0  0  0  0  0  0  0
    5.0571   -1.4160   -0.2655 H   0  0  0  0  0  0  0  0  0  0  0  0
    5.0221    0.4091   -1.9428 H   0  0  0  0  0  0  0  0  0  0  0  0
    4.5415    1.5705   -0.6582 H   0  0  0  0  0  0  0  0  0  0  0  0
    6.8759    1.7170   -1.1070 H   0  0  0  0  0  0  0  0  0  0  0  0
    7.1703   -0.0138   -0.6714 H   0  0  0  0  0  0  0  0  0  0  0  0
    7.3065    2.8435    2.1666 H   0  0  0  0  0  0  0  0  0  0  0  0
    0.1845   -0.5851    1.2880 H   0  0  0  0  0  0  0  0  0  0  0  0
   -1.6285   -1.6491    1.8767 H   0  0  0  0  0  0  0  0  0  0  0  0
   -2.6616   -2.4557    0.7054 H   0  0  0  0  0  0  0  0  0  0  0  0
   -2.0124    0.5744    2.7524 H   0  0  0  0  0  0  0  0  0  0  0  0
   -6.0276    3.0803    3.2322 H   0  0  0  0  0  0  0  0  0  0  0  0
   -7.2452    1.8343    2.8668 H   0  0  0  0  0  0  0  0  0  0  0  0
   -4.8618   -2.6704    0.4315 H   0  0  0  0  0  0  0  0  0  0  0  0
   -5.7535   -1.4503   -0.5604 H   0  0  0  0  0  0  0  0  0  0  0  0
  1  2  1  0
  2  3  1  0
  3  4  2  0
  4  5  1  0
  5  6  2  0
  6  7  1  0
  7  8  1  0
  8  9  1  0
  9 10  1  0
 10 11  1  0
 11 12  1  0
 12 13  2  0
 12 14  1  0
  6 15  1  0
 15 16  2  0
 16 17  1  0
 17 18  1  0
 18 19  2  0
 19 20  1  0
 20 21  2  0
 21 22  1  0
 21 23  1  0
 23 24  2  0
 24 25  1  0
 16  3  1  0
 24 18  1  0
  1 26  1  0
  1 27  1  0
  1 28  1  0
  4 29  1  0
  5 30  1  0
  7 31  1  0
  7 32  1  0
  8 33  1  0
  8 34  1  0
  9 35  1  0
  9 36  1  0
 10 37  1  0
 10 38  1  0
 11 39  1  0
 11 40  1  0
 14 41  1  0
 15 42  1  0
 17 43  1  0
 17 44  1  0
 19 45  1  0
 22 46  1  0
 22 47  1  0
 25 48  1  0
 25 49  1  0
M  END
$$$$
