
     RDKit          3D

 60 64  0  0  0  0  0  0  0  0999 V2000
    8.4884    0.2401    0.2698 C   0  0  0  0  0  0  0  0  0  0  0  0
    7.9461    1.5969    0.1598 N   0  0  0  0  0  0  0  0  0  0  0  0
    8.5836    2.4551   -0.8288 C   0  0  0  0  0  0  0  0  0  0  0  0
    6.8748    2.0373    0.9635 C   0  0  0  0  0  0  0  0  0  0  0  0
    6.4682    3.2234    0.8000 O   0  0  0  0  0  0  0  0  0  0  0  0
    6.2170    1.2013    1.9656 C   0  0  0  0  0  0  0  0  0  0  0  0
    5.1083    0.4441    1.3997 N   0  0  0  0  0  0  0  0  0  0  0  0
    3.8050    0.8277    1.3045 C   0  0  0  0  0  0  0  0  0  0  0  0
    3.1151   -0.2053    0.7086 C   0  0  0  0  0  0  0  0  0  0  0  0
    1.6891   -0.2361    0.3982 C   0  0  0  0  0  0  0  0  0  0  0  0
    0.9804   -1.2458   -0.1630 N   0  0  0  0  0  0  0  0  0  0  0  0
   -0.3120   -0.8907   -0.2868 C   0  0  0  0  0  0  0  0  0  0  0  0
   -1.4429   -1.7124   -0.8500 C   0  0  1  0  0  0  0  0  0  0  0  0
   -1.3524   -3.0683   -0.1831 C   0  0  0  0  0  0  0  0  0  0  0  0
   -2.7269   -1.0631   -0.4971 C   0  0  0  0  0  0  0  0  0  0  0  0
   -3.6652   -0.7115   -1.4392 C   0  0  0  0  0  0  0  0  0  0  0  0
   -4.8626   -0.0934   -1.0869 C   0  0  0  0  0  0  0  0  0  0  0  0
   -5.1283    0.1795    0.2384 C   0  0  0  0  0  0  0  0  0  0  0  0
   -6.3889    0.8296    0.5707 C   0  0  0  0  0  0  0  0  0  0  0  0
   -7.5556    0.6411   -0.1421 C   0  0  0  0  0  0  0  0  0  0  0  0
   -8.6803    1.2802    0.2259 N   0  0  0  0  0  0  0  0  0  0  0  0
   -8.7375    2.1208    1.2835 C   0  0  0  0  0  0  0  0  0  0  0  0
   -9.9271    2.7854    1.6564 N   0  0  0  0  0  0  0  0  0  0  0  0
   -7.5901    2.2981    1.9747 N   0  0  0  0  0  0  0  0  0  0  0  0
   -6.4372    1.6852    1.6519 C   0  0  0  0  0  0  0  0  0  0  0  0
   -4.1988   -0.1667    1.1958 C   0  0  0  0  0  0  0  0  0  0  0  0
   -3.0269   -0.7752    0.8193 C   0  0  0  0  0  0  0  0  0  0  0  0
   -1.2238   -1.7896   -2.3266 C   0  0  0  0  0  0  0  0  0  0  0  0
    0.0800   -2.4320   -2.7378 C   0  0  0  0  0  0  0  0  0  0  0  0
   -1.2561   -3.0363   -3.0911 C   0  0  0  0  0  0  0  0  0  0  0  0
   -0.3751    0.3609    0.2123 N   0  0  0  0  0  0  0  0  0  0  0  0
    0.8200    0.7214    0.6091 O   0  0  0  0  0  0  0  0  0  0  0  0
    4.0511   -1.1863    0.4657 C   0  0  0  0  0  0  0  0  0  0  0  0
    5.2645   -0.7721    0.8945 N   0  0  0  0  0  0  0  0  0  0  0  0
    9.5072    0.1742   -0.1629 H   0  0  0  0  0  0  0  0  0  0  0  0
    7.8397   -0.4087   -0.3793 H   0  0  0  0  0  0  0  0  0  0  0  0
    8.5535   -0.1016    1.3038 H   0  0  0  0  0  0  0  0  0  0  0  0
    8.0906    2.2787   -1.8056 H   0  0  0  0  0  0  0  0  0  0  0  0
    9.6467    2.2131   -0.8460 H   0  0  0  0  0  0  0  0  0  0  0  0
    8.4130    3.5091   -0.4673 H   0  0  0  0  0  0  0  0  0  0  0  0
    6.9622    0.4986    2.4404 H   0  0  0  0  0  0  0  0  0  0  0  0
    5.7953    1.7919    2.7971 H   0  0  0  0  0  0  0  0  0  0  0  0
    3.4054    1.7924    1.6493 H   0  0  0  0  0  0  0  0  0  0  0  0
   -0.3179   -3.4569   -0.1512 H   0  0  0  0  0  0  0  0  0  0  0  0
   -1.6505   -2.9117    0.8855 H   0  0  0  0  0  0  0  0  0  0  0  0
   -2.0732   -3.7986   -0.5917 H   0  0  0  0  0  0  0  0  0  0  0  0
   -3.4349   -0.9376   -2.4756 H   0  0  0  0  0  0  0  0  0  0  0  0
   -5.5680    0.1618   -1.8769 H   0  0  0  0  0  0  0  0  0  0  0  0
   -7.5318   -0.0256   -0.9894 H   0  0  0  0  0  0  0  0  0  0  0  0
  -10.0551    3.1005    2.6308 H   0  0  0  0  0  0  0  0  0  0  0  0
  -10.6733    2.9605    0.9626 H   0  0  0  0  0  0  0  0  0  0  0  0
   -5.5263    1.8516    2.2332 H   0  0  0  0  0  0  0  0  0  0  0  0
   -4.4276    0.0558    2.2264 H   0  0  0  0  0  0  0  0  0  0  0  0
   -2.3169   -1.0355    1.5922 H   0  0  0  0  0  0  0  0  0  0  0  0
   -1.4449   -0.8293   -2.8558 H   0  0  0  0  0  0  0  0  0  0  0  0
    0.6878   -1.9171   -3.4804 H   0  0  0  0  0  0  0  0  0  0  0  0
    0.6541   -3.0054   -1.9586 H   0  0  0  0  0  0  0  0  0  0  0  0
   -1.5367   -4.0062   -2.6404 H   0  0  0  0  0  0  0  0  0  0  0  0
   -1.4814   -2.9800   -4.1768 H   0  0  0  0  0  0  0  0  0  0  0  0
    3.8792   -2.1599    0.0016 H   0  0  0  0  0  0  0  0  0  0  0  0
  1  2  1  0
  2  3  1  0
  2  4  1  0
  4  5  2  0
  4  6  1  0
  6  7  1  0
  7  8  1  0
  8  9  2  0
  9 10  1  0
 10 11  2  0
 11 12  1  0
 12 13  1  0
 13 14  1  1
 13 15  1  0
 15 16  2  0
 16 17  1  0
 17 18  2  0
 18 19  1  0
 19 20  2  0
 20 21  1  0
 21 22  2  0
 22 23  1  0
 22 24  1  0
 24 25  2  0
 18 26  1  0
 26 27  2  0
 13 28  1  0
 28 29  1  0
 29 30  1  0
 12 31  2  0
 31 32  1  0
  9 33  1  0
 33 34  2  0
 34  7  1  0
 32 10  1  0
 27 15  1  0
 30 28  1  0
 25 19  1  0
  1 35  1  0
  1 36  1  0
  1 37  1  0
  3 38  1  0
  3 39  1  0
  3 40  1  0
  6 41  1  0
  6 42  1  0
  8 43  1  0
 14 44  1  0
 14 45  1  0
 14 46  1  0
 16 47  1  0
 17 48  1  0
 20 49  1  0
 23 50  1  0
 23 51  1  0
 25 52  1  0
 26 53  1  0
 27 54  1  0
 28 55  1  0
 29 56  1  0
 29 57  1  0
 30 58  1  0
 30 59  1  0
 33 60  1  0
M  END
$$$$
