
     RDKit          3D

 32 35  0  0  0  0  0  0  0  0999 V2000
    3.9108   -3.4016   -0.8653 F   0  0  0  0  0  0  0  0  0  0  0  0
    3.3269   -2.1979   -0.6491 C   0  0  0  0  0  0  0  0  0  0  0  0
    3.6997   -1.4264    0.4284 C   0  0  0  0  0  0  0  0  0  0  0  0
    3.1092   -0.1897    0.6630 C   0  0  0  0  0  0  0  0  0  0  0  0
    2.1332    0.3158   -0.1639 C   0  0  0  0  0  0  0  0  0  0  0  0
    1.5017    1.6130    0.0710 C   0  0  0  0  0  0  0  0  0  0  0  0
    2.1433    2.7898    0.1127 N   0  0  0  0  0  0  0  0  0  0  0  0
    1.1947    3.7213    0.3537 C   0  0  0  0  0  0  0  0  0  0  0  0
   -0.0194    3.1065    0.4573 N   0  0  0  0  0  0  0  0  0  0  0  0
    0.1547    1.7866    0.2829 C   0  0  0  0  0  0  0  0  0  0  0  0
   -0.8452    0.7527    0.3057 C   0  0  0  0  0  0  0  0  0  0  0  0
   -0.7764   -0.2425    1.2585 C   0  0  0  0  0  0  0  0  0  0  0  0
   -1.7577   -1.2087    1.2345 C   0  0  0  0  0  0  0  0  0  0  0  0
   -2.7963   -1.2254    0.3092 C   0  0  0  0  0  0  0  0  0  0  0  0
   -3.8427   -2.0656    0.1120 N   0  0  0  0  0  0  0  0  0  0  0  0
   -4.5642   -1.6278   -0.9340 C   0  0  0  0  0  0  0  0  0  0  0  0
   -3.9254   -0.4896   -1.3731 C   0  0  0  0  0  0  0  0  0  0  0  0
   -2.8417   -0.2445   -0.6095 N   0  0  0  0  0  0  0  0  0  0  0  0
   -1.8931    0.7176   -0.6114 C   0  0  0  0  0  0  0  0  0  0  0  0
    1.7545   -0.4613   -1.2530 C   0  0  0  0  0  0  0  0  0  0  0  0
    2.3491   -1.6974   -1.4820 C   0  0  0  0  0  0  0  0  0  0  0  0
    1.9849   -2.4600   -2.5409 F   0  0  0  0  0  0  0  0  0  0  0  0
    4.4626   -1.8267    1.0703 H   0  0  0  0  0  0  0  0  0  0  0  0
    3.4079    0.3994    1.5048 H   0  0  0  0  0  0  0  0  0  0  0  0
    1.4288    4.7648    0.4386 H   0  0  0  0  0  0  0  0  0  0  0  0
   -0.9277    3.5872    0.6416 H   0  0  0  0  0  0  0  0  0  0  0  0
    0.0303   -0.2479    1.9937 H   0  0  0  0  0  0  0  0  0  0  0  0
   -1.7239   -2.0054    1.9776 H   0  0  0  0  0  0  0  0  0  0  0  0
   -5.4699   -2.0870   -1.3450 H   0  0  0  0  0  0  0  0  0  0  0  0
   -4.2439    0.1320   -2.2183 H   0  0  0  0  0  0  0  0  0  0  0  0
   -1.9588    1.4882   -1.3596 H   0  0  0  0  0  0  0  0  0  0  0  0
    0.9937   -0.0693   -1.8973 H   0  0  0  0  0  0  0  0  0  0  0  0
  1  2  1  0
  2  3  2  0
  3  4  1  0
  4  5  2  0
  5  6  1  0
  6  7  1  0
  7  8  2  0
  8  9  1  0
  9 10  1  0
 10 11  1  0
 11 12  1  0
 12 13  2  0
 13 14  1  0
 14 15  2  0
 15 16  1  0
 16 17  2  0
 17 18  1  0
 18 19  1  0
  5 20  1  0
 20 21  2  0
 21 22  1  0
 21  2  1  0
 10  6  2  0
 19 11  2  0
 18 14  1  0
  3 23  1  0
  4 24  1  0
  8 25  1  0
  9 26  1  0
 12 27  1  0
 13 28  1  0
 16 29  1  0
 17 30  1  0
 19 31  1  0
 20 32  1  0
M  END
$$$$
