
     RDKit          3D

 89 92  0  0  0  0  0  0  0  0999 V2000
    1.9319   -0.1083    2.1472 C   0  0  0  0  0  0  0  0  0  0  0  0
    1.8567   -0.3404    0.6601 C   0  0  2  0  0  0  0  0  0  0  0  0
    3.0817   -0.0649   -0.0226 N   0  0  0  0  0  0  0  0  0  0  0  0
    3.8809   -0.9810   -0.7284 C   0  0  0  0  0  0  0  0  0  0  0  0
    3.4774   -2.1902   -0.7721 O   0  0  0  0  0  0  0  0  0  0  0  0
    5.1477   -0.6981   -1.4305 C   0  0  1  0  0  0  0  0  0  0  0  0
    5.1783   -1.2202   -2.8403 C   0  0  0  0  0  0  0  0  0  0  0  0
    4.3644   -0.5172   -3.7031 O   0  0  0  0  0  0  0  0  0  0  0  0
    5.5789    0.6616   -1.3853 N   0  0  0  0  0  0  0  0  0  0  0  0
    7.0203    0.8864   -0.5089 S   0  0  0  0  0  6  0  0  0  0  0  0
    7.3832    2.3141   -0.3264 O   0  0  0  0  0  0  0  0  0  0  0  0
    6.8041    0.2994    0.8801 O   0  0  0  0  0  0  0  0  0  0  0  0
    8.3921    0.0067   -1.2168 C   0  0  0  0  0  0  0  0  0  0  0  0
    9.6318    0.2119   -0.4423 C   0  0  0  0  0  0  0  0  0  0  0  0
    9.9465   -0.6460    0.5883 C   0  0  0  0  0  0  0  0  0  0  0  0
   11.1014   -0.4810    1.3369 C   0  0  0  0  0  0  0  0  0  0  0  0
   11.9792    0.5493    1.0776 C   0  0  0  0  0  0  0  0  0  0  0  0
   11.6720    1.4134    0.0476 C   0  0  0  0  0  0  0  0  0  0  0  0
   10.5215    1.2361   -0.6860 C   0  0  0  0  0  0  0  0  0  0  0  0
    0.6734    0.3520    0.1442 C   0  0  0  0  0  0  0  0  0  0  0  0
    0.6348    1.1087   -0.8351 O   0  0  0  0  0  0  0  0  0  0  0  0
   -0.5553    0.1292    0.8446 N   0  0  0  0  0  0  0  0  0  0  0  0
   -1.8018    0.7539    0.4382 C   0  0  0  0  0  0  0  0  0  0  0  0
   -2.3675    1.6535    1.4887 C   0  0  0  0  0  0  0  0  0  0  0  0
   -3.6256    2.2587    0.9938 C   0  0  0  0  0  0  0  0  0  0  0  0
   -3.6266    3.4218    0.2324 C   0  0  0  0  0  0  0  0  0  0  0  0
   -4.7986    3.9926   -0.2139 C   0  0  0  0  0  0  0  0  0  0  0  0
   -6.0264    3.4334    0.0760 C   0  0  0  0  0  0  0  0  0  0  0  0
   -7.2488    3.9940   -0.3698 N   0  0  0  0  0  0  0  0  0  0  0  0
   -7.4875    5.2452   -0.2200 C   0  0  0  0  0  0  0  0  0  0  0  0
   -6.5159    6.0656    0.3974 N   0  0  0  0  0  0  0  0  0  0  0  0
   -8.7090    5.8115   -0.6655 N   0  0  0  0  0  0  0  0  0  0  0  0
   -6.0471    2.2865    0.8260 C   0  0  0  0  0  0  0  0  0  0  0  0
   -4.8622    1.7187    1.2714 C   0  0  0  0  0  0  0  0  0  0  0  0
   -2.9253   -0.6313    0.1359 P   0  0  0  0  0  5  0  0  0  0  0  0
   -3.2555   -1.2350    1.5068 O   0  0  0  0  0  0  0  0  0  0  0  0
   -4.3756   -0.2055   -0.6069 O   0  0  0  0  0  0  0  0  0  0  0  0
   -5.3767   -1.1403   -0.6968 C   0  0  0  0  0  0  0  0  0  0  0  0
   -5.8523   -1.5100   -1.9294 C   0  0  0  0  0  0  0  0  0  0  0  0
   -6.8701   -2.4580   -2.0638 C   0  0  0  0  0  0  0  0  0  0  0  0
   -7.4209   -3.0461   -0.9400 C   0  0  0  0  0  0  0  0  0  0  0  0
   -6.9479   -2.6790    0.2902 C   0  0  0  0  0  0  0  0  0  0  0  0
   -5.9437   -1.7421    0.4015 C   0  0  0  0  0  0  0  0  0  0  0  0
   -2.1120   -1.8915   -0.7113 O   0  0  0  0  0  0  0  0  0  0  0  0
   -2.5851   -3.2050   -0.5818 C   0  0  0  0  0  0  0  0  0  0  0  0
   -3.3202   -3.7579   -1.6067 C   0  0  0  0  0  0  0  0  0  0  0  0
   -3.8130   -5.0645   -1.5205 C   0  0  0  0  0  0  0  0  0  0  0  0
   -3.5727   -5.8335   -0.4011 C   0  0  0  0  0  0  0  0  0  0  0  0
   -2.8371   -5.2851    0.6278 C   0  0  0  0  0  0  0  0  0  0  0  0
   -2.3516   -3.9828    0.5313 C   0  0  0  0  0  0  0  0  0  0  0  0
    1.1982   -0.7967    2.6205 H   0  0  0  0  0  0  0  0  0  0  0  0
    2.9267   -0.3677    2.5691 H   0  0  0  0  0  0  0  0  0  0  0  0
    1.6419    0.9184    2.4356 H   0  0  0  0  0  0  0  0  0  0  0  0
    1.6708   -1.4453    0.5171 H   0  0  0  0  0  0  0  0  0  0  0  0
    3.4117    0.9399    0.0154 H   0  0  0  0  0  0  0  0  0  0  0  0
    5.9337   -1.2869   -0.8622 H   0  0  0  0  0  0  0  0  0  0  0  0
    6.2175   -1.2503   -3.1681 H   0  0  0  0  0  0  0  0  0  0  0  0
    4.7960   -2.2697   -2.8051 H   0  0  0  0  0  0  0  0  0  0  0  0
    4.2067    0.3960   -3.3910 H   0  0  0  0  0  0  0  0  0  0  0  0
    4.8589    1.3654   -1.3039 H   0  0  0  0  0  0  0  0  0  0  0  0
    8.1741   -1.0656   -1.3493 H   0  0  0  0  0  0  0  0  0  0  0  0
    8.5679    0.4378   -2.2220 H   0  0  0  0  0  0  0  0  0  0  0  0
    9.2773   -1.4712    0.8199 H   0  0  0  0  0  0  0  0  0  0  0  0
   11.3066   -1.1840    2.1415 H   0  0  0  0  0  0  0  0  0  0  0  0
   12.8862    0.6646    1.6794 H   0  0  0  0  0  0  0  0  0  0  0  0
   12.3570    2.2208   -0.1567 H   0  0  0  0  0  0  0  0  0  0  0  0
   10.3231    1.9315   -1.4782 H   0  0  0  0  0  0  0  0  0  0  0  0
   -0.5894   -0.4979    1.6804 H   0  0  0  0  0  0  0  0  0  0  0  0
   -1.5916    1.2868   -0.5007 H   0  0  0  0  0  0  0  0  0  0  0  0
   -2.6556    1.0573    2.3993 H   0  0  0  0  0  0  0  0  0  0  0  0
   -1.6489    2.4081    1.8624 H   0  0  0  0  0  0  0  0  0  0  0  0
   -2.6909    3.8900   -0.0158 H   0  0  0  0  0  0  0  0  0  0  0  0
   -4.8035    4.9119   -0.8151 H   0  0  0  0  0  0  0  0  0  0  0  0
   -6.2121    5.8364    1.3640 H   0  0  0  0  0  0  0  0  0  0  0  0
   -6.1375    6.8730   -0.1394 H   0  0  0  0  0  0  0  0  0  0  0  0
   -8.8831    6.0415   -1.6609 H   0  0  0  0  0  0  0  0  0  0  0  0
   -9.4684    6.0088    0.0199 H   0  0  0  0  0  0  0  0  0  0  0  0
   -7.0154    1.8228    1.0695 H   0  0  0  0  0  0  0  0  0  0  0  0
   -4.9836    0.8215    1.8604 H   0  0  0  0  0  0  0  0  0  0  0  0
   -5.4308   -1.0598   -2.8016 H   0  0  0  0  0  0  0  0  0  0  0  0
   -7.2165   -2.7212   -3.0585 H   0  0  0  0  0  0  0  0  0  0  0  0
   -8.2082   -3.7755   -1.0942 H   0  0  0  0  0  0  0  0  0  0  0  0
   -7.3575   -3.1221    1.1703 H   0  0  0  0  0  0  0  0  0  0  0  0
   -5.5776   -1.4583    1.3694 H   0  0  0  0  0  0  0  0  0  0  0  0
   -3.5095   -3.1618   -2.4797 H   0  0  0  0  0  0  0  0  0  0  0  0
   -4.3922   -5.4850   -2.3378 H   0  0  0  0  0  0  0  0  0  0  0  0
   -3.9748   -6.8322   -0.3903 H   0  0  0  0  0  0  0  0  0  0  0  0
   -2.6601   -5.9028    1.4953 H   0  0  0  0  0  0  0  0  0  0  0  0
   -1.7732   -3.5678    1.3574 H   0  0  0  0  0  0  0  0  0  0  0  0
  1  2  1  0
  2  3  1  0
  3  4  1  0
  4  5  2  0
  4  6  1  0
  6  7  1  0
  7  8  1  0
  6  9  1  0
  9 10  1  0
 10 11  2  0
 10 12  2  0
 10 13  1  0
 13 14  1  0
 14 15  2  0
 15 16  1  0
 16 17  2  0
 17 18  1  0
 18 19  2  0
  2 20  1  0
 20 21  2  0
 20 22  1  0
 22 23  1  0
 23 24  1  0
 24 25  1  0
 25 26  2  0
 26 27  1  0
 27 28  2  0
 28 29  1  0
 29 30  2  3
 30 31  1  0
 30 32  1  0
 28 33  1  0
 33 34  2  0
 23 35  1  0
 35 36  2  0
 35 37  1  0
 37 38  1  0
 38 39  2  0
 39 40  1  0
 40 41  2  0
 41 42  1  0
 42 43  2  0
 35 44  1  0
 44 45  1  0
 45 46  2  0
 46 47  1  0
 47 48  2  0
 48 49  1  0
 49 50  2  0
 19 14  1  0
 34 25  1  0
 43 38  1  0
 50 45  1  0
  1 51  1  0
  1 52  1  0
  1 53  1  0
  2 54  1  1
  3 55  1  0
  6 56  1  1
  7 57  1  0
  7 58  1  0
  8 59  1  0
  9 60  1  0
 13 61  1  0
 13 62  1  0
 15 63  1  0
 16 64  1  0
 17 65  1  0
 18 66  1  0
 19 67  1  0
 22 68  1  0
 23 69  1  0
 24 70  1  0
 24 71  1  0
 26 72  1  0
 27 73  1  0
 31 74  1  0
 31 75  1  0
 32 76  1  0
 32 77  1  0
 33 78  1  0
 34 79  1  0
 39 80  1  0
 40 81  1  0
 41 82  1  0
 42 83  1  0
 43 84  1  0
 46 85  1  0
 47 86  1  0
 48 87  1  0
 49 88  1  0
 50 89  1  0
M  END
$$$$
