
     RDKit          3D

 56 60  0  0  0  0  0  0  0  0999 V2000
   -0.4358   -0.6801   -3.3555 C   0  0  0  0  0  0  0  0  0  0  0  0
   -0.5633   -0.6162   -1.8144 C   0  0  2  0  0  0  0  0  0  0  0  0
    0.3723    0.4693   -1.4213 C   0  0  0  0  0  0  0  0  0  0  0  0
    1.5419    0.1976   -0.7516 C   0  0  0  0  0  0  0  0  0  0  0  0
    2.4367    1.1737   -0.3783 C   0  0  0  0  0  0  0  0  0  0  0  0
    3.7069    0.8838    0.3193 C   0  0  0  0  0  0  0  0  0  0  0  0
    4.4715   -0.1356    0.0085 C   0  0  0  0  0  0  0  0  0  0  0  0
    4.0798   -0.9663   -0.9998 F   0  0  0  0  0  0  0  0  0  0  0  0
    5.7391   -0.4009    0.6945 C   0  0  0  0  0  0  0  0  0  0  0  0
    6.2395    0.3873    1.7016 C   0  0  0  0  0  0  0  0  0  0  0  0
    7.4381    0.1175    2.3269 C   0  0  0  0  0  0  0  0  0  0  0  0
    8.1752   -0.9795    1.9405 C   0  0  0  0  0  0  0  0  0  0  0  0
    9.7010   -1.4148    2.6618 Cl  0  0  0  0  0  0  0  0  0  0  0  0
    7.6463   -1.7648    0.9156 C   0  0  0  0  0  0  0  0  0  0  0  0
    6.4830   -1.4825    0.3255 N   0  0  0  0  0  0  0  0  0  0  0  0
    2.1489    2.4964   -0.6892 C   0  0  0  0  0  0  0  0  0  0  0  0
    0.9931    2.8042   -1.3557 C   0  0  0  0  0  0  0  0  0  0  0  0
    0.1192    1.8105   -1.7166 C   0  0  0  0  0  0  0  0  0  0  0  0
   -1.0173    2.0960   -2.3698 F   0  0  0  0  0  0  0  0  0  0  0  0
   -0.1025   -1.8902   -1.3854 N   0  0  0  0  0  0  0  0  0  0  0  0
   -0.4801   -2.5697   -0.3991 C   0  0  0  0  0  0  0  0  0  0  0  0
    0.0925   -3.8226   -0.1214 N   0  0  0  0  0  0  0  0  0  0  0  0
   -1.7660   -1.9091    0.6478 S   0  0  0  0  0  0  0  0  0  0  0  0
   -2.6356   -0.7001   -0.3345 C   0  0  1  0  0  0  0  0  0  0  0  0
   -4.1352   -0.8547   -0.3351 C   0  0  0  0  0  0  0  0  0  0  0  0
   -4.7005   -1.5066   -1.2756 O   0  0  0  0  0  0  0  0  0  0  0  0
   -4.9443   -0.3047    0.6627 N   0  0  0  0  0  0  0  0  0  0  0  0
   -6.3736   -0.3664    0.7701 C   0  0  0  0  0  0  0  0  0  0  0  0
   -6.7118    1.0925    1.0295 C   0  0  0  0  0  0  0  0  0  0  0  0
   -5.6127    1.4946    2.0033 C   0  0  0  0  0  0  0  0  0  0  0  0
   -4.5044    0.4539    1.8060 C   0  0  0  0  0  0  0  0  0  0  0  0
   -2.1718    0.6979   -0.3434 C   0  0  0  0  0  0  0  0  0  0  0  0
   -1.9832   -0.2669   -1.5564 C   0  0  1  0  0  0  0  0  0  0  0  0
    0.6329   -0.5257   -3.6488 H   0  0  0  0  0  0  0  0  0  0  0  0
   -0.7128   -1.6642   -3.7393 H   0  0  0  0  0  0  0  0  0  0  0  0
   -1.0168    0.1216   -3.8366 H   0  0  0  0  0  0  0  0  0  0  0  0
    1.7973   -0.8262   -0.4914 H   0  0  0  0  0  0  0  0  0  0  0  0
    3.9867    1.5648    1.1262 H   0  0  0  0  0  0  0  0  0  0  0  0
    5.7068    1.2530    2.0436 H   0  0  0  0  0  0  0  0  0  0  0  0
    7.8355    0.7479    3.1283 H   0  0  0  0  0  0  0  0  0  0  0  0
    8.2079   -2.6457    0.5825 H   0  0  0  0  0  0  0  0  0  0  0  0
    2.8671    3.2526   -0.3847 H   0  0  0  0  0  0  0  0  0  0  0  0
    0.7825    3.8274   -1.5900 H   0  0  0  0  0  0  0  0  0  0  0  0
   -0.4627   -4.6989   -0.1316 H   0  0  0  0  0  0  0  0  0  0  0  0
    1.1030   -3.8901    0.1026 H   0  0  0  0  0  0  0  0  0  0  0  0
   -6.6427   -0.9149    1.6776 H   0  0  0  0  0  0  0  0  0  0  0  0
   -6.8713   -0.7472   -0.1420 H   0  0  0  0  0  0  0  0  0  0  0  0
   -6.5466    1.6336    0.0647 H   0  0  0  0  0  0  0  0  0  0  0  0
   -7.7138    1.2490    1.4316 H   0  0  0  0  0  0  0  0  0  0  0  0
   -5.2347    2.5104    1.7994 H   0  0  0  0  0  0  0  0  0  0  0  0
   -6.0408    1.4406    3.0213 H   0  0  0  0  0  0  0  0  0  0  0  0
   -3.5123    0.8937    1.7312 H   0  0  0  0  0  0  0  0  0  0  0  0
   -4.5546   -0.2438    2.6818 H   0  0  0  0  0  0  0  0  0  0  0  0
   -1.2984    0.9533    0.2506 H   0  0  0  0  0  0  0  0  0  0  0  0
   -2.8838    1.5228   -0.4841 H   0  0  0  0  0  0  0  0  0  0  0  0
   -2.6759   -0.0084   -2.4037 H   0  0  0  0  0  0  0  0  0  0  0  0
  2  1  1  6
  2  3  1  0
  3  4  2  0
  4  5  1  0
  5  6  1  0
  6  7  2  0
  7  8  1  0
  7  9  1  0
  9 10  2  0
 10 11  1  0
 11 12  2  0
 12 13  1  0
 12 14  1  0
 14 15  2  0
  5 16  2  0
 16 17  1  0
 17 18  2  0
 18 19  1  0
  2 20  1  0
 20 21  2  0
 21 22  1  0
 21 23  1  0
 23 24  1  0
 24 25  1  6
 25 26  2  0
 25 27  1  0
 27 28  1  0
 28 29  1  0
 29 30  1  0
 30 31  1  0
 24 32  1  0
 32 33  1  0
 33  2  1  0
 18  3  1  0
 33 24  1  0
 15  9  1  0
 31 27  1  0
  1 34  1  0
  1 35  1  0
  1 36  1  0
  4 37  1  0
  6 38  1  0
 10 39  1  0
 11 40  1  0
 14 41  1  0
 16 42  1  0
 17 43  1  0
 22 44  1  0
 22 45  1  0
 28 46  1  0
 28 47  1  0
 29 48  1  0
 29 49  1  0
 30 50  1  0
 30 51  1  0
 31 52  1  0
 31 53  1  0
 32 54  1  0
 32 55  1  0
 33 56  1  6
M  END
$$$$
