
     RDKit          3D

 49 53  0  0  0  0  0  0  0  0999 V2000
   -1.9980    1.9178   -0.9113 C   0  0  0  0  0  0  0  0  0  0  0  0
   -3.4017    1.5791   -0.5685 C   0  0  0  0  0  0  0  0  0  0  0  0
   -4.5379    2.2356   -0.8536 N   0  0  0  0  0  0  0  0  0  0  0  0
   -5.6031    1.6260   -0.3804 N   0  0  0  0  0  0  0  0  0  0  0  0
   -7.0042    2.0307   -0.4872 C   0  0  0  0  0  0  0  0  0  0  0  0
   -5.1648    0.5263    0.2412 C   0  0  0  0  0  0  0  0  0  0  0  0
   -3.7978    0.4665    0.1429 C   0  0  0  0  0  0  0  0  0  0  0  0
   -2.8888   -0.5561    0.6716 C   0  0  0  0  0  0  0  0  0  0  0  0
   -1.5485   -0.5795    0.5539 N   0  0  0  0  0  0  0  0  0  0  0  0
   -1.0332   -1.6656    1.1597 C   0  0  0  0  0  0  0  0  0  0  0  0
    0.2831   -2.1198    1.3047 C   0  0  0  0  0  0  0  0  0  0  0  0
    1.2899   -1.3245    0.7251 N   0  0  0  0  0  0  0  0  0  0  0  0
    1.6724   -1.5967   -0.6477 C   0  0  0  0  0  0  0  0  0  0  0  0
    3.1822   -1.6092   -0.7026 C   0  0  0  0  0  0  0  0  0  0  0  0
    3.7111   -0.3522   -0.2661 N   0  0  0  0  0  0  0  0  0  0  0  0
    4.4246    0.2654   -1.3441 C   0  0  0  0  0  0  0  0  0  0  0  0
    4.9880    1.5606   -0.9468 C   0  0  0  0  0  0  0  0  0  0  0  0
    4.4012    2.7526   -1.0438 N   0  0  0  0  0  0  0  0  0  0  0  0
    5.2621    3.6649   -0.5697 C   0  0  0  0  0  0  0  0  0  0  0  0
    6.3323    3.0057   -0.2039 O   0  0  0  0  0  0  0  0  0  0  0  0
    6.1970    1.7482   -0.4173 N   0  0  0  0  0  0  0  0  0  0  0  0
    2.7354    0.5242    0.3266 C   0  0  0  0  0  0  0  0  0  0  0  0
    1.9782   -0.2470    1.3996 C   0  0  0  0  0  0  0  0  0  0  0  0
    0.5037   -3.2828    1.9860 C   0  0  0  0  0  0  0  0  0  0  0  0
    2.1479   -3.8400    2.1611 Cl  0  0  0  0  0  0  0  0  0  0  0  0
   -0.5808   -3.9590    2.5013 C   0  0  0  0  0  0  0  0  0  0  0  0
   -1.8369   -3.4989    2.3467 N   0  0  0  0  0  0  0  0  0  0  0  0
   -2.1048   -2.3579    1.6835 C   0  0  0  0  0  0  0  0  0  0  0  0
   -3.2072   -1.6606    1.3704 N   0  0  0  0  0  0  0  0  0  0  0  0
   -1.4744    2.4327   -0.0863 H   0  0  0  0  0  0  0  0  0  0  0  0
   -1.4160    1.0373   -1.2580 H   0  0  0  0  0  0  0  0  0  0  0  0
   -2.0439    2.6090   -1.7967 H   0  0  0  0  0  0  0  0  0  0  0  0
   -7.2206    2.8094    0.2656 H   0  0  0  0  0  0  0  0  0  0  0  0
   -7.6526    1.1616   -0.2563 H   0  0  0  0  0  0  0  0  0  0  0  0
   -7.1860    2.3718   -1.5336 H   0  0  0  0  0  0  0  0  0  0  0  0
   -5.7791   -0.1950    0.7375 H   0  0  0  0  0  0  0  0  0  0  0  0
    1.2299   -2.5161   -1.0400 H   0  0  0  0  0  0  0  0  0  0  0  0
    1.2994   -0.7629   -1.2858 H   0  0  0  0  0  0  0  0  0  0  0  0
    3.5877   -2.3960   -0.0391 H   0  0  0  0  0  0  0  0  0  0  0  0
    3.5018   -1.8542   -1.7546 H   0  0  0  0  0  0  0  0  0  0  0  0
    3.7556    0.4257   -2.2213 H   0  0  0  0  0  0  0  0  0  0  0  0
    5.2432   -0.4489   -1.6433 H   0  0  0  0  0  0  0  0  0  0  0  0
    5.0616    4.7319   -0.5207 H   0  0  0  0  0  0  0  0  0  0  0  0
    1.9977    0.9253   -0.3773 H   0  0  0  0  0  0  0  0  0  0  0  0
    3.2617    1.3708    0.7995 H   0  0  0  0  0  0  0  0  0  0  0  0
    2.7151   -0.5859    2.1297 H   0  0  0  0  0  0  0  0  0  0  0  0
    1.2776    0.4435    1.9167 H   0  0  0  0  0  0  0  0  0  0  0  0
   -0.3719   -4.8831    3.0393 H   0  0  0  0  0  0  0  0  0  0  0  0
   -4.1882   -1.9306    1.6301 H   0  0  0  0  0  0  0  0  0  0  0  0
  1  2  1  0
  2  3  2  0
  3  4  1  0
  4  5  1  0
  4  6  1  0
  6  7  2  0
  7  8  1  0
  8  9  2  0
  9 10  1  0
 10 11  2  0
 11 12  1  0
 12 13  1  0
 13 14  1  0
 14 15  1  0
 15 16  1  0
 16 17  1  0
 17 18  1  0
 18 19  2  0
 19 20  1  0
 20 21  1  0
 15 22  1  0
 22 23  1  0
 11 24  1  0
 24 25  1  0
 24 26  2  0
 26 27  1  0
 27 28  2  0
 28 29  1  0
  7  2  1  0
 29  8  1  0
 28 10  1  0
 23 12  1  0
 21 17  2  0
  1 30  1  0
  1 31  1  0
  1 32  1  0
  5 33  1  0
  5 34  1  0
  5 35  1  0
  6 36  1  0
 13 37  1  0
 13 38  1  0
 14 39  1  0
 14 40  1  0
 16 41  1  0
 16 42  1  0
 19 43  1  0
 22 44  1  0
 22 45  1  0
 23 46  1  0
 23 47  1  0
 26 48  1  0
 29 49  1  0
M  END
$$$$
