
     RDKit          3D

 29 29  0  0  0  0  0  0  0  0999 V2000
   -1.7921   -2.5216    0.1444 O   0  0  0  0  0  0  0  0  0  0  0  0
   -1.6768   -1.4388    1.0176 C   0  0  1  0  0  0  0  0  0  0  0  0
   -0.4077   -0.9477    1.1151 O   0  0  0  0  0  0  0  0  0  0  0  0
    0.0039   -0.2621   -0.0018 C   0  0  2  0  0  0  0  0  0  0  0  0
    1.4286    0.1951    0.1072 C   0  0  0  0  0  0  0  0  0  0  0  0
    2.3538   -0.8043    0.2692 O   0  0  0  0  0  0  0  0  0  0  0  0
    3.8843   -0.0878    0.3711 P   0  0  0  0  0  0  0  0  0  0  0  0
    3.8291    1.4771   -0.3166 O   0  0  0  0  0  0  0  0  0  0  0  0
    4.9843   -1.0546   -0.4400 O   0  0  0  0  0  0  0  0  0  0  0  0
    4.3163    0.0922    1.8135 O   0  0  0  0  0  0  0  0  0  0  0  0
   -0.8672    0.9800   -0.0895 C   0  0  1  0  0  0  0  0  0  0  0  0
   -0.3624    1.9096   -0.9779 O   0  0  0  0  0  0  0  0  0  0  0  0
   -2.2205    0.4189   -0.5469 C   0  0  2  0  0  0  0  0  0  0  0  0
   -3.1119    1.4026   -0.8629 O   0  0  0  0  0  0  0  0  0  0  0  0
   -2.7101   -0.4335    0.6031 C   0  0  1  0  0  0  0  0  0  0  0  0
   -3.8365   -1.1173    0.1420 O   0  0  0  0  0  0  0  0  0  0  0  0
   -0.9398   -2.7232   -0.3138 H   0  0  0  0  0  0  0  0  0  0  0  0
   -1.9814   -1.8226    2.0235 H   0  0  0  0  0  0  0  0  0  0  0  0
   -0.1499   -0.8167   -0.9491 H   0  0  0  0  0  0  0  0  0  0  0  0
    1.6911    0.7065   -0.8605 H   0  0  0  0  0  0  0  0  0  0  0  0
    1.5694    0.9710    0.8868 H   0  0  0  0  0  0  0  0  0  0  0  0
    4.0396    1.3471   -1.2909 H   0  0  0  0  0  0  0  0  0  0  0  0
    5.7729   -1.2095    0.1387 H   0  0  0  0  0  0  0  0  0  0  0  0
   -0.9878    1.4466    0.9115 H   0  0  0  0  0  0  0  0  0  0  0  0
   -0.0184    2.7349   -0.5377 H   0  0  0  0  0  0  0  0  0  0  0  0
   -2.0065   -0.2136   -1.4074 H   0  0  0  0  0  0  0  0  0  0  0  0
   -3.3168    1.9764   -0.0894 H   0  0  0  0  0  0  0  0  0  0  0  0
   -3.0122    0.2157    1.4405 H   0  0  0  0  0  0  0  0  0  0  0  0
   -4.4755   -0.4206   -0.1696 H   0  0  0  0  0  0  0  0  0  0  0  0
  1  2  1  0
  2  3  1  0
  3  4  1  0
  4  5  1  0
  5  6  1  0
  6  7  1  0
  7  8  1  0
  7  9  1  0
  7 10  2  0
  4 11  1  0
 11 12  1  0
 11 13  1  0
 13 14  1  0
 13 15  1  0
 15 16  1  0
 15  2  1  0
  1 17  1  0
  2 18  1  1
  4 19  1  6
  5 20  1  0
  5 21  1  0
  8 22  1  0
  9 23  1  0
 11 24  1  1
 12 25  1  0
 13 26  1  6
 14 27  1  0
 15 28  1  1
 16 29  1  0
M  END
$$$$
