
     RDKit          3D

 74 79  0  0  0  0  0  0  0  0999 V2000
   -6.7400   -1.2937   -1.7087 C   0  0  0  0  0  0  0  0  0  0  0  0
   -6.0093   -0.9349   -0.4104 C   0  0  1  0  0  0  0  0  0  0  0  0
   -5.8992    0.4690   -0.3979 O   0  0  0  0  0  0  0  0  0  0  0  0
   -4.6267    1.0230   -0.3725 C   0  0  0  0  0  0  0  0  0  0  0  0
   -3.5173    0.2602   -0.3597 N   0  0  0  0  0  0  0  0  0  0  0  0
   -2.2715    0.7611   -0.3351 C   0  0  0  0  0  0  0  0  0  0  0  0
   -1.0931   -0.1259   -0.3220 C   0  0  0  0  0  0  0  0  0  0  0  0
   -1.1758   -1.5063   -0.3335 C   0  0  0  0  0  0  0  0  0  0  0  0
    0.0758   -1.9449   -0.3159 N   0  0  0  0  0  0  0  0  0  0  0  0
    0.9237   -0.9371   -0.2944 N   0  0  0  0  0  0  0  0  0  0  0  0
    2.3577   -1.0405   -0.2713 C   0  0  1  0  0  0  0  0  0  0  0  0
    2.8849   -0.3959   -1.5304 C   0  0  0  0  0  0  0  0  0  0  0  0
    4.4137   -0.4768   -1.4315 C   0  0  0  0  0  0  0  0  0  0  0  0
    4.8174    0.5679   -0.4108 C   0  0  2  0  0  0  0  0  0  0  0  0
    6.1993    0.4171   -0.0076 N   0  0  0  0  0  0  0  0  0  0  0  0
    6.5100   -0.8337    0.5831 C   0  0  0  0  0  0  0  0  0  0  0  0
    7.5468   -1.6488   -0.1256 C   0  0  0  0  0  0  0  0  0  0  0  0
    8.7253   -0.8197   -0.2806 N   0  0  0  0  0  0  0  0  0  0  0  0
   10.0346   -1.3931   -0.0861 C   0  0  0  0  0  0  0  0  0  0  0  0
    8.5033    0.5449   -0.6244 C   0  0  0  0  0  0  0  0  0  0  0  0
    9.4731    1.3486   -0.6204 O   0  0  0  0  0  0  0  0  0  0  0  0
    7.1170    0.9253   -0.9688 C   0  0  0  0  0  0  0  0  0  0  0  0
    3.8792    0.6935    0.7349 C   0  0  0  0  0  0  0  0  0  0  0  0
    2.9674   -0.4516    0.9733 C   0  0  0  0  0  0  0  0  0  0  0  0
    0.2264    0.2132   -0.2976 C   0  0  0  0  0  0  0  0  0  0  0  0
   -2.1352    2.1328   -0.3226 C   0  0  0  0  0  0  0  0  0  0  0  0
   -3.2643    2.9532   -0.3352 C   0  0  0  0  0  0  0  0  0  0  0  0
   -3.4530    4.2891   -0.3283 N   0  0  0  0  0  0  0  0  0  0  0  0
   -4.7478    4.5721   -0.3478 N   0  0  0  0  0  0  0  0  0  0  0  0
   -5.2924    5.9149   -0.3468 C   0  0  0  0  0  0  0  0  0  0  0  0
   -5.4704    3.4197   -0.3685 C   0  0  0  0  0  0  0  0  0  0  0  0
   -4.5313    2.4097   -0.3604 C   0  0  0  0  0  0  0  0  0  0  0  0
   -6.8801   -1.4434    0.7175 C   0  0  1  0  0  0  0  0  0  0  0  0
   -7.0784   -2.9392    0.6226 C   0  0  0  0  0  0  0  0  0  0  0  0
   -7.4677   -3.2671    1.9997 N   0  0  0  0  0  0  0  0  0  0  0  0
   -6.9271   -2.2932    2.8770 C   0  0  0  0  0  0  0  0  0  0  0  0
   -7.0615   -2.2914    4.1174 O   0  0  0  0  0  0  0  0  0  0  0  0
   -6.1897   -1.3014    2.0620 C   0  0  0  0  0  0  0  0  0  0  0  0
   -6.3020   -0.6768   -2.4933 H   0  0  0  0  0  0  0  0  0  0  0  0
   -7.8146   -1.0532   -1.6246 H   0  0  0  0  0  0  0  0  0  0  0  0
   -6.6538   -2.3861   -1.8832 H   0  0  0  0  0  0  0  0  0  0  0  0
   -5.0296   -1.4339   -0.3969 H   0  0  0  0  0  0  0  0  0  0  0  0
   -2.0839   -2.0981   -0.3529 H   0  0  0  0  0  0  0  0  0  0  0  0
    2.6327   -2.1117   -0.3285 H   0  0  0  0  0  0  0  0  0  0  0  0
    2.5291    0.6276   -1.6458 H   0  0  0  0  0  0  0  0  0  0  0  0
    2.5387   -1.0155   -2.3796 H   0  0  0  0  0  0  0  0  0  0  0  0
    4.7856   -0.1763   -2.4329 H   0  0  0  0  0  0  0  0  0  0  0  0
    4.6968   -1.4927   -1.1426 H   0  0  0  0  0  0  0  0  0  0  0  0
    4.7808    1.5501   -0.9719 H   0  0  0  0  0  0  0  0  0  0  0  0
    6.9197   -0.6259    1.6154 H   0  0  0  0  0  0  0  0  0  0  0  0
    5.6341   -1.4901    0.7566 H   0  0  0  0  0  0  0  0  0  0  0  0
    7.7403   -2.5511    0.4863 H   0  0  0  0  0  0  0  0  0  0  0  0
    7.1368   -1.9561   -1.1034 H   0  0  0  0  0  0  0  0  0  0  0  0
   10.2050   -2.1063   -0.9302 H   0  0  0  0  0  0  0  0  0  0  0  0
   10.0216   -2.0263    0.8440 H   0  0  0  0  0  0  0  0  0  0  0  0
   10.8250   -0.6520    0.0289 H   0  0  0  0  0  0  0  0  0  0  0  0
    6.8563    0.6773   -2.0177 H   0  0  0  0  0  0  0  0  0  0  0  0
    7.0785    2.0483   -0.9135 H   0  0  0  0  0  0  0  0  0  0  0  0
    4.5065    0.8212    1.6649 H   0  0  0  0  0  0  0  0  0  0  0  0
    3.2701    1.6419    0.6978 H   0  0  0  0  0  0  0  0  0  0  0  0
    2.1026   -0.0662    1.5913 H   0  0  0  0  0  0  0  0  0  0  0  0
    3.4042   -1.2639    1.6095 H   0  0  0  0  0  0  0  0  0  0  0  0
    0.6189    1.2231   -0.2837 H   0  0  0  0  0  0  0  0  0  0  0  0
   -1.1553    2.5527   -0.3030 H   0  0  0  0  0  0  0  0  0  0  0  0
   -6.3341    5.8799    0.0195 H   0  0  0  0  0  0  0  0  0  0  0  0
   -4.7105    6.5526    0.3446 H   0  0  0  0  0  0  0  0  0  0  0  0
   -5.2117    6.3526   -1.3634 H   0  0  0  0  0  0  0  0  0  0  0  0
   -6.5438    3.3049   -0.3872 H   0  0  0  0  0  0  0  0  0  0  0  0
   -7.8400   -0.9300    0.7486 H   0  0  0  0  0  0  0  0  0  0  0  0
   -6.1130   -3.4396    0.4460 H   0  0  0  0  0  0  0  0  0  0  0  0
   -7.8590   -3.2181   -0.1012 H   0  0  0  0  0  0  0  0  0  0  0  0
   -8.0535   -4.1068    2.2086 H   0  0  0  0  0  0  0  0  0  0  0  0
   -5.1339   -1.6586    1.9860 H   0  0  0  0  0  0  0  0  0  0  0  0
   -6.2681   -0.2737    2.4605 H   0  0  0  0  0  0  0  0  0  0  0  0
  1  2  1  0
  2  3  1  0
  3  4  1  0
  4  5  2  0
  5  6  1  0
  6  7  1  0
  7  8  1  0
  8  9  2  0
  9 10  1  0
 10 11  1  0
 11 12  1  0
 12 13  1  0
 13 14  1  0
 14 15  1  0
 15 16  1  0
 16 17  1  0
 17 18  1  0
 18 19  1  0
 18 20  1  0
 20 21  2  0
 20 22  1  0
 14 23  1  0
 23 24  1  0
 10 25  1  0
  6 26  2  0
 26 27  1  0
 27 28  2  0
 28 29  1  0
 29 30  1  0
 29 31  1  0
 31 32  2  0
  2 33  1  0
 33 34  1  0
 34 35  1  0
 35 36  1  0
 36 37  2  0
 36 38  1  0
 32  4  1  0
 38 33  1  0
 25  7  2  0
 32 27  1  0
 24 11  1  0
 22 15  1  0
  1 39  1  0
  1 40  1  0
  1 41  1  0
  2 42  1  6
  8 43  1  0
 11 44  1  6
 12 45  1  0
 12 46  1  0
 13 47  1  0
 13 48  1  0
 14 49  1  6
 16 50  1  0
 16 51  1  0
 17 52  1  0
 17 53  1  0
 19 54  1  0
 19 55  1  0
 19 56  1  0
 22 57  1  0
 22 58  1  0
 23 59  1  0
 23 60  1  0
 24 61  1  0
 24 62  1  0
 25 63  1  0
 26 64  1  0
 30 65  1  0
 30 66  1  0
 30 67  1  0
 31 68  1  0
 33 69  1  1
 34 70  1  0
 34 71  1  0
 35 72  1  0
 38 73  1  0
 38 74  1  0
M  END
$$$$
