
     RDKit          3D

 18 17  0  0  0  0  0  0  0  0999 V2000
   -0.1880   -1.5320   -0.7681 C   0  0  0  0  0  0  0  0  0  0  0  0
   -0.2659   -0.3375    0.0606 N   0  0  0  0  0  0  0  0  0  0  0  0
    0.6423   -0.3062    1.1868 C   0  0  0  0  0  0  0  0  0  0  0  0
    2.0647   -0.1750    0.7063 C   0  0  0  0  0  0  0  0  0  0  0  0
    2.3752   -0.0232   -0.6633 O   0  0  0  0  0  0  0  0  0  0  0  0
    3.0614   -0.1920    1.4961 O   0  0  0  0  0  0  0  0  0  0  0  0
   -1.2386    0.6426   -0.3652 C   0  0  0  0  0  0  0  0  0  0  0  0
   -1.9638    1.4508    0.5548 N   0  0  0  0  0  0  0  0  0  0  0  0
   -1.4466    0.7810   -1.6270 N   0  0  0  0  0  0  0  0  0  0  0  0
   -0.1234   -1.1622   -1.8308 H   0  0  0  0  0  0  0  0  0  0  0  0
    0.6702   -2.1728   -0.5210 H   0  0  0  0  0  0  0  0  0  0  0  0
   -1.1584   -2.0694   -0.7096 H   0  0  0  0  0  0  0  0  0  0  0  0
    0.5478   -1.1472    1.8799 H   0  0  0  0  0  0  0  0  0  0  0  0
    0.4366    0.6275    1.7595 H   0  0  0  0  0  0  0  0  0  0  0  0
    3.1977    0.5581   -0.8772 H   0  0  0  0  0  0  0  0  0  0  0  0
   -2.3239    1.1718    1.4907 H   0  0  0  0  0  0  0  0  0  0  0  0
   -2.1837    2.4526    0.3006 H   0  0  0  0  0  0  0  0  0  0  0  0
   -2.1035    1.4331   -2.0730 H   0  0  0  0  0  0  0  0  0  0  0  0
  1  2  1  0
  2  3  1  0
  3  4  1  0
  4  5  1  0
  4  6  2  0
  2  7  1  0
  7  8  1  0
  7  9  2  3
  1 10  1  0
  1 11  1  0
  1 12  1  0
  3 13  1  0
  3 14  1  0
  5 15  1  0
  8 16  1  0
  8 17  1  0
  9 18  1  0
M  END
$$$$
