
     RDKit          3D

 33 34  0  0  0  0  0  0  0  0999 V2000
    0.5737    2.0203    2.0466 C   0  0  0  0  0  0  0  0  0  0  0  0
    1.1897    1.0118    1.4595 C   0  0  0  0  0  0  0  0  0  0  0  0
    2.5157    1.0953    0.8609 C   0  0  0  0  0  0  0  0  0  0  0  0
    3.2778    2.1183    0.8003 O   0  0  0  0  0  0  0  0  0  0  0  0
    2.8229   -0.1704    0.3485 N   0  0  0  0  0  0  0  0  0  0  0  0
    4.0615   -0.5173   -0.3340 C   0  0  0  0  0  0  0  0  0  0  0  0
    3.8787   -0.2692   -1.7892 C   0  0  0  0  0  0  0  0  0  0  0  0
    4.8096   -0.4914   -2.6069 O   0  0  0  0  0  0  0  0  0  0  0  0
    2.6894    0.2141   -2.3218 O   0  0  0  0  0  0  0  0  0  0  0  0
    1.7233   -1.0267    0.6160 C   0  0  0  0  0  0  0  0  0  0  0  0
    1.6897   -2.2388    0.2794 O   0  0  0  0  0  0  0  0  0  0  0  0
    0.6890   -0.3102    1.3099 N   0  0  0  0  0  0  0  0  0  0  0  0
   -0.5922   -0.8552    1.7578 C   0  0  0  0  0  0  0  0  0  0  0  0
   -1.6288   -0.7673    0.7263 C   0  0  0  0  0  0  0  0  0  0  0  0
   -1.8504   -1.7554   -0.2175 C   0  0  0  0  0  0  0  0  0  0  0  0
   -2.8316   -1.6609   -1.1806 C   0  0  0  0  0  0  0  0  0  0  0  0
   -3.6305   -0.5372   -1.2118 C   0  0  0  0  0  0  0  0  0  0  0  0
   -3.4500    0.4754   -0.2935 C   0  0  0  0  0  0  0  0  0  0  0  0
   -4.2744    1.6368   -0.3243 N   0  0  0  0  0  4  0  0  0  0  0  0
   -4.1082    2.5467    0.5052 O   0  0  0  0  0  0  0  0  0  0  0  0
   -5.2652    1.7855   -1.2586 O   0  0  0  0  0  1  0  0  0  0  0  0
   -2.4433    0.3393    0.6666 C   0  0  0  0  0  0  0  0  0  0  0  0
   -0.4131    1.9328    2.4850 H   0  0  0  0  0  0  0  0  0  0  0  0
    1.0731    2.9722    2.0924 H   0  0  0  0  0  0  0  0  0  0  0  0
    4.8758    0.1404    0.0051 H   0  0  0  0  0  0  0  0  0  0  0  0
    4.3342   -1.5789   -0.2049 H   0  0  0  0  0  0  0  0  0  0  0  0
    2.6002    0.4280   -3.3275 H   0  0  0  0  0  0  0  0  0  0  0  0
   -0.9031   -0.2448    2.6258 H   0  0  0  0  0  0  0  0  0  0  0  0
   -0.4777   -1.8991    2.1082 H   0  0  0  0  0  0  0  0  0  0  0  0
   -1.1954   -2.6217   -0.1524 H   0  0  0  0  0  0  0  0  0  0  0  0
   -2.9752   -2.4601   -1.9065 H   0  0  0  0  0  0  0  0  0  0  0  0
   -4.4006   -0.4931   -1.9894 H   0  0  0  0  0  0  0  0  0  0  0  0
   -2.3649    1.1807    1.3575 H   0  0  0  0  0  0  0  0  0  0  0  0
  1  2  2  3
  2  3  1  0
  3  4  2  0
  3  5  1  0
  5  6  1  0
  6  7  1  0
  7  8  2  0
  7  9  1  0
  5 10  1  0
 10 11  2  0
 10 12  1  0
 12 13  1  0
 13 14  1  0
 14 15  2  0
 15 16  1  0
 16 17  2  0
 17 18  1  0
 18 19  1  0
 19 20  2  0
 19 21  1  0
 18 22  2  0
 12  2  1  0
 22 14  1  0
  1 23  1  0
  1 24  1  0
  6 25  1  0
  6 26  1  0
  9 27  1  0
 13 28  1  0
 13 29  1  0
 15 30  1  0
 16 31  1  0
 17 32  1  0
 22 33  1  0
M  CHG  2  19   1  21  -1
M  END
$$$$
