
     RDKit          3D

 62 65  0  0  0  0  0  0  0  0999 V2000
    1.4777    1.0415   -3.3823 C   0  0  0  0  0  0  0  0  0  0  0  0
    1.1889   -0.0676   -2.4275 C   0  0  1  0  0  0  0  0  0  0  0  0
    2.3782   -0.2604   -1.5616 C   0  0  0  0  0  0  0  0  0  0  0  0
    3.5681    0.3832   -1.8060 C   0  0  0  0  0  0  0  0  0  0  0  0
    4.6892    0.1995   -0.9880 C   0  0  0  0  0  0  0  0  0  0  0  0
    4.6423   -0.6368    0.0976 C   0  0  0  0  0  0  0  0  0  0  0  0
    5.7977   -0.8616    0.9869 C   0  0  0  0  0  0  0  0  0  0  0  0
    7.0153   -0.2578    0.8090 C   0  0  0  0  0  0  0  0  0  0  0  0
    8.0965   -0.4808    1.6580 C   0  0  0  0  0  0  0  0  0  0  0  0
    7.9373   -1.3413    2.7179 C   0  0  0  0  0  0  0  0  0  0  0  0
    8.9565   -1.6045    3.5884 F   0  0  0  0  0  0  0  0  0  0  0  0
    6.7013   -1.9303    2.8667 C   0  0  0  0  0  0  0  0  0  0  0  0
    5.6699   -1.7055    2.0409 N   0  0  0  0  0  0  0  0  0  0  0  0
    3.4412   -1.2895    0.3484 C   0  0  0  0  0  0  0  0  0  0  0  0
    2.3422   -1.1053   -0.4591 C   0  0  0  0  0  0  0  0  0  0  0  0
   -0.0307    0.1224   -1.6808 N   0  0  0  0  0  0  0  0  0  0  0  0
   -1.1451   -0.8022   -1.7666 C   0  0  0  0  0  0  0  0  0  0  0  0
   -2.4294   -0.0237   -1.4270 C   0  0  0  0  0  0  0  0  0  0  0  0
   -2.3932    0.4663   -0.0126 C   0  0  2  0  0  0  0  0  0  0  0  0
   -2.4438   -0.5673    1.0389 C   0  0  0  0  0  0  0  0  0  0  0  0
   -3.5713   -1.4822    1.1810 C   0  0  0  0  0  0  0  0  0  0  0  0
   -3.9026   -2.3882    0.0390 C   0  0  0  0  0  0  0  0  0  0  0  0
   -4.8396   -0.8346    1.7185 C   0  0  0  0  0  0  0  0  0  0  0  0
   -3.1936   -2.3556    2.2479 O   0  0  0  0  0  0  0  0  0  0  0  0
   -3.3972    1.5588    0.2019 C   0  0  0  0  0  0  0  0  0  0  0  0
   -3.5069    2.2300    1.4022 C   0  0  0  0  0  0  0  0  0  0  0  0
   -4.4040    3.2235    1.6539 C   0  0  0  0  0  0  0  0  0  0  0  0
   -5.2642    3.5787    0.6241 C   0  0  0  0  0  0  0  0  0  0  0  0
   -5.1777    2.9193   -0.5991 C   0  0  0  0  0  0  0  0  0  0  0  0
   -4.2495    1.9222   -0.7934 C   0  0  0  0  0  0  0  0  0  0  0  0
   -1.1262    1.1078    0.1905 O   0  0  0  0  0  0  0  0  0  0  0  0
   -0.2019    1.2337   -0.8181 C   0  0  0  0  0  0  0  0  0  0  0  0
    0.4785    2.2849   -0.9882 O   0  0  0  0  0  0  0  0  0  0  0  0
    1.8823    1.9594   -2.9126 H   0  0  0  0  0  0  0  0  0  0  0  0
    2.2907    0.6768   -4.0739 H   0  0  0  0  0  0  0  0  0  0  0  0
    0.6276    1.2628   -4.0672 H   0  0  0  0  0  0  0  0  0  0  0  0
    1.0683   -1.0025   -3.0202 H   0  0  0  0  0  0  0  0  0  0  0  0
    3.6817    1.0551   -2.6401 H   0  0  0  0  0  0  0  0  0  0  0  0
    5.6170    0.7223   -1.2063 H   0  0  0  0  0  0  0  0  0  0  0  0
    7.1772    0.4191   -0.0066 H   0  0  0  0  0  0  0  0  0  0  0  0
    9.0567   -0.0099    1.5249 H   0  0  0  0  0  0  0  0  0  0  0  0
    6.6018   -2.6112    3.7185 H   0  0  0  0  0  0  0  0  0  0  0  0
    3.4037   -1.9477    1.2023 H   0  0  0  0  0  0  0  0  0  0  0  0
    1.3925   -1.6130   -0.2717 H   0  0  0  0  0  0  0  0  0  0  0  0
   -1.2929   -1.1763   -2.8024 H   0  0  0  0  0  0  0  0  0  0  0  0
   -0.9965   -1.5803   -1.0218 H   0  0  0  0  0  0  0  0  0  0  0  0
   -2.3752    0.8449   -2.1581 H   0  0  0  0  0  0  0  0  0  0  0  0
   -3.2641   -0.6523   -1.7092 H   0  0  0  0  0  0  0  0  0  0  0  0
   -2.2612   -0.0998    2.0535 H   0  0  0  0  0  0  0  0  0  0  0  0
   -1.5153   -1.2041    0.9062 H   0  0  0  0  0  0  0  0  0  0  0  0
   -4.2969   -3.3531    0.4977 H   0  0  0  0  0  0  0  0  0  0  0  0
   -3.0314   -2.7056   -0.5319 H   0  0  0  0  0  0  0  0  0  0  0  0
   -4.7709   -2.0387   -0.5613 H   0  0  0  0  0  0  0  0  0  0  0  0
   -5.6198   -1.6008    1.9143 H   0  0  0  0  0  0  0  0  0  0  0  0
   -5.2566   -0.1741    0.9310 H   0  0  0  0  0  0  0  0  0  0  0  0
   -4.6621   -0.3218    2.6778 H   0  0  0  0  0  0  0  0  0  0  0  0
   -3.2519   -1.7896    3.0585 H   0  0  0  0  0  0  0  0  0  0  0  0
   -2.8227    1.9371    2.1986 H   0  0  0  0  0  0  0  0  0  0  0  0
   -4.4129    3.6884    2.6237 H   0  0  0  0  0  0  0  0  0  0  0  0
   -5.9726    4.3609    0.8178 H   0  0  0  0  0  0  0  0  0  0  0  0
   -5.8757    3.2361   -1.3742 H   0  0  0  0  0  0  0  0  0  0  0  0
   -4.2248    1.4413   -1.7487 H   0  0  0  0  0  0  0  0  0  0  0  0
  1  2  1  0
  2  3  1  0
  3  4  2  0
  4  5  1  0
  5  6  2  0
  6  7  1  0
  7  8  2  0
  8  9  1  0
  9 10  2  0
 10 11  1  0
 10 12  1  0
 12 13  2  0
  6 14  1  0
 14 15  2  0
  2 16  1  0
 16 17  1  0
 17 18  1  0
 18 19  1  0
 19 20  1  1
 20 21  1  0
 21 22  1  0
 21 23  1  0
 21 24  1  0
 19 25  1  0
 25 26  2  0
 26 27  1  0
 27 28  2  0
 28 29  1  0
 29 30  2  0
 19 31  1  0
 31 32  1  0
 32 33  2  0
 15  3  1  0
 32 16  1  0
 13  7  1  0
 30 25  1  0
  1 34  1  0
  1 35  1  0
  1 36  1  0
  2 37  1  6
  4 38  1  0
  5 39  1  0
  8 40  1  0
  9 41  1  0
 12 42  1  0
 14 43  1  0
 15 44  1  0
 17 45  1  0
 17 46  1  0
 18 47  1  0
 18 48  1  0
 20 49  1  0
 20 50  1  0
 22 51  1  0
 22 52  1  0
 22 53  1  0
 23 54  1  0
 23 55  1  0
 23 56  1  0
 24 57  1  0
 26 58  1  0
 27 59  1  0
 28 60  1  0
 29 61  1  0
 30 62  1  0
M  END
$$$$
