
     RDKit          3D

 33 33  0  0  0  0  0  0  0  0999 V2000
    2.9329    1.4900   -0.6355 C   0  0  0  0  0  0  0  0  0  0  0  0
    3.1250    0.2700    0.1940 C   0  0  0  0  0  0  0  0  0  0  0  0
    4.5983   -0.1275    0.1125 C   0  0  0  0  0  0  0  0  0  0  0  0
    2.3292   -0.9176   -0.2647 C   0  0  0  0  0  0  0  0  0  0  0  0
    0.8732   -0.6866   -0.2614 C   0  0  0  0  0  0  0  0  0  0  0  0
    0.2130   -0.1869   -1.3597 C   0  0  0  0  0  0  0  0  0  0  0  0
   -1.1453    0.0400   -1.3885 C   0  0  0  0  0  0  0  0  0  0  0  0
   -1.9036   -0.2374   -0.2792 C   0  0  0  0  0  0  0  0  0  0  0  0
   -3.3783    0.0002   -0.2863 C   0  0  1  0  0  0  0  0  0  0  0  0
   -4.1584   -1.2747   -0.0791 C   0  0  0  0  0  0  0  0  0  0  0  0
   -3.7615    1.0448    0.7048 C   0  0  0  0  0  0  0  0  0  0  0  0
   -4.5411    0.8440    1.6552 O   0  0  0  0  0  0  0  0  0  0  0  0
   -3.2095    2.3071    0.5451 O   0  0  0  0  0  0  0  0  0  0  0  0
   -1.2760   -0.7388    0.8381 C   0  0  0  0  0  0  0  0  0  0  0  0
    0.1047   -0.9623    0.8476 C   0  0  0  0  0  0  0  0  0  0  0  0
    3.0194    1.2607   -1.7159 H   0  0  0  0  0  0  0  0  0  0  0  0
    2.0137    2.0589   -0.3849 H   0  0  0  0  0  0  0  0  0  0  0  0
    3.7863    2.1918   -0.4109 H   0  0  0  0  0  0  0  0  0  0  0  0
    2.9136    0.4830    1.2571 H   0  0  0  0  0  0  0  0  0  0  0  0
    5.2709    0.7058    0.3139 H   0  0  0  0  0  0  0  0  0  0  0  0
    4.7805   -0.5350   -0.9206 H   0  0  0  0  0  0  0  0  0  0  0  0
    4.7309   -0.9777    0.8311 H   0  0  0  0  0  0  0  0  0  0  0  0
    2.6284   -1.2721   -1.2709 H   0  0  0  0  0  0  0  0  0  0  0  0
    2.6039   -1.7643    0.4304 H   0  0  0  0  0  0  0  0  0  0  0  0
    0.8103    0.0413   -2.2602 H   0  0  0  0  0  0  0  0  0  0  0  0
   -1.6130    0.4404   -2.2956 H   0  0  0  0  0  0  0  0  0  0  0  0
   -3.6514    0.4008   -1.2815 H   0  0  0  0  0  0  0  0  0  0  0  0
   -3.9844   -1.7197    0.9166 H   0  0  0  0  0  0  0  0  0  0  0  0
   -3.8303   -1.9911   -0.8553 H   0  0  0  0  0  0  0  0  0  0  0  0
   -5.2209   -1.0368   -0.2323 H   0  0  0  0  0  0  0  0  0  0  0  0
   -3.6907    3.1556    0.8539 H   0  0  0  0  0  0  0  0  0  0  0  0
   -1.8928   -0.9512    1.7036 H   0  0  0  0  0  0  0  0  0  0  0  0
    0.5226   -1.3549    1.7550 H   0  0  0  0  0  0  0  0  0  0  0  0
  1  2  1  0
  2  3  1  0
  2  4  1  0
  4  5  1  0
  5  6  2  0
  6  7  1  0
  7  8  2  0
  8  9  1  0
  9 10  1  0
  9 11  1  0
 11 12  2  0
 11 13  1  0
  8 14  1  0
 14 15  2  0
 15  5  1  0
  1 16  1  0
  1 17  1  0
  1 18  1  0
  2 19  1  0
  3 20  1  0
  3 21  1  0
  3 22  1  0
  4 23  1  0
  4 24  1  0
  6 25  1  0
  7 26  1  0
  9 27  1  6
 10 28  1  0
 10 29  1  0
 10 30  1  0
 13 31  1  0
 14 32  1  0
 15 33  1  0
M  END
$$$$
