
     RDKit          3D

 48 51  0  0  0  0  0  0  0  0999 V2000
   -7.0306   -1.1880    0.0430 N   0  0  0  0  0  0  0  0  0  0  0  0
   -5.7087   -0.6049   -0.1577 C   0  0  0  0  0  0  0  0  0  0  0  0
   -5.5880    0.5987    0.6834 C   0  0  0  0  0  0  0  0  0  0  0  0
   -4.2734    0.8070    1.3517 C   0  0  0  0  0  0  0  0  0  0  0  0
   -3.2077    0.3739    0.3667 C   0  0  0  0  0  0  0  0  0  0  0  0
   -1.8956    0.7606    0.8315 N   0  0  0  0  0  0  0  0  0  0  0  0
   -0.8452    0.3802   -0.0545 C   0  0  1  0  0  0  0  0  0  0  0  0
   -0.7545    0.8465   -1.4525 C   0  0  0  0  0  0  0  0  0  0  0  0
    0.1706    1.4607   -0.4705 C   0  0  2  0  0  0  0  0  0  0  0  0
    1.5866    1.0805   -0.4006 C   0  0  0  0  0  0  0  0  0  0  0  0
    1.9498   -0.2009   -0.7669 C   0  0  0  0  0  0  0  0  0  0  0  0
    3.2650   -0.6295   -0.7265 C   0  0  0  0  0  0  0  0  0  0  0  0
    4.2404    0.2392   -0.3116 C   0  0  0  0  0  0  0  0  0  0  0  0
    5.6182   -0.2170   -0.2715 C   0  0  0  0  0  0  0  0  0  0  0  0
    6.5206    0.2795    0.6623 C   0  0  0  0  0  0  0  0  0  0  0  0
    7.8073   -0.2119    0.6252 C   0  0  0  0  0  0  0  0  0  0  0  0
    8.2056   -1.1609   -0.2957 C   0  0  0  0  0  0  0  0  0  0  0  0
    7.3158   -1.6301   -1.1933 N   0  0  0  0  0  0  0  0  0  0  0  0
    6.0423   -1.1602   -1.1753 C   0  0  0  0  0  0  0  0  0  0  0  0
    3.9160    1.5218    0.0604 C   0  0  0  0  0  0  0  0  0  0  0  0
    2.5867    1.9358    0.0134 C   0  0  0  0  0  0  0  0  0  0  0  0
   -3.2877   -1.1340    0.3203 C   0  0  0  0  0  0  0  0  0  0  0  0
   -4.6507   -1.6388   -0.0192 C   0  0  0  0  0  0  0  0  0  0  0  0
   -6.9537   -1.8112    0.8766 H   0  0  0  0  0  0  0  0  0  0  0  0
   -7.1968   -1.8142   -0.7827 H   0  0  0  0  0  0  0  0  0  0  0  0
   -5.7065   -0.2730   -1.2389 H   0  0  0  0  0  0  0  0  0  0  0  0
   -5.8106    1.5392    0.0978 H   0  0  0  0  0  0  0  0  0  0  0  0
   -6.3728    0.6106    1.4968 H   0  0  0  0  0  0  0  0  0  0  0  0
   -4.2143    0.1350    2.2322 H   0  0  0  0  0  0  0  0  0  0  0  0
   -4.1801    1.8755    1.6220 H   0  0  0  0  0  0  0  0  0  0  0  0
   -3.4740    0.7909   -0.6146 H   0  0  0  0  0  0  0  0  0  0  0  0
   -1.8482    1.7267    1.1933 H   0  0  0  0  0  0  0  0  0  0  0  0
   -0.4215   -0.6391    0.1627 H   0  0  0  0  0  0  0  0  0  0  0  0
   -0.2591    0.1566   -2.1876 H   0  0  0  0  0  0  0  0  0  0  0  0
   -1.4929    1.4986   -1.9174 H   0  0  0  0  0  0  0  0  0  0  0  0
   -0.0503    2.5056   -0.1606 H   0  0  0  0  0  0  0  0  0  0  0  0
    1.1968   -0.9095   -1.0994 H   0  0  0  0  0  0  0  0  0  0  0  0
    3.4847   -1.6361   -1.0231 H   0  0  0  0  0  0  0  0  0  0  0  0
    6.1874    1.0287    1.3816 H   0  0  0  0  0  0  0  0  0  0  0  0
    8.5224    0.1693    1.3513 H   0  0  0  0  0  0  0  0  0  0  0  0
    9.2357   -1.4871   -0.2486 H   0  0  0  0  0  0  0  0  0  0  0  0
    5.3421   -1.5540   -1.9097 H   0  0  0  0  0  0  0  0  0  0  0  0
    4.6884    2.2035    0.3870 H   0  0  0  0  0  0  0  0  0  0  0  0
    2.3134    2.9397    0.3018 H   0  0  0  0  0  0  0  0  0  0  0  0
   -2.9451   -1.4994    1.3103 H   0  0  0  0  0  0  0  0  0  0  0  0
   -2.5138   -1.4653   -0.4123 H   0  0  0  0  0  0  0  0  0  0  0  0
   -4.5608   -2.2413   -0.9540 H   0  0  0  0  0  0  0  0  0  0  0  0
   -4.9534   -2.3581    0.7713 H   0  0  0  0  0  0  0  0  0  0  0  0
  1  2  1  0
  2  3  1  0
  3  4  1  0
  4  5  1  0
  5  6  1  0
  6  7  1  0
  7  8  1  0
  8  9  1  0
  9 10  1  0
 10 11  2  0
 11 12  1  0
 12 13  2  0
 13 14  1  0
 14 15  2  0
 15 16  1  0
 16 17  2  0
 17 18  1  0
 18 19  2  0
 13 20  1  0
 20 21  2  0
  5 22  1  0
 22 23  1  0
 23  2  1  0
  9  7  1  0
 21 10  1  0
 19 14  1  0
  1 24  1  0
  1 25  1  0
  2 26  1  0
  3 27  1  0
  3 28  1  0
  4 29  1  0
  4 30  1  0
  5 31  1  0
  6 32  1  0
  7 33  1  6
  8 34  1  0
  8 35  1  0
  9 36  1  1
 11 37  1  0
 12 38  1  0
 15 39  1  0
 16 40  1  0
 17 41  1  0
 19 42  1  0
 20 43  1  0
 21 44  1  0
 22 45  1  0
 22 46  1  0
 23 47  1  0
 23 48  1  0
M  END
$$$$
