
     RDKit          3D

 51 52  0  0  0  0  0  0  0  0999 V2000
    6.5538   -0.1192    0.3423 N   0  0  0  0  0  0  0  0  0  0  0  0
    7.2018    1.0121   -0.3132 C   0  0  0  0  0  0  0  0  0  0  0  0
    5.1514   -0.3570    0.3966 C   0  0  0  0  0  0  0  0  0  0  0  0
    4.6405   -1.4432    1.0340 C   0  0  0  0  0  0  0  0  0  0  0  0
    5.8434   -2.6618    1.8673 Br  0  0  0  0  0  0  0  0  0  0  0  0
    3.2950   -1.6784    1.0912 C   0  0  0  0  0  0  0  0  0  0  0  0
    2.3649   -0.8410    0.5139 C   0  0  0  0  0  0  0  0  0  0  0  0
    0.9644   -1.1840    0.6378 C   0  0  0  0  0  0  0  0  0  0  0  0
    0.6309   -2.2338    1.2619 O   0  0  0  0  0  0  0  0  0  0  0  0
   -0.1742   -0.5155    0.1570 N   0  0  0  0  0  0  0  0  0  0  0  0
   -1.5406   -0.8824    0.2961 C   0  0  2  0  0  0  0  0  0  0  0  0
   -2.2791   -1.0651   -0.9848 C   0  0  0  0  0  0  0  0  0  0  0  0
   -3.4772   -1.8188   -0.7369 N   0  0  0  0  0  0  0  0  0  0  0  0
   -3.3228   -3.0313   -0.0180 C   0  0  0  0  0  0  0  0  0  0  0  0
   -4.6609   -1.0699   -0.5110 C   0  0  0  0  0  0  0  0  0  0  0  0
   -4.5495   -0.2041    0.7272 C   0  0  0  0  0  0  0  0  0  0  0  0
   -3.4169    0.6139    0.5807 N   0  0  0  0  0  0  0  0  0  0  0  0
   -3.5297    1.8905    0.0167 C   0  0  0  0  0  0  0  0  0  0  0  0
   -4.2663    2.9281    0.7958 C   0  0  0  0  0  0  0  0  0  0  0  0
   -2.1949    0.2077    1.1581 C   0  0  0  0  0  0  0  0  0  0  0  0
    2.9096    0.2466   -0.1226 C   0  0  0  0  0  0  0  0  0  0  0  0
    2.0589    1.1340   -0.7266 O   0  0  0  0  0  0  0  0  0  0  0  0
    2.4885    2.2802   -1.4062 C   0  0  0  0  0  0  0  0  0  0  0  0
    4.2605    0.4999   -0.1909 C   0  0  0  0  0  0  0  0  0  0  0  0
    7.2011   -0.8103    0.8120 H   0  0  0  0  0  0  0  0  0  0  0  0
    8.1577    1.2458    0.2239 H   0  0  0  0  0  0  0  0  0  0  0  0
    6.5117    1.8790   -0.1926 H   0  0  0  0  0  0  0  0  0  0  0  0
    7.4063    0.7554   -1.3697 H   0  0  0  0  0  0  0  0  0  0  0  0
    2.9651   -2.5647    1.6159 H   0  0  0  0  0  0  0  0  0  0  0  0
   -0.0269    0.3606   -0.3701 H   0  0  0  0  0  0  0  0  0  0  0  0
   -1.5745   -1.8346    0.8630 H   0  0  0  0  0  0  0  0  0  0  0  0
   -2.5153   -0.1247   -1.5051 H   0  0  0  0  0  0  0  0  0  0  0  0
   -1.6371   -1.7405   -1.6224 H   0  0  0  0  0  0  0  0  0  0  0  0
   -3.4230   -2.8626    1.0842 H   0  0  0  0  0  0  0  0  0  0  0  0
   -2.2810   -3.4043   -0.2101 H   0  0  0  0  0  0  0  0  0  0  0  0
   -4.0426   -3.8263   -0.3143 H   0  0  0  0  0  0  0  0  0  0  0  0
   -4.8876   -0.3775   -1.3645 H   0  0  0  0  0  0  0  0  0  0  0  0
   -5.5369   -1.7494   -0.4572 H   0  0  0  0  0  0  0  0  0  0  0  0
   -5.5065    0.3292    0.9020 H   0  0  0  0  0  0  0  0  0  0  0  0
   -4.3733   -0.9052    1.5927 H   0  0  0  0  0  0  0  0  0  0  0  0
   -2.4862    2.2851   -0.1446 H   0  0  0  0  0  0  0  0  0  0  0  0
   -3.9258    1.7987   -1.0361 H   0  0  0  0  0  0  0  0  0  0  0  0
   -5.0532    2.5558    1.4642 H   0  0  0  0  0  0  0  0  0  0  0  0
   -4.7934    3.5755    0.0396 H   0  0  0  0  0  0  0  0  0  0  0  0
   -3.5631    3.6427    1.3037 H   0  0  0  0  0  0  0  0  0  0  0  0
   -1.5273    1.0666    1.3096 H   0  0  0  0  0  0  0  0  0  0  0  0
   -2.3810   -0.2046    2.1879 H   0  0  0  0  0  0  0  0  0  0  0  0
    1.6094    2.7773   -1.8742 H   0  0  0  0  0  0  0  0  0  0  0  0
    3.2188    2.0282   -2.2027 H   0  0  0  0  0  0  0  0  0  0  0  0
    2.9042    3.0101   -0.6723 H   0  0  0  0  0  0  0  0  0  0  0  0
    4.6088    1.3872   -0.7163 H   0  0  0  0  0  0  0  0  0  0  0  0
  1  2  1  0
  1  3  1  0
  3  4  2  0
  4  5  1  0
  4  6  1  0
  6  7  2  0
  7  8  1  0
  8  9  2  0
  8 10  1  0
 10 11  1  0
 11 12  1  0
 12 13  1  0
 13 14  1  0
 13 15  1  0
 15 16  1  0
 16 17  1  0
 17 18  1  0
 18 19  1  0
 17 20  1  0
  7 21  1  0
 21 22  1  0
 22 23  1  0
 21 24  2  0
 24  3  1  0
 20 11  1  0
  1 25  1  0
  2 26  1  0
  2 27  1  0
  2 28  1  0
  6 29  1  0
 10 30  1  0
 11 31  1  1
 12 32  1  0
 12 33  1  0
 14 34  1  0
 14 35  1  0
 14 36  1  0
 15 37  1  0
 15 38  1  0
 16 39  1  0
 16 40  1  0
 18 41  1  0
 18 42  1  0
 19 43  1  0
 19 44  1  0
 19 45  1  0
 20 46  1  0
 20 47  1  0
 23 48  1  0
 23 49  1  0
 23 50  1  0
 24 51  1  0
M  END
$$$$
