
     RDKit          3D

 52 57  0  0  0  0  0  0  0  0999 V2000
    3.8573    1.2620   -3.3739 C   0  0  0  0  0  0  0  0  0  0  0  0
    3.3367    0.7460   -2.0724 C   0  0  0  0  0  0  0  0  0  0  0  0
    2.0722    0.2571   -1.9264 C   0  0  0  0  0  0  0  0  0  0  0  0
    1.5720   -0.2287   -0.7155 C   0  0  0  0  0  0  0  0  0  0  0  0
    0.2443   -0.7247   -0.6466 N   0  0  0  0  0  0  0  0  0  0  0  0
   -0.1053   -2.0703   -0.8551 C   0  0  0  0  0  0  0  0  0  0  0  0
    0.6307   -3.0696   -1.0800 O   0  0  0  0  0  0  0  0  0  0  0  0
   -1.5617   -2.1360   -0.7639 C   0  0  0  0  0  0  0  0  0  0  0  0
   -2.0602   -0.8878   -0.5095 C   0  0  0  0  0  0  0  0  0  0  0  0
   -3.4589   -1.0054   -0.4544 C   0  0  0  0  0  0  0  0  0  0  0  0
   -4.3958    0.1221   -0.2153 C   0  0  0  0  0  0  0  0  0  0  0  0
   -5.1144    0.7719   -1.3380 C   0  0  0  0  0  0  0  0  0  0  0  0
   -4.0554    1.5098   -0.5630 C   0  0  0  0  0  0  0  0  0  0  0  0
   -3.7163   -2.2907   -0.6721 N   0  0  0  0  0  0  0  0  0  0  0  0
   -2.6254   -2.9881   -0.8584 N   0  0  0  0  0  0  0  0  0  0  0  0
   -2.4940   -4.4271   -1.1252 C   0  0  0  0  0  0  0  0  0  0  0  0
   -0.9258    0.0464   -0.3743 C   0  0  0  0  0  0  0  0  0  0  0  0
   -0.8914    0.6688    0.9775 C   0  0  0  0  0  0  0  0  0  0  0  0
   -0.6168   -0.0475    2.1190 C   0  0  0  0  0  0  0  0  0  0  0  0
   -0.5909    0.5994    3.3558 C   0  0  0  0  0  0  0  0  0  0  0  0
   -0.8404    1.9555    3.4338 C   0  0  0  0  0  0  0  0  0  0  0  0
   -0.8095    2.7706    4.9796 Cl  0  0  0  0  0  0  0  0  0  0  0  0
   -1.1143    2.6699    2.2939 C   0  0  0  0  0  0  0  0  0  0  0  0
   -1.1342    2.0118    1.0883 C   0  0  0  0  0  0  0  0  0  0  0  0
    2.4287   -0.1954    0.3605 C   0  0  0  0  0  0  0  0  0  0  0  0
    3.6961    0.2912    0.2280 N   0  0  0  0  0  0  0  0  0  0  0  0
    4.7105    0.4331    1.0983 C   0  0  0  0  0  0  0  0  0  0  0  0
    4.6388    0.0399    2.5483 C   0  0  0  0  0  0  0  0  0  0  0  0
    5.7872    0.9712    0.4942 N   0  0  0  0  0  0  0  0  0  0  0  0
    5.4308    1.1634   -0.7667 N   0  0  0  0  0  0  0  0  0  0  0  0
    4.1469    0.7517   -0.9527 C   0  0  0  0  0  0  0  0  0  0  0  0
    3.5866    2.3205   -3.5112 H   0  0  0  0  0  0  0  0  0  0  0  0
    3.3585    0.6469   -4.1611 H   0  0  0  0  0  0  0  0  0  0  0  0
    4.9342    1.0634   -3.4625 H   0  0  0  0  0  0  0  0  0  0  0  0
    1.4058    0.2317   -2.7657 H   0  0  0  0  0  0  0  0  0  0  0  0
   -4.9943   -0.0213    0.7216 H   0  0  0  0  0  0  0  0  0  0  0  0
   -6.1660    1.1265   -1.1483 H   0  0  0  0  0  0  0  0  0  0  0  0
   -4.8592    0.4709   -2.3627 H   0  0  0  0  0  0  0  0  0  0  0  0
   -4.3776    2.3191    0.1504 H   0  0  0  0  0  0  0  0  0  0  0  0
   -3.1464    1.8068   -1.1244 H   0  0  0  0  0  0  0  0  0  0  0  0
   -1.5118   -4.8058   -0.8381 H   0  0  0  0  0  0  0  0  0  0  0  0
   -3.3479   -4.9890   -0.6919 H   0  0  0  0  0  0  0  0  0  0  0  0
   -2.5732   -4.5260   -2.2361 H   0  0  0  0  0  0  0  0  0  0  0  0
   -0.9581    0.8538   -1.1568 H   0  0  0  0  0  0  0  0  0  0  0  0
   -0.4263   -1.1082    2.0194 H   0  0  0  0  0  0  0  0  0  0  0  0
   -0.3716    0.0059    4.2338 H   0  0  0  0  0  0  0  0  0  0  0  0
   -1.3085    3.7270    2.3568 H   0  0  0  0  0  0  0  0  0  0  0  0
   -1.3443    2.5795    0.2013 H   0  0  0  0  0  0  0  0  0  0  0  0
    2.1021   -0.5595    1.3257 H   0  0  0  0  0  0  0  0  0  0  0  0
    5.6707   -0.1435    2.9512 H   0  0  0  0  0  0  0  0  0  0  0  0
    4.0451   -0.8790    2.6771 H   0  0  0  0  0  0  0  0  0  0  0  0
    4.2408    0.9096    3.1078 H   0  0  0  0  0  0  0  0  0  0  0  0
  1  2  1  0
  2  3  2  0
  3  4  1  0
  4  5  1  0
  5  6  1  0
  6  7  2  0
  6  8  1  0
  8  9  2  0
  9 10  1  0
 10 11  1  0
 11 12  1  0
 12 13  1  0
 10 14  2  0
 14 15  1  0
 15 16  1  0
  9 17  1  0
 17 18  1  0
 18 19  2  0
 19 20  1  0
 20 21  2  0
 21 22  1  0
 21 23  1  0
 23 24  2  0
  4 25  2  0
 25 26  1  0
 26 27  1  0
 27 28  1  0
 27 29  2  0
 29 30  1  0
 30 31  2  0
 31  2  1  0
 17  5  1  0
 24 18  1  0
 31 26  1  0
 15  8  1  0
 13 11  1  0
  1 32  1  0
  1 33  1  0
  1 34  1  0
  3 35  1  0
 11 36  1  0
 12 37  1  0
 12 38  1  0
 13 39  1  0
 13 40  1  0
 16 41  1  0
 16 42  1  0
 16 43  1  0
 17 44  1  0
 19 45  1  0
 20 46  1  0
 23 47  1  0
 24 48  1  0
 25 49  1  0
 28 50  1  0
 28 51  1  0
 28 52  1  0
M  END
$$$$
