
     RDKit          3D

 52 54  0  0  0  0  0  0  0  0999 V2000
   10.2948    0.5528   -0.3050 N   0  0  0  0  0  0  0  0  0  0  0  0
    9.0395    0.3539   -0.5267 C   0  0  0  0  0  0  0  0  0  0  0  0
    7.7026    0.1646   -0.7715 C   0  0  0  0  0  0  0  0  0  0  0  0
    7.2306   -0.3849   -1.9527 C   0  0  0  0  0  0  0  0  0  0  0  0
    5.8632   -0.3975   -2.2183 C   0  0  0  0  0  0  0  0  0  0  0  0
    4.9313    0.1189   -1.3502 C   0  0  0  0  0  0  0  0  0  0  0  0
    3.5591    0.2297   -1.7150 C   0  0  0  0  0  0  0  0  0  0  0  0
    3.2610    0.2707   -3.0145 O   0  0  0  0  0  0  0  0  0  0  0  0
    2.3907    0.3176   -0.9148 N   0  0  0  0  0  0  0  0  0  0  0  0
    1.1462    0.5410   -1.7208 C   0  0  0  0  0  0  0  0  0  0  0  0
    0.0977    0.9431   -0.7331 C   0  0  0  0  0  0  0  0  0  0  0  0
   -0.0333   -0.2759    0.2085 C   0  0  0  0  0  0  0  0  0  0  0  0
   -1.3857   -0.3374    0.7255 C   0  0  0  0  0  0  0  0  0  0  0  0
   -1.8813    0.7013    1.4475 C   0  0  0  0  0  0  0  0  0  0  0  0
   -3.2598    0.7397    1.8200 C   0  0  0  0  0  0  0  0  0  0  0  0
   -4.1062   -0.2373    1.4746 C   0  0  0  0  0  0  0  0  0  0  0  0
   -5.5762   -0.2212    1.6498 C   0  0  0  0  0  0  0  0  0  0  0  0
   -6.1395   -0.9989    2.3898 O   0  0  0  0  0  0  0  0  0  0  0  0
   -6.3460    0.7174    0.9308 N   0  0  0  0  0  0  0  0  0  0  0  0
   -7.7766    0.8515    0.9488 C   0  0  0  0  0  0  0  0  0  0  0  0
   -8.5038    0.1203    1.6920 N   0  0  0  0  0  0  0  0  0  0  0  0
   -8.4532    1.8200    0.1132 N   0  0  0  0  0  0  0  0  0  0  0  0
   -3.5758   -1.3090    0.7377 C   0  0  0  0  0  0  0  0  0  0  0  0
   -2.2344   -1.3693    0.3586 C   0  0  0  0  0  0  0  0  0  0  0  0
   -1.6673   -2.4713   -0.4660 C   0  0  0  0  0  0  0  0  0  0  0  0
   -2.7450   -3.3668   -0.6398 F   0  0  0  0  0  0  0  0  0  0  0  0
   -1.3667   -2.0712   -1.7459 F   0  0  0  0  0  0  0  0  0  0  0  0
   -0.6530   -3.1913    0.1081 F   0  0  0  0  0  0  0  0  0  0  0  0
    1.0575   -0.1827    1.1705 C   0  0  0  0  0  0  0  0  0  0  0  0
    2.3550    0.2495    0.5037 C   0  0  0  0  0  0  0  0  0  0  0  0
    5.4152    0.6566   -0.1590 C   0  0  0  0  0  0  0  0  0  0  0  0
    6.7533    0.6782    0.1224 C   0  0  0  0  0  0  0  0  0  0  0  0
    7.9312   -0.8042   -2.6349 H   0  0  0  0  0  0  0  0  0  0  0  0
    5.5436   -0.8227   -3.1300 H   0  0  0  0  0  0  0  0  0  0  0  0
    0.9211   -0.3530   -2.3007 H   0  0  0  0  0  0  0  0  0  0  0  0
    1.4297    1.4151   -2.3411 H   0  0  0  0  0  0  0  0  0  0  0  0
    0.4519    1.7849   -0.1068 H   0  0  0  0  0  0  0  0  0  0  0  0
   -0.8843    1.1580   -1.1784 H   0  0  0  0  0  0  0  0  0  0  0  0
    0.1574   -1.1472   -0.5179 H   0  0  0  0  0  0  0  0  0  0  0  0
   -1.2522    1.5236    1.8149 H   0  0  0  0  0  0  0  0  0  0  0  0
   -3.6282    1.5787    2.3971 H   0  0  0  0  0  0  0  0  0  0  0  0
   -5.8231    1.4211    0.3282 H   0  0  0  0  0  0  0  0  0  0  0  0
   -8.1939   -0.5635    2.3091 H   0  0  0  0  0  0  0  0  0  0  0  0
   -8.3589    2.8199    0.3047 H   0  0  0  0  0  0  0  0  0  0  0  0
   -8.9839    1.4382   -0.6697 H   0  0  0  0  0  0  0  0  0  0  0  0
   -4.2297   -2.0878    0.4505 H   0  0  0  0  0  0  0  0  0  0  0  0
    1.1626   -1.1856    1.6777 H   0  0  0  0  0  0  0  0  0  0  0  0
    0.7621    0.5342    2.0234 H   0  0  0  0  0  0  0  0  0  0  0  0
    3.1382   -0.5115    0.8200 H   0  0  0  0  0  0  0  0  0  0  0  0
    2.5659    1.2574    0.9300 H   0  0  0  0  0  0  0  0  0  0  0  0
    4.7790    1.0651    0.6091 H   0  0  0  0  0  0  0  0  0  0  0  0
    7.1177    1.0829    1.0465 H   0  0  0  0  0  0  0  0  0  0  0  0
  1  2  3  0
  2  3  1  0
  3  4  2  0
  4  5  1  0
  5  6  2  0
  6  7  1  0
  7  8  2  0
  7  9  1  0
  9 10  1  0
 10 11  1  0
 11 12  1  0
 12 13  1  0
 13 14  2  0
 14 15  1  0
 15 16  2  0
 16 17  1  0
 17 18  2  0
 17 19  1  0
 19 20  1  0
 20 21  2  3
 20 22  1  0
 16 23  1  0
 23 24  2  0
 24 25  1  0
 25 26  1  0
 25 27  1  0
 25 28  1  0
 12 29  1  0
 29 30  1  0
  6 31  1  0
 31 32  2  0
 32  3  1  0
 30  9  1  0
 24 13  1  0
  4 33  1  0
  5 34  1  0
 10 35  1  0
 10 36  1  0
 11 37  1  0
 11 38  1  0
 12 39  1  0
 14 40  1  0
 15 41  1  0
 19 42  1  0
 21 43  1  0
 22 44  1  0
 22 45  1  0
 23 46  1  0
 29 47  1  0
 29 48  1  0
 30 49  1  0
 30 50  1  0
 31 51  1  0
 32 52  1  0
M  END
$$$$
