
     RDKit          3D

 31 33  0  0  0  0  0  0  0  0999 V2000
   -4.7941    1.3809    0.0320 N   0  0  0  0  0  0  0  0  0  0  0  0
   -3.9534    0.3852   -0.5450 C   0  0  0  0  0  0  0  0  0  0  0  0
   -2.6700    0.3247   -0.0217 C   0  0  0  0  0  0  0  0  0  0  0  0
   -2.0225    1.0229    0.9437 N   0  0  0  0  0  0  0  0  0  0  0  0
   -0.7696    0.5504    1.0568 C   0  0  0  0  0  0  0  0  0  0  0  0
   -0.5881   -0.4537    0.1729 N   0  0  0  0  0  0  0  0  0  0  0  0
    0.6576   -1.2065    0.0132 C   0  0  1  0  0  0  0  0  0  0  0  0
    1.4903   -0.6737   -1.1353 C   0  0  0  0  0  0  0  0  0  0  0  0
    2.3244    0.3487   -0.3792 C   0  0  2  0  0  0  0  0  0  0  0  0
    3.4741    0.6342   -1.1026 O   0  0  0  0  0  0  0  0  0  0  0  0
    2.5740   -0.4320    0.8808 C   0  0  1  0  0  0  0  0  0  0  0  0
    3.0178    0.4194    2.0364 C   0  0  0  0  0  0  0  0  0  0  0  0
    4.1569    1.1490    1.8306 O   0  0  0  0  0  0  0  0  0  0  0  0
    1.4172   -1.1443    1.1523 O   0  0  0  0  0  0  0  0  0  0  0  0
   -1.7581   -0.5917   -0.4901 C   0  0  0  0  0  0  0  0  0  0  0  0
   -2.1213   -1.4367   -1.4677 N   0  0  0  0  0  0  0  0  0  0  0  0
   -3.3712   -1.3686   -1.9686 C   0  0  0  0  0  0  0  0  0  0  0  0
   -3.9597   -2.4149   -3.2420 Cl  0  0  0  0  0  0  0  0  0  0  0  0
   -4.2888   -0.4727   -1.5224 N   0  0  0  0  0  0  0  0  0  0  0  0
   -4.7935    2.4086    0.0522 H   0  0  0  0  0  0  0  0  0  0  0  0
   -5.5274    0.7902    0.5060 H   0  0  0  0  0  0  0  0  0  0  0  0
   -0.0883    0.9802    1.7791 H   0  0  0  0  0  0  0  0  0  0  0  0
    0.4186   -2.2840   -0.2120 H   0  0  0  0  0  0  0  0  0  0  0  0
    2.1320   -1.4946   -1.5229 H   0  0  0  0  0  0  0  0  0  0  0  0
    0.8723   -0.2048   -1.9184 H   0  0  0  0  0  0  0  0  0  0  0  0
    1.6753    1.2313   -0.2211 H   0  0  0  0  0  0  0  0  0  0  0  0
    3.3226    1.5025   -1.5617 H   0  0  0  0  0  0  0  0  0  0  0  0
    3.3747   -1.1702    0.6687 H   0  0  0  0  0  0  0  0  0  0  0  0
    3.1624   -0.2662    2.8998 H   0  0  0  0  0  0  0  0  0  0  0  0
    2.2333    1.1292    2.3691 H   0  0  0  0  0  0  0  0  0  0  0  0
    4.4025    1.3571    0.9168 H   0  0  0  0  0  0  0  0  0  0  0  0
  1  2  1  0
  2  3  2  0
  3  4  1  0
  4  5  2  0
  5  6  1  0
  6  7  1  0
  7  8  1  0
  8  9  1  0
  9 10  1  0
  9 11  1  0
 11 12  1  0
 12 13  1  0
 11 14  1  0
  6 15  1  0
 15 16  2  0
 16 17  1  0
 17 18  1  0
 17 19  2  0
 19  2  1  0
 15  3  1  0
 14  7  1  0
  1 20  1  0
  1 21  1  0
  5 22  1  0
  7 23  1  6
  8 24  1  0
  8 25  1  0
  9 26  1  1
 10 27  1  0
 11 28  1  6
 12 29  1  0
 12 30  1  0
 13 31  1  0
M  END
$$$$
