
     RDKit          3D

 37 40  0  0  0  0  0  0  0  0999 V2000
    3.0030    1.2389    1.0161 C   0  0  0  0  0  0  0  0  0  0  0  0
    3.4797    0.1449    0.1497 C   0  0  0  0  0  0  0  0  0  0  0  0
    4.8646   -0.0254   -0.0336 C   0  0  0  0  0  0  0  0  0  0  0  0
    5.3142   -1.0424   -0.8286 C   0  0  0  0  0  0  0  0  0  0  0  0
    4.4288   -1.8552   -1.4164 N   0  0  0  0  0  0  0  0  0  0  0  0
    3.0780   -1.6990   -1.2453 C   0  0  0  0  0  0  0  0  0  0  0  0
    2.5857   -0.6887   -0.4539 C   0  0  0  0  0  0  0  0  0  0  0  0
    1.1571   -0.5077   -0.2715 C   0  0  0  0  0  0  0  0  0  0  0  0
    0.3376   -1.5501    0.0468 C   0  0  0  0  0  0  0  0  0  0  0  0
   -1.0405   -1.4185    0.2212 C   0  0  0  0  0  0  0  0  0  0  0  0
   -1.6734   -2.5254    0.5112 F   0  0  0  0  0  0  0  0  0  0  0  0
   -1.5927   -0.1766    0.0638 C   0  0  0  0  0  0  0  0  0  0  0  0
   -0.7942    0.9138   -0.2607 C   0  0  0  0  0  0  0  0  0  0  0  0
    0.5629    0.7184   -0.4203 C   0  0  0  0  0  0  0  0  0  0  0  0
   -1.3086    2.2932   -0.4369 C   0  0  0  0  0  0  0  0  0  0  0  0
   -2.7618    2.4641   -0.3486 C   0  0  0  0  0  0  0  0  0  0  0  0
   -3.4884    1.2501    0.0243 C   0  0  0  0  0  0  0  0  0  0  0  0
   -4.8366    1.1685    0.2414 N   0  0  0  0  0  0  0  0  0  0  0  0
   -5.1232   -0.0557    0.5417 N   0  0  0  0  0  0  0  0  0  0  0  0
   -3.9794   -0.8283    0.5351 C   0  0  0  0  0  0  0  0  0  0  0  0
   -4.0200   -2.2601    0.8548 C   0  0  0  0  0  0  0  0  0  0  0  0
   -3.0016    0.0107    0.2133 N   0  0  0  0  0  0  0  0  0  0  0  0
    3.7340    1.3222    1.8815 H   0  0  0  0  0  0  0  0  0  0  0  0
    2.0393    1.0752    1.4948 H   0  0  0  0  0  0  0  0  0  0  0  0
    3.1090    2.2487    0.5218 H   0  0  0  0  0  0  0  0  0  0  0  0
    5.5528    0.6559    0.4611 H   0  0  0  0  0  0  0  0  0  0  0  0
    6.3861   -1.2159   -1.0024 H   0  0  0  0  0  0  0  0  0  0  0  0
    2.4311   -2.4060   -1.7612 H   0  0  0  0  0  0  0  0  0  0  0  0
    0.7776   -2.5411    0.1730 H   0  0  0  0  0  0  0  0  0  0  0  0
    1.1601    1.5885   -0.6769 H   0  0  0  0  0  0  0  0  0  0  0  0
   -0.8736    2.7294   -1.3728 H   0  0  0  0  0  0  0  0  0  0  0  0
   -0.8201    2.8757    0.4106 H   0  0  0  0  0  0  0  0  0  0  0  0
   -2.9889    3.2857    0.3984 H   0  0  0  0  0  0  0  0  0  0  0  0
   -3.1255    2.8093   -1.3671 H   0  0  0  0  0  0  0  0  0  0  0  0
   -5.1243   -2.5028    1.1446 H   0  0  0  0  0  0  0  0  0  0  0  0
   -3.5533   -2.5358    1.8395 H   0  0  0  0  0  0  0  0  0  0  0  0
   -3.8954   -2.9586    0.0267 H   0  0  0  0  0  0  0  0  0  0  0  0
  1  2  1  0
  2  3  2  0
  3  4  1  0
  4  5  2  0
  5  6  1  0
  6  7  2  0
  7  8  1  0
  8  9  2  0
  9 10  1  0
 10 11  1  0
 10 12  2  0
 12 13  1  0
 13 14  2  0
 13 15  1  0
 15 16  1  0
 16 17  1  0
 17 18  2  0
 18 19  1  0
 19 20  2  0
 20 21  1  0
 20 22  1  0
  7  2  1  0
 14  8  1  0
 22 17  1  0
 22 12  1  0
  1 23  1  0
  1 24  1  0
  1 25  1  0
  3 26  1  0
  4 27  1  0
  6 28  1  0
  9 29  1  0
 14 30  1  0
 15 31  1  0
 15 32  1  0
 16 33  1  0
 16 34  1  0
 21 35  1  0
 21 36  1  0
 21 37  1  0
M  END
$$$$
