
     RDKit          3D

106107  0  0  0  0  0  0  0  0999 V2000
    4.9256   -1.9870    6.6301 O   0  0  0  0  0  0  0  0  0  0  0  0
    4.0467   -1.4817    5.0999 Al  0  0  0  0  0  3  0  0  0  0  0  0
    5.0754   -0.7483    3.7471 O   0  0  0  0  0  0  0  0  0  0  0  0
    2.4383   -2.2286    4.6097 O   0  0  0  0  0  0  0  0  0  0  0  0
    1.1294   -1.3412    5.1278 S   0  0  0  0  0  0  0  0  0  0  0  0
    0.3594   -2.1976    6.1146 O   0  0  0  0  0  0  0  0  0  0  0  0
    1.6263   -0.1471    5.8859 O   0  0  0  0  0  0  0  0  0  0  0  0
    0.1149   -0.8908    3.8576 O   0  0  0  0  0  0  0  0  0  0  0  0
    0.0753   -1.9694    2.9695 C   0  0  0  0  0  0  0  0  0  0  0  0
   -0.8287   -1.6519    1.7744 C   0  0  1  0  0  0  0  0  0  0  0  0
   -0.4180   -0.5743    1.0681 O   0  0  0  0  0  0  0  0  0  0  0  0
   -0.0542   -0.7685   -0.2544 C   0  0  1  0  0  0  0  0  0  0  0  0
    0.8058    0.2189   -0.5656 O   0  0  0  0  0  0  0  0  0  0  0  0
    0.5744    1.1248   -1.5147 C   0  0  2  0  0  0  0  0  0  0  0  0
    0.4200    0.6657   -2.9255 C   0  0  0  0  0  0  0  0  0  0  0  0
   -0.6133   -0.2095   -3.1553 O   0  0  0  0  0  0  0  0  0  0  0  0
   -0.6377   -0.6145   -4.7840 S   0  0  0  0  0  0  0  0  0  0  0  0
    0.7367   -1.0968   -5.1772 O   0  0  0  0  0  0  0  0  0  0  0  0
   -1.6669   -1.6572   -5.0947 O   0  0  0  0  0  0  0  0  0  0  0  0
   -0.9665    0.7409   -5.7394 O   0  0  0  0  0  0  0  0  0  0  0  0
   -2.4447    0.4829   -6.7750 Al  0  0  0  0  0  3  0  0  0  0  0  0
   -3.1664   -1.1808   -6.9052 O   0  0  0  0  0  0  0  0  0  0  0  0
   -2.9088    1.7854   -7.9654 O   0  0  0  0  0  0  0  0  0  0  0  0
    1.7210    1.9599   -1.5068 O   0  0  0  0  0  0  0  0  0  0  0  0
    1.6287    2.5932   -0.2677 C   0  0  2  0  0  0  0  0  0  0  0  0
    2.1062    1.7196    0.6936 O   0  0  0  0  0  0  0  0  0  0  0  0
    3.4101    2.3627    1.5329 S   0  0  0  0  0  0  0  0  0  0  0  0
    4.6833    1.9430    0.8728 O   0  0  0  0  0  0  0  0  0  0  0  0
    3.2793    3.8648    1.6140 O   0  0  0  0  0  0  0  0  0  0  0  0
    3.4409    1.8091    3.1183 O   0  0  0  0  0  0  0  0  0  0  0  0
    2.8039    3.0901    4.2758 Al  0  0  0  0  0  3  0  0  0  0  0  0
    1.0246    3.5416    4.2066 O   0  0  0  0  0  0  0  0  0  0  0  0
    3.6997    3.3738    5.8429 O   0  0  0  0  0  0  0  0  0  0  0  0
    0.1423    2.9021   -0.0614 C   0  0  1  0  0  0  0  0  0  0  0  0
   -0.0174    4.2562   -0.1844 O   0  0  0  0  0  0  0  0  0  0  0  0
   -0.7097    5.0452    1.0798 S   0  0  0  0  0  0  0  0  0  0  0  0
   -1.4251    6.2569    0.5279 O   0  0  0  0  0  0  0  0  0  0  0  0
    0.3792    5.5999    1.9747 O   0  0  0  0  0  0  0  0  0  0  0  0
   -1.8192    4.1687    1.9517 O   0  0  0  0  0  0  0  0  0  0  0  0
   -2.7022    5.3678    3.0564 Al  0  0  0  0  0  3  0  0  0  0  0  0
   -3.1078    4.9359    4.8113 O   0  0  0  0  0  0  0  0  0  0  0  0
   -2.7825    7.1560    2.6208 O   0  0  0  0  0  0  0  0  0  0  0  0
   -0.4356    2.1936   -1.2424 C   0  0  2  0  0  0  0  0  0  0  0  0
   -1.7269    1.7655   -1.1042 O   0  0  0  0  0  0  0  0  0  0  0  0
   -2.7279    2.4386   -2.2808 S   0  0  0  0  0  0  0  0  0  0  0  0
   -3.8191    3.2201   -1.6207 O   0  0  0  0  0  0  0  0  0  0  0  0
   -1.9674    3.3686   -3.1890 O   0  0  0  0  0  0  0  0  0  0  0  0
   -3.3847    1.2484   -3.2679 O   0  0  0  0  0  0  0  0  0  0  0  0
   -4.7417    0.4439   -2.2940 Al  0  0  0  0  0  3  0  0  0  0  0  0
   -4.2568   -0.1944   -0.6303 O   0  0  0  0  0  0  0  0  0  0  0  0
   -6.5004    0.8743   -2.6595 O   0  0  0  0  0  0  0  0  0  0  0  0
    0.6245   -2.1124   -0.4311 C   0  0  2  0  0  0  0  0  0  0  0  0
    1.1445   -2.2842   -1.6868 O   0  0  0  0  0  0  0  0  0  0  0  0
    2.8088   -2.6056   -1.6121 S   0  0  0  0  0  0  0  0  0  0  0  0
    3.4168   -1.4284   -0.8789 O   0  0  0  0  0  0  0  0  0  0  0  0
    3.3685   -2.7978   -2.9723 O   0  0  0  0  0  0  0  0  0  0  0  0
    3.0084   -3.9427   -0.6302 O   0  0  0  0  0  0  0  0  0  0  0  0
    3.9272   -5.2380   -1.5264 Al  0  0  0  0  0  3  0  0  0  0  0  0
    5.0314   -4.7986   -2.9238 O   0  0  0  0  0  0  0  0  0  0  0  0
    3.3216   -6.9849   -1.4181 O   0  0  0  0  0  0  0  0  0  0  0  0
   -0.4630   -3.1436   -0.2347 C   0  0  1  0  0  0  0  0  0  0  0  0
    0.0434   -4.4381   -0.3184 O   0  0  0  0  0  0  0  0  0  0  0  0
   -0.6130   -5.2479   -1.6205 S   0  0  0  0  0  0  0  0  0  0  0  0
   -1.7225   -6.1679   -1.1911 O   0  0  0  0  0  0  0  0  0  0  0  0
    0.4510   -6.0841   -2.2468 O   0  0  0  0  0  0  0  0  0  0  0  0
   -1.1672   -4.1609   -2.7887 O   0  0  0  0  0  0  0  0  0  0  0  0
   -2.7479   -4.7585   -3.5044 Al  0  0  0  0  0  3  0  0  0  0  0  0
   -3.0508   -4.4803   -5.2821 O   0  0  0  0  0  0  0  0  0  0  0  0
   -4.1479   -5.2180   -2.4233 O   0  0  0  0  0  0  0  0  0  0  0  0
   -1.1969   -2.8824    1.0279 C   0  0  2  0  0  0  0  0  0  0  0  0
   -2.5834   -2.9982    0.8069 O   0  0  0  0  0  0  0  0  0  0  0  0
   -3.2180   -4.3124    1.6242 S   0  0  0  0  0  0  0  0  0  0  0  0
   -4.1313   -5.0880    0.6976 O   0  0  0  0  0  0  0  0  0  0  0  0
   -2.1415   -5.2789    2.0559 O   0  0  0  0  0  0  0  0  0  0  0  0
   -4.1198   -3.8400    2.9581 O   0  0  0  0  0  0  0  0  0  0  0  0
   -5.1020   -2.3493    2.6507 Al  0  0  0  0  0  3  0  0  0  0  0  0
   -6.4379   -2.3886    1.3676 O   0  0  0  0  0  0  0  0  0  0  0  0
   -5.2997   -1.1316    4.0136 O   0  0  0  0  0  0  0  0  0  0  0  0
    5.8534   -2.2468    6.4080 H   0  0  0  0  0  0  0  0  0  0  0  0
    5.4353    0.1298    4.0043 H   0  0  0  0  0  0  0  0  0  0  0  0
   -0.3365   -2.8115    3.5632 H   0  0  0  0  0  0  0  0  0  0  0  0
    1.0894   -2.2926    2.6564 H   0  0  0  0  0  0  0  0  0  0  0  0
   -1.7917   -1.3204    2.2705 H   0  0  0  0  0  0  0  0  0  0  0  0
   -0.9994   -0.8334   -0.8256 H   0  0  0  0  0  0  0  0  0  0  0  0
    1.3917    0.3154   -3.3749 H   0  0  0  0  0  0  0  0  0  0  0  0
    0.1935    1.5906   -3.5306 H   0  0  0  0  0  0  0  0  0  0  0  0
   -4.0067   -1.2896   -6.3917 H   0  0  0  0  0  0  0  0  0  0  0  0
   -3.0784    2.6671   -7.5444 H   0  0  0  0  0  0  0  0  0  0  0  0
    2.2336    3.5354   -0.2590 H   0  0  0  0  0  0  0  0  0  0  0  0
    0.4732    2.8659    4.6444 H   0  0  0  0  0  0  0  0  0  0  0  0
    3.1793    3.0850    6.6272 H   0  0  0  0  0  0  0  0  0  0  0  0
   -0.2193    2.4780    0.8941 H   0  0  0  0  0  0  0  0  0  0  0  0
   -3.7189    4.1539    4.7920 H   0  0  0  0  0  0  0  0  0  0  0  0
   -2.1533    7.6992    3.1765 H   0  0  0  0  0  0  0  0  0  0  0  0
   -0.4021    2.8833   -2.1127 H   0  0  0  0  0  0  0  0  0  0  0  0
   -3.5446    0.3753   -0.2276 H   0  0  0  0  0  0  0  0  0  0  0  0
   -7.0555    0.0684   -2.7518 H   0  0  0  0  0  0  0  0  0  0  0  0
    1.4564   -2.2335    0.2878 H   0  0  0  0  0  0  0  0  0  0  0  0
    4.6337   -5.2112   -3.7397 H   0  0  0  0  0  0  0  0  0  0  0  0
    3.3160   -7.3740   -2.3283 H   0  0  0  0  0  0  0  0  0  0  0  0
   -1.1758   -3.0230   -1.0904 H   0  0  0  0  0  0  0  0  0  0  0  0
   -3.6292   -3.6777   -5.3945 H   0  0  0  0  0  0  0  0  0  0  0  0
   -4.6264   -4.4129   -2.1058 H   0  0  0  0  0  0  0  0  0  0  0  0
   -0.9680   -3.7522    1.7122 H   0  0  0  0  0  0  0  0  0  0  0  0
   -6.0573   -1.9195    0.5684 H   0  0  0  0  0  0  0  0  0  0  0  0
   -5.0550   -0.2359    3.6160 H   0  0  0  0  0  0  0  0  0  0  0  0
  1  2  1  0
  2  3  1  0
  2  4  1  0
  4  5  1  0
  5  6  2  0
  5  7  2  0
  5  8  1  0
  8  9  1  0
  9 10  1  0
 10 11  1  0
 11 12  1  0
 12 13  1  0
 14 13  1  1
 14 15  1  0
 15 16  1  0
 16 17  1  0
 17 18  2  0
 17 19  2  0
 17 20  1  0
 20 21  1  0
 21 22  1  0
 21 23  1  0
 14 24  1  0
 24 25  1  0
 25 26  1  0
 26 27  1  0
 27 28  2  0
 27 29  2  0
 27 30  1  0
 30 31  1  0
 31 32  1  0
 31 33  1  0
 25 34  1  0
 34 35  1  0
 35 36  1  0
 36 37  2  0
 36 38  2  0
 36 39  1  0
 39 40  1  0
 40 41  1  0
 40 42  1  0
 34 43  1  0
 43 44  1  0
 44 45  1  0
 45 46  2  0
 45 47  2  0
 45 48  1  0
 48 49  1  0
 49 50  1  0
 49 51  1  0
 12 52  1  0
 52 53  1  0
 53 54  1  0
 54 55  2  0
 54 56  2  0
 54 57  1  0
 57 58  1  0
 58 59  1  0
 58 60  1  0
 52 61  1  0
 61 62  1  0
 62 63  1  0
 63 64  2  0
 63 65  2  0
 63 66  1  0
 66 67  1  0
 67 68  1  0
 67 69  1  0
 61 70  1  0
 70 71  1  0
 71 72  1  0
 72 73  2  0
 72 74  2  0
 72 75  1  0
 75 76  1  0
 76 77  1  0
 76 78  1  0
 70 10  1  0
 43 14  1  0
  1 79  1  0
  3 80  1  0
  9 81  1  0
  9 82  1  0
 10 83  1  1
 12 84  1  6
 15 85  1  0
 15 86  1  0
 22 87  1  0
 23 88  1  0
 25 89  1  6
 32 90  1  0
 33 91  1  0
 34 92  1  1
 41 93  1  0
 42 94  1  0
 43 95  1  6
 50 96  1  0
 51 97  1  0
 52 98  1  1
 59 99  1  0
 60100  1  0
 61101  1  6
 68102  1  0
 69103  1  0
 70104  1  1
 77105  1  0
 78106  1  0
M  END
$$$$
