
     RDKit          3D

 51 53  0  0  0  0  0  0  0  0999 V2000
    2.7728    0.8895    0.1309 O   0  0  0  0  0  0  0  0  0  0  0  0
    1.5450    1.0664    0.4514 C   0  0  0  0  0  0  0  0  0  0  0  0
    1.1673    2.2855    1.0414 N   0  0  0  0  0  0  0  0  0  0  0  0
    2.1395    3.2326    1.2467 O   0  0  0  0  0  0  0  0  0  0  0  0
    1.5461    4.3641    1.8330 C   0  0  0  0  0  0  0  0  0  0  0  0
    2.5640    5.4356    2.1093 C   0  0  0  0  0  0  0  0  0  0  0  0
    3.2065    5.8673    0.9560 O   0  0  0  0  0  0  0  0  0  0  0  0
    0.6294   -0.0400    0.1675 C   0  0  0  0  0  0  0  0  0  0  0  0
   -0.7350    0.1174    0.4114 C   0  0  0  0  0  0  0  0  0  0  0  0
   -1.6640   -0.8742    0.1306 C   0  0  0  0  0  0  0  0  0  0  0  0
   -3.1178   -0.7194    0.3829 C   0  0  0  0  0  0  0  0  0  0  0  0
   -3.8822   -0.4677   -0.7936 N   0  0  0  0  0  0  0  0  0  0  0  0
   -4.3813   -1.5167   -1.4819 O   0  0  0  0  0  0  0  0  0  0  0  0
   -4.7538   -1.1500   -2.7778 C   0  0  0  0  0  0  0  0  0  0  0  0
   -5.8289   -0.0938   -2.6334 C   0  0  0  0  0  0  0  0  0  0  0  0
   -5.0970    1.2080   -2.2877 C   0  0  0  0  0  0  0  0  0  0  0  0
   -4.1018    0.8691   -1.2147 C   0  0  0  0  0  0  0  0  0  0  0  0
   -3.4785    1.8389   -0.7155 O   0  0  0  0  0  0  0  0  0  0  0  0
   -1.1864   -2.0482   -0.4100 C   0  0  0  0  0  0  0  0  0  0  0  0
   -2.0677   -3.0245   -0.6919 F   0  0  0  0  0  0  0  0  0  0  0  0
    0.1719   -2.2038   -0.6516 C   0  0  0  0  0  0  0  0  0  0  0  0
    0.6480   -3.3556   -1.1835 F   0  0  0  0  0  0  0  0  0  0  0  0
    1.0956   -1.2181   -0.3716 C   0  0  0  0  0  0  0  0  0  0  0  0
    2.4980   -1.4334   -0.6027 N   0  0  0  0  0  0  0  0  0  0  0  0
    3.2976   -2.2972    0.1528 C   0  0  0  0  0  0  0  0  0  0  0  0
    3.9455   -3.3200   -0.5192 C   0  0  0  0  0  0  0  0  0  0  0  0
    4.7493   -4.2324    0.1267 C   0  0  0  0  0  0  0  0  0  0  0  0
    4.9155   -4.1208    1.5072 C   0  0  0  0  0  0  0  0  0  0  0  0
    6.1504   -5.5163    2.5231 I   0  0  0  0  0  0  0  0  0  0  0  0
    4.2753   -3.1122    2.1642 C   0  0  0  0  0  0  0  0  0  0  0  0
    3.4585   -2.1856    1.5068 C   0  0  0  0  0  0  0  0  0  0  0  0
    2.8539   -1.2222    2.2456 F   0  0  0  0  0  0  0  0  0  0  0  0
    0.1872    2.4438    1.3045 H   0  0  0  0  0  0  0  0  0  0  0  0
    0.7281    4.7397    1.1960 H   0  0  0  0  0  0  0  0  0  0  0  0
    1.1042    4.0507    2.7936 H   0  0  0  0  0  0  0  0  0  0  0  0
    2.0031    6.3180    2.5323 H   0  0  0  0  0  0  0  0  0  0  0  0
    3.2573    5.1223    2.9093 H   0  0  0  0  0  0  0  0  0  0  0  0
    2.9969    6.8285    0.7577 H   0  0  0  0  0  0  0  0  0  0  0  0
   -1.1426    1.0262    0.8344 H   0  0  0  0  0  0  0  0  0  0  0  0
   -3.5160   -1.6350    0.9105 H   0  0  0  0  0  0  0  0  0  0  0  0
   -3.2051    0.0939    1.1563 H   0  0  0  0  0  0  0  0  0  0  0  0
   -5.1445   -2.0446   -3.2688 H   0  0  0  0  0  0  0  0  0  0  0  0
   -3.8633   -0.7102   -3.3039 H   0  0  0  0  0  0  0  0  0  0  0  0
   -6.4882   -0.3419   -1.7803 H   0  0  0  0  0  0  0  0  0  0  0  0
   -6.4310    0.0380   -3.5516 H   0  0  0  0  0  0  0  0  0  0  0  0
   -4.5411    1.4941   -3.2014 H   0  0  0  0  0  0  0  0  0  0  0  0
   -5.7971    1.9890   -1.9605 H   0  0  0  0  0  0  0  0  0  0  0  0
    2.9911   -0.9175   -1.3929 H   0  0  0  0  0  0  0  0  0  0  0  0
    3.8512   -3.4559   -1.6042 H   0  0  0  0  0  0  0  0  0  0  0  0
    5.2738   -5.0449   -0.3526 H   0  0  0  0  0  0  0  0  0  0  0  0
    4.4001   -3.0169    3.2492 H   0  0  0  0  0  0  0  0  0  0  0  0
  1  2  2  0
  2  3  1  0
  3  4  1  0
  4  5  1  0
  5  6  1  0
  6  7  1  0
  2  8  1  0
  8  9  2  0
  9 10  1  0
 10 11  1  0
 11 12  1  0
 12 13  1  0
 13 14  1  0
 14 15  1  0
 15 16  1  0
 16 17  1  0
 17 18  2  0
 10 19  2  0
 19 20  1  0
 19 21  1  0
 21 22  1  0
 21 23  2  0
 23 24  1  0
 24 25  1  0
 25 26  2  0
 26 27  1  0
 27 28  2  0
 28 29  1  0
 28 30  1  0
 30 31  2  0
 31 32  1  0
 23  8  1  0
 31 25  1  0
 17 12  1  0
  3 33  1  0
  5 34  1  0
  5 35  1  0
  6 36  1  0
  6 37  1  0
  7 38  1  0
  9 39  1  0
 11 40  1  0
 11 41  1  0
 14 42  1  0
 14 43  1  0
 15 44  1  0
 15 45  1  0
 16 46  1  0
 16 47  1  0
 24 48  1  0
 26 49  1  0
 27 50  1  0
 30 51  1  0
M  END
$$$$
