
     RDKit          3D

 56 61  0  0  0  0  0  0  0  0999 V2000
   -3.4115    2.1601    2.3128 C   0  0  0  0  0  0  0  0  0  0  0  0
   -3.6439    1.9431    0.8351 C   0  0  0  0  0  0  0  0  0  0  0  0
   -3.1786    0.5650    0.4868 C   0  0  0  0  0  0  0  0  0  0  0  0
   -3.9718   -0.4972    0.2618 N   0  0  0  0  0  0  0  0  0  0  0  0
   -3.2658   -1.5769   -0.0238 N   0  0  0  0  0  0  0  0  0  0  0  0
   -3.7843   -2.9201   -0.3267 C   0  0  0  0  0  0  0  0  0  0  0  0
   -5.1411   -3.2567    0.2860 C   0  0  0  0  0  0  0  0  0  0  0  0
   -3.8800   -3.7944    0.8977 C   0  0  0  0  0  0  0  0  0  0  0  0
   -1.9667   -1.2274    0.0112 C   0  0  0  0  0  0  0  0  0  0  0  0
   -1.8986    0.1114    0.3297 C   0  0  0  0  0  0  0  0  0  0  0  0
   -0.4848    0.5705    0.3834 C   0  0  0  0  0  0  0  0  0  0  0  0
   -0.2548    1.7189   -0.5222 C   0  0  0  0  0  0  0  0  0  0  0  0
   -0.0637    2.9988   -0.0217 C   0  0  0  0  0  0  0  0  0  0  0  0
    0.1481    4.1077   -0.8081 C   0  0  0  0  0  0  0  0  0  0  0  0
    0.1739    3.9492   -2.1762 C   0  0  0  0  0  0  0  0  0  0  0  0
    0.4459    5.3717   -3.1818 Cl  0  0  0  0  0  0  0  0  0  0  0  0
   -0.0105    2.6996   -2.7253 C   0  0  0  0  0  0  0  0  0  0  0  0
   -0.2218    1.6031   -1.8980 C   0  0  0  0  0  0  0  0  0  0  0  0
    0.3014   -0.5925    0.0836 N   0  0  0  0  0  0  0  0  0  0  0  0
    1.7094   -0.6500    0.0372 C   0  0  0  0  0  0  0  0  0  0  0  0
    2.4243   -0.9280    1.2082 C   0  0  0  0  0  0  0  0  0  0  0  0
    3.7933   -1.0005    1.2189 C   0  0  0  0  0  0  0  0  0  0  0  0
    4.4259   -1.2779    2.4053 O   0  0  0  0  0  0  0  0  0  0  0  0
    3.7383   -1.4902    3.6106 C   0  0  0  0  0  0  0  0  0  0  0  0
    4.4992   -0.7993    0.0671 C   0  0  0  0  0  0  0  0  0  0  0  0
    5.8200   -0.8169   -0.1763 N   0  0  0  0  0  0  0  0  0  0  0  0
    5.9582   -0.5581   -1.4658 N   0  0  0  0  0  0  0  0  0  0  0  0
    4.7533   -0.3785   -2.0371 C   0  0  0  0  0  0  0  0  0  0  0  0
    4.4383   -0.0727   -3.4411 C   0  0  0  0  0  0  0  0  0  0  0  0
    3.8182   -0.5297   -1.0710 N   0  0  0  0  0  0  0  0  0  0  0  0
    2.4712   -0.4579   -1.0848 C   0  0  0  0  0  0  0  0  0  0  0  0
   -0.5848   -1.6667   -0.1431 C   0  0  0  0  0  0  0  0  0  0  0  0
   -0.2941   -2.8750   -0.4436 O   0  0  0  0  0  0  0  0  0  0  0  0
   -4.0334    1.3967    2.8424 H   0  0  0  0  0  0  0  0  0  0  0  0
   -3.6537    3.1833    2.6324 H   0  0  0  0  0  0  0  0  0  0  0  0
   -2.3563    1.8841    2.5161 H   0  0  0  0  0  0  0  0  0  0  0  0
   -4.7259    2.0102    0.6453 H   0  0  0  0  0  0  0  0  0  0  0  0
   -3.1551    2.7051    0.2035 H   0  0  0  0  0  0  0  0  0  0  0  0
   -3.4987   -3.3951   -1.2723 H   0  0  0  0  0  0  0  0  0  0  0  0
   -5.7565   -4.0259   -0.2372 H   0  0  0  0  0  0  0  0  0  0  0  0
   -5.6600   -2.4255    0.8169 H   0  0  0  0  0  0  0  0  0  0  0  0
   -3.6528   -4.8830    0.7910 H   0  0  0  0  0  0  0  0  0  0  0  0
   -3.6296   -3.3744    1.8921 H   0  0  0  0  0  0  0  0  0  0  0  0
   -0.2087    0.9096    1.4113 H   0  0  0  0  0  0  0  0  0  0  0  0
   -0.0798    3.1474    1.0515 H   0  0  0  0  0  0  0  0  0  0  0  0
    0.2959    5.1071   -0.3737 H   0  0  0  0  0  0  0  0  0  0  0  0
    0.0146    2.5980   -3.8187 H   0  0  0  0  0  0  0  0  0  0  0  0
   -0.3635    0.6362   -2.3536 H   0  0  0  0  0  0  0  0  0  0  0  0
    1.8587   -1.0886    2.1285 H   0  0  0  0  0  0  0  0  0  0  0  0
    4.4328   -1.8102    4.4124 H   0  0  0  0  0  0  0  0  0  0  0  0
    2.9626   -2.2752    3.4606 H   0  0  0  0  0  0  0  0  0  0  0  0
    3.1880   -0.5616    3.8546 H   0  0  0  0  0  0  0  0  0  0  0  0
    4.1877   -0.9785   -4.0317 H   0  0  0  0  0  0  0  0  0  0  0  0
    3.6297    0.6963   -3.5345 H   0  0  0  0  0  0  0  0  0  0  0  0
    5.3580    0.3530   -3.9012 H   0  0  0  0  0  0  0  0  0  0  0  0
    1.9840   -0.2414   -2.0243 H   0  0  0  0  0  0  0  0  0  0  0  0
  1  2  1  0
  2  3  1  0
  3  4  2  0
  4  5  1  0
  5  6  1  0
  6  7  1  0
  7  8  1  0
  5  9  1  0
  9 10  2  0
 10 11  1  0
 11 12  1  0
 12 13  2  0
 13 14  1  0
 14 15  2  0
 15 16  1  0
 15 17  1  0
 17 18  2  0
 11 19  1  0
 19 20  1  0
 20 21  1  0
 21 22  2  0
 22 23  1  0
 23 24  1  0
 22 25  1  0
 25 26  2  0
 26 27  1  0
 27 28  2  0
 28 29  1  0
 28 30  1  0
 30 31  1  0
 19 32  1  0
 32 33  2  0
 10  3  1  0
 18 12  1  0
 31 20  2  0
  8  6  1  0
 32  9  1  0
 30 25  1  0
  1 34  1  0
  1 35  1  0
  1 36  1  0
  2 37  1  0
  2 38  1  0
  6 39  1  0
  7 40  1  0
  7 41  1  0
  8 42  1  0
  8 43  1  0
 11 44  1  0
 13 45  1  0
 14 46  1  0
 17 47  1  0
 18 48  1  0
 21 49  1  0
 24 50  1  0
 24 51  1  0
 24 52  1  0
 29 53  1  0
 29 54  1  0
 29 55  1  0
 31 56  1  0
M  END
$$$$
