
     RDKit          3D

 83 87  0  0  0  0  0  0  0  0999 V2000
   -2.4765   -6.1327   -0.2818 C   0  0  0  0  0  0  0  0  0  0  0  0
   -3.4080   -5.3858    0.4290 O   0  0  0  0  0  0  0  0  0  0  0  0
   -2.7589   -4.5268    1.2699 C   0  0  2  0  0  0  0  0  0  0  0  0
   -3.0897   -4.8272    2.6925 C   0  0  0  0  0  0  0  0  0  0  0  0
   -3.0535   -3.0896    0.9442 C   0  0  0  0  0  0  0  0  0  0  0  0
   -3.7842   -2.8195   -0.0264 O   0  0  0  0  0  0  0  0  0  0  0  0
   -2.5269   -2.0273    1.7060 N   0  0  0  0  0  0  0  0  0  0  0  0
   -2.7846   -0.6149    1.4140 C   0  0  1  0  0  0  0  0  0  0  0  0
   -3.6990   -0.0327    2.4387 C   0  0  0  0  0  0  0  0  0  0  0  0
   -3.9959    1.3840    2.2235 C   0  0  0  0  0  0  0  0  0  0  0  0
   -3.3097    2.3937    2.8619 C   0  0  0  0  0  0  0  0  0  0  0  0
   -3.6224    3.7155    2.6247 C   0  0  0  0  0  0  0  0  0  0  0  0
   -4.6260    4.0670    1.7457 C   0  0  0  0  0  0  0  0  0  0  0  0
   -5.3060    3.0624    1.1133 C   0  0  0  0  0  0  0  0  0  0  0  0
   -4.9948    1.7389    1.3496 C   0  0  0  0  0  0  0  0  0  0  0  0
   -6.2683    3.6698    0.2792 O   0  0  0  0  0  0  0  0  0  0  0  0
   -6.0250    5.0561    0.2058 C   0  0  0  0  0  0  0  0  0  0  0  0
   -5.1554    5.2758    1.3128 O   0  0  0  0  0  0  0  0  0  0  0  0
   -1.4874    0.1484    1.3065 C   0  0  2  0  0  0  0  0  0  0  0  0
   -1.7635    1.4452    0.9505 O   0  0  0  0  0  0  0  0  0  0  0  0
   -0.4765   -0.5745    0.5043 C   0  0  0  0  0  0  0  0  0  0  0  0
    0.8540   -0.1727    0.4387 N   0  0  0  0  0  0  0  0  0  0  0  0
    1.2067    0.9867   -0.2242 C   0  0  1  0  0  0  0  0  0  0  0  0
    1.2169    2.2994    0.4914 C   0  0  0  0  0  0  0  0  0  0  0  0
    1.2038    3.4107   -0.5220 C   0  0  0  0  0  0  0  0  0  0  0  0
    1.5844    4.7701    0.0345 C   0  0  0  0  0  0  0  0  0  0  0  0
    0.0760    5.0218    0.1883 C   0  0  0  0  0  0  0  0  0  0  0  0
   -0.0998    3.9890   -0.9324 C   0  0  0  0  0  0  0  0  0  0  0  0
    2.0976    3.1109   -1.5969 O   0  0  0  0  0  0  0  0  0  0  0  0
    2.9574    2.0252   -1.5523 C   0  0  0  0  0  0  0  0  0  0  0  0
    4.1685    2.0202   -2.1521 N   0  0  0  0  0  0  0  0  0  0  0  0
    4.9778    0.9454   -2.0860 C   0  0  0  0  0  0  0  0  0  0  0  0
    4.6414   -0.2079   -1.4159 C   0  0  0  0  0  0  0  0  0  0  0  0
    5.5220   -1.3863   -1.3290 C   0  0  0  0  0  0  0  0  0  0  0  0
    5.3612   -2.3867   -2.4290 C   0  0  0  0  0  0  0  0  0  0  0  0
    5.6301   -1.8357   -3.7963 C   0  0  0  0  0  0  0  0  0  0  0  0
    4.0191   -3.0770   -2.4081 C   0  0  0  0  0  0  0  0  0  0  0  0
    6.4107   -3.4822   -2.1782 C   0  0  0  0  0  0  0  0  0  0  0  0
    3.3851   -0.1916   -0.7985 C   0  0  0  0  0  0  0  0  0  0  0  0
    2.5742    0.9043   -0.8733 C   0  0  0  0  0  0  0  0  0  0  0  0
   -2.9770   -6.8444   -0.9789 H   0  0  0  0  0  0  0  0  0  0  0  0
   -1.7261   -6.6158    0.3702 H   0  0  0  0  0  0  0  0  0  0  0  0
   -1.8975   -5.4520   -0.9666 H   0  0  0  0  0  0  0  0  0  0  0  0
   -1.6458   -4.6865    1.1460 H   0  0  0  0  0  0  0  0  0  0  0  0
   -3.7161   -4.0307    3.1579 H   0  0  0  0  0  0  0  0  0  0  0  0
   -3.7020   -5.7478    2.7403 H   0  0  0  0  0  0  0  0  0  0  0  0
   -2.1767   -4.9986    3.3191 H   0  0  0  0  0  0  0  0  0  0  0  0
   -1.9202   -2.2426    2.5205 H   0  0  0  0  0  0  0  0  0  0  0  0
   -3.3221   -0.5940    0.4503 H   0  0  0  0  0  0  0  0  0  0  0  0
   -4.6952   -0.5645    2.3879 H   0  0  0  0  0  0  0  0  0  0  0  0
   -3.2726   -0.1546    3.4706 H   0  0  0  0  0  0  0  0  0  0  0  0
   -2.5150    2.1468    3.5593 H   0  0  0  0  0  0  0  0  0  0  0  0
   -3.0790    4.5190    3.1293 H   0  0  0  0  0  0  0  0  0  0  0  0
   -5.5817    0.9893    0.8078 H   0  0  0  0  0  0  0  0  0  0  0  0
   -6.9589    5.6271    0.3784 H   0  0  0  0  0  0  0  0  0  0  0  0
   -5.5390    5.3783   -0.7298 H   0  0  0  0  0  0  0  0  0  0  0  0
   -1.0471    0.1551    2.3785 H   0  0  0  0  0  0  0  0  0  0  0  0
   -2.3255    1.5472    0.1678 H   0  0  0  0  0  0  0  0  0  0  0  0
   -0.5240   -1.6758    0.8343 H   0  0  0  0  0  0  0  0  0  0  0  0
   -0.8855   -0.6638   -0.5785 H   0  0  0  0  0  0  0  0  0  0  0  0
    1.2734   -0.2785    1.4147 H   0  0  0  0  0  0  0  0  0  0  0  0
    0.5372    1.1701   -1.1351 H   0  0  0  0  0  0  0  0  0  0  0  0
    0.5619    2.4303    1.3338 H   0  0  0  0  0  0  0  0  0  0  0  0
    2.2708    2.4003    0.9701 H   0  0  0  0  0  0  0  0  0  0  0  0
    2.1493    4.7797    0.9647 H   0  0  0  0  0  0  0  0  0  0  0  0
    1.9719    5.4333   -0.7656 H   0  0  0  0  0  0  0  0  0  0  0  0
   -0.2342    6.0355   -0.0755 H   0  0  0  0  0  0  0  0  0  0  0  0
   -0.2307    4.6537    1.1893 H   0  0  0  0  0  0  0  0  0  0  0  0
   -1.0014    3.3898   -0.7293 H   0  0  0  0  0  0  0  0  0  0  0  0
   -0.1069    4.5104   -1.9216 H   0  0  0  0  0  0  0  0  0  0  0  0
    5.9298    1.0033   -2.5831 H   0  0  0  0  0  0  0  0  0  0  0  0
    6.6017   -1.1067   -1.2083 H   0  0  0  0  0  0  0  0  0  0  0  0
    5.2820   -1.9330   -0.3703 H   0  0  0  0  0  0  0  0  0  0  0  0
    6.5624   -1.2024   -3.7800 H   0  0  0  0  0  0  0  0  0  0  0  0
    5.8963   -2.6897   -4.4706 H   0  0  0  0  0  0  0  0  0  0  0  0
    4.7818   -1.3253   -4.2524 H   0  0  0  0  0  0  0  0  0  0  0  0
    3.2512   -2.3140   -2.6864 H   0  0  0  0  0  0  0  0  0  0  0  0
    3.8258   -3.5377   -1.4278 H   0  0  0  0  0  0  0  0  0  0  0  0
    4.0201   -3.8609   -3.2003 H   0  0  0  0  0  0  0  0  0  0  0  0
    6.1208   -3.9873   -1.2465 H   0  0  0  0  0  0  0  0  0  0  0  0
    6.3991   -4.2430   -2.9800 H   0  0  0  0  0  0  0  0  0  0  0  0
    7.4081   -3.0228   -2.0087 H   0  0  0  0  0  0  0  0  0  0  0  0
    3.0616   -1.0666   -0.2559 H   0  0  0  0  0  0  0  0  0  0  0  0
  1  2  1  0
  2  3  1  0
  3  4  1  0
  3  5  1  0
  5  6  2  0
  5  7  1  0
  7  8  1  0
  8  9  1  0
  9 10  1  0
 10 11  2  0
 11 12  1  0
 12 13  2  0
 13 14  1  0
 14 15  2  0
 14 16  1  0
 16 17  1  0
 17 18  1  0
  8 19  1  0
 19 20  1  0
 19 21  1  0
 21 22  1  0
 22 23  1  0
 23 24  1  0
 24 25  1  0
 25 26  1  0
 26 27  1  0
 27 28  1  0
 25 29  1  0
 29 30  1  0
 30 31  2  0
 31 32  1  0
 32 33  2  0
 33 34  1  0
 34 35  1  0
 35 36  1  0
 35 37  1  0
 35 38  1  0
 33 39  1  0
 39 40  2  0
 15 10  1  0
 40 23  1  0
 18 13  1  0
 28 25  1  0
 40 30  1  0
  1 41  1  0
  1 42  1  0
  1 43  1  0
  3 44  1  1
  4 45  1  0
  4 46  1  0
  4 47  1  0
  7 48  1  0
  8 49  1  6
  9 50  1  0
  9 51  1  0
 11 52  1  0
 12 53  1  0
 15 54  1  0
 17 55  1  0
 17 56  1  0
 19 57  1  1
 20 58  1  0
 21 59  1  0
 21 60  1  0
 22 61  1  0
 23 62  1  6
 24 63  1  0
 24 64  1  0
 26 65  1  0
 26 66  1  0
 27 67  1  0
 27 68  1  0
 28 69  1  0
 28 70  1  0
 32 71  1  0
 34 72  1  0
 34 73  1  0
 36 74  1  0
 36 75  1  0
 36 76  1  0
 37 77  1  0
 37 78  1  0
 37 79  1  0
 38 80  1  0
 38 81  1  0
 38 82  1  0
 39 83  1  0
M  END
$$$$
