
     RDKit          3D

 54 57  0  0  0  0  0  0  0  0999 V2000
   -5.2541    1.8078    0.1033 C   0  0  0  0  0  0  0  0  0  0  0  0
   -3.8813    1.7148   -0.3766 C   0  0  0  0  0  0  0  0  0  0  0  0
   -3.1760    0.5472   -0.2826 C   0  0  0  0  0  0  0  0  0  0  0  0
   -1.9350    0.6002   -0.7084 O   0  0  0  0  0  0  0  0  0  0  0  0
   -1.3819    1.6731   -1.1950 C   0  0  0  0  0  0  0  0  0  0  0  0
   -2.0126    2.8823   -1.3274 C   0  0  0  0  0  0  0  0  0  0  0  0
   -1.4605    4.0301   -1.8343 C   0  0  0  0  0  0  0  0  0  0  0  0
   -0.1587    3.9524   -2.2437 C   0  0  0  0  0  0  0  0  0  0  0  0
    0.5290    2.7633   -2.1362 C   0  0  0  0  0  0  0  0  0  0  0  0
   -0.0515    1.6060   -1.6175 C   0  0  0  0  0  0  0  0  0  0  0  0
    0.7880    0.4208   -1.5725 C   0  0  0  0  0  0  0  0  0  0  0  0
    1.9764    0.4449   -1.9722 O   0  0  0  0  0  0  0  0  0  0  0  0
    0.5384   -0.8284   -1.1501 O   0  0  0  0  0  0  0  0  0  0  0  0
    1.2571   -1.9876   -1.0561 C   0  0  0  0  0  0  0  0  0  0  0  0
    2.3230   -2.1973   -0.0648 C   0  0  0  0  0  0  0  0  0  0  0  0
    3.4055   -1.2504   -0.0849 N   0  0  0  0  0  0  0  0  0  0  0  0
    4.6045   -1.9500    0.5097 C   0  0  0  0  0  0  0  0  0  0  0  0
    5.5492   -1.0132    1.1517 C   0  0  0  0  0  0  0  0  0  0  0  0
    5.4816    0.3926    0.6560 C   0  0  0  0  0  0  0  0  0  0  0  0
    4.0710    0.9406    0.6438 C   0  0  0  0  0  0  0  0  0  0  0  0
    3.1227   -0.1769    0.9177 C   0  0  0  0  0  0  0  0  0  0  0  0
   -3.2994    2.8616   -0.8942 C   0  0  0  0  0  0  0  0  0  0  0  0
   -3.9658    3.9438   -0.9789 O   0  0  0  0  0  0  0  0  0  0  0  0
   -3.6228   -0.7218    0.2254 C   0  0  0  0  0  0  0  0  0  0  0  0
   -2.6625   -1.6889    0.4904 C   0  0  0  0  0  0  0  0  0  0  0  0
   -2.9001   -2.9578    0.9449 C   0  0  0  0  0  0  0  0  0  0  0  0
   -4.1886   -3.3678    1.1783 C   0  0  0  0  0  0  0  0  0  0  0  0
   -5.1979   -2.4751    0.9420 C   0  0  0  0  0  0  0  0  0  0  0  0
   -4.8620   -1.2289    0.4875 C   0  0  0  0  0  0  0  0  0  0  0  0
   -6.0433    1.4474   -0.5511 H   0  0  0  0  0  0  0  0  0  0  0  0
   -5.4943    2.9199    0.2140 H   0  0  0  0  0  0  0  0  0  0  0  0
   -5.3950    1.4320    1.1370 H   0  0  0  0  0  0  0  0  0  0  0  0
   -2.0336    4.9451   -1.9029 H   0  0  0  0  0  0  0  0  0  0  0  0
    0.3441    4.8323   -2.6587 H   0  0  0  0  0  0  0  0  0  0  0  0
    1.5726    2.7458   -2.4768 H   0  0  0  0  0  0  0  0  0  0  0  0
    0.5218   -2.8823   -0.9168 H   0  0  0  0  0  0  0  0  0  0  0  0
    1.6476   -2.2958   -2.1154 H   0  0  0  0  0  0  0  0  0  0  0  0
    2.7620   -3.2501   -0.1427 H   0  0  0  0  0  0  0  0  0  0  0  0
    1.8468   -2.2332    0.9726 H   0  0  0  0  0  0  0  0  0  0  0  0
    4.2218   -2.6717    1.2410 H   0  0  0  0  0  0  0  0  0  0  0  0
    5.0727   -2.4804   -0.3257 H   0  0  0  0  0  0  0  0  0  0  0  0
    5.5223   -1.0507    2.2711 H   0  0  0  0  0  0  0  0  0  0  0  0
    6.5942   -1.3695    0.9121 H   0  0  0  0  0  0  0  0  0  0  0  0
    5.9420    0.5165   -0.3360 H   0  0  0  0  0  0  0  0  0  0  0  0
    6.1021    1.0106    1.3551 H   0  0  0  0  0  0  0  0  0  0  0  0
    3.8792    1.3531   -0.3606 H   0  0  0  0  0  0  0  0  0  0  0  0
    3.9749    1.7380    1.4284 H   0  0  0  0  0  0  0  0  0  0  0  0
    3.2667   -0.6106    1.9381 H   0  0  0  0  0  0  0  0  0  0  0  0
    2.0756    0.0724    0.8303 H   0  0  0  0  0  0  0  0  0  0  0  0
   -1.5972   -1.4986    0.3535 H   0  0  0  0  0  0  0  0  0  0  0  0
   -2.1213   -3.6765    1.1390 H   0  0  0  0  0  0  0  0  0  0  0  0
   -4.3928   -4.3564    1.5346 H   0  0  0  0  0  0  0  0  0  0  0  0
   -6.2032   -2.7778    1.1184 H   0  0  0  0  0  0  0  0  0  0  0  0
   -5.7016   -0.5974    0.2966 H   0  0  0  0  0  0  0  0  0  0  0  0
  1  2  1  0
  2  3  2  0
  3  4  1  0
  4  5  1  0
  5  6  2  0
  6  7  1  0
  7  8  2  0
  8  9  1  0
  9 10  2  0
 10 11  1  0
 11 12  2  0
 11 13  1  0
 13 14  1  0
 14 15  1  0
 15 16  1  0
 16 17  1  0
 17 18  1  0
 18 19  1  0
 19 20  1  0
 20 21  1  0
  6 22  1  0
 22 23  2  0
  3 24  1  0
 24 25  2  0
 25 26  1  0
 26 27  2  0
 27 28  1  0
 28 29  2  0
 22  2  1  0
 29 24  1  0
 10  5  1  0
 21 16  1  0
  1 30  1  0
  1 31  1  0
  1 32  1  0
  7 33  1  0
  8 34  1  0
  9 35  1  0
 14 36  1  0
 14 37  1  0
 15 38  1  0
 15 39  1  0
 17 40  1  0
 17 41  1  0
 18 42  1  0
 18 43  1  0
 19 44  1  0
 19 45  1  0
 20 46  1  0
 20 47  1  0
 21 48  1  0
 21 49  1  0
 25 50  1  0
 26 51  1  0
 27 52  1  0
 28 53  1  0
 29 54  1  0
M  END
$$$$
