
     RDKit          3D

 36 38  0  0  0  0  0  0  0  0999 V2000
    5.6225    1.0280   -1.3144 N   0  0  0  0  0  0  0  0  0  0  0  0
    4.5094    0.6066   -0.5342 C   0  0  0  0  0  0  0  0  0  0  0  0
    3.7371    1.5078    0.1704 C   0  0  0  0  0  0  0  0  0  0  0  0
    2.6656    1.0582    0.9152 C   0  0  0  0  0  0  0  0  0  0  0  0
    2.3275   -0.2998    0.9839 C   0  0  0  0  0  0  0  0  0  0  0  0
    3.1023   -1.1953    0.2787 C   0  0  0  0  0  0  0  0  0  0  0  0
    4.1686   -0.7283   -0.4602 C   0  0  0  0  0  0  0  0  0  0  0  0
    0.9342   -0.5654    2.0068 S   0  0  0  0  0  0  0  0  0  0  0  0
    1.0506   -1.9679    2.5824 O   0  0  0  0  0  0  0  0  0  0  0  0
    0.9734    0.3463    3.2146 O   0  0  0  0  0  0  0  0  0  0  0  0
   -0.5567   -0.3580    1.1997 N   0  0  0  0  0  0  0  0  0  0  0  0
   -1.0082   -1.1223    0.0929 C   0  0  0  0  0  0  0  0  0  0  0  0
   -0.4080   -2.1680   -0.5742 C   0  0  0  0  0  0  0  0  0  0  0  0
   -1.1879   -2.6381   -1.6083 C   0  0  0  0  0  0  0  0  0  0  0  0
   -2.2801   -1.8375   -1.5400 N   0  0  0  0  0  0  0  0  0  0  0  0
   -2.1707   -0.9759   -0.5679 N   0  0  0  0  0  0  0  0  0  0  0  0
   -3.1984   -0.0283   -0.3017 C   0  0  0  0  0  0  0  0  0  0  0  0
   -2.9744    1.1710   -0.9292 C   0  0  0  0  0  0  0  0  0  0  0  0
   -3.8604    2.2352   -0.7998 C   0  0  0  0  0  0  0  0  0  0  0  0
   -4.9841    2.0519   -0.0147 C   0  0  0  0  0  0  0  0  0  0  0  0
   -5.2241    0.8350    0.6301 C   0  0  0  0  0  0  0  0  0  0  0  0
   -4.3244   -0.1998    0.4801 C   0  0  0  0  0  0  0  0  0  0  0  0
    6.4652    0.4711   -1.0187 H   0  0  0  0  0  0  0  0  0  0  0  0
    6.6268    0.7460   -1.3482 H   0  0  0  0  0  0  0  0  0  0  0  0
    4.0299    2.5430    0.0916 H   0  0  0  0  0  0  0  0  0  0  0  0
    2.1441    1.8824    1.4206 H   0  0  0  0  0  0  0  0  0  0  0  0
    2.7660   -2.1996    0.4004 H   0  0  0  0  0  0  0  0  0  0  0  0
    4.7125   -1.4992   -0.9749 H   0  0  0  0  0  0  0  0  0  0  0  0
   -1.2178    0.4049    1.5408 H   0  0  0  0  0  0  0  0  0  0  0  0
    0.5533   -2.5969   -0.3448 H   0  0  0  0  0  0  0  0  0  0  0  0
   -1.0054   -3.4365   -2.3107 H   0  0  0  0  0  0  0  0  0  0  0  0
   -2.1148    1.4122   -1.5706 H   0  0  0  0  0  0  0  0  0  0  0  0
   -3.7001    3.2013   -1.2926 H   0  0  0  0  0  0  0  0  0  0  0  0
   -5.6944    2.8522    0.1104 H   0  0  0  0  0  0  0  0  0  0  0  0
   -6.0788    0.6498    1.2458 H   0  0  0  0  0  0  0  0  0  0  0  0
   -4.4003   -1.1861    0.9276 H   0  0  0  0  0  0  0  0  0  0  0  0
  1  2  1  0
  2  3  2  0
  3  4  1  0
  4  5  2  0
  5  6  1  0
  6  7  2  0
  5  8  1  0
  8  9  2  0
  8 10  2  0
  8 11  1  0
 11 12  1  0
 12 13  2  0
 13 14  1  0
 14 15  2  0
 15 16  1  0
 16 17  1  0
 17 18  2  0
 18 19  1  0
 19 20  2  0
 20 21  1  0
 21 22  2  0
  7  2  1  0
 16 12  1  0
 22 17  1  0
  1 23  1  0
  1 24  1  0
  3 25  1  0
  4 26  1  0
  6 27  1  0
  7 28  1  0
 11 29  1  0
 13 30  1  0
 14 31  1  0
 18 32  1  0
 19 33  1  0
 20 34  1  0
 21 35  1  0
 22 36  1  0
M  END
$$$$
