
     RDKit          3D

 48 51  0  0  0  0  0  0  0  0999 V2000
   -6.4417   -1.2334   -0.5321 C   0  0  0  0  0  0  0  0  0  0  0  0
   -5.3330   -1.8317   -1.0004 O   0  0  0  0  0  0  0  0  0  0  0  0
   -4.3403   -1.1589   -1.5992 C   0  0  0  0  0  0  0  0  0  0  0  0
   -3.5847   -0.1177   -0.8369 C   0  0  2  0  0  0  0  0  0  0  0  0
   -2.4760    0.5324   -1.6924 C   0  0  0  0  0  0  0  0  0  0  0  0
   -2.1792   -0.3019   -0.5002 C   0  0  1  0  0  0  0  0  0  0  0  0
   -1.5975    0.2178    0.7175 C   0  0  1  0  0  0  0  0  0  0  0  0
   -1.1164   -1.0339    1.5994 C   0  0  0  0  0  0  0  0  0  0  0  0
   -0.3052    0.9156    0.4795 C   0  0  0  0  0  0  0  0  0  0  0  0
    0.9316    0.2849    0.5630 C   0  0  0  0  0  0  0  0  0  0  0  0
    2.1366    0.8936    0.2603 C   0  0  0  0  0  0  0  0  0  0  0  0
    3.3910    0.1251    0.3800 C   0  0  0  0  0  0  0  0  0  0  0  0
    4.3679    0.2349   -0.4761 C   0  0  0  0  0  0  0  0  0  0  0  0
    4.1817    1.1060   -1.5082 F   0  0  0  0  0  0  0  0  0  0  0  0
    5.6135   -0.5016   -0.4015 C   0  0  0  0  0  0  0  0  0  0  0  0
    6.5717   -0.3057   -1.3651 C   0  0  0  0  0  0  0  0  0  0  0  0
    7.7501   -0.9656   -1.3488 N   0  0  0  0  0  0  0  0  0  0  0  0
    7.9938   -1.8285   -0.3773 C   0  0  0  0  0  0  0  0  0  0  0  0
    9.5174   -2.7140   -0.3147 Cl  0  0  0  0  0  0  0  0  0  0  0  0
    7.0553   -2.0447    0.5993 C   0  0  0  0  0  0  0  0  0  0  0  0
    5.8839   -1.3761    0.5666 N   0  0  0  0  0  0  0  0  0  0  0  0
    2.1213    2.1993   -0.1477 C   0  0  0  0  0  0  0  0  0  0  0  0
    0.9389    2.8901   -0.2540 C   0  0  0  0  0  0  0  0  0  0  0  0
   -0.2263    2.2454    0.0573 C   0  0  0  0  0  0  0  0  0  0  0  0
   -1.3645    2.9596    0.0115 F   0  0  0  0  0  0  0  0  0  0  0  0
   -2.3502    0.9840    1.6510 N   0  0  0  0  0  0  0  0  0  0  0  0
   -3.5336    1.3972    1.6117 C   0  0  0  0  0  0  0  0  0  0  0  0
   -4.1017    2.1571    2.6626 N   0  0  0  0  0  0  0  0  0  0  0  0
   -4.5300    1.0213    0.1950 S   0  0  0  0  0  0  0  0  0  0  0  0
   -7.1096   -2.0693   -0.1184 H   0  0  0  0  0  0  0  0  0  0  0  0
   -6.3654   -0.5411    0.3061 H   0  0  0  0  0  0  0  0  0  0  0  0
   -7.0865   -0.7592   -1.3085 H   0  0  0  0  0  0  0  0  0  0  0  0
   -4.6682   -0.7673   -2.6063 H   0  0  0  0  0  0  0  0  0  0  0  0
   -3.5545   -1.9341   -1.8888 H   0  0  0  0  0  0  0  0  0  0  0  0
   -2.4791    1.6121   -1.7370 H   0  0  0  0  0  0  0  0  0  0  0  0
   -2.2791    0.0744   -2.7045 H   0  0  0  0  0  0  0  0  0  0  0  0
   -1.8147   -1.3762   -0.7323 H   0  0  0  0  0  0  0  0  0  0  0  0
   -0.6936   -1.7421    0.8955 H   0  0  0  0  0  0  0  0  0  0  0  0
   -2.0208   -1.4075    2.1206 H   0  0  0  0  0  0  0  0  0  0  0  0
   -0.3688   -0.6408    2.2843 H   0  0  0  0  0  0  0  0  0  0  0  0
    0.9934   -0.7616    0.8793 H   0  0  0  0  0  0  0  0  0  0  0  0
    3.4850   -0.5459    1.2131 H   0  0  0  0  0  0  0  0  0  0  0  0
    6.4311    0.3916   -2.1932 H   0  0  0  0  0  0  0  0  0  0  0  0
    7.2190   -2.7451    1.4138 H   0  0  0  0  0  0  0  0  0  0  0  0
    3.0313    2.7276   -0.3961 H   0  0  0  0  0  0  0  0  0  0  0  0
    0.9504    3.9206   -0.5788 H   0  0  0  0  0  0  0  0  0  0  0  0
   -4.2160    3.1908    2.6233 H   0  0  0  0  0  0  0  0  0  0  0  0
   -4.4283    1.6769    3.5277 H   0  0  0  0  0  0  0  0  0  0  0  0
  1  2  1  0
  2  3  1  0
  4  3  1  6
  4  5  1  0
  5  6  1  0
  6  7  1  0
  7  8  1  1
  7  9  1  0
  9 10  2  0
 10 11  1  0
 11 12  1  0
 12 13  2  0
 13 14  1  0
 13 15  1  0
 15 16  2  0
 16 17  1  0
 17 18  2  0
 18 19  1  0
 18 20  1  0
 20 21  2  0
 11 22  2  0
 22 23  1  0
 23 24  2  0
 24 25  1  0
  7 26  1  0
 26 27  2  0
 27 28  1  0
 27 29  1  0
  6  4  1  0
 24  9  1  0
 29  4  1  0
 21 15  1  0
  1 30  1  0
  1 31  1  0
  1 32  1  0
  3 33  1  0
  3 34  1  0
  5 35  1  0
  5 36  1  0
  6 37  1  6
  8 38  1  0
  8 39  1  0
  8 40  1  0
 10 41  1  0
 12 42  1  0
 16 43  1  0
 20 44  1  0
 22 45  1  0
 23 46  1  0
 28 47  1  0
 28 48  1  0
M  END
$$$$
