
     RDKit          3D

 32 33  0  0  0  0  0  0  0  0999 V2000
   -5.7982    1.4506    0.7333 O   0  0  0  0  0  0  0  0  0  0  0  0
   -4.8513    0.6274    0.8108 C   0  0  0  0  0  0  0  0  0  0  0  0
   -5.0170   -0.4370    1.6874 O   0  0  0  0  0  0  0  0  0  0  0  0
   -3.6338    0.7529    0.0381 C   0  0  0  0  0  0  0  0  0  0  0  0
   -3.5181    1.8264   -0.8198 C   0  0  0  0  0  0  0  0  0  0  0  0
   -2.3783    1.9685   -1.5620 C   0  0  0  0  0  0  0  0  0  0  0  0
   -1.3427    1.0290   -1.4468 C   0  0  0  0  0  0  0  0  0  0  0  0
   -1.4503   -0.0409   -0.5949 C   0  0  0  0  0  0  0  0  0  0  0  0
   -0.4275   -0.9952   -0.4345 N   0  0  0  0  0  0  0  0  0  0  0  0
    0.9391   -0.7101   -0.1868 C   0  0  0  0  0  0  0  0  0  0  0  0
    1.3084    0.6265    0.0176 C   0  0  0  0  0  0  0  0  0  0  0  0
    2.6250    0.9817    0.2569 C   0  0  0  0  0  0  0  0  0  0  0  0
    3.6298    0.0459    0.3063 C   0  0  0  0  0  0  0  0  0  0  0  0
    5.0299    0.4811    0.5667 C   0  0  0  0  0  0  0  0  0  0  0  0
    5.9310   -0.4760    0.1484 F   0  0  0  0  0  0  0  0  0  0  0  0
    5.1540    0.7051    1.9246 F   0  0  0  0  0  0  0  0  0  0  0  0
    5.2197    1.6783   -0.0986 F   0  0  0  0  0  0  0  0  0  0  0  0
    3.2784   -1.2612    0.1080 C   0  0  0  0  0  0  0  0  0  0  0  0
    1.9439   -1.6408   -0.1376 C   0  0  0  0  0  0  0  0  0  0  0  0
    1.6840   -3.0176   -0.3308 N   0  0  0  0  0  4  0  0  0  0  0  0
    2.4513   -3.8578    0.2493 O   0  0  0  0  0  0  0  0  0  0  0  0
    0.6981   -3.5835   -1.0719 O   0  0  0  0  0  1  0  0  0  0  0  0
   -2.6150   -0.1681    0.1498 C   0  0  0  0  0  0  0  0  0  0  0  0
   -5.9364   -0.8687    1.8415 H   0  0  0  0  0  0  0  0  0  0  0  0
   -4.3211    2.5535   -0.9084 H   0  0  0  0  0  0  0  0  0  0  0  0
   -2.2514    2.8027   -2.2487 H   0  0  0  0  0  0  0  0  0  0  0  0
   -0.4561    1.1268   -2.0372 H   0  0  0  0  0  0  0  0  0  0  0  0
   -0.6871   -2.0283   -0.4878 H   0  0  0  0  0  0  0  0  0  0  0  0
    0.5769    1.4261    0.0113 H   0  0  0  0  0  0  0  0  0  0  0  0
    2.9166    2.0286    0.4163 H   0  0  0  0  0  0  0  0  0  0  0  0
    4.0438   -2.0232    0.1403 H   0  0  0  0  0  0  0  0  0  0  0  0
   -2.7454   -1.0027    0.8399 H   0  0  0  0  0  0  0  0  0  0  0  0
  1  2  2  0
  2  3  1  0
  2  4  1  0
  4  5  2  0
  5  6  1  0
  6  7  2  0
  7  8  1  0
  8  9  1  0
  9 10  1  0
 10 11  2  0
 11 12  1  0
 12 13  2  0
 13 14  1  0
 14 15  1  0
 14 16  1  0
 14 17  1  0
 13 18  1  0
 18 19  2  0
 19 20  1  0
 20 21  2  0
 20 22  1  0
  8 23  2  0
 23  4  1  0
 19 10  1  0
  3 24  1  0
  5 25  1  0
  6 26  1  0
  7 27  1  0
  9 28  1  0
 11 29  1  0
 12 30  1  0
 18 31  1  0
 23 32  1  0
M  CHG  2  20   1  22  -1
M  END
$$$$
