
     RDKit          3D

 50 52  0  0  0  0  0  0  0  0999 V2000
   -6.7990   -0.2007    1.9322 N   0  0  0  0  0  0  0  0  0  0  0  0
   -5.9771    0.2965    1.2645 C   0  0  0  0  0  0  0  0  0  0  0  0
   -4.9365    0.9255    0.4308 C   0  0  2  0  0  0  0  0  0  0  0  0
   -5.7033    1.6178   -0.6977 C   0  0  0  0  0  0  0  0  0  0  0  0
   -5.6709    0.6762   -1.8636 C   0  0  0  0  0  0  0  0  0  0  0  0
   -5.0127   -0.5745   -1.2915 C   0  0  0  0  0  0  0  0  0  0  0  0
   -4.1288   -0.0753   -0.2558 N   0  0  0  0  0  0  0  0  0  0  0  0
   -2.8191   -0.4754   -0.0088 C   0  0  0  0  0  0  0  0  0  0  0  0
   -2.3163   -1.3830   -0.7609 O   0  0  0  0  0  0  0  0  0  0  0  0
   -1.9313    0.0410    1.0408 C   0  0  1  0  0  0  0  0  0  0  0  0
   -2.3772   -0.3448    2.4254 C   0  0  0  0  0  0  0  0  0  0  0  0
   -1.7769   -1.7218    2.5951 C   0  0  0  0  0  0  0  0  0  0  0  0
   -0.6727   -1.8350    1.5508 C   0  0  0  0  0  0  0  0  0  0  0  0
   -0.6004   -0.5189    0.9734 N   0  0  0  0  0  0  0  0  0  0  0  0
    0.5457    0.1060    0.4427 C   0  0  0  0  0  0  0  0  0  0  0  0
    0.4573    1.2754   -0.0332 O   0  0  0  0  0  0  0  0  0  0  0  0
    1.8259   -0.6047    0.4479 C   0  0  0  0  0  0  0  0  0  0  0  0
    2.9493    0.1936   -0.1679 C   0  0  0  0  0  0  0  0  0  0  0  0
    4.2091   -0.6805   -0.0849 C   0  0  0  0  0  0  0  0  0  0  0  0
    5.3667    0.0491   -0.6801 C   0  0  0  0  0  0  0  0  0  0  0  0
    6.1997    0.8680    0.0526 C   0  0  0  0  0  0  0  0  0  0  0  0
    7.2543    1.5297   -0.5121 C   0  0  0  0  0  0  0  0  0  0  0  0
    7.4904    1.3715   -1.8572 C   0  0  0  0  0  0  0  0  0  0  0  0
    6.6634    0.5525   -2.6079 C   0  0  0  0  0  0  0  0  0  0  0  0
    5.6091   -0.1046   -2.0258 C   0  0  0  0  0  0  0  0  0  0  0  0
   -4.3606    1.6897    0.9492 H   0  0  0  0  0  0  0  0  0  0  0  0
   -6.7397    1.8439   -0.4041 H   0  0  0  0  0  0  0  0  0  0  0  0
   -5.2253    2.5926   -0.9570 H   0  0  0  0  0  0  0  0  0  0  0  0
   -5.0723    1.1302   -2.6726 H   0  0  0  0  0  0  0  0  0  0  0  0
   -6.6947    0.4727   -2.2156 H   0  0  0  0  0  0  0  0  0  0  0  0
   -4.4639   -1.0601   -2.1103 H   0  0  0  0  0  0  0  0  0  0  0  0
   -5.8245   -1.1889   -0.8701 H   0  0  0  0  0  0  0  0  0  0  0  0
   -1.8952    1.1592    0.9228 H   0  0  0  0  0  0  0  0  0  0  0  0
   -1.9595    0.3206    3.2044 H   0  0  0  0  0  0  0  0  0  0  0  0
   -3.4602   -0.3332    2.5038 H   0  0  0  0  0  0  0  0  0  0  0  0
   -1.3012   -1.8115    3.6115 H   0  0  0  0  0  0  0  0  0  0  0  0
   -2.5243   -2.4944    2.4124 H   0  0  0  0  0  0  0  0  0  0  0  0
   -0.9404   -2.5497    0.7453 H   0  0  0  0  0  0  0  0  0  0  0  0
    0.2638   -2.1674    2.0262 H   0  0  0  0  0  0  0  0  0  0  0  0
    1.7051   -1.5258   -0.1900 H   0  0  0  0  0  0  0  0  0  0  0  0
    2.1459   -0.8593    1.4794 H   0  0  0  0  0  0  0  0  0  0  0  0
    3.1434    1.0668    0.4913 H   0  0  0  0  0  0  0  0  0  0  0  0
    2.7567    0.4939   -1.2093 H   0  0  0  0  0  0  0  0  0  0  0  0
    4.0363   -1.6627   -0.5603 H   0  0  0  0  0  0  0  0  0  0  0  0
    4.4672   -0.8849    0.9725 H   0  0  0  0  0  0  0  0  0  0  0  0
    6.0099    0.9901    1.1160 H   0  0  0  0  0  0  0  0  0  0  0  0
    7.9188    2.1833    0.0729 H   0  0  0  0  0  0  0  0  0  0  0  0
    8.3243    1.9013   -2.2760 H   0  0  0  0  0  0  0  0  0  0  0  0
    6.8794    0.4522   -3.6583 H   0  0  0  0  0  0  0  0  0  0  0  0
    4.9622   -0.7420   -2.5993 H   0  0  0  0  0  0  0  0  0  0  0  0
  1  2  3  0
  2  3  1  0
  3  4  1  0
  4  5  1  0
  5  6  1  0
  6  7  1  0
  7  8  1  0
  8  9  2  0
  8 10  1  0
 10 11  1  0
 11 12  1  0
 12 13  1  0
 13 14  1  0
 14 15  1  0
 15 16  2  0
 15 17  1  0
 17 18  1  0
 18 19  1  0
 19 20  1  0
 20 21  2  0
 21 22  1  0
 22 23  2  0
 23 24  1  0
 24 25  2  0
  7  3  1  0
 14 10  1  0
 25 20  1  0
  3 26  1  1
  4 27  1  0
  4 28  1  0
  5 29  1  0
  5 30  1  0
  6 31  1  0
  6 32  1  0
 10 33  1  1
 11 34  1  0
 11 35  1  0
 12 36  1  0
 12 37  1  0
 13 38  1  0
 13 39  1  0
 17 40  1  0
 17 41  1  0
 18 42  1  0
 18 43  1  0
 19 44  1  0
 19 45  1  0
 21 46  1  0
 22 47  1  0
 23 48  1  0
 24 49  1  0
 25 50  1  0
M  END
$$$$
