
     RDKit          3D

 44 46  0  0  0  0  0  0  0  0999 V2000
   -1.2029   -3.6854    1.9747 C   0  0  0  0  0  0  0  0  0  0  0  0
   -0.7981   -2.4279    1.3113 N   0  0  0  0  0  0  0  0  0  0  0  0
    0.4322   -2.1679    1.0039 N   0  0  0  0  0  0  0  0  0  0  0  0
    0.8868   -1.2245    0.4841 C   0  0  0  0  0  0  0  0  0  0  0  0
    2.1256   -0.5730   -0.0123 C   0  0  0  0  0  0  0  0  0  0  0  0
    2.1400    0.6604   -0.6058 C   0  0  0  0  0  0  0  0  0  0  0  0
    3.3511    1.1960   -1.0426 C   0  0  0  0  0  0  0  0  0  0  0  0
    4.5351    0.5143   -0.8917 C   0  0  0  0  0  0  0  0  0  0  0  0
    5.8093    1.0574   -1.3414 C   0  0  0  0  0  0  0  0  0  0  0  0
    5.9146    2.3337   -1.9690 N   0  0  0  0  0  0  0  0  0  0  0  0
    6.8790    0.4174   -1.1934 O   0  0  0  0  0  0  0  0  0  0  0  0
    4.5226   -0.7269   -0.2947 C   0  0  0  0  0  0  0  0  0  0  0  0
    5.7335   -1.4725   -0.1172 N   0  0  0  0  0  0  0  0  0  0  0  0
    3.3250   -1.2365    0.1275 C   0  0  0  0  0  0  0  0  0  0  0  0
   -0.7398   -0.2576    0.2622 S   0  0  0  0  0  0  0  0  0  0  0  0
   -1.6721   -1.4941    0.9935 C   0  0  0  0  0  0  0  0  0  0  0  0
   -2.9874   -1.3231    1.1070 N   0  0  0  0  0  0  0  0  0  0  0  0
   -3.5869   -0.1502    0.6337 C   0  0  0  0  0  0  0  0  0  0  0  0
   -3.1579    1.1469    1.2198 C   0  0  0  0  0  0  0  0  0  0  0  0
   -3.1906    2.2003    0.1049 C   0  0  0  0  0  0  0  0  0  0  0  0
   -4.5353    2.1154   -0.5803 C   0  0  0  0  0  0  0  0  0  0  0  0
   -4.7449    0.7968   -1.2827 C   0  0  0  0  0  0  0  0  0  0  0  0
   -3.6057   -0.1227   -0.9031 C   0  0  0  0  0  0  0  0  0  0  0  0
   -1.1991   -3.4733    3.0556 H   0  0  0  0  0  0  0  0  0  0  0  0
   -0.5750   -4.5285    1.6960 H   0  0  0  0  0  0  0  0  0  0  0  0
   -2.2486   -3.9537    1.6446 H   0  0  0  0  0  0  0  0  0  0  0  0
    1.2115    1.1869   -0.7202 H   0  0  0  0  0  0  0  0  0  0  0  0
    3.3664    2.1580   -1.5060 H   0  0  0  0  0  0  0  0  0  0  0  0
    5.4767    3.1607   -1.5200 H   0  0  0  0  0  0  0  0  0  0  0  0
    6.4333    2.4256   -2.8785 H   0  0  0  0  0  0  0  0  0  0  0  0
    6.0919   -1.5436    0.8546 H   0  0  0  0  0  0  0  0  0  0  0  0
    6.1781   -1.8933   -0.9546 H   0  0  0  0  0  0  0  0  0  0  0  0
    3.2765   -2.2247    0.6085 H   0  0  0  0  0  0  0  0  0  0  0  0
   -4.6932   -0.2619    0.8815 H   0  0  0  0  0  0  0  0  0  0  0  0
   -3.9230    1.5360    1.9604 H   0  0  0  0  0  0  0  0  0  0  0  0
   -2.2182    1.1490    1.7708 H   0  0  0  0  0  0  0  0  0  0  0  0
   -2.4178    2.0556   -0.6422 H   0  0  0  0  0  0  0  0  0  0  0  0
   -3.1043    3.1697    0.5992 H   0  0  0  0  0  0  0  0  0  0  0  0
   -4.6462    2.9134   -1.3313 H   0  0  0  0  0  0  0  0  0  0  0  0
   -5.3080    2.3032    0.1969 H   0  0  0  0  0  0  0  0  0  0  0  0
   -4.8627    0.9085   -2.3780 H   0  0  0  0  0  0  0  0  0  0  0  0
   -5.6727    0.3401   -0.8507 H   0  0  0  0  0  0  0  0  0  0  0  0
   -2.6563    0.1569   -1.3458 H   0  0  0  0  0  0  0  0  0  0  0  0
   -3.9423   -1.1608   -1.1923 H   0  0  0  0  0  0  0  0  0  0  0  0
  1  2  1  0
  2  3  1  0
  3  4  2  0
  4  5  1  0
  5  6  2  0
  6  7  1  0
  7  8  2  0
  8  9  1  0
  9 10  1  0
  9 11  2  0
  8 12  1  0
 12 13  1  0
 12 14  2  0
  4 15  1  0
 15 16  1  0
 16 17  2  0
 17 18  1  0
 18 19  1  0
 19 20  1  0
 20 21  1  0
 21 22  1  0
 22 23  1  0
 16  2  1  0
 23 18  1  0
 14  5  1  0
  1 24  1  0
  1 25  1  0
  1 26  1  0
  6 27  1  0
  7 28  1  0
 10 29  1  0
 10 30  1  0
 13 31  1  0
 13 32  1  0
 14 33  1  0
 18 34  1  0
 19 35  1  0
 19 36  1  0
 20 37  1  0
 20 38  1  0
 21 39  1  0
 21 40  1  0
 22 41  1  0
 22 42  1  0
 23 43  1  0
 23 44  1  0
M  END
$$$$
