
     RDKit          3D

 74 78  0  0  0  0  0  0  0  0999 V2000
   -6.1547    2.0734    2.1803 C   0  0  0  0  0  0  0  0  0  0  0  0
   -5.5985    1.3377    1.1376 O   0  0  0  0  0  0  0  0  0  0  0  0
   -5.4491   -0.0030    1.4827 C   0  0  0  0  0  0  0  0  0  0  0  0
   -4.8363   -0.7922    0.3236 C   0  0  2  0  0  0  0  0  0  0  0  0
   -3.4483   -0.4016    0.1203 C   0  0  0  0  0  0  0  0  0  0  0  0
   -2.9632   -0.0908   -0.9840 O   0  0  0  0  0  0  0  0  0  0  0  0
   -2.5359   -0.3556    1.2357 N   0  0  0  0  0  0  0  0  0  0  0  0
   -1.1743    0.0274    1.0398 C   0  0  0  0  0  0  0  0  0  0  0  0
   -0.7643    1.3312    1.1287 C   0  0  0  0  0  0  0  0  0  0  0  0
    0.5559    1.6441    0.9307 C   0  0  0  0  0  0  0  0  0  0  0  0
    1.4569    0.6201    0.6414 C   0  0  0  0  0  0  0  0  0  0  0  0
    1.0825   -0.7048    0.5434 C   0  0  0  0  0  0  0  0  0  0  0  0
    1.7663   -1.8966    0.2690 C   0  0  0  0  0  0  0  0  0  0  0  0
    3.2026   -1.9364    0.0328 C   0  0  0  0  0  0  0  0  0  0  0  0
    3.8931   -0.7826    0.1796 N   0  0  0  0  0  0  0  0  0  0  0  0
    5.2033   -0.6483   -0.0079 C   0  0  0  0  0  0  0  0  0  0  0  0
    5.7872    0.6186    0.1827 N   0  0  0  0  0  0  0  0  0  0  0  0
    7.1536    0.8735    0.0174 C   0  0  0  0  0  0  0  0  0  0  0  0
    8.1505    0.0068   -0.3405 C   0  0  0  0  0  0  0  0  0  0  0  0
    9.3011    0.7301   -0.3647 N   0  0  0  0  0  0  0  0  0  0  0  0
   10.5817    0.1711   -0.6994 C   0  0  0  0  0  0  0  0  0  0  0  0
    9.0764    1.9731   -0.0476 N   0  0  0  0  0  0  0  0  0  0  0  0
    7.7626    2.1091    0.1970 C   0  0  0  0  0  0  0  0  0  0  0  0
    7.0795    3.2719    0.5706 O   0  0  0  0  0  0  0  0  0  0  0  0
    7.7589    4.4936    0.7357 C   0  0  0  0  0  0  0  0  0  0  0  0
    5.8801   -1.7505   -0.3704 N   0  0  0  0  0  0  0  0  0  0  0  0
    5.3124   -2.9339   -0.5449 C   0  0  0  0  0  0  0  0  0  0  0  0
    3.9196   -3.0425   -0.3385 C   0  0  0  0  0  0  0  0  0  0  0  0
    3.2458   -4.3326   -0.5488 C   0  0  0  0  0  0  0  0  0  0  0  0
    0.8121   -2.8607    0.3189 C   0  0  0  0  0  0  0  0  0  0  0  0
   -0.4005   -2.3051    0.6074 N   0  0  0  0  0  0  0  0  0  0  0  0
   -0.2442   -0.9861    0.7465 C   0  0  0  0  0  0  0  0  0  0  0  0
   -5.6012   -0.7586   -0.8395 N   0  0  0  0  0  0  0  0  0  0  0  0
   -6.9102   -1.3121   -0.7843 C   0  0  0  0  0  0  0  0  0  0  0  0
   -7.9294   -0.2281   -0.8806 C   0  0  0  0  0  0  0  0  0  0  0  0
   -7.6977    0.6713   -1.9860 N   0  0  0  0  0  0  0  0  0  0  0  0
   -7.7285    2.0542   -1.6368 C   0  0  0  0  0  0  0  0  0  0  0  0
   -6.5390    0.3010   -2.7653 C   0  0  0  0  0  0  0  0  0  0  0  0
   -5.3078    0.1012   -1.8982 C   0  0  0  0  0  0  0  0  0  0  0  0
   -6.2450    3.1253    1.8402 H   0  0  0  0  0  0  0  0  0  0  0  0
   -5.4947    1.9850    3.0592 H   0  0  0  0  0  0  0  0  0  0  0  0
   -7.1693    1.6252    2.3681 H   0  0  0  0  0  0  0  0  0  0  0  0
   -4.8119   -0.1223    2.3894 H   0  0  0  0  0  0  0  0  0  0  0  0
   -6.4321   -0.4351    1.7516 H   0  0  0  0  0  0  0  0  0  0  0  0
   -4.8449   -1.8651    0.7088 H   0  0  0  0  0  0  0  0  0  0  0  0
   -2.8388   -0.5973    2.2040 H   0  0  0  0  0  0  0  0  0  0  0  0
   -1.4837    2.1079    1.3545 H   0  0  0  0  0  0  0  0  0  0  0  0
    0.8612    2.6707    1.0039 H   0  0  0  0  0  0  0  0  0  0  0  0
    2.4689    0.9105    0.4939 H   0  0  0  0  0  0  0  0  0  0  0  0
    5.1429    1.4188    0.4680 H   0  0  0  0  0  0  0  0  0  0  0  0
    8.0629   -1.0591   -0.5668 H   0  0  0  0  0  0  0  0  0  0  0  0
   10.9487    0.5052   -1.6772 H   0  0  0  0  0  0  0  0  0  0  0  0
   11.2861    0.4304    0.1306 H   0  0  0  0  0  0  0  0  0  0  0  0
   10.5454   -0.9539   -0.7373 H   0  0  0  0  0  0  0  0  0  0  0  0
    8.7899    4.2708    1.1101 H   0  0  0  0  0  0  0  0  0  0  0  0
    7.9160    4.9505   -0.2796 H   0  0  0  0  0  0  0  0  0  0  0  0
    7.2568    5.1868    1.4134 H   0  0  0  0  0  0  0  0  0  0  0  0
    5.8266   -3.8299   -0.8330 H   0  0  0  0  0  0  0  0  0  0  0  0
    2.4689   -4.3363   -1.3231 H   0  0  0  0  0  0  0  0  0  0  0  0
    2.9407   -4.8351    0.3839 H   0  0  0  0  0  0  0  0  0  0  0  0
    4.0439   -5.0246   -1.0026 H   0  0  0  0  0  0  0  0  0  0  0  0
    0.9375   -3.9191    0.1732 H   0  0  0  0  0  0  0  0  0  0  0  0
   -1.3092   -2.8195    0.7056 H   0  0  0  0  0  0  0  0  0  0  0  0
   -6.9983   -1.9449    0.0954 H   0  0  0  0  0  0  0  0  0  0  0  0
   -7.0401   -1.9820   -1.6775 H   0  0  0  0  0  0  0  0  0  0  0  0
   -8.9562   -0.6515   -0.9897 H   0  0  0  0  0  0  0  0  0  0  0  0
   -7.9260    0.3511    0.0630 H   0  0  0  0  0  0  0  0  0  0  0  0
   -8.2826    2.2918   -0.7302 H   0  0  0  0  0  0  0  0  0  0  0  0
   -6.6575    2.4104   -1.5983 H   0  0  0  0  0  0  0  0  0  0  0  0
   -8.1783    2.6326   -2.4961 H   0  0  0  0  0  0  0  0  0  0  0  0
   -6.7590   -0.5775   -3.3829 H   0  0  0  0  0  0  0  0  0  0  0  0
   -6.3139    1.1460   -3.4481 H   0  0  0  0  0  0  0  0  0  0  0  0
   -4.8869    1.0463   -1.5523 H   0  0  0  0  0  0  0  0  0  0  0  0
   -4.5669   -0.3992   -2.5912 H   0  0  0  0  0  0  0  0  0  0  0  0
  1  2  1  0
  2  3  1  0
  3  4  1  0
  4  5  1  0
  5  6  2  0
  5  7  1  0
  7  8  1  0
  8  9  2  0
  9 10  1  0
 10 11  2  0
 11 12  1  0
 12 13  1  0
 13 14  1  0
 14 15  2  0
 15 16  1  0
 16 17  1  0
 17 18  1  0
 18 19  2  0
 19 20  1  0
 20 21  1  0
 20 22  1  0
 22 23  2  0
 23 24  1  0
 24 25  1  0
 16 26  2  0
 26 27  1  0
 27 28  2  0
 28 29  1  0
 13 30  2  0
 30 31  1  0
 31 32  1  0
  4 33  1  0
 33 34  1  0
 34 35  1  0
 35 36  1  0
 36 37  1  0
 36 38  1  0
 38 39  1  0
 32  8  1  0
 39 33  1  0
 32 12  2  0
 28 14  1  0
 23 18  1  0
  1 40  1  0
  1 41  1  0
  1 42  1  0
  3 43  1  0
  3 44  1  0
  4 45  1  1
  7 46  1  0
  9 47  1  0
 10 48  1  0
 11 49  1  0
 17 50  1  0
 19 51  1  0
 21 52  1  0
 21 53  1  0
 21 54  1  0
 25 55  1  0
 25 56  1  0
 25 57  1  0
 27 58  1  0
 29 59  1  0
 29 60  1  0
 29 61  1  0
 30 62  1  0
 31 63  1  0
 34 64  1  0
 34 65  1  0
 35 66  1  0
 35 67  1  0
 37 68  1  0
 37 69  1  0
 37 70  1  0
 38 71  1  0
 38 72  1  0
 39 73  1  0
 39 74  1  0
M  END
$$$$
