
     RDKit          3D

 49 53  0  0  0  0  0  0  0  0999 V2000
   -3.6082   -1.5695    3.1546 O   0  0  0  0  0  0  0  0  0  0  0  0
   -4.3161   -1.2258    2.1672 C   0  0  0  0  0  0  0  0  0  0  0  0
   -5.5540   -0.6679    2.4567 O   0  0  0  0  0  0  0  0  0  0  0  0
   -3.8291   -1.4179    0.7656 C   0  0  0  0  0  0  0  0  0  0  0  0
   -3.0992   -0.2637    0.2949 N   0  0  0  0  0  0  0  0  0  0  0  0
   -1.7688   -0.0228    0.3985 C   0  0  0  0  0  0  0  0  0  0  0  0
   -1.4779    1.1890   -0.1771 C   0  0  0  0  0  0  0  0  0  0  0  0
   -2.6886    1.6762   -0.6361 C   0  0  0  0  0  0  0  0  0  0  0  0
   -3.0147    2.8316   -1.2883 C   0  0  0  0  0  0  0  0  0  0  0  0
   -4.3320    3.1012   -1.6532 C   0  0  0  0  0  0  0  0  0  0  0  0
   -5.3445    2.2076   -1.3654 C   0  0  0  0  0  0  0  0  0  0  0  0
   -4.9948    1.0392   -0.7024 C   0  0  0  0  0  0  0  0  0  0  0  0
   -3.6841    0.7675   -0.3376 C   0  0  0  0  0  0  0  0  0  0  0  0
   -0.1087    1.7570   -0.2357 C   0  0  0  0  0  0  0  0  0  0  0  0
    0.8186    0.6580   -0.0544 N   0  0  0  0  0  0  0  0  0  0  0  0
    1.8788    0.4859   -0.9625 C   0  0  0  0  0  0  0  0  0  0  0  0
    2.0252    1.2765   -1.9256 O   0  0  0  0  0  0  0  0  0  0  0  0
    2.7789   -0.6357   -0.7302 C   0  0  0  0  0  0  0  0  0  0  0  0
    2.5160   -1.8643   -1.2950 C   0  0  0  0  0  0  0  0  0  0  0  0
    3.4141   -2.9067   -1.0386 C   0  0  0  0  0  0  0  0  0  0  0  0
    4.5293   -2.7257   -0.2491 C   0  0  0  0  0  0  0  0  0  0  0  0
    4.7860   -1.4849    0.3155 C   0  0  0  0  0  0  0  0  0  0  0  0
    5.8866   -1.2507    1.1123 C   0  0  0  0  0  0  0  0  0  0  0  0
    6.1010   -0.0061    1.6504 C   0  0  0  0  0  0  0  0  0  0  0  0
    5.2160    0.9889    1.3876 C   0  0  0  0  0  0  0  0  0  0  0  0
    4.1055    0.7992    0.5984 C   0  0  0  0  0  0  0  0  0  0  0  0
    3.8958   -0.4483    0.0625 C   0  0  0  0  0  0  0  0  0  0  0  0
    0.5850   -0.2124    1.0800 C   0  0  0  0  0  0  0  0  0  0  0  0
   -0.7447   -0.9018    1.0277 C   0  0  0  0  0  0  0  0  0  0  0  0
   -6.0167   -0.9499    3.3178 H   0  0  0  0  0  0  0  0  0  0  0  0
   -4.6632   -1.6845    0.0826 H   0  0  0  0  0  0  0  0  0  0  0  0
   -3.1210   -2.2754    0.7420 H   0  0  0  0  0  0  0  0  0  0  0  0
   -2.2134    3.5292   -1.5111 H   0  0  0  0  0  0  0  0  0  0  0  0
   -4.5566    4.0117   -2.1616 H   0  0  0  0  0  0  0  0  0  0  0  0
   -6.3738    2.3543   -1.6175 H   0  0  0  0  0  0  0  0  0  0  0  0
   -5.7423    0.3150   -0.4567 H   0  0  0  0  0  0  0  0  0  0  0  0
    0.0258    2.4895    0.5964 H   0  0  0  0  0  0  0  0  0  0  0  0
    0.0339    2.2706   -1.2059 H   0  0  0  0  0  0  0  0  0  0  0  0
    1.6409   -2.0046   -1.9139 H   0  0  0  0  0  0  0  0  0  0  0  0
    3.1915   -3.8487   -1.4855 H   0  0  0  0  0  0  0  0  0  0  0  0
    5.2311   -3.5253   -0.0441 H   0  0  0  0  0  0  0  0  0  0  0  0
    6.5627   -2.0684    1.2948 H   0  0  0  0  0  0  0  0  0  0  0  0
    6.9867    0.1595    2.2844 H   0  0  0  0  0  0  0  0  0  0  0  0
    5.4078    1.9631    1.8245 H   0  0  0  0  0  0  0  0  0  0  0  0
    3.4074    1.6094    0.3991 H   0  0  0  0  0  0  0  0  0  0  0  0
    0.6236    0.4236    1.9934 H   0  0  0  0  0  0  0  0  0  0  0  0
    1.4050   -0.9591    1.1948 H   0  0  0  0  0  0  0  0  0  0  0  0
   -0.7029   -1.8521    0.4393 H   0  0  0  0  0  0  0  0  0  0  0  0
   -1.0979   -1.1312    2.0577 H   0  0  0  0  0  0  0  0  0  0  0  0
  1  2  2  0
  2  3  1  0
  2  4  1  0
  4  5  1  0
  5  6  1  0
  6  7  2  0
  7  8  1  0
  8  9  2  0
  9 10  1  0
 10 11  2  0
 11 12  1  0
 12 13  2  0
  7 14  1  0
 14 15  1  0
 15 16  1  0
 16 17  2  0
 16 18  1  0
 18 19  2  0
 19 20  1  0
 20 21  2  0
 21 22  1  0
 22 23  2  0
 23 24  1  0
 24 25  2  0
 25 26  1  0
 26 27  2  0
 15 28  1  0
 28 29  1  0
 13  5  1  0
 27 18  1  0
 29  6  1  0
 13  8  1  0
 27 22  1  0
  3 30  1  0
  4 31  1  0
  4 32  1  0
  9 33  1  0
 10 34  1  0
 11 35  1  0
 12 36  1  0
 14 37  1  0
 14 38  1  0
 19 39  1  0
 20 40  1  0
 21 41  1  0
 23 42  1  0
 24 43  1  0
 25 44  1  0
 26 45  1  0
 28 46  1  0
 28 47  1  0
 29 48  1  0
 29 49  1  0
M  END
$$$$
