
     RDKit          3D

 55 59  0  0  0  0  0  0  0  0999 V2000
    1.2904    4.1052   -0.3465 O   0  0  0  0  0  0  0  0  0  0  0  0
    1.1260    2.9798    0.2034 C   0  0  0  0  0  0  0  0  0  0  0  0
   -0.1412    2.7169    0.8686 C   0  0  0  0  0  0  0  0  0  0  0  0
   -1.1968    2.1635    0.1691 C   0  0  0  0  0  0  0  0  0  0  0  0
   -2.4131    1.9019    0.7602 C   0  0  0  0  0  0  0  0  0  0  0  0
   -3.5803    1.3144    0.0711 C   0  0  0  0  0  0  0  0  0  0  0  0
   -3.6284   -0.1541    0.1315 C   0  0  0  0  0  0  0  0  0  0  0  0
   -2.6703   -0.8691    0.7355 N   0  0  0  0  0  0  0  0  0  0  0  0
   -2.7627   -2.1694    0.7602 N   0  0  0  0  0  0  0  0  0  0  0  0
   -3.7629   -2.8699    0.2154 C   0  0  0  0  0  0  0  0  0  0  0  0
   -3.8340   -4.1206    0.2477 O   0  0  0  0  0  0  0  0  0  0  0  0
   -4.7737   -2.1759   -0.4187 C   0  0  0  0  0  0  0  0  0  0  0  0
   -5.8392   -2.8142   -1.0054 C   0  0  0  0  0  0  0  0  0  0  0  0
   -6.8542   -2.1376   -1.6421 C   0  0  0  0  0  0  0  0  0  0  0  0
   -6.7780   -0.7624   -1.6790 C   0  0  0  0  0  0  0  0  0  0  0  0
   -5.7109   -0.1140   -1.0916 C   0  0  0  0  0  0  0  0  0  0  0  0
   -4.6904   -0.8038   -0.4521 C   0  0  0  0  0  0  0  0  0  0  0  0
   -2.5381    2.2208    2.1074 C   0  0  0  0  0  0  0  0  0  0  0  0
   -1.4815    2.7727    2.8042 C   0  0  0  0  0  0  0  0  0  0  0  0
   -0.2647    3.0335    2.2084 C   0  0  0  0  0  0  0  0  0  0  0  0
    0.7786    3.5779    2.8898 F   0  0  0  0  0  0  0  0  0  0  0  0
    2.1626    2.0441    0.1482 N   0  0  0  0  0  0  0  0  0  0  0  0
    3.4120    2.3822   -0.5398 C   0  0  0  0  0  0  0  0  0  0  0  0
    4.5690    1.6103    0.0582 C   0  0  0  0  0  0  0  0  0  0  0  0
    4.2705    0.1879   -0.1428 N   0  0  0  0  0  0  0  0  0  0  0  0
    5.3048   -0.7193   -0.4307 C   0  0  0  0  0  0  0  0  0  0  0  0
    6.4833   -0.3064   -0.5054 O   0  0  0  0  0  0  0  0  0  0  0  0
    5.0261   -2.1473   -0.6478 C   0  0  0  0  0  0  0  0  0  0  0  0
    5.8630   -2.9261   -1.6203 C   0  0  0  0  0  0  0  0  0  0  0  0
    5.9902   -3.1660   -0.1337 C   0  0  0  0  0  0  0  0  0  0  0  0
    2.9088   -0.3079   -0.0384 C   0  0  0  0  0  0  0  0  0  0  0  0
    2.1117    0.7236    0.7341 C   0  0  0  0  0  0  0  0  0  0  0  0
   -1.1116    1.9091   -0.8905 H   0  0  0  0  0  0  0  0  0  0  0  0
   -4.5426    1.6903    0.4913 H   0  0  0  0  0  0  0  0  0  0  0  0
   -3.6161    1.6038   -1.0118 H   0  0  0  0  0  0  0  0  0  0  0  0
   -2.0037   -2.7283    1.2387 H   0  0  0  0  0  0  0  0  0  0  0  0
   -5.8756   -3.8999   -0.9629 H   0  0  0  0  0  0  0  0  0  0  0  0
   -7.6891   -2.6840   -2.0961 H   0  0  0  0  0  0  0  0  0  0  0  0
   -7.5405   -0.1963   -2.1623 H   0  0  0  0  0  0  0  0  0  0  0  0
   -5.6476    0.9641   -1.1171 H   0  0  0  0  0  0  0  0  0  0  0  0
   -3.4985    2.0169    2.5915 H   0  0  0  0  0  0  0  0  0  0  0  0
   -1.5946    3.0200    3.8671 H   0  0  0  0  0  0  0  0  0  0  0  0
    3.2976    2.0418   -1.5884 H   0  0  0  0  0  0  0  0  0  0  0  0
    3.5939    3.4690   -0.5629 H   0  0  0  0  0  0  0  0  0  0  0  0
    4.7501    1.8569    1.1116 H   0  0  0  0  0  0  0  0  0  0  0  0
    5.4655    1.8318   -0.5559 H   0  0  0  0  0  0  0  0  0  0  0  0
    3.9358   -2.4193   -0.5997 H   0  0  0  0  0  0  0  0  0  0  0  0
    6.7059   -2.4276   -2.1452 H   0  0  0  0  0  0  0  0  0  0  0  0
    5.4389   -3.7572   -2.1863 H   0  0  0  0  0  0  0  0  0  0  0  0
    6.9000   -2.7506    0.3360 H   0  0  0  0  0  0  0  0  0  0  0  0
    5.5360   -4.0785    0.3052 H   0  0  0  0  0  0  0  0  0  0  0  0
    2.9862   -1.1913    0.6650 H   0  0  0  0  0  0  0  0  0  0  0  0
    2.4672   -0.5850   -0.9923 H   0  0  0  0  0  0  0  0  0  0  0  0
    1.0670    0.3625    0.8085 H   0  0  0  0  0  0  0  0  0  0  0  0
    2.5989    0.7807    1.7518 H   0  0  0  0  0  0  0  0  0  0  0  0
  1  2  2  0
  2  3  1  0
  3  4  2  0
  4  5  1  0
  5  6  1  0
  6  7  1  0
  7  8  2  0
  8  9  1  0
  9 10  1  0
 10 11  2  0
 10 12  1  0
 12 13  2  0
 13 14  1  0
 14 15  2  0
 15 16  1  0
 16 17  2  0
  5 18  2  0
 18 19  1  0
 19 20  2  0
 20 21  1  0
  2 22  1  0
 22 23  1  0
 23 24  1  0
 24 25  1  0
 25 26  1  0
 26 27  2  0
 26 28  1  0
 28 29  1  0
 29 30  1  0
 25 31  1  0
 31 32  1  0
 20  3  1  0
 32 22  1  0
 17  7  1  0
 30 28  1  0
 17 12  1  0
  4 33  1  0
  6 34  1  0
  6 35  1  0
  9 36  1  0
 13 37  1  0
 14 38  1  0
 15 39  1  0
 16 40  1  0
 18 41  1  0
 19 42  1  0
 23 43  1  0
 23 44  1  0
 24 45  1  0
 24 46  1  0
 28 47  1  0
 29 48  1  0
 29 49  1  0
 30 50  1  0
 30 51  1  0
 31 52  1  0
 31 53  1  0
 32 54  1  0
 32 55  1  0
M  END
$$$$
