
     RDKit          3D

 37 39  0  0  0  0  0  0  0  0999 V2000
   -3.8799   -2.9291   -0.0799 C   0  0  0  0  0  0  0  0  0  0  0  0
   -2.9619   -1.7533    0.0784 C   0  0  0  0  0  0  0  0  0  0  0  0
   -1.7296   -1.7344    0.6150 N   0  0  0  0  0  0  0  0  0  0  0  0
   -1.2107   -0.5212    0.5904 N   0  0  0  0  0  0  0  0  0  0  0  0
    0.0830   -0.1179    1.0740 C   0  0  0  0  0  0  0  0  0  0  0  0
    0.2609    0.4199    2.3317 C   0  0  0  0  0  0  0  0  0  0  0  0
    1.4667    0.7985    2.7894 N   0  0  0  0  0  0  0  0  0  0  0  0
    2.5761    0.6641    2.0179 C   0  0  0  0  0  0  0  0  0  0  0  0
    2.4421    0.1314    0.7549 C   0  0  0  0  0  0  0  0  0  0  0  0
    3.6272   -0.0328   -0.1340 C   0  0  2  0  0  0  0  0  0  0  0  0
    3.2152   -0.7005   -1.4334 C   0  0  0  0  0  0  0  0  0  0  0  0
    4.5711   -0.8358    0.4759 O   0  0  0  0  0  0  0  0  0  0  0  0
    4.2705    1.3121   -0.4441 C   0  0  0  0  0  0  0  0  0  0  0  0
    3.3978    2.1682   -1.0751 F   0  0  0  0  0  0  0  0  0  0  0  0
    4.7784    1.8492    0.6988 F   0  0  0  0  0  0  0  0  0  0  0  0
    5.3435    1.0140   -1.2954 F   0  0  0  0  0  0  0  0  0  0  0  0
    1.1943   -0.2613    0.2793 C   0  0  0  0  0  0  0  0  0  0  0  0
   -2.1336    0.2727    0.0206 C   0  0  0  0  0  0  0  0  0  0  0  0
   -2.0818    1.6245   -0.2375 C   0  0  0  0  0  0  0  0  0  0  0  0
   -3.1633    2.2163   -0.8348 C   0  0  0  0  0  0  0  0  0  0  0  0
   -4.2785    1.4769   -1.1703 C   0  0  0  0  0  0  0  0  0  0  0  0
   -4.3537    0.1216   -0.9217 C   0  0  0  0  0  0  0  0  0  0  0  0
   -3.2550   -0.4585   -0.3192 C   0  0  0  0  0  0  0  0  0  0  0  0
   -3.3523   -3.8384    0.2635 H   0  0  0  0  0  0  0  0  0  0  0  0
   -4.0831   -3.0428   -1.1518 H   0  0  0  0  0  0  0  0  0  0  0  0
   -4.7955   -2.8137    0.5327 H   0  0  0  0  0  0  0  0  0  0  0  0
   -0.6050    0.5381    2.9667 H   0  0  0  0  0  0  0  0  0  0  0  0
    3.5494    0.9635    2.3812 H   0  0  0  0  0  0  0  0  0  0  0  0
    4.1573   -0.8697   -2.0011 H   0  0  0  0  0  0  0  0  0  0  0  0
    2.5197   -0.0619   -2.0035 H   0  0  0  0  0  0  0  0  0  0  0  0
    2.7856   -1.6789   -1.1818 H   0  0  0  0  0  0  0  0  0  0  0  0
    5.2133   -0.2405    0.9479 H   0  0  0  0  0  0  0  0  0  0  0  0
    1.0789   -0.6798   -0.7087 H   0  0  0  0  0  0  0  0  0  0  0  0
   -1.1973    2.1893    0.0331 H   0  0  0  0  0  0  0  0  0  0  0  0
   -3.1017    3.2934   -1.0316 H   0  0  0  0  0  0  0  0  0  0  0  0
   -5.1235    1.9864   -1.6468 H   0  0  0  0  0  0  0  0  0  0  0  0
   -5.2244   -0.4697   -1.1806 H   0  0  0  0  0  0  0  0  0  0  0  0
  1  2  1  0
  2  3  2  0
  3  4  1  0
  4  5  1  0
  5  6  2  0
  6  7  1  0
  7  8  2  0
  8  9  1  0
  9 10  1  0
 10 11  1  0
 10 12  1  1
 10 13  1  0
 13 14  1  0
 13 15  1  0
 13 16  1  0
  9 17  2  0
  4 18  1  0
 18 19  2  0
 19 20  1  0
 20 21  2  0
 21 22  1  0
 22 23  2  0
 23  2  1  0
 17  5  1  0
 23 18  1  0
  1 24  1  0
  1 25  1  0
  1 26  1  0
  6 27  1  0
  8 28  1  0
 11 29  1  0
 11 30  1  0
 11 31  1  0
 12 32  1  0
 17 33  1  0
 19 34  1  0
 20 35  1  0
 21 36  1  0
 22 37  1  0
M  END
$$$$
