
     RDKit          3D

 50 54  0  0  0  0  0  0  0  0999 V2000
    6.3063    1.0532   -1.2516 O   0  0  0  0  0  0  0  0  0  0  0  0
    5.1438    0.7336   -0.8816 C   0  0  0  0  0  0  0  0  0  0  0  0
    3.9020    1.2185   -1.3897 N   0  0  0  0  0  0  0  0  0  0  0  0
    2.8169    0.6248   -0.7159 C   0  0  0  0  0  0  0  0  0  0  0  0
    1.4187    0.7191   -0.7931 C   0  0  0  0  0  0  0  0  0  0  0  0
    0.6202   -0.0251    0.0381 C   0  0  0  0  0  0  0  0  0  0  0  0
   -0.8186    0.0676   -0.0336 N   0  0  0  0  0  0  0  0  0  0  0  0
   -1.5096    1.0047    0.7654 C   0  0  0  0  0  0  0  0  0  0  0  0
   -0.7678    1.7380    1.5311 O   0  0  0  0  0  0  0  0  0  0  0  0
   -2.9501    1.2023    0.7920 C   0  0  0  0  0  0  0  0  0  0  0  0
   -3.4906    2.1759    1.6504 C   0  0  0  0  0  0  0  0  0  0  0  0
   -4.8127    2.3798    1.7026 N   0  0  0  0  0  0  0  0  0  0  0  0
   -5.6771    1.6641    0.9379 C   0  0  0  0  0  0  0  0  0  0  0  0
   -5.2094    0.6999    0.0802 C   0  0  0  0  0  0  0  0  0  0  0  0
   -6.1544   -0.0520   -0.7326 C   0  0  0  0  0  0  0  0  0  0  0  0
   -6.6955   -1.2325   -0.2542 C   0  0  0  0  0  0  0  0  0  0  0  0
   -7.5968   -1.9930   -0.9677 C   0  0  0  0  0  0  0  0  0  0  0  0
   -7.9679   -1.5315   -2.2320 C   0  0  0  0  0  0  0  0  0  0  0  0
   -7.4476   -0.3568   -2.7413 C   0  0  0  0  0  0  0  0  0  0  0  0
   -6.5546    0.3546   -1.9822 C   0  0  0  0  0  0  0  0  0  0  0  0
   -6.0509    1.5008   -2.4878 F   0  0  0  0  0  0  0  0  0  0  0  0
   -3.8310    0.4856    0.0245 C   0  0  0  0  0  0  0  0  0  0  0  0
   -3.4773   -0.4094   -0.7800 O   0  0  0  0  0  0  0  0  0  0  0  0
    1.1759   -0.8764    0.9618 C   0  0  0  0  0  0  0  0  0  0  0  0
    2.5499   -0.9910    1.0620 C   0  0  0  0  0  0  0  0  0  0  0  0
    3.3414   -0.2276    0.2097 C   0  0  0  0  0  0  0  0  0  0  0  0
    4.8219   -0.2090    0.1592 C   0  0  0  0  0  0  0  0  0  0  0  0
    5.6327   -0.9098    0.8867 C   0  0  0  0  0  0  0  0  0  0  0  0
    7.0873   -0.8738    0.7745 C   0  0  0  0  0  0  0  0  0  0  0  0
    7.9528   -0.6716    1.8424 C   0  0  0  0  0  0  0  0  0  0  0  0
    9.2310   -0.7496    1.3570 C   0  0  0  0  0  0  0  0  0  0  0  0
    9.1496   -0.9953    0.0160 C   0  0  0  0  0  0  0  0  0  0  0  0
    7.8495   -1.0660   -0.3084 N   0  0  0  0  0  0  0  0  0  0  0  0
    3.8452    1.9184   -2.1577 H   0  0  0  0  0  0  0  0  0  0  0  0
    1.0271    1.3901   -1.5214 H   0  0  0  0  0  0  0  0  0  0  0  0
   -1.3361   -0.5625   -0.6789 H   0  0  0  0  0  0  0  0  0  0  0  0
   -2.7890    2.7343    2.2493 H   0  0  0  0  0  0  0  0  0  0  0  0
   -5.1845    3.1160    2.3560 H   0  0  0  0  0  0  0  0  0  0  0  0
   -6.7503    1.8467    0.9960 H   0  0  0  0  0  0  0  0  0  0  0  0
   -6.3863   -1.5710    0.7405 H   0  0  0  0  0  0  0  0  0  0  0  0
   -8.0194   -2.9300   -0.5734 H   0  0  0  0  0  0  0  0  0  0  0  0
   -8.6662   -2.1161   -2.7910 H   0  0  0  0  0  0  0  0  0  0  0  0
   -7.7652   -0.0350   -3.7310 H   0  0  0  0  0  0  0  0  0  0  0  0
    0.5785   -1.4765    1.6315 H   0  0  0  0  0  0  0  0  0  0  0  0
    2.9418   -1.6636    1.7931 H   0  0  0  0  0  0  0  0  0  0  0  0
    5.2402   -1.5779    1.6387 H   0  0  0  0  0  0  0  0  0  0  0  0
    7.6055   -0.4905    2.8467 H   0  0  0  0  0  0  0  0  0  0  0  0
   10.1530   -0.6330    1.9499 H   0  0  0  0  0  0  0  0  0  0  0  0
    9.9906   -1.1165   -0.6841 H   0  0  0  0  0  0  0  0  0  0  0  0
    7.5270   -1.2693   -1.3040 H   0  0  0  0  0  0  0  0  0  0  0  0
  1  2  2  0
  2  3  1  0
  3  4  1  0
  4  5  2  0
  5  6  1  0
  6  7  1  0
  7  8  1  0
  8  9  2  0
  8 10  1  0
 10 11  2  0
 11 12  1  0
 12 13  1  0
 13 14  2  0
 14 15  1  0
 15 16  2  0
 16 17  1  0
 17 18  2  0
 18 19  1  0
 19 20  2  0
 20 21  1  0
 14 22  1  0
 22 23  2  0
  6 24  2  0
 24 25  1  0
 25 26  2  0
 26 27  1  0
 27 28  2  0
 28 29  1  0
 29 30  2  0
 30 31  1  0
 31 32  2  0
 32 33  1  0
 27  2  1  0
 33 29  1  0
 26  4  1  0
 22 10  1  0
 20 15  1  0
  3 34  1  0
  5 35  1  0
  7 36  1  0
 11 37  1  0
 12 38  1  0
 13 39  1  0
 16 40  1  0
 17 41  1  0
 18 42  1  0
 19 43  1  0
 24 44  1  0
 25 45  1  0
 28 46  1  0
 30 47  1  0
 31 48  1  0
 32 49  1  0
 33 50  1  0
M  END
$$$$
