
     RDKit          3D

 66 69  0  0  0  0  0  0  0  0999 V2000
    3.3339   -4.6960    1.0634 C   0  0  0  0  0  0  0  0  0  0  0  0
    2.2167   -4.9896    0.1258 C   0  0  0  0  0  0  0  0  0  0  0  0
    2.7721   -5.6258   -1.1393 C   0  0  0  0  0  0  0  0  0  0  0  0
    1.5866   -3.7261   -0.3015 N   0  0  0  0  0  0  0  0  0  0  0  0
    0.1839   -3.5814   -0.2251 C   0  0  0  0  0  0  0  0  0  0  0  0
   -0.4357   -4.6141    0.2287 O   0  0  0  0  0  0  0  0  0  0  0  0
   -0.5517   -2.4240   -0.6004 N   0  0  0  0  0  0  0  0  0  0  0  0
    0.1089   -1.2489   -1.0827 C   0  0  0  0  0  0  0  0  0  0  0  0
    0.9099   -0.5044   -0.1052 C   0  0  0  0  0  0  0  0  0  0  0  0
    0.5275   -0.3807    1.2032 C   0  0  0  0  0  0  0  0  0  0  0  0
    1.2756    0.4244    2.0482 C   0  0  0  0  0  0  0  0  0  0  0  0
    2.3824    1.0925    1.5858 C   0  0  0  0  0  0  0  0  0  0  0  0
    2.7860    0.9845    0.2643 C   0  0  0  0  0  0  0  0  0  0  0  0
    3.8897    1.7907   -0.2733 C   0  0  0  0  0  0  0  0  0  0  0  0
    4.8013    2.4574   -0.7093 C   0  0  0  0  0  0  0  0  0  0  0  0
    5.8978    3.2334   -1.2272 C   0  0  0  0  0  0  0  0  0  0  0  0
    6.3740    4.3339   -0.4955 C   0  0  0  0  0  0  0  0  0  0  0  0
    7.4300    5.0868   -0.9985 C   0  0  0  0  0  0  0  0  0  0  0  0
    8.0207    4.7887   -2.1894 C   0  0  0  0  0  0  0  0  0  0  0  0
    9.3520    5.7882   -2.7761 Cl  0  0  0  0  0  0  0  0  0  0  0  0
    7.5658    3.7150   -2.9140 C   0  0  0  0  0  0  0  0  0  0  0  0
    6.5247    2.9737   -2.4153 C   0  0  0  0  0  0  0  0  0  0  0  0
    2.0615    0.1961   -0.5619 C   0  0  0  0  0  0  0  0  0  0  0  0
   -1.9765   -2.4983   -0.5719 C   0  0  0  0  0  0  0  0  0  0  0  0
   -2.7193   -1.9283    0.5171 C   0  0  0  0  0  0  0  0  0  0  0  0
   -2.6858   -2.4865    1.7769 C   0  0  0  0  0  0  0  0  0  0  0  0
   -3.5040   -1.9496    2.7442 C   0  0  0  0  0  0  0  0  0  0  0  0
   -4.3293   -0.8953    2.4637 C   0  0  0  0  0  0  0  0  0  0  0  0
   -4.3930   -0.3030    1.2006 C   0  0  0  0  0  0  0  0  0  0  0  0
   -5.3426    0.7467    0.9891 C   0  0  0  0  0  0  0  0  0  0  0  0
   -6.1367    1.6454    0.8259 C   0  0  0  0  0  0  0  0  0  0  0  0
   -7.0979    2.7157    0.6172 C   0  0  0  0  0  0  0  0  0  0  0  0
   -7.4419    3.2104   -0.6096 C   0  0  0  0  0  0  0  0  0  0  0  0
   -8.3865    4.2339   -0.7496 C   0  0  0  0  0  0  0  0  0  0  0  0
   -8.9896    4.7622    0.3582 C   0  0  0  0  0  0  0  0  0  0  0  0
   -8.6310    4.2509    1.5981 C   0  0  0  0  0  0  0  0  0  0  0  0
   -7.7211    3.2703    1.6901 N   0  0  0  0  0  0  0  0  0  0  0  0
   -3.5718   -0.8450    0.2504 C   0  0  0  0  0  0  0  0  0  0  0  0
    3.3550   -3.6428    1.4148 H   0  0  0  0  0  0  0  0  0  0  0  0
    4.2869   -4.8846    0.5697 H   0  0  0  0  0  0  0  0  0  0  0  0
    3.2127   -5.3052    2.0006 H   0  0  0  0  0  0  0  0  0  0  0  0
    1.4718   -5.6605    0.5865 H   0  0  0  0  0  0  0  0  0  0  0  0
    1.8990   -6.0355   -1.7075 H   0  0  0  0  0  0  0  0  0  0  0  0
    3.4354   -6.4800   -0.9018 H   0  0  0  0  0  0  0  0  0  0  0  0
    3.2133   -4.8419   -1.7510 H   0  0  0  0  0  0  0  0  0  0  0  0
    2.1468   -2.9389   -0.6609 H   0  0  0  0  0  0  0  0  0  0  0  0
    0.8205   -1.5305   -1.9271 H   0  0  0  0  0  0  0  0  0  0  0  0
   -0.5856   -0.5214   -1.5798 H   0  0  0  0  0  0  0  0  0  0  0  0
   -0.3496   -0.9101    1.6059 H   0  0  0  0  0  0  0  0  0  0  0  0
    0.9878    0.5294    3.0845 H   0  0  0  0  0  0  0  0  0  0  0  0
    2.9920    1.7306    2.2405 H   0  0  0  0  0  0  0  0  0  0  0  0
    5.8831    4.5405    0.4390 H   0  0  0  0  0  0  0  0  0  0  0  0
    7.8026    5.9446   -0.4217 H   0  0  0  0  0  0  0  0  0  0  0  0
    8.0032    3.4559   -3.8486 H   0  0  0  0  0  0  0  0  0  0  0  0
    6.1371    2.1073   -2.9753 H   0  0  0  0  0  0  0  0  0  0  0  0
    2.3632    0.0964   -1.5814 H   0  0  0  0  0  0  0  0  0  0  0  0
   -2.3924   -2.0622   -1.5371 H   0  0  0  0  0  0  0  0  0  0  0  0
   -2.2573   -3.6074   -0.6510 H   0  0  0  0  0  0  0  0  0  0  0  0
   -2.0274   -3.3383    2.0140 H   0  0  0  0  0  0  0  0  0  0  0  0
   -3.4695   -2.3900    3.7347 H   0  0  0  0  0  0  0  0  0  0  0  0
   -4.9841   -0.4692    3.2387 H   0  0  0  0  0  0  0  0  0  0  0  0
   -6.9674    2.7992   -1.4931 H   0  0  0  0  0  0  0  0  0  0  0  0
   -8.6597    4.6283   -1.7175 H   0  0  0  0  0  0  0  0  0  0  0  0
   -9.7316    5.5567    0.3017 H   0  0  0  0  0  0  0  0  0  0  0  0
   -9.0620    4.6178    2.5148 H   0  0  0  0  0  0  0  0  0  0  0  0
   -3.6101   -0.3919   -0.7389 H   0  0  0  0  0  0  0  0  0  0  0  0
  1  2  1  0
  2  3  1  0
  2  4  1  0
  4  5  1  0
  5  6  2  0
  5  7  1  0
  7  8  1  0
  8  9  1  0
  9 10  2  0
 10 11  1  0
 11 12  2  0
 12 13  1  0
 13 14  1  0
 14 15  3  0
 15 16  1  0
 16 17  2  0
 17 18  1  0
 18 19  2  0
 19 20  1  0
 19 21  1  0
 21 22  2  0
 13 23  2  0
  7 24  1  0
 24 25  1  0
 25 26  2  0
 26 27  1  0
 27 28  2  0
 28 29  1  0
 29 30  1  0
 30 31  3  0
 31 32  1  0
 32 33  2  0
 33 34  1  0
 34 35  2  0
 35 36  1  0
 36 37  2  0
 29 38  2  0
 23  9  1  0
 38 25  1  0
 22 16  1  0
 37 32  1  0
  1 39  1  0
  1 40  1  0
  1 41  1  0
  2 42  1  0
  3 43  1  0
  3 44  1  0
  3 45  1  0
  4 46  1  0
  8 47  1  0
  8 48  1  0
 10 49  1  0
 11 50  1  0
 12 51  1  0
 17 52  1  0
 18 53  1  0
 21 54  1  0
 22 55  1  0
 23 56  1  0
 24 57  1  0
 24 58  1  0
 26 59  1  0
 27 60  1  0
 28 61  1  0
 33 62  1  0
 34 63  1  0
 35 64  1  0
 36 65  1  0
 38 66  1  0
M  END
$$$$
