
     RDKit          3D

 33 35  0  0  0  0  0  0  0  0999 V2000
    4.3521    2.6093   -1.2241 C   0  0  0  0  0  0  0  0  0  0  0  0
    3.6527    1.3392   -1.2015 N   0  0  0  0  0  0  0  0  0  0  0  0
    3.3815    0.7121    0.0237 C   0  0  0  0  0  0  0  0  0  0  0  0
    3.7708    1.2974    1.0899 O   0  0  0  0  0  0  0  0  0  0  0  0
    2.6912   -0.5547    0.1637 C   0  0  0  0  0  0  0  0  0  0  0  0
    3.3294   -1.7668    0.3115 C   0  0  0  0  0  0  0  0  0  0  0  0
    2.5153   -2.8366    0.4263 N   0  0  0  0  0  0  0  0  0  0  0  0
    1.1816   -2.7938    0.4064 C   0  0  0  0  0  0  0  0  0  0  0  0
    0.5095   -4.0370    0.5434 N   0  0  0  0  0  0  0  0  0  0  0  0
    0.4845   -1.5702    0.2567 C   0  0  0  0  0  0  0  0  0  0  0  0
   -0.8513   -1.3857    0.2197 C   0  0  0  0  0  0  0  0  0  0  0  0
   -1.3411   -0.1275    0.0674 C   0  0  0  0  0  0  0  0  0  0  0  0
   -2.6701    0.4504   -0.0141 C   0  0  0  0  0  0  0  0  0  0  0  0
   -3.7557   -0.3536    0.0679 C   0  0  0  0  0  0  0  0  0  0  0  0
   -5.0380    0.2023   -0.0117 C   0  0  0  0  0  0  0  0  0  0  0  0
   -5.1851    1.5643   -0.1733 C   0  0  0  0  0  0  0  0  0  0  0  0
   -4.0467    2.3727   -0.2553 C   0  0  0  0  0  0  0  0  0  0  0  0
   -2.8034    1.7902   -0.1728 C   0  0  0  0  0  0  0  0  0  0  0  0
    0.2161    0.8472   -0.0278 S   0  0  0  0  0  0  0  0  0  0  0  0
    1.2850   -0.4876    0.1400 C   0  0  0  0  0  0  0  0  0  0  0  0
    5.4590    2.4814   -1.2682 H   0  0  0  0  0  0  0  0  0  0  0  0
    3.9865    3.2263   -2.0941 H   0  0  0  0  0  0  0  0  0  0  0  0
    4.0456    3.1959   -0.3233 H   0  0  0  0  0  0  0  0  0  0  0  0
    3.3319    0.8544   -2.0882 H   0  0  0  0  0  0  0  0  0  0  0  0
    4.3900   -1.8052    0.3286 H   0  0  0  0  0  0  0  0  0  0  0  0
    0.7314   -4.7331    1.2893 H   0  0  0  0  0  0  0  0  0  0  0  0
   -0.2649   -4.3249   -0.1169 H   0  0  0  0  0  0  0  0  0  0  0  0
   -1.5921   -2.2434    0.3110 H   0  0  0  0  0  0  0  0  0  0  0  0
   -3.6414   -1.4057    0.1913 H   0  0  0  0  0  0  0  0  0  0  0  0
   -5.9190   -0.4212    0.0511 H   0  0  0  0  0  0  0  0  0  0  0  0
   -6.1389    2.0573   -0.2419 H   0  0  0  0  0  0  0  0  0  0  0  0
   -4.1487    3.4424   -0.3828 H   0  0  0  0  0  0  0  0  0  0  0  0
   -1.9177    2.4042   -0.2354 H   0  0  0  0  0  0  0  0  0  0  0  0
  1  2  1  0
  2  3  1  0
  3  4  2  0
  3  5  1  0
  5  6  2  0
  6  7  1  0
  7  8  2  0
  8  9  1  0
  8 10  1  0
 10 11  1  0
 11 12  2  0
 12 13  1  0
 13 14  2  0
 14 15  1  0
 15 16  2  0
 16 17  1  0
 17 18  2  0
 12 19  1  0
 19 20  1  0
 20  5  1  0
 20 10  2  0
 18 13  1  0
  1 21  1  0
  1 22  1  0
  1 23  1  0
  2 24  1  0
  6 25  1  0
  9 26  1  0
  9 27  1  0
 11 28  1  0
 14 29  1  0
 15 30  1  0
 16 31  1  0
 17 32  1  0
 18 33  1  0
M  END
$$$$
