
     RDKit          3D

 61 66  0  0  0  0  0  0  0  0999 V2000
   10.3262   -1.4385   -1.9676 C   0  0  0  0  0  0  0  0  0  0  0  0
    9.5299   -0.3401   -1.6389 O   0  0  0  0  0  0  0  0  0  0  0  0
    8.2899   -0.4150   -1.0790 C   0  0  0  0  0  0  0  0  0  0  0  0
    7.5721    0.7202   -0.7866 C   0  0  0  0  0  0  0  0  0  0  0  0
    6.3449    0.6235   -0.2318 N   0  0  0  0  0  0  0  0  0  0  0  0
    5.7892   -0.5707    0.0504 C   0  0  0  0  0  0  0  0  0  0  0  0
    4.4653   -0.6615    0.6483 C   0  0  0  0  0  0  0  0  0  0  0  0
    3.9589   -1.7684    0.9062 O   0  0  0  0  0  0  0  0  0  0  0  0
    3.7411    0.5136    0.9422 N   0  0  0  0  0  0  0  0  0  0  0  0
    2.4232    0.4631    1.5365 C   0  0  0  0  0  0  0  0  0  0  0  0
    2.2519    0.4673    2.8931 C   0  0  0  0  0  0  0  0  0  0  0  0
    0.9685    0.4173    3.3873 C   0  0  0  0  0  0  0  0  0  0  0  0
   -0.1496    0.3630    2.5401 C   0  0  0  0  0  0  0  0  0  0  0  0
    0.0017    0.3583    1.1775 C   0  0  0  0  0  0  0  0  0  0  0  0
    1.3265    0.4101    0.7131 C   0  0  0  0  0  0  0  0  0  0  0  0
   -1.1198    0.3094    0.1973 C   0  0  0  0  0  0  0  0  0  0  0  0
   -1.2269    1.5973   -0.5779 C   0  0  0  0  0  0  0  0  0  0  0  0
   -0.4152    1.7317   -1.7983 C   0  0  0  0  0  0  0  0  0  0  0  0
   -0.2173    0.2375   -2.7652 S   0  0  0  0  0  0  0  0  0  0  0  0
   -0.7947   -1.1042   -1.7691 C   0  0  0  0  0  0  0  0  0  0  0  0
   -0.8784   -2.3877   -2.3303 N   0  0  0  0  0  0  0  0  0  0  0  0
   -1.1190   -0.8834   -0.5784 N   0  0  0  0  0  0  0  0  0  0  0  0
   -2.4036    0.2516    0.9755 C   0  0  0  0  0  0  0  0  0  0  0  0
   -3.5646    0.1926    0.1792 C   0  0  0  0  0  0  0  0  0  0  0  0
   -4.7925    0.1427    0.7567 C   0  0  0  0  0  0  0  0  0  0  0  0
   -6.0363    0.0822    0.0142 C   0  0  0  0  0  0  0  0  0  0  0  0
   -7.2227    0.0278    0.6518 C   0  0  0  0  0  0  0  0  0  0  0  0
   -8.4269   -0.0313   -0.2127 C   0  0  0  0  0  0  0  0  0  0  0  0
   -8.3611    0.9874   -1.1486 O   0  0  0  0  0  0  0  0  0  0  0  0
   -7.2681    0.9402   -1.9733 C   0  0  0  0  0  0  0  0  0  0  0  0
   -6.1348    0.0750   -1.4647 C   0  0  0  0  0  0  0  0  0  0  0  0
   -4.8727    0.1507    2.1060 N   0  0  0  0  0  0  0  0  0  0  0  0
   -3.8122    0.2048    2.8849 C   0  0  0  0  0  0  0  0  0  0  0  0
   -3.8653    0.2143    4.2553 F   0  0  0  0  0  0  0  0  0  0  0  0
   -2.5447    0.2566    2.3106 C   0  0  0  0  0  0  0  0  0  0  0  0
   -1.4116    0.3128    3.1034 O   0  0  0  0  0  0  0  0  0  0  0  0
    6.5208   -1.7034   -0.2483 C   0  0  0  0  0  0  0  0  0  0  0  0
    7.7461   -1.6089   -0.8021 N   0  0  0  0  0  0  0  0  0  0  0  0
   11.3034   -1.4618   -1.4659 H   0  0  0  0  0  0  0  0  0  0  0  0
    9.7949   -2.4142   -1.7666 H   0  0  0  0  0  0  0  0  0  0  0  0
   10.5137   -1.4429   -3.0627 H   0  0  0  0  0  0  0  0  0  0  0  0
    8.0009    1.6846   -1.0055 H   0  0  0  0  0  0  0  0  0  0  0  0
    4.1941    1.4266    0.7137 H   0  0  0  0  0  0  0  0  0  0  0  0
    3.1071    0.5089    3.5468 H   0  0  0  0  0  0  0  0  0  0  0  0
    0.7909    0.4188    4.4739 H   0  0  0  0  0  0  0  0  0  0  0  0
    1.5096    0.4065   -0.3376 H   0  0  0  0  0  0  0  0  0  0  0  0
   -0.9370    2.4406    0.1188 H   0  0  0  0  0  0  0  0  0  0  0  0
   -2.2933    1.8395   -0.8365 H   0  0  0  0  0  0  0  0  0  0  0  0
   -0.9019    2.4843   -2.4930 H   0  0  0  0  0  0  0  0  0  0  0  0
    0.5919    2.2052   -1.6061 H   0  0  0  0  0  0  0  0  0  0  0  0
   -0.5472   -3.2623   -1.8796 H   0  0  0  0  0  0  0  0  0  0  0  0
   -1.3179   -2.4563   -3.2938 H   0  0  0  0  0  0  0  0  0  0  0  0
   -3.4722    0.1852   -0.8871 H   0  0  0  0  0  0  0  0  0  0  0  0
   -7.2514    0.0291    1.7222 H   0  0  0  0  0  0  0  0  0  0  0  0
   -9.3612    0.0641    0.3458 H   0  0  0  0  0  0  0  0  0  0  0  0
   -8.4568   -1.0001   -0.7520 H   0  0  0  0  0  0  0  0  0  0  0  0
   -7.5913    0.5375   -2.9691 H   0  0  0  0  0  0  0  0  0  0  0  0
   -6.8936    1.9571   -2.1588 H   0  0  0  0  0  0  0  0  0  0  0  0
   -6.3409   -0.9846   -1.7996 H   0  0  0  0  0  0  0  0  0  0  0  0
   -5.1759    0.3890   -1.9187 H   0  0  0  0  0  0  0  0  0  0  0  0
    6.1157   -2.6929   -0.0394 H   0  0  0  0  0  0  0  0  0  0  0  0
  1  2  1  0
  2  3  1  0
  3  4  2  0
  4  5  1  0
  5  6  2  0
  6  7  1  0
  7  8  2  0
  7  9  1  0
  9 10  1  0
 10 11  2  0
 11 12  1  0
 12 13  2  0
 13 14  1  0
 14 15  2  0
 14 16  1  0
 16 17  1  0
 17 18  1  0
 18 19  1  0
 19 20  1  0
 20 21  1  0
 20 22  2  0
 16 23  1  0
 23 24  2  0
 24 25  1  0
 25 26  1  0
 26 27  2  0
 27 28  1  0
 28 29  1  0
 29 30  1  0
 30 31  1  0
 25 32  2  0
 32 33  1  0
 33 34  1  0
 33 35  2  0
 35 36  1  0
  6 37  1  0
 37 38  2  0
 38  3  1  0
 15 10  1  0
 22 16  1  0
 35 23  1  0
 36 13  1  0
 31 26  1  0
  1 39  1  0
  1 40  1  0
  1 41  1  0
  4 42  1  0
  9 43  1  0
 11 44  1  0
 12 45  1  0
 15 46  1  0
 17 47  1  0
 17 48  1  0
 18 49  1  0
 18 50  1  0
 21 51  1  0
 21 52  1  0
 24 53  1  0
 27 54  1  0
 28 55  1  0
 28 56  1  0
 30 57  1  0
 30 58  1  0
 31 59  1  0
 31 60  1  0
 37 61  1  0
M  END
$$$$
