
     RDKit          3D

 63 66  0  0  0  0  0  0  0  0999 V2000
    7.9527    0.8291    2.7808 N   0  0  0  0  0  0  0  0  0  0  0  0
    7.7661    1.8047    1.9810 C   0  0  0  0  0  0  0  0  0  0  0  0
    8.7826    2.7627    1.7546 N   0  0  0  0  0  0  0  0  0  0  0  0
    6.4947    1.9544    1.2790 C   0  0  0  0  0  0  0  0  0  0  0  0
    6.1049    3.2580    0.9702 C   0  0  0  0  0  0  0  0  0  0  0  0
    4.9077    3.3829    0.3056 C   0  0  0  0  0  0  0  0  0  0  0  0
    4.1460    2.2887   -0.0321 C   0  0  0  0  0  0  0  0  0  0  0  0
    4.5460    1.0166    0.2791 C   0  0  0  0  0  0  0  0  0  0  0  0
    3.7443   -0.1733   -0.0866 C   0  0  0  0  0  0  0  0  0  0  0  0
    4.1152   -1.3185    0.2726 O   0  0  0  0  0  0  0  0  0  0  0  0
    2.5499   -0.0990   -0.8409 N   0  0  0  0  0  0  0  0  0  0  0  0
    1.7513   -1.2518   -1.2099 C   0  0  1  0  0  0  0  0  0  0  0  0
    0.3554   -1.1436   -0.7302 C   0  0  0  0  0  0  0  0  0  0  0  0
   -0.4647   -2.0612   -0.9752 O   0  0  0  0  0  0  0  0  0  0  0  0
   -0.1125   -0.0282    0.0085 N   0  0  0  0  0  0  0  0  0  0  0  0
   -1.4864    0.0293    0.4448 C   0  0  0  0  0  0  0  0  0  0  0  0
   -1.8862   -0.4745    1.6606 C   0  0  0  0  0  0  0  0  0  0  0  0
   -3.1888   -0.4231    2.0682 C   0  0  0  0  0  0  0  0  0  0  0  0
   -4.1722    0.1474    1.2603 C   0  0  0  0  0  0  0  0  0  0  0  0
   -5.5096    0.1847    1.7857 C   0  0  0  0  0  0  0  0  0  0  0  0
   -5.8385    1.0691    2.8197 C   0  0  0  0  0  0  0  0  0  0  0  0
   -7.1132    1.1537    3.3203 C   0  0  0  0  0  0  0  0  0  0  0  0
   -8.1204    0.3538    2.8057 C   0  0  0  0  0  0  0  0  0  0  0  0
   -7.8135   -0.5181    1.7932 C   0  0  0  0  0  0  0  0  0  0  0  0
   -6.5095   -0.5977    1.2903 C   0  0  0  0  0  0  0  0  0  0  0  0
   -6.2456   -1.7682    0.0457 S   0  0  0  0  0  6  0  0  0  0  0  0
   -7.6969   -2.6397   -0.3292 N   0  0  0  0  0  0  0  0  0  0  0  0
   -5.2240   -2.7921    0.5126 O   0  0  0  0  0  0  0  0  0  0  0  0
   -5.8049   -1.0870   -1.2099 O   0  0  0  0  0  0  0  0  0  0  0  0
   -3.7715    0.6541    0.0412 C   0  0  0  0  0  0  0  0  0  0  0  0
   -2.4548    0.5976   -0.3616 C   0  0  0  0  0  0  0  0  0  0  0  0
    1.8008   -1.4851   -2.6822 C   0  0  0  0  0  0  0  0  0  0  0  0
    1.9678   -2.7578   -3.1893 C   0  0  0  0  0  0  0  0  0  0  0  0
    2.0184   -3.0260   -4.5373 C   0  0  0  0  0  0  0  0  0  0  0  0
    1.8967   -1.9747   -5.4317 C   0  0  0  0  0  0  0  0  0  0  0  0
    1.7301   -0.7030   -4.9258 C   0  0  0  0  0  0  0  0  0  0  0  0
    1.6808   -0.4470   -3.5759 C   0  0  0  0  0  0  0  0  0  0  0  0
    5.7487    0.8513    0.9506 C   0  0  0  0  0  0  0  0  0  0  0  0
    7.2701    0.0855    3.0047 H   0  0  0  0  0  0  0  0  0  0  0  0
    8.7000    3.4091    0.9577 H   0  0  0  0  0  0  0  0  0  0  0  0
    9.5936    2.7906    2.4056 H   0  0  0  0  0  0  0  0  0  0  0  0
    6.7223    4.1135    1.2469 H   0  0  0  0  0  0  0  0  0  0  0  0
    4.5728    4.3978    0.0491 H   0  0  0  0  0  0  0  0  0  0  0  0
    3.1920    2.4356   -0.5652 H   0  0  0  0  0  0  0  0  0  0  0  0
    2.1987    0.8202   -1.1681 H   0  0  0  0  0  0  0  0  0  0  0  0
    2.2088   -2.1372   -0.7314 H   0  0  0  0  0  0  0  0  0  0  0  0
    0.5640    0.7433    0.2252 H   0  0  0  0  0  0  0  0  0  0  0  0
   -1.1226   -0.9305    2.3161 H   0  0  0  0  0  0  0  0  0  0  0  0
   -3.4336   -0.8394    3.0415 H   0  0  0  0  0  0  0  0  0  0  0  0
   -5.0287    1.6853    3.2072 H   0  0  0  0  0  0  0  0  0  0  0  0
   -7.3716    1.8362    4.1192 H   0  0  0  0  0  0  0  0  0  0  0  0
   -9.1452    0.4108    3.1932 H   0  0  0  0  0  0  0  0  0  0  0  0
   -8.6074   -1.1509    1.3835 H   0  0  0  0  0  0  0  0  0  0  0  0
   -8.0193   -2.4786   -1.2968 H   0  0  0  0  0  0  0  0  0  0  0  0
   -7.6841   -3.6103   -0.0044 H   0  0  0  0  0  0  0  0  0  0  0  0
   -4.5275    1.1217   -0.5857 H   0  0  0  0  0  0  0  0  0  0  0  0
   -2.1283    0.9958   -1.3228 H   0  0  0  0  0  0  0  0  0  0  0  0
    2.0673   -3.6160   -2.5032 H   0  0  0  0  0  0  0  0  0  0  0  0
    2.1491   -4.0141   -4.9489 H   0  0  0  0  0  0  0  0  0  0  0  0
    1.9330   -2.1584   -6.5136 H   0  0  0  0  0  0  0  0  0  0  0  0
    1.6379    0.1127   -5.6494 H   0  0  0  0  0  0  0  0  0  0  0  0
    1.5492    0.5611   -3.1967 H   0  0  0  0  0  0  0  0  0  0  0  0
    6.0629   -0.1528    1.1964 H   0  0  0  0  0  0  0  0  0  0  0  0
  1  2  2  3
  2  3  1  0
  2  4  1  0
  4  5  2  0
  5  6  1  0
  6  7  2  0
  7  8  1  0
  8  9  1  0
  9 10  2  0
  9 11  1  0
 11 12  1  0
 12 13  1  0
 13 14  2  0
 13 15  1  0
 15 16  1  0
 16 17  2  0
 17 18  1  0
 18 19  2  0
 19 20  1  0
 20 21  2  0
 21 22  1  0
 22 23  2  0
 23 24  1  0
 24 25  2  0
 25 26  1  0
 26 27  1  0
 26 28  2  0
 26 29  2  0
 19 30  1  0
 30 31  2  0
 12 32  1  0
 32 33  2  0
 33 34  1  0
 34 35  2  0
 35 36  1  0
 36 37  2  0
  8 38  2  0
 38  4  1  0
 31 16  1  0
 37 32  1  0
 25 20  1  0
  1 39  1  0
  3 40  1  0
  3 41  1  0
  5 42  1  0
  6 43  1  0
  7 44  1  0
 11 45  1  0
 12 46  1  1
 15 47  1  0
 17 48  1  0
 18 49  1  0
 21 50  1  0
 22 51  1  0
 23 52  1  0
 24 53  1  0
 27 54  1  0
 27 55  1  0
 30 56  1  0
 31 57  1  0
 33 58  1  0
 34 59  1  0
 35 60  1  0
 36 61  1  0
 37 62  1  0
 38 63  1  0
M  END
$$$$
