
     RDKit          3D

 65 68  0  0  0  0  0  0  0  0999 V2000
   -3.5358    1.7912   -1.6900 O   0  0  0  0  0  0  0  0  0  0  0  0
   -4.4759    1.1496   -1.1674 C   0  0  0  0  0  0  0  0  0  0  0  0
   -4.1503   -0.1211   -0.6258 N   0  0  0  0  0  0  0  0  0  0  0  0
   -2.8378   -0.6839   -0.6479 C   0  0  2  0  0  0  0  0  0  0  0  0
   -2.7166   -1.9707   -1.3945 C   0  0  0  0  0  0  0  0  0  0  0  0
   -2.9751   -3.0261   -0.3796 C   0  0  1  0  0  0  0  0  0  0  0  0
   -2.1317   -4.2838   -0.6420 C   0  0  0  0  0  0  0  0  0  0  0  0
   -2.4059   -4.8258   -1.8739 O   0  0  0  0  0  0  0  0  0  0  0  0
   -2.6491   -2.4224    0.9394 C   0  0  0  0  0  0  0  0  0  0  0  0
   -2.2664   -0.9691    0.7140 C   0  0  1  0  0  0  0  0  0  0  0  0
   -0.8578   -0.8495    0.6867 O   0  0  0  0  0  0  0  0  0  0  0  0
   -0.1900    0.0052    1.5468 C   0  0  0  0  0  0  0  0  0  0  0  0
   -0.9111    0.6759    2.3608 O   0  0  0  0  0  0  0  0  0  0  0  0
    1.2409    0.1704    1.5678 C   0  0  0  0  0  0  0  0  0  0  0  0
    1.8639    1.0288    2.4329 C   0  0  0  0  0  0  0  0  0  0  0  0
    3.2223    1.2024    2.4731 C   0  0  0  0  0  0  0  0  0  0  0  0
    3.8499    2.0741    3.3523 O   0  0  0  0  0  0  0  0  0  0  0  0
    4.0364    0.4884    1.6080 C   0  0  0  0  0  0  0  0  0  0  0  0
    5.4758    0.5542    1.6947 C   0  0  0  0  0  0  0  0  0  0  0  0
    5.9532    0.9179    2.8421 O   0  0  0  0  0  0  0  0  0  0  0  0
    6.4814    0.2663    0.7029 C   0  0  0  0  0  0  0  0  0  0  0  0
    7.6512   -0.4128    1.1373 C   0  0  0  0  0  0  0  0  0  0  0  0
    7.7269   -0.7680    2.4768 O   0  0  0  0  0  0  0  0  0  0  0  0
    8.6543   -0.7017    0.2723 C   0  0  0  0  0  0  0  0  0  0  0  0
    8.5033   -0.3163   -1.0394 C   0  0  0  0  0  0  0  0  0  0  0  0
    7.3921    0.3413   -1.4873 C   0  0  0  0  0  0  0  0  0  0  0  0
    6.3471    0.6488   -0.5942 C   0  0  0  0  0  0  0  0  0  0  0  0
    5.3228    1.5381   -1.1198 C   0  0  0  0  0  0  0  0  0  0  0  0
    5.2520    1.7085   -2.3863 O   0  0  0  0  0  0  0  0  0  0  0  0
    4.4221    2.2247   -0.3593 O   0  0  0  0  0  0  0  0  0  0  0  0
    3.4226   -0.3947    0.7172 C   0  0  0  0  0  0  0  0  0  0  0  0
    4.1296   -1.1683   -0.1903 O   0  0  0  0  0  0  0  0  0  0  0  0
    2.0399   -0.5392    0.7103 C   0  0  0  0  0  0  0  0  0  0  0  0
   -5.8021    1.7397   -1.1537 C   0  0  0  0  0  0  0  0  0  0  0  0
   -5.9814    2.9839   -1.7239 C   0  0  0  0  0  0  0  0  0  0  0  0
   -7.1847    3.6199   -1.7598 C   0  0  0  0  0  0  0  0  0  0  0  0
   -8.2701    2.9854   -1.1984 C   0  0  0  0  0  0  0  0  0  0  0  0
   -9.4898    3.6333   -1.2364 O   0  0  0  0  0  0  0  0  0  0  0  0
   -8.1093    1.7466   -0.6264 C   0  0  0  0  0  0  0  0  0  0  0  0
   -6.8860    1.0938   -0.5869 C   0  0  0  0  0  0  0  0  0  0  0  0
   -4.9229   -0.6665   -0.1884 H   0  0  0  0  0  0  0  0  0  0  0  0
   -2.1622    0.0512   -1.1469 H   0  0  0  0  0  0  0  0  0  0  0  0
   -3.3773   -2.0298   -2.2827 H   0  0  0  0  0  0  0  0  0  0  0  0
   -1.6400   -2.0668   -1.7225 H   0  0  0  0  0  0  0  0  0  0  0  0
   -4.0270   -3.3591   -0.4836 H   0  0  0  0  0  0  0  0  0  0  0  0
   -2.3543   -5.0435    0.1341 H   0  0  0  0  0  0  0  0  0  0  0  0
   -1.0774   -3.9764   -0.5040 H   0  0  0  0  0  0  0  0  0  0  0  0
   -2.8179   -4.2041   -2.5077 H   0  0  0  0  0  0  0  0  0  0  0  0
   -1.7781   -2.9598    1.3712 H   0  0  0  0  0  0  0  0  0  0  0  0
   -3.4643   -2.5184    1.6862 H   0  0  0  0  0  0  0  0  0  0  0  0
   -2.6353   -0.2924    1.4983 H   0  0  0  0  0  0  0  0  0  0  0  0
    1.2740    1.6199    3.1400 H   0  0  0  0  0  0  0  0  0  0  0  0
    3.9408    3.0517    3.1283 H   0  0  0  0  0  0  0  0  0  0  0  0
    8.1512   -0.0701    3.0930 H   0  0  0  0  0  0  0  0  0  0  0  0
    9.5588   -1.2277    0.6139 H   0  0  0  0  0  0  0  0  0  0  0  0
    9.3225   -0.5632   -1.7144 H   0  0  0  0  0  0  0  0  0  0  0  0
    7.3090    0.6294   -2.5367 H   0  0  0  0  0  0  0  0  0  0  0  0
    3.8255    2.9701   -0.6948 H   0  0  0  0  0  0  0  0  0  0  0  0
    4.5114   -2.0470    0.1123 H   0  0  0  0  0  0  0  0  0  0  0  0
    1.6197   -1.2340   -0.0003 H   0  0  0  0  0  0  0  0  0  0  0  0
   -5.1402    3.5258   -2.1829 H   0  0  0  0  0  0  0  0  0  0  0  0
   -7.3018    4.6022   -2.2157 H   0  0  0  0  0  0  0  0  0  0  0  0
  -10.2206    3.2697   -0.6167 H   0  0  0  0  0  0  0  0  0  0  0  0
   -8.9664    1.2742   -0.1968 H   0  0  0  0  0  0  0  0  0  0  0  0
   -6.7881    0.1296   -0.1351 H   0  0  0  0  0  0  0  0  0  0  0  0
  1  2  2  0
  2  3  1  0
  3  4  1  0
  4  5  1  0
  5  6  1  0
  6  7  1  0
  7  8  1  0
  6  9  1  0
  9 10  1  0
 10 11  1  0
 11 12  1  0
 12 13  2  0
 12 14  1  0
 14 15  2  0
 15 16  1  0
 16 17  1  0
 16 18  2  0
 18 19  1  0
 19 20  2  0
 19 21  1  0
 21 22  2  0
 22 23  1  0
 22 24  1  0
 24 25  2  0
 25 26  1  0
 26 27  2  0
 27 28  1  0
 28 29  2  0
 28 30  1  0
 18 31  1  0
 31 32  1  0
 31 33  2  0
  2 34  1  0
 34 35  2  0
 35 36  1  0
 36 37  2  0
 37 38  1  0
 37 39  1  0
 39 40  2  0
 10  4  1  0
 33 14  1  0
 40 34  1  0
 27 21  1  0
  3 41  1  0
  4 42  1  6
  5 43  1  0
  5 44  1  0
  6 45  1  1
  7 46  1  0
  7 47  1  0
  8 48  1  0
  9 49  1  0
  9 50  1  0
 10 51  1  1
 15 52  1  0
 17 53  1  0
 23 54  1  0
 24 55  1  0
 25 56  1  0
 26 57  1  0
 30 58  1  0
 32 59  1  0
 33 60  1  0
 35 61  1  0
 36 62  1  0
 38 63  1  0
 39 64  1  0
 40 65  1  0
M  END
$$$$
