
     RDKit          3D

 34 35  0  0  0  0  0  0  0  0999 V2000
    2.0002    1.1038    0.8537 C   0  0  0  0  0  0  0  0  0  0  0  0
    1.5208    0.2867   -0.3308 C   0  0  0  0  0  0  0  0  0  0  0  0
    0.2566   -0.3724   -0.0603 C   0  0  0  0  0  0  0  0  0  0  0  0
   -1.0678   -0.1299   -0.0165 C   0  0  0  0  0  0  0  0  0  0  0  0
   -1.8918   -1.2668    0.3393 C   0  0  0  0  0  0  0  0  0  0  0  0
   -3.1906   -1.4694    0.5018 C   0  0  0  0  0  0  0  0  0  0  0  0
   -3.7025   -2.6777    0.8467 C   0  0  0  0  0  0  0  0  0  0  0  0
   -2.7675   -3.7108    1.0234 C   0  0  0  0  0  0  0  0  0  0  0  0
   -1.1769   -2.8361    0.6685 S   0  0  0  0  0  0  0  0  0  0  0  0
   -1.3793    1.2565   -0.3285 C   0  0  0  0  0  0  0  0  0  0  0  0
   -2.6123    1.8396   -0.4087 C   0  0  0  0  0  0  0  0  0  0  0  0
   -2.8085    3.1283   -0.6903 C   0  0  0  0  0  0  0  0  0  0  0  0
   -1.6475    3.8709   -0.9051 C   0  0  0  0  0  0  0  0  0  0  0  0
   -0.3424    2.5628   -0.6650 S   0  0  0  0  0  0  0  0  0  0  0  0
    2.5490   -0.6588   -0.7513 N   0  0  0  0  0  0  0  0  0  0  0  0
    3.7019    0.1024   -1.1203 C   0  0  0  0  0  0  0  0  0  0  0  0
    2.8751   -1.6094    0.2681 C   0  0  0  0  0  0  0  0  0  0  0  0
    2.7962    0.5615    1.4061 H   0  0  0  0  0  0  0  0  0  0  0  0
    1.1408    1.2044    1.5460 H   0  0  0  0  0  0  0  0  0  0  0  0
    2.3563    2.0760    0.5240 H   0  0  0  0  0  0  0  0  0  0  0  0
    1.4295    0.9783   -1.2058 H   0  0  0  0  0  0  0  0  0  0  0  0
    0.5150   -1.4148    0.2017 H   0  0  0  0  0  0  0  0  0  0  0  0
   -3.8754   -0.6589    0.3605 H   0  0  0  0  0  0  0  0  0  0  0  0
   -4.7257   -2.9698    1.0076 H   0  0  0  0  0  0  0  0  0  0  0  0
   -2.9089   -4.7755    1.3008 H   0  0  0  0  0  0  0  0  0  0  0  0
   -3.6144    1.4622   -0.2849 H   0  0  0  0  0  0  0  0  0  0  0  0
   -3.5052    3.9260   -0.8407 H   0  0  0  0  0  0  0  0  0  0  0  0
   -1.0189    4.8542   -1.1521 H   0  0  0  0  0  0  0  0  0  0  0  0
    4.4327    0.2411   -0.2877 H   0  0  0  0  0  0  0  0  0  0  0  0
    3.4295    1.1260   -1.4514 H   0  0  0  0  0  0  0  0  0  0  0  0
    4.3021   -0.3733   -1.9365 H   0  0  0  0  0  0  0  0  0  0  0  0
    3.9535   -1.5995    0.5018 H   0  0  0  0  0  0  0  0  0  0  0  0
    2.3148   -1.4329    1.2234 H   0  0  0  0  0  0  0  0  0  0  0  0
    2.6615   -2.6246   -0.1375 H   0  0  0  0  0  0  0  0  0  0  0  0
  1  2  1  0
  2  3  1  0
  3  4  2  3
  4  5  1  0
  5  6  2  0
  6  7  1  0
  7  8  2  0
  8  9  1  0
  4 10  1  0
 10 11  2  0
 11 12  1  0
 12 13  2  0
 13 14  1  0
  2 15  1  0
 15 16  1  0
 15 17  1  0
  9  5  1  0
 14 10  1  0
  1 18  1  0
  1 19  1  0
  1 20  1  0
  2 21  1  0
  3 22  1  0
  6 23  1  0
  7 24  1  0
  8 25  1  0
 11 26  1  0
 12 27  1  0
 13 28  1  0
 16 29  1  0
 16 30  1  0
 16 31  1  0
 17 32  1  0
 17 33  1  0
 17 34  1  0
M  END
$$$$
