
     RDKit          3D

 44 45  0  0  0  0  0  0  0  0999 V2000
   -0.7364    2.1081    2.6119 C   0  0  0  0  0  0  0  0  0  0  0  0
   -1.0323    1.0172    1.6140 C   0  0  0  0  0  0  0  0  0  0  0  0
   -2.2997    1.3789    0.8866 C   0  0  0  0  0  0  0  0  0  0  0  0
   -2.7055    0.3749   -0.1183 C   0  0  0  0  0  0  0  0  0  0  0  0
   -2.3156    0.4848   -1.4279 C   0  0  0  0  0  0  0  0  0  0  0  0
   -2.6788   -0.4495   -2.3819 C   0  0  0  0  0  0  0  0  0  0  0  0
   -3.4507   -1.5251   -2.0325 C   0  0  0  0  0  0  0  0  0  0  0  0
   -3.8325   -2.4891   -2.9877 O   0  0  0  0  0  0  0  0  0  0  0  0
   -3.8506   -1.6487   -0.7188 C   0  0  0  0  0  0  0  0  0  0  0  0
   -4.6306   -2.7375   -0.3714 O   0  0  0  0  0  0  0  0  0  0  0  0
   -3.4917   -0.7221    0.2332 C   0  0  0  0  0  0  0  0  0  0  0  0
    0.1212    0.7454    0.6921 C   0  0  0  0  0  0  0  0  0  0  0  0
    0.5692    1.9092   -0.1225 C   0  0  0  0  0  0  0  0  0  0  0  0
    1.2614    0.0475    1.4018 C   0  0  0  0  0  0  0  0  0  0  0  0
    2.4021   -0.2271    0.5082 C   0  0  0  0  0  0  0  0  0  0  0  0
    3.4518    0.6475    0.3262 C   0  0  0  0  0  0  0  0  0  0  0  0
    4.5166    0.3758   -0.5189 C   0  0  0  0  0  0  0  0  0  0  0  0
    4.5465   -0.8039   -1.2105 C   0  0  0  0  0  0  0  0  0  0  0  0
    5.6270   -1.0712   -2.0633 O   0  0  0  0  0  0  0  0  0  0  0  0
    3.5273   -1.6992   -1.0600 C   0  0  0  0  0  0  0  0  0  0  0  0
    3.5919   -2.8850   -1.7775 O   0  0  0  0  0  0  0  0  0  0  0  0
    2.4671   -1.4166   -0.2117 C   0  0  0  0  0  0  0  0  0  0  0  0
   -1.2040    1.8706    3.5901 H   0  0  0  0  0  0  0  0  0  0  0  0
   -1.1604    3.0858    2.2400 H   0  0  0  0  0  0  0  0  0  0  0  0
    0.3292    2.2682    2.7857 H   0  0  0  0  0  0  0  0  0  0  0  0
   -1.1954    0.0858    2.2124 H   0  0  0  0  0  0  0  0  0  0  0  0
   -3.1427    1.5611    1.6098 H   0  0  0  0  0  0  0  0  0  0  0  0
   -2.1311    2.3738    0.4232 H   0  0  0  0  0  0  0  0  0  0  0  0
   -1.7154    1.3214   -1.7317 H   0  0  0  0  0  0  0  0  0  0  0  0
   -2.3696   -0.3596   -3.4122 H   0  0  0  0  0  0  0  0  0  0  0  0
   -4.8128   -2.7653   -3.0601 H   0  0  0  0  0  0  0  0  0  0  0  0
   -5.6472   -2.7229   -0.5062 H   0  0  0  0  0  0  0  0  0  0  0  0
   -3.7861   -0.7885    1.2646 H   0  0  0  0  0  0  0  0  0  0  0  0
   -0.2649   -0.0215   -0.0475 H   0  0  0  0  0  0  0  0  0  0  0  0
    0.9560    1.5667   -1.1025 H   0  0  0  0  0  0  0  0  0  0  0  0
    1.3264    2.5449    0.4158 H   0  0  0  0  0  0  0  0  0  0  0  0
   -0.2620    2.6124   -0.3355 H   0  0  0  0  0  0  0  0  0  0  0  0
    0.9225   -0.9068    1.8543 H   0  0  0  0  0  0  0  0  0  0  0  0
    1.5498    0.7102    2.2591 H   0  0  0  0  0  0  0  0  0  0  0  0
    3.4742    1.5870    0.8488 H   0  0  0  0  0  0  0  0  0  0  0  0
    5.3443    1.0634   -0.6636 H   0  0  0  0  0  0  0  0  0  0  0  0
    6.5473   -1.0622   -1.6017 H   0  0  0  0  0  0  0  0  0  0  0  0
    4.4969   -3.3048   -1.9709 H   0  0  0  0  0  0  0  0  0  0  0  0
    1.6876   -2.1341   -0.1153 H   0  0  0  0  0  0  0  0  0  0  0  0
  1  2  1  0
  2  3  1  0
  3  4  1  0
  4  5  2  0
  5  6  1  0
  6  7  2  0
  7  8  1  0
  7  9  1  0
  9 10  1  0
  9 11  2  0
  2 12  1  0
 12 13  1  0
 12 14  1  0
 14 15  1  0
 15 16  2  0
 16 17  1  0
 17 18  2  0
 18 19  1  0
 18 20  1  0
 20 21  1  0
 20 22  2  0
 11  4  1  0
 22 15  1  0
  1 23  1  0
  1 24  1  0
  1 25  1  0
  2 26  1  0
  3 27  1  0
  3 28  1  0
  5 29  1  0
  6 30  1  0
  8 31  1  0
 10 32  1  0
 11 33  1  0
 12 34  1  0
 13 35  1  0
 13 36  1  0
 13 37  1  0
 14 38  1  0
 14 39  1  0
 16 40  1  0
 17 41  1  0
 19 42  1  0
 21 43  1  0
 22 44  1  0
M  END
$$$$
