
     RDKit          3D

 46 51  0  0  0  0  0  0  0  0999 V2000
    2.3109   -1.8855    0.4231 C   0  0  0  0  0  0  0  0  0  0  0  0
    1.5516   -1.2717   -0.6499 N   0  0  0  0  0  0  0  0  0  0  0  0
    1.8963   -1.5186   -1.9525 C   0  0  0  0  0  0  0  0  0  0  0  0
    2.7959   -2.4289   -2.4853 C   0  0  0  0  0  0  0  0  0  0  0  0
    2.9849   -2.5267   -3.8620 C   0  0  0  0  0  0  0  0  0  0  0  0
    2.2761   -1.7180   -4.7012 C   0  0  0  0  0  0  0  0  0  0  0  0
    1.3748   -0.8069   -4.1668 C   0  0  0  0  0  0  0  0  0  0  0  0
    1.1949   -0.7157   -2.8118 C   0  0  0  0  0  0  0  0  0  0  0  0
    0.3810    0.0606   -2.0116 C   0  0  0  0  0  0  0  0  0  0  0  0
   -0.5083    1.0997   -2.2962 C   0  0  0  0  0  0  0  0  0  0  0  0
   -1.1696    1.7806   -1.2888 C   0  0  0  0  0  0  0  0  0  0  0  0
   -0.9373    1.3929    0.0211 C   0  0  0  0  0  0  0  0  0  0  0  0
   -1.4984    1.8259    1.1802 C   0  0  0  0  0  0  0  0  0  0  0  0
   -2.4176    2.8122    1.5591 C   0  0  0  0  0  0  0  0  0  0  0  0
   -2.7824    3.0001    2.8845 C   0  0  0  0  0  0  0  0  0  0  0  0
   -2.2660    2.2371    3.8862 C   0  0  0  0  0  0  0  0  0  0  0  0
   -1.3573    1.2647    3.4874 C   0  0  0  0  0  0  0  0  0  0  0  0
   -0.9696    1.0479    2.1795 C   0  0  0  0  0  0  0  0  0  0  0  0
   -0.0791    0.1232    1.6554 N   0  0  0  0  0  0  0  0  0  0  0  0
    0.4626   -0.8910    2.5009 C   0  0  0  0  0  0  0  0  0  0  0  0
   -0.4770   -2.1114    2.5417 C   0  0  0  0  0  0  0  0  0  0  0  0
   -0.7532   -2.6683    1.2597 C   0  0  0  0  0  0  0  0  0  0  0  0
   -1.0066   -3.1345    0.1818 N   0  0  0  0  0  0  0  0  0  0  0  0
   -0.0581    0.3478    0.3293 C   0  0  0  0  0  0  0  0  0  0  0  0
    0.6231   -0.3186   -0.6835 C   0  0  0  0  0  0  0  0  0  0  0  0
   -2.0036    2.8059   -1.8763 C   0  0  0  0  0  0  0  0  0  0  0  0
   -2.7575    3.6413   -1.3511 O   0  0  0  0  0  0  0  0  0  0  0  0
   -1.8294    2.7274   -3.2832 N   0  0  0  0  0  0  0  0  0  0  0  0
   -0.9139    1.6854   -3.5755 C   0  0  0  0  0  0  0  0  0  0  0  0
   -0.5921    1.4145   -4.7671 O   0  0  0  0  0  0  0  0  0  0  0  0
    3.2712   -2.3591   -0.0315 H   0  0  0  0  0  0  0  0  0  0  0  0
    2.8366   -1.0628    1.0083 H   0  0  0  0  0  0  0  0  0  0  0  0
    1.8953   -2.7132    0.9494 H   0  0  0  0  0  0  0  0  0  0  0  0
    3.3509   -3.0751   -1.8292 H   0  0  0  0  0  0  0  0  0  0  0  0
    3.6911   -3.2400   -4.2625 H   0  0  0  0  0  0  0  0  0  0  0  0
    2.3803   -1.7559   -5.7879 H   0  0  0  0  0  0  0  0  0  0  0  0
    0.8425   -0.2057   -4.8534 H   0  0  0  0  0  0  0  0  0  0  0  0
   -2.8478    3.4324    0.8205 H   0  0  0  0  0  0  0  0  0  0  0  0
   -3.4919    3.7755    3.0969 H   0  0  0  0  0  0  0  0  0  0  0  0
   -2.5252    2.3546    4.9355 H   0  0  0  0  0  0  0  0  0  0  0  0
   -0.9574    0.6609    4.3197 H   0  0  0  0  0  0  0  0  0  0  0  0
    1.4790   -1.0972    2.4594 H   0  0  0  0  0  0  0  0  0  0  0  0
    0.3007   -0.5193    3.6121 H   0  0  0  0  0  0  0  0  0  0  0  0
   -1.4104   -1.8817    3.1103 H   0  0  0  0  0  0  0  0  0  0  0  0
    0.0095   -2.9252    3.1571 H   0  0  0  0  0  0  0  0  0  0  0  0
   -2.2995    3.3403   -4.0188 H   0  0  0  0  0  0  0  0  0  0  0  0
  1  2  1  0
  2  3  1  0
  3  4  2  0
  4  5  1  0
  5  6  2  0
  6  7  1  0
  7  8  2  0
  8  9  1  0
  9 10  2  0
 10 11  1  0
 11 12  2  0
 12 13  1  0
 13 14  2  0
 14 15  1  0
 15 16  2  0
 16 17  1  0
 17 18  2  0
 18 19  1  0
 19 20  1  0
 20 21  1  0
 21 22  1  0
 22 23  3  0
 19 24  1  0
 24 25  2  0
 11 26  1  0
 26 27  2  0
 26 28  1  0
 28 29  1  0
 29 30  2  0
 25  2  1  0
  8  3  1  0
 25  9  1  0
 29 10  1  0
 24 12  1  0
 18 13  1  0
  1 31  1  0
  1 32  1  0
  1 33  1  0
  4 34  1  0
  5 35  1  0
  6 36  1  0
  7 37  1  0
 14 38  1  0
 15 39  1  0
 16 40  1  0
 17 41  1  0
 20 42  1  0
 20 43  1  0
 21 44  1  0
 21 45  1  0
 28 46  1  0
M  END
$$$$
