
     RDKit          3D

 40 41  0  0  0  0  0  0  0  0999 V2000
    3.6589    2.4846   -1.5800 C   0  0  0  0  0  0  0  0  0  0  0  0
    3.7619    1.1403   -1.1054 N   0  0  0  0  0  0  0  0  0  0  0  0
    2.6683    0.7178   -0.2796 C   0  0  0  0  0  0  0  0  0  0  0  0
    1.3687    0.5827   -0.9956 C   0  0  0  0  0  0  0  0  0  0  0  0
    0.3366    0.1275    0.0465 C   0  0  1  0  0  0  0  0  0  0  0  0
   -0.9290   -0.0377   -0.4951 O   0  0  0  0  0  0  0  0  0  0  0  0
   -2.0853    0.6123   -0.1143 C   0  0  0  0  0  0  0  0  0  0  0  0
   -2.2717    1.5570    0.8649 C   0  0  0  0  0  0  0  0  0  0  0  0
   -3.4787    2.1331    1.1504 C   0  0  0  0  0  0  0  0  0  0  0  0
   -4.6164    1.7694    0.4285 C   0  0  0  0  0  0  0  0  0  0  0  0
   -4.4322    0.8295   -0.5460 C   0  0  0  0  0  0  0  0  0  0  0  0
   -3.2060    0.2424   -0.8380 C   0  0  0  0  0  0  0  0  0  0  0  0
   -3.1530   -0.7694   -1.9282 C   0  0  0  0  0  0  0  0  0  0  0  0
    0.7987   -1.1367    0.6670 C   0  0  0  0  0  0  0  0  0  0  0  0
    1.4073   -1.2559    1.9004 C   0  0  0  0  0  0  0  0  0  0  0  0
    1.7977   -2.5077    2.3738 C   0  0  0  0  0  0  0  0  0  0  0  0
    1.5702   -3.6330    1.5964 C   0  0  0  0  0  0  0  0  0  0  0  0
    0.9603   -3.5168    0.3596 C   0  0  0  0  0  0  0  0  0  0  0  0
    0.5803   -2.2689   -0.0932 C   0  0  0  0  0  0  0  0  0  0  0  0
    4.6907    2.9090   -1.6227 H   0  0  0  0  0  0  0  0  0  0  0  0
    3.1444    3.1265   -0.8082 H   0  0  0  0  0  0  0  0  0  0  0  0
    3.2398    2.6018   -2.5909 H   0  0  0  0  0  0  0  0  0  0  0  0
    4.6880    0.8660   -0.7679 H   0  0  0  0  0  0  0  0  0  0  0  0
    2.8997   -0.2602    0.1886 H   0  0  0  0  0  0  0  0  0  0  0  0
    2.5193    1.4827    0.5202 H   0  0  0  0  0  0  0  0  0  0  0  0
    1.3775   -0.2231   -1.7675 H   0  0  0  0  0  0  0  0  0  0  0  0
    1.0372    1.5188   -1.4722 H   0  0  0  0  0  0  0  0  0  0  0  0
    0.2966    0.8806    0.8551 H   0  0  0  0  0  0  0  0  0  0  0  0
   -1.3897    1.8325    1.4173 H   0  0  0  0  0  0  0  0  0  0  0  0
   -3.5333    2.8623    1.9322 H   0  0  0  0  0  0  0  0  0  0  0  0
   -5.5770    2.2127    0.6390 H   0  0  0  0  0  0  0  0  0  0  0  0
   -5.3176    0.5517   -1.1021 H   0  0  0  0  0  0  0  0  0  0  0  0
   -4.0952   -0.7459   -2.5110 H   0  0  0  0  0  0  0  0  0  0  0  0
   -3.1323   -1.7793   -1.4276 H   0  0  0  0  0  0  0  0  0  0  0  0
   -2.2710   -0.6653   -2.5767 H   0  0  0  0  0  0  0  0  0  0  0  0
    1.5573   -0.3377    2.4600 H   0  0  0  0  0  0  0  0  0  0  0  0
    2.2645   -2.5052    3.3452 H   0  0  0  0  0  0  0  0  0  0  0  0
    1.9020   -4.5809    2.0296 H   0  0  0  0  0  0  0  0  0  0  0  0
    0.8476   -4.4686   -0.1320 H   0  0  0  0  0  0  0  0  0  0  0  0
    0.1145   -2.3489   -1.0832 H   0  0  0  0  0  0  0  0  0  0  0  0
  1  2  1  0
  2  3  1  0
  3  4  1  0
  4  5  1  0
  5  6  1  0
  6  7  1  0
  7  8  2  0
  8  9  1  0
  9 10  2  0
 10 11  1  0
 11 12  2  0
 12 13  1  0
  5 14  1  0
 14 15  2  0
 15 16  1  0
 16 17  2  0
 17 18  1  0
 18 19  2  0
 12  7  1  0
 19 14  1  0
  1 20  1  0
  1 21  1  0
  1 22  1  0
  2 23  1  0
  3 24  1  0
  3 25  1  0
  4 26  1  0
  4 27  1  0
  5 28  1  1
  8 29  1  0
  9 30  1  0
 10 31  1  0
 11 32  1  0
 13 33  1  0
 13 34  1  0
 13 35  1  0
 15 36  1  0
 16 37  1  0
 17 38  1  0
 18 39  1  0
 19 40  1  0
M  END
$$$$
