
     RDKit          3D

 53 55  0  0  0  0  0  0  0  0999 V2000
   -4.9158    3.0453    4.0203 N   0  0  0  0  0  0  0  0  0  0  0  0
   -5.0522    2.1589    3.2658 C   0  0  0  0  0  0  0  0  0  0  0  0
   -5.2401    1.0514    2.3114 C   0  0  2  0  0  0  0  0  0  0  0  0
   -6.7086    0.7443    2.2859 C   0  0  0  0  0  0  0  0  0  0  0  0
   -6.7446   -0.5532    3.6025 S   0  0  0  0  0  0  0  0  0  0  0  0
   -5.0811   -1.2260    3.1868 C   0  0  0  0  0  0  0  0  0  0  0  0
   -4.4450   -0.0430    2.6747 N   0  0  0  0  0  0  0  0  0  0  0  0
   -2.9839   -0.0091    2.4975 C   0  0  0  0  0  0  0  0  0  0  0  0
   -2.3831   -1.0555    2.7470 O   0  0  0  0  0  0  0  0  0  0  0  0
   -2.3496    1.2525    2.0432 C   0  0  0  0  0  0  0  0  0  0  0  0
   -0.9862    1.1079    1.8115 N   0  0  0  0  0  0  0  0  0  0  0  0
   -0.1361    1.3600    2.8695 N   0  0  0  0  0  0  0  0  0  0  0  0
   -0.4576    0.5740    0.6596 C   0  0  0  0  0  0  0  0  0  0  0  0
   -1.0287   -0.7171    0.1991 C   0  0  0  0  0  0  0  0  0  0  0  0
   -0.5789   -0.9873   -1.2383 C   0  0  0  0  0  0  0  0  0  0  0  0
    0.8493   -0.8559   -1.4238 N   0  0  0  0  0  0  0  0  0  0  0  0
    1.1449    0.2680   -2.2889 C   0  0  0  0  0  0  0  0  0  0  0  0
    2.5173    0.2001   -2.8563 C   0  0  0  0  0  0  0  0  0  0  0  0
    2.9213    1.2009   -3.5360 O   0  0  0  0  0  0  0  0  0  0  0  0
    3.3957   -0.8845   -2.7064 N   0  0  0  0  0  0  0  0  0  0  0  0
    4.7016   -0.9310   -3.2456 C   0  0  0  0  0  0  0  0  0  0  0  0
    5.8237   -0.5490   -2.4798 C   0  0  0  0  0  0  0  0  0  0  0  0
    7.0717   -0.6169   -3.0950 C   0  0  0  0  0  0  0  0  0  0  0  0
    7.2424   -1.0272   -4.3726 C   0  0  0  0  0  0  0  0  0  0  0  0
    8.8503   -1.0890   -5.0793 Cl  0  0  0  0  0  0  0  0  0  0  0  0
    6.0995   -1.4017   -5.1100 C   0  0  0  0  0  0  0  0  0  0  0  0
    4.9346   -1.3151   -4.4661 N   0  0  0  0  0  0  0  0  0  0  0  0
    1.5259   -0.6920   -0.1380 C   0  0  0  0  0  0  0  0  0  0  0  0
    1.0616    0.5541    0.5383 C   0  0  0  0  0  0  0  0  0  0  0  0
   -4.9062    1.3776    1.2844 H   0  0  0  0  0  0  0  0  0  0  0  0
   -7.3508    1.5824    2.5372 H   0  0  0  0  0  0  0  0  0  0  0  0
   -6.9672    0.2469    1.3025 H   0  0  0  0  0  0  0  0  0  0  0  0
   -4.6120   -1.6278    4.0880 H   0  0  0  0  0  0  0  0  0  0  0  0
   -5.2048   -2.0162    2.3901 H   0  0  0  0  0  0  0  0  0  0  0  0
   -2.8753    1.5240    1.0725 H   0  0  0  0  0  0  0  0  0  0  0  0
   -2.6279    2.0547    2.7687 H   0  0  0  0  0  0  0  0  0  0  0  0
    0.2572    2.2978    2.9426 H   0  0  0  0  0  0  0  0  0  0  0  0
   -0.5242    1.0238    3.7556 H   0  0  0  0  0  0  0  0  0  0  0  0
   -0.7471    1.3170   -0.1900 H   0  0  0  0  0  0  0  0  0  0  0  0
   -0.7165   -1.5771    0.8041 H   0  0  0  0  0  0  0  0  0  0  0  0
   -2.1238   -0.6826    0.1427 H   0  0  0  0  0  0  0  0  0  0  0  0
   -0.8673   -2.0148   -1.4786 H   0  0  0  0  0  0  0  0  0  0  0  0
   -1.0982   -0.3053   -1.9337 H   0  0  0  0  0  0  0  0  0  0  0  0
    0.9294    1.2520   -1.8652 H   0  0  0  0  0  0  0  0  0  0  0  0
    0.4493    0.1334   -3.1727 H   0  0  0  0  0  0  0  0  0  0  0  0
    3.0565   -1.7490   -2.1784 H   0  0  0  0  0  0  0  0  0  0  0  0
    5.7027   -0.2282   -1.4759 H   0  0  0  0  0  0  0  0  0  0  0  0
    7.9063   -0.3159   -2.4578 H   0  0  0  0  0  0  0  0  0  0  0  0
    6.2526   -1.7225   -6.1180 H   0  0  0  0  0  0  0  0  0  0  0  0
    1.4148   -1.5998    0.4756 H   0  0  0  0  0  0  0  0  0  0  0  0
    2.6018   -0.5528   -0.3444 H   0  0  0  0  0  0  0  0  0  0  0  0
    1.4693    1.4339    0.0282 H   0  0  0  0  0  0  0  0  0  0  0  0
    1.5328    0.5845    1.5646 H   0  0  0  0  0  0  0  0  0  0  0  0
  1  2  3  0
  2  3  1  0
  3  4  1  0
  4  5  1  0
  5  6  1  0
  6  7  1  0
  7  8  1  0
  8  9  2  0
  8 10  1  0
 10 11  1  0
 11 12  1  0
 11 13  1  0
 13 14  1  0
 14 15  1  0
 15 16  1  0
 16 17  1  0
 17 18  1  0
 18 19  2  0
 18 20  1  0
 20 21  1  0
 21 22  2  0
 22 23  1  0
 23 24  2  0
 24 25  1  0
 24 26  1  0
 26 27  2  0
 16 28  1  0
 28 29  1  0
  7  3  1  0
 29 13  1  0
 27 21  1  0
  3 30  1  6
  4 31  1  0
  4 32  1  0
  6 33  1  0
  6 34  1  0
 10 35  1  0
 10 36  1  0
 12 37  1  0
 12 38  1  0
 13 39  1  0
 14 40  1  0
 14 41  1  0
 15 42  1  0
 15 43  1  0
 17 44  1  0
 17 45  1  0
 20 46  1  0
 22 47  1  0
 23 48  1  0
 26 49  1  0
 28 50  1  0
 28 51  1  0
 29 52  1  0
 29 53  1  0
M  END
$$$$
