
     RDKit          3D

 50 53  0  0  0  0  0  0  0  0999 V2000
   -8.1349   -3.2029   -0.6289 O   0  0  0  0  0  0  0  0  0  0  0  0
   -8.2213   -2.2371    0.1694 C   0  0  0  0  0  0  0  0  0  0  0  0
   -8.9590   -2.3936    1.3224 O   0  0  0  0  0  0  0  0  0  0  0  0
   -7.5383   -0.9609   -0.1356 C   0  0  0  0  0  0  0  0  0  0  0  0
   -7.7436    0.0299    0.8873 N   0  0  0  0  0  0  0  0  0  0  0  0
   -6.9261    1.4894    0.4755 S   0  0  0  0  0  6  0  0  0  0  0  0
   -7.4600    2.0542   -0.8041 O   0  0  0  0  0  0  0  0  0  0  0  0
   -7.1403    2.4931    1.5955 O   0  0  0  0  0  0  0  0  0  0  0  0
   -5.2145    1.1604    0.3690 C   0  0  0  0  0  0  0  0  0  0  0  0
   -4.6224    0.7705   -0.8246 C   0  0  0  0  0  0  0  0  0  0  0  0
   -3.2434    0.5179   -0.8604 C   0  0  0  0  0  0  0  0  0  0  0  0
   -2.4739    0.6522    0.2725 C   0  0  0  0  0  0  0  0  0  0  0  0
   -1.0523    0.4019    0.2809 C   0  0  0  0  0  0  0  0  0  0  0  0
   -0.4453   -0.5436   -0.5346 C   0  0  0  0  0  0  0  0  0  0  0  0
    0.9174   -0.7261   -0.4733 C   0  0  0  0  0  0  0  0  0  0  0  0
    1.7210    0.0206    0.3959 C   0  0  0  0  0  0  0  0  0  0  0  0
    3.1255   -0.2241    0.4017 N   0  0  0  0  0  0  0  0  0  0  0  0
    3.9763    0.5068   -0.4635 C   0  0  0  0  0  0  0  0  0  0  0  0
    3.4341    1.3589   -1.2138 O   0  0  0  0  0  0  0  0  0  0  0  0
    5.4326    0.2867   -0.4914 C   0  0  0  0  0  0  0  0  0  0  0  0
    6.0702   -0.6365    0.3113 C   0  0  0  0  0  0  0  0  0  0  0  0
    7.4233   -0.5615    0.0099 C   0  0  0  0  0  0  0  0  0  0  0  0
    8.5588   -1.2175    0.4654 C   0  0  0  0  0  0  0  0  0  0  0  0
    9.8114   -0.9227   -0.0359 C   0  0  0  0  0  0  0  0  0  0  0  0
    9.8732    0.0581   -1.0132 C   0  0  0  0  0  0  0  0  0  0  0  0
    8.7517    0.7201   -1.4769 C   0  0  0  0  0  0  0  0  0  0  0  0
    7.5231    0.4149   -0.9694 C   0  0  0  0  0  0  0  0  0  0  0  0
    6.3247    0.8807   -1.2269 O   0  0  0  0  0  0  0  0  0  0  0  0
    1.1039    0.9484    1.1924 C   0  0  0  0  0  0  0  0  0  0  0  0
   -0.2532    1.1338    1.1349 C   0  0  0  0  0  0  0  0  0  0  0  0
   -3.0992    1.0400    1.4333 C   0  0  0  0  0  0  0  0  0  0  0  0
   -4.4497    1.2950    1.4998 C   0  0  0  0  0  0  0  0  0  0  0  0
   -9.0188   -3.2734    1.8064 H   0  0  0  0  0  0  0  0  0  0  0  0
   -6.4627   -1.1190   -0.3063 H   0  0  0  0  0  0  0  0  0  0  0  0
   -7.9478   -0.5541   -1.0898 H   0  0  0  0  0  0  0  0  0  0  0  0
   -7.4257   -0.3084    1.8205 H   0  0  0  0  0  0  0  0  0  0  0  0
   -5.2502    0.6729   -1.6979 H   0  0  0  0  0  0  0  0  0  0  0  0
   -2.7731    0.2145   -1.7827 H   0  0  0  0  0  0  0  0  0  0  0  0
   -1.1004   -1.0995   -1.1917 H   0  0  0  0  0  0  0  0  0  0  0  0
    1.3594   -1.4654   -1.1167 H   0  0  0  0  0  0  0  0  0  0  0  0
    3.5456   -0.9530    1.0513 H   0  0  0  0  0  0  0  0  0  0  0  0
    5.6542   -1.3094    1.0447 H   0  0  0  0  0  0  0  0  0  0  0  0
    8.4456   -1.9741    1.2307 H   0  0  0  0  0  0  0  0  0  0  0  0
   10.7028   -1.4264    0.3103 H   0  0  0  0  0  0  0  0  0  0  0  0
   10.8203    0.3395   -1.4498 H   0  0  0  0  0  0  0  0  0  0  0  0
    8.8121    1.4914   -2.2473 H   0  0  0  0  0  0  0  0  0  0  0  0
    1.6833    1.5388    1.8697 H   0  0  0  0  0  0  0  0  0  0  0  0
   -0.6935    1.8750    1.7785 H   0  0  0  0  0  0  0  0  0  0  0  0
   -2.5073    1.1472    2.3259 H   0  0  0  0  0  0  0  0  0  0  0  0
   -4.9134    1.5964    2.4173 H   0  0  0  0  0  0  0  0  0  0  0  0
  1  2  2  0
  2  3  1  0
  2  4  1  0
  4  5  1  0
  5  6  1  0
  6  7  2  0
  6  8  2  0
  6  9  1  0
  9 10  2  0
 10 11  1  0
 11 12  2  0
 12 13  1  0
 13 14  2  0
 14 15  1  0
 15 16  2  0
 16 17  1  0
 17 18  1  0
 18 19  2  0
 18 20  1  0
 20 21  2  0
 21 22  1  0
 22 23  2  0
 23 24  1  0
 24 25  2  0
 25 26  1  0
 26 27  2  0
 27 28  1  0
 16 29  1  0
 29 30  2  0
 12 31  1  0
 31 32  2  0
 32  9  1  0
 30 13  1  0
 28 20  1  0
 27 22  1  0
  3 33  1  0
  4 34  1  0
  4 35  1  0
  5 36  1  0
 10 37  1  0
 11 38  1  0
 14 39  1  0
 15 40  1  0
 17 41  1  0
 21 42  1  0
 23 43  1  0
 24 44  1  0
 25 45  1  0
 26 46  1  0
 29 47  1  0
 30 48  1  0
 31 49  1  0
 32 50  1  0
M  END
$$$$
