
     RDKit          3D

 54 57  0  0  0  0  0  0  0  0999 V2000
   -0.3258   -2.0953    0.4588 C   0  0  1  0  0  0  0  0  0  0  0  0
    1.0869   -1.7508    0.2302 C   0  0  0  0  0  0  0  0  0  0  0  0
    1.8776   -2.7105    0.0029 O   0  0  0  0  0  0  0  0  0  0  0  0
    1.2399   -0.3197    0.3255 N   0  0  0  0  0  0  0  0  0  0  0  0
   -0.0570    0.2533    0.4169 C   0  0  0  0  0  0  0  0  0  0  0  0
   -0.1665    1.4715    0.0987 O   0  0  0  0  0  0  0  0  0  0  0  0
   -0.9813   -0.7969    0.8885 C   0  0  1  0  0  0  0  0  0  0  0  0
   -2.3349   -0.7683    0.2258 C   0  0  2  0  0  0  0  0  0  0  0  0
   -2.9344   -2.1504    0.4131 C   0  0  0  0  0  0  0  0  0  0  0  0
   -2.2708   -3.1473   -0.5141 C   0  0  0  0  0  0  0  0  0  0  0  0
   -0.9062   -2.5626   -0.8622 C   0  0  1  0  0  0  0  0  0  0  0  0
   -1.0605   -1.3808   -1.8009 C   0  0  0  0  0  0  0  0  0  0  0  0
   -2.1643   -0.5054   -1.2445 C   0  0  0  0  0  0  0  0  0  0  0  0
   -3.2126    0.2203    0.8191 N   0  0  0  0  0  0  0  0  0  0  0  0
   -4.5051    0.3547    0.2993 C   0  0  0  0  0  0  0  0  0  0  0  0
   -5.0168   -0.2917   -0.6443 O   0  0  0  0  0  0  0  0  0  0  0  0
   -5.4726    1.2250    0.7219 O   0  0  0  0  0  0  0  0  0  0  0  0
   -6.7357    1.2306    0.0813 C   0  0  0  0  0  0  0  0  0  0  0  0
   -7.6553    2.2223    0.6565 C   0  0  0  0  0  0  0  0  0  0  0  0
   -8.9230    2.3090    0.0990 O   0  0  0  0  0  0  0  0  0  0  0  0
   -7.3596    2.9931    1.6208 O   0  0  0  0  0  0  0  0  0  0  0  0
    2.5845    0.1472    0.3057 C   0  0  0  0  0  0  0  0  0  0  0  0
    3.2562    0.2785    1.5043 C   0  0  0  0  0  0  0  0  0  0  0  0
    4.5592    0.7242    1.5639 C   0  0  0  0  0  0  0  0  0  0  0  0
    5.2589    1.0621    0.4274 C   0  0  0  0  0  0  0  0  0  0  0  0
    6.5925    1.5115    0.5702 N   0  0  0  0  0  0  0  0  0  0  0  0
    7.5193    1.9155   -0.4197 C   0  0  0  0  0  0  0  0  0  0  0  0
    8.9029    2.3707   -0.1399 C   0  0  0  0  0  0  0  0  0  0  0  0
    7.1727    1.8969   -1.6223 O   0  0  0  0  0  0  0  0  0  0  0  0
    4.5669    0.9219   -0.7492 C   0  0  0  0  0  0  0  0  0  0  0  0
    3.2640    0.4796   -0.8492 C   0  0  0  0  0  0  0  0  0  0  0  0
   -0.4497   -2.8749    1.2353 H   0  0  0  0  0  0  0  0  0  0  0  0
   -1.0798   -0.7957    1.9866 H   0  0  0  0  0  0  0  0  0  0  0  0
   -4.0119   -2.1987    0.2596 H   0  0  0  0  0  0  0  0  0  0  0  0
   -2.7595   -2.4265    1.4930 H   0  0  0  0  0  0  0  0  0  0  0  0
   -2.0543   -4.0636    0.0736 H   0  0  0  0  0  0  0  0  0  0  0  0
   -2.8712   -3.3713   -1.4038 H   0  0  0  0  0  0  0  0  0  0  0  0
   -0.2366   -3.2679   -1.3520 H   0  0  0  0  0  0  0  0  0  0  0  0
   -0.1113   -0.8098   -1.8064 H   0  0  0  0  0  0  0  0  0  0  0  0
   -1.3059   -1.7372   -2.8148 H   0  0  0  0  0  0  0  0  0  0  0  0
   -1.9133    0.5787   -1.3388 H   0  0  0  0  0  0  0  0  0  0  0  0
   -3.0555   -0.6889   -1.8524 H   0  0  0  0  0  0  0  0  0  0  0  0
   -3.0572    0.9004    1.6157 H   0  0  0  0  0  0  0  0  0  0  0  0
   -7.1699    0.1983    0.0818 H   0  0  0  0  0  0  0  0  0  0  0  0
   -6.4966    1.4224   -1.0059 H   0  0  0  0  0  0  0  0  0  0  0  0
   -9.7186    2.7032    0.5866 H   0  0  0  0  0  0  0  0  0  0  0  0
    2.7858    0.0364    2.4449 H   0  0  0  0  0  0  0  0  0  0  0  0
    5.0516    0.8118    2.5454 H   0  0  0  0  0  0  0  0  0  0  0  0
    7.0151    1.5775    1.5219 H   0  0  0  0  0  0  0  0  0  0  0  0
    9.6211    1.9193   -0.8772 H   0  0  0  0  0  0  0  0  0  0  0  0
    9.0122    3.4645   -0.0617 H   0  0  0  0  0  0  0  0  0  0  0  0
    9.2149    1.9682    0.8486 H   0  0  0  0  0  0  0  0  0  0  0  0
    5.0293    1.1595   -1.6704 H   0  0  0  0  0  0  0  0  0  0  0  0
    2.7617    0.3858   -1.7984 H   0  0  0  0  0  0  0  0  0  0  0  0
  1  2  1  0
  2  3  2  0
  2  4  1  0
  4  5  1  0
  5  6  2  0
  5  7  1  0
  7  8  1  0
  8  9  1  0
  9 10  1  0
 10 11  1  0
 11 12  1  0
 12 13  1  0
  8 14  1  1
 14 15  1  0
 15 16  2  0
 15 17  1  0
 17 18  1  0
 18 19  1  0
 19 20  1  0
 19 21  2  0
  4 22  1  0
 22 23  2  0
 23 24  1  0
 24 25  2  0
 25 26  1  0
 26 27  1  0
 27 28  1  0
 27 29  2  0
 25 30  1  0
 30 31  2  0
  7  1  1  0
 13  8  1  0
 31 22  1  0
 11  1  1  0
  1 32  1  1
  7 33  1  1
  9 34  1  0
  9 35  1  0
 10 36  1  0
 10 37  1  0
 11 38  1  6
 12 39  1  0
 12 40  1  0
 13 41  1  0
 13 42  1  0
 14 43  1  0
 18 44  1  0
 18 45  1  0
 20 46  1  0
 23 47  1  0
 24 48  1  0
 26 49  1  0
 28 50  1  0
 28 51  1  0
 28 52  1  0
 30 53  1  0
 31 54  1  0
M  END
$$$$
