
     RDKit          3D

 20 21  0  0  0  0  0  0  0  0999 V2000
   -4.6472   -0.0273   -0.6759 N   0  0  0  0  0  0  0  0  0  0  0  0
   -3.2485    0.0042   -0.3341 C   0  0  0  0  0  0  0  0  0  0  0  0
   -2.3583   -0.6143   -0.7444 N   0  0  0  0  0  0  0  0  0  0  0  0
   -1.0823   -0.5828   -0.4299 C   0  0  0  0  0  0  0  0  0  0  0  0
   -0.7583    0.3557    0.5647 C   0  0  0  0  0  0  0  0  0  0  0  0
   -2.3233    1.1003    0.9488 S   0  0  0  0  0  0  0  0  0  0  0  0
    0.5692    0.5452    1.0458 C   0  0  0  0  0  0  0  0  0  0  0  0
    1.5900   -0.2119    0.5283 C   0  0  0  0  0  0  0  0  0  0  0  0
    2.8543   -0.0094    1.0079 O   0  0  0  0  0  0  0  0  0  0  0  0
    3.7651    0.9279    0.4476 C   0  0  0  0  0  0  0  0  0  0  0  0
    4.9647    0.9348    1.1151 F   0  0  0  0  0  0  0  0  0  0  0  0
    3.1881    2.1932    0.4137 F   0  0  0  0  0  0  0  0  0  0  0  0
    4.0192    0.4721   -0.8479 F   0  0  0  0  0  0  0  0  0  0  0  0
    1.2193   -1.1161   -0.4428 C   0  0  0  0  0  0  0  0  0  0  0  0
   -0.0254   -1.3438   -0.9431 C   0  0  0  0  0  0  0  0  0  0  0  0
   -5.0020    0.4524   -1.5441 H   0  0  0  0  0  0  0  0  0  0  0  0
   -5.2694   -0.5591    0.0019 H   0  0  0  0  0  0  0  0  0  0  0  0
    0.6509    1.3035    1.8094 H   0  0  0  0  0  0  0  0  0  0  0  0
    2.0471   -1.7185   -0.8509 H   0  0  0  0  0  0  0  0  0  0  0  0
   -0.1534   -2.1062   -1.7209 H   0  0  0  0  0  0  0  0  0  0  0  0
  1  2  1  0
  2  3  2  0
  3  4  1  0
  4  5  2  0
  5  6  1  0
  5  7  1  0
  7  8  2  0
  8  9  1  0
  9 10  1  0
 10 11  1  0
 10 12  1  0
 10 13  1  0
  8 14  1  0
 14 15  2  0
  6  2  1  0
 15  4  1  0
  1 16  1  0
  1 17  1  0
  7 18  1  0
 14 19  1  0
 15 20  1  0
M  END
$$$$
