
     RDKit          3D

 34 35  0  0  0  0  0  0  0  0999 V2000
    6.2054    1.1635    1.1888 N   0  0  0  0  0  0  0  0  0  0  0  0
    5.6674   -0.3022    0.4784 S   0  0  0  0  0  0  0  0  0  0  0  0
    5.8382   -1.4450    1.4411 O   0  0  0  0  0  0  0  0  0  0  0  0
    6.5281   -0.5872   -0.7139 O   0  0  0  0  0  0  0  0  0  0  0  0
    3.9807   -0.1229    0.0253 C   0  0  0  0  0  0  0  0  0  0  0  0
    3.7384    0.3527   -1.2456 C   0  0  0  0  0  0  0  0  0  0  0  0
    2.4183    0.5021   -1.6241 C   0  0  0  0  0  0  0  0  0  0  0  0
    1.4106    0.1773   -0.7360 C   0  0  0  0  0  0  0  0  0  0  0  0
    1.6769   -0.2997    0.5386 C   0  0  0  0  0  0  0  0  0  0  0  0
    2.9787   -0.4562    0.9361 C   0  0  0  0  0  0  0  0  0  0  0  0
    0.0368    0.3581   -1.1932 C   0  0  0  0  0  0  0  0  0  0  0  0
   -0.1693    0.8056   -2.3500 O   0  0  0  0  0  0  0  0  0  0  0  0
   -1.1011    0.0581   -0.4081 N   0  0  0  0  0  0  0  0  0  0  0  0
   -2.3380    0.3230   -1.0818 C   0  0  0  0  0  0  0  0  0  0  0  0
   -3.5331    0.0102   -0.2949 C   0  0  0  0  0  0  0  0  0  0  0  0
   -4.2386   -1.1346   -0.5902 C   0  0  0  0  0  0  0  0  0  0  0  0
   -5.3951   -1.5683    0.0675 C   0  0  0  0  0  0  0  0  0  0  0  0
   -6.0143   -2.7183   -0.3049 F   0  0  0  0  0  0  0  0  0  0  0  0
   -5.8597   -0.7690    1.1018 C   0  0  0  0  0  0  0  0  0  0  0  0
   -5.1740    0.3955    1.4298 C   0  0  0  0  0  0  0  0  0  0  0  0
   -4.0402    0.7725    0.7472 C   0  0  0  0  0  0  0  0  0  0  0  0
   -3.3745    1.9073    1.0703 F   0  0  0  0  0  0  0  0  0  0  0  0
    6.1865    1.9216    0.4653 H   0  0  0  0  0  0  0  0  0  0  0  0
    5.5908    1.5071    1.9664 H   0  0  0  0  0  0  0  0  0  0  0  0
    4.5563    0.6014   -1.9227 H   0  0  0  0  0  0  0  0  0  0  0  0
    2.1977    0.8749   -2.6200 H   0  0  0  0  0  0  0  0  0  0  0  0
    0.9132   -0.5523    1.2308 H   0  0  0  0  0  0  0  0  0  0  0  0
    3.3079   -0.8221    1.9108 H   0  0  0  0  0  0  0  0  0  0  0  0
   -0.9851   -0.3129    0.5498 H   0  0  0  0  0  0  0  0  0  0  0  0
   -2.4274   -0.1437   -2.0765 H   0  0  0  0  0  0  0  0  0  0  0  0
   -2.3574    1.4343   -1.2798 H   0  0  0  0  0  0  0  0  0  0  0  0
   -3.8896   -1.7712   -1.3960 H   0  0  0  0  0  0  0  0  0  0  0  0
   -6.7551   -1.1419    1.5812 H   0  0  0  0  0  0  0  0  0  0  0  0
   -5.5796    0.9825    2.2457 H   0  0  0  0  0  0  0  0  0  0  0  0
  1  2  1  0
  2  3  2  0
  2  4  2  0
  2  5  1  0
  5  6  2  0
  6  7  1  0
  7  8  2  0
  8  9  1  0
  9 10  2  0
  8 11  1  0
 11 12  2  0
 11 13  1  0
 13 14  1  0
 14 15  1  0
 15 16  2  0
 16 17  1  0
 17 18  1  0
 17 19  2  0
 19 20  1  0
 20 21  2  0
 21 22  1  0
 10  5  1  0
 21 15  1  0
  1 23  1  0
  1 24  1  0
  6 25  1  0
  7 26  1  0
  9 27  1  0
 10 28  1  0
 13 29  1  0
 14 30  1  0
 14 31  1  0
 16 32  1  0
 19 33  1  0
 20 34  1  0
M  END
$$$$
