
     RDKit          3D

 69 74  0  0  0  0  0  0  0  0999 V2000
   -4.6193   -2.6566    2.4849 N   0  0  0  0  0  0  0  0  0  0  0  0
   -5.2631   -1.4234    2.2270 C   0  0  0  0  0  0  0  0  0  0  0  0
   -5.7430   -0.7382    3.1712 O   0  0  0  0  0  0  0  0  0  0  0  0
   -5.3723   -0.9469    0.8842 N   0  0  0  0  0  0  0  0  0  0  0  0
   -4.9051   -1.5820   -0.1808 N   0  0  0  0  0  0  0  0  0  0  0  0
   -5.1784   -0.8584   -1.2654 C   0  0  0  0  0  0  0  0  0  0  0  0
   -4.8788   -1.1450   -2.6210 N   0  0  0  0  0  0  0  0  0  0  0  0
   -4.1717   -2.3625   -2.9048 C   0  0  0  0  0  0  0  0  0  0  0  0
   -2.8036   -2.3619   -2.3567 C   0  0  0  0  0  0  0  0  0  0  0  0
   -2.0699   -3.3765   -2.5110 O   0  0  0  0  0  0  0  0  0  0  0  0
   -2.1974   -1.2937   -1.6438 N   0  0  0  0  0  0  0  0  0  0  0  0
   -0.8733   -1.2932   -1.1114 C   0  0  0  0  0  0  0  0  0  0  0  0
    0.0399   -0.1972   -1.5871 C   0  0  0  0  0  0  0  0  0  0  0  0
    0.5392   -0.0649   -0.2491 N   0  0  0  0  0  0  0  0  0  0  0  0
    1.8405   -0.5569    0.0120 C   0  0  1  0  0  0  0  0  0  0  0  0
    2.8376    0.2177   -0.8176 C   0  0  0  0  0  0  0  0  0  0  0  0
    4.1710   -0.4592   -0.7480 C   0  0  0  0  0  0  0  0  0  0  0  0
    4.6598   -0.5272    0.6534 C   0  0  1  0  0  0  0  0  0  0  0  0
    5.9461    0.2229    0.8410 C   0  0  0  0  0  0  0  0  0  0  0  0
    6.0228    1.5486    0.5080 C   0  0  0  0  0  0  0  0  0  0  0  0
    7.2064    2.2687    0.6725 C   0  0  0  0  0  0  0  0  0  0  0  0
    8.2846    1.5808    1.1834 C   0  0  0  0  0  0  0  0  0  0  0  0
    8.2037    0.2407    1.5190 C   0  0  0  0  0  0  0  0  0  0  0  0
    7.0152   -0.4518    1.3457 C   0  0  0  0  0  0  0  0  0  0  0  0
    9.4499   -0.1104    1.9903 O   0  0  0  0  0  0  0  0  0  0  0  0
   10.3537    0.9570    1.9018 C   0  0  0  0  0  0  0  0  0  0  0  0
    9.5649    2.0373    1.4480 O   0  0  0  0  0  0  0  0  0  0  0  0
    3.6711    0.1023    1.5868 C   0  0  0  0  0  0  0  0  0  0  0  0
    2.2686   -0.4073    1.4497 C   0  0  0  0  0  0  0  0  0  0  0  0
   -0.5986   -0.8121    0.2285 C   0  0  0  0  0  0  0  0  0  0  0  0
   -5.8439    0.2741   -0.8529 C   0  0  0  0  0  0  0  0  0  0  0  0
   -6.3563    1.3623   -1.5829 C   0  0  0  0  0  0  0  0  0  0  0  0
   -6.9825    2.3657   -0.8912 C   0  0  0  0  0  0  0  0  0  0  0  0
   -7.5304    3.5266   -1.6552 C   0  0  0  0  0  0  0  0  0  0  0  0
   -7.7847    3.1617   -2.9686 F   0  0  0  0  0  0  0  0  0  0  0  0
   -8.7172    3.9484   -1.0841 F   0  0  0  0  0  0  0  0  0  0  0  0
   -6.6563    4.6047   -1.6386 F   0  0  0  0  0  0  0  0  0  0  0  0
   -7.0910    2.2828    0.4732 C   0  0  0  0  0  0  0  0  0  0  0  0
   -6.5974    1.2306    1.1956 C   0  0  0  0  0  0  0  0  0  0  0  0
   -5.9550    0.1957    0.5130 C   0  0  0  0  0  0  0  0  0  0  0  0
   -3.8510   -2.9599    1.8672 H   0  0  0  0  0  0  0  0  0  0  0  0
   -4.9074   -3.2491    3.2757 H   0  0  0  0  0  0  0  0  0  0  0  0
   -5.1616   -0.4970   -3.3729 H   0  0  0  0  0  0  0  0  0  0  0  0
   -4.0764   -2.4556   -4.0064 H   0  0  0  0  0  0  0  0  0  0  0  0
   -4.7350   -3.2660   -2.5811 H   0  0  0  0  0  0  0  0  0  0  0  0
   -2.7637   -0.4293   -1.4988 H   0  0  0  0  0  0  0  0  0  0  0  0
   -0.3836   -2.2776   -1.3140 H   0  0  0  0  0  0  0  0  0  0  0  0
   -0.5277    0.7052   -1.9123 H   0  0  0  0  0  0  0  0  0  0  0  0
    0.7668   -0.5337   -2.3628 H   0  0  0  0  0  0  0  0  0  0  0  0
    1.9800   -1.6380   -0.2813 H   0  0  0  0  0  0  0  0  0  0  0  0
    2.9220    1.2374   -0.3380 H   0  0  0  0  0  0  0  0  0  0  0  0
    2.4950    0.3561   -1.8718 H   0  0  0  0  0  0  0  0  0  0  0  0
    3.9973   -1.5154   -1.1078 H   0  0  0  0  0  0  0  0  0  0  0  0
    4.9125    0.0023   -1.4498 H   0  0  0  0  0  0  0  0  0  0  0  0
    4.8064   -1.5962    0.9755 H   0  0  0  0  0  0  0  0  0  0  0  0
    5.1412    2.0228    0.1138 H   0  0  0  0  0  0  0  0  0  0  0  0
    7.2258    3.3014    0.4011 H   0  0  0  0  0  0  0  0  0  0  0  0
    7.0180   -1.4940    1.6266 H   0  0  0  0  0  0  0  0  0  0  0  0
   10.7647    1.2481    2.9024 H   0  0  0  0  0  0  0  0  0  0  0  0
   11.2035    0.7337    1.2158 H   0  0  0  0  0  0  0  0  0  0  0  0
    3.6517    1.2096    1.5434 H   0  0  0  0  0  0  0  0  0  0  0  0
    3.9850   -0.1729    2.6425 H   0  0  0  0  0  0  0  0  0  0  0  0
    2.2093   -1.3959    1.9496 H   0  0  0  0  0  0  0  0  0  0  0  0
    1.6081    0.2758    2.0201 H   0  0  0  0  0  0  0  0  0  0  0  0
   -0.3618   -1.6312    0.9397 H   0  0  0  0  0  0  0  0  0  0  0  0
   -1.2890   -0.1147    0.7328 H   0  0  0  0  0  0  0  0  0  0  0  0
   -6.2412    1.3753   -2.6680 H   0  0  0  0  0  0  0  0  0  0  0  0
   -7.5892    3.0872    0.9959 H   0  0  0  0  0  0  0  0  0  0  0  0
   -6.6853    1.1684    2.2775 H   0  0  0  0  0  0  0  0  0  0  0  0
  1  2  1  0
  2  3  2  0
  2  4  1  0
  4  5  1  0
  5  6  2  0
  6  7  1  0
  7  8  1  0
  8  9  1  0
  9 10  2  0
  9 11  1  0
 11 12  1  0
 12 13  1  0
 13 14  1  0
 14 15  1  0
 15 16  1  0
 16 17  1  0
 17 18  1  0
 18 19  1  0
 19 20  2  0
 20 21  1  0
 21 22  2  0
 22 23  1  0
 23 24  2  0
 23 25  1  0
 25 26  1  0
 26 27  1  0
 18 28  1  0
 28 29  1  0
 14 30  1  0
  6 31  1  0
 31 32  2  0
 32 33  1  0
 33 34  1  0
 34 35  1  0
 34 36  1  0
 34 37  1  0
 33 38  2  0
 38 39  1  0
 39 40  2  0
 40  4  1  0
 30 12  1  0
 40 31  1  0
 29 15  1  0
 24 19  1  0
 27 22  1  0
  1 41  1  0
  1 42  1  0
  7 43  1  0
  8 44  1  0
  8 45  1  0
 11 46  1  0
 12 47  1  0
 13 48  1  0
 13 49  1  0
 15 50  1  6
 16 51  1  0
 16 52  1  0
 17 53  1  0
 17 54  1  0
 18 55  1  1
 20 56  1  0
 21 57  1  0
 24 58  1  0
 26 59  1  0
 26 60  1  0
 28 61  1  0
 28 62  1  0
 29 63  1  0
 29 64  1  0
 30 65  1  0
 30 66  1  0
 32 67  1  0
 38 68  1  0
 39 69  1  0
M  END
$$$$
