
     RDKit          3D

 43 45  0  0  0  0  0  0  0  0999 V2000
   -2.3865    3.3797   -1.1906 C   0  0  0  0  0  0  0  0  0  0  0  0
   -2.3657    2.0364   -0.7574 O   0  0  0  0  0  0  0  0  0  0  0  0
   -1.1262    1.4138   -0.5386 C   0  0  0  0  0  0  0  0  0  0  0  0
    0.0461    2.1200   -0.7489 C   0  0  0  0  0  0  0  0  0  0  0  0
    1.2909    1.5634   -0.5513 C   0  0  0  0  0  0  0  0  0  0  0  0
    1.4243    0.2580   -0.1288 C   0  0  0  0  0  0  0  0  0  0  0  0
    2.7398   -0.3554    0.0882 C   0  0  0  0  0  0  0  0  0  0  0  0
    2.7788   -1.5497    0.4736 O   0  0  0  0  0  0  0  0  0  0  0  0
    3.9673    0.3181   -0.1108 N   0  0  0  0  0  0  0  0  0  0  0  0
    5.2131   -0.3413    0.1199 C   0  0  0  0  0  0  0  0  0  0  0  0
    5.8184   -1.0198   -0.9095 C   0  0  0  0  0  0  0  0  0  0  0  0
    5.1052   -1.1010   -2.5039 Cl  0  0  0  0  0  0  0  0  0  0  0  0
    7.0402   -1.6689   -0.6911 C   0  0  0  0  0  0  0  0  0  0  0  0
    7.5741   -1.5961    0.5406 N   0  0  0  0  0  0  0  0  0  0  0  0
    6.9930   -0.9325    1.5682 C   0  0  0  0  0  0  0  0  0  0  0  0
    5.7899   -0.2912    1.3598 C   0  0  0  0  0  0  0  0  0  0  0  0
    5.0721    0.5549    2.7134 Cl  0  0  0  0  0  0  0  0  0  0  0  0
    0.2655   -0.4370    0.0782 C   0  0  0  0  0  0  0  0  0  0  0  0
   -1.0214    0.1104   -0.1171 C   0  0  0  0  0  0  0  0  0  0  0  0
   -2.1040   -0.6767    0.1206 O   0  0  0  0  0  0  0  0  0  0  0  0
   -3.4431   -0.5043    0.0454 C   0  0  0  0  0  0  0  0  0  0  0  0
   -4.1163   -1.5135   -0.9225 C   0  0  0  0  0  0  0  0  0  0  0  0
   -5.5578   -1.3754   -0.5446 C   0  0  0  0  0  0  0  0  0  0  0  0
   -5.6200   -0.8364    0.8567 C   0  0  0  0  0  0  0  0  0  0  0  0
   -4.1745   -0.9612    1.3326 C   0  0  0  0  0  0  0  0  0  0  0  0
   -1.8304    4.0603   -0.5010 H   0  0  0  0  0  0  0  0  0  0  0  0
   -3.3873    3.7375   -1.4290 H   0  0  0  0  0  0  0  0  0  0  0  0
   -1.7919    3.3990   -2.1507 H   0  0  0  0  0  0  0  0  0  0  0  0
   -0.0691    3.1599   -1.0856 H   0  0  0  0  0  0  0  0  0  0  0  0
    2.1768    2.1567   -0.7294 H   0  0  0  0  0  0  0  0  0  0  0  0
    3.9741    1.3096   -0.4302 H   0  0  0  0  0  0  0  0  0  0  0  0
    7.5339   -2.2128   -1.5007 H   0  0  0  0  0  0  0  0  0  0  0  0
    7.4524   -0.8956    2.5463 H   0  0  0  0  0  0  0  0  0  0  0  0
    0.3418   -1.4770    0.4144 H   0  0  0  0  0  0  0  0  0  0  0  0
   -3.8184    0.4647   -0.2720 H   0  0  0  0  0  0  0  0  0  0  0  0
   -3.9023   -1.2411   -1.9602 H   0  0  0  0  0  0  0  0  0  0  0  0
   -3.7044   -2.4991   -0.6238 H   0  0  0  0  0  0  0  0  0  0  0  0
   -6.0599   -0.7438   -1.2913 H   0  0  0  0  0  0  0  0  0  0  0  0
   -6.0354   -2.3976   -0.5230 H   0  0  0  0  0  0  0  0  0  0  0  0
   -6.3222   -1.3490    1.5119 H   0  0  0  0  0  0  0  0  0  0  0  0
   -5.8537    0.2609    0.8836 H   0  0  0  0  0  0  0  0  0  0  0  0
   -3.9441   -0.3067    2.1716 H   0  0  0  0  0  0  0  0  0  0  0  0
   -3.9632   -2.0202    1.4695 H   0  0  0  0  0  0  0  0  0  0  0  0
  1  2  1  0
  2  3  1  0
  3  4  2  0
  4  5  1  0
  5  6  2  0
  6  7  1  0
  7  8  2  0
  7  9  1  0
  9 10  1  0
 10 11  2  0
 11 12  1  0
 11 13  1  0
 13 14  2  0
 14 15  1  0
 15 16  2  0
 16 17  1  0
  6 18  1  0
 18 19  2  0
 19 20  1  0
 20 21  1  0
 21 22  1  0
 22 23  1  0
 23 24  1  0
 24 25  1  0
 19  3  1  0
 25 21  1  0
 16 10  1  0
  1 26  1  0
  1 27  1  0
  1 28  1  0
  4 29  1  0
  5 30  1  0
  9 31  1  0
 13 32  1  0
 15 33  1  0
 18 34  1  0
 21 35  1  0
 22 36  1  0
 22 37  1  0
 23 38  1  0
 23 39  1  0
 24 40  1  0
 24 41  1  0
 25 42  1  0
 25 43  1  0
M  END
$$$$
