
     RDKit          3D

 56 59  0  0  0  0  0  0  0  0999 V2000
   -5.3765    3.3624    2.2150 N   0  0  0  0  0  0  0  0  0  0  0  0
   -5.6613    2.3400    1.2694 C   0  0  0  0  0  0  0  0  0  0  0  0
   -6.7402    1.6798    1.3727 N   0  0  0  0  0  0  0  0  0  0  0  0
   -7.0684    0.6268    0.4266 C   0  0  0  0  0  0  0  0  0  0  0  0
   -6.5340    0.9405   -0.9540 C   0  0  0  0  0  0  0  0  0  0  0  0
   -5.1111    1.3884   -0.9345 C   0  0  0  0  0  0  0  0  0  0  0  0
   -4.7170    2.0987    0.2401 N   0  0  0  0  0  0  0  0  0  0  0  0
   -3.3782    2.5810    0.4117 C   0  0  0  0  0  0  0  0  0  0  0  0
   -2.3623    1.4847    0.3869 C   0  0  0  0  0  0  0  0  0  0  0  0
   -2.0094    0.8663    1.5467 C   0  0  0  0  0  0  0  0  0  0  0  0
   -1.0620   -0.1602    1.5440 C   0  0  0  0  0  0  0  0  0  0  0  0
   -0.4619   -0.5731    0.3758 C   0  0  0  0  0  0  0  0  0  0  0  0
    0.5169   -1.6451    0.4303 C   0  0  0  0  0  0  0  0  0  0  0  0
    0.8205   -2.2002    1.5423 O   0  0  0  0  0  0  0  0  0  0  0  0
    1.1888   -2.1395   -0.7200 N   0  0  0  0  0  0  0  0  0  0  0  0
    2.1273   -3.1900   -0.5567 C   0  0  0  0  0  0  0  0  0  0  0  0
    1.7218   -4.5281   -0.6393 C   0  0  0  0  0  0  0  0  0  0  0  0
    2.6481   -5.5356   -0.4779 C   0  0  0  0  0  0  0  0  0  0  0  0
    3.9622   -5.1970   -0.2371 C   0  0  0  0  0  0  0  0  0  0  0  0
    5.1459   -6.4650   -0.0307 Cl  0  0  0  0  0  0  0  0  0  0  0  0
    4.3872   -3.8660   -0.1510 C   0  0  0  0  0  0  0  0  0  0  0  0
    3.4371   -2.8573   -0.3167 C   0  0  0  0  0  0  0  0  0  0  0  0
    3.8092   -1.4596   -0.2398 C   0  0  0  0  0  0  0  0  0  0  0  0
    2.9284   -0.5781   -0.3938 O   0  0  0  0  0  0  0  0  0  0  0  0
    5.1271   -0.9791    0.0026 N   0  0  0  0  0  0  0  0  0  0  0  0
    5.4163    0.4256    0.0646 C   0  0  0  0  0  0  0  0  0  0  0  0
    6.7222    0.7865    0.3040 C   0  0  0  0  0  0  0  0  0  0  0  0
    7.0508    2.1173    0.3726 C   0  0  0  0  0  0  0  0  0  0  0  0
    6.0746    3.0720    0.2019 C   0  0  0  0  0  0  0  0  0  0  0  0
    6.4881    4.7872    0.2884 Cl  0  0  0  0  0  0  0  0  0  0  0  0
    4.7664    2.6712   -0.0382 C   0  0  0  0  0  0  0  0  0  0  0  0
    4.4830    1.3569   -0.0985 N   0  0  0  0  0  0  0  0  0  0  0  0
   -0.8244    0.0568   -0.7883 C   0  0  0  0  0  0  0  0  0  0  0  0
   -1.7665    1.0802   -0.7992 C   0  0  0  0  0  0  0  0  0  0  0  0
   -4.6267    3.1908    2.9235 H   0  0  0  0  0  0  0  0  0  0  0  0
   -5.9095    4.2682    2.1991 H   0  0  0  0  0  0  0  0  0  0  0  0
   -6.6429   -0.3266    0.8056 H   0  0  0  0  0  0  0  0  0  0  0  0
   -8.1611    0.5354    0.4191 H   0  0  0  0  0  0  0  0  0  0  0  0
   -6.5620   -0.0354   -1.5209 H   0  0  0  0  0  0  0  0  0  0  0  0
   -7.1890    1.6300   -1.5000 H   0  0  0  0  0  0  0  0  0  0  0  0
   -4.9426    1.9860   -1.8749 H   0  0  0  0  0  0  0  0  0  0  0  0
   -4.4290    0.4918   -1.0154 H   0  0  0  0  0  0  0  0  0  0  0  0
   -3.2545    3.1433    1.3561 H   0  0  0  0  0  0  0  0  0  0  0  0
   -3.1533    3.3190   -0.4080 H   0  0  0  0  0  0  0  0  0  0  0  0
   -2.4532    1.1552    2.4911 H   0  0  0  0  0  0  0  0  0  0  0  0
   -0.8256   -0.6102    2.4963 H   0  0  0  0  0  0  0  0  0  0  0  0
    0.9833   -1.7226   -1.6748 H   0  0  0  0  0  0  0  0  0  0  0  0
    0.6777   -4.7268   -0.8301 H   0  0  0  0  0  0  0  0  0  0  0  0
    2.2917   -6.5505   -0.5494 H   0  0  0  0  0  0  0  0  0  0  0  0
    5.4179   -3.6547    0.0375 H   0  0  0  0  0  0  0  0  0  0  0  0
    5.8757   -1.6878    0.1338 H   0  0  0  0  0  0  0  0  0  0  0  0
    7.5053    0.0523    0.4411 H   0  0  0  0  0  0  0  0  0  0  0  0
    8.0903    2.4002    0.5631 H   0  0  0  0  0  0  0  0  0  0  0  0
    4.0068    3.4350   -0.1709 H   0  0  0  0  0  0  0  0  0  0  0  0
   -0.3855   -0.2270   -1.7320 H   0  0  0  0  0  0  0  0  0  0  0  0
   -2.0628    1.5858   -1.7058 H   0  0  0  0  0  0  0  0  0  0  0  0
  1  2  1  0
  2  3  2  0
  3  4  1  0
  4  5  1  0
  5  6  1  0
  6  7  1  0
  7  8  1  0
  8  9  1  0
  9 10  2  0
 10 11  1  0
 11 12  2  0
 12 13  1  0
 13 14  2  0
 13 15  1  0
 15 16  1  0
 16 17  2  0
 17 18  1  0
 18 19  2  0
 19 20  1  0
 19 21  1  0
 21 22  2  0
 22 23  1  0
 23 24  2  0
 23 25  1  0
 25 26  1  0
 26 27  2  0
 27 28  1  0
 28 29  2  0
 29 30  1  0
 29 31  1  0
 31 32  2  0
 12 33  1  0
 33 34  2  0
  7  2  1  0
 34  9  1  0
 22 16  1  0
 32 26  1  0
  1 35  1  0
  1 36  1  0
  4 37  1  0
  4 38  1  0
  5 39  1  0
  5 40  1  0
  6 41  1  0
  6 42  1  0
  8 43  1  0
  8 44  1  0
 10 45  1  0
 11 46  1  0
 15 47  1  0
 17 48  1  0
 18 49  1  0
 21 50  1  0
 25 51  1  0
 27 52  1  0
 28 53  1  0
 31 54  1  0
 33 55  1  0
 34 56  1  0
M  END
$$$$
