
     RDKit          3D

 57 60  0  0  0  0  0  0  0  0999 V2000
    6.0584    2.9008    2.2620 C   0  0  0  0  0  0  0  0  0  0  0  0
    5.7107    1.8815    1.2324 C   0  0  0  0  0  0  0  0  0  0  0  0
    6.4388    0.8585    1.1560 O   0  0  0  0  0  0  0  0  0  0  0  0
    4.6011    2.0261    0.3491 N   0  0  0  0  0  0  0  0  0  0  0  0
    4.2608    1.0230   -0.6580 C   0  0  0  0  0  0  0  0  0  0  0  0
    3.9521   -0.2914   -0.0214 C   0  0  0  0  0  0  0  0  0  0  0  0
    3.5978   -1.3059   -1.0386 C   0  0  0  0  0  0  0  0  0  0  0  0
    4.6366   -2.0996   -1.4964 C   0  0  0  0  0  0  0  0  0  0  0  0
    4.3807   -3.0334   -2.4637 C   0  0  0  0  0  0  0  0  0  0  0  0
    3.0994   -3.1750   -2.9707 C   0  0  0  0  0  0  0  0  0  0  0  0
    2.0822   -2.3794   -2.5039 C   0  0  0  0  0  0  0  0  0  0  0  0
    2.3171   -1.4122   -1.5098 C   0  0  0  0  0  0  0  0  0  0  0  0
    1.1681   -0.6454   -1.0497 C   0  0  0  0  0  0  0  0  0  0  0  0
    0.9500    0.6668   -0.9851 N   0  0  0  0  0  0  0  0  0  0  0  0
   -0.2450    0.9172   -0.4921 O   0  0  0  0  0  0  0  0  0  0  0  0
   -0.8529   -0.2181   -0.2159 C   0  0  0  0  0  0  0  0  0  0  0  0
   -2.2026   -0.4682    0.3529 C   0  0  1  0  0  0  0  0  0  0  0  0
   -2.0584   -0.4855    1.8602 C   0  0  0  0  0  0  0  0  0  0  0  0
   -1.4784    0.7859    2.2466 N   0  0  0  0  0  0  0  0  0  0  0  0
   -2.5277    1.7744    2.0192 C   0  0  0  0  0  0  0  0  0  0  0  0
   -2.8550    1.9027    0.5588 C   0  0  0  0  0  0  0  0  0  0  0  0
   -3.1237    0.6261   -0.1402 C   0  0  1  0  0  0  0  0  0  0  0  0
   -2.8076    0.8256   -1.5049 O   0  0  0  0  0  0  0  0  0  0  0  0
   -4.5318    0.1619   -0.1088 C   0  0  0  0  0  0  0  0  0  0  0  0
   -5.4891    0.8801    0.5660 C   0  0  0  0  0  0  0  0  0  0  0  0
   -6.7922    0.3705    0.5484 C   0  0  0  0  0  0  0  0  0  0  0  0
   -7.0976   -0.7993   -0.1168 C   0  0  0  0  0  0  0  0  0  0  0  0
   -8.3853   -1.2676   -0.1108 F   0  0  0  0  0  0  0  0  0  0  0  0
   -6.1193   -1.5007   -0.7857 C   0  0  0  0  0  0  0  0  0  0  0  0
   -6.4468   -2.6526   -1.4334 F   0  0  0  0  0  0  0  0  0  0  0  0
   -4.8187   -1.0022   -0.7747 C   0  0  0  0  0  0  0  0  0  0  0  0
   -0.0003   -1.2374   -0.5508 C   0  0  0  0  0  0  0  0  0  0  0  0
   -0.3138   -3.0879   -0.3804 Br  0  0  0  0  0  0  0  0  0  0  0  0
    7.1352    3.1767    2.0651 H   0  0  0  0  0  0  0  0  0  0  0  0
    5.9886    2.4303    3.2787 H   0  0  0  0  0  0  0  0  0  0  0  0
    5.3919    3.7564    2.1312 H   0  0  0  0  0  0  0  0  0  0  0  0
    4.0362    2.9106    0.4697 H   0  0  0  0  0  0  0  0  0  0  0  0
    3.4723    1.4206   -1.2925 H   0  0  0  0  0  0  0  0  0  0  0  0
    5.1393    0.8731   -1.3484 H   0  0  0  0  0  0  0  0  0  0  0  0
    4.7592   -0.6484    0.6524 H   0  0  0  0  0  0  0  0  0  0  0  0
    3.0834   -0.1009    0.6743 H   0  0  0  0  0  0  0  0  0  0  0  0
    5.6455   -2.0129   -1.1223 H   0  0  0  0  0  0  0  0  0  0  0  0
    5.1584   -3.6863   -2.8617 H   0  0  0  0  0  0  0  0  0  0  0  0
    2.9209   -3.9321   -3.7469 H   0  0  0  0  0  0  0  0  0  0  0  0
    1.0681   -2.4846   -2.8987 H   0  0  0  0  0  0  0  0  0  0  0  0
   -2.5540   -1.4730    0.0049 H   0  0  0  0  0  0  0  0  0  0  0  0
   -3.0470   -0.6428    2.3573 H   0  0  0  0  0  0  0  0  0  0  0  0
   -1.3626   -1.3217    2.0949 H   0  0  0  0  0  0  0  0  0  0  0  0
   -1.2396    0.8076    3.2622 H   0  0  0  0  0  0  0  0  0  0  0  0
   -3.3957    1.4798    2.6219 H   0  0  0  0  0  0  0  0  0  0  0  0
   -2.1225    2.7475    2.3639 H   0  0  0  0  0  0  0  0  0  0  0  0
   -3.6239    2.6868    0.4506 H   0  0  0  0  0  0  0  0  0  0  0  0
   -1.9344    2.3679    0.0914 H   0  0  0  0  0  0  0  0  0  0  0  0
   -2.6873   -0.0509   -1.9636 H   0  0  0  0  0  0  0  0  0  0  0  0
   -5.2935    1.8024    1.1040 H   0  0  0  0  0  0  0  0  0  0  0  0
   -7.5459    0.9544    1.0913 H   0  0  0  0  0  0  0  0  0  0  0  0
   -4.1002   -1.5998   -1.3194 H   0  0  0  0  0  0  0  0  0  0  0  0
  1  2  1  0
  2  3  2  0
  2  4  1  0
  4  5  1  0
  5  6  1  0
  6  7  1  0
  7  8  2  0
  8  9  1  0
  9 10  2  0
 10 11  1  0
 11 12  2  0
 12 13  1  0
 13 14  2  0
 14 15  1  0
 15 16  1  0
 16 17  1  0
 17 18  1  0
 18 19  1  0
 19 20  1  0
 20 21  1  0
 21 22  1  0
 22 23  1  6
 22 24  1  0
 24 25  2  0
 25 26  1  0
 26 27  2  0
 27 28  1  0
 27 29  1  0
 29 30  1  0
 29 31  2  0
 16 32  2  0
 32 33  1  0
 12  7  1  0
 32 13  1  0
 22 17  1  0
 31 24  1  0
  1 34  1  0
  1 35  1  0
  1 36  1  0
  4 37  1  0
  5 38  1  0
  5 39  1  0
  6 40  1  0
  6 41  1  0
  8 42  1  0
  9 43  1  0
 10 44  1  0
 11 45  1  0
 17 46  1  6
 18 47  1  0
 18 48  1  0
 19 49  1  0
 20 50  1  0
 20 51  1  0
 21 52  1  0
 21 53  1  0
 23 54  1  0
 25 55  1  0
 26 56  1  0
 31 57  1  0
M  END
$$$$
