
     RDKit          3D

 61 63  0  0  0  0  0  0  0  0999 V2000
    2.0934   -2.7257    1.3124 C   0  0  0  0  0  0  0  0  0  0  0  0
    3.2669   -1.7921    1.0237 C   0  0  0  0  0  0  0  0  0  0  0  0
    4.2927   -2.4152    0.1410 C   0  0  0  0  0  0  0  0  0  0  0  0
    2.7686   -0.4684    0.4921 C   0  0  0  0  0  0  0  0  0  0  0  0
    2.0515   -0.5996   -0.6733 O   0  0  0  0  0  0  0  0  0  0  0  0
    1.5945    0.6069   -1.1777 C   0  0  0  0  0  0  0  0  0  0  0  0
    0.6988    1.3789   -0.2918 C   0  0  0  0  0  0  0  0  0  0  0  0
   -0.6702    0.8899    0.0098 C   0  0  0  0  0  0  0  0  0  0  0  0
   -0.9079   -0.3699    0.5947 N   0  0  0  0  0  0  0  0  0  0  0  0
   -0.9769   -1.5568   -0.1943 C   0  0  0  0  0  0  0  0  0  0  0  0
   -2.2568   -1.6206   -0.9718 C   0  0  0  0  0  0  0  0  0  0  0  0
   -2.4097   -1.1412   -2.2390 C   0  0  0  0  0  0  0  0  0  0  0  0
   -3.5961   -1.1951   -2.9375 C   0  0  0  0  0  0  0  0  0  0  0  0
   -4.6862   -1.7621   -2.3276 C   0  0  0  0  0  0  0  0  0  0  0  0
   -4.5673   -2.2610   -1.0377 C   0  0  0  0  0  0  0  0  0  0  0  0
   -3.3428   -2.1883   -0.3579 C   0  0  0  0  0  0  0  0  0  0  0  0
   -1.0454   -0.4435    2.0330 C   0  0  0  0  0  0  0  0  0  0  0  0
   -0.8571    0.7133    2.7936 C   0  0  0  0  0  0  0  0  0  0  0  0
   -0.9938    0.7113    4.1712 C   0  0  0  0  0  0  0  0  0  0  0  0
   -1.3190   -0.4358    4.8218 C   0  0  0  0  0  0  0  0  0  0  0  0
   -1.5084   -1.5793    4.1091 C   0  0  0  0  0  0  0  0  0  0  0  0
   -1.3717   -1.5816    2.7143 C   0  0  0  0  0  0  0  0  0  0  0  0
    0.4069    2.7002   -0.9092 N   0  0  0  0  0  0  0  0  0  0  0  0
   -0.2040    2.6426   -2.1712 C   0  0  0  0  0  0  0  0  0  0  0  0
    0.5348    3.6378   -3.0522 C   0  0  0  0  0  0  0  0  0  0  0  0
    1.1734    4.5440   -2.0277 C   0  0  0  0  0  0  0  0  0  0  0  0
    1.4840    3.6055   -0.8759 C   0  0  0  0  0  0  0  0  0  0  0  0
    1.7188   -3.1356    0.3579 H   0  0  0  0  0  0  0  0  0  0  0  0
    1.3507   -2.1319    1.8646 H   0  0  0  0  0  0  0  0  0  0  0  0
    2.4586   -3.5244    1.9920 H   0  0  0  0  0  0  0  0  0  0  0  0
    3.7219   -1.5922    2.0281 H   0  0  0  0  0  0  0  0  0  0  0  0
    4.0305   -3.4433   -0.1808 H   0  0  0  0  0  0  0  0  0  0  0  0
    5.2651   -2.5332    0.6969 H   0  0  0  0  0  0  0  0  0  0  0  0
    4.4521   -1.8381   -0.8025 H   0  0  0  0  0  0  0  0  0  0  0  0
    3.6516    0.1973    0.4045 H   0  0  0  0  0  0  0  0  0  0  0  0
    2.1594   -0.0235    1.3315 H   0  0  0  0  0  0  0  0  0  0  0  0
    1.1415    0.4095   -2.1936 H   0  0  0  0  0  0  0  0  0  0  0  0
    2.5247    1.1847   -1.4351 H   0  0  0  0  0  0  0  0  0  0  0  0
    1.2662    1.6465    0.6378 H   0  0  0  0  0  0  0  0  0  0  0  0
   -1.2178    0.8913   -1.0054 H   0  0  0  0  0  0  0  0  0  0  0  0
   -1.1816    1.7423    0.5694 H   0  0  0  0  0  0  0  0  0  0  0  0
   -0.9205   -2.4494    0.4264 H   0  0  0  0  0  0  0  0  0  0  0  0
   -0.1417   -1.6786   -0.9361 H   0  0  0  0  0  0  0  0  0  0  0  0
   -1.5776   -0.7002   -2.7377 H   0  0  0  0  0  0  0  0  0  0  0  0
   -3.6431   -0.7914   -3.9457 H   0  0  0  0  0  0  0  0  0  0  0  0
   -5.6407   -1.8139   -2.8653 H   0  0  0  0  0  0  0  0  0  0  0  0
   -5.4342   -2.7009   -0.5809 H   0  0  0  0  0  0  0  0  0  0  0  0
   -3.3629   -2.6058    0.6372 H   0  0  0  0  0  0  0  0  0  0  0  0
   -0.5869    1.6671    2.3747 H   0  0  0  0  0  0  0  0  0  0  0  0
   -0.8438    1.6288    4.7574 H   0  0  0  0  0  0  0  0  0  0  0  0
   -1.4202   -0.4112    5.9120 H   0  0  0  0  0  0  0  0  0  0  0  0
   -1.7656   -2.5022    4.5900 H   0  0  0  0  0  0  0  0  0  0  0  0
   -1.5348   -2.4989    2.1735 H   0  0  0  0  0  0  0  0  0  0  0  0
   -1.2456    3.0734   -2.0656 H   0  0  0  0  0  0  0  0  0  0  0  0
   -0.3475    1.6799   -2.6517 H   0  0  0  0  0  0  0  0  0  0  0  0
   -0.1747    4.1861   -3.7099 H   0  0  0  0  0  0  0  0  0  0  0  0
    1.2866    3.0912   -3.6253 H   0  0  0  0  0  0  0  0  0  0  0  0
    0.4005    5.2500   -1.6891 H   0  0  0  0  0  0  0  0  0  0  0  0
    2.0829    5.0416   -2.4113 H   0  0  0  0  0  0  0  0  0  0  0  0
    1.3779    4.2268    0.0586 H   0  0  0  0  0  0  0  0  0  0  0  0
    2.4979    3.1643   -0.9481 H   0  0  0  0  0  0  0  0  0  0  0  0
  1  2  1  0
  2  3  1  0
  2  4  1  0
  4  5  1  0
  5  6  1  0
  6  7  1  0
  7  8  1  0
  8  9  1  0
  9 10  1  0
 10 11  1  0
 11 12  2  0
 12 13  1  0
 13 14  2  0
 14 15  1  0
 15 16  2  0
  9 17  1  0
 17 18  2  0
 18 19  1  0
 19 20  2  0
 20 21  1  0
 21 22  2  0
  7 23  1  0
 23 24  1  0
 24 25  1  0
 25 26  1  0
 26 27  1  0
 16 11  1  0
 22 17  1  0
 27 23  1  0
  1 28  1  0
  1 29  1  0
  1 30  1  0
  2 31  1  0
  3 32  1  0
  3 33  1  0
  3 34  1  0
  4 35  1  0
  4 36  1  0
  6 37  1  0
  6 38  1  0
  7 39  1  0
  8 40  1  0
  8 41  1  0
 10 42  1  0
 10 43  1  0
 12 44  1  0
 13 45  1  0
 14 46  1  0
 15 47  1  0
 16 48  1  0
 18 49  1  0
 19 50  1  0
 20 51  1  0
 21 52  1  0
 22 53  1  0
 24 54  1  0
 24 55  1  0
 25 56  1  0
 25 57  1  0
 26 58  1  0
 26 59  1  0
 27 60  1  0
 27 61  1  0
M  END
$$$$
