
     RDKit          3D

 48 50  0  0  0  0  0  0  0  0999 V2000
   -3.1966    2.1744   -2.7292 C   0  0  0  0  0  0  0  0  0  0  0  0
   -1.8720    2.4512   -2.3517 O   0  0  0  0  0  0  0  0  0  0  0  0
   -1.5717    1.6527   -1.2595 N   0  0  0  0  0  0  0  0  0  0  0  0
   -1.8458    2.2724   -0.0020 C   0  0  0  0  0  0  0  0  0  0  0  0
   -1.0314    0.3980   -1.5262 C   0  0  0  0  0  0  0  0  0  0  0  0
   -0.8477    0.1530   -2.7924 O   0  0  0  0  0  0  0  0  0  0  0  0
   -0.6332   -0.6864   -0.6400 C   0  0  0  0  0  0  0  0  0  0  0  0
    0.1773   -0.3270    0.5588 C   0  0  0  0  0  0  0  0  0  0  0  0
    1.5546   -0.2235    0.1953 O   0  0  0  0  0  0  0  0  0  0  0  0
    2.2318    0.9664    0.3286 C   0  0  0  0  0  0  0  0  0  0  0  0
    1.6130    1.9584    0.7777 O   0  0  0  0  0  0  0  0  0  0  0  0
    3.6532    1.0608   -0.0515 C   0  0  0  0  0  0  0  0  0  0  0  0
    4.3460    2.2458    0.0761 C   0  0  0  0  0  0  0  0  0  0  0  0
    5.6792    2.3284   -0.2820 C   0  0  0  0  0  0  0  0  0  0  0  0
    6.3646    1.2388   -0.7771 C   0  0  0  0  0  0  0  0  0  0  0  0
    5.6708    0.0533   -0.9045 C   0  0  0  0  0  0  0  0  0  0  0  0
    4.3367   -0.0282   -0.5458 C   0  0  0  0  0  0  0  0  0  0  0  0
    0.0396   -1.2480    1.7305 C   0  0  0  0  0  0  0  0  0  0  0  0
   -1.2492   -1.9948    1.7405 C   0  0  0  0  0  0  0  0  0  0  0  0
   -2.4850   -1.1407    1.7694 C   0  0  0  0  0  0  0  0  0  0  0  0
   -2.9473   -1.1094    0.3266 C   0  0  0  0  0  0  0  0  0  0  0  0
   -1.7537   -1.6322   -0.4014 C   0  0  0  0  0  0  0  0  0  0  0  0
   -1.3489   -2.7344    0.4743 N   0  0  0  0  0  0  0  0  0  0  0  0
   -2.4562   -3.6724    0.4899 C   0  0  0  0  0  0  0  0  0  0  0  0
   -3.4801    1.1266   -2.4376 H   0  0  0  0  0  0  0  0  0  0  0  0
   -3.3488    2.2557   -3.8161 H   0  0  0  0  0  0  0  0  0  0  0  0
   -3.8673    2.8416   -2.1388 H   0  0  0  0  0  0  0  0  0  0  0  0
   -2.2247    1.6584    0.8012 H   0  0  0  0  0  0  0  0  0  0  0  0
   -2.6558    3.0624   -0.1499 H   0  0  0  0  0  0  0  0  0  0  0  0
   -0.9193    2.8438    0.2795 H   0  0  0  0  0  0  0  0  0  0  0  0
    0.1072   -1.3645   -1.2804 H   0  0  0  0  0  0  0  0  0  0  0  0
   -0.1186    0.6788    0.9044 H   0  0  0  0  0  0  0  0  0  0  0  0
    3.8490    3.1254    0.4596 H   0  0  0  0  0  0  0  0  0  0  0  0
    6.1980    3.2526   -0.1764 H   0  0  0  0  0  0  0  0  0  0  0  0
    7.4128    1.2910   -1.0621 H   0  0  0  0  0  0  0  0  0  0  0  0
    6.2235   -0.7981   -1.2962 H   0  0  0  0  0  0  0  0  0  0  0  0
    3.8170   -0.9667   -0.6552 H   0  0  0  0  0  0  0  0  0  0  0  0
    0.1788   -0.6498    2.6702 H   0  0  0  0  0  0  0  0  0  0  0  0
    0.8563   -2.0059    1.7773 H   0  0  0  0  0  0  0  0  0  0  0  0
   -1.3310   -2.6992    2.6016 H   0  0  0  0  0  0  0  0  0  0  0  0
   -2.3616   -0.1740    2.2408 H   0  0  0  0  0  0  0  0  0  0  0  0
   -3.3069   -1.6632    2.3486 H   0  0  0  0  0  0  0  0  0  0  0  0
   -3.3619   -0.1702   -0.0152 H   0  0  0  0  0  0  0  0  0  0  0  0
   -3.7619   -1.8782    0.1694 H   0  0  0  0  0  0  0  0  0  0  0  0
   -2.0849   -2.0845   -1.3628 H   0  0  0  0  0  0  0  0  0  0  0  0
   -2.0454   -4.7038    0.5968 H   0  0  0  0  0  0  0  0  0  0  0  0
   -3.1809   -3.4643    1.3087 H   0  0  0  0  0  0  0  0  0  0  0  0
   -3.0218   -3.6704   -0.4566 H   0  0  0  0  0  0  0  0  0  0  0  0
  1  2  1  0
  2  3  1  0
  3  4  1  0
  3  5  1  0
  5  6  2  0
  5  7  1  0
  7  8  1  0
  8  9  1  0
  9 10  1  0
 10 11  2  0
 10 12  1  0
 12 13  2  0
 13 14  1  0
 14 15  2  0
 15 16  1  0
 16 17  2  0
  8 18  1  0
 18 19  1  0
 19 20  1  0
 20 21  1  0
 21 22  1  0
 22 23  1  0
 23 24  1  0
 22  7  1  0
 17 12  1  0
 23 19  1  0
  1 25  1  0
  1 26  1  0
  1 27  1  0
  4 28  1  0
  4 29  1  0
  4 30  1  0
  7 31  1  0
  8 32  1  0
 13 33  1  0
 14 34  1  0
 15 35  1  0
 16 36  1  0
 17 37  1  0
 18 38  1  0
 18 39  1  0
 19 40  1  0
 20 41  1  0
 20 42  1  0
 21 43  1  0
 21 44  1  0
 22 45  1  0
 24 46  1  0
 24 47  1  0
 24 48  1  0
M  END
$$$$
