
     RDKit          3D

 47 48  0  0  0  0  0  0  0  0999 V2000
   -1.5474    1.9470    1.4530 C   0  0  0  0  0  0  0  0  0  0  0  0
   -1.4761    1.6365    0.0588 N   0  0  0  0  0  0  0  0  0  0  0  0
   -0.3500    2.2715   -0.5999 C   0  0  0  0  0  0  0  0  0  0  0  0
    0.9425    1.7044   -0.1348 C   0  0  0  0  0  0  0  0  0  0  0  0
    1.7886    1.1206   -0.9576 C   0  0  0  0  0  0  0  0  0  0  0  0
    3.0529    0.5476   -0.5984 C   0  0  0  0  0  0  0  0  0  0  0  0
    4.1087    0.0829   -0.3170 C   0  0  0  0  0  0  0  0  0  0  0  0
    5.4043   -0.4731    0.0083 C   0  0  0  0  0  0  0  0  0  0  0  0
    5.6838   -1.7481   -0.7786 C   0  0  0  0  0  0  0  0  0  0  0  0
    5.5122   -0.7990    1.4643 C   0  0  0  0  0  0  0  0  0  0  0  0
    6.4708    0.5778   -0.2918 C   0  0  0  0  0  0  0  0  0  0  0  0
   -1.4502    0.2317   -0.2515 C   0  0  0  0  0  0  0  0  0  0  0  0
   -2.6283   -0.5088    0.2292 C   0  0  0  0  0  0  0  0  0  0  0  0
   -2.5290   -1.3213    1.3649 C   0  0  0  0  0  0  0  0  0  0  0  0
   -3.5629   -2.0580    1.9026 C   0  0  0  0  0  0  0  0  0  0  0  0
   -4.7966   -1.9997    1.2849 C   0  0  0  0  0  0  0  0  0  0  0  0
   -4.9577   -1.2037    0.1448 C   0  0  0  0  0  0  0  0  0  0  0  0
   -6.1927   -1.1372   -0.4860 C   0  0  0  0  0  0  0  0  0  0  0  0
   -6.3339   -0.3471   -1.6108 C   0  0  0  0  0  0  0  0  0  0  0  0
   -5.2724    0.3792   -2.1227 C   0  0  0  0  0  0  0  0  0  0  0  0
   -4.0307    0.3174   -1.4957 C   0  0  0  0  0  0  0  0  0  0  0  0
   -3.8811   -0.4809   -0.3560 C   0  0  0  0  0  0  0  0  0  0  0  0
   -2.3613    2.7222    1.5647 H   0  0  0  0  0  0  0  0  0  0  0  0
   -1.8351    1.1062    2.0931 H   0  0  0  0  0  0  0  0  0  0  0  0
   -0.6391    2.4734    1.8414 H   0  0  0  0  0  0  0  0  0  0  0  0
   -0.4445    2.0345   -1.6778 H   0  0  0  0  0  0  0  0  0  0  0  0
   -0.3577    3.3718   -0.4729 H   0  0  0  0  0  0  0  0  0  0  0  0
    1.2512    1.7447    0.9036 H   0  0  0  0  0  0  0  0  0  0  0  0
    1.4909    1.0743   -2.0020 H   0  0  0  0  0  0  0  0  0  0  0  0
    6.7350   -1.7626   -1.1180 H   0  0  0  0  0  0  0  0  0  0  0  0
    4.9495   -1.8548   -1.5972 H   0  0  0  0  0  0  0  0  0  0  0  0
    5.5602   -2.6496   -0.1206 H   0  0  0  0  0  0  0  0  0  0  0  0
    6.4675   -1.3837    1.5796 H   0  0  0  0  0  0  0  0  0  0  0  0
    4.6973   -1.4179    1.8713 H   0  0  0  0  0  0  0  0  0  0  0  0
    5.6953    0.1134    2.0970 H   0  0  0  0  0  0  0  0  0  0  0  0
    7.4898    0.1537   -0.1685 H   0  0  0  0  0  0  0  0  0  0  0  0
    6.3659    1.3621    0.4837 H   0  0  0  0  0  0  0  0  0  0  0  0
    6.2802    0.9589   -1.3034 H   0  0  0  0  0  0  0  0  0  0  0  0
   -0.5476   -0.2099    0.2168 H   0  0  0  0  0  0  0  0  0  0  0  0
   -1.3137    0.1310   -1.3477 H   0  0  0  0  0  0  0  0  0  0  0  0
   -1.5560   -1.3624    1.8459 H   0  0  0  0  0  0  0  0  0  0  0  0
   -3.3682   -2.6526    2.7861 H   0  0  0  0  0  0  0  0  0  0  0  0
   -5.6251   -2.5666    1.6841 H   0  0  0  0  0  0  0  0  0  0  0  0
   -7.0375   -1.7133   -0.0797 H   0  0  0  0  0  0  0  0  0  0  0  0
   -7.3027   -0.2847   -2.1204 H   0  0  0  0  0  0  0  0  0  0  0  0
   -5.3882    0.9988   -3.0064 H   0  0  0  0  0  0  0  0  0  0  0  0
   -3.1608    0.8734   -1.8628 H   0  0  0  0  0  0  0  0  0  0  0  0
  1  2  1  0
  2  3  1  0
  3  4  1  0
  4  5  2  0
  5  6  1  0
  6  7  3  0
  7  8  1  0
  8  9  1  0
  8 10  1  0
  8 11  1  0
  2 12  1  0
 12 13  1  0
 13 14  2  0
 14 15  1  0
 15 16  2  0
 16 17  1  0
 17 18  2  0
 18 19  1  0
 19 20  2  0
 20 21  1  0
 21 22  2  0
 22 13  1  0
 22 17  1  0
  1 23  1  0
  1 24  1  0
  1 25  1  0
  3 26  1  0
  3 27  1  0
  4 28  1  0
  5 29  1  0
  9 30  1  0
  9 31  1  0
  9 32  1  0
 10 33  1  0
 10 34  1  0
 10 35  1  0
 11 36  1  0
 11 37  1  0
 11 38  1  0
 12 39  1  0
 12 40  1  0
 14 41  1  0
 15 42  1  0
 16 43  1  0
 18 44  1  0
 19 45  1  0
 20 46  1  0
 21 47  1  0
M  END
$$$$
