
     RDKit          3D

 18 17  0  0  0  0  0  0  0  0999 V2000
   -0.3072    0.5626   -0.0745 C   0  0  0  0  0  0  0  0  0  0  0  0
    0.3286   -0.5715    0.1121 C   0  0  0  0  0  0  0  0  0  0  0  0
    1.7612   -0.6153    0.0463 C   0  0  0  0  0  0  0  0  0  0  0  0
    2.4786   -1.6351    0.2065 O   0  0  0  0  0  0  0  0  0  0  0  0
    2.5920    0.4411   -0.2014 O   0  0  0  0  0  0  0  0  0  0  0  0
    3.9965    0.2599   -0.2392 C   0  0  0  0  0  0  0  0  0  0  0  0
   -1.7609    0.6606   -0.0181 C   0  0  0  0  0  0  0  0  0  0  0  0
   -2.3821    1.7504   -0.1969 O   0  0  0  0  0  0  0  0  0  0  0  0
   -2.6102   -0.3891    0.2293 O   0  0  0  0  0  0  0  0  0  0  0  0
   -4.0202   -0.2752    0.2804 C   0  0  0  0  0  0  0  0  0  0  0  0
    0.2343    1.4754   -0.2794 H   0  0  0  0  0  0  0  0  0  0  0  0
   -0.2052   -1.4876    0.3172 H   0  0  0  0  0  0  0  0  0  0  0  0
    4.3362   -0.4075    0.5838 H   0  0  0  0  0  0  0  0  0  0  0  0
    4.2447   -0.1732   -1.2283 H   0  0  0  0  0  0  0  0  0  0  0  0
    4.4612    1.2376   -0.0885 H   0  0  0  0  0  0  0  0  0  0  0  0
   -4.4390   -0.5663   -0.7030 H   0  0  0  0  0  0  0  0  0  0  0  0
   -4.3115    0.7427    0.5912 H   0  0  0  0  0  0  0  0  0  0  0  0
   -4.3970   -1.0095    1.0224 H   0  0  0  0  0  0  0  0  0  0  0  0
  1  2  2  0
  2  3  1  0
  3  4  2  0
  3  5  1  0
  5  6  1  0
  1  7  1  0
  7  8  2  0
  7  9  1  0
  9 10  1  0
  1 11  1  0
  2 12  1  0
  6 13  1  0
  6 14  1  0
  6 15  1  0
 10 16  1  0
 10 17  1  0
 10 18  1  0
M  END
$$$$
