
     RDKit          3D

 50 54  0  0  0  0  0  0  0  0999 V2000
   -1.2967   -2.0950    2.6032 C   0  0  0  0  0  0  0  0  0  0  0  0
   -0.2499   -2.3185    1.5443 C   0  0  0  0  0  0  0  0  0  0  0  0
   -0.2749   -1.7132    0.4012 C   0  0  0  0  0  0  0  0  0  0  0  0
   -1.2682   -0.7568   -0.0544 C   0  0  0  0  0  0  0  0  0  0  0  0
   -0.9944   -0.3295   -1.2573 O   0  0  0  0  0  0  0  0  0  0  0  0
   -2.4089   -0.2099    0.4804 N   0  0  0  0  0  0  0  0  0  0  0  0
   -3.3124    0.7352   -0.0709 C   0  0  0  0  0  0  0  0  0  0  0  0
   -4.4096    1.1196    0.7128 C   0  0  0  0  0  0  0  0  0  0  0  0
   -5.3476    2.0356    0.2648 C   0  0  0  0  0  0  0  0  0  0  0  0
   -5.2169    2.5927   -0.9763 C   0  0  0  0  0  0  0  0  0  0  0  0
   -5.9206    3.4757   -1.6852 N   0  0  0  0  0  0  0  0  0  0  0  0
   -5.3396    3.6734   -2.8640 N   0  0  0  0  0  0  0  0  0  0  0  0
   -4.2153    2.9118   -2.9673 C   0  0  0  0  0  0  0  0  0  0  0  0
   -4.1503    2.2288   -1.7569 C   0  0  0  0  0  0  0  0  0  0  0  0
   -3.2083    1.3007   -1.2914 C   0  0  0  0  0  0  0  0  0  0  0  0
    0.8379   -1.9831   -0.5838 C   0  0  0  0  0  0  0  0  0  0  0  0
    1.8873   -0.9667   -0.5760 C   0  0  0  0  0  0  0  0  0  0  0  0
    2.0515   -0.1848   -1.6966 C   0  0  0  0  0  0  0  0  0  0  0  0
    3.0024    0.8035   -1.8115 C   0  0  0  0  0  0  0  0  0  0  0  0
    3.8287    1.0000   -0.7186 C   0  0  0  0  0  0  0  0  0  0  0  0
    4.7935    1.9800   -0.7942 C   0  0  0  0  0  0  0  0  0  0  0  0
    5.6127    2.1735    0.2921 C   0  0  0  0  0  0  0  0  0  0  0  0
    5.4771    1.4142    1.4222 C   0  0  0  0  0  0  0  0  0  0  0  0
    4.5131    0.4283    1.5098 C   0  0  0  0  0  0  0  0  0  0  0  0
    3.6875    0.2315    0.4185 C   0  0  0  0  0  0  0  0  0  0  0  0
    2.7188   -0.7571    0.5028 C   0  0  0  0  0  0  0  0  0  0  0  0
    1.4351   -3.3333   -0.4250 C   0  0  0  0  0  0  0  0  0  0  0  0
    1.7597   -3.6020    0.9948 C   0  0  0  0  0  0  0  0  0  0  0  0
    2.8489   -4.0769    1.3218 O   0  0  0  0  0  0  0  0  0  0  0  0
    0.7354   -3.2736    1.9142 N   0  0  0  0  0  0  0  0  0  0  0  0
   -1.0118   -2.7350    3.5031 H   0  0  0  0  0  0  0  0  0  0  0  0
   -2.2872   -2.4257    2.3321 H   0  0  0  0  0  0  0  0  0  0  0  0
   -1.2719   -1.0524    2.9562 H   0  0  0  0  0  0  0  0  0  0  0  0
   -2.6584   -0.5478    1.4494 H   0  0  0  0  0  0  0  0  0  0  0  0
   -4.5641    0.7156    1.6954 H   0  0  0  0  0  0  0  0  0  0  0  0
   -6.1942    2.3337    0.8668 H   0  0  0  0  0  0  0  0  0  0  0  0
   -6.7962    3.9266   -1.3341 H   0  0  0  0  0  0  0  0  0  0  0  0
   -3.5386    2.8621   -3.8076 H   0  0  0  0  0  0  0  0  0  0  0  0
   -2.4037    1.0628   -1.9497 H   0  0  0  0  0  0  0  0  0  0  0  0
    0.3216   -1.9403   -1.5976 H   0  0  0  0  0  0  0  0  0  0  0  0
    1.4133   -0.3107   -2.5875 H   0  0  0  0  0  0  0  0  0  0  0  0
    3.0976    1.3949   -2.7103 H   0  0  0  0  0  0  0  0  0  0  0  0
    4.9415    2.6093   -1.6686 H   0  0  0  0  0  0  0  0  0  0  0  0
    6.3845    2.9351    0.2717 H   0  0  0  0  0  0  0  0  0  0  0  0
    6.1290    1.5635    2.2949 H   0  0  0  0  0  0  0  0  0  0  0  0
    4.4013   -0.1817    2.4127 H   0  0  0  0  0  0  0  0  0  0  0  0
    2.6456   -1.3369    1.4182 H   0  0  0  0  0  0  0  0  0  0  0  0
    0.7355   -4.1474   -0.7595 H   0  0  0  0  0  0  0  0  0  0  0  0
    2.3529   -3.4750   -1.0176 H   0  0  0  0  0  0  0  0  0  0  0  0
    0.7270   -3.7546    2.8728 H   0  0  0  0  0  0  0  0  0  0  0  0
  1  2  1  0
  2  3  2  0
  3  4  1  0
  4  5  2  0
  4  6  1  0
  6  7  1  0
  7  8  2  0
  8  9  1  0
  9 10  2  0
 10 11  1  0
 11 12  1  0
 12 13  2  0
 13 14  1  0
 14 15  2  0
  3 16  1  0
 16 17  1  0
 17 18  2  0
 18 19  1  0
 19 20  2  0
 20 21  1  0
 21 22  2  0
 22 23  1  0
 23 24  2  0
 24 25  1  0
 25 26  2  0
 16 27  1  0
 27 28  1  0
 28 29  2  0
 28 30  1  0
 30  2  1  0
 15  7  1  0
 26 17  1  0
 14 10  1  0
 25 20  1  0
  1 31  1  0
  1 32  1  0
  1 33  1  0
  6 34  1  0
  8 35  1  0
  9 36  1  0
 11 37  1  0
 13 38  1  0
 15 39  1  0
 16 40  1  0
 18 41  1  0
 19 42  1  0
 21 43  1  0
 22 44  1  0
 23 45  1  0
 24 46  1  0
 26 47  1  0
 27 48  1  0
 27 49  1  0
 30 50  1  0
M  END
$$$$
