
     RDKit          3D

 62 65  0  0  0  0  0  0  0  0999 V2000
   -0.1327    0.6982    0.6751 C   0  0  2  0  0  0  0  0  0  0  0  0
   -1.0013    1.0081    1.8207 C   0  0  0  0  0  0  0  0  0  0  0  0
   -2.3352    1.2327    1.1340 C   0  0  0  0  0  0  0  0  0  0  0  0
   -2.2685    0.5191   -0.1984 C   0  0  2  0  0  0  0  0  0  0  0  0
   -2.2055    1.4100   -1.2934 O   0  0  0  0  0  0  0  0  0  0  0  0
   -3.1793    2.3410   -1.5758 C   0  0  0  0  0  0  0  0  0  0  0  0
   -4.1966    2.4325   -0.8396 O   0  0  0  0  0  0  0  0  0  0  0  0
   -2.8676    3.1542   -2.7860 C   0  0  0  0  0  0  0  0  0  0  0  0
   -4.1592    4.3426   -3.1058 Cl  0  0  0  0  0  0  0  0  0  0  0  0
   -2.9204    2.0005   -4.1641 Cl  0  0  0  0  0  0  0  0  0  0  0  0
   -3.4365   -0.3821   -0.2889 C   0  0  0  0  0  0  0  0  0  0  0  0
   -4.3832   -0.5380   -1.1251 O   0  0  0  0  0  0  0  0  0  0  0  0
   -3.9082   -1.3867    0.5259 O   0  0  0  0  0  0  0  0  0  0  0  0
   -5.0639   -2.1397    0.2527 C   0  0  0  0  0  0  0  0  0  0  0  0
   -5.2016   -3.1269    1.4126 C   0  0  0  0  0  0  0  0  0  0  0  0
   -0.9469   -0.2619   -0.1524 C   0  0  2  0  0  0  0  0  0  0  0  0
   -1.2209   -1.5597    0.5081 C   0  0  0  0  0  0  0  0  0  0  0  0
   -0.3103   -0.3700   -1.4917 C   0  0  0  0  0  0  0  0  0  0  0  0
    1.1275   -0.7496   -1.3504 C   0  0  2  0  0  0  0  0  0  0  0  0
    1.2409   -2.0869   -0.9846 O   0  0  0  0  0  0  0  0  0  0  0  0
    1.8846    0.1720   -0.4364 C   0  0  1  0  0  0  0  0  0  0  0  0
    1.2189    0.1788    0.9507 C   0  0  1  0  0  0  0  0  0  0  0  0
    2.0080    1.0269    1.8894 C   0  0  0  0  0  0  0  0  0  0  0  0
    3.4269    0.4443    1.9473 C   0  0  0  0  0  0  0  0  0  0  0  0
    4.0623    0.6546    0.6459 C   0  0  0  0  0  0  0  0  0  0  0  0
    5.1077    1.4603    0.5468 C   0  0  0  0  0  0  0  0  0  0  0  0
    5.6267    1.5669   -0.8114 C   0  0  0  0  0  0  0  0  0  0  0  0
    6.6203    2.3108   -1.0021 O   0  0  0  0  0  0  0  0  0  0  0  0
    4.9965    0.8199   -1.9171 C   0  0  0  0  0  0  0  0  0  0  0  0
    3.9599    0.0531   -1.6735 C   0  0  0  0  0  0  0  0  0  0  0  0
    3.3402   -0.1403   -0.3426 C   0  0  2  0  0  0  0  0  0  0  0  0
    3.5801   -1.6099    0.0113 C   0  0  0  0  0  0  0  0  0  0  0  0
   -0.0210    1.6150    0.0375 H   0  0  0  0  0  0  0  0  0  0  0  0
   -0.6839    1.9088    2.3897 H   0  0  0  0  0  0  0  0  0  0  0  0
   -1.0680    0.1128    2.4921 H   0  0  0  0  0  0  0  0  0  0  0  0
   -3.1942    0.9099    1.7525 H   0  0  0  0  0  0  0  0  0  0  0  0
   -2.3947    2.3488    0.9865 H   0  0  0  0  0  0  0  0  0  0  0  0
   -1.8818    3.6158   -2.7606 H   0  0  0  0  0  0  0  0  0  0  0  0
   -5.9851   -1.5333    0.1399 H   0  0  0  0  0  0  0  0  0  0  0  0
   -4.9538   -2.7772   -0.6653 H   0  0  0  0  0  0  0  0  0  0  0  0
   -4.7205   -2.7168    2.3402 H   0  0  0  0  0  0  0  0  0  0  0  0
   -4.6475   -4.0619    1.1831 H   0  0  0  0  0  0  0  0  0  0  0  0
   -6.2502   -3.3447    1.6627 H   0  0  0  0  0  0  0  0  0  0  0  0
   -0.3232   -2.1650    0.7331 H   0  0  0  0  0  0  0  0  0  0  0  0
   -1.7827   -1.4706    1.4470 H   0  0  0  0  0  0  0  0  0  0  0  0
   -1.8284   -2.1720   -0.1900 H   0  0  0  0  0  0  0  0  0  0  0  0
   -0.4526    0.5733   -2.0547 H   0  0  0  0  0  0  0  0  0  0  0  0
   -0.8246   -1.1645   -2.0696 H   0  0  0  0  0  0  0  0  0  0  0  0
    1.6308   -0.6823   -2.3513 H   0  0  0  0  0  0  0  0  0  0  0  0
    1.3196   -2.6896   -1.7634 H   0  0  0  0  0  0  0  0  0  0  0  0
    1.7616    1.2029   -0.8240 H   0  0  0  0  0  0  0  0  0  0  0  0
    1.2594   -0.8530    1.3468 H   0  0  0  0  0  0  0  0  0  0  0  0
    1.5982    0.8309    2.9214 H   0  0  0  0  0  0  0  0  0  0  0  0
    2.0300    2.1035    1.6569 H   0  0  0  0  0  0  0  0  0  0  0  0
    3.3319   -0.6261    2.2118 H   0  0  0  0  0  0  0  0  0  0  0  0
    3.9746    0.9165    2.7868 H   0  0  0  0  0  0  0  0  0  0  0  0
    5.4949    1.9629    1.4201 H   0  0  0  0  0  0  0  0  0  0  0  0
    5.4723    0.9826   -2.8740 H   0  0  0  0  0  0  0  0  0  0  0  0
    3.6256   -0.4196   -2.5957 H   0  0  0  0  0  0  0  0  0  0  0  0
    3.5840   -2.2211   -0.9278 H   0  0  0  0  0  0  0  0  0  0  0  0
    4.6106   -1.6779    0.4097 H   0  0  0  0  0  0  0  0  0  0  0  0
    2.8558   -1.9829    0.7495 H   0  0  0  0  0  0  0  0  0  0  0  0
  1  2  1  0
  2  3  1  0
  3  4  1  0
  4  5  1  6
  5  6  1  0
  6  7  2  0
  6  8  1  0
  8  9  1  0
  8 10  1  0
  4 11  1  0
 11 12  2  0
 11 13  1  0
 13 14  1  0
 14 15  1  0
  4 16  1  0
 16 17  1  1
 16 18  1  0
 18 19  1  0
 19 20  1  0
 19 21  1  0
 21 22  1  0
 22 23  1  0
 23 24  1  0
 24 25  1  0
 25 26  2  0
 26 27  1  0
 27 28  2  0
 27 29  1  0
 29 30  2  0
 30 31  1  0
 31 32  1  1
 16  1  1  0
 31 21  1  0
 22  1  1  0
 31 25  1  0
  1 33  1  6
  2 34  1  0
  2 35  1  0
  3 36  1  0
  3 37  1  0
  8 38  1  0
 14 39  1  0
 14 40  1  0
 15 41  1  0
 15 42  1  0
 15 43  1  0
 17 44  1  0
 17 45  1  0
 17 46  1  0
 18 47  1  0
 18 48  1  0
 19 49  1  6
 20 50  1  0
 21 51  1  6
 22 52  1  1
 23 53  1  0
 23 54  1  0
 24 55  1  0
 24 56  1  0
 26 57  1  0
 29 58  1  0
 30 59  1  0
 32 60  1  0
 32 61  1  0
 32 62  1  0
M  END
$$$$
