
     RDKit          3D

 71 72  0  0  0  0  0  0  0  0999 V2000
   -9.2740   -1.6883   -0.3595 C   0  0  0  0  0  0  0  0  0  0  0  0
   -8.7624   -0.6511    0.4450 O   0  0  0  0  0  0  0  0  0  0  0  0
   -7.4686   -0.7039    0.9064 C   0  0  0  0  0  0  0  0  0  0  0  0
   -6.6703   -1.7676    0.5946 C   0  0  0  0  0  0  0  0  0  0  0  0
   -5.3615   -1.8086    1.0741 C   0  0  0  0  0  0  0  0  0  0  0  0
   -4.8507   -0.8064    1.8529 C   0  0  0  0  0  0  0  0  0  0  0  0
   -3.4889   -0.8524    2.3919 C   0  0  0  0  0  0  0  0  0  0  0  0
   -2.5388   -0.2598    1.3708 C   0  0  0  0  0  0  0  0  0  0  0  0
   -1.1687   -0.2842    1.8742 N   0  0  0  0  0  0  0  0  0  0  0  0
   -0.9721    0.6053    2.9557 C   0  0  0  0  0  0  0  0  0  0  0  0
   -0.1950   -0.3479    0.8360 C   0  0  0  0  0  0  0  0  0  0  0  0
    1.2004   -0.5022    1.2931 C   0  0  0  0  0  0  0  0  0  0  0  0
    2.2698   -0.6578    0.3029 C   0  0  0  0  0  0  0  0  0  0  0  0
    2.5660    0.4105   -0.6804 C   0  0  0  0  0  0  0  0  0  0  0  0
    1.4645    0.7069   -1.5397 C   0  0  0  0  0  0  0  0  0  0  0  0
    0.5089    0.9630   -2.2583 N   0  0  0  0  0  0  0  0  0  0  0  0
    3.7122   -0.0464   -1.5309 C   0  0  0  0  0  0  0  0  0  0  0  0
    3.6017   -1.2395   -2.2004 C   0  0  0  0  0  0  0  0  0  0  0  0
    4.5964   -1.7642   -2.9878 C   0  0  0  0  0  0  0  0  0  0  0  0
    5.8162   -1.0539   -3.1368 C   0  0  0  0  0  0  0  0  0  0  0  0
    6.7894   -1.5787   -3.9091 O   0  0  0  0  0  0  0  0  0  0  0  0
    7.2663   -2.4842   -4.6741 C   0  0  0  0  0  0  0  0  0  0  0  0
    5.9203    0.1334   -2.4731 C   0  0  0  0  0  0  0  0  0  0  0  0
    7.0996    0.8985   -2.5775 O   0  0  0  0  0  0  0  0  0  0  0  0
    7.1693    2.1140   -1.8858 C   0  0  0  0  0  0  0  0  0  0  0  0
    4.8836    0.6451   -1.6730 C   0  0  0  0  0  0  0  0  0  0  0  0
    2.8784    1.7207    0.0417 C   0  0  0  0  0  0  0  0  0  0  0  0
    4.0209    1.7012    0.9589 C   0  0  0  0  0  0  0  0  0  0  0  0
    2.9596    2.8234   -0.9645 C   0  0  0  0  0  0  0  0  0  0  0  0
   -5.6710    0.2608    2.1568 C   0  0  0  0  0  0  0  0  0  0  0  0
   -6.9734    0.3413    1.7028 C   0  0  0  0  0  0  0  0  0  0  0  0
   -7.8488    1.3693    1.9580 O   0  0  0  0  0  0  0  0  0  0  0  0
   -7.5364    2.4970    2.7157 C   0  0  0  0  0  0  0  0  0  0  0  0
  -10.3845   -1.5073   -0.4382 H   0  0  0  0  0  0  0  0  0  0  0  0
   -8.7574   -1.7187   -1.3205 H   0  0  0  0  0  0  0  0  0  0  0  0
   -9.1115   -2.6898    0.1345 H   0  0  0  0  0  0  0  0  0  0  0  0
   -7.0717   -2.5582   -0.0183 H   0  0  0  0  0  0  0  0  0  0  0  0
   -4.7827   -2.6552    0.8048 H   0  0  0  0  0  0  0  0  0  0  0  0
   -3.2020   -1.8618    2.7376 H   0  0  0  0  0  0  0  0  0  0  0  0
   -3.4242   -0.1599    3.2902 H   0  0  0  0  0  0  0  0  0  0  0  0
   -2.6293   -0.8548    0.4586 H   0  0  0  0  0  0  0  0  0  0  0  0
   -2.8187    0.7719    1.1804 H   0  0  0  0  0  0  0  0  0  0  0  0
    0.0119    1.0063    3.1366 H   0  0  0  0  0  0  0  0  0  0  0  0
   -1.3310    0.0739    3.8940 H   0  0  0  0  0  0  0  0  0  0  0  0
   -1.7458    1.4247    2.8470 H   0  0  0  0  0  0  0  0  0  0  0  0
   -0.4632   -1.2150    0.1919 H   0  0  0  0  0  0  0  0  0  0  0  0
   -0.3508    0.6143    0.2515 H   0  0  0  0  0  0  0  0  0  0  0  0
    1.2229   -1.4280    1.9455 H   0  0  0  0  0  0  0  0  0  0  0  0
    1.3986    0.3228    2.0257 H   0  0  0  0  0  0  0  0  0  0  0  0
    3.2272   -0.8654    0.8538 H   0  0  0  0  0  0  0  0  0  0  0  0
    2.0772   -1.6156   -0.2450 H   0  0  0  0  0  0  0  0  0  0  0  0
    2.6482   -1.8025   -2.1027 H   0  0  0  0  0  0  0  0  0  0  0  0
    4.5199   -2.6991   -3.5212 H   0  0  0  0  0  0  0  0  0  0  0  0
    6.8208   -2.5727   -5.7244 H   0  0  0  0  0  0  0  0  0  0  0  0
    8.3996   -2.4047   -4.8979 H   0  0  0  0  0  0  0  0  0  0  0  0
    7.2345   -3.5747   -4.2860 H   0  0  0  0  0  0  0  0  0  0  0  0
    8.1215    2.6614   -2.0951 H   0  0  0  0  0  0  0  0  0  0  0  0
    6.3087    2.7917   -2.1360 H   0  0  0  0  0  0  0  0  0  0  0  0
    7.1285    1.9199   -0.7903 H   0  0  0  0  0  0  0  0  0  0  0  0
    5.0195    1.5875   -1.1842 H   0  0  0  0  0  0  0  0  0  0  0  0
    1.9403    1.9447    0.6453 H   0  0  0  0  0  0  0  0  0  0  0  0
    3.6251    1.6723    2.0294 H   0  0  0  0  0  0  0  0  0  0  0  0
    4.6880    0.8134    0.9372 H   0  0  0  0  0  0  0  0  0  0  0  0
    4.6275    2.6321    0.9237 H   0  0  0  0  0  0  0  0  0  0  0  0
    3.7671    3.5561   -0.7396 H   0  0  0  0  0  0  0  0  0  0  0  0
    1.9900    3.4180   -0.9795 H   0  0  0  0  0  0  0  0  0  0  0  0
    3.0491    2.4534   -2.0143 H   0  0  0  0  0  0  0  0  0  0  0  0
   -5.3063    1.0738    2.7715 H   0  0  0  0  0  0  0  0  0  0  0  0
   -6.4497    2.6917    2.7513 H   0  0  0  0  0  0  0  0  0  0  0  0
   -7.8713    2.3583    3.7773 H   0  0  0  0  0  0  0  0  0  0  0  0
   -8.0688    3.4116    2.3245 H   0  0  0  0  0  0  0  0  0  0  0  0
  1  2  1  0
  2  3  1  0
  3  4  2  0
  4  5  1  0
  5  6  2  0
  6  7  1  0
  7  8  1  0
  8  9  1  0
  9 10  1  0
  9 11  1  0
 11 12  1  0
 12 13  1  0
 13 14  1  0
 14 15  1  0
 15 16  3  0
 14 17  1  0
 17 18  2  0
 18 19  1  0
 19 20  2  0
 20 21  1  0
 21 22  1  0
 20 23  1  0
 23 24  1  0
 24 25  1  0
 23 26  2  0
 14 27  1  0
 27 28  1  0
 27 29  1  0
  6 30  1  0
 30 31  2  0
 31 32  1  0
 32 33  1  0
 31  3  1  0
 26 17  1  0
  1 34  1  0
  1 35  1  0
  1 36  1  0
  4 37  1  0
  5 38  1  0
  7 39  1  0
  7 40  1  0
  8 41  1  0
  8 42  1  0
 10 43  1  0
 10 44  1  0
 10 45  1  0
 11 46  1  0
 11 47  1  0
 12 48  1  0
 12 49  1  0
 13 50  1  0
 13 51  1  0
 18 52  1  0
 19 53  1  0
 22 54  1  0
 22 55  1  0
 22 56  1  0
 25 57  1  0
 25 58  1  0
 25 59  1  0
 26 60  1  0
 27 61  1  0
 28 62  1  0
 28 63  1  0
 28 64  1  0
 29 65  1  0
 29 66  1  0
 29 67  1  0
 30 68  1  0
 33 69  1  0
 33 70  1  0
 33 71  1  0
M  END
$$$$
