
     RDKit          3D

 30 33  0  0  0  0  0  0  0  0999 V2000
   -4.1088   -3.8353    0.4864 Br  0  0  0  0  0  0  0  0  0  0  0  0
   -3.4641   -2.0454    0.3617 C   0  0  0  0  0  0  0  0  0  0  0  0
   -4.3135   -0.9629    0.3657 C   0  0  0  0  0  0  0  0  0  0  0  0
   -3.8264    0.3329    0.2741 C   0  0  0  0  0  0  0  0  0  0  0  0
   -2.4845    0.5716    0.1770 C   0  0  0  0  0  0  0  0  0  0  0  0
   -1.6167   -0.4909    0.1710 C   0  0  0  0  0  0  0  0  0  0  0  0
   -2.1109   -1.7835    0.2629 C   0  0  0  0  0  0  0  0  0  0  0  0
   -0.1580   -0.4272    0.0749 C   0  0  0  0  0  0  0  0  0  0  0  0
    0.5898   -1.5178   -0.0299 N   0  0  0  0  0  0  0  0  0  0  0  0
    1.8616   -1.1037   -0.0952 C   0  0  0  0  0  0  0  0  0  0  0  0
    3.0279   -1.8279   -0.2101 C   0  0  0  0  0  0  0  0  0  0  0  0
    4.2386   -1.1962   -0.2604 C   0  0  0  0  0  0  0  0  0  0  0  0
    5.8357   -2.2466   -0.4206 Br  0  0  0  0  0  0  0  0  0  0  0  0
    4.3005    0.1830   -0.1960 C   0  0  0  0  0  0  0  0  0  0  0  0
    3.1161    0.8859   -0.0810 C   0  0  0  0  0  0  0  0  0  0  0  0
    1.8792    0.2767   -0.0277 C   0  0  0  0  0  0  0  0  0  0  0  0
    0.6076    0.7039    0.0794 N   0  0  0  0  0  0  0  0  0  0  0  0
    0.2831    2.0925    0.1712 C   0  0  0  0  0  0  0  0  0  0  0  0
   -0.9999    2.4770   -0.5255 C   0  0  0  0  0  0  0  0  0  0  0  0
   -2.1488    1.9355    0.0919 O   0  0  0  0  0  0  0  0  0  0  0  0
   -5.3721   -1.1749    0.4433 H   0  0  0  0  0  0  0  0  0  0  0  0
   -4.5033    1.1731    0.2783 H   0  0  0  0  0  0  0  0  0  0  0  0
   -1.4191   -2.6260    0.2578 H   0  0  0  0  0  0  0  0  0  0  0  0
    2.9920   -2.9055   -0.2613 H   0  0  0  0  0  0  0  0  0  0  0  0
    5.2662    0.6327   -0.2389 H   0  0  0  0  0  0  0  0  0  0  0  0
    3.1947    1.9645   -0.0326 H   0  0  0  0  0  0  0  0  0  0  0  0
    1.0886    2.6731   -0.3236 H   0  0  0  0  0  0  0  0  0  0  0  0
    0.2520    2.4510    1.2326 H   0  0  0  0  0  0  0  0  0  0  0  0
   -1.0905    3.5824   -0.4332 H   0  0  0  0  0  0  0  0  0  0  0  0
   -0.9170    2.2084   -1.5921 H   0  0  0  0  0  0  0  0  0  0  0  0
  1  2  1  0
  2  3  2  0
  3  4  1  0
  4  5  2  0
  5  6  1  0
  6  7  2  0
  6  8  1  0
  8  9  2  0
  9 10  1  0
 10 11  2  0
 11 12  1  0
 12 13  1  0
 12 14  2  0
 14 15  1  0
 15 16  2  0
 16 17  1  0
 17 18  1  0
 18 19  1  0
 19 20  1  0
  7  2  1  0
 17  8  1  0
 20  5  1  0
 16 10  1  0
  3 21  1  0
  4 22  1  0
  7 23  1  0
 11 24  1  0
 14 25  1  0
 15 26  1  0
 18 27  1  0
 18 28  1  0
 19 29  1  0
 19 30  1  0
M  END
$$$$
