
     RDKit          3D

 48 51  0  0  0  0  0  0  0  0999 V2000
    8.5521   -1.5835    0.3221 C   0  0  0  0  0  0  0  0  0  0  0  0
    7.1304   -1.8234    0.4694 N   0  0  0  0  0  0  0  0  0  0  0  0
    6.2021   -0.8850    0.2123 C   0  0  0  0  0  0  0  0  0  0  0  0
    4.9529   -1.3988    0.4393 C   0  0  0  0  0  0  0  0  0  0  0  0
    3.6927   -0.6868    0.2709 C   0  0  0  0  0  0  0  0  0  0  0  0
    2.5835   -0.9516    1.0418 C   0  0  0  0  0  0  0  0  0  0  0  0
    1.4737   -0.2518    0.8166 N   0  0  0  0  0  0  0  0  0  0  0  0
    1.3851    0.7053   -0.1323 C   0  0  0  0  0  0  0  0  0  0  0  0
    0.2217    1.4197   -0.3493 C   0  0  0  0  0  0  0  0  0  0  0  0
   -0.9070    1.1449    0.4422 N   0  0  0  0  0  0  0  0  0  0  0  0
   -2.1749    1.7422    0.3808 C   0  0  0  0  0  0  0  0  0  0  0  0
   -2.4197    2.6370   -0.4506 O   0  0  0  0  0  0  0  0  0  0  0  0
   -3.2489    1.3719    1.2497 N   0  0  0  0  0  0  0  0  0  0  0  0
   -4.5626    1.9502    1.2227 C   0  0  0  0  0  0  0  0  0  0  0  0
   -5.2123    1.6925   -0.1117 C   0  0  0  0  0  0  0  0  0  0  0  0
   -5.3412    0.2364   -0.3182 C   0  0  0  0  0  0  0  0  0  0  0  0
   -4.3986   -0.4956   -0.9887 C   0  0  0  0  0  0  0  0  0  0  0  0
   -4.5436   -1.8838   -1.1580 C   0  0  0  0  0  0  0  0  0  0  0  0
   -5.6438   -2.5382   -0.6498 C   0  0  0  0  0  0  0  0  0  0  0  0
   -6.5834   -1.7894    0.0218 C   0  0  0  0  0  0  0  0  0  0  0  0
   -6.4516   -0.4296    0.1937 C   0  0  0  0  0  0  0  0  0  0  0  0
    0.2325    2.3646   -1.3308 C   0  0  0  0  0  0  0  0  0  0  0  0
    1.3704    2.6168   -2.1016 C   0  0  0  0  0  0  0  0  0  0  0  0
    2.4768    1.9165   -1.8736 N   0  0  0  0  0  0  0  0  0  0  0  0
    2.4746    0.9884   -0.9132 C   0  0  0  0  0  0  0  0  0  0  0  0
    3.6596    0.2927   -0.7260 C   0  0  0  0  0  0  0  0  0  0  0  0
    5.1513   -2.7066    0.8514 C   0  0  0  0  0  0  0  0  0  0  0  0
    6.4813   -2.9028    0.8494 N   0  0  0  0  0  0  0  0  0  0  0  0
    9.1145   -2.5122    0.1028 H   0  0  0  0  0  0  0  0  0  0  0  0
    8.7188   -0.8099   -0.4791 H   0  0  0  0  0  0  0  0  0  0  0  0
    8.9606   -1.1283    1.2468 H   0  0  0  0  0  0  0  0  0  0  0  0
    6.3876    0.1417   -0.1280 H   0  0  0  0  0  0  0  0  0  0  0  0
    2.6656   -1.7155    1.7940 H   0  0  0  0  0  0  0  0  0  0  0  0
   -0.8121    0.3820    1.2005 H   0  0  0  0  0  0  0  0  0  0  0  0
   -3.0501    0.6267    1.9490 H   0  0  0  0  0  0  0  0  0  0  0  0
   -4.4318    3.0531    1.3341 H   0  0  0  0  0  0  0  0  0  0  0  0
   -5.1887    1.5952    2.0667 H   0  0  0  0  0  0  0  0  0  0  0  0
   -6.1995    2.2086   -0.1603 H   0  0  0  0  0  0  0  0  0  0  0  0
   -4.6151    2.0860   -0.9550 H   0  0  0  0  0  0  0  0  0  0  0  0
   -3.5379    0.0073   -1.3987 H   0  0  0  0  0  0  0  0  0  0  0  0
   -3.7752   -2.4207   -1.6939 H   0  0  0  0  0  0  0  0  0  0  0  0
   -5.7673   -3.6133   -0.7741 H   0  0  0  0  0  0  0  0  0  0  0  0
   -7.4436   -2.2886    0.4213 H   0  0  0  0  0  0  0  0  0  0  0  0
   -7.1895    0.1592    0.7209 H   0  0  0  0  0  0  0  0  0  0  0  0
   -0.6078    2.9717   -1.5812 H   0  0  0  0  0  0  0  0  0  0  0  0
    1.3386    3.3875   -2.8837 H   0  0  0  0  0  0  0  0  0  0  0  0
    4.5383    0.4889   -1.3226 H   0  0  0  0  0  0  0  0  0  0  0  0
    4.3416   -3.3718    1.1056 H   0  0  0  0  0  0  0  0  0  0  0  0
  1  2  1  0
  2  3  1  0
  3  4  2  0
  4  5  1  0
  5  6  2  0
  6  7  1  0
  7  8  2  0
  8  9  1  0
  9 10  1  0
 10 11  1  0
 11 12  2  0
 11 13  1  0
 13 14  1  0
 14 15  1  0
 15 16  1  0
 16 17  2  0
 17 18  1  0
 18 19  2  0
 19 20  1  0
 20 21  2  0
  9 22  2  0
 22 23  1  0
 23 24  2  0
 24 25  1  0
 25 26  2  0
  4 27  1  0
 27 28  2  0
 28  2  1  0
 26  5  1  0
 25  8  1  0
 21 16  1  0
  1 29  1  0
  1 30  1  0
  1 31  1  0
  3 32  1  0
  6 33  1  0
 10 34  1  0
 13 35  1  0
 14 36  1  0
 14 37  1  0
 15 38  1  0
 15 39  1  0
 17 40  1  0
 18 41  1  0
 19 42  1  0
 20 43  1  0
 21 44  1  0
 22 45  1  0
 23 46  1  0
 26 47  1  0
 27 48  1  0
M  END
$$$$
