
     RDKit          3D

 61 65  0  0  0  0  0  0  0  0999 V2000
    7.6459   -2.0524   -1.9667 O   0  0  0  0  0  0  0  0  0  0  0  0
    7.1455   -0.9916   -1.5224 C   0  0  0  0  0  0  0  0  0  0  0  0
    8.0181    0.0440   -1.2204 O   0  0  0  0  0  0  0  0  0  0  0  0
    5.7013   -0.8726   -1.3381 C   0  0  0  0  0  0  0  0  0  0  0  0
    5.1603    0.2905   -0.8516 C   0  0  0  0  0  0  0  0  0  0  0  0
    3.7818    0.3929   -0.6799 C   0  0  0  0  0  0  0  0  0  0  0  0
    2.9141   -0.6214   -0.9744 C   0  0  0  0  0  0  0  0  0  0  0  0
    1.5128   -0.6048   -0.8326 N   0  0  0  0  0  0  0  0  0  0  0  0
    0.7164    0.4610   -0.3577 C   0  0  0  0  0  0  0  0  0  0  0  0
    1.2914    1.5130   -0.0206 O   0  0  0  0  0  0  0  0  0  0  0  0
   -0.7664    0.2959   -0.2758 C   0  0  2  0  0  0  0  0  0  0  0  0
   -1.4401    1.5260    0.2617 C   0  0  0  0  0  0  0  0  0  0  0  0
   -1.1618    2.7117   -0.6242 C   0  0  0  0  0  0  0  0  0  0  0  0
   -0.8654    3.9202    0.2383 C   0  0  0  0  0  0  0  0  0  0  0  0
   -1.9587    4.0940    1.2789 C   0  0  0  0  0  0  0  0  0  0  0  0
   -2.0942    2.8997    2.1653 C   0  0  0  0  0  0  0  0  0  0  0  0
   -1.1336    1.7968    1.7066 C   0  0  0  0  0  0  0  0  0  0  0  0
   -1.1926   -0.9190    0.3345 N   0  0  0  0  0  0  0  0  0  0  0  0
   -2.2722   -1.6612   -0.0450 C   0  0  0  0  0  0  0  0  0  0  0  0
   -3.1593   -1.3119   -1.1475 C   0  0  0  0  0  0  0  0  0  0  0  0
   -2.7736   -1.3767   -2.4708 C   0  0  0  0  0  0  0  0  0  0  0  0
   -3.6715   -1.0286   -3.4707 C   0  0  0  0  0  0  0  0  0  0  0  0
   -4.9613   -0.6114   -3.1958 C   0  0  0  0  0  0  0  0  0  0  0  0
   -6.0736   -0.1775   -4.4908 Cl  0  0  0  0  0  0  0  0  0  0  0  0
   -5.3384   -0.5495   -1.8713 C   0  0  0  0  0  0  0  0  0  0  0  0
   -4.4489   -0.8938   -0.8900 C   0  0  0  0  0  0  0  0  0  0  0  0
   -2.3943   -2.7470    0.7382 N   0  0  0  0  0  0  0  0  0  0  0  0
   -1.3776   -2.6962    1.6299 C   0  0  0  0  0  0  0  0  0  0  0  0
   -0.9907   -3.5166    2.6617 C   0  0  0  0  0  0  0  0  0  0  0  0
    0.1002   -3.2447    3.4394 C   0  0  0  0  0  0  0  0  0  0  0  0
    0.5006   -4.0515    4.4724 F   0  0  0  0  0  0  0  0  0  0  0  0
    0.8378   -2.1230    3.1919 C   0  0  0  0  0  0  0  0  0  0  0  0
    1.9336   -1.8325    3.9587 F   0  0  0  0  0  0  0  0  0  0  0  0
    0.4857   -1.2747    2.1690 C   0  0  0  0  0  0  0  0  0  0  0  0
   -0.6149   -1.5472    1.3829 C   0  0  0  0  0  0  0  0  0  0  0  0
    3.5098   -1.7924   -1.4691 C   0  0  0  0  0  0  0  0  0  0  0  0
    4.8685   -1.9149   -1.6464 C   0  0  0  0  0  0  0  0  0  0  0  0
    8.9696   -0.1489   -0.9083 H   0  0  0  0  0  0  0  0  0  0  0  0
    5.8131    1.1032   -0.6115 H   0  0  0  0  0  0  0  0  0  0  0  0
    3.4470    1.3337   -0.2963 H   0  0  0  0  0  0  0  0  0  0  0  0
    0.9785   -1.5006   -1.1153 H   0  0  0  0  0  0  0  0  0  0  0  0
   -1.0904    0.2441   -1.3617 H   0  0  0  0  0  0  0  0  0  0  0  0
   -2.5398    1.3373    0.2007 H   0  0  0  0  0  0  0  0  0  0  0  0
   -0.3377    2.5542   -1.3341 H   0  0  0  0  0  0  0  0  0  0  0  0
   -2.0527    2.9921   -1.2515 H   0  0  0  0  0  0  0  0  0  0  0  0
    0.1174    3.8876    0.7173 H   0  0  0  0  0  0  0  0  0  0  0  0
   -0.9127    4.8542   -0.3948 H   0  0  0  0  0  0  0  0  0  0  0  0
   -2.9053    4.3327    0.7230 H   0  0  0  0  0  0  0  0  0  0  0  0
   -1.7058    4.9809    1.8977 H   0  0  0  0  0  0  0  0  0  0  0  0
   -2.0071    3.1053    3.2375 H   0  0  0  0  0  0  0  0  0  0  0  0
   -3.1216    2.4674    1.9869 H   0  0  0  0  0  0  0  0  0  0  0  0
   -0.1193    2.1398    1.9032 H   0  0  0  0  0  0  0  0  0  0  0  0
   -1.4359    0.8937    2.2803 H   0  0  0  0  0  0  0  0  0  0  0  0
   -1.7632   -1.7026   -2.7060 H   0  0  0  0  0  0  0  0  0  0  0  0
   -3.3792   -1.0760   -4.5109 H   0  0  0  0  0  0  0  0  0  0  0  0
   -6.3526   -0.2204   -1.6761 H   0  0  0  0  0  0  0  0  0  0  0  0
   -4.7497   -0.8439    0.1552 H   0  0  0  0  0  0  0  0  0  0  0  0
   -1.5729   -4.4107    2.8643 H   0  0  0  0  0  0  0  0  0  0  0  0
    1.0460   -0.3807    1.9468 H   0  0  0  0  0  0  0  0  0  0  0  0
    2.9145   -2.6558   -1.7337 H   0  0  0  0  0  0  0  0  0  0  0  0
    5.3253   -2.8193   -2.0282 H   0  0  0  0  0  0  0  0  0  0  0  0
  1  2  2  0
  2  3  1  0
  2  4  1  0
  4  5  2  0
  5  6  1  0
  6  7  2  0
  7  8  1  0
  8  9  1  0
  9 10  2  0
  9 11  1  0
 11 12  1  0
 12 13  1  0
 13 14  1  0
 14 15  1  0
 15 16  1  0
 16 17  1  0
 11 18  1  0
 18 19  1  0
 19 20  1  0
 20 21  2  0
 21 22  1  0
 22 23  2  0
 23 24  1  0
 23 25  1  0
 25 26  2  0
 19 27  2  0
 27 28  1  0
 28 29  2  0
 29 30  1  0
 30 31  1  0
 30 32  2  0
 32 33  1  0
 32 34  1  0
 34 35  2  0
  7 36  1  0
 36 37  2  0
 37  4  1  0
 17 12  1  0
 35 18  1  0
 26 20  1  0
 35 28  1  0
  3 38  1  0
  5 39  1  0
  6 40  1  0
  8 41  1  0
 11 42  1  6
 12 43  1  0
 13 44  1  0
 13 45  1  0
 14 46  1  0
 14 47  1  0
 15 48  1  0
 15 49  1  0
 16 50  1  0
 16 51  1  0
 17 52  1  0
 17 53  1  0
 21 54  1  0
 22 55  1  0
 25 56  1  0
 26 57  1  0
 29 58  1  0
 34 59  1  0
 36 60  1  0
 37 61  1  0
M  END
$$$$
