
     RDKit          3D

 38 41  0  0  0  0  0  0  0  0999 V2000
   -6.0191   -2.0098   -0.8656 N   0  0  0  0  0  0  0  0  0  0  0  0
   -6.1195   -0.7182   -0.2671 C   0  0  0  0  0  0  0  0  0  0  0  0
   -7.2838   -0.4391    0.1748 N   0  0  0  0  0  0  0  0  0  0  0  0
   -4.9450    0.1489   -0.2050 C   0  0  0  0  0  0  0  0  0  0  0  0
   -4.9788    1.5293   -0.2232 C   0  0  0  0  0  0  0  0  0  0  0  0
   -3.8491    2.3029   -0.1627 C   0  0  0  0  0  0  0  0  0  0  0  0
   -2.5943    1.6978   -0.0784 C   0  0  0  0  0  0  0  0  0  0  0  0
   -1.3115    2.1551   -0.0048 N   0  0  0  0  0  0  0  0  0  0  0  0
   -0.5392    1.0660    0.0555 C   0  0  0  0  0  0  0  0  0  0  0  0
   -1.2986   -0.0353    0.0216 N   0  0  0  0  0  0  0  0  0  0  0  0
   -2.5900    0.3171   -0.0620 C   0  0  0  0  0  0  0  0  0  0  0  0
   -3.7154   -0.4760   -0.1220 C   0  0  0  0  0  0  0  0  0  0  0  0
    0.9106    1.0764    0.1446 C   0  0  0  0  0  0  0  0  0  0  0  0
    1.7156    2.1497    0.1815 N   0  0  0  0  0  0  0  0  0  0  0  0
    2.9839    1.7882    0.2638 N   0  0  0  0  0  0  0  0  0  0  0  0
    3.0573    0.4504    0.2840 C   0  0  0  0  0  0  0  0  0  0  0  0
    1.7595   -0.0093    0.2095 C   0  0  0  0  0  0  0  0  0  0  0  0
    1.3013   -1.3090    0.1965 O   0  0  0  0  0  0  0  0  0  0  0  0
    4.2715   -0.3519    0.3681 C   0  0  0  0  0  0  0  0  0  0  0  0
    4.3381   -1.7285    0.3883 C   0  0  0  0  0  0  0  0  0  0  0  0
    5.5429   -2.3963    0.4703 C   0  0  0  0  0  0  0  0  0  0  0  0
    6.7402   -1.7044    0.5359 C   0  0  0  0  0  0  0  0  0  0  0  0
    6.7348   -0.3214    0.5194 C   0  0  0  0  0  0  0  0  0  0  0  0
    5.5023    0.2932    0.4364 C   0  0  0  0  0  0  0  0  0  0  0  0
   -6.4002   -2.9024   -0.4676 H   0  0  0  0  0  0  0  0  0  0  0  0
   -5.6070   -2.4082   -1.7370 H   0  0  0  0  0  0  0  0  0  0  0  0
   -7.5588    0.4336    0.6359 H   0  0  0  0  0  0  0  0  0  0  0  0
   -5.9608    1.9870   -0.2890 H   0  0  0  0  0  0  0  0  0  0  0  0
   -3.8984    3.3750   -0.1783 H   0  0  0  0  0  0  0  0  0  0  0  0
   -1.0348    3.1489    0.0006 H   0  0  0  0  0  0  0  0  0  0  0  0
   -3.6359   -1.5635   -0.1044 H   0  0  0  0  0  0  0  0  0  0  0  0
    3.7712    2.4988    0.3040 H   0  0  0  0  0  0  0  0  0  0  0  0
    0.9606   -1.7394   -0.6667 H   0  0  0  0  0  0  0  0  0  0  0  0
    3.4161   -2.2668    0.3379 H   0  0  0  0  0  0  0  0  0  0  0  0
    5.5249   -3.4847    0.4819 H   0  0  0  0  0  0  0  0  0  0  0  0
    7.6847   -2.2204    0.6001 H   0  0  0  0  0  0  0  0  0  0  0  0
    7.6289    0.2865    0.5673 H   0  0  0  0  0  0  0  0  0  0  0  0
    5.4956    1.3798    0.4232 H   0  0  0  0  0  0  0  0  0  0  0  0
  1  2  1  0
  2  3  2  3
  2  4  1  0
  4  5  2  0
  5  6  1  0
  6  7  2  0
  7  8  1  0
  8  9  1  0
  9 10  2  0
 10 11  1  0
 11 12  2  0
  9 13  1  0
 13 14  2  0
 14 15  1  0
 15 16  1  0
 16 17  2  0
 17 18  1  0
 16 19  1  0
 19 20  2  0
 20 21  1  0
 21 22  2  0
 22 23  1  0
 23 24  2  0
 12  4  1  0
 17 13  1  0
 24 19  1  0
 11  7  1  0
  1 25  1  0
  1 26  1  0
  3 27  1  0
  5 28  1  0
  6 29  1  0
  8 30  1  0
 12 31  1  0
 15 32  1  0
 18 33  1  0
 20 34  1  0
 21 35  1  0
 22 36  1  0
 23 37  1  0
 24 38  1  0
M  END
$$$$
