
     RDKit          3D

111115  0  0  0  0  0  0  0  0999 V2000
    0.4062   -0.9490    0.5724 C   0  0  1  0  0  0  0  0  0  0  0  0
    0.2993   -0.6929    1.9227 O   0  0  0  0  0  0  0  0  0  0  0  0
    1.1030   -2.2696    0.3435 C   0  0  0  0  0  0  0  0  0  0  0  0
    0.4604   -3.3761    0.9243 O   0  0  0  0  0  0  0  0  0  0  0  0
    2.1926   -2.5475   -0.2992 N   0  0  0  0  0  0  0  0  0  0  0  0
    2.7326   -3.8833   -0.4296 C   0  0  0  0  0  0  0  0  0  0  0  0
    3.4231   -4.0186   -1.7703 C   0  0  0  0  0  0  0  0  0  0  0  0
    4.5423   -3.0450   -1.8248 C   0  0  0  0  0  0  0  0  0  0  0  0
    5.2288   -3.0411   -3.0307 O   0  0  0  0  0  0  0  0  0  0  0  0
    4.9241   -2.2360   -0.8992 N   0  0  0  0  0  0  0  0  0  0  0  0
    6.0497   -1.3232   -1.0817 C   0  0  0  0  0  0  0  0  0  0  0  0
    7.3278   -2.1101   -0.9843 C   0  0  0  0  0  0  0  0  0  0  0  0
    8.7256   -1.0000   -1.2150 S   0  0  0  0  0  0  0  0  0  0  0  0
    8.8644    0.1892    0.1225 C   0  0  0  0  0  0  0  0  0  0  0  0
    9.1896   -0.4835    1.4175 C   0  0  0  0  0  0  0  0  0  0  0  0
    8.1534   -1.2972    1.8011 O   0  0  0  0  0  0  0  0  0  0  0  0
   10.1916   -0.4559    2.2019 N   0  0  0  0  0  0  0  0  0  0  0  0
   11.3732    0.3442    1.9540 C   0  0  0  0  0  0  0  0  0  0  0  0
   12.3049   -0.3869    0.9826 C   0  0  0  0  0  0  0  0  0  0  0  0
   13.5315    0.3716    0.6955 C   0  0  0  0  0  0  0  0  0  0  0  0
   14.7596    0.0377    1.2503 C   0  0  0  0  0  0  0  0  0  0  0  0
   15.7334    0.8589    0.8509 N   0  0  0  0  0  0  0  0  0  0  0  0
   15.1204    1.7355    0.0254 C   0  0  0  0  0  0  0  0  0  0  0  0
   13.7767    1.4585   -0.0851 C   0  0  0  0  0  0  0  0  0  0  0  0
   12.9198    2.2019   -0.8666 C   0  0  0  0  0  0  0  0  0  0  0  0
   13.4657    3.2793   -1.5670 C   0  0  0  0  0  0  0  0  0  0  0  0
   12.3454    4.3635   -2.6748 Br  0  0  0  0  0  0  0  0  0  0  0  0
   14.8213    3.5688   -1.4630 C   0  0  0  0  0  0  0  0  0  0  0  0
   15.6525    2.8100   -0.6761 C   0  0  0  0  0  0  0  0  0  0  0  0
   -0.9599   -0.9766   -0.0530 C   0  0  0  0  0  0  0  0  0  0  0  0
   -0.8908   -1.2515   -1.5437 C   0  0  0  0  0  0  0  0  0  0  0  0
   -1.7377   -2.1276    0.5747 C   0  0  0  0  0  0  0  0  0  0  0  0
   -1.6466    0.3449    0.2261 C   0  0  0  0  0  0  0  0  0  0  0  0
   -2.9323    0.3569   -0.3464 O   0  0  0  0  0  0  0  0  0  0  0  0
   -3.7418    1.7361    0.1802 P   0  0  0  0  0  0  0  0  0  0  0  0
   -4.8260    1.2554    1.4160 O   0  0  0  0  0  0  0  0  0  0  0  0
   -2.8058    2.8179    0.6457 O   0  0  0  0  0  0  0  0  0  0  0  0
   -4.6996    2.3734   -1.0613 O   0  0  0  0  0  0  0  0  0  0  0  0
   -5.5121    3.7111   -0.4865 P   0  0  0  0  0  0  0  0  0  0  0  0
   -5.8639    4.7079   -1.8305 O   0  0  0  0  0  0  0  0  0  0  0  0
   -4.6750    4.5598    0.4484 O   0  0  0  0  0  0  0  0  0  0  0  0
   -6.9672    3.3859    0.2643 O   0  0  0  0  0  0  0  0  0  0  0  0
   -7.9258    2.8134   -0.5375 C   0  0  0  0  0  0  0  0  0  0  0  0
   -9.2523    2.6453    0.1702 C   0  0  1  0  0  0  0  0  0  0  0  0
  -10.1443    2.0686   -0.6986 O   0  0  0  0  0  0  0  0  0  0  0  0
  -10.9052    1.1824    0.0569 C   0  0  1  0  0  0  0  0  0  0  0  0
  -11.5652    0.1954   -0.7367 N   0  0  0  0  0  0  0  0  0  0  0  0
  -11.1981   -0.0753   -1.9888 C   0  0  0  0  0  0  0  0  0  0  0  0
  -11.9978   -1.0489   -2.4909 N   0  0  0  0  0  0  0  0  0  0  0  0
  -12.8858   -1.4019   -1.5439 C   0  0  0  0  0  0  0  0  0  0  0  0
  -13.9195   -2.3112   -1.4704 C   0  0  0  0  0  0  0  0  0  0  0  0
  -14.1287   -3.0736   -2.6531 N   0  0  0  0  0  0  0  0  0  0  0  0
  -14.6465   -2.4205   -0.3227 N   0  0  0  0  0  0  0  0  0  0  0  0
  -14.3620   -1.6435    0.7453 C   0  0  0  0  0  0  0  0  0  0  0  0
  -13.3408   -0.7392    0.6854 N   0  0  0  0  0  0  0  0  0  0  0  0
  -12.6013   -0.6051   -0.4348 C   0  0  0  0  0  0  0  0  0  0  0  0
   -9.8618    0.5210    0.9134 C   0  0  2  0  0  0  0  0  0  0  0  0
  -10.5295   -0.0401    2.0086 O   0  0  0  0  0  0  0  0  0  0  0  0
   -9.0526    1.7532    1.3514 C   0  0  2  0  0  0  0  0  0  0  0  0
   -9.5621    2.1926    2.5241 O   0  0  0  0  0  0  0  0  0  0  0  0
   -8.5737    2.1828    3.8484 P   0  0  0  0  0  0  0  0  0  0  0  0
   -9.0339    3.3626    5.0012 O   0  0  0  0  0  0  0  0  0  0  0  0
   -6.9267    2.3473    3.4742 O   0  0  0  0  0  0  0  0  0  0  0  0
   -8.7213    0.8516    4.5536 O   0  0  0  0  0  0  0  0  0  0  0  0
    0.9764   -0.1316    0.0806 H   0  0  0  0  0  0  0  0  0  0  0  0
    0.9203   -1.2632    2.4616 H   0  0  0  0  0  0  0  0  0  0  0  0
    0.9501   -4.1450    1.3627 H   0  0  0  0  0  0  0  0  0  0  0  0
    3.4886   -4.0321    0.3530 H   0  0  0  0  0  0  0  0  0  0  0  0
    1.9110   -4.6274   -0.3472 H   0  0  0  0  0  0  0  0  0  0  0  0
    2.7040   -3.7538   -2.5868 H   0  0  0  0  0  0  0  0  0  0  0  0
    3.7702   -5.0485   -1.9019 H   0  0  0  0  0  0  0  0  0  0  0  0
    5.7183   -2.2370   -3.3995 H   0  0  0  0  0  0  0  0  0  0  0  0
    6.0403   -0.5566   -0.2704 H   0  0  0  0  0  0  0  0  0  0  0  0
    5.9860   -0.7778   -2.0226 H   0  0  0  0  0  0  0  0  0  0  0  0
    7.3954   -2.5868    0.0161 H   0  0  0  0  0  0  0  0  0  0  0  0
    7.3481   -2.8981   -1.7812 H   0  0  0  0  0  0  0  0  0  0  0  0
    9.6644    0.9197   -0.1302 H   0  0  0  0  0  0  0  0  0  0  0  0
    7.9276    0.7552    0.1781 H   0  0  0  0  0  0  0  0  0  0  0  0
    8.1931   -1.8390    2.6595 H   0  0  0  0  0  0  0  0  0  0  0  0
   11.8980    0.4666    2.9251 H   0  0  0  0  0  0  0  0  0  0  0  0
   11.0547    1.3109    1.5457 H   0  0  0  0  0  0  0  0  0  0  0  0
   11.7167   -0.4675    0.0357 H   0  0  0  0  0  0  0  0  0  0  0  0
   12.5154   -1.3977    1.3829 H   0  0  0  0  0  0  0  0  0  0  0  0
   14.9821   -0.7839    1.9389 H   0  0  0  0  0  0  0  0  0  0  0  0
   16.7412    0.8699    1.0855 H   0  0  0  0  0  0  0  0  0  0  0  0
   11.8650    1.9473   -0.9249 H   0  0  0  0  0  0  0  0  0  0  0  0
   15.2689    4.3904   -1.9896 H   0  0  0  0  0  0  0  0  0  0  0  0
   16.7136    3.0604   -0.6143 H   0  0  0  0  0  0  0  0  0  0  0  0
   -0.4319   -2.2277   -1.7403 H   0  0  0  0  0  0  0  0  0  0  0  0
   -0.2765   -0.4585   -2.0373 H   0  0  0  0  0  0  0  0  0  0  0  0
   -1.9121   -1.2344   -1.9612 H   0  0  0  0  0  0  0  0  0  0  0  0
   -2.8207   -1.8786    0.5518 H   0  0  0  0  0  0  0  0  0  0  0  0
   -1.6310   -3.0369   -0.0380 H   0  0  0  0  0  0  0  0  0  0  0  0
   -1.4454   -2.2224    1.6199 H   0  0  0  0  0  0  0  0  0  0  0  0
   -1.0613    1.1505   -0.2466 H   0  0  0  0  0  0  0  0  0  0  0  0
   -1.6646    0.4878    1.3215 H   0  0  0  0  0  0  0  0  0  0  0  0
   -5.4373    0.6018    0.9899 H   0  0  0  0  0  0  0  0  0  0  0  0
   -5.0530    4.8176   -2.4119 H   0  0  0  0  0  0  0  0  0  0  0  0
   -8.0228    3.4320   -1.4554 H   0  0  0  0  0  0  0  0  0  0  0  0
   -7.5101    1.8391   -0.8875 H   0  0  0  0  0  0  0  0  0  0  0  0
   -9.5979    3.6614    0.4269 H   0  0  0  0  0  0  0  0  0  0  0  0
  -11.6336    1.7289    0.6650 H   0  0  0  0  0  0  0  0  0  0  0  0
  -10.4482    0.2794   -2.6706 H   0  0  0  0  0  0  0  0  0  0  0  0
  -14.8176   -2.6925   -3.3498 H   0  0  0  0  0  0  0  0  0  0  0  0
  -13.7029   -3.9926   -2.9783 H   0  0  0  0  0  0  0  0  0  0  0  0
  -15.0055   -1.8189    1.5949 H   0  0  0  0  0  0  0  0  0  0  0  0
   -9.2486   -0.1873    0.3545 H   0  0  0  0  0  0  0  0  0  0  0  0
  -10.7395   -0.9878    1.8278 H   0  0  0  0  0  0  0  0  0  0  0  0
   -8.0033    1.4074    1.4479 H   0  0  0  0  0  0  0  0  0  0  0  0
   -9.9363    3.1973    5.3227 H   0  0  0  0  0  0  0  0  0  0  0  0
   -6.5745    3.2063    3.8677 H   0  0  0  0  0  0  0  0  0  0  0  0
  1  2  1  0
  1  3  1  0
  3  4  1  0
  3  5  2  3
  5  6  1  0
  6  7  1  0
  7  8  1  0
  8  9  1  0
  8 10  2  3
 10 11  1  0
 11 12  1  0
 12 13  1  0
 13 14  1  0
 14 15  1  0
 15 16  1  0
 15 17  2  3
 17 18  1  0
 18 19  1  0
 19 20  1  0
 20 21  2  0
 21 22  1  0
 22 23  1  0
 23 24  2  0
 24 25  1  0
 25 26  2  0
 26 27  1  0
 26 28  1  0
 28 29  2  0
  1 30  1  0
 30 31  1  0
 30 32  1  0
 30 33  1  0
 33 34  1  0
 34 35  1  0
 35 36  1  0
 35 37  2  0
 35 38  1  0
 38 39  1  0
 39 40  1  0
 39 41  2  0
 39 42  1  0
 42 43  1  0
 43 44  1  0
 44 45  1  0
 45 46  1  0
 46 47  1  0
 47 48  1  0
 48 49  2  0
 49 50  1  0
 50 51  2  0
 51 52  1  0
 51 53  1  0
 53 54  2  0
 54 55  1  0
 55 56  2  0
 46 57  1  0
 57 58  1  0
 57 59  1  0
 59 60  1  0
 60 61  1  0
 61 62  1  0
 61 63  1  0
 61 64  2  0
 24 20  1  0
 59 44  1  0
 29 23  1  0
 56 47  1  0
 56 50  1  0
  1 65  1  6
  2 66  1  0
  4 67  1  0
  6 68  1  0
  6 69  1  0
  7 70  1  0
  7 71  1  0
  9 72  1  0
 11 73  1  0
 11 74  1  0
 12 75  1  0
 12 76  1  0
 14 77  1  0
 14 78  1  0
 16 79  1  0
 18 80  1  0
 18 81  1  0
 19 82  1  0
 19 83  1  0
 21 84  1  0
 22 85  1  0
 25 86  1  0
 28 87  1  0
 29 88  1  0
 31 89  1  0
 31 90  1  0
 31 91  1  0
 32 92  1  0
 32 93  1  0
 32 94  1  0
 33 95  1  0
 33 96  1  0
 36 97  1  0
 40 98  1  0
 43 99  1  0
 43100  1  0
 44101  1  1
 46102  1  1
 48103  1  0
 52104  1  0
 52105  1  0
 54106  1  0
 57107  1  6
 58108  1  0
 59109  1  1
 62110  1  0
 63111  1  0
M  END
$$$$
