
     RDKit          3D

 43 47  0  0  0  0  0  0  0  0999 V2000
    5.3816   -0.4230   -1.6049 N   0  0  0  0  0  0  0  0  0  0  0  0
    4.0363   -0.1964   -1.2175 C   0  0  0  0  0  0  0  0  0  0  0  0
    3.4022    0.7210   -1.7906 O   0  0  0  0  0  0  0  0  0  0  0  0
    3.4470   -1.0299   -0.1783 C   0  0  0  0  0  0  0  0  0  0  0  0
    4.0447   -2.0597    0.5168 C   0  0  0  0  0  0  0  0  0  0  0  0
    3.1305   -2.5284    1.3595 N   0  0  0  0  0  0  0  0  0  0  0  0
    1.9736   -1.8647    1.2540 C   0  0  0  0  0  0  0  0  0  0  0  0
    0.7485   -1.9497    1.8768 C   0  0  0  0  0  0  0  0  0  0  0  0
   -0.2426   -1.0653    1.4918 C   0  0  0  0  0  0  0  0  0  0  0  0
   -0.0184   -0.1174    0.5083 C   0  0  0  0  0  0  0  0  0  0  0  0
   -1.0860    0.7942    0.1317 C   0  0  0  0  0  0  0  0  0  0  0  0
   -2.3175    0.4583   -0.4380 C   0  0  0  0  0  0  0  0  0  0  0  0
   -2.6733   -0.9244   -0.7290 C   0  0  0  0  0  0  0  0  0  0  0  0
   -3.7622   -1.4668   -0.1015 C   0  0  0  0  0  0  0  0  0  0  0  0
   -4.1157   -2.7681   -0.3613 C   0  0  0  0  0  0  0  0  0  0  0  0
   -3.3599   -3.4974   -1.2522 C   0  0  0  0  0  0  0  0  0  0  0  0
   -3.7211   -4.7992   -1.5062 F   0  0  0  0  0  0  0  0  0  0  0  0
   -2.2545   -2.9873   -1.9059 C   0  0  0  0  0  0  0  0  0  0  0  0
   -1.9441   -1.6830   -1.6112 C   0  0  0  0  0  0  0  0  0  0  0  0
   -2.9970    1.5817   -0.6242 N   0  0  0  0  0  0  0  0  0  0  0  0
   -2.2270    2.5951   -0.1894 C   0  0  0  0  0  0  0  0  0  0  0  0
   -1.0550    2.1314    0.2761 N   0  0  0  0  0  0  0  0  0  0  0  0
    0.0446    2.8957    0.8301 C   0  0  0  0  0  0  0  0  0  0  0  0
    0.4346    4.1257    0.0656 C   0  0  0  0  0  0  0  0  0  0  0  0
    0.5483    4.8058    1.2990 O   0  0  0  0  0  0  0  0  0  0  0  0
   -0.4692    3.9806    1.7844 C   0  0  0  0  0  0  0  0  0  0  0  0
    1.2104   -0.1149   -0.0391 N   0  0  0  0  0  0  0  0  0  0  0  0
    2.1748   -0.9392    0.3017 N   0  0  0  0  0  0  0  0  0  0  0  0
    6.0436    0.3372   -1.8743 H   0  0  0  0  0  0  0  0  0  0  0  0
    5.7675   -1.4048   -1.6333 H   0  0  0  0  0  0  0  0  0  0  0  0
    5.0816   -2.3996    0.3737 H   0  0  0  0  0  0  0  0  0  0  0  0
    0.5738   -2.6875    2.6424 H   0  0  0  0  0  0  0  0  0  0  0  0
   -1.2250   -1.0853    1.9463 H   0  0  0  0  0  0  0  0  0  0  0  0
   -4.3682   -0.8867    0.6111 H   0  0  0  0  0  0  0  0  0  0  0  0
   -4.9929   -3.2283    0.1347 H   0  0  0  0  0  0  0  0  0  0  0  0
   -1.6716   -3.5957   -2.6121 H   0  0  0  0  0  0  0  0  0  0  0  0
   -1.0790   -1.2491   -2.1087 H   0  0  0  0  0  0  0  0  0  0  0  0
   -2.5372    3.6350   -0.2227 H   0  0  0  0  0  0  0  0  0  0  0  0
    0.8444    2.2780    1.2275 H   0  0  0  0  0  0  0  0  0  0  0  0
    1.4239    4.0860   -0.3998 H   0  0  0  0  0  0  0  0  0  0  0  0
   -0.3711    4.5022   -0.5830 H   0  0  0  0  0  0  0  0  0  0  0  0
   -0.3264    3.7282    2.8545 H   0  0  0  0  0  0  0  0  0  0  0  0
   -1.4969    4.2955    1.4974 H   0  0  0  0  0  0  0  0  0  0  0  0
  1  2  1  0
  2  3  2  0
  2  4  1  0
  4  5  2  0
  5  6  1  0
  6  7  2  0
  7  8  1  0
  8  9  2  0
  9 10  1  0
 10 11  1  0
 11 12  2  0
 12 13  1  0
 13 14  2  0
 14 15  1  0
 15 16  2  0
 16 17  1  0
 16 18  1  0
 18 19  2  0
 12 20  1  0
 20 21  2  0
 21 22  1  0
 22 23  1  0
 23 24  1  0
 24 25  1  0
 25 26  1  0
 10 27  2  0
 27 28  1  0
 28  4  1  0
 28  7  1  0
 22 11  1  0
 26 23  1  0
 19 13  1  0
  1 29  1  0
  1 30  1  0
  5 31  1  0
  8 32  1  0
  9 33  1  0
 14 34  1  0
 15 35  1  0
 18 36  1  0
 19 37  1  0
 21 38  1  0
 23 39  1  0
 24 40  1  0
 24 41  1  0
 26 42  1  0
 26 43  1  0
M  END
$$$$
