
     RDKit          3D

 29 30  0  0  0  0  0  0  0  0999 V2000
   -4.4234   -2.5239    0.4786 N   0  0  0  0  0  0  0  0  0  0  0  0
   -3.3975   -1.5645    0.2718 C   0  0  0  0  0  0  0  0  0  0  0  0
   -2.0857   -1.8883    0.3696 N   0  0  0  0  0  0  0  0  0  0  0  0
   -1.0940   -0.9986    0.1785 C   0  0  0  0  0  0  0  0  0  0  0  0
   -1.3812    0.3147   -0.1332 C   0  0  0  0  0  0  0  0  0  0  0  0
   -0.3451    1.3555   -0.3589 C   0  0  0  0  0  0  0  0  0  0  0  0
    1.0189    0.8324   -0.2133 C   0  0  0  0  0  0  0  0  0  0  0  0
    1.6869    0.3133   -1.2999 C   0  0  0  0  0  0  0  0  0  0  0  0
    2.9667   -0.1801   -1.1743 C   0  0  0  0  0  0  0  0  0  0  0  0
    3.8624   -0.8891   -2.6886 Br  0  0  0  0  0  0  0  0  0  0  0  0
    3.5463   -0.1294    0.0902 C   0  0  0  0  0  0  0  0  0  0  0  0
    4.8617   -0.6330    0.2346 N   0  0  0  0  0  0  0  0  0  0  0  0
    2.8986    0.3839    1.1876 C   0  0  0  0  0  0  0  0  0  0  0  0
    3.6900    0.4544    2.9198 Br  0  0  0  0  0  0  0  0  0  0  0  0
    1.6185    0.8700    1.0293 C   0  0  0  0  0  0  0  0  0  0  0  0
   -2.7162    0.6468   -0.2333 C   0  0  0  0  0  0  0  0  0  0  0  0
   -3.0348    1.9978   -0.5543 N   0  0  0  0  0  0  0  0  0  0  0  0
   -3.6817   -0.2846   -0.0320 N   0  0  0  0  0  0  0  0  0  0  0  0
   -4.7174   -2.7081    1.4557 H   0  0  0  0  0  0  0  0  0  0  0  0
   -4.8924   -3.0470   -0.2830 H   0  0  0  0  0  0  0  0  0  0  0  0
   -0.0463   -1.2543    0.2560 H   0  0  0  0  0  0  0  0  0  0  0  0
   -0.5760    2.1858    0.3501 H   0  0  0  0  0  0  0  0  0  0  0  0
   -0.4989    1.8106   -1.3801 H   0  0  0  0  0  0  0  0  0  0  0  0
    1.2440    0.2709   -2.2821 H   0  0  0  0  0  0  0  0  0  0  0  0
    5.5823   -0.6117   -0.5216 H   0  0  0  0  0  0  0  0  0  0  0  0
    5.1308   -1.0497    1.1455 H   0  0  0  0  0  0  0  0  0  0  0  0
    1.0823    1.2824    1.8830 H   0  0  0  0  0  0  0  0  0  0  0  0
   -2.8930    2.7363    0.1683 H   0  0  0  0  0  0  0  0  0  0  0  0
   -3.4060    2.3073   -1.4759 H   0  0  0  0  0  0  0  0  0  0  0  0
  1  2  1  0
  2  3  2  0
  3  4  1  0
  4  5  2  0
  5  6  1  0
  6  7  1  0
  7  8  2  0
  8  9  1  0
  9 10  1  0
  9 11  2  0
 11 12  1  0
 11 13  1  0
 13 14  1  0
 13 15  2  0
  5 16  1  0
 16 17  1  0
 16 18  2  0
 18  2  1  0
 15  7  1  0
  1 19  1  0
  1 20  1  0
  4 21  1  0
  6 22  1  0
  6 23  1  0
  8 24  1  0
 12 25  1  0
 12 26  1  0
 15 27  1  0
 17 28  1  0
 17 29  1  0
M  END
$$$$
