
     RDKit          3D

 68 72  0  0  0  0  0  0  0  0999 V2000
    5.9981   -4.5458    0.8712 C   0  0  0  0  0  0  0  0  0  0  0  0
    4.7115   -3.9049    0.5100 C   0  0  0  0  0  0  0  0  0  0  0  0
    3.5514   -4.6284    0.5812 C   0  0  0  0  0  0  0  0  0  0  0  0
    2.3458   -4.0162    0.2353 C   0  0  0  0  0  0  0  0  0  0  0  0
    2.3158   -2.7097   -0.1706 C   0  0  0  0  0  0  0  0  0  0  0  0
    1.1177   -2.0297   -0.5217 N   0  0  0  0  0  0  0  0  0  0  0  0
   -0.1918   -2.5367   -0.5132 C   0  0  0  0  0  0  0  0  0  0  0  0
   -0.3711   -3.7291   -0.1611 O   0  0  0  0  0  0  0  0  0  0  0  0
   -1.3593   -1.7149   -0.9030 C   0  0  0  0  0  0  0  0  0  0  0  0
   -1.2762   -0.4181   -1.3046 C   0  0  0  0  0  0  0  0  0  0  0  0
   -2.4260    0.2953   -1.6563 C   0  0  0  0  0  0  0  0  0  0  0  0
   -3.6766   -0.2926   -1.6065 C   0  0  0  0  0  0  0  0  0  0  0  0
   -4.8961    0.4483   -1.9782 C   0  0  0  0  0  0  0  0  0  0  0  0
   -5.4228    1.1120   -0.8091 N   0  0  0  0  0  0  0  0  0  0  0  0
   -5.7391    0.1283    0.1887 C   0  0  0  0  0  0  0  0  0  0  0  0
   -6.5032    0.7847    1.3259 C   0  0  0  0  0  0  0  0  0  0  0  0
   -7.7739    1.2541    0.8642 N   0  0  0  0  0  0  0  0  0  0  0  0
   -8.2731    2.3526    1.6330 C   0  0  0  0  0  0  0  0  0  0  0  0
   -7.8489    1.4506   -0.5513 C   0  0  0  0  0  0  0  0  0  0  0  0
   -6.5662    1.9062   -1.1812 C   0  0  0  0  0  0  0  0  0  0  0  0
   -3.7579   -1.6080   -1.1990 C   0  0  0  0  0  0  0  0  0  0  0  0
   -2.6079   -2.2884   -0.8580 C   0  0  0  0  0  0  0  0  0  0  0  0
    3.5308   -2.0040   -0.2294 C   0  0  0  0  0  0  0  0  0  0  0  0
    4.7245   -2.5798    0.1040 C   0  0  0  0  0  0  0  0  0  0  0  0
    5.9636   -1.8981    0.0799 N   0  0  0  0  0  0  0  0  0  0  0  0
    6.0423   -0.5617   -0.3888 C   0  0  0  0  0  0  0  0  0  0  0  0
    6.5069   -0.3676   -1.6458 N   0  0  0  0  0  0  0  0  0  0  0  0
    6.6181    0.8457   -2.1896 C   0  0  0  0  0  0  0  0  0  0  0  0
    6.2449    1.9429   -1.4424 C   0  0  0  0  0  0  0  0  0  0  0  0
    5.7685    1.7889   -0.1649 C   0  0  0  0  0  0  0  0  0  0  0  0
    5.3397    2.9097    0.6768 C   0  0  0  0  0  0  0  0  0  0  0  0
    4.8490    2.6596    1.9493 C   0  0  0  0  0  0  0  0  0  0  0  0
    4.4263    3.6701    2.7966 C   0  0  0  0  0  0  0  0  0  0  0  0
    4.4978    4.9849    2.3527 C   0  0  0  0  0  0  0  0  0  0  0  0
    4.9733    5.2136    1.1235 N   0  0  0  0  0  0  0  0  0  0  0  0
    5.3900    4.2168    0.2876 C   0  0  0  0  0  0  0  0  0  0  0  0
    5.6857    0.5171    0.3184 N   0  0  0  0  0  0  0  0  0  0  0  0
    6.3756   -4.2160    1.8619 H   0  0  0  0  0  0  0  0  0  0  0  0
    5.8352   -5.6442    0.9409 H   0  0  0  0  0  0  0  0  0  0  0  0
    6.7635   -4.3599    0.0852 H   0  0  0  0  0  0  0  0  0  0  0  0
    3.4966   -5.6586    0.8899 H   0  0  0  0  0  0  0  0  0  0  0  0
    1.4374   -4.6339    0.3041 H   0  0  0  0  0  0  0  0  0  0  0  0
    1.1931   -0.9984   -0.8356 H   0  0  0  0  0  0  0  0  0  0  0  0
   -0.3424    0.0995   -1.3674 H   0  0  0  0  0  0  0  0  0  0  0  0
   -2.3227    1.3015   -1.9635 H   0  0  0  0  0  0  0  0  0  0  0  0
   -5.6700   -0.2763   -2.3203 H   0  0  0  0  0  0  0  0  0  0  0  0
   -4.7156    1.1651   -2.8103 H   0  0  0  0  0  0  0  0  0  0  0  0
   -4.8053   -0.3025    0.6073 H   0  0  0  0  0  0  0  0  0  0  0  0
   -6.3907   -0.6463   -0.2428 H   0  0  0  0  0  0  0  0  0  0  0  0
   -6.7139   -0.0297    2.0734 H   0  0  0  0  0  0  0  0  0  0  0  0
   -5.8856    1.5276    1.8377 H   0  0  0  0  0  0  0  0  0  0  0  0
   -9.3101    2.1055    1.9846 H   0  0  0  0  0  0  0  0  0  0  0  0
   -7.6117    2.4440    2.5396 H   0  0  0  0  0  0  0  0  0  0  0  0
   -8.3025    3.3006    1.0806 H   0  0  0  0  0  0  0  0  0  0  0  0
   -8.6203    2.2345   -0.7497 H   0  0  0  0  0  0  0  0  0  0  0  0
   -8.2061    0.5494   -1.0969 H   0  0  0  0  0  0  0  0  0  0  0  0
   -6.4325    2.9818   -0.9030 H   0  0  0  0  0  0  0  0  0  0  0  0
   -6.7124    1.8889   -2.2852 H   0  0  0  0  0  0  0  0  0  0  0  0
   -4.7137   -2.0934   -1.1519 H   0  0  0  0  0  0  0  0  0  0  0  0
   -2.7038   -3.3070   -0.5466 H   0  0  0  0  0  0  0  0  0  0  0  0
    3.4835   -0.9905   -0.5489 H   0  0  0  0  0  0  0  0  0  0  0  0
    6.8583   -2.3518    0.4055 H   0  0  0  0  0  0  0  0  0  0  0  0
    6.9935    0.9628   -3.1933 H   0  0  0  0  0  0  0  0  0  0  0  0
    6.3240    2.9435   -1.8605 H   0  0  0  0  0  0  0  0  0  0  0  0
    4.8061    1.6246    2.2613 H   0  0  0  0  0  0  0  0  0  0  0  0
    4.0461    3.4865    3.7814 H   0  0  0  0  0  0  0  0  0  0  0  0
    4.1661    5.7806    3.0160 H   0  0  0  0  0  0  0  0  0  0  0  0
    5.7684    4.4641   -0.7016 H   0  0  0  0  0  0  0  0  0  0  0  0
  1  2  1  0
  2  3  2  0
  3  4  1  0
  4  5  2  0
  5  6  1  0
  6  7  1  0
  7  8  2  0
  7  9  1  0
  9 10  2  0
 10 11  1  0
 11 12  2  0
 12 13  1  0
 13 14  1  0
 14 15  1  0
 15 16  1  0
 16 17  1  0
 17 18  1  0
 17 19  1  0
 19 20  1  0
 12 21  1  0
 21 22  2  0
  5 23  1  0
 23 24  2  0
 24 25  1  0
 25 26  1  0
 26 27  2  0
 27 28  1  0
 28 29  2  0
 29 30  1  0
 30 31  1  0
 31 32  2  0
 32 33  1  0
 33 34  2  0
 34 35  1  0
 35 36  2  0
 30 37  2  0
 24  2  1  0
 37 26  1  0
 22  9  1  0
 36 31  1  0
 20 14  1  0
  1 38  1  0
  1 39  1  0
  1 40  1  0
  3 41  1  0
  4 42  1  0
  6 43  1  0
 10 44  1  0
 11 45  1  0
 13 46  1  0
 13 47  1  0
 15 48  1  0
 15 49  1  0
 16 50  1  0
 16 51  1  0
 18 52  1  0
 18 53  1  0
 18 54  1  0
 19 55  1  0
 19 56  1  0
 20 57  1  0
 20 58  1  0
 21 59  1  0
 22 60  1  0
 23 61  1  0
 25 62  1  0
 28 63  1  0
 29 64  1  0
 32 65  1  0
 33 66  1  0
 34 67  1  0
 36 68  1  0
M  END
$$$$
