
     RDKit          3D

 49 52  0  0  0  0  0  0  0  0999 V2000
    6.9569    1.4062    2.9943 N   0  0  0  0  0  0  0  0  0  0  0  0
    7.3775    2.0175    1.7895 C   0  0  0  0  0  0  0  0  0  0  0  0
    8.3512    2.8102    1.8222 O   0  0  0  0  0  0  0  0  0  0  0  0
    6.6873    1.7242    0.5488 C   0  0  0  0  0  0  0  0  0  0  0  0
    7.1068    2.3273   -0.6230 C   0  0  0  0  0  0  0  0  0  0  0  0
    6.4767    2.0606   -1.7605 N   0  0  0  0  0  0  0  0  0  0  0  0
    5.4343    1.2217   -1.8402 C   0  0  0  0  0  0  0  0  0  0  0  0
    4.9867    0.6012   -0.6939 C   0  0  0  0  0  0  0  0  0  0  0  0
    3.9159   -0.2623   -0.7674 O   0  0  0  0  0  0  0  0  0  0  0  0
    3.2756   -0.5205   -1.9818 C   0  0  0  0  0  0  0  0  0  0  0  0
    2.1537   -1.4696   -1.8575 C   0  0  0  0  0  0  0  0  0  0  0  0
    2.3787   -2.8085   -1.9993 C   0  0  0  0  0  0  0  0  0  0  0  0
    1.3382   -3.7014   -1.8850 C   0  0  0  0  0  0  0  0  0  0  0  0
    0.0659   -3.2088   -1.6243 C   0  0  0  0  0  0  0  0  0  0  0  0
   -0.1785   -1.8589   -1.4783 C   0  0  0  0  0  0  0  0  0  0  0  0
   -1.4984   -1.3442   -1.2075 N   0  0  0  0  0  0  0  0  0  0  0  0
   -1.9658   -1.1713    0.1184 C   0  0  0  0  0  0  0  0  0  0  0  0
   -1.1410   -1.5014    1.0384 O   0  0  0  0  0  0  0  0  0  0  0  0
   -3.2710   -0.6630    0.4796 C   0  0  0  0  0  0  0  0  0  0  0  0
   -4.1766   -0.3010   -0.4891 C   0  0  0  0  0  0  0  0  0  0  0  0
   -5.4408    0.1913   -0.1248 C   0  0  0  0  0  0  0  0  0  0  0  0
   -5.7488    0.3017    1.2090 C   0  0  0  0  0  0  0  0  0  0  0  0
   -7.0296    0.8001    1.6258 C   0  0  0  0  0  0  0  0  0  0  0  0
   -8.1130    1.2299    0.9147 C   0  0  0  0  0  0  0  0  0  0  0  0
   -9.2124    1.6558    1.5226 C   0  0  0  0  0  0  0  0  0  0  0  0
   -9.2012    1.6406    2.9243 C   0  0  0  0  0  0  0  0  0  0  0  0
   -7.5854    1.0048    3.3110 S   0  0  0  0  0  0  0  0  0  0  0  0
   -4.8514   -0.0569    2.1443 N   0  0  0  0  0  0  0  0  0  0  0  0
   -3.6242   -0.5348    1.7942 C   0  0  0  0  0  0  0  0  0  0  0  0
    0.8690   -0.9904   -1.5956 C   0  0  0  0  0  0  0  0  0  0  0  0
    5.6306    0.8646    0.5102 C   0  0  0  0  0  0  0  0  0  0  0  0
    7.2180    0.4430    3.2603 H   0  0  0  0  0  0  0  0  0  0  0  0
    6.3475    1.9851    3.6337 H   0  0  0  0  0  0  0  0  0  0  0  0
    7.9335    3.0015   -0.6009 H   0  0  0  0  0  0  0  0  0  0  0  0
    4.9600    1.0426   -2.7943 H   0  0  0  0  0  0  0  0  0  0  0  0
    2.9030    0.4413   -2.4220 H   0  0  0  0  0  0  0  0  0  0  0  0
    4.0087   -0.9105   -2.7394 H   0  0  0  0  0  0  0  0  0  0  0  0
    3.3661   -3.1772   -2.2006 H   0  0  0  0  0  0  0  0  0  0  0  0
    1.4518   -4.7638   -1.9861 H   0  0  0  0  0  0  0  0  0  0  0  0
   -0.8014   -3.8613   -1.5220 H   0  0  0  0  0  0  0  0  0  0  0  0
   -2.1334   -1.0895   -1.9927 H   0  0  0  0  0  0  0  0  0  0  0  0
   -3.9773   -0.3709   -1.5486 H   0  0  0  0  0  0  0  0  0  0  0  0
   -6.1824    0.4872   -0.8477 H   0  0  0  0  0  0  0  0  0  0  0  0
   -8.0046    1.1961   -0.2136 H   0  0  0  0  0  0  0  0  0  0  0  0
  -10.1143    2.0132    0.9842 H   0  0  0  0  0  0  0  0  0  0  0  0
  -10.0254    1.9577    3.6615 H   0  0  0  0  0  0  0  0  0  0  0  0
   -2.9500   -0.8050    2.6032 H   0  0  0  0  0  0  0  0  0  0  0  0
    0.7641    0.0948   -1.4943 H   0  0  0  0  0  0  0  0  0  0  0  0
    5.2697    0.3718    1.4004 H   0  0  0  0  0  0  0  0  0  0  0  0
  1  2  1  0
  2  3  2  0
  2  4  1  0
  4  5  2  0
  5  6  1  0
  6  7  2  0
  7  8  1  0
  8  9  1  0
  9 10  1  0
 10 11  1  0
 11 12  2  0
 12 13  1  0
 13 14  2  0
 14 15  1  0
 15 16  1  0
 16 17  1  0
 17 18  2  0
 17 19  1  0
 19 20  2  0
 20 21  1  0
 21 22  2  0
 22 23  1  0
 23 24  2  0
 24 25  1  0
 25 26  2  0
 26 27  1  0
 22 28  1  0
 28 29  2  0
 15 30  2  0
  8 31  2  0
 31  4  1  0
 30 11  1  0
 29 19  1  0
 27 23  1  0
  1 32  1  0
  1 33  1  0
  5 34  1  0
  7 35  1  0
 10 36  1  0
 10 37  1  0
 12 38  1  0
 13 39  1  0
 14 40  1  0
 16 41  1  0
 20 42  1  0
 21 43  1  0
 24 44  1  0
 25 45  1  0
 26 46  1  0
 29 47  1  0
 30 48  1  0
 31 49  1  0
M  END
$$$$
