
     RDKit          3D

 39 43  0  0  0  0  0  0  0  0999 V2000
    3.1227   -1.6069    1.8641 N   0  0  0  0  0  0  0  0  0  0  0  0
    3.3803   -1.4416    0.7150 C   0  0  0  0  0  0  0  0  0  0  0  0
    3.6796   -1.2459   -0.6759 C   0  0  0  0  0  0  0  0  0  0  0  0
    4.8388   -1.6997   -1.2245 C   0  0  0  0  0  0  0  0  0  0  0  0
    5.1250   -1.4672   -2.5744 C   0  0  0  0  0  0  0  0  0  0  0  0
    4.2249   -0.7796   -3.3204 C   0  0  0  0  0  0  0  0  0  0  0  0
    3.0237   -0.2967   -2.7978 C   0  0  0  0  0  0  0  0  0  0  0  0
    2.1651    0.3817   -3.6469 C   0  0  0  0  0  0  0  0  0  0  0  0
    1.3820    0.9765   -4.4041 N   0  0  0  0  0  0  0  0  0  0  0  0
    2.7382   -0.5305   -1.4519 C   0  0  0  0  0  0  0  0  0  0  0  0
    1.4776   -0.1178   -0.8620 C   0  0  0  0  0  0  0  0  0  0  0  0
    1.0581   -0.7305    0.3075 N   0  0  0  0  0  0  0  0  0  0  0  0
   -0.1408   -0.2916    0.6616 C   0  0  0  0  0  0  0  0  0  0  0  0
   -1.0110   -0.5892    1.7320 C   0  0  0  0  0  0  0  0  0  0  0  0
   -0.6047   -1.5109    2.6505 C   0  0  0  0  0  0  0  0  0  0  0  0
   -1.4538   -1.8402    3.7458 C   0  0  0  0  0  0  0  0  0  0  0  0
   -2.6417   -1.1751    3.7590 C   0  0  0  0  0  0  0  0  0  0  0  0
   -3.1093   -0.2504    2.8771 C   0  0  0  0  0  0  0  0  0  0  0  0
   -2.2287    0.0371    1.8202 C   0  0  0  0  0  0  0  0  0  0  0  0
   -2.6123    0.9607    0.8753 C   0  0  0  0  0  0  0  0  0  0  0  0
   -3.8541    1.6121    0.9512 C   0  0  0  0  0  0  0  0  0  0  0  0
   -4.2362    2.5476   -0.0216 C   0  0  0  0  0  0  0  0  0  0  0  0
   -5.8124    3.3187    0.1510 Cl  0  0  0  0  0  0  0  0  0  0  0  0
   -3.3635    2.8034   -1.0362 C   0  0  0  0  0  0  0  0  0  0  0  0
   -2.1170    2.1695   -1.1333 C   0  0  0  0  0  0  0  0  0  0  0  0
   -1.7513    1.2400   -0.1618 C   0  0  0  0  0  0  0  0  0  0  0  0
   -0.4990    0.6252   -0.2962 C   0  0  0  0  0  0  0  0  0  0  0  0
    0.5054    0.7071   -1.2084 N   0  0  0  0  0  0  0  0  0  0  0  0
    5.5251   -2.2414   -0.5843 H   0  0  0  0  0  0  0  0  0  0  0  0
    6.0427   -1.8289   -3.0067 H   0  0  0  0  0  0  0  0  0  0  0  0
    4.4373   -0.5938   -4.3597 H   0  0  0  0  0  0  0  0  0  0  0  0
    0.3462   -2.0040    2.5850 H   0  0  0  0  0  0  0  0  0  0  0  0
   -1.1315   -2.5704    4.4646 H   0  0  0  0  0  0  0  0  0  0  0  0
   -3.3118   -1.4169    4.6040 H   0  0  0  0  0  0  0  0  0  0  0  0
   -4.0635    0.1899    3.0162 H   0  0  0  0  0  0  0  0  0  0  0  0
   -4.5461    1.4336    1.7191 H   0  0  0  0  0  0  0  0  0  0  0  0
   -3.6566    3.5305   -1.7924 H   0  0  0  0  0  0  0  0  0  0  0  0
   -1.4229    2.3618   -1.9241 H   0  0  0  0  0  0  0  0  0  0  0  0
    0.4954    1.3339   -2.0166 H   0  0  0  0  0  0  0  0  0  0  0  0
  1  2  3  0
  2  3  1  0
  3  4  2  0
  4  5  1  0
  5  6  2  0
  6  7  1  0
  7  8  1  0
  8  9  3  0
  7 10  2  0
 10 11  1  0
 11 12  2  0
 12 13  1  0
 13 14  2  0
 14 15  1  0
 15 16  2  0
 16 17  1  0
 17 18  2  0
 18 19  1  0
 19 20  2  0
 20 21  1  0
 21 22  2  0
 22 23  1  0
 22 24  1  0
 24 25  2  0
 25 26  1  0
 26 27  2  0
 27 28  1  0
 10  3  1  0
 28 11  1  0
 27 13  1  0
 19 14  1  0
 26 20  1  0
  4 29  1  0
  5 30  1  0
  6 31  1  0
 15 32  1  0
 16 33  1  0
 17 34  1  0
 18 35  1  0
 21 36  1  0
 24 37  1  0
 25 38  1  0
 28 39  1  0
M  END
$$$$
