
     RDKit          3D

 39 40  0  0  0  0  0  0  0  0999 V2000
    5.0887   -0.3718   -0.5774 C   0  0  0  0  0  0  0  0  0  0  0  0
    3.9169   -0.3115    0.2669 N   0  0  0  0  0  0  0  0  0  0  0  0
    3.8437   -1.3876    1.2135 C   0  0  0  0  0  0  0  0  0  0  0  0
    2.7018   -0.1005   -0.4750 C   0  0  0  0  0  0  0  0  0  0  0  0
    1.4728   -0.0361    0.3978 C   0  0  0  0  0  0  0  0  0  0  0  0
    0.3181    0.1687   -0.3551 O   0  0  0  0  0  0  0  0  0  0  0  0
   -0.8223    0.2318    0.4180 C   0  0  0  0  0  0  0  0  0  0  0  0
   -1.7409   -0.9005    0.0495 C   0  0  0  0  0  0  0  0  0  0  0  0
   -1.9713   -1.1966   -1.2717 C   0  0  0  0  0  0  0  0  0  0  0  0
   -2.8274   -2.2513   -1.5677 C   0  0  0  0  0  0  0  0  0  0  0  0
   -3.4392   -2.9931   -0.5660 C   0  0  0  0  0  0  0  0  0  0  0  0
   -4.5100   -4.3128   -0.9992 Cl  0  0  0  0  0  0  0  0  0  0  0  0
   -3.2040   -2.6909    0.7629 C   0  0  0  0  0  0  0  0  0  0  0  0
   -2.3624   -1.6544    1.0229 C   0  0  0  0  0  0  0  0  0  0  0  0
   -1.5593    1.4982    0.2601 C   0  0  0  0  0  0  0  0  0  0  0  0
   -0.8357    2.6767    0.2702 C   0  0  0  0  0  0  0  0  0  0  0  0
   -1.4536    3.9200    0.1269 C   0  0  0  0  0  0  0  0  0  0  0  0
   -2.8383    3.9939   -0.0316 C   0  0  0  0  0  0  0  0  0  0  0  0
   -3.5212    2.7949   -0.0359 C   0  0  0  0  0  0  0  0  0  0  0  0
   -2.9094    1.6101    0.1031 N   0  0  0  0  0  0  0  0  0  0  0  0
    4.8600    0.2574   -1.4637 H   0  0  0  0  0  0  0  0  0  0  0  0
    6.0108   -0.0728   -0.0663 H   0  0  0  0  0  0  0  0  0  0  0  0
    5.2103   -1.4291   -0.8949 H   0  0  0  0  0  0  0  0  0  0  0  0
    3.0928   -2.1043    0.8505 H   0  0  0  0  0  0  0  0  0  0  0  0
    4.8254   -1.9216    1.1514 H   0  0  0  0  0  0  0  0  0  0  0  0
    3.7267   -1.0853    2.2637 H   0  0  0  0  0  0  0  0  0  0  0  0
    2.8403    0.8339   -1.0549 H   0  0  0  0  0  0  0  0  0  0  0  0
    2.5761   -0.9350   -1.1924 H   0  0  0  0  0  0  0  0  0  0  0  0
    1.3931   -0.8646    1.0988 H   0  0  0  0  0  0  0  0  0  0  0  0
    1.5985    0.9001    1.0156 H   0  0  0  0  0  0  0  0  0  0  0  0
   -0.5427    0.1005    1.4907 H   0  0  0  0  0  0  0  0  0  0  0  0
   -1.5217   -0.6522   -2.0729 H   0  0  0  0  0  0  0  0  0  0  0  0
   -2.9990   -2.4724   -2.6127 H   0  0  0  0  0  0  0  0  0  0  0  0
   -3.6637   -3.2476    1.5691 H   0  0  0  0  0  0  0  0  0  0  0  0
   -2.1391   -1.3697    2.0558 H   0  0  0  0  0  0  0  0  0  0  0  0
    0.2294    2.7678    0.3833 H   0  0  0  0  0  0  0  0  0  0  0  0
   -0.9152    4.8636    0.1304 H   0  0  0  0  0  0  0  0  0  0  0  0
   -3.3211    4.9433   -0.1422 H   0  0  0  0  0  0  0  0  0  0  0  0
   -4.6082    2.8009   -0.1573 H   0  0  0  0  0  0  0  0  0  0  0  0
  1  2  1  0
  2  3  1  0
  2  4  1  0
  4  5  1  0
  5  6  1  0
  6  7  1  0
  7  8  1  0
  8  9  2  0
  9 10  1  0
 10 11  2  0
 11 12  1  0
 11 13  1  0
 13 14  2  0
  7 15  1  0
 15 16  2  0
 16 17  1  0
 17 18  2  0
 18 19  1  0
 19 20  2  0
 14  8  1  0
 20 15  1  0
  1 21  1  0
  1 22  1  0
  1 23  1  0
  3 24  1  0
  3 25  1  0
  3 26  1  0
  4 27  1  0
  4 28  1  0
  5 29  1  0
  5 30  1  0
  7 31  1  0
  9 32  1  0
 10 33  1  0
 13 34  1  0
 14 35  1  0
 16 36  1  0
 17 37  1  0
 18 38  1  0
 19 39  1  0
M  END
$$$$
