
     RDKit          3D

 61 63  0  0  0  0  0  0  0  0999 V2000
    5.3025   -1.1248   -2.8361 C   0  0  0  0  0  0  0  0  0  0  0  0
    5.8916   -0.3508   -1.8089 O   0  0  0  0  0  0  0  0  0  0  0  0
    5.1345   -0.1170   -0.6701 C   0  0  0  0  0  0  0  0  0  0  0  0
    3.8655   -0.5986   -0.5094 C   0  0  0  0  0  0  0  0  0  0  0  0
    3.1065   -0.3626    0.6357 C   0  0  0  0  0  0  0  0  0  0  0  0
    1.7461   -0.9256    0.7188 C   0  0  0  0  0  0  0  0  0  0  0  0
    0.7750   -0.0291    0.1968 O   0  0  0  0  0  0  0  0  0  0  0  0
   -0.5740   -0.3439    0.1704 C   0  0  0  0  0  0  0  0  0  0  0  0
   -1.3725   -0.0132    1.2395 C   0  0  0  0  0  0  0  0  0  0  0  0
   -0.7654    0.6362    2.3169 O   0  0  0  0  0  0  0  0  0  0  0  0
   -1.5955    0.9713    3.4097 C   0  0  0  0  0  0  0  0  0  0  0  0
   -2.7033   -0.3243    1.2122 C   0  0  0  0  0  0  0  0  0  0  0  0
   -3.3263   -0.9751    0.1394 C   0  0  0  0  0  0  0  0  0  0  0  0
   -4.7834   -1.2877    0.1976 C   0  0  0  0  0  0  0  0  0  0  0  0
   -5.6486   -0.1534   -0.1446 C   0  0  0  0  0  0  0  0  0  0  0  0
   -6.2960    0.5671    0.8729 C   0  0  0  0  0  0  0  0  0  0  0  0
   -7.0744    1.6030    0.5159 N   0  0  0  0  0  0  0  0  0  0  0  0
   -7.2624    1.9802   -0.7561 C   0  0  0  0  0  0  0  0  0  0  0  0
   -8.1046    3.0897   -1.0343 N   0  0  0  0  0  0  0  0  0  0  0  0
   -6.6404    1.2865   -1.7221 N   0  0  0  0  0  0  0  0  0  0  0  0
   -5.8320    0.2208   -1.4473 C   0  0  0  0  0  0  0  0  0  0  0  0
   -5.2060   -0.4816   -2.4929 N   0  0  0  0  0  0  0  0  0  0  0  0
   -2.5065   -1.2949   -0.9160 C   0  0  0  0  0  0  0  0  0  0  0  0
   -1.1606   -0.9932   -0.9159 C   0  0  0  0  0  0  0  0  0  0  0  0
   -0.3243   -1.3119   -1.9775 O   0  0  0  0  0  0  0  0  0  0  0  0
   -0.9013   -1.9811   -3.1096 C   0  0  0  0  0  0  0  0  0  0  0  0
    3.6633    0.3854    1.6395 C   0  0  0  0  0  0  0  0  0  0  0  0
    4.9530    0.8894    1.5056 C   0  0  0  0  0  0  0  0  0  0  0  0
    5.5320    1.6401    2.4958 O   0  0  0  0  0  0  0  0  0  0  0  0
    4.8884    1.9624    3.7135 C   0  0  0  0  0  0  0  0  0  0  0  0
    5.6865    0.6436    0.3634 C   0  0  0  0  0  0  0  0  0  0  0  0
    6.9815    1.1244    0.1782 O   0  0  0  0  0  0  0  0  0  0  0  0
    8.0321    0.2712    0.6288 C   0  0  0  0  0  0  0  0  0  0  0  0
    6.0951   -1.4013   -3.5849 H   0  0  0  0  0  0  0  0  0  0  0  0
    4.8577   -2.0726   -2.4193 H   0  0  0  0  0  0  0  0  0  0  0  0
    4.5704   -0.5213   -3.3925 H   0  0  0  0  0  0  0  0  0  0  0  0
    3.4205   -1.1817   -1.2830 H   0  0  0  0  0  0  0  0  0  0  0  0
    1.7028   -1.8417    0.0936 H   0  0  0  0  0  0  0  0  0  0  0  0
    1.4781   -1.2518    1.7502 H   0  0  0  0  0  0  0  0  0  0  0  0
   -0.9601    1.2860    4.2824 H   0  0  0  0  0  0  0  0  0  0  0  0
   -2.2150    0.1260    3.7542 H   0  0  0  0  0  0  0  0  0  0  0  0
   -2.2521    1.8381    3.1908 H   0  0  0  0  0  0  0  0  0  0  0  0
   -3.3228   -0.0653    2.0469 H   0  0  0  0  0  0  0  0  0  0  0  0
   -4.9326   -2.1570   -0.4927 H   0  0  0  0  0  0  0  0  0  0  0  0
   -4.9968   -1.6863    1.2147 H   0  0  0  0  0  0  0  0  0  0  0  0
   -6.1465    0.2670    1.8893 H   0  0  0  0  0  0  0  0  0  0  0  0
   -9.0717    3.1689   -0.6093 H   0  0  0  0  0  0  0  0  0  0  0  0
   -7.8339    3.8780   -1.6586 H   0  0  0  0  0  0  0  0  0  0  0  0
   -5.2257   -1.5179   -2.4889 H   0  0  0  0  0  0  0  0  0  0  0  0
   -4.7228   -0.0002   -3.2721 H   0  0  0  0  0  0  0  0  0  0  0  0
   -2.9053   -1.7967   -1.7644 H   0  0  0  0  0  0  0  0  0  0  0  0
   -1.3665   -2.9434   -2.8125 H   0  0  0  0  0  0  0  0  0  0  0  0
   -1.7134   -1.3576   -3.5250 H   0  0  0  0  0  0  0  0  0  0  0  0
   -0.1425   -2.2142   -3.8654 H   0  0  0  0  0  0  0  0  0  0  0  0
    3.1284    0.5982    2.5398 H   0  0  0  0  0  0  0  0  0  0  0  0
    5.4292    2.7485    4.2639 H   0  0  0  0  0  0  0  0  0  0  0  0
    3.8692    2.3339    3.4939 H   0  0  0  0  0  0  0  0  0  0  0  0
    4.7760    1.0932    4.3900 H   0  0  0  0  0  0  0  0  0  0  0  0
    8.3424    0.5024    1.6579 H   0  0  0  0  0  0  0  0  0  0  0  0
    8.9320    0.3672   -0.0149 H   0  0  0  0  0  0  0  0  0  0  0  0
    7.7248   -0.8009    0.6093 H   0  0  0  0  0  0  0  0  0  0  0  0
  1  2  1  0
  2  3  1  0
  3  4  2  0
  4  5  1  0
  5  6  1  0
  6  7  1  0
  7  8  1  0
  8  9  2  0
  9 10  1  0
 10 11  1  0
  9 12  1  0
 12 13  2  0
 13 14  1  0
 14 15  1  0
 15 16  2  0
 16 17  1  0
 17 18  2  0
 18 19  1  0
 18 20  1  0
 20 21  2  0
 21 22  1  0
 13 23  1  0
 23 24  2  0
 24 25  1  0
 25 26  1  0
  5 27  2  0
 27 28  1  0
 28 29  1  0
 29 30  1  0
 28 31  2  0
 31 32  1  0
 32 33  1  0
 31  3  1  0
 24  8  1  0
 21 15  1  0
  1 34  1  0
  1 35  1  0
  1 36  1  0
  4 37  1  0
  6 38  1  0
  6 39  1  0
 11 40  1  0
 11 41  1  0
 11 42  1  0
 12 43  1  0
 14 44  1  0
 14 45  1  0
 16 46  1  0
 19 47  1  0
 19 48  1  0
 22 49  1  0
 22 50  1  0
 23 51  1  0
 26 52  1  0
 26 53  1  0
 26 54  1  0
 27 55  1  0
 30 56  1  0
 30 57  1  0
 30 58  1  0
 33 59  1  0
 33 60  1  0
 33 61  1  0
M  END
$$$$
