
     RDKit          3D

 58 59  0  0  0  0  0  0  0  0999 V2000
   -3.9241    0.1705    0.3952 C   0  0  1  0  0  0  0  0  0  0  0  0
   -2.7800    0.9476    1.0242 C   0  0  0  0  0  0  0  0  0  0  0  0
   -1.9721    1.5446   -0.1081 C   0  0  0  0  0  0  0  0  0  0  0  0
   -1.1193    0.4419   -0.6945 C   0  0  2  0  0  0  0  0  0  0  0  0
   -1.8726   -0.8542   -0.6533 C   0  0  0  0  0  0  0  0  0  0  0  0
   -3.3518   -0.5284   -0.8368 C   0  0  0  0  0  0  0  0  0  0  0  0
    0.1503    0.3971    0.0779 C   0  0  0  0  0  0  0  0  0  0  0  0
    0.1231    0.1461    1.4335 O   0  0  0  0  0  0  0  0  0  0  0  0
    1.2725    0.5864   -0.4847 N   0  0  0  0  0  0  0  0  0  0  0  0
    2.5656    0.5737    0.1233 C   0  0  0  0  0  0  0  0  0  0  0  0
    3.2153   -0.7656   -0.1736 C   0  0  0  0  0  0  0  0  0  0  0  0
    4.8592   -0.6945    0.6368 S   0  0  0  0  0  0  0  0  0  0  0  0
    6.0653    0.7575   -0.2968 S   0  0  0  0  0  0  0  0  0  0  0  0
    7.0321    0.0467   -1.6727 C   0  0  0  0  0  0  0  0  0  0  0  0
    8.0187   -0.9296   -1.0623 C   0  0  0  0  0  0  0  0  0  0  0  0
    8.8633   -0.1986   -0.1494 N   0  0  0  0  0  0  0  0  0  0  0  0
    9.7417    0.6515   -0.5351 C   0  0  0  0  0  0  0  0  0  0  0  0
   10.4711    1.2586    0.6190 C   0  0  0  0  0  0  0  0  0  0  0  0
    9.8653    0.8590   -1.9092 O   0  0  0  0  0  0  0  0  0  0  0  0
   -4.4122   -0.8542    1.2975 N   0  0  0  0  0  0  0  0  0  0  0  0
   -5.6672   -1.1235    1.2744 C   0  0  0  0  0  0  0  0  0  0  0  0
   -5.4346   -2.0538    2.2500 O   0  0  0  0  0  0  0  0  0  0  0  0
   -6.7244   -0.5278    0.4396 C   0  0  0  0  0  0  0  0  0  0  0  0
   -7.7714    0.2011    0.9692 C   0  0  0  0  0  0  0  0  0  0  0  0
   -8.6755    0.6970    0.1291 N   0  0  0  0  0  0  0  0  0  0  0  0
   -8.5310    0.4680   -1.1920 C   0  0  0  0  0  0  0  0  0  0  0  0
   -7.5074   -0.2479   -1.7421 C   0  0  0  0  0  0  0  0  0  0  0  0
   -6.6128   -0.7353   -0.8773 N   0  0  0  0  0  0  0  0  0  0  0  0
   -7.8451    0.3985    2.4217 C   0  0  0  0  0  0  0  0  0  0  0  0
   -8.8915    1.1281    2.9642 O   0  0  0  0  0  0  0  0  0  0  0  0
   -6.9584   -0.0974    3.1486 O   0  0  0  0  0  0  0  0  0  0  0  0
   -4.6984    0.9140    0.1218 H   0  0  0  0  0  0  0  0  0  0  0  0
   -2.2002    0.2367    1.6498 H   0  0  0  0  0  0  0  0  0  0  0  0
   -3.2224    1.7582    1.6667 H   0  0  0  0  0  0  0  0  0  0  0  0
   -2.6624    1.9361   -0.8733 H   0  0  0  0  0  0  0  0  0  0  0  0
   -1.2957    2.3515    0.2478 H   0  0  0  0  0  0  0  0  0  0  0  0
   -0.9366    0.6783   -1.7607 H   0  0  0  0  0  0  0  0  0  0  0  0
   -1.7006   -1.4487    0.2430 H   0  0  0  0  0  0  0  0  0  0  0  0
   -1.6158   -1.4812   -1.5478 H   0  0  0  0  0  0  0  0  0  0  0  0
   -3.9065   -1.4612   -1.0469 H   0  0  0  0  0  0  0  0  0  0  0  0
   -3.4454    0.1194   -1.7222 H   0  0  0  0  0  0  0  0  0  0  0  0
    0.9199   -0.3143    1.8764 H   0  0  0  0  0  0  0  0  0  0  0  0
    2.5831    0.8234    1.1959 H   0  0  0  0  0  0  0  0  0  0  0  0
    3.1843    1.3486   -0.4147 H   0  0  0  0  0  0  0  0  0  0  0  0
    2.6348   -1.6204    0.1718 H   0  0  0  0  0  0  0  0  0  0  0  0
    3.3850   -0.7950   -1.2629 H   0  0  0  0  0  0  0  0  0  0  0  0
    6.2799   -0.5198   -2.2871 H   0  0  0  0  0  0  0  0  0  0  0  0
    7.5407    0.8256   -2.2514 H   0  0  0  0  0  0  0  0  0  0  0  0
    7.4748   -1.7079   -0.4924 H   0  0  0  0  0  0  0  0  0  0  0  0
    8.6174   -1.4150   -1.8632 H   0  0  0  0  0  0  0  0  0  0  0  0
    9.7576    1.5252    1.4241 H   0  0  0  0  0  0  0  0  0  0  0  0
   11.2209    0.5674    1.0195 H   0  0  0  0  0  0  0  0  0  0  0  0
   10.9753    2.1987    0.2957 H   0  0  0  0  0  0  0  0  0  0  0  0
    9.7993    0.0873   -2.5735 H   0  0  0  0  0  0  0  0  0  0  0  0
   -5.3118   -3.0312    2.0982 H   0  0  0  0  0  0  0  0  0  0  0  0
   -9.2988    0.8973   -1.8251 H   0  0  0  0  0  0  0  0  0  0  0  0
   -7.4768   -0.3778   -2.8106 H   0  0  0  0  0  0  0  0  0  0  0  0
   -8.7937    1.5246    3.9050 H   0  0  0  0  0  0  0  0  0  0  0  0
  1  2  1  0
  2  3  1  0
  3  4  1  0
  4  5  1  0
  5  6  1  0
  4  7  1  0
  7  8  1  0
  7  9  2  3
  9 10  1  0
 10 11  1  0
 11 12  1  0
 12 13  1  0
 13 14  1  0
 14 15  1  0
 15 16  1  0
 16 17  2  3
 17 18  1  0
 17 19  1  0
  1 20  1  0
 20 21  2  3
 21 22  1  0
 21 23  1  0
 23 24  2  0
 24 25  1  0
 25 26  2  0
 26 27  1  0
 27 28  2  0
 24 29  1  0
 29 30  1  0
 29 31  2  0
  6  1  1  0
 28 23  1  0
  1 32  1  6
  2 33  1  0
  2 34  1  0
  3 35  1  0
  3 36  1  0
  4 37  1  6
  5 38  1  0
  5 39  1  0
  6 40  1  0
  6 41  1  0
  8 42  1  0
 10 43  1  0
 10 44  1  0
 11 45  1  0
 11 46  1  0
 14 47  1  0
 14 48  1  0
 15 49  1  0
 15 50  1  0
 18 51  1  0
 18 52  1  0
 18 53  1  0
 19 54  1  0
 22 55  1  0
 26 56  1  0
 27 57  1  0
 30 58  1  0
M  END
$$$$
