
     RDKit          3D

 54 58  0  0  0  0  0  0  0  0999 V2000
    9.1734    3.1485   -0.2189 C   0  0  0  0  0  0  0  0  0  0  0  0
    8.2264    2.2115    0.3888 N   0  0  0  0  0  0  0  0  0  0  0  0
    7.1047    1.6941   -0.1493 C   0  0  0  0  0  0  0  0  0  0  0  0
    6.4895    0.8475    0.7417 C   0  0  0  0  0  0  0  0  0  0  0  0
    5.2626    0.0738    0.5852 C   0  0  0  0  0  0  0  0  0  0  0  0
    4.7038   -0.7930    1.5091 C   0  0  0  0  0  0  0  0  0  0  0  0
    3.5512   -1.3552    1.0062 C   0  0  0  0  0  0  0  0  0  0  0  0
    2.6223   -2.2583    1.4634 C   0  0  0  0  0  0  0  0  0  0  0  0
    1.6099   -2.5816    0.6666 N   0  0  0  0  0  0  0  0  0  0  0  0
    1.4329   -2.0760   -0.5730 C   0  0  0  0  0  0  0  0  0  0  0  0
    0.3344   -2.4884   -1.3880 N   0  0  0  0  0  0  0  0  0  0  0  0
   -1.0129   -2.1743   -1.0793 C   0  0  0  0  0  0  0  0  0  0  0  0
   -1.3905   -1.4537    0.0307 C   0  0  0  0  0  0  0  0  0  0  0  0
   -2.7333   -1.1764    0.3155 C   0  0  0  0  0  0  0  0  0  0  0  0
   -3.7358   -1.6207   -0.5161 C   0  0  0  0  0  0  0  0  0  0  0  0
   -5.1452   -1.3444   -0.2149 C   0  0  0  0  0  0  0  0  0  0  0  0
   -5.8851   -2.3516    0.0678 O   0  0  0  0  0  0  0  0  0  0  0  0
   -5.7241   -0.0688   -0.2172 N   0  0  0  0  0  0  0  0  0  0  0  0
   -7.1363    0.0656    0.0966 C   0  0  0  0  0  0  0  0  0  0  0  0
   -7.2676    0.7190    1.4543 C   0  0  0  0  0  0  0  0  0  0  0  0
   -6.5983    2.3734    1.2519 S   0  0  0  0  0  6  0  0  0  0  0  0
   -7.4443    3.0952    0.2441 O   0  0  0  0  0  0  0  0  0  0  0  0
   -6.4726    3.0805    2.5465 O   0  0  0  0  0  0  0  0  0  0  0  0
   -4.9562    2.1421    0.5810 C   0  0  0  0  0  0  0  0  0  0  0  0
   -4.9433    1.1131   -0.5277 C   0  0  0  0  0  0  0  0  0  0  0  0
   -3.3616   -2.3421   -1.6299 C   0  0  0  0  0  0  0  0  0  0  0  0
   -2.0425   -2.6152   -1.9106 C   0  0  0  0  0  0  0  0  0  0  0  0
   -1.5724   -3.5333   -3.3320 Cl  0  0  0  0  0  0  0  0  0  0  0  0
    2.3415   -1.1767   -1.0496 C   0  0  0  0  0  0  0  0  0  0  0  0
    3.4095   -0.8025   -0.2758 C   0  0  0  0  0  0  0  0  0  0  0  0
    4.4504    0.0389   -0.4771 N   0  0  0  0  0  0  0  0  0  0  0  0
    7.2963    0.8694    1.8681 C   0  0  0  0  0  0  0  0  0  0  0  0
    8.3205    1.7038    1.5967 N   0  0  0  0  0  0  0  0  0  0  0  0
   10.2025    2.7684   -0.0225 H   0  0  0  0  0  0  0  0  0  0  0  0
    9.0477    4.1205    0.2663 H   0  0  0  0  0  0  0  0  0  0  0  0
    8.9658    3.2343   -1.3009 H   0  0  0  0  0  0  0  0  0  0  0  0
    6.7315    1.9072   -1.1410 H   0  0  0  0  0  0  0  0  0  0  0  0
    5.1033   -1.0134    2.5000 H   0  0  0  0  0  0  0  0  0  0  0  0
    2.7169   -2.6845    2.4330 H   0  0  0  0  0  0  0  0  0  0  0  0
    0.5609   -3.0420   -2.2391 H   0  0  0  0  0  0  0  0  0  0  0  0
   -0.6061   -1.0941    0.7013 H   0  0  0  0  0  0  0  0  0  0  0  0
   -3.0007   -0.6041    1.2013 H   0  0  0  0  0  0  0  0  0  0  0  0
   -7.6266   -0.9299    0.0981 H   0  0  0  0  0  0  0  0  0  0  0  0
   -7.6638    0.6936   -0.6360 H   0  0  0  0  0  0  0  0  0  0  0  0
   -6.6883    0.2234    2.2426 H   0  0  0  0  0  0  0  0  0  0  0  0
   -8.3452    0.7489    1.6938 H   0  0  0  0  0  0  0  0  0  0  0  0
   -4.3350    1.7861    1.4435 H   0  0  0  0  0  0  0  0  0  0  0  0
   -4.5851    3.0932    0.1659 H   0  0  0  0  0  0  0  0  0  0  0  0
   -5.2937    1.5781   -1.4567 H   0  0  0  0  0  0  0  0  0  0  0  0
   -3.8760    0.8033   -0.6449 H   0  0  0  0  0  0  0  0  0  0  0  0
   -4.1374   -2.6961   -2.2925 H   0  0  0  0  0  0  0  0  0  0  0  0
    2.1950   -0.7708   -2.0496 H   0  0  0  0  0  0  0  0  0  0  0  0
    4.5862    0.5857   -1.3609 H   0  0  0  0  0  0  0  0  0  0  0  0
    7.1407    0.3282    2.7832 H   0  0  0  0  0  0  0  0  0  0  0  0
  1  2  1  0
  2  3  1  0
  3  4  2  0
  4  5  1  0
  5  6  2  0
  6  7  1  0
  7  8  2  0
  8  9  1  0
  9 10  2  0
 10 11  1  0
 11 12  1  0
 12 13  2  0
 13 14  1  0
 14 15  2  0
 15 16  1  0
 16 17  2  0
 16 18  1  0
 18 19  1  0
 19 20  1  0
 20 21  1  0
 21 22  2  0
 21 23  2  0
 21 24  1  0
 24 25  1  0
 15 26  1  0
 26 27  2  0
 27 28  1  0
 10 29  1  0
 29 30  2  0
 30 31  1  0
  4 32  1  0
 32 33  2  0
 33  2  1  0
 31  5  1  0
 30  7  1  0
 27 12  1  0
 25 18  1  0
  1 34  1  0
  1 35  1  0
  1 36  1  0
  3 37  1  0
  6 38  1  0
  8 39  1  0
 11 40  1  0
 13 41  1  0
 14 42  1  0
 19 43  1  0
 19 44  1  0
 20 45  1  0
 20 46  1  0
 24 47  1  0
 24 48  1  0
 25 49  1  0
 25 50  1  0
 26 51  1  0
 29 52  1  0
 31 53  1  0
 32 54  1  0
M  END
$$$$
