
     RDKit          3D

 60 65  0  0  0  0  0  0  0  0999 V2000
   -6.9790   -2.2894    0.6497 C   0  0  0  0  0  0  0  0  0  0  0  0
   -6.9259   -0.9334    0.0615 C   0  0  0  0  0  0  0  0  0  0  0  0
   -7.9311   -0.1520   -0.3838 N   0  0  0  0  0  0  0  0  0  0  0  0
   -7.4510    0.9979   -0.8383 N   0  0  0  0  0  0  0  0  0  0  0  0
   -6.1153    0.9592   -0.6845 C   0  0  0  0  0  0  0  0  0  0  0  0
   -5.1246    1.8744   -0.9841 C   0  0  0  0  0  0  0  0  0  0  0  0
   -3.8038    1.5682   -0.7150 C   0  0  0  0  0  0  0  0  0  0  0  0
   -3.4156    0.3720   -0.1513 C   0  0  0  0  0  0  0  0  0  0  0  0
   -2.0225    0.0821    0.1175 C   0  0  0  0  0  0  0  0  0  0  0  0
   -1.0895    0.0209   -0.9133 C   0  0  0  0  0  0  0  0  0  0  0  0
    0.2357   -0.2573   -0.6350 C   0  0  0  0  0  0  0  0  0  0  0  0
    1.1644   -0.3171   -1.6751 O   0  0  0  0  0  0  0  0  0  0  0  0
    2.5266   -0.6081   -1.3448 C   0  0  0  0  0  0  0  0  0  0  0  0
    3.2731   -0.6087   -2.6454 C   0  0  1  0  0  0  0  0  0  0  0  0
    3.1551    0.6996   -3.3020 N   0  0  0  0  0  0  0  0  0  0  0  0
    4.7208   -0.9521   -2.5374 C   0  0  0  0  0  0  0  0  0  0  0  0
    5.5240   -0.0638   -1.7049 C   0  0  0  0  0  0  0  0  0  0  0  0
    6.2794    0.9865   -2.2024 C   0  0  0  0  0  0  0  0  0  0  0  0
    6.8510    1.5987   -1.1795 N   0  0  0  0  0  0  0  0  0  0  0  0
    6.5131    1.0054   -0.0190 C   0  0  0  0  0  0  0  0  0  0  0  0
    6.8573    1.2693    1.2869 C   0  0  0  0  0  0  0  0  0  0  0  0
    6.3534    0.4652    2.2767 C   0  0  0  0  0  0  0  0  0  0  0  0
    5.5171   -0.5885    1.9657 C   0  0  0  0  0  0  0  0  0  0  0  0
    5.1697   -0.8565    0.6625 C   0  0  0  0  0  0  0  0  0  0  0  0
    5.6707   -0.0508   -0.3514 C   0  0  0  0  0  0  0  0  0  0  0  0
    0.6048   -0.4703    0.6768 C   0  0  0  0  0  0  0  0  0  0  0  0
   -0.2955   -0.4127    1.6848 N   0  0  0  0  0  0  0  0  0  0  0  0
   -1.5833   -0.1410    1.4013 C   0  0  0  0  0  0  0  0  0  0  0  0
   -2.5630   -0.0799    2.5033 C   0  0  0  0  0  0  0  0  0  0  0  0
   -3.3220    0.9796    2.9178 C   0  0  0  0  0  0  0  0  0  0  0  0
   -4.0791    0.5251    3.9868 C   0  0  0  0  0  0  0  0  0  0  0  0
   -3.7662   -0.7306    4.1714 O   0  0  0  0  0  0  0  0  0  0  0  0
   -2.8789   -1.1362    3.3256 C   0  0  0  0  0  0  0  0  0  0  0  0
   -4.4080   -0.5449    0.1490 C   0  0  0  0  0  0  0  0  0  0  0  0
   -5.7347   -0.2430   -0.1189 C   0  0  0  0  0  0  0  0  0  0  0  0
   -6.2761   -2.9208    0.0631 H   0  0  0  0  0  0  0  0  0  0  0  0
   -7.9932   -2.7105    0.6550 H   0  0  0  0  0  0  0  0  0  0  0  0
   -6.5541   -2.2450    1.6783 H   0  0  0  0  0  0  0  0  0  0  0  0
   -8.0418    1.7612   -1.2333 H   0  0  0  0  0  0  0  0  0  0  0  0
   -5.4451    2.8086   -1.4259 H   0  0  0  0  0  0  0  0  0  0  0  0
   -3.0838    2.3446   -0.9817 H   0  0  0  0  0  0  0  0  0  0  0  0
   -1.4455    0.1968   -1.9116 H   0  0  0  0  0  0  0  0  0  0  0  0
    2.8213    0.1588   -0.6304 H   0  0  0  0  0  0  0  0  0  0  0  0
    2.5666   -1.6030   -0.8448 H   0  0  0  0  0  0  0  0  0  0  0  0
    2.7316   -1.3173   -3.3372 H   0  0  0  0  0  0  0  0  0  0  0  0
    2.4043    1.2731   -2.8508 H   0  0  0  0  0  0  0  0  0  0  0  0
    3.0119    0.5955   -4.3269 H   0  0  0  0  0  0  0  0  0  0  0  0
    5.1335   -0.9741   -3.5797 H   0  0  0  0  0  0  0  0  0  0  0  0
    4.7660   -1.9922   -2.1123 H   0  0  0  0  0  0  0  0  0  0  0  0
    6.3679    1.2368   -3.2399 H   0  0  0  0  0  0  0  0  0  0  0  0
    7.4820    2.4269   -1.2148 H   0  0  0  0  0  0  0  0  0  0  0  0
    7.5128    2.0907    1.5529 H   0  0  0  0  0  0  0  0  0  0  0  0
    6.6063    0.6466    3.3217 H   0  0  0  0  0  0  0  0  0  0  0  0
    5.1010   -1.2445    2.7213 H   0  0  0  0  0  0  0  0  0  0  0  0
    4.5260   -1.6844    0.4342 H   0  0  0  0  0  0  0  0  0  0  0  0
    1.6492   -0.6845    0.8531 H   0  0  0  0  0  0  0  0  0  0  0  0
   -3.3306    1.9672    2.4994 H   0  0  0  0  0  0  0  0  0  0  0  0
   -4.8027    1.0615    4.5871 H   0  0  0  0  0  0  0  0  0  0  0  0
   -2.4608   -2.1246    3.2731 H   0  0  0  0  0  0  0  0  0  0  0  0
   -4.1747   -1.5171    0.5987 H   0  0  0  0  0  0  0  0  0  0  0  0
  1  2  1  0
  2  3  2  0
  3  4  1  0
  4  5  1  0
  5  6  2  0
  6  7  1  0
  7  8  2  0
  8  9  1  0
  9 10  2  0
 10 11  1  0
 11 12  1  0
 12 13  1  0
 13 14  1  0
 14 15  1  0
 14 16  1  0
 16 17  1  0
 17 18  2  0
 18 19  1  0
 19 20  1  0
 20 21  2  0
 21 22  1  0
 22 23  2  0
 23 24  1  0
 24 25  2  0
 11 26  2  0
 26 27  1  0
 27 28  2  0
 28 29  1  0
 29 30  1  0
 30 31  2  0
 31 32  1  0
 32 33  1  0
  8 34  1  0
 34 35  2  0
 35  2  1  0
 35  5  1  0
 28  9  1  0
 33 29  2  0
 25 17  1  0
 25 20  1  0
  1 36  1  0
  1 37  1  0
  1 38  1  0
  4 39  1  0
  6 40  1  0
  7 41  1  0
 10 42  1  0
 13 43  1  0
 13 44  1  0
 14 45  1  6
 15 46  1  0
 15 47  1  0
 16 48  1  0
 16 49  1  0
 18 50  1  0
 19 51  1  0
 21 52  1  0
 22 53  1  0
 23 54  1  0
 24 55  1  0
 26 56  1  0
 30 57  1  0
 31 58  1  0
 33 59  1  0
 34 60  1  0
M  END
$$$$
