
     RDKit          3D

 50 52  0  0  0  0  0  0  0  0999 V2000
    8.2722    1.8947    0.1225 C   0  0  0  0  0  0  0  0  0  0  0  0
    8.4400    0.5395    0.0771 O   0  0  0  0  0  0  0  0  0  0  0  0
    7.2887   -0.2048    0.0536 C   0  0  0  0  0  0  0  0  0  0  0  0
    6.4742    0.0171    1.2819 C   0  0  0  0  0  0  0  0  0  0  0  0
    5.3016   -0.6889    1.3593 O   0  0  0  0  0  0  0  0  0  0  0  0
    4.1586   -0.7020    0.6319 C   0  0  0  0  0  0  0  0  0  0  0  0
    3.1600   -1.6080    1.0097 C   0  0  0  0  0  0  0  0  0  0  0  0
    1.9603   -1.6991    0.3377 C   0  0  0  0  0  0  0  0  0  0  0  0
    0.7302   -2.8317    0.9114 Cl  0  0  0  0  0  0  0  0  0  0  0  0
    1.6864   -0.9085   -0.7346 C   0  0  0  0  0  0  0  0  0  0  0  0
    0.4845   -0.9761   -1.5302 C   0  0  0  0  0  0  0  0  0  0  0  0
    0.2097    0.0788   -2.2153 O   0  0  0  0  0  0  0  0  0  0  0  0
   -0.4259   -2.0189   -1.6725 N   0  0  0  0  0  0  0  0  0  0  0  0
   -1.6307   -2.0128   -2.4846 C   0  0  0  0  0  0  0  0  0  0  0  0
   -2.6914   -1.2763   -1.7462 C   0  0  0  0  0  0  0  0  0  0  0  0
   -2.9246    0.0413   -2.0018 C   0  0  0  0  0  0  0  0  0  0  0  0
   -3.9057    0.6972   -1.2913 C   0  0  0  0  0  0  0  0  0  0  0  0
   -4.6629    0.0771   -0.3320 C   0  0  0  0  0  0  0  0  0  0  0  0
   -5.6816    0.8459    0.3670 C   0  0  0  0  0  0  0  0  0  0  0  0
   -6.3883    1.8810   -0.2054 C   0  0  0  0  0  0  0  0  0  0  0  0
   -7.3550    2.5884    0.4934 C   0  0  0  0  0  0  0  0  0  0  0  0
   -7.6417    2.2855    1.7725 N   0  0  0  0  0  0  0  0  0  0  0  0
   -6.9555    1.2769    2.3368 C   0  0  0  0  0  0  0  0  0  0  0  0
   -7.2277    0.9909    3.5481 O   0  0  0  0  0  0  0  0  0  0  0  0
   -5.9835    0.5402    1.6870 C   0  0  0  0  0  0  0  0  0  0  0  0
   -4.4159   -1.2461   -0.0884 C   0  0  0  0  0  0  0  0  0  0  0  0
   -3.4484   -1.9485   -0.7683 C   0  0  0  0  0  0  0  0  0  0  0  0
    2.6806    0.0139   -1.1316 C   0  0  0  0  0  0  0  0  0  0  0  0
    2.3552    1.0509   -2.5201 Cl  0  0  0  0  0  0  0  0  0  0  0  0
    3.8575    0.0830   -0.4476 C   0  0  0  0  0  0  0  0  0  0  0  0
    7.6835    2.2422   -0.7590 H   0  0  0  0  0  0  0  0  0  0  0  0
    7.8049    2.2962    1.0251 H   0  0  0  0  0  0  0  0  0  0  0  0
    9.2741    2.4261    0.0543 H   0  0  0  0  0  0  0  0  0  0  0  0
    7.6422   -1.2959    0.0326 H   0  0  0  0  0  0  0  0  0  0  0  0
    6.7172   -0.0564   -0.8759 H   0  0  0  0  0  0  0  0  0  0  0  0
    6.2996    1.1170    1.3888 H   0  0  0  0  0  0  0  0  0  0  0  0
    7.0966   -0.2611    2.1769 H   0  0  0  0  0  0  0  0  0  0  0  0
    3.3203   -2.2633    1.8522 H   0  0  0  0  0  0  0  0  0  0  0  0
   -0.2480   -2.9183   -1.1798 H   0  0  0  0  0  0  0  0  0  0  0  0
   -1.9644   -3.0344   -2.7514 H   0  0  0  0  0  0  0  0  0  0  0  0
   -1.4504   -1.4891   -3.4632 H   0  0  0  0  0  0  0  0  0  0  0  0
   -2.3547    0.5945   -2.7714 H   0  0  0  0  0  0  0  0  0  0  0  0
   -4.0730    1.7389   -1.5083 H   0  0  0  0  0  0  0  0  0  0  0  0
   -6.1481    2.1118   -1.2302 H   0  0  0  0  0  0  0  0  0  0  0  0
   -7.8977    3.4004    0.0172 H   0  0  0  0  0  0  0  0  0  0  0  0
   -8.3701    2.8082    2.3176 H   0  0  0  0  0  0  0  0  0  0  0  0
   -5.4450   -0.2720    2.1724 H   0  0  0  0  0  0  0  0  0  0  0  0
   -4.9989   -1.7581    0.6628 H   0  0  0  0  0  0  0  0  0  0  0  0
   -3.2101   -2.9787   -0.6216 H   0  0  0  0  0  0  0  0  0  0  0  0
    4.6010    0.8113   -0.7619 H   0  0  0  0  0  0  0  0  0  0  0  0
  1  2  1  0
  2  3  1  0
  3  4  1  0
  4  5  1  0
  5  6  1  0
  6  7  2  0
  7  8  1  0
  8  9  1  0
  8 10  2  0
 10 11  1  0
 11 12  2  0
 11 13  1  0
 13 14  1  0
 14 15  1  0
 15 16  2  0
 16 17  1  0
 17 18  2  0
 18 19  1  0
 19 20  1  0
 20 21  2  0
 21 22  1  0
 22 23  1  0
 23 24  2  0
 23 25  1  0
 18 26  1  0
 26 27  2  0
 10 28  1  0
 28 29  1  0
 28 30  2  0
 30  6  1  0
 27 15  1  0
 25 19  2  0
  1 31  1  0
  1 32  1  0
  1 33  1  0
  3 34  1  0
  3 35  1  0
  4 36  1  0
  4 37  1  0
  7 38  1  0
 13 39  1  0
 14 40  1  0
 14 41  1  0
 16 42  1  0
 17 43  1  0
 20 44  1  0
 21 45  1  0
 22 46  1  0
 25 47  1  0
 26 48  1  0
 27 49  1  0
 30 50  1  0
M  END
$$$$
