
     RDKit          3D

 41 44  0  0  0  0  0  0  0  0999 V2000
   -5.0507    0.3213    0.4869 C   0  0  0  0  0  0  0  0  0  0  0  0
   -3.7412    0.3399   -0.2682 C   0  0  0  0  0  0  0  0  0  0  0  0
   -3.7996    1.5000   -1.2345 C   0  0  0  0  0  0  0  0  0  0  0  0
   -3.7021   -0.8765   -0.9907 O   0  0  0  0  0  0  0  0  0  0  0  0
   -2.6445    0.4324    0.6884 C   0  0  0  0  0  0  0  0  0  0  0  0
   -2.8747    0.4883    2.0412 C   0  0  0  0  0  0  0  0  0  0  0  0
   -1.8570    0.5751    2.9491 N   0  0  0  0  0  0  0  0  0  0  0  0
   -0.5971    0.6056    2.4821 C   0  0  0  0  0  0  0  0  0  0  0  0
   -0.2769    0.5541    1.1424 C   0  0  0  0  0  0  0  0  0  0  0  0
    1.0979    0.5896    0.6789 C   0  0  0  0  0  0  0  0  0  0  0  0
    1.9503    1.5824    0.9370 N   0  0  0  0  0  0  0  0  0  0  0  0
    3.1185    1.3016    0.3683 C   0  0  0  0  0  0  0  0  0  0  0  0
    4.3111    2.0036    0.3430 C   0  0  0  0  0  0  0  0  0  0  0  0
    5.3777    1.4617   -0.3371 C   0  0  0  0  0  0  0  0  0  0  0  0
    6.5370    2.1461   -0.3605 F   0  0  0  0  0  0  0  0  0  0  0  0
    5.2484    0.2456   -0.9750 C   0  0  0  0  0  0  0  0  0  0  0  0
    6.2835   -0.3163   -1.6553 F   0  0  0  0  0  0  0  0  0  0  0  0
    4.0421   -0.4481   -0.9402 C   0  0  0  0  0  0  0  0  0  0  0  0
    2.9559    0.0708   -0.2662 C   0  0  0  0  0  0  0  0  0  0  0  0
    1.6972   -0.3848   -0.0795 N   0  0  0  0  0  0  0  0  0  0  0  0
    1.1078   -1.5824   -0.5480 C   0  0  0  0  0  0  0  0  0  0  0  0
    1.7501   -2.9432   -0.3670 C   0  0  0  0  0  0  0  0  0  0  0  0
    1.3251   -2.3410   -1.7278 C   0  0  0  0  0  0  0  0  0  0  0  0
   -1.3318    0.4669    0.2589 C   0  0  0  0  0  0  0  0  0  0  0  0
   -5.2119    1.2285    1.1030 H   0  0  0  0  0  0  0  0  0  0  0  0
   -5.1225   -0.5530    1.1893 H   0  0  0  0  0  0  0  0  0  0  0  0
   -5.9204    0.2674   -0.2264 H   0  0  0  0  0  0  0  0  0  0  0  0
   -3.0155    2.2475   -1.0709 H   0  0  0  0  0  0  0  0  0  0  0  0
   -3.6487    1.1052   -2.2827 H   0  0  0  0  0  0  0  0  0  0  0  0
   -4.7733    2.0325   -1.2018 H   0  0  0  0  0  0  0  0  0  0  0  0
   -3.1551   -1.5514   -0.5271 H   0  0  0  0  0  0  0  0  0  0  0  0
   -3.8964    0.4646    2.4401 H   0  0  0  0  0  0  0  0  0  0  0  0
    0.1872    0.6759    3.2523 H   0  0  0  0  0  0  0  0  0  0  0  0
    4.3707    2.9426    0.8497 H   0  0  0  0  0  0  0  0  0  0  0  0
    3.9198   -1.3907   -1.4276 H   0  0  0  0  0  0  0  0  0  0  0  0
    0.0224   -1.6649   -0.1676 H   0  0  0  0  0  0  0  0  0  0  0  0
    2.7842   -2.8990   -0.0461 H   0  0  0  0  0  0  0  0  0  0  0  0
    1.1529   -3.8269   -0.0550 H   0  0  0  0  0  0  0  0  0  0  0  0
    2.1302   -2.4252   -2.4462 H   0  0  0  0  0  0  0  0  0  0  0  0
    0.4299   -2.8666   -2.2085 H   0  0  0  0  0  0  0  0  0  0  0  0
   -1.1804    0.4209   -0.8219 H   0  0  0  0  0  0  0  0  0  0  0  0
  1  2  1  0
  2  3  1  0
  2  4  1  0
  2  5  1  0
  5  6  2  0
  6  7  1  0
  7  8  2  0
  8  9  1  0
  9 10  1  0
 10 11  2  0
 11 12  1  0
 12 13  2  0
 13 14  1  0
 14 15  1  0
 14 16  2  0
 16 17  1  0
 16 18  1  0
 18 19  2  0
 19 20  1  0
 20 21  1  0
 21 22  1  0
 22 23  1  0
  9 24  2  0
 24  5  1  0
 20 10  1  0
 23 21  1  0
 19 12  1  0
  1 25  1  0
  1 26  1  0
  1 27  1  0
  3 28  1  0
  3 29  1  0
  3 30  1  0
  4 31  1  0
  6 32  1  0
  8 33  1  0
 13 34  1  0
 18 35  1  0
 21 36  1  0
 22 37  1  0
 22 38  1  0
 23 39  1  0
 23 40  1  0
 24 41  1  0
M  END
$$$$
