
     RDKit          3D

 42 44  0  0  0  0  0  0  0  0999 V2000
    4.9658   -1.1087   -0.5022 O   0  0  0  0  0  0  0  0  0  0  0  0
    5.5993   -0.1423   -0.0355 C   0  0  0  0  0  0  0  0  0  0  0  0
    4.9932    0.8099    0.9011 C   0  0  0  0  0  0  0  0  0  0  0  0
    3.5438    0.5318    1.0847 C   0  0  0  0  0  0  0  0  0  0  0  0
    2.7740    0.6877   -0.1915 C   0  0  0  0  0  0  0  0  0  0  0  0
    1.3091    0.3790    0.1706 C   0  0  0  0  0  0  0  0  0  0  0  0
    0.5044    0.5316   -1.1153 C   0  0  0  0  0  0  0  0  0  0  0  0
   -0.8607    0.2486   -0.7998 N   0  0  0  0  0  0  0  0  0  0  0  0
   -1.4049   -1.0601   -0.8833 C   0  0  0  0  0  0  0  0  0  0  0  0
   -0.6970   -2.0414   -1.2444 O   0  0  0  0  0  0  0  0  0  0  0  0
   -2.8080   -1.2891   -0.5482 C   0  0  0  0  0  0  0  0  0  0  0  0
   -3.3574   -2.5694   -0.6253 C   0  0  0  0  0  0  0  0  0  0  0  0
   -4.6714   -2.8486   -0.3227 C   0  0  0  0  0  0  0  0  0  0  0  0
   -5.4817   -1.8063    0.0764 C   0  0  0  0  0  0  0  0  0  0  0  0
   -4.9739   -0.5336    0.1633 C   0  0  0  0  0  0  0  0  0  0  0  0
   -5.8132    0.4776    0.5647 C   0  0  0  0  0  0  0  0  0  0  0  0
   -5.3070    1.7564    0.6531 C   0  0  0  0  0  0  0  0  0  0  0  0
   -3.9898    2.0133    0.3458 C   0  0  0  0  0  0  0  0  0  0  0  0
   -3.1198    1.0061   -0.0631 C   0  0  0  0  0  0  0  0  0  0  0  0
   -3.6598   -0.2694   -0.1419 C   0  0  0  0  0  0  0  0  0  0  0  0
   -1.7241    1.2962   -0.3856 C   0  0  0  0  0  0  0  0  0  0  0  0
   -1.3065    2.4934   -0.2878 O   0  0  0  0  0  0  0  0  0  0  0  0
    6.9588   -0.0096   -0.4643 N   0  0  0  0  0  0  0  0  0  0  0  0
    7.5509   -0.8593   -1.3199 O   0  0  0  0  0  0  0  0  0  0  0  0
    5.4580    0.7302    1.9341 H   0  0  0  0  0  0  0  0  0  0  0  0
    5.1768    1.8716    0.6152 H   0  0  0  0  0  0  0  0  0  0  0  0
    3.0998    1.1685    1.8997 H   0  0  0  0  0  0  0  0  0  0  0  0
    3.3713   -0.5180    1.4435 H   0  0  0  0  0  0  0  0  0  0  0  0
    3.0557   -0.0468   -0.9467 H   0  0  0  0  0  0  0  0  0  0  0  0
    2.8435    1.7295   -0.6016 H   0  0  0  0  0  0  0  0  0  0  0  0
    1.2914   -0.6885    0.4389 H   0  0  0  0  0  0  0  0  0  0  0  0
    0.9347    1.0503    0.9503 H   0  0  0  0  0  0  0  0  0  0  0  0
    0.5619    1.5715   -1.4963 H   0  0  0  0  0  0  0  0  0  0  0  0
    0.8632   -0.1566   -1.8792 H   0  0  0  0  0  0  0  0  0  0  0  0
   -2.6632   -3.3609   -0.9494 H   0  0  0  0  0  0  0  0  0  0  0  0
   -5.0333   -3.8634   -0.4035 H   0  0  0  0  0  0  0  0  0  0  0  0
   -6.5118   -2.0511    0.3090 H   0  0  0  0  0  0  0  0  0  0  0  0
   -6.8695    0.2883    0.8141 H   0  0  0  0  0  0  0  0  0  0  0  0
   -5.9673    2.5704    0.9722 H   0  0  0  0  0  0  0  0  0  0  0  0
   -3.5656    3.0126    0.4072 H   0  0  0  0  0  0  0  0  0  0  0  0
    7.4867    0.8005   -0.0718 H   0  0  0  0  0  0  0  0  0  0  0  0
    7.4433   -1.8017   -1.0133 H   0  0  0  0  0  0  0  0  0  0  0  0
  1  2  2  0
  2  3  1  0
  3  4  1  0
  4  5  1  0
  5  6  1  0
  6  7  1  0
  7  8  1  0
  8  9  1  0
  9 10  2  0
  9 11  1  0
 11 12  1  0
 12 13  2  0
 13 14  1  0
 14 15  2  0
 15 16  1  0
 16 17  2  0
 17 18  1  0
 18 19  2  0
 19 20  1  0
 19 21  1  0
 21 22  2  0
  2 23  1  0
 23 24  1  0
 21  8  1  0
 20 11  2  0
 20 15  1  0
  3 25  1  0
  3 26  1  0
  4 27  1  0
  4 28  1  0
  5 29  1  0
  5 30  1  0
  6 31  1  0
  6 32  1  0
  7 33  1  0
  7 34  1  0
 12 35  1  0
 13 36  1  0
 14 37  1  0
 16 38  1  0
 17 39  1  0
 18 40  1  0
 23 41  1  0
 24 42  1  0
M  END
$$$$
