
     RDKit          3D

 47 49  0  0  0  0  0  0  0  0999 V2000
   -7.6402    1.9114   -0.5144 C   0  0  0  0  0  0  0  0  0  0  0  0
   -7.7201    0.5342   -0.3117 O   0  0  0  0  0  0  0  0  0  0  0  0
   -6.6324   -0.3106   -0.1480 C   0  0  0  0  0  0  0  0  0  0  0  0
   -5.3246    0.1288   -0.1683 C   0  0  0  0  0  0  0  0  0  0  0  0
   -4.2498   -0.7059   -0.0065 C   0  0  0  0  0  0  0  0  0  0  0  0
   -2.8668   -0.2584   -0.0254 C   0  0  0  0  0  0  0  0  0  0  0  0
   -2.4856    0.9820   -0.1972 C   0  0  0  0  0  0  0  0  0  0  0  0
   -1.0698    1.4042   -0.2111 C   0  0  0  0  0  0  0  0  0  0  0  0
    0.0348    0.6013   -0.0531 C   0  0  0  0  0  0  0  0  0  0  0  0
    1.1145    1.4430   -0.1413 C   0  0  0  0  0  0  0  0  0  0  0  0
    2.5234    1.0484   -0.0336 C   0  0  0  0  0  0  0  0  0  0  0  0
    2.8469   -0.2072    0.1649 C   0  0  0  0  0  0  0  0  0  0  0  0
    4.2101   -0.6993    0.2855 C   0  0  0  0  0  0  0  0  0  0  0  0
    4.4298   -2.0674    0.4971 C   0  0  0  0  0  0  0  0  0  0  0  0
    5.6898   -2.6081    0.6214 C   0  0  0  0  0  0  0  0  0  0  0  0
    6.7629   -1.7576    0.5318 C   0  0  0  0  0  0  0  0  0  0  0  0
    8.0566   -2.2980    0.6572 O   0  0  0  0  0  0  0  0  0  0  0  0
    6.6028   -0.4114    0.3255 C   0  0  0  0  0  0  0  0  0  0  0  0
    7.6726    0.4270    0.2375 O   0  0  0  0  0  0  0  0  0  0  0  0
    7.5056    1.7954    0.0277 C   0  0  0  0  0  0  0  0  0  0  0  0
    5.3258    0.0932    0.2060 C   0  0  0  0  0  0  0  0  0  0  0  0
    0.6649    2.6856   -0.3422 N   0  0  0  0  0  0  0  0  0  0  0  0
   -0.6345    2.6515   -0.3821 N   0  0  0  0  0  0  0  0  0  0  0  0
   -4.5060   -2.0442    0.1843 C   0  0  0  0  0  0  0  0  0  0  0  0
   -5.8141   -2.5397    0.2129 C   0  0  0  0  0  0  0  0  0  0  0  0
   -6.8775   -1.6475    0.0430 C   0  0  0  0  0  0  0  0  0  0  0  0
   -8.1693   -2.1831    0.0781 O   0  0  0  0  0  0  0  0  0  0  0  0
   -6.9495    2.0979   -1.3665 H   0  0  0  0  0  0  0  0  0  0  0  0
   -8.6436    2.2676   -0.8235 H   0  0  0  0  0  0  0  0  0  0  0  0
   -7.2439    2.4676    0.3577 H   0  0  0  0  0  0  0  0  0  0  0  0
   -5.1733    1.1722   -0.3187 H   0  0  0  0  0  0  0  0  0  0  0  0
   -2.0647   -0.9851    0.1108 H   0  0  0  0  0  0  0  0  0  0  0  0
   -3.2266    1.7443   -0.3366 H   0  0  0  0  0  0  0  0  0  0  0  0
    0.0075   -0.4709    0.1059 H   0  0  0  0  0  0  0  0  0  0  0  0
    3.3009    1.7844   -0.1164 H   0  0  0  0  0  0  0  0  0  0  0  0
    2.0150   -0.9129    0.2413 H   0  0  0  0  0  0  0  0  0  0  0  0
    3.5704   -2.6985    0.5615 H   0  0  0  0  0  0  0  0  0  0  0  0
    5.8674   -3.6592    0.7843 H   0  0  0  0  0  0  0  0  0  0  0  0
    8.7252   -1.9320    1.3015 H   0  0  0  0  0  0  0  0  0  0  0  0
    7.0928    2.3497    0.8807 H   0  0  0  0  0  0  0  0  0  0  0  0
    6.8263    1.9645   -0.8532 H   0  0  0  0  0  0  0  0  0  0  0  0
    8.5052    2.2171   -0.2565 H   0  0  0  0  0  0  0  0  0  0  0  0
    5.1764    1.1631    0.0413 H   0  0  0  0  0  0  0  0  0  0  0  0
    1.3036    3.5372   -0.4471 H   0  0  0  0  0  0  0  0  0  0  0  0
   -3.6836   -2.7238    0.3141 H   0  0  0  0  0  0  0  0  0  0  0  0
   -6.0239   -3.5920    0.3626 H   0  0  0  0  0  0  0  0  0  0  0  0
   -8.8314   -1.7590   -0.5764 H   0  0  0  0  0  0  0  0  0  0  0  0
  1  2  1  0
  2  3  1  0
  3  4  2  0
  4  5  1  0
  5  6  1  0
  6  7  2  0
  7  8  1  0
  8  9  1  0
  9 10  2  0
 10 11  1  0
 11 12  2  0
 12 13  1  0
 13 14  2  0
 14 15  1  0
 15 16  2  0
 16 17  1  0
 16 18  1  0
 18 19  1  0
 19 20  1  0
 18 21  2  0
 10 22  1  0
 22 23  1  0
  5 24  2  0
 24 25  1  0
 25 26  2  0
 26 27  1  0
 26  3  1  0
 23  8  2  0
 21 13  1  0
  1 28  1  0
  1 29  1  0
  1 30  1  0
  4 31  1  0
  6 32  1  0
  7 33  1  0
  9 34  1  0
 11 35  1  0
 12 36  1  0
 14 37  1  0
 15 38  1  0
 17 39  1  0
 20 40  1  0
 20 41  1  0
 20 42  1  0
 21 43  1  0
 22 44  1  0
 24 45  1  0
 25 46  1  0
 27 47  1  0
M  END
$$$$
