
     RDKit          3D

 72 77  0  0  0  0  0  0  0  0999 V2000
   -3.0510    7.7099    0.8627 C   0  0  0  0  0  0  0  0  0  0  0  0
   -2.4048    6.4787    1.0575 O   0  0  0  0  0  0  0  0  0  0  0  0
   -2.1505    5.6001    0.0306 C   0  0  0  0  0  0  0  0  0  0  0  0
   -1.5161    4.4040    0.2533 C   0  0  0  0  0  0  0  0  0  0  0  0
   -1.2659    3.5300   -0.7864 C   0  0  0  0  0  0  0  0  0  0  0  0
   -0.6122    2.2838   -0.6127 N   0  0  0  0  0  0  0  0  0  0  0  0
    0.8007    2.0586   -0.6908 C   0  0  0  0  0  0  0  0  0  0  0  0
    1.6165    2.9826   -1.0222 O   0  0  0  0  0  0  0  0  0  0  0  0
    1.1323    0.7172   -0.3599 N   0  0  0  0  0  0  0  0  0  0  0  0
    2.4313    0.1351   -0.3175 C   0  0  0  0  0  0  0  0  0  0  0  0
    3.5762    0.8552   -0.5836 C   0  0  0  0  0  0  0  0  0  0  0  0
    4.8565    0.2761   -0.5342 C   0  0  0  0  0  0  0  0  0  0  0  0
    4.9869   -1.0478   -0.2119 C   0  0  0  0  0  0  0  0  0  0  0  0
    6.2724   -1.7141   -0.1315 C   0  0  0  0  0  0  0  0  0  0  0  0
    6.3084   -3.0657    0.2141 C   0  0  0  0  0  0  0  0  0  0  0  0
    7.4689   -3.7919    0.3234 C   0  0  0  0  0  0  0  0  0  0  0  0
    8.6557   -3.1429    0.0767 C   0  0  0  0  0  0  0  0  0  0  0  0
    9.8928   -3.8811    0.1830 C   0  0  0  0  0  0  0  0  0  0  0  0
    9.8895   -5.0921    0.4915 O   0  0  0  0  0  0  0  0  0  0  0  0
   11.0957   -3.2478   -0.0566 O   0  0  0  0  0  0  0  0  0  0  0  0
    8.6607   -1.7972   -0.2701 C   0  0  0  0  0  0  0  0  0  0  0  0
    7.4564   -1.0942   -0.3705 C   0  0  0  0  0  0  0  0  0  0  0  0
    3.8722   -1.7481    0.0468 N   0  0  0  0  0  0  0  0  0  0  0  0
    2.6196   -1.1891    0.0002 C   0  0  0  0  0  0  0  0  0  0  0  0
   -0.1199    0.0925   -0.0679 C   0  0  0  0  0  0  0  0  0  0  0  0
   -0.2943   -1.0779    0.3543 O   0  0  0  0  0  0  0  0  0  0  0  0
   -1.2483    1.0083   -0.3249 C   0  0  0  0  0  0  0  0  0  0  0  0
   -2.0972    0.5478   -1.4773 C   0  0  0  0  0  0  0  0  0  0  0  0
   -2.9765   -0.6127   -1.1518 C   0  0  0  0  0  0  0  0  0  0  0  0
   -3.0758   -0.9372    0.2082 N   0  0  0  0  0  0  0  0  0  0  0  0
   -3.2360   -2.2931    0.5794 C   0  0  0  0  0  0  0  0  0  0  0  0
   -4.5015   -2.8211    0.0511 C   0  0  0  0  0  0  0  0  0  0  0  0
   -4.4965   -3.6064   -1.0612 N   0  0  0  0  0  0  0  0  0  0  0  0
   -5.6347   -4.1016   -1.5753 C   0  0  0  0  0  0  0  0  0  0  0  0
   -6.8566   -3.8358   -0.9985 C   0  0  0  0  0  0  0  0  0  0  0  0
   -6.9021   -3.0550    0.1141 C   0  0  0  0  0  0  0  0  0  0  0  0
   -5.6994   -2.5417    0.6434 C   0  0  0  0  0  0  0  0  0  0  0  0
   -5.7900   -1.6965    1.8584 C   0  0  0  0  0  0  0  0  0  0  0  0
   -2.9514    0.0472    1.1943 C   0  0  0  0  0  0  0  0  0  0  0  0
   -2.0198    1.1718    0.9403 C   0  0  0  0  0  0  0  0  0  0  0  0
   -1.6765    3.9209   -2.0027 N   0  0  0  0  0  0  0  0  0  0  0  0
   -2.2948    5.0790   -2.2398 C   0  0  0  0  0  0  0  0  0  0  0  0
   -2.5302    5.9189   -1.2133 N   0  0  0  0  0  0  0  0  0  0  0  0
   -3.7141    7.5968   -0.0068 H   0  0  0  0  0  0  0  0  0  0  0  0
   -3.6150    7.9374    1.7973 H   0  0  0  0  0  0  0  0  0  0  0  0
   -2.2605    8.4667    0.6521 H   0  0  0  0  0  0  0  0  0  0  0  0
   -1.1847    4.0962    1.2542 H   0  0  0  0  0  0  0  0  0  0  0  0
    3.5348    1.8826   -0.8375 H   0  0  0  0  0  0  0  0  0  0  0  0
    5.7292    0.8648   -0.7473 H   0  0  0  0  0  0  0  0  0  0  0  0
    5.3655   -3.5726    0.4076 H   0  0  0  0  0  0  0  0  0  0  0  0
    7.4744   -4.8462    0.5954 H   0  0  0  0  0  0  0  0  0  0  0  0
   11.9628   -3.7245   -0.0669 H   0  0  0  0  0  0  0  0  0  0  0  0
    9.6078   -1.3142   -0.4577 H   0  0  0  0  0  0  0  0  0  0  0  0
    7.4787   -0.0508   -0.6414 H   0  0  0  0  0  0  0  0  0  0  0  0
    1.7630   -1.8093    0.2164 H   0  0  0  0  0  0  0  0  0  0  0  0
   -2.7636    1.4236   -1.7317 H   0  0  0  0  0  0  0  0  0  0  0  0
   -1.4932    0.3939   -2.3842 H   0  0  0  0  0  0  0  0  0  0  0  0
   -2.5399   -1.5003   -1.6879 H   0  0  0  0  0  0  0  0  0  0  0  0
   -3.9804   -0.4555   -1.6207 H   0  0  0  0  0  0  0  0  0  0  0  0
   -3.1665   -2.3961    1.6930 H   0  0  0  0  0  0  0  0  0  0  0  0
   -2.3789   -2.9424    0.2190 H   0  0  0  0  0  0  0  0  0  0  0  0
   -5.6156   -4.7207   -2.4558 H   0  0  0  0  0  0  0  0  0  0  0  0
   -7.7989   -4.2355   -1.4088 H   0  0  0  0  0  0  0  0  0  0  0  0
   -7.8525   -2.8219    0.6014 H   0  0  0  0  0  0  0  0  0  0  0  0
   -6.5680   -2.1488    2.5389 H   0  0  0  0  0  0  0  0  0  0  0  0
   -6.0580   -0.6431    1.6275 H   0  0  0  0  0  0  0  0  0  0  0  0
   -4.8663   -1.7056    2.4556 H   0  0  0  0  0  0  0  0  0  0  0  0
   -2.7745   -0.4270    2.2095 H   0  0  0  0  0  0  0  0  0  0  0  0
   -3.9858    0.5009    1.3387 H   0  0  0  0  0  0  0  0  0  0  0  0
   -2.5807    2.1346    0.9611 H   0  0  0  0  0  0  0  0  0  0  0  0
   -1.2889    1.2161    1.7839 H   0  0  0  0  0  0  0  0  0  0  0  0
   -2.6208    5.3741   -3.2448 H   0  0  0  0  0  0  0  0  0  0  0  0
  1  2  1  0
  2  3  1  0
  3  4  2  0
  4  5  1  0
  5  6  1  0
  6  7  1  0
  7  8  2  0
  7  9  1  0
  9 10  1  0
 10 11  2  0
 11 12  1  0
 12 13  2  0
 13 14  1  0
 14 15  2  0
 15 16  1  0
 16 17  2  0
 17 18  1  0
 18 19  2  0
 18 20  1  0
 17 21  1  0
 21 22  2  0
 13 23  1  0
 23 24  2  0
  9 25  1  0
 25 26  2  0
 25 27  1  0
 27 28  1  0
 28 29  1  0
 29 30  1  0
 30 31  1  0
 31 32  1  0
 32 33  2  0
 33 34  1  0
 34 35  2  0
 35 36  1  0
 36 37  2  0
 37 38  1  0
 30 39  1  0
 39 40  1  0
  5 41  2  0
 41 42  1  0
 42 43  2  0
 43  3  1  0
 27  6  1  0
 37 32  1  0
 24 10  1  0
 40 27  1  0
 22 14  1  0
  1 44  1  0
  1 45  1  0
  1 46  1  0
  4 47  1  0
 11 48  1  0
 12 49  1  0
 15 50  1  0
 16 51  1  0
 20 52  1  0
 21 53  1  0
 22 54  1  0
 24 55  1  0
 28 56  1  0
 28 57  1  0
 29 58  1  0
 29 59  1  0
 31 60  1  0
 31 61  1  0
 34 62  1  0
 35 63  1  0
 36 64  1  0
 38 65  1  0
 38 66  1  0
 38 67  1  0
 39 68  1  0
 39 69  1  0
 40 70  1  0
 40 71  1  0
 42 72  1  0
M  END
$$$$
