
     RDKit          3D

 38 39  0  0  0  0  0  0  0  0999 V2000
    6.0870    0.7324    0.5099 N   0  0  0  0  0  0  0  0  0  0  0  0
    4.8757    0.1180    0.0647 C   0  0  0  0  0  0  0  0  0  0  0  0
    4.9901   -0.8831   -0.7097 O   0  0  0  0  0  0  0  0  0  0  0  0
    3.6034    0.6492    0.5042 C   0  0  0  0  0  0  0  0  0  0  0  0
    3.5157    1.7290    1.3388 C   0  0  0  0  0  0  0  0  0  0  0  0
    2.2421    2.1333    1.6804 C   0  0  0  0  0  0  0  0  0  0  0  0
    1.1011    1.4881    1.2098 C   0  0  0  0  0  0  0  0  0  0  0  0
    1.2274    0.4123    0.3775 N   0  0  0  0  0  4  0  0  0  0  0  0
    2.4625    0.0417    0.0627 C   0  0  0  0  0  0  0  0  0  0  0  0
   -0.0237   -0.1388   -0.0178 C   0  0  2  0  0  0  0  0  0  0  0  0
   -0.7396   -0.7032    1.0381 O   0  0  0  0  0  0  0  0  0  0  0  0
   -1.6662   -1.5632    0.5125 C   0  0  1  0  0  0  0  0  0  0  0  0
   -3.0526   -0.9567    0.4228 C   0  0  0  0  0  0  0  0  0  0  0  0
   -2.9837    0.1646   -0.3929 O   0  0  0  0  0  0  0  0  0  0  0  0
   -4.5025    0.8918   -0.5357 P   0  0  0  0  0  0  0  0  0  0  0  0
   -5.5296    0.1883    0.6027 O   0  0  0  0  0  0  0  0  0  0  0  0
   -4.3101    2.5489   -0.2654 O   0  0  0  0  0  0  0  0  0  0  0  0
   -5.0343    0.6267   -1.9334 O   0  0  0  0  0  0  0  0  0  0  0  0
   -1.2606   -1.9370   -0.8802 C   0  0  2  0  0  0  0  0  0  0  0  0
   -0.9767   -3.3159   -0.9030 O   0  0  0  0  0  0  0  0  0  0  0  0
   -0.0031   -1.1275   -1.1255 C   0  0  1  0  0  0  0  0  0  0  0  0
   -0.1025   -0.5005   -2.3838 O   0  0  0  0  0  0  0  0  0  0  0  0
    6.5883    0.0170    1.1154 H   0  0  0  0  0  0  0  0  0  0  0  0
    6.6568    1.5982    0.4687 H   0  0  0  0  0  0  0  0  0  0  0  0
    4.3959    2.2391    1.7113 H   0  0  0  0  0  0  0  0  0  0  0  0
    2.1399    2.9890    2.3425 H   0  0  0  0  0  0  0  0  0  0  0  0
    0.1578    1.8939    1.5449 H   0  0  0  0  0  0  0  0  0  0  0  0
    2.5148   -0.8144   -0.5985 H   0  0  0  0  0  0  0  0  0  0  0  0
   -0.6743    0.7143   -0.3692 H   0  0  0  0  0  0  0  0  0  0  0  0
   -1.7388   -2.4421    1.1701 H   0  0  0  0  0  0  0  0  0  0  0  0
   -3.4051   -0.6964    1.4532 H   0  0  0  0  0  0  0  0  0  0  0  0
   -3.7525   -1.6646   -0.0444 H   0  0  0  0  0  0  0  0  0  0  0  0
   -5.6935   -0.7423    0.2953 H   0  0  0  0  0  0  0  0  0  0  0  0
   -5.1637    3.0368   -0.2510 H   0  0  0  0  0  0  0  0  0  0  0  0
   -2.0253   -1.7061   -1.6436 H   0  0  0  0  0  0  0  0  0  0  0  0
   -0.0961   -3.5205   -1.3054 H   0  0  0  0  0  0  0  0  0  0  0  0
    0.8321   -1.8146   -1.1725 H   0  0  0  0  0  0  0  0  0  0  0  0
   -0.6558    0.3147   -2.2336 H   0  0  0  0  0  0  0  0  0  0  0  0
  1  2  1  0
  2  3  2  0
  2  4  1  0
  4  5  2  0
  5  6  1  0
  6  7  2  0
  7  8  1  0
  8  9  2  0
  8 10  1  0
 10 11  1  0
 11 12  1  0
 12 13  1  0
 13 14  1  0
 14 15  1  0
 15 16  1  0
 15 17  1  0
 15 18  2  0
 12 19  1  0
 19 20  1  0
 19 21  1  0
 21 22  1  0
  9  4  1  0
 21 10  1  0
  1 23  1  0
  1 24  1  0
  5 25  1  0
  6 26  1  0
  7 27  1  0
  9 28  1  0
 10 29  1  6
 12 30  1  1
 13 31  1  0
 13 32  1  0
 16 33  1  0
 17 34  1  0
 19 35  1  6
 20 36  1  0
 21 37  1  6
 22 38  1  0
M  CHG  1   8   1
M  END
$$$$
