
     RDKit          3D

 25 25  0  0  0  0  0  0  0  0999 V2000
   -2.5105   -1.3967   -0.3548 C   0  0  0  0  0  0  0  0  0  0  0  0
   -1.3163   -0.5567   -0.4017 N   0  0  0  0  0  0  0  0  0  0  0  0
   -1.5719    0.5310    0.5449 C   0  0  0  0  0  0  0  0  0  0  0  0
   -2.6544    1.3718    0.0020 C   0  0  0  0  0  0  0  0  0  0  0  0
   -3.5664    2.0618   -0.4349 C   0  0  0  0  0  0  0  0  0  0  0  0
   -0.1326   -1.3030   -0.0521 C   0  0  0  0  0  0  0  0  0  0  0  0
    1.1077   -0.4913   -0.0705 C   0  0  0  0  0  0  0  0  0  0  0  0
    1.8265   -0.4049   -1.2685 C   0  0  0  0  0  0  0  0  0  0  0  0
    2.9898    0.3358   -1.3519 C   0  0  0  0  0  0  0  0  0  0  0  0
    3.4814    1.0216   -0.2348 C   0  0  0  0  0  0  0  0  0  0  0  0
    2.7827    0.9418    0.9449 C   0  0  0  0  0  0  0  0  0  0  0  0
    1.6236    0.1982    1.0099 C   0  0  0  0  0  0  0  0  0  0  0  0
   -2.1856   -2.4104   -0.0633 H   0  0  0  0  0  0  0  0  0  0  0  0
   -2.9753   -1.4924   -1.3620 H   0  0  0  0  0  0  0  0  0  0  0  0
   -3.2504   -1.0547    0.3952 H   0  0  0  0  0  0  0  0  0  0  0  0
   -1.9366    0.1081    1.5022 H   0  0  0  0  0  0  0  0  0  0  0  0
   -0.6967    1.1655    0.7140 H   0  0  0  0  0  0  0  0  0  0  0  0
   -4.3611    2.6467   -0.8258 H   0  0  0  0  0  0  0  0  0  0  0  0
   -0.2412   -1.8217    0.9299 H   0  0  0  0  0  0  0  0  0  0  0  0
   -0.0405   -2.1189   -0.8122 H   0  0  0  0  0  0  0  0  0  0  0  0
    1.5076   -0.9130   -2.1783 H   0  0  0  0  0  0  0  0  0  0  0  0
    3.5457    0.3974   -2.2935 H   0  0  0  0  0  0  0  0  0  0  0  0
    4.4007    1.6032   -0.3048 H   0  0  0  0  0  0  0  0  0  0  0  0
    3.1009    1.4440    1.8509 H   0  0  0  0  0  0  0  0  0  0  0  0
    1.0729    0.1368    1.9531 H   0  0  0  0  0  0  0  0  0  0  0  0
  1  2  1  0
  2  3  1  0
  3  4  1  0
  4  5  3  0
  2  6  1  0
  6  7  1  0
  7  8  2  0
  8  9  1  0
  9 10  2  0
 10 11  1  0
 11 12  2  0
 12  7  1  0
  1 13  1  0
  1 14  1  0
  1 15  1  0
  3 16  1  0
  3 17  1  0
  5 18  1  0
  6 19  1  0
  6 20  1  0
  8 21  1  0
  9 22  1  0
 10 23  1  0
 11 24  1  0
 12 25  1  0
M  END
$$$$
