
     RDKit          3D

 60 64  0  0  0  0  0  0  0  0999 V2000
   -2.3534    4.3122   -1.0153 C   0  0  0  0  0  0  0  0  0  0  0  0
   -2.5942    3.1090   -0.1960 C   0  0  0  0  0  0  0  0  0  0  0  0
   -2.8493    3.2498    1.1457 C   0  0  0  0  0  0  0  0  0  0  0  0
   -3.0802    2.1298    1.9415 C   0  0  0  0  0  0  0  0  0  0  0  0
   -3.0436    0.8682    1.3319 C   0  0  0  0  0  0  0  0  0  0  0  0
   -3.2787   -0.3124    2.0986 N   0  0  0  0  0  0  0  0  0  0  0  0
   -2.8253   -0.6472    3.2936 N   0  0  0  0  0  0  0  0  0  0  0  0
   -3.2893   -1.8608    3.6649 C   0  0  0  0  0  0  0  0  0  0  0  0
   -4.0764   -2.2825    2.6180 C   0  0  0  0  0  0  0  0  0  0  0  0
   -4.0426   -1.3189    1.6942 N   0  0  0  0  0  0  0  0  0  0  0  0
   -2.7895    0.7100   -0.0097 C   0  0  0  0  0  0  0  0  0  0  0  0
   -2.7860   -0.6200   -0.5941 C   0  0  0  0  0  0  0  0  0  0  0  0
   -3.9786   -0.9526   -1.0364 O   0  0  0  0  0  0  0  0  0  0  0  0
   -1.7429   -1.5172   -0.7305 N   0  0  0  0  0  0  0  0  0  0  0  0
   -2.0186   -2.8031   -1.3727 C   0  0  0  0  0  0  0  0  0  0  0  0
   -0.7575   -3.0453   -2.2197 C   0  0  1  0  0  0  0  0  0  0  0  0
   -1.2365   -3.7285   -3.4865 C   0  0  0  0  0  0  0  0  0  0  0  0
   -0.1716   -1.8495   -2.6046 O   0  0  0  0  0  0  0  0  0  0  0  0
    0.4045   -1.1226   -1.5935 C   0  0  0  0  0  0  0  0  0  0  0  0
   -0.4099   -1.3438   -0.3152 C   0  0  1  0  0  0  0  0  0  0  0  0
   -0.0849   -0.3485    0.7318 C   0  0  0  0  0  0  0  0  0  0  0  0
    1.4074   -0.4347    0.9469 C   0  0  0  0  0  0  0  0  0  0  0  0
    2.2741    0.5139    0.4413 C   0  0  0  0  0  0  0  0  0  0  0  0
    3.6406    0.4316    0.6378 C   0  0  0  0  0  0  0  0  0  0  0  0
    4.5581    1.4318    0.1034 C   0  0  0  0  0  0  0  0  0  0  0  0
    5.8747    1.2805    0.3389 N   0  0  0  0  0  0  0  0  0  0  0  0
    6.8129    2.1163   -0.0904 C   0  0  0  0  0  0  0  0  0  0  0  0
    6.4340    3.2220   -0.8303 C   0  0  0  0  0  0  0  0  0  0  0  0
    5.0809    3.3617   -1.0623 C   0  0  0  0  0  0  0  0  0  0  0  0
    4.1635    2.4864   -0.6058 N   0  0  0  0  0  0  0  0  0  0  0  0
    4.0963   -0.6466    1.3651 C   0  0  0  0  0  0  0  0  0  0  0  0
    3.2241   -1.6047    1.8762 C   0  0  0  0  0  0  0  0  0  0  0  0
    1.8627   -1.5125    1.6740 C   0  0  0  0  0  0  0  0  0  0  0  0
    0.9946   -2.4410    2.1671 F   0  0  0  0  0  0  0  0  0  0  0  0
   -2.5623    1.8604   -0.7768 C   0  0  0  0  0  0  0  0  0  0  0  0
   -3.3013    4.7816   -1.3620 H   0  0  0  0  0  0  0  0  0  0  0  0
   -1.7763    4.0916   -1.9408 H   0  0  0  0  0  0  0  0  0  0  0  0
   -1.7772    5.0885   -0.4740 H   0  0  0  0  0  0  0  0  0  0  0  0
   -2.8872    4.2020    1.6585 H   0  0  0  0  0  0  0  0  0  0  0  0
   -3.2827    2.2167    2.9982 H   0  0  0  0  0  0  0  0  0  0  0  0
   -3.0896   -2.4041    4.5960 H   0  0  0  0  0  0  0  0  0  0  0  0
   -4.5977   -3.2233    2.6024 H   0  0  0  0  0  0  0  0  0  0  0  0
   -2.9231   -2.7771   -1.9778 H   0  0  0  0  0  0  0  0  0  0  0  0
   -2.0841   -3.6186   -0.6454 H   0  0  0  0  0  0  0  0  0  0  0  0
   -0.0572   -3.7256   -1.7134 H   0  0  0  0  0  0  0  0  0  0  0  0
   -0.7255   -3.3317   -4.3889 H   0  0  0  0  0  0  0  0  0  0  0  0
   -1.0509   -4.8212   -3.4593 H   0  0  0  0  0  0  0  0  0  0  0  0
   -2.3288   -3.5274   -3.6605 H   0  0  0  0  0  0  0  0  0  0  0  0
    0.3041   -0.0442   -1.8357 H   0  0  0  0  0  0  0  0  0  0  0  0
    1.4696   -1.3250   -1.4333 H   0  0  0  0  0  0  0  0  0  0  0  0
    0.0335   -2.3331    0.0705 H   0  0  0  0  0  0  0  0  0  0  0  0
   -0.5393   -0.6637    1.6877 H   0  0  0  0  0  0  0  0  0  0  0  0
   -0.3311    0.7080    0.4690 H   0  0  0  0  0  0  0  0  0  0  0  0
    1.8774    1.3606   -0.1338 H   0  0  0  0  0  0  0  0  0  0  0  0
    7.8561    1.9563    0.1216 H   0  0  0  0  0  0  0  0  0  0  0  0
    7.1662    3.9328   -1.2025 H   0  0  0  0  0  0  0  0  0  0  0  0
    4.7642    4.2187   -1.6381 H   0  0  0  0  0  0  0  0  0  0  0  0
    5.1726   -0.7193    1.5246 H   0  0  0  0  0  0  0  0  0  0  0  0
    3.6150   -2.4388    2.4429 H   0  0  0  0  0  0  0  0  0  0  0  0
   -2.3637    1.7051   -1.8370 H   0  0  0  0  0  0  0  0  0  0  0  0
  1  2  1  0
  2  3  2  0
  3  4  1  0
  4  5  2  0
  5  6  1  0
  6  7  1  0
  7  8  2  0
  8  9  1  0
  9 10  2  0
  5 11  1  0
 11 12  1  0
 12 13  2  0
 12 14  1  0
 14 15  1  0
 15 16  1  0
 16 17  1  0
 16 18  1  0
 18 19  1  0
 19 20  1  0
 20 21  1  0
 21 22  1  0
 22 23  2  0
 23 24  1  0
 24 25  1  0
 25 26  2  0
 26 27  1  0
 27 28  2  0
 28 29  1  0
 29 30  2  0
 24 31  2  0
 31 32  1  0
 32 33  2  0
 33 34  1  0
 11 35  2  0
 35  2  1  0
 10  6  1  0
 20 14  1  0
 33 22  1  0
 30 25  1  0
  1 36  1  0
  1 37  1  0
  1 38  1  0
  3 39  1  0
  4 40  1  0
  8 41  1  0
  9 42  1  0
 15 43  1  0
 15 44  1  0
 16 45  1  1
 17 46  1  0
 17 47  1  0
 17 48  1  0
 19 49  1  0
 19 50  1  0
 20 51  1  1
 21 52  1  0
 21 53  1  0
 23 54  1  0
 27 55  1  0
 28 56  1  0
 29 57  1  0
 31 58  1  0
 32 59  1  0
 35 60  1  0
M  END
$$$$
