
     RDKit          3D

 51 53  0  0  0  0  0  0  0  0999 V2000
    7.0161    0.9228   -0.0570 C   0  0  1  0  0  0  0  0  0  0  0  0
    7.9545    1.3812    1.0284 C   0  0  0  0  0  0  0  0  0  0  0  0
    7.8516    0.1254   -1.0510 C   0  0  0  0  0  0  0  0  0  0  0  0
    7.0627   -0.3030   -2.1166 O   0  0  0  0  0  0  0  0  0  0  0  0
    5.9847    0.0563    0.4100 N   0  0  0  0  0  0  0  0  0  0  0  0
    4.6320    0.3104    0.2044 C   0  0  0  0  0  0  0  0  0  0  0  0
    4.3643    1.3650   -0.4271 O   0  0  0  0  0  0  0  0  0  0  0  0
    3.4555   -0.4975    0.6309 C   0  0  0  0  0  0  0  0  0  0  0  0
    3.1324   -1.6826    1.3149 C   0  0  0  0  0  0  0  0  0  0  0  0
    4.3070   -2.4462    1.8131 C   0  0  0  0  0  0  0  0  0  0  0  0
    1.8478   -1.9332    1.4091 N   0  0  0  0  0  0  0  0  0  0  0  0
    0.9521   -1.3057    1.0027 C   0  0  0  0  0  0  0  0  0  0  0  0
    1.8344    0.1426    0.1871 S   0  0  0  0  0  0  0  0  0  0  0  0
   -0.5421   -1.4031    0.9981 C   0  0  0  0  0  0  0  0  0  0  0  0
   -1.2522   -0.4556    0.4113 N   0  0  0  0  0  0  0  0  0  0  0  0
   -2.5879   -0.4274    0.3394 C   0  0  0  0  0  0  0  0  0  0  0  0
   -3.2594    0.6377   -0.3150 N   0  0  0  0  0  0  0  0  0  0  0  0
   -4.6369    0.8323   -0.4865 C   0  0  0  0  0  0  0  0  0  0  0  0
   -5.1188    1.9454   -1.1612 C   0  0  0  0  0  0  0  0  0  0  0  0
   -6.4351    2.2035   -1.3675 C   0  0  0  0  0  0  0  0  0  0  0  0
   -6.8718    3.4159   -2.0987 C   0  0  0  0  0  0  0  0  0  0  0  0
   -7.3870    1.3400   -0.8988 C   0  0  0  0  0  0  0  0  0  0  0  0
   -6.9894    0.2138   -0.2200 C   0  0  0  0  0  0  0  0  0  0  0  0
   -8.0102   -0.7211    0.2878 C   0  0  0  0  0  0  0  0  0  0  0  0
   -5.6494    0.0098   -0.0445 C   0  0  0  0  0  0  0  0  0  0  0  0
   -3.1897   -1.4699    0.9278 N   0  0  0  0  0  0  0  0  0  0  0  0
   -2.5521   -2.4727    1.5442 C   0  0  0  0  0  0  0  0  0  0  0  0
   -1.1773   -2.4636    1.5958 C   0  0  0  0  0  0  0  0  0  0  0  0
    6.6398    1.8138   -0.5965 H   0  0  0  0  0  0  0  0  0  0  0  0
    8.9327    1.5872    0.5460 H   0  0  0  0  0  0  0  0  0  0  0  0
    7.6457    2.3474    1.4773 H   0  0  0  0  0  0  0  0  0  0  0  0
    8.1153    0.5861    1.7718 H   0  0  0  0  0  0  0  0  0  0  0  0
    8.2285   -0.7949   -0.5302 H   0  0  0  0  0  0  0  0  0  0  0  0
    8.7179    0.7057   -1.4291 H   0  0  0  0  0  0  0  0  0  0  0  0
    7.2052   -1.2676   -2.2998 H   0  0  0  0  0  0  0  0  0  0  0  0
    6.1988   -0.8065    0.9264 H   0  0  0  0  0  0  0  0  0  0  0  0
    3.9911   -3.3633    2.3588 H   0  0  0  0  0  0  0  0  0  0  0  0
    4.9504   -2.8226    0.9900 H   0  0  0  0  0  0  0  0  0  0  0  0
    4.8678   -1.8592    2.5839 H   0  0  0  0  0  0  0  0  0  0  0  0
   -2.6355    1.3823   -0.7273 H   0  0  0  0  0  0  0  0  0  0  0  0
   -4.4169    2.6690   -1.5578 H   0  0  0  0  0  0  0  0  0  0  0  0
   -6.3932    4.3338   -1.6935 H   0  0  0  0  0  0  0  0  0  0  0  0
   -6.6245    3.3831   -3.1729 H   0  0  0  0  0  0  0  0  0  0  0  0
   -7.9666    3.5588   -2.0193 H   0  0  0  0  0  0  0  0  0  0  0  0
   -8.4299    1.5509   -1.0660 H   0  0  0  0  0  0  0  0  0  0  0  0
   -8.5397   -1.2232   -0.5650 H   0  0  0  0  0  0  0  0  0  0  0  0
   -7.5363   -1.5316    0.8536 H   0  0  0  0  0  0  0  0  0  0  0  0
   -8.7290   -0.1959    0.9482 H   0  0  0  0  0  0  0  0  0  0  0  0
   -5.3960   -0.8867    0.4933 H   0  0  0  0  0  0  0  0  0  0  0  0
   -3.0409   -3.3099    2.0165 H   0  0  0  0  0  0  0  0  0  0  0  0
   -0.5203   -3.1772    2.0428 H   0  0  0  0  0  0  0  0  0  0  0  0
  1  2  1  0
  1  3  1  0
  3  4  1  0
  1  5  1  0
  5  6  1  0
  6  7  2  0
  6  8  1  0
  8  9  2  0
  9 10  1  0
  9 11  1  0
 11 12  2  0
 12 13  1  0
 12 14  1  0
 14 15  2  0
 15 16  1  0
 16 17  1  0
 17 18  1  0
 18 19  2  0
 19 20  1  0
 20 21  1  0
 20 22  2  0
 22 23  1  0
 23 24  1  0
 23 25  2  0
 16 26  2  0
 26 27  1  0
 27 28  2  0
 13  8  1  0
 28 14  1  0
 25 18  1  0
  1 29  1  6
  2 30  1  0
  2 31  1  0
  2 32  1  0
  3 33  1  0
  3 34  1  0
  4 35  1  0
  5 36  1  0
 10 37  1  0
 10 38  1  0
 10 39  1  0
 17 40  1  0
 19 41  1  0
 21 42  1  0
 21 43  1  0
 21 44  1  0
 22 45  1  0
 24 46  1  0
 24 47  1  0
 24 48  1  0
 25 49  1  0
 27 50  1  0
 28 51  1  0
M  END
$$$$
