
     RDKit          3D

 43 46  0  0  0  0  0  0  0  0999 V2000
   -6.5371    4.7593   -4.2654 N   0  0  0  0  0  0  0  0  0  0  0  0
   -5.9878    3.8893   -3.6975 C   0  0  0  0  0  0  0  0  0  0  0  0
   -5.3065    2.8451   -2.9903 C   0  0  0  0  0  0  0  0  0  0  0  0
   -5.9578    1.7373   -2.4922 C   0  0  0  0  0  0  0  0  0  0  0  0
   -5.2558    0.7470   -1.8018 C   0  0  0  0  0  0  0  0  0  0  0  0
   -3.8940    0.8440   -1.5968 C   0  0  0  0  0  0  0  0  0  0  0  0
   -3.1353   -0.1833   -0.8650 C   0  0  0  0  0  0  0  0  0  0  0  0
   -3.7720   -1.1535   -0.4352 O   0  0  0  0  0  0  0  0  0  0  0  0
   -1.7612   -0.0634   -0.6667 N   0  0  0  0  0  0  0  0  0  0  0  0
   -0.9148   -0.9501    0.0085 C   0  0  0  0  0  0  0  0  0  0  0  0
   -1.3631   -2.1047    0.5925 C   0  0  0  0  0  0  0  0  0  0  0  0
   -0.4622   -2.9275    1.2558 C   0  0  0  0  0  0  0  0  0  0  0  0
    0.8946   -2.5974    1.3380 C   0  0  0  0  0  0  0  0  0  0  0  0
    1.8912   -3.7374    2.1925 Cl  0  0  0  0  0  0  0  0  0  0  0  0
    1.3545   -1.4445    0.7578 C   0  0  0  0  0  0  0  0  0  0  0  0
    2.8079   -1.0627    0.8568 C   0  0  1  0  0  0  0  0  0  0  0  0
    3.5667   -2.1092    0.0262 C   0  0  0  0  0  0  0  0  0  0  0  0
    3.1336   -2.0834   -1.2846 F   0  0  0  0  0  0  0  0  0  0  0  0
    2.9967    0.1724    0.1388 N   0  0  0  0  0  0  0  0  0  0  0  0
    3.4010    1.2633    0.6185 C   0  0  0  0  0  0  0  0  0  0  0  0
    3.5577    2.4480   -0.1821 N   0  0  0  0  0  0  0  0  0  0  0  0
    3.7119    1.3442    1.9635 O   0  0  0  0  0  0  0  0  0  0  0  0
    3.7371    0.2615    2.8118 C   0  0  2  0  0  0  0  0  0  0  0  0
    4.6924   -0.9022    2.6138 C   0  0  0  0  0  0  0  0  0  0  0  0
    3.2473   -1.0182    2.2725 C   0  0  2  0  0  0  0  0  0  0  0  0
    0.4548   -0.6591    0.1159 C   0  0  0  0  0  0  0  0  0  0  0  0
   -3.2799    1.9342   -2.0929 N   0  0  0  0  0  0  0  0  0  0  0  0
   -3.9412    2.8998   -2.7612 C   0  0  0  0  0  0  0  0  0  0  0  0
   -7.0219    1.6676   -2.6563 H   0  0  0  0  0  0  0  0  0  0  0  0
   -5.7695   -0.1284   -1.4082 H   0  0  0  0  0  0  0  0  0  0  0  0
   -1.3147    0.8103   -1.0810 H   0  0  0  0  0  0  0  0  0  0  0  0
   -2.4176   -2.4282    0.5671 H   0  0  0  0  0  0  0  0  0  0  0  0
   -0.8399   -3.8287    1.7067 H   0  0  0  0  0  0  0  0  0  0  0  0
    3.4635   -3.1265    0.3984 H   0  0  0  0  0  0  0  0  0  0  0  0
    4.6440   -1.8275   -0.0168 H   0  0  0  0  0  0  0  0  0  0  0  0
    3.4085    3.3755    0.2565 H   0  0  0  0  0  0  0  0  0  0  0  0
    3.8163    2.4254   -1.1887 H   0  0  0  0  0  0  0  0  0  0  0  0
    3.5594    0.5230    3.8858 H   0  0  0  0  0  0  0  0  0  0  0  0
    5.0926   -1.4103    3.4952 H   0  0  0  0  0  0  0  0  0  0  0  0
    5.4563   -0.6646    1.8422 H   0  0  0  0  0  0  0  0  0  0  0  0
    2.6331   -1.5831    3.0238 H   0  0  0  0  0  0  0  0  0  0  0  0
    0.8295    0.2652   -0.3492 H   0  0  0  0  0  0  0  0  0  0  0  0
   -3.4187    3.7814   -3.1574 H   0  0  0  0  0  0  0  0  0  0  0  0
  1  2  3  0
  2  3  1  0
  3  4  2  0
  4  5  1  0
  5  6  2  0
  6  7  1  0
  7  8  2  0
  7  9  1  0
  9 10  1  0
 10 11  2  0
 11 12  1  0
 12 13  2  0
 13 14  1  0
 13 15  1  0
 15 16  1  0
 16 17  1  6
 17 18  1  0
 16 19  1  0
 19 20  2  0
 20 21  1  0
 20 22  1  0
 22 23  1  0
 23 24  1  0
 24 25  1  0
 15 26  2  0
  6 27  1  0
 27 28  2  0
 28  3  1  0
 26 10  1  0
 25 16  1  0
 25 23  1  0
  4 29  1  0
  5 30  1  0
  9 31  1  0
 11 32  1  0
 12 33  1  0
 17 34  1  0
 17 35  1  0
 21 36  1  0
 21 37  1  0
 23 38  1  1
 24 39  1  0
 24 40  1  0
 25 41  1  1
 26 42  1  0
 28 43  1  0
M  END
$$$$
