
     RDKit          3D

 25 26  0  0  0  0  0  0  0  0999 V2000
    4.9766    0.6862    0.4931 N   0  0  0  0  0  0  0  0  0  0  0  0
    3.8445    0.7882   -0.3718 C   0  0  0  0  0  0  0  0  0  0  0  0
    3.8415    1.6241   -1.3106 O   0  0  0  0  0  0  0  0  0  0  0  0
    2.6837   -0.0691   -0.1824 C   0  0  0  0  0  0  0  0  0  0  0  0
    1.5652   -0.0402   -0.9909 C   0  0  0  0  0  0  0  0  0  0  0  0
    0.7044   -0.9596   -0.5247 N   0  0  0  0  0  0  0  0  0  0  0  0
   -0.5903   -1.3956   -0.9372 C   0  0  0  0  0  0  0  0  0  0  0  0
   -1.6796   -0.6193   -0.2992 C   0  0  0  0  0  0  0  0  0  0  0  0
   -1.9213    0.6626   -0.8028 C   0  0  0  0  0  0  0  0  0  0  0  0
   -1.2413    1.2505   -1.8156 F   0  0  0  0  0  0  0  0  0  0  0  0
   -2.9155    1.4771   -0.2910 C   0  0  0  0  0  0  0  0  0  0  0  0
   -3.7217    1.0398    0.7598 C   0  0  0  0  0  0  0  0  0  0  0  0
   -3.4851   -0.2226    1.2567 C   0  0  0  0  0  0  0  0  0  0  0  0
   -2.4849   -1.0591    0.7521 C   0  0  0  0  0  0  0  0  0  0  0  0
   -2.2397   -2.2988    1.2256 F   0  0  0  0  0  0  0  0  0  0  0  0
    1.2863   -1.5084    0.5139 N   0  0  0  0  0  0  0  0  0  0  0  0
    2.4800   -1.0075    0.7612 N   0  0  0  0  0  0  0  0  0  0  0  0
    5.0486   -0.1584    1.1363 H   0  0  0  0  0  0  0  0  0  0  0  0
    5.7155    1.4181    0.4973 H   0  0  0  0  0  0  0  0  0  0  0  0
    1.3695    0.5719   -1.8361 H   0  0  0  0  0  0  0  0  0  0  0  0
   -0.7568   -2.4805   -0.7448 H   0  0  0  0  0  0  0  0  0  0  0  0
   -0.7310   -1.2495   -2.0519 H   0  0  0  0  0  0  0  0  0  0  0  0
   -3.1431    2.4723   -0.6444 H   0  0  0  0  0  0  0  0  0  0  0  0
   -4.5053    1.6590    1.1752 H   0  0  0  0  0  0  0  0  0  0  0  0
   -4.1002   -0.5812    2.0701 H   0  0  0  0  0  0  0  0  0  0  0  0
  1  2  1  0
  2  3  2  0
  2  4  1  0
  4  5  2  0
  5  6  1  0
  6  7  1  0
  7  8  1  0
  8  9  2  0
  9 10  1  0
  9 11  1  0
 11 12  2  0
 12 13  1  0
 13 14  2  0
 14 15  1  0
  6 16  1  0
 16 17  2  0
 17  4  1  0
 14  8  1  0
  1 18  1  0
  1 19  1  0
  5 20  1  0
  7 21  1  0
  7 22  1  0
 11 23  1  0
 12 24  1  0
 13 25  1  0
M  END
$$$$
