
     RDKit          3D

 22 23  0  0  0  0  0  0  0  0999 V2000
   -3.6040    0.0125    1.1496 O   0  0  0  0  0  0  0  0  0  0  0  0
   -3.1528   -0.5681   -0.0285 C   0  0  0  0  0  0  0  0  0  0  0  0
   -4.1370   -0.9755   -0.7424 O   0  0  0  0  0  0  0  0  0  0  0  0
   -1.8215   -0.8031   -0.6076 C   0  0  0  0  0  0  0  0  0  0  0  0
   -0.7792    0.1632   -0.1539 C   0  0  0  0  0  0  0  0  0  0  0  0
   -0.8735    1.4539    0.3198 C   0  0  0  0  0  0  0  0  0  0  0  0
    0.3739    1.9233    0.6127 N   0  0  0  0  0  0  0  0  0  0  0  0
    1.2417    0.9172    0.3170 C   0  0  0  0  0  0  0  0  0  0  0  0
    2.6229    0.9140    0.4376 C   0  0  0  0  0  0  0  0  0  0  0  0
    3.3467   -0.2238    0.0726 C   0  0  0  0  0  0  0  0  0  0  0  0
    2.6385   -1.3285   -0.4069 C   0  0  0  0  0  0  0  0  0  0  0  0
    1.2422   -1.3250   -0.5296 C   0  0  0  0  0  0  0  0  0  0  0  0
    0.5663   -0.1774   -0.1557 C   0  0  0  0  0  0  0  0  0  0  0  0
   -4.4322    0.6273    1.0564 H   0  0  0  0  0  0  0  0  0  0  0  0
   -1.9302   -0.6770   -1.7305 H   0  0  0  0  0  0  0  0  0  0  0  0
   -1.5260   -1.8413   -0.3630 H   0  0  0  0  0  0  0  0  0  0  0  0
   -1.8041    1.9906    0.4290 H   0  0  0  0  0  0  0  0  0  0  0  0
    0.6221    2.8653    0.9897 H   0  0  0  0  0  0  0  0  0  0  0  0
    3.1489    1.7800    0.8128 H   0  0  0  0  0  0  0  0  0  0  0  0
    4.4211   -0.2954    0.1353 H   0  0  0  0  0  0  0  0  0  0  0  0
    3.1414   -2.2600   -0.7154 H   0  0  0  0  0  0  0  0  0  0  0  0
    0.6948   -2.1724   -0.8990 H   0  0  0  0  0  0  0  0  0  0  0  0
  1  2  1  0
  2  3  2  0
  2  4  1  0
  4  5  1  0
  5  6  2  0
  6  7  1  0
  7  8  1  0
  8  9  2  0
  9 10  1  0
 10 11  2  0
 11 12  1  0
 12 13  2  0
 13  5  1  0
 13  8  1  0
  1 14  1  0
  4 15  1  0
  4 16  1  0
  6 17  1  0
  7 18  1  0
  9 19  1  0
 10 20  1  0
 11 21  1  0
 12 22  1  0
M  END
$$$$
