
     RDKit          3D

 45 45  0  0  0  0  0  0  0  0999 V2000
   -1.9685   -0.0396    1.8947 N   0  0  0  0  0  0  0  0  0  0  0  0
   -0.9314   -0.8524    1.3447 C   0  0  1  0  0  0  0  0  0  0  0  0
   -1.1940   -1.4083   -0.0147 C   0  0  0  0  0  0  0  0  0  0  0  0
   -1.4213   -0.4016   -1.0905 C   0  0  0  0  0  0  0  0  0  0  0  0
   -2.5822    0.5144   -0.8799 C   0  0  0  0  0  0  0  0  0  0  0  0
   -3.8423   -0.1691   -0.7721 N   0  0  0  0  0  0  0  0  0  0  0  0
   -5.0690    0.5227   -0.5695 C   0  0  0  0  0  0  0  0  0  0  0  0
   -5.1344    1.7763   -0.7658 N   0  0  0  0  0  0  0  0  0  0  0  0
   -6.2438   -0.1585   -0.1468 N   0  0  0  0  0  0  0  0  0  0  0  0
   -7.3140    0.4819    0.4857 N   0  0  0  0  0  4  0  0  0  0  0  0
   -8.4554    0.4523   -0.2831 O   0  0  0  0  0  1  0  0  0  0  0  0
   -7.4105    1.0481    1.5730 O   0  0  0  0  0  0  0  0  0  0  0  0
    0.2888    0.0004    1.2595 C   0  0  0  0  0  0  0  0  0  0  0  0
    0.4357    1.2152    1.5945 O   0  0  0  0  0  0  0  0  0  0  0  0
    1.4800   -0.5770    0.7387 N   0  0  0  0  0  0  0  0  0  0  0  0
    2.7768    0.0261    0.5540 C   0  0  1  0  0  0  0  0  0  0  0  0
    3.7946   -0.7375    1.3797 C   0  0  0  0  0  0  0  0  0  0  0  0
    5.0415   -0.2588    0.7718 N   0  0  0  0  0  0  0  0  0  0  0  0
    4.7840   -0.3584   -0.6510 C   0  0  1  0  0  0  0  0  0  0  0  0
    3.3100   -0.1710   -0.8439 C   0  0  0  0  0  0  0  0  0  0  0  0
    5.5503    0.6998   -1.3616 C   0  0  0  0  0  0  0  0  0  0  0  0
    6.4222    1.6974   -0.8319 N   0  0  0  0  0  0  0  0  0  0  0  0
    5.3862    0.6886   -2.6069 O   0  0  0  0  0  0  0  0  0  0  0  0
   -2.7404   -0.5575    2.3684 H   0  0  0  0  0  0  0  0  0  0  0  0
   -1.6316    0.6838    2.5416 H   0  0  0  0  0  0  0  0  0  0  0  0
   -0.6685   -1.7107    2.0004 H   0  0  0  0  0  0  0  0  0  0  0  0
   -2.0039   -2.1952   -0.0035 H   0  0  0  0  0  0  0  0  0  0  0  0
   -0.2837   -1.9836   -0.3027 H   0  0  0  0  0  0  0  0  0  0  0  0
   -1.5805   -0.9681   -2.0341 H   0  0  0  0  0  0  0  0  0  0  0  0
   -0.5049    0.1830   -1.2158 H   0  0  0  0  0  0  0  0  0  0  0  0
   -2.6433    1.1441   -1.8162 H   0  0  0  0  0  0  0  0  0  0  0  0
   -2.3561    1.2239   -0.0812 H   0  0  0  0  0  0  0  0  0  0  0  0
   -3.8969   -1.2187   -0.8408 H   0  0  0  0  0  0  0  0  0  0  0  0
   -4.3570    2.3909   -1.0734 H   0  0  0  0  0  0  0  0  0  0  0  0
   -6.3108   -1.1966   -0.3190 H   0  0  0  0  0  0  0  0  0  0  0  0
    1.5810   -1.5551    0.4061 H   0  0  0  0  0  0  0  0  0  0  0  0
    2.7888    1.0890    0.8800 H   0  0  0  0  0  0  0  0  0  0  0  0
    3.7457   -0.4670    2.4488 H   0  0  0  0  0  0  0  0  0  0  0  0
    3.6503   -1.8040    1.1920 H   0  0  0  0  0  0  0  0  0  0  0  0
    5.0842    0.7661    0.9879 H   0  0  0  0  0  0  0  0  0  0  0  0
    5.0626   -1.3775   -1.0047 H   0  0  0  0  0  0  0  0  0  0  0  0
    2.8340   -1.1116   -1.2235 H   0  0  0  0  0  0  0  0  0  0  0  0
    3.0601    0.6936   -1.4903 H   0  0  0  0  0  0  0  0  0  0  0  0
    6.3527    2.6957   -1.1070 H   0  0  0  0  0  0  0  0  0  0  0  0
    7.1150    1.2847   -0.1506 H   0  0  0  0  0  0  0  0  0  0  0  0
  1  2  1  0
  2  3  1  0
  3  4  1  0
  4  5  1  0
  5  6  1  0
  6  7  1  0
  7  8  2  3
  7  9  1  0
  9 10  1  0
 10 11  1  0
 10 12  2  0
  2 13  1  0
 13 14  2  0
 13 15  1  0
 15 16  1  0
 16 17  1  0
 17 18  1  0
 18 19  1  0
 19 20  1  0
 19 21  1  0
 21 22  1  0
 21 23  2  0
 20 16  1  0
  1 24  1  0
  1 25  1  0
  2 26  1  1
  3 27  1  0
  3 28  1  0
  4 29  1  0
  4 30  1  0
  5 31  1  0
  5 32  1  0
  6 33  1  0
  8 34  1  0
  9 35  1  0
 15 36  1  0
 16 37  1  1
 17 38  1  0
 17 39  1  0
 18 40  1  0
 19 41  1  6
 20 42  1  0
 20 43  1  0
 22 44  1  0
 22 45  1  0
M  CHG  2  10   1  11  -1
M  END
$$$$
