
     RDKit          3D

 59 63  0  0  0  0  0  0  0  0999 V2000
   -0.8829   -1.9298   -3.8538 F   0  0  0  0  0  0  0  0  0  0  0  0
   -0.0441   -1.2938   -3.0053 C   0  0  0  0  0  0  0  0  0  0  0  0
    0.9458   -0.5108   -3.5372 C   0  0  0  0  0  0  0  0  0  0  0  0
    1.8531    0.1800   -2.7152 C   0  0  0  0  0  0  0  0  0  0  0  0
    2.8378    0.9487   -3.2339 O   0  0  0  0  0  0  0  0  0  0  0  0
    2.9281    2.2499   -3.6369 C   0  0  0  0  0  0  0  0  0  0  0  0
    4.2138    2.5511   -4.0959 F   0  0  0  0  0  0  0  0  0  0  0  0
    2.1157    2.3911   -4.7692 F   0  0  0  0  0  0  0  0  0  0  0  0
    2.5266    3.3259   -2.6931 C   0  0  0  0  0  0  0  0  0  0  0  0
    2.7343    4.5443   -3.3719 F   0  0  0  0  0  0  0  0  0  0  0  0
    3.2593    3.4097   -1.5431 F   0  0  0  0  0  0  0  0  0  0  0  0
    1.6852    0.0223   -1.3558 C   0  0  0  0  0  0  0  0  0  0  0  0
    0.7089   -0.7530   -0.7696 C   0  0  0  0  0  0  0  0  0  0  0  0
    0.6228   -0.9249    0.6677 C   0  0  1  0  0  0  0  0  0  0  0  0
    1.2899   -2.2015    1.1500 C   0  0  0  0  0  0  0  0  0  0  0  0
    0.6739   -3.4000    0.5290 C   0  0  0  0  0  0  0  0  0  0  0  0
   -0.3922   -4.0870    1.0704 C   0  0  0  0  0  0  0  0  0  0  0  0
   -0.9302   -5.2020    0.4540 C   0  0  0  0  0  0  0  0  0  0  0  0
   -0.4333   -5.6818   -0.7243 C   0  0  0  0  0  0  0  0  0  0  0  0
    0.6340   -5.0201   -1.2961 C   0  0  0  0  0  0  0  0  0  0  0  0
    1.1678   -3.9106   -0.6809 C   0  0  0  0  0  0  0  0  0  0  0  0
    1.2063    0.2319    1.3404 N   0  0  0  0  0  0  0  0  0  0  0  0
    0.4489    1.4436    1.3600 C   0  0  0  0  0  0  0  0  0  0  0  0
   -0.4558    1.7804    2.3373 N   0  0  0  0  0  0  0  0  0  0  0  0
   -1.0063    2.9763    2.1099 C   0  0  0  0  0  0  0  0  0  0  0  0
   -1.9528    3.7143    2.8122 C   0  0  0  0  0  0  0  0  0  0  0  0
   -2.3278    4.9384    2.3180 C   0  0  0  0  0  0  0  0  0  0  0  0
   -1.7804    5.4326    1.1482 C   0  0  0  0  0  0  0  0  0  0  0  0
   -2.1494    6.6406    0.6588 F   0  0  0  0  0  0  0  0  0  0  0  0
   -0.8368    4.6614    0.4774 C   0  0  0  0  0  0  0  0  0  0  0  0
   -0.4422    3.4364    0.9452 C   0  0  0  0  0  0  0  0  0  0  0  0
    0.4356    2.4847    0.5157 N   0  0  0  0  0  0  0  0  0  0  0  0
   -0.7698   -0.9649    1.2174 C   0  0  0  0  0  0  0  0  0  0  0  0
   -0.8554   -0.9355    2.6147 C   0  0  0  0  0  0  0  0  0  0  0  0
   -2.0628   -0.9585    3.2708 C   0  0  0  0  0  0  0  0  0  0  0  0
   -3.2098   -1.0117    2.5227 C   0  0  0  0  0  0  0  0  0  0  0  0
   -4.7474   -1.0417    3.3281 Cl  0  0  0  0  0  0  0  0  0  0  0  0
   -3.0950   -1.0398    1.1344 C   0  0  0  0  0  0  0  0  0  0  0  0
   -1.8898   -1.0156    0.5383 N   0  0  0  0  0  0  0  0  0  0  0  0
   -0.1660   -1.4181   -1.6132 C   0  0  0  0  0  0  0  0  0  0  0  0
    1.0856   -0.3801   -4.6003 H   0  0  0  0  0  0  0  0  0  0  0  0
    1.4251    3.3372   -2.5000 H   0  0  0  0  0  0  0  0  0  0  0  0
    2.3610    0.5386   -0.6863 H   0  0  0  0  0  0  0  0  0  0  0  0
    2.3857   -2.1703    1.0192 H   0  0  0  0  0  0  0  0  0  0  0  0
    1.0976   -2.2663    2.2379 H   0  0  0  0  0  0  0  0  0  0  0  0
   -0.8162   -3.7448    2.0034 H   0  0  0  0  0  0  0  0  0  0  0  0
   -1.7768   -5.7185    0.9168 H   0  0  0  0  0  0  0  0  0  0  0  0
   -0.8768   -6.5521   -1.1762 H   0  0  0  0  0  0  0  0  0  0  0  0
    1.0421   -5.3923   -2.2383 H   0  0  0  0  0  0  0  0  0  0  0  0
    1.9870   -3.4184   -1.1386 H   0  0  0  0  0  0  0  0  0  0  0  0
    2.1491    0.1775    1.7943 H   0  0  0  0  0  0  0  0  0  0  0  0
   -2.4069    3.3711    3.7272 H   0  0  0  0  0  0  0  0  0  0  0  0
   -3.0724    5.5156    2.8733 H   0  0  0  0  0  0  0  0  0  0  0  0
   -0.4055    5.0344   -0.4304 H   0  0  0  0  0  0  0  0  0  0  0  0
    1.0136    2.5686   -0.3453 H   0  0  0  0  0  0  0  0  0  0  0  0
    0.0247   -0.8895    3.2347 H   0  0  0  0  0  0  0  0  0  0  0  0
   -2.0943   -0.9345    4.3664 H   0  0  0  0  0  0  0  0  0  0  0  0
   -4.0197   -1.0818    0.5797 H   0  0  0  0  0  0  0  0  0  0  0  0
   -0.9604   -2.0570   -1.2624 H   0  0  0  0  0  0  0  0  0  0  0  0
  1  2  1  0
  2  3  2  0
  3  4  1  0
  4  5  1  0
  5  6  1  0
  6  7  1  0
  6  8  1  0
  6  9  1  0
  9 10  1  0
  9 11  1  0
  4 12  2  0
 12 13  1  0
 13 14  1  0
 14 15  1  0
 15 16  1  0
 16 17  2  0
 17 18  1  0
 18 19  2  0
 19 20  1  0
 20 21  2  0
 14 22  1  1
 22 23  1  0
 23 24  2  0
 24 25  1  0
 25 26  2  0
 26 27  1  0
 27 28  2  0
 28 29  1  0
 28 30  1  0
 30 31  2  0
 31 32  1  0
 14 33  1  0
 33 34  2  0
 34 35  1  0
 35 36  2  0
 36 37  1  0
 36 38  1  0
 38 39  2  0
 13 40  2  0
 40  2  1  0
 21 16  1  0
 32 23  1  0
 39 33  1  0
 31 25  1  0
  3 41  1  0
  9 42  1  0
 12 43  1  0
 15 44  1  0
 15 45  1  0
 17 46  1  0
 18 47  1  0
 19 48  1  0
 20 49  1  0
 21 50  1  0
 22 51  1  0
 26 52  1  0
 27 53  1  0
 30 54  1  0
 32 55  1  0
 34 56  1  0
 35 57  1  0
 38 58  1  0
 40 59  1  0
M  END
$$$$
