
     RDKit          3D

 64 66  0  0  0  0  0  0  0  0999 V2000
   -0.0428   -0.6597    2.0630 C   0  0  0  0  0  0  0  0  0  0  0  0
   -0.3167   -0.1717    0.6572 C   0  0  0  0  0  0  0  0  0  0  0  0
   -0.7675   -1.3978   -0.1448 C   0  0  0  0  0  0  0  0  0  0  0  0
    1.0371    0.2584    0.1479 C   0  0  0  0  0  0  0  0  0  0  0  0
    1.1502    1.3834   -0.3842 O   0  0  0  0  0  0  0  0  0  0  0  0
    2.1658   -0.5680    0.2568 N   0  0  0  0  0  0  0  0  0  0  0  0
    3.5053   -0.2133   -0.2176 C   0  0  0  0  0  0  0  0  0  0  0  0
    3.9415   -1.2970   -1.1342 C   0  0  0  0  0  0  0  0  0  0  0  0
    5.1389   -1.0155   -1.9741 C   0  0  0  0  0  0  0  0  0  0  0  0
    6.3698   -1.5020   -1.2347 C   0  0  0  0  0  0  0  0  0  0  0  0
    7.2198   -0.3078   -0.8892 C   0  0  0  0  0  0  0  0  0  0  0  0
    7.1047    0.7294   -1.9063 C   0  0  0  0  0  0  0  0  0  0  0  0
    6.9947    1.5553   -2.7071 N   0  0  0  0  0  0  0  0  0  0  0  0
    6.8857    0.2298    0.4843 C   0  0  0  0  0  0  0  0  0  0  0  0
    5.5562    0.9346    0.5086 C   0  0  0  0  0  0  0  0  0  0  0  0
    4.4357    0.0285    0.9523 C   0  0  0  0  0  0  0  0  0  0  0  0
   -1.2636    0.8760    0.6307 N   0  0  0  0  0  0  0  0  0  0  0  0
   -1.6773    1.3988   -0.6084 C   0  0  0  0  0  0  0  0  0  0  0  0
   -3.0070    0.9303   -1.1279 C   0  0  0  0  0  0  0  0  0  0  0  0
   -3.9876    1.1142   -0.0717 N   0  0  0  0  0  0  0  0  0  0  0  0
   -5.3193    0.7293   -0.2122 C   0  0  0  0  0  0  0  0  0  0  0  0
   -5.7639    0.1553   -1.3780 C   0  0  0  0  0  0  0  0  0  0  0  0
   -7.1040   -0.2352   -1.5204 C   0  0  0  0  0  0  0  0  0  0  0  0
   -7.9512   -0.0253   -0.4629 C   0  0  0  0  0  0  0  0  0  0  0  0
   -9.4050   -0.4143   -0.5280 C   0  0  0  0  0  0  0  0  0  0  0  0
   -9.6226   -1.5702    0.2131 F   0  0  0  0  0  0  0  0  0  0  0  0
   -9.7087   -0.7189   -1.8518 F   0  0  0  0  0  0  0  0  0  0  0  0
  -10.1763    0.5863   -0.0292 F   0  0  0  0  0  0  0  0  0  0  0  0
   -7.4896    0.5517    0.6996 C   0  0  0  0  0  0  0  0  0  0  0  0
   -6.1906    0.9077    0.7825 N   0  0  0  0  0  0  0  0  0  0  0  0
   -3.4689    1.7365    1.1592 C   0  0  0  0  0  0  0  0  0  0  0  0
   -2.3246    0.8100    1.5905 C   0  0  0  0  0  0  0  0  0  0  0  0
    0.7557   -0.0848    2.5721 H   0  0  0  0  0  0  0  0  0  0  0  0
    0.3733   -1.6986    1.9607 H   0  0  0  0  0  0  0  0  0  0  0  0
   -0.9543   -0.7630    2.6775 H   0  0  0  0  0  0  0  0  0  0  0  0
   -0.2361   -2.3102    0.1302 H   0  0  0  0  0  0  0  0  0  0  0  0
   -0.7242   -1.1276   -1.2157 H   0  0  0  0  0  0  0  0  0  0  0  0
   -1.8368   -1.5407    0.1262 H   0  0  0  0  0  0  0  0  0  0  0  0
    2.0214   -1.4981    0.7139 H   0  0  0  0  0  0  0  0  0  0  0  0
    3.4282    0.7395   -0.7759 H   0  0  0  0  0  0  0  0  0  0  0  0
    4.1518   -2.2070   -0.4958 H   0  0  0  0  0  0  0  0  0  0  0  0
    3.0963   -1.6307   -1.7931 H   0  0  0  0  0  0  0  0  0  0  0  0
    5.2235    0.0028   -2.3671 H   0  0  0  0  0  0  0  0  0  0  0  0
    5.0633   -1.6709   -2.8960 H   0  0  0  0  0  0  0  0  0  0  0  0
    6.9483   -2.2606   -1.8326 H   0  0  0  0  0  0  0  0  0  0  0  0
    6.1245   -2.0294   -0.2919 H   0  0  0  0  0  0  0  0  0  0  0  0
    8.2848   -0.6643   -0.9290 H   0  0  0  0  0  0  0  0  0  0  0  0
    7.7143    0.9564    0.7434 H   0  0  0  0  0  0  0  0  0  0  0  0
    6.8981   -0.5817    1.2388 H   0  0  0  0  0  0  0  0  0  0  0  0
    5.3472    1.4250   -0.4570 H   0  0  0  0  0  0  0  0  0  0  0  0
    5.6806    1.7866    1.2418 H   0  0  0  0  0  0  0  0  0  0  0  0
    3.8383    0.6062    1.7011 H   0  0  0  0  0  0  0  0  0  0  0  0
    4.7952   -0.9224    1.3434 H   0  0  0  0  0  0  0  0  0  0  0  0
   -1.7820    2.5197   -0.4853 H   0  0  0  0  0  0  0  0  0  0  0  0
   -0.9368    1.3008   -1.4296 H   0  0  0  0  0  0  0  0  0  0  0  0
   -3.2572    1.5772   -2.0089 H   0  0  0  0  0  0  0  0  0  0  0  0
   -3.0290   -0.1350   -1.4022 H   0  0  0  0  0  0  0  0  0  0  0  0
   -5.1361   -0.0309   -2.2370 H   0  0  0  0  0  0  0  0  0  0  0  0
   -7.4595   -0.6826   -2.4273 H   0  0  0  0  0  0  0  0  0  0  0  0
   -8.1885    0.7033    1.5181 H   0  0  0  0  0  0  0  0  0  0  0  0
   -4.2451    1.7197    1.9456 H   0  0  0  0  0  0  0  0  0  0  0  0
   -3.1545    2.7673    0.9960 H   0  0  0  0  0  0  0  0  0  0  0  0
   -2.7780   -0.2115    1.6336 H   0  0  0  0  0  0  0  0  0  0  0  0
   -1.9446    1.1267    2.5841 H   0  0  0  0  0  0  0  0  0  0  0  0
  1  2  1  0
  2  3  1  0
  2  4  1  0
  4  5  2  0
  4  6  1  0
  6  7  1  0
  7  8  1  0
  8  9  1  0
  9 10  1  0
 10 11  1  0
 11 12  1  0
 12 13  3  0
 11 14  1  0
 14 15  1  0
 15 16  1  0
  2 17  1  0
 17 18  1  0
 18 19  1  0
 19 20  1  0
 20 21  1  0
 21 22  2  0
 22 23  1  0
 23 24  2  0
 24 25  1  0
 25 26  1  0
 25 27  1  0
 25 28  1  0
 24 29  1  0
 29 30  2  0
 20 31  1  0
 31 32  1  0
 16  7  1  0
 32 17  1  0
 30 21  1  0
  1 33  1  0
  1 34  1  0
  1 35  1  0
  3 36  1  0
  3 37  1  0
  3 38  1  0
  6 39  1  0
  7 40  1  0
  8 41  1  0
  8 42  1  0
  9 43  1  0
  9 44  1  0
 10 45  1  0
 10 46  1  0
 11 47  1  0
 14 48  1  0
 14 49  1  0
 15 50  1  0
 15 51  1  0
 16 52  1  0
 16 53  1  0
 18 54  1  0
 18 55  1  0
 19 56  1  0
 19 57  1  0
 22 58  1  0
 23 59  1  0
 29 60  1  0
 31 61  1  0
 31 62  1  0
 32 63  1  0
 32 64  1  0
M  END
$$$$
