
     RDKit          3D

 36 38  0  0  0  0  0  0  0  0999 V2000
   -4.4238   -1.5308    2.4806 C   0  0  0  0  0  0  0  0  0  0  0  0
   -3.3512   -1.7907    1.5758 O   0  0  0  0  0  0  0  0  0  0  0  0
   -2.8322   -0.7848    0.7735 C   0  0  0  0  0  0  0  0  0  0  0  0
   -1.7858   -1.1998   -0.0570 C   0  0  0  0  0  0  0  0  0  0  0  0
   -1.1335   -0.3301   -0.9385 C   0  0  0  0  0  0  0  0  0  0  0  0
   -0.0246   -0.8476   -1.7919 C   0  0  0  0  0  0  0  0  0  0  0  0
    1.2868   -0.4098   -1.2447 C   0  0  0  0  0  0  0  0  0  0  0  0
    2.0424    0.6926   -1.4763 N   0  0  0  0  0  0  0  0  0  0  0  0
    3.1609    0.6041   -0.7116 C   0  0  0  0  0  0  0  0  0  0  0  0
    4.2348    1.4026   -0.5459 N   0  0  0  0  0  0  0  0  0  0  0  0
    5.2364    1.0804    0.2954 C   0  0  0  0  0  0  0  0  0  0  0  0
    6.2842    1.9454    0.4012 F   0  0  0  0  0  0  0  0  0  0  0  0
    5.2011   -0.0601    1.0074 N   0  0  0  0  0  0  0  0  0  0  0  0
    4.1493   -0.8936    0.8782 C   0  0  0  0  0  0  0  0  0  0  0  0
    4.0448   -2.1167    1.5996 N   0  0  0  0  0  0  0  0  0  0  0  0
    3.1040   -0.5731    0.0102 C   0  0  0  0  0  0  0  0  0  0  0  0
    1.9430   -1.1431   -0.3575 N   0  0  0  0  0  0  0  0  0  0  0  0
   -1.5438    0.9853   -0.9839 C   0  0  0  0  0  0  0  0  0  0  0  0
   -0.9298    1.8791   -1.8379 O   0  0  0  0  0  0  0  0  0  0  0  0
   -1.3470    3.2380   -1.8906 C   0  0  0  0  0  0  0  0  0  0  0  0
   -2.5815    1.4002   -0.1612 C   0  0  0  0  0  0  0  0  0  0  0  0
   -3.2167    0.5377    0.7017 C   0  0  0  0  0  0  0  0  0  0  0  0
   -4.0804   -0.9673    3.3688 H   0  0  0  0  0  0  0  0  0  0  0  0
   -4.8324   -2.5100    2.8532 H   0  0  0  0  0  0  0  0  0  0  0  0
   -5.2375   -0.9537    1.9673 H   0  0  0  0  0  0  0  0  0  0  0  0
   -1.4226   -2.2331   -0.0579 H   0  0  0  0  0  0  0  0  0  0  0  0
   -0.1594   -0.4279   -2.8299 H   0  0  0  0  0  0  0  0  0  0  0  0
   -0.0953   -1.9309   -1.8999 H   0  0  0  0  0  0  0  0  0  0  0  0
    4.1506   -3.1539    1.4533 H   0  0  0  0  0  0  0  0  0  0  0  0
    3.7755   -1.8908    2.5901 H   0  0  0  0  0  0  0  0  0  0  0  0
    1.6783   -2.0655    0.0681 H   0  0  0  0  0  0  0  0  0  0  0  0
   -2.3050    3.3691   -2.4269 H   0  0  0  0  0  0  0  0  0  0  0  0
   -0.5775    3.8546   -2.3969 H   0  0  0  0  0  0  0  0  0  0  0  0
   -1.4367    3.6077   -0.8437 H   0  0  0  0  0  0  0  0  0  0  0  0
   -2.9467    2.4192   -0.1521 H   0  0  0  0  0  0  0  0  0  0  0  0
   -4.0286    0.7972    1.3667 H   0  0  0  0  0  0  0  0  0  0  0  0
  1  2  1  0
  2  3  1  0
  3  4  2  0
  4  5  1  0
  5  6  1  0
  6  7  1  0
  7  8  2  0
  8  9  1  0
  9 10  2  0
 10 11  1  0
 11 12  1  0
 11 13  2  0
 13 14  1  0
 14 15  1  0
 14 16  2  0
 16 17  1  0
  5 18  2  0
 18 19  1  0
 19 20  1  0
 18 21  1  0
 21 22  2  0
 22  3  1  0
 17  7  1  0
 16  9  1  0
  1 23  1  0
  1 24  1  0
  1 25  1  0
  4 26  1  0
  6 27  1  0
  6 28  1  0
 15 29  1  0
 15 30  1  0
 17 31  1  0
 20 32  1  0
 20 33  1  0
 20 34  1  0
 21 35  1  0
 22 36  1  0
M  END
$$$$
