
     RDKit          3D

 53 54  0  0  0  0  0  0  0  0999 V2000
   -0.2542   -2.0804   -0.2333 C   0  0  2  0  0  0  0  0  0  0  0  0
   -0.8624   -3.4920   -0.3688 C   0  0  0  0  0  0  0  0  0  0  0  0
   -2.2001   -3.4520   -0.9419 C   0  0  0  0  0  0  0  0  0  0  0  0
   -3.4454   -3.7875   -1.4363 O   0  0  0  0  0  0  0  0  0  0  0  0
   -2.8575   -2.4525   -1.3269 O   0  0  0  0  0  0  0  0  0  0  0  0
   -0.8973   -1.2356    0.5225 O   0  0  0  0  0  0  0  0  0  0  0  0
   -1.4408   -0.4084    1.3369 C   0  0  0  0  0  0  0  0  0  0  0  0
   -0.3936   -1.0563    1.2400 O   0  0  0  0  0  0  0  0  0  0  0  0
   -2.6399    0.3740    1.5112 C   0  0  0  0  0  0  0  0  0  0  0  0
   -3.6592    0.4377    0.7141 C   0  0  0  0  0  0  0  0  0  0  0  0
   -4.6922    1.3246    1.1997 C   0  0  0  0  0  0  0  0  0  0  0  0
   -4.6963    2.0688    2.3501 C   0  0  0  0  0  0  0  0  0  0  0  0
   -5.7610    2.8708    2.6778 C   0  0  0  0  0  0  0  0  0  0  0  0
   -6.8614    2.9537    1.8593 C   0  0  0  0  0  0  0  0  0  0  0  0
   -7.9798    3.7559    2.1412 O   0  0  0  0  0  0  0  0  0  0  0  0
   -6.8828    2.2043    0.6785 C   0  0  0  0  0  0  0  0  0  0  0  0
   -5.7966    1.4089    0.3801 C   0  0  0  0  0  0  0  0  0  0  0  0
    0.1356   -1.5948   -1.6369 C   0  0  1  0  0  0  0  0  0  0  0  0
    0.9127   -0.5496   -1.7004 O   0  0  0  0  0  0  0  0  0  0  0  0
    1.6320    0.5043   -1.7991 C   0  0  0  0  0  0  0  0  0  0  0  0
    0.7819    1.0792   -2.5219 O   0  0  0  0  0  0  0  0  0  0  0  0
    2.9041    1.0692   -1.3745 C   0  0  0  0  0  0  0  0  0  0  0  0
    3.7865    0.4456   -0.6148 C   0  0  0  0  0  0  0  0  0  0  0  0
    5.0474    1.0143   -0.1983 C   0  0  0  0  0  0  0  0  0  0  0  0
    5.9091    0.2937    0.5939 C   0  0  0  0  0  0  0  0  0  0  0  0
    7.1270    0.7680    1.0304 C   0  0  0  0  0  0  0  0  0  0  0  0
    7.5418    2.0227    0.6790 C   0  0  0  0  0  0  0  0  0  0  0  0
    8.7645    2.5234    1.1063 O   0  0  0  0  0  0  0  0  0  0  0  0
    6.6910    2.7600   -0.1151 C   0  0  0  0  0  0  0  0  0  0  0  0
    5.4767    2.2750   -0.5449 C   0  0  0  0  0  0  0  0  0  0  0  0
    0.7618   -2.7622   -2.3704 C   0  0  0  0  0  0  0  0  0  0  0  0
    1.1615   -3.9350   -2.9845 O   0  0  0  0  0  0  0  0  0  0  0  0
    1.8011   -2.1496   -2.7169 O   0  0  0  0  0  0  0  0  0  0  0  0
    0.7661   -2.3451    0.2100 H   0  0  0  0  0  0  0  0  0  0  0  0
   -0.8095   -3.9497    0.6429 H   0  0  0  0  0  0  0  0  0  0  0  0
   -0.1774   -4.0415   -1.0374 H   0  0  0  0  0  0  0  0  0  0  0  0
   -3.6316   -4.7463   -1.7297 H   0  0  0  0  0  0  0  0  0  0  0  0
   -2.3441    0.8075    2.4522 H   0  0  0  0  0  0  0  0  0  0  0  0
   -3.6655   -0.1258   -0.1826 H   0  0  0  0  0  0  0  0  0  0  0  0
   -3.8507    2.0089    2.9840 H   0  0  0  0  0  0  0  0  0  0  0  0
   -5.7585    3.4563    3.5883 H   0  0  0  0  0  0  0  0  0  0  0  0
   -8.3781    4.2639    1.3432 H   0  0  0  0  0  0  0  0  0  0  0  0
   -7.7566    2.2803    0.0440 H   0  0  0  0  0  0  0  0  0  0  0  0
   -5.9145    0.8667   -0.5632 H   0  0  0  0  0  0  0  0  0  0  0  0
   -0.8217   -1.4301   -2.2286 H   0  0  0  0  0  0  0  0  0  0  0  0
    3.1041    2.0706   -1.7269 H   0  0  0  0  0  0  0  0  0  0  0  0
    3.5184   -0.5529   -0.3005 H   0  0  0  0  0  0  0  0  0  0  0  0
    5.5852   -0.7184    0.8834 H   0  0  0  0  0  0  0  0  0  0  0  0
    7.7338    0.1081    1.6584 H   0  0  0  0  0  0  0  0  0  0  0  0
    9.6476    2.1158    0.7904 H   0  0  0  0  0  0  0  0  0  0  0  0
    7.0548    3.7573   -0.3761 H   0  0  0  0  0  0  0  0  0  0  0  0
    4.8660    2.9024   -1.1604 H   0  0  0  0  0  0  0  0  0  0  0  0
    1.7180   -4.6009   -2.4274 H   0  0  0  0  0  0  0  0  0  0  0  0
  1  2  1  0
  2  3  1  0
  3  4  1  0
  3  5  2  0
  1  6  1  0
  6  7  1  0
  7  8  2  0
  7  9  1  0
  9 10  2  0
 10 11  1  0
 11 12  2  0
 12 13  1  0
 13 14  2  0
 14 15  1  0
 14 16  1  0
 16 17  2  0
  1 18  1  0
 18 19  1  0
 19 20  1  0
 20 21  2  0
 20 22  1  0
 22 23  2  0
 23 24  1  0
 24 25  2  0
 25 26  1  0
 26 27  2  0
 27 28  1  0
 27 29  1  0
 29 30  2  0
 18 31  1  0
 31 32  1  0
 31 33  2  0
 17 11  1  0
 30 24  1  0
  1 34  1  1
  2 35  1  0
  2 36  1  0
  4 37  1  0
  9 38  1  0
 10 39  1  0
 12 40  1  0
 13 41  1  0
 15 42  1  0
 16 43  1  0
 17 44  1  0
 18 45  1  6
 22 46  1  0
 23 47  1  0
 25 48  1  0
 26 49  1  0
 28 50  1  0
 29 51  1  0
 30 52  1  0
 32 53  1  0
M  END
$$$$
