
     RDKit          3D

 59 62  0  0  0  0  0  0  0  0999 V2000
   -4.0929   -0.4259    2.5706 C   0  0  0  0  0  0  0  0  0  0  0  0
   -4.7883    0.0011    1.2767 C   0  0  0  0  0  0  0  0  0  0  0  0
   -6.2819   -0.1526    1.4966 C   0  0  0  0  0  0  0  0  0  0  0  0
   -4.3663   -0.8948    0.1758 C   0  0  0  0  0  0  0  0  0  0  0  0
   -4.5750   -2.3319    0.3937 N   0  0  0  0  0  0  0  0  0  0  0  0
   -3.8636   -0.4809   -0.8765 N   0  0  0  0  0  0  0  0  0  0  0  0
   -3.5251    0.8019   -1.4095 C   0  0  2  0  0  0  0  0  0  0  0  0
   -3.7161    0.7461   -2.9006 C   0  0  0  0  0  0  0  0  0  0  0  0
   -2.1244    1.1858   -1.0904 C   0  0  0  0  0  0  0  0  0  0  0  0
   -1.3130    0.3794   -0.3237 C   0  0  0  0  0  0  0  0  0  0  0  0
   -0.0165    0.7384   -0.0073 C   0  0  0  0  0  0  0  0  0  0  0  0
    0.7716   -0.1215    0.7975 N   0  0  0  0  0  0  0  0  0  0  0  0
    1.7653   -0.9744    0.2786 C   0  0  0  0  0  0  0  0  0  0  0  0
    1.3998   -2.1944   -0.2077 N   0  0  0  0  0  0  0  0  0  0  0  0
    2.3329   -3.0284   -0.7013 C   0  0  0  0  0  0  0  0  0  0  0  0
    3.6723   -2.6643   -0.7244 C   0  0  0  0  0  0  0  0  0  0  0  0
    4.0307   -1.4323   -0.2318 C   0  0  0  0  0  0  0  0  0  0  0  0
    5.3751   -1.0671   -0.2524 C   0  0  0  0  0  0  0  0  0  0  0  0
    5.7389    0.1673    0.2437 C   0  0  0  0  0  0  0  0  0  0  0  0
    7.0338    0.5858    0.2566 O   0  0  0  0  0  0  0  0  0  0  0  0
    8.1956   -0.0108   -0.1369 C   0  0  0  0  0  0  0  0  0  0  0  0
    8.6299   -1.2493    0.5672 C   0  0  0  0  0  0  0  0  0  0  0  0
    8.8212   -1.0107    1.9344 F   0  0  0  0  0  0  0  0  0  0  0  0
    9.8866   -1.6197    0.0665 F   0  0  0  0  0  0  0  0  0  0  0  0
    4.7206    0.9950    0.7464 C   0  0  0  0  0  0  0  0  0  0  0  0
    3.4628    0.5926    0.7387 N   0  0  0  0  0  0  0  0  0  0  0  0
    3.0763   -0.5834    0.2718 C   0  0  0  0  0  0  0  0  0  0  0  0
    0.4864    1.9281   -0.4644 C   0  0  0  0  0  0  0  0  0  0  0  0
   -0.3238    2.7569   -1.2437 C   0  0  0  0  0  0  0  0  0  0  0  0
   -1.6306    2.3680   -1.5477 C   0  0  0  0  0  0  0  0  0  0  0  0
   -2.3246    3.2514   -2.3339 F   0  0  0  0  0  0  0  0  0  0  0  0
   -4.4963    1.8671   -0.8656 C   0  0  0  0  0  0  0  0  0  0  0  0
   -4.4785    1.6846    0.9017 S   0  0  0  0  0  6  0  0  0  0  0  0
   -3.1775    2.1766    1.4574 O   0  0  0  0  0  0  0  0  0  0  0  0
   -5.5799    2.5947    1.4299 O   0  0  0  0  0  0  0  0  0  0  0  0
   -3.6390   -1.4383    2.4607 H   0  0  0  0  0  0  0  0  0  0  0  0
   -3.2563    0.2708    2.7757 H   0  0  0  0  0  0  0  0  0  0  0  0
   -4.8115   -0.4959    3.4111 H   0  0  0  0  0  0  0  0  0  0  0  0
   -6.5181    0.1625    2.5389 H   0  0  0  0  0  0  0  0  0  0  0  0
   -6.8547    0.5017    0.8187 H   0  0  0  0  0  0  0  0  0  0  0  0
   -6.6304   -1.1893    1.3957 H   0  0  0  0  0  0  0  0  0  0  0  0
   -3.8093   -2.9771    0.5987 H   0  0  0  0  0  0  0  0  0  0  0  0
   -5.5490   -2.6465    0.3257 H   0  0  0  0  0  0  0  0  0  0  0  0
   -4.2590    1.6592   -3.2847 H   0  0  0  0  0  0  0  0  0  0  0  0
   -2.7285    0.6580   -3.4278 H   0  0  0  0  0  0  0  0  0  0  0  0
   -4.3236   -0.1181   -3.2378 H   0  0  0  0  0  0  0  0  0  0  0  0
   -1.7580   -0.5601    0.0187 H   0  0  0  0  0  0  0  0  0  0  0  0
    0.5972   -0.1110    1.8297 H   0  0  0  0  0  0  0  0  0  0  0  0
    2.1027   -4.0151   -1.1004 H   0  0  0  0  0  0  0  0  0  0  0  0
    4.4263   -3.3169   -1.1113 H   0  0  0  0  0  0  0  0  0  0  0  0
    6.0717   -1.7697   -0.6700 H   0  0  0  0  0  0  0  0  0  0  0  0
    8.1778   -0.2479   -1.2366 H   0  0  0  0  0  0  0  0  0  0  0  0
    9.0556    0.7248   -0.0207 H   0  0  0  0  0  0  0  0  0  0  0  0
    7.9982   -2.1245    0.5052 H   0  0  0  0  0  0  0  0  0  0  0  0
    5.0547    1.9551    1.1238 H   0  0  0  0  0  0  0  0  0  0  0  0
    1.5022    2.2611   -0.2418 H   0  0  0  0  0  0  0  0  0  0  0  0
    0.0652    3.6922   -1.6048 H   0  0  0  0  0  0  0  0  0  0  0  0
   -5.5071    1.6992   -1.2648 H   0  0  0  0  0  0  0  0  0  0  0  0
   -4.1329    2.8475   -1.1385 H   0  0  0  0  0  0  0  0  0  0  0  0
  1  2  1  0
  2  3  1  0
  2  4  1  0
  4  5  1  0
  4  6  2  0
  6  7  1  0
  7  8  1  6
  7  9  1  0
  9 10  2  0
 10 11  1  0
 11 12  1  0
 12 13  1  0
 13 14  2  0
 14 15  1  0
 15 16  2  0
 16 17  1  0
 17 18  2  0
 18 19  1  0
 19 20  1  0
 20 21  1  0
 21 22  1  0
 22 23  1  0
 22 24  1  0
 19 25  2  0
 25 26  1  0
 26 27  2  0
 11 28  2  0
 28 29  1  0
 29 30  2  0
 30 31  1  0
  7 32  1  0
 32 33  1  0
 33 34  2  0
 33 35  2  0
 33  2  1  0
 30  9  1  0
 27 13  1  0
 27 17  1  0
  1 36  1  0
  1 37  1  0
  1 38  1  0
  3 39  1  0
  3 40  1  0
  3 41  1  0
  5 42  1  0
  5 43  1  0
  8 44  1  0
  8 45  1  0
  8 46  1  0
 10 47  1  0
 12 48  1  0
 15 49  1  0
 16 50  1  0
 18 51  1  0
 21 52  1  0
 21 53  1  0
 22 54  1  0
 25 55  1  0
 28 56  1  0
 29 57  1  0
 32 58  1  0
 32 59  1  0
M  END
$$$$
