
     RDKit          3D

 44 46  0  0  0  0  0  0  0  0999 V2000
   -4.5283   -0.1667    2.6040 O   0  0  0  0  0  0  0  0  0  0  0  0
   -4.5305   -0.7931    1.5346 C   0  0  0  0  0  0  0  0  0  0  0  0
   -3.9652   -0.1887    0.2943 C   0  0  0  0  0  0  0  0  0  0  0  0
   -3.4552    1.1943    0.6185 C   0  0  0  0  0  0  0  0  0  0  0  0
   -2.8931    1.8046   -0.6211 C   0  0  0  0  0  0  0  0  0  0  0  0
   -1.7574    1.0362   -1.2113 C   0  0  0  0  0  0  0  0  0  0  0  0
   -1.2979    1.7788   -2.4479 C   0  0  0  0  0  0  0  0  0  0  0  0
   -0.1469    1.0655   -3.1108 C   0  0  0  0  0  0  0  0  0  0  0  0
    0.9406    0.9961   -2.1555 N   0  0  0  0  0  0  0  0  0  0  0  0
    1.1513    0.0032   -1.2727 C   0  0  0  0  0  0  0  0  0  0  0  0
    2.2837    0.3067   -0.5456 C   0  0  0  0  0  0  0  0  0  0  0  0
    2.8571   -0.5154    0.5176 C   0  0  0  0  0  0  0  0  0  0  0  0
    2.0380   -1.0471    1.4542 N   0  0  0  0  0  0  0  0  0  0  0  0
    2.5495   -1.8087    2.4433 C   0  0  0  0  0  0  0  0  0  0  0  0
    3.8734   -2.0495    2.5130 N   0  0  0  0  0  0  0  0  0  0  0  0
    4.7214   -1.5338    1.5935 C   0  0  0  0  0  0  0  0  0  0  0  0
    6.0523   -1.5868    1.3916 N   0  0  0  0  0  0  0  0  0  0  0  0
    6.3939   -0.8784    0.3005 C   0  0  0  0  0  0  0  0  0  0  0  0
    5.2588   -0.3281   -0.2540 C   0  0  0  0  0  0  0  0  0  0  0  0
    4.2194   -0.7458    0.5644 C   0  0  0  0  0  0  0  0  0  0  0  0
    2.7498    1.5104   -1.0149 C   0  0  0  0  0  0  0  0  0  0  0  0
    1.9144    1.9057   -1.9924 N   0  0  0  0  0  0  0  0  0  0  0  0
   -5.0792   -2.0985    1.5009 N   0  0  0  0  0  0  0  0  0  0  0  0
   -5.6062   -2.6988    2.5934 O   0  0  0  0  0  0  0  0  0  0  0  0
   -3.1733   -0.8294   -0.1203 H   0  0  0  0  0  0  0  0  0  0  0  0
   -4.7520   -0.1004   -0.4810 H   0  0  0  0  0  0  0  0  0  0  0  0
   -4.2561    1.8585    0.9917 H   0  0  0  0  0  0  0  0  0  0  0  0
   -2.6467    1.0641    1.3835 H   0  0  0  0  0  0  0  0  0  0  0  0
   -3.6791    1.8895   -1.4128 H   0  0  0  0  0  0  0  0  0  0  0  0
   -2.5142    2.8425   -0.4192 H   0  0  0  0  0  0  0  0  0  0  0  0
   -2.0134    0.0122   -1.5437 H   0  0  0  0  0  0  0  0  0  0  0  0
   -0.9659    0.9413   -0.4442 H   0  0  0  0  0  0  0  0  0  0  0  0
   -1.0349    2.8267   -2.2074 H   0  0  0  0  0  0  0  0  0  0  0  0
   -2.1543    1.7863   -3.1521 H   0  0  0  0  0  0  0  0  0  0  0  0
   -0.4890    0.0083   -3.3028 H   0  0  0  0  0  0  0  0  0  0  0  0
    0.1713    1.5610   -4.0413 H   0  0  0  0  0  0  0  0  0  0  0  0
    0.5544   -0.9036   -1.1239 H   0  0  0  0  0  0  0  0  0  0  0  0
    1.8649   -2.2253    3.1859 H   0  0  0  0  0  0  0  0  0  0  0  0
    6.7358   -2.1047    1.9940 H   0  0  0  0  0  0  0  0  0  0  0  0
    7.3897   -0.7369   -0.1112 H   0  0  0  0  0  0  0  0  0  0  0  0
    5.2274    0.2910   -1.1384 H   0  0  0  0  0  0  0  0  0  0  0  0
    3.6377    2.0173   -0.6364 H   0  0  0  0  0  0  0  0  0  0  0  0
   -5.0609   -2.5918    0.5777 H   0  0  0  0  0  0  0  0  0  0  0  0
   -6.5846   -2.7687    2.4740 H   0  0  0  0  0  0  0  0  0  0  0  0
  1  2  2  0
  2  3  1  0
  3  4  1  0
  4  5  1  0
  5  6  1  0
  6  7  1  0
  7  8  1  0
  8  9  1  0
  9 10  1  0
 10 11  2  0
 11 12  1  0
 12 13  2  0
 13 14  1  0
 14 15  2  0
 15 16  1  0
 16 17  1  0
 17 18  1  0
 18 19  2  0
 19 20  1  0
 11 21  1  0
 21 22  2  0
  2 23  1  0
 23 24  1  0
 22  9  1  0
 20 12  1  0
 20 16  2  0
  3 25  1  0
  3 26  1  0
  4 27  1  0
  4 28  1  0
  5 29  1  0
  5 30  1  0
  6 31  1  0
  6 32  1  0
  7 33  1  0
  7 34  1  0
  8 35  1  0
  8 36  1  0
 10 37  1  0
 14 38  1  0
 17 39  1  0
 18 40  1  0
 19 41  1  0
 21 42  1  0
 23 43  1  0
 24 44  1  0
M  END
$$$$
