
     RDKit          3D

 48 52  0  0  0  0  0  0  0  0999 V2000
   -4.0838    4.2191   -0.6391 C   0  0  0  0  0  0  0  0  0  0  0  0
   -3.5489    3.0254    0.0783 C   0  0  0  0  0  0  0  0  0  0  0  0
   -4.2159    2.5568    1.1901 C   0  0  0  0  0  0  0  0  0  0  0  0
   -3.7621    1.4527    1.8922 C   0  0  0  0  0  0  0  0  0  0  0  0
   -2.6092    0.8303    1.4383 C   0  0  0  0  0  0  0  0  0  0  0  0
   -1.9483    1.3028    0.3281 C   0  0  0  0  0  0  0  0  0  0  0  0
   -0.7394    0.6431   -0.1498 C   0  0  0  0  0  0  0  0  0  0  0  0
    0.5038    1.1530   -0.1589 N   0  0  0  0  0  0  0  0  0  0  0  0
    1.3711    0.2693   -0.6690 C   0  0  0  0  0  0  0  0  0  0  0  0
    2.8356    0.4816   -0.8398 C   0  0  0  0  0  0  0  0  0  0  0  0
    3.5331    0.0472    0.3422 N   0  0  0  0  0  0  0  0  0  0  0  0
    4.9573    0.1221    0.4591 C   0  0  0  0  0  0  0  0  0  0  0  0
    5.7398    0.6165   -0.5628 C   0  0  0  0  0  0  0  0  0  0  0  0
    7.1210    0.6849   -0.4431 C   0  0  0  0  0  0  0  0  0  0  0  0
    7.7636    0.2615    0.7014 C   0  0  0  0  0  0  0  0  0  0  0  0
    6.9904   -0.2345    1.7289 C   0  0  0  0  0  0  0  0  0  0  0  0
    5.6019   -0.3000    1.6006 C   0  0  0  0  0  0  0  0  0  0  0  0
    4.8621   -0.7924    2.6254 F   0  0  0  0  0  0  0  0  0  0  0  0
    0.6421   -0.8133   -0.9821 N   0  0  0  0  0  0  0  0  0  0  0  0
   -0.6547   -0.6264   -0.6805 C   0  0  0  0  0  0  0  0  0  0  0  0
   -1.7492   -1.5880   -0.8821 C   0  0  0  0  0  0  0  0  0  0  0  0
   -2.3646   -1.7934   -2.0972 C   0  0  0  0  0  0  0  0  0  0  0  0
   -3.3910   -2.7075   -2.2617 C   0  0  0  0  0  0  0  0  0  0  0  0
   -3.7717   -3.4115   -1.1333 C   0  0  0  0  0  0  0  0  0  0  0  0
   -4.7242   -4.3608   -0.9569 N   0  0  0  0  0  0  0  0  0  0  0  0
   -4.7302   -4.7652    0.3426 C   0  0  0  0  0  0  0  0  0  0  0  0
   -3.7717   -4.0470    0.9371 N   0  0  0  0  0  0  0  0  0  0  0  0
   -3.1896   -3.2350    0.0740 N   0  0  0  0  0  0  0  0  0  0  0  0
   -2.1806   -2.3242    0.1956 C   0  0  0  0  0  0  0  0  0  0  0  0
   -2.4357    2.3955   -0.3302 N   0  0  0  0  0  0  0  0  0  0  0  0
   -5.0260    4.5749   -0.1980 H   0  0  0  0  0  0  0  0  0  0  0  0
   -4.2216    3.9766   -1.7248 H   0  0  0  0  0  0  0  0  0  0  0  0
   -3.3506    5.0489   -0.5842 H   0  0  0  0  0  0  0  0  0  0  0  0
   -5.1258    3.0841    1.5106 H   0  0  0  0  0  0  0  0  0  0  0  0
   -4.2766    1.0887    2.7526 H   0  0  0  0  0  0  0  0  0  0  0  0
   -2.2212   -0.0232    1.9503 H   0  0  0  0  0  0  0  0  0  0  0  0
    0.7849    2.0965    0.1754 H   0  0  0  0  0  0  0  0  0  0  0  0
    3.0444    1.5533   -1.0832 H   0  0  0  0  0  0  0  0  0  0  0  0
    3.1309   -0.0883   -1.7435 H   0  0  0  0  0  0  0  0  0  0  0  0
    2.9974   -0.3307    1.1358 H   0  0  0  0  0  0  0  0  0  0  0  0
    5.2249    0.9519   -1.4704 H   0  0  0  0  0  0  0  0  0  0  0  0
    7.7116    1.0819   -1.2710 H   0  0  0  0  0  0  0  0  0  0  0  0
    8.8449    0.3213    0.7795 H   0  0  0  0  0  0  0  0  0  0  0  0
    7.4475   -0.5791    2.6461 H   0  0  0  0  0  0  0  0  0  0  0  0
   -2.0246   -1.2141   -2.9437 H   0  0  0  0  0  0  0  0  0  0  0  0
   -3.8770   -2.8729   -3.2131 H   0  0  0  0  0  0  0  0  0  0  0  0
   -5.3538   -5.4978    0.8204 H   0  0  0  0  0  0  0  0  0  0  0  0
   -1.7603   -2.2350    1.1813 H   0  0  0  0  0  0  0  0  0  0  0  0
  1  2  1  0
  2  3  2  0
  3  4  1  0
  4  5  2  0
  5  6  1  0
  6  7  1  0
  7  8  1  0
  8  9  1  0
  9 10  1  0
 10 11  1  0
 11 12  1  0
 12 13  2  0
 13 14  1  0
 14 15  2  0
 15 16  1  0
 16 17  2  0
 17 18  1  0
  9 19  2  0
 19 20  1  0
 20 21  1  0
 21 22  1  0
 22 23  2  0
 23 24  1  0
 24 25  2  0
 25 26  1  0
 26 27  2  0
 27 28  1  0
 28 29  1  0
  6 30  2  0
 30  2  1  0
 20  7  2  0
 29 21  2  0
 17 12  1  0
 28 24  1  0
  1 31  1  0
  1 32  1  0
  1 33  1  0
  3 34  1  0
  4 35  1  0
  5 36  1  0
  8 37  1  0
 10 38  1  0
 10 39  1  0
 11 40  1  0
 13 41  1  0
 14 42  1  0
 15 43  1  0
 16 44  1  0
 22 45  1  0
 23 46  1  0
 26 47  1  0
 29 48  1  0
M  END
$$$$
