
     RDKit          3D

 80 84  0  0  0  0  0  0  0  0999 V2000
    3.8559    4.0003   -3.3777 C   0  0  0  0  0  0  0  0  0  0  0  0
    3.4814    2.7398   -2.9434 O   0  0  0  0  0  0  0  0  0  0  0  0
    4.3738    1.7541   -3.3719 C   0  0  0  0  0  0  0  0  0  0  0  0
    3.9170    0.3977   -2.8703 C   0  0  0  0  0  0  0  0  0  0  0  0
    3.8938    0.4805   -1.3082 C   0  0  0  0  0  0  0  0  0  0  0  0
    3.4590   -0.7980   -0.7452 C   0  0  0  0  0  0  0  0  0  0  0  0
    3.2890   -0.9633    0.7405 C   0  0  0  0  0  0  0  0  0  0  0  0
    2.2645   -0.1353    1.3948 C   0  0  0  0  0  0  0  0  0  0  0  0
    0.9019   -0.1223    1.1705 N   0  0  0  0  0  0  0  0  0  0  0  0
    0.1945    0.2570    0.0166 C   0  0  0  0  0  0  0  0  0  0  0  0
    0.7446    0.6606   -1.0382 O   0  0  0  0  0  0  0  0  0  0  0  0
   -1.3170    0.1699    0.0694 C   0  0  2  0  0  0  0  0  0  0  0  0
   -1.6817   -1.2557    0.2915 C   0  0  0  0  0  0  0  0  0  0  0  0
   -3.1229   -1.4626    0.2801 N   0  0  0  0  0  0  0  0  0  0  0  0
   -3.7282   -0.8949   -0.9084 C   0  0  0  0  0  0  0  0  0  0  0  0
   -3.4248    0.5697   -1.0433 C   0  0  2  0  0  0  0  0  0  0  0  0
   -4.1913    1.2347   -2.0223 N   0  0  0  0  0  0  0  0  0  0  0  0
   -5.2127    2.4750   -1.5106 S   0  0  0  0  0  6  0  0  0  0  0  0
   -4.5184    3.5869   -0.7866 O   0  0  0  0  0  0  0  0  0  0  0  0
   -5.9837    3.0487   -2.6701 O   0  0  0  0  0  0  0  0  0  0  0  0
   -6.3928    1.8093   -0.4094 C   0  0  0  0  0  0  0  0  0  0  0  0
   -6.1008    1.8166    0.9326 C   0  0  0  0  0  0  0  0  0  0  0  0
   -7.0071    1.2977    1.8393 C   0  0  0  0  0  0  0  0  0  0  0  0
   -8.2112    0.7659    1.4350 C   0  0  0  0  0  0  0  0  0  0  0  0
   -9.1786    0.2113    2.4149 C   0  0  0  0  0  0  0  0  0  0  0  0
   -8.4802    0.7710    0.0784 C   0  0  0  0  0  0  0  0  0  0  0  0
   -7.5824    1.2864   -0.8349 C   0  0  0  0  0  0  0  0  0  0  0  0
   -1.9293    0.7385   -1.1936 C   0  0  0  0  0  0  0  0  0  0  0  0
    3.0729   -2.4271    0.9304 C   0  0  0  0  0  0  0  0  0  0  0  0
    1.8353   -2.9183    0.4728 C   0  0  0  0  0  0  0  0  0  0  0  0
    1.5890   -4.2627    0.5843 C   0  0  0  0  0  0  0  0  0  0  0  0
    2.4862   -5.1559    1.1184 C   0  0  0  0  0  0  0  0  0  0  0  0
    3.6750   -4.6309    1.5491 C   0  0  0  0  0  0  0  0  0  0  0  0
    3.9872   -3.2556    1.4618 C   0  0  0  0  0  0  0  0  0  0  0  0
    5.2316   -2.8581    1.9400 O   0  0  0  0  0  0  0  0  0  0  0  0
    5.4867   -1.4988    1.8356 C   0  0  0  0  0  0  0  0  0  0  0  0
    6.7517   -1.0983    2.3378 C   0  0  0  0  0  0  0  0  0  0  0  0
    7.1524    0.2139    2.3191 C   0  0  0  0  0  0  0  0  0  0  0  0
    6.2575    1.1067    1.7884 C   0  0  0  0  0  0  0  0  0  0  0  0
    5.0247    0.7514    1.2929 C   0  0  0  0  0  0  0  0  0  0  0  0
    4.6347   -0.5842    1.3169 C   0  0  0  0  0  0  0  0  0  0  0  0
    3.1055    4.7194   -3.0009 H   0  0  0  0  0  0  0  0  0  0  0  0
    4.0014    4.0548   -4.4694 H   0  0  0  0  0  0  0  0  0  0  0  0
    4.8336    4.3194   -2.9205 H   0  0  0  0  0  0  0  0  0  0  0  0
    5.3603    2.0317   -2.9480 H   0  0  0  0  0  0  0  0  0  0  0  0
    4.4769    1.7199   -4.4743 H   0  0  0  0  0  0  0  0  0  0  0  0
    4.6521   -0.3452   -3.2069 H   0  0  0  0  0  0  0  0  0  0  0  0
    2.9329    0.1234   -3.2607 H   0  0  0  0  0  0  0  0  0  0  0  0
    4.9793    0.7160   -1.1158 H   0  0  0  0  0  0  0  0  0  0  0  0
    3.2531    1.3173   -1.0979 H   0  0  0  0  0  0  0  0  0  0  0  0
    4.2849   -1.5517   -1.0557 H   0  0  0  0  0  0  0  0  0  0  0  0
    2.5837   -1.2639   -1.3029 H   0  0  0  0  0  0  0  0  0  0  0  0
    2.5983    0.9598    1.2962 H   0  0  0  0  0  0  0  0  0  0  0  0
    2.4438   -0.2853    2.5255 H   0  0  0  0  0  0  0  0  0  0  0  0
    0.2317   -0.4455    1.9753 H   0  0  0  0  0  0  0  0  0  0  0  0
   -1.6597    0.8388    0.9015 H   0  0  0  0  0  0  0  0  0  0  0  0
   -1.3099   -1.5782    1.2796 H   0  0  0  0  0  0  0  0  0  0  0  0
   -1.1801   -1.8674   -0.4799 H   0  0  0  0  0  0  0  0  0  0  0  0
   -3.3901   -2.4331    0.4534 H   0  0  0  0  0  0  0  0  0  0  0  0
   -3.4262   -1.4786   -1.7864 H   0  0  0  0  0  0  0  0  0  0  0  0
   -4.8327   -1.0064   -0.7811 H   0  0  0  0  0  0  0  0  0  0  0  0
   -3.6630    1.0285   -0.0423 H   0  0  0  0  0  0  0  0  0  0  0  0
   -3.7617    1.3572   -2.9526 H   0  0  0  0  0  0  0  0  0  0  0  0
   -5.1881    2.2095    1.3640 H   0  0  0  0  0  0  0  0  0  0  0  0
   -6.7970    1.2922    2.9133 H   0  0  0  0  0  0  0  0  0  0  0  0
   -9.0334   -0.8932    2.5557 H   0  0  0  0  0  0  0  0  0  0  0  0
  -10.2154    0.4742    2.1694 H   0  0  0  0  0  0  0  0  0  0  0  0
   -8.9837    0.6547    3.4299 H   0  0  0  0  0  0  0  0  0  0  0  0
   -9.4407    0.3460   -0.2356 H   0  0  0  0  0  0  0  0  0  0  0  0
   -7.8522    1.2625   -1.8982 H   0  0  0  0  0  0  0  0  0  0  0  0
   -1.5260    0.1464   -2.0354 H   0  0  0  0  0  0  0  0  0  0  0  0
   -1.6975    1.8029   -1.2266 H   0  0  0  0  0  0  0  0  0  0  0  0
    1.0889   -2.2825    0.0323 H   0  0  0  0  0  0  0  0  0  0  0  0
    0.6176   -4.6306    0.2226 H   0  0  0  0  0  0  0  0  0  0  0  0
    2.2254   -6.1980    1.1742 H   0  0  0  0  0  0  0  0  0  0  0  0
    4.4355   -5.2810    1.9844 H   0  0  0  0  0  0  0  0  0  0  0  0
    7.3972   -1.8631    2.7391 H   0  0  0  0  0  0  0  0  0  0  0  0
    8.1102    0.5395    2.6956 H   0  0  0  0  0  0  0  0  0  0  0  0
    6.4963    2.1823    1.7348 H   0  0  0  0  0  0  0  0  0  0  0  0
    4.3516    1.4854    0.9096 H   0  0  0  0  0  0  0  0  0  0  0  0
  1  2  1  0
  2  3  1  0
  3  4  1  0
  4  5  1  0
  5  6  1  0
  6  7  1  0
  7  8  1  0
  8  9  1  0
  9 10  1  0
 10 11  2  0
 10 12  1  0
 12 13  1  0
 13 14  1  0
 14 15  1  0
 15 16  1  0
 16 17  1  0
 17 18  1  0
 18 19  2  0
 18 20  2  0
 18 21  1  0
 21 22  2  0
 22 23  1  0
 23 24  2  0
 24 25  1  0
 24 26  1  0
 26 27  2  0
 16 28  1  0
  7 29  1  0
 29 30  2  0
 30 31  1  0
 31 32  2  0
 32 33  1  0
 33 34  2  0
 34 35  1  0
 35 36  1  0
 36 37  2  0
 37 38  1  0
 38 39  2  0
 39 40  1  0
 40 41  2  0
 41  7  1  0
 28 12  1  0
 34 29  1  0
 41 36  1  0
 27 21  1  0
  1 42  1  0
  1 43  1  0
  1 44  1  0
  3 45  1  0
  3 46  1  0
  4 47  1  0
  4 48  1  0
  5 49  1  0
  5 50  1  0
  6 51  1  0
  6 52  1  0
  8 53  1  0
  8 54  1  0
  9 55  1  0
 12 56  1  1
 13 57  1  0
 13 58  1  0
 14 59  1  0
 15 60  1  0
 15 61  1  0
 16 62  1  1
 17 63  1  0
 22 64  1  0
 23 65  1  0
 25 66  1  0
 25 67  1  0
 25 68  1  0
 26 69  1  0
 27 70  1  0
 28 71  1  0
 28 72  1  0
 30 73  1  0
 31 74  1  0
 32 75  1  0
 33 76  1  0
 37 77  1  0
 38 78  1  0
 39 79  1  0
 40 80  1  0
M  END
$$$$
