
     RDKit          3D

 59 62  0  0  0  0  0  0  0  0999 V2000
   -5.8438    3.6961   -3.5087 C   0  0  0  0  0  0  0  0  0  0  0  0
   -6.3941    2.3081   -3.5101 C   0  0  0  0  0  0  0  0  0  0  0  0
   -5.8992    1.5017   -2.4683 O   0  0  0  0  0  0  0  0  0  0  0  0
   -4.5448    1.2147   -2.3152 C   0  0  0  0  0  0  0  0  0  0  0  0
   -3.7651    1.7150   -3.1624 O   0  0  0  0  0  0  0  0  0  0  0  0
   -4.0404    0.3813   -1.2371 C   0  0  0  0  0  0  0  0  0  0  0  0
   -2.7251    0.0656   -1.0380 C   0  0  0  0  0  0  0  0  0  0  0  0
   -2.6186   -0.7493    0.0887 C   0  0  0  0  0  0  0  0  0  0  0  0
   -1.3864   -1.3023    0.6367 C   0  0  0  0  0  0  0  0  0  0  0  0
   -1.3210   -2.6355    1.0310 C   0  0  0  0  0  0  0  0  0  0  0  0
   -0.1518   -3.1488    1.5475 C   0  0  0  0  0  0  0  0  0  0  0  0
    0.9751   -2.3718    1.6891 C   0  0  0  0  0  0  0  0  0  0  0  0
    0.9256   -1.0296    1.2972 C   0  0  0  0  0  0  0  0  0  0  0  0
    2.0845   -0.2590    1.4506 O   0  0  0  0  0  0  0  0  0  0  0  0
    3.0370   -0.1588    0.4525 C   0  0  0  0  0  0  0  0  0  0  0  0
    2.8467   -0.7811   -0.6185 O   0  0  0  0  0  0  0  0  0  0  0  0
    4.2260    0.6072    0.5579 N   0  0  0  0  0  0  0  0  0  0  0  0
    5.1958    0.6921   -0.4943 C   0  0  0  0  0  0  0  0  0  0  0  0
    5.4164    2.0757   -1.0197 C   0  0  0  0  0  0  0  0  0  0  0  0
    6.7254    2.0382   -1.8200 C   0  0  0  0  0  0  0  0  0  0  0  0
    7.9169    1.8689   -0.9052 C   0  0  0  0  0  0  0  0  0  0  0  0
    7.4674    1.1812    0.3644 C   0  0  0  0  0  0  0  0  0  0  0  0
    6.5075    0.0677   -0.0671 C   0  0  0  0  0  0  0  0  0  0  0  0
   -0.2460   -0.5431    0.7875 C   0  0  0  0  0  0  0  0  0  0  0  0
   -3.8809   -0.8977    0.5328 N   0  0  0  0  0  0  0  0  0  0  0  0
   -4.2042   -1.6770    1.6887 C   0  0  0  0  0  0  0  0  0  0  0  0
   -5.1976   -2.6487    1.6414 C   0  0  0  0  0  0  0  0  0  0  0  0
   -5.5460   -3.4206    2.7139 C   0  0  0  0  0  0  0  0  0  0  0  0
   -4.8831   -3.2378    3.9219 C   0  0  0  0  0  0  0  0  0  0  0  0
   -3.8952   -2.2859    4.0054 C   0  0  0  0  0  0  0  0  0  0  0  0
   -3.5576   -1.5099    2.8952 C   0  0  0  0  0  0  0  0  0  0  0  0
   -4.7261   -0.2221   -0.2603 N   0  0  0  0  0  0  0  0  0  0  0  0
   -6.6872    4.4027   -3.7175 H   0  0  0  0  0  0  0  0  0  0  0  0
   -5.1361    3.8373   -4.3614 H   0  0  0  0  0  0  0  0  0  0  0  0
   -5.3994    3.9991   -2.5398 H   0  0  0  0  0  0  0  0  0  0  0  0
   -6.2229    1.8681   -4.5184 H   0  0  0  0  0  0  0  0  0  0  0  0
   -7.5160    2.3132   -3.3909 H   0  0  0  0  0  0  0  0  0  0  0  0
   -1.8859    0.3797   -1.6364 H   0  0  0  0  0  0  0  0  0  0  0  0
   -2.1818   -3.2879    0.9394 H   0  0  0  0  0  0  0  0  0  0  0  0
   -0.1238   -4.2049    1.8524 H   0  0  0  0  0  0  0  0  0  0  0  0
    1.9025   -2.7571    2.0927 H   0  0  0  0  0  0  0  0  0  0  0  0
    4.4041    1.1296    1.4335 H   0  0  0  0  0  0  0  0  0  0  0  0
    4.8217    0.0661   -1.3423 H   0  0  0  0  0  0  0  0  0  0  0  0
    5.4857    2.8547   -0.2471 H   0  0  0  0  0  0  0  0  0  0  0  0
    4.6267    2.3000   -1.7873 H   0  0  0  0  0  0  0  0  0  0  0  0
    6.6694    1.2158   -2.5489 H   0  0  0  0  0  0  0  0  0  0  0  0
    6.8191    2.9969   -2.3375 H   0  0  0  0  0  0  0  0  0  0  0  0
    8.4062    2.8188   -0.6709 H   0  0  0  0  0  0  0  0  0  0  0  0
    8.6617    1.1958   -1.4125 H   0  0  0  0  0  0  0  0  0  0  0  0
    6.8908    1.8981    0.9719 H   0  0  0  0  0  0  0  0  0  0  0  0
    8.2967    0.7095    0.9073 H   0  0  0  0  0  0  0  0  0  0  0  0
    6.3097   -0.5974    0.7819 H   0  0  0  0  0  0  0  0  0  0  0  0
    7.0055   -0.4443   -0.9238 H   0  0  0  0  0  0  0  0  0  0  0  0
   -0.2999    0.4950    0.4795 H   0  0  0  0  0  0  0  0  0  0  0  0
   -5.7320   -2.8068    0.6948 H   0  0  0  0  0  0  0  0  0  0  0  0
   -6.3161   -4.1710    2.6700 H   0  0  0  0  0  0  0  0  0  0  0  0
   -5.1683   -3.8618    4.7801 H   0  0  0  0  0  0  0  0  0  0  0  0
   -3.3564   -2.1187    4.9395 H   0  0  0  0  0  0  0  0  0  0  0  0
   -2.7715   -0.7650    2.9937 H   0  0  0  0  0  0  0  0  0  0  0  0
  1  2  1  0
  2  3  1  0
  3  4  1  0
  4  5  2  0
  4  6  1  0
  6  7  1  0
  7  8  2  0
  8  9  1  0
  9 10  2  0
 10 11  1  0
 11 12  2  0
 12 13  1  0
 13 14  1  0
 14 15  1  0
 15 16  2  0
 15 17  1  0
 17 18  1  0
 18 19  1  0
 19 20  1  0
 20 21  1  0
 21 22  1  0
 22 23  1  0
 13 24  2  0
  8 25  1  0
 25 26  1  0
 26 27  2  0
 27 28  1  0
 28 29  2  0
 29 30  1  0
 30 31  2  0
 25 32  1  0
 32  6  2  0
 24  9  1  0
 31 26  1  0
 23 18  1  0
  1 33  1  0
  1 34  1  0
  1 35  1  0
  2 36  1  0
  2 37  1  0
  7 38  1  0
 10 39  1  0
 11 40  1  0
 12 41  1  0
 17 42  1  0
 18 43  1  0
 19 44  1  0
 19 45  1  0
 20 46  1  0
 20 47  1  0
 21 48  1  0
 21 49  1  0
 22 50  1  0
 22 51  1  0
 23 52  1  0
 23 53  1  0
 24 54  1  0
 27 55  1  0
 28 56  1  0
 29 57  1  0
 30 58  1  0
 31 59  1  0
M  END
$$$$
