
     RDKit          3D

 51 53  0  0  0  0  0  0  0  0999 V2000
    7.8310    1.1798    0.0618 C   0  0  0  0  0  0  0  0  0  0  0  0
    7.2094   -0.1464    0.1855 C   0  0  0  0  0  0  0  0  0  0  0  0
    7.7966   -1.1338   -0.3260 O   0  0  0  0  0  0  0  0  0  0  0  0
    5.9678   -0.3280    0.8670 N   0  0  0  0  0  0  0  0  0  0  0  0
    5.4686   -1.6059    0.9285 N   0  0  0  0  0  0  0  0  0  0  0  0
    4.2303   -1.7797    1.6071 C   0  0  0  0  0  0  0  0  0  0  0  0
    3.0916   -1.0172    1.0182 C   0  0  0  0  0  0  0  0  0  0  0  0
    2.7434    0.2520    1.4334 C   0  0  0  0  0  0  0  0  0  0  0  0
    1.6897    0.9413    0.8714 C   0  0  0  0  0  0  0  0  0  0  0  0
    0.9214    0.3783   -0.1532 C   0  0  0  0  0  0  0  0  0  0  0  0
   -0.1914    1.1335   -0.7318 C   0  0  0  0  0  0  0  0  0  0  0  0
   -0.4642    2.3054   -0.3072 O   0  0  0  0  0  0  0  0  0  0  0  0
   -1.0043    0.6371   -1.7559 N   0  0  0  0  0  0  0  0  0  0  0  0
   -2.0870    1.3424   -2.3360 C   0  0  0  0  0  0  0  0  0  0  0  0
   -1.8791    2.1701   -3.4472 C   0  0  0  0  0  0  0  0  0  0  0  0
   -2.9316    2.8563   -4.0111 C   0  0  0  0  0  0  0  0  0  0  0  0
   -4.1836    2.7109   -3.4616 C   0  0  0  0  0  0  0  0  0  0  0  0
   -5.5768    3.5504   -4.1209 Cl  0  0  0  0  0  0  0  0  0  0  0  0
   -4.4025    1.8859   -2.3508 C   0  0  0  0  0  0  0  0  0  0  0  0
   -3.3382    1.1959   -1.7853 C   0  0  0  0  0  0  0  0  0  0  0  0
   -3.4916    0.3242   -0.6370 C   0  0  0  0  0  0  0  0  0  0  0  0
   -2.4948   -0.2758   -0.1722 O   0  0  0  0  0  0  0  0  0  0  0  0
   -4.7397    0.0917    0.0262 N   0  0  0  0  0  0  0  0  0  0  0  0
   -4.8242   -0.7825    1.1577 C   0  0  0  0  0  0  0  0  0  0  0  0
   -5.0769   -2.1317    1.0550 C   0  0  0  0  0  0  0  0  0  0  0  0
   -5.1555   -2.9625    2.1542 C   0  0  0  0  0  0  0  0  0  0  0  0
   -4.9701   -2.3985    3.4003 C   0  0  0  0  0  0  0  0  0  0  0  0
   -5.0568   -3.3996    4.8452 Cl  0  0  0  0  0  0  0  0  0  0  0  0
   -4.7174   -1.0452    3.4926 C   0  0  0  0  0  0  0  0  0  0  0  0
   -4.6486   -0.2637    2.3817 N   0  0  0  0  0  0  0  0  0  0  0  0
    1.2742   -0.8852   -0.5606 C   0  0  0  0  0  0  0  0  0  0  0  0
    2.3279   -1.5822   -0.0032 C   0  0  0  0  0  0  0  0  0  0  0  0
    7.0414    1.8906   -0.2971 H   0  0  0  0  0  0  0  0  0  0  0  0
    8.6127    1.1846   -0.7133 H   0  0  0  0  0  0  0  0  0  0  0  0
    8.2762    1.5443    1.0029 H   0  0  0  0  0  0  0  0  0  0  0  0
    5.5071    0.5031    1.2789 H   0  0  0  0  0  0  0  0  0  0  0  0
    5.5435   -2.0655    0.0159 H   0  0  0  0  0  0  0  0  0  0  0  0
    4.3494   -1.5447    2.6854 H   0  0  0  0  0  0  0  0  0  0  0  0
    3.9481   -2.8584    1.5050 H   0  0  0  0  0  0  0  0  0  0  0  0
    3.3373    0.6846    2.2300 H   0  0  0  0  0  0  0  0  0  0  0  0
    1.4402    1.9393    1.2199 H   0  0  0  0  0  0  0  0  0  0  0  0
   -0.8264   -0.3143   -2.1403 H   0  0  0  0  0  0  0  0  0  0  0  0
   -0.8849    2.2677   -3.8608 H   0  0  0  0  0  0  0  0  0  0  0  0
   -2.8162    3.5013   -4.8634 H   0  0  0  0  0  0  0  0  0  0  0  0
   -5.3950    1.7910   -1.9408 H   0  0  0  0  0  0  0  0  0  0  0  0
   -5.5725    0.5854   -0.3527 H   0  0  0  0  0  0  0  0  0  0  0  0
   -5.2168   -2.5387    0.0629 H   0  0  0  0  0  0  0  0  0  0  0  0
   -5.3564   -4.0315    2.0630 H   0  0  0  0  0  0  0  0  0  0  0  0
   -4.5732   -0.6186    4.4950 H   0  0  0  0  0  0  0  0  0  0  0  0
    0.6963   -1.3647   -1.3634 H   0  0  0  0  0  0  0  0  0  0  0  0
    2.5715   -2.5730   -0.3527 H   0  0  0  0  0  0  0  0  0  0  0  0
  1  2  1  0
  2  3  2  0
  2  4  1  0
  4  5  1  0
  5  6  1  0
  6  7  1  0
  7  8  2  0
  8  9  1  0
  9 10  2  0
 10 11  1  0
 11 12  2  0
 11 13  1  0
 13 14  1  0
 14 15  2  0
 15 16  1  0
 16 17  2  0
 17 18  1  0
 17 19  1  0
 19 20  2  0
 20 21  1  0
 21 22  2  0
 21 23  1  0
 23 24  1  0
 24 25  2  0
 25 26  1  0
 26 27  2  0
 27 28  1  0
 27 29  1  0
 29 30  2  0
 10 31  1  0
 31 32  2  0
 32  7  1  0
 20 14  1  0
 30 24  1  0
  1 33  1  0
  1 34  1  0
  1 35  1  0
  4 36  1  0
  5 37  1  0
  6 38  1  0
  6 39  1  0
  8 40  1  0
  9 41  1  0
 13 42  1  0
 15 43  1  0
 16 44  1  0
 19 45  1  0
 23 46  1  0
 25 47  1  0
 26 48  1  0
 29 49  1  0
 31 50  1  0
 32 51  1  0
M  END
$$$$
