
     RDKit          3D

 54 57  0  0  0  0  0  0  0  0999 V2000
    5.7161   -0.8040   -0.7935 C   0  0  2  0  0  0  0  0  0  0  0  0
    6.5830   -2.0077   -0.2867 C   0  0  0  0  0  0  0  0  0  0  0  0
    6.7132    0.3122   -0.8514 C   0  0  0  0  0  0  0  0  0  0  0  0
    6.8863    0.8620    0.5857 C   0  0  0  0  0  0  0  0  0  0  0  0
    8.1584    1.4954    0.7496 O   0  0  0  0  0  0  0  0  0  0  0  0
    6.1952    0.8398    1.5780 N   0  0  0  0  0  0  0  0  0  0  0  0
    5.0538    0.1456    1.3886 N   0  0  0  0  0  0  0  0  0  0  0  0
    4.7617   -0.5970    0.2770 C   0  0  0  0  0  0  0  0  0  0  0  0
    3.2757   -0.5760    0.0588 C   0  0  0  0  0  0  0  0  0  0  0  0
    2.3882   -1.4158   -0.5680 C   0  0  0  0  0  0  0  0  0  0  0  0
    1.0105   -1.1374   -0.8144 C   0  0  0  0  0  0  0  0  0  0  0  0
    0.6969    0.0693   -0.3160 C   0  0  0  0  0  0  0  0  0  0  0  0
   -0.6908    0.4143   -0.1598 N   0  0  0  0  0  0  0  0  0  0  0  0
   -1.8906    0.7253   -0.0424 C   0  0  0  0  0  0  0  0  0  0  0  0
   -3.1618    0.3576    0.2809 C   0  0  0  0  0  0  0  0  0  0  0  0
   -3.1947   -1.1639    0.5896 C   0  0  0  0  0  0  0  0  0  0  0  0
   -4.5695   -1.5768    0.1532 C   0  0  0  0  0  0  0  0  0  0  0  0
   -4.8002   -1.6401   -1.0954 C   0  0  0  0  0  0  0  0  0  0  0  0
   -6.1490   -1.8055   -1.4828 C   0  0  0  0  0  0  0  0  0  0  0  0
   -6.7548   -1.7078   -3.4868 I   0  0  0  0  0  0  0  0  0  0  0  0
   -7.0679   -1.9053   -0.4474 C   0  0  0  0  0  0  0  0  0  0  0  0
   -6.7850   -1.8047    0.8677 C   0  0  0  0  0  0  0  0  0  0  0  0
   -5.4113   -1.6118    1.2182 C   0  0  0  0  0  0  0  0  0  0  0  0
   -4.2138    1.2343    0.1714 C   0  0  0  0  0  0  0  0  0  0  0  0
   -5.3628    0.8386    0.0324 O   0  0  0  0  0  0  0  0  0  0  0  0
   -3.9417    2.6762    0.2350 C   0  0  0  0  0  0  0  0  0  0  0  0
   -2.7427    3.0897   -0.5414 C   0  0  0  0  0  0  0  0  0  0  0  0
   -1.7356    2.0470   -0.7735 C   0  0  0  0  0  0  0  0  0  0  0  0
    1.3199    1.1003    0.3123 C   0  0  0  0  0  0  0  0  0  0  0  0
    2.6012    0.6485    0.4437 C   0  0  0  0  0  0  0  0  0  0  0  0
    5.2773   -1.1467   -1.6922 H   0  0  0  0  0  0  0  0  0  0  0  0
    7.5311   -1.9621   -0.7462 H   0  0  0  0  0  0  0  0  0  0  0  0
    6.0438   -2.9677   -0.4821 H   0  0  0  0  0  0  0  0  0  0  0  0
    6.7132   -1.8973    0.8392 H   0  0  0  0  0  0  0  0  0  0  0  0
    7.5199    0.3283   -1.4877 H   0  0  0  0  0  0  0  0  0  0  0  0
    5.9586    1.2336   -1.2483 H   0  0  0  0  0  0  0  0  0  0  0  0
    8.1926    2.1869    1.5297 H   0  0  0  0  0  0  0  0  0  0  0  0
    2.8672   -2.3184   -0.8463 H   0  0  0  0  0  0  0  0  0  0  0  0
    0.3641   -1.8244   -1.2429 H   0  0  0  0  0  0  0  0  0  0  0  0
   -0.8283   -0.1609    0.8623 H   0  0  0  0  0  0  0  0  0  0  0  0
   -2.4910   -1.6692   -0.0333 H   0  0  0  0  0  0  0  0  0  0  0  0
   -3.0070   -1.2585    1.6514 H   0  0  0  0  0  0  0  0  0  0  0  0
   -4.0521   -1.5179   -1.9108 H   0  0  0  0  0  0  0  0  0  0  0  0
   -8.1859   -1.9497   -0.7228 H   0  0  0  0  0  0  0  0  0  0  0  0
   -7.5221   -1.9784    1.6315 H   0  0  0  0  0  0  0  0  0  0  0  0
   -5.1742   -1.6606    2.2600 H   0  0  0  0  0  0  0  0  0  0  0  0
   -4.8023    3.3085   -0.0434 H   0  0  0  0  0  0  0  0  0  0  0  0
   -3.7343    2.8982    1.3313 H   0  0  0  0  0  0  0  0  0  0  0  0
   -3.0753    3.5899   -1.5014 H   0  0  0  0  0  0  0  0  0  0  0  0
   -2.1944    3.9522   -0.0451 H   0  0  0  0  0  0  0  0  0  0  0  0
   -0.7314    2.4597   -0.8298 H   0  0  0  0  0  0  0  0  0  0  0  0
   -1.9080    1.7077   -1.8882 H   0  0  0  0  0  0  0  0  0  0  0  0
    1.0537    2.0774    0.6871 H   0  0  0  0  0  0  0  0  0  0  0  0
    3.2971    1.4669    0.8180 H   0  0  0  0  0  0  0  0  0  0  0  0
  1  2  1  0
  1  3  1  0
  3  4  1  0
  4  5  1  0
  4  6  2  0
  6  7  1  0
  7  8  2  0
  8  9  1  0
  9 10  2  0
 10 11  1  0
 11 12  2  0
 12 13  1  0
 13 14  1  0
 14 15  2  0
 15 16  1  0
 16 17  1  0
 17 18  2  0
 18 19  1  0
 19 20  1  0
 19 21  2  0
 21 22  1  0
 22 23  2  0
 15 24  1  0
 24 25  2  0
 24 26  1  0
 26 27  1  0
 27 28  1  0
 12 29  1  0
 29 30  2  0
  8  1  1  0
 30  9  1  0
 28 14  1  0
 23 17  1  0
  1 31  1  6
  2 32  1  0
  2 33  1  0
  2 34  1  0
  3 35  1  0
  3 36  1  0
  5 37  1  0
 10 38  1  0
 11 39  1  0
 13 40  1  0
 16 41  1  0
 16 42  1  0
 18 43  1  0
 21 44  1  0
 22 45  1  0
 23 46  1  0
 26 47  1  0
 26 48  1  0
 27 49  1  0
 27 50  1  0
 28 51  1  0
 28 52  1  0
 29 53  1  0
 30 54  1  0
M  END
$$$$
