
     RDKit          3D

 42 45  0  0  0  0  0  0  0  0999 V2000
    4.8880    2.0000    1.3637 N   0  0  0  0  0  0  0  0  0  0  0  0
    3.6249    1.4259    1.1236 C   0  0  0  0  0  0  0  0  0  0  0  0
    2.7720    1.4173    2.0292 O   0  0  0  0  0  0  0  0  0  0  0  0
    3.3249    0.8489   -0.1703 C   0  0  0  0  0  0  0  0  0  0  0  0
    4.1882    0.8688   -1.2648 C   0  0  0  0  0  0  0  0  0  0  0  0
    3.5403    0.2332   -2.2475 N   0  0  0  0  0  0  0  0  0  0  0  0
    2.3224   -0.1777   -1.8165 C   0  0  0  0  0  0  0  0  0  0  0  0
    1.3005   -0.8681   -2.4417 C   0  0  0  0  0  0  0  0  0  0  0  0
    0.1328   -1.1642   -1.7238 C   0  0  0  0  0  0  0  0  0  0  0  0
    0.0085   -0.7725   -0.4157 C   0  0  0  0  0  0  0  0  0  0  0  0
   -1.1981   -1.0986    0.3162 C   0  0  0  0  0  0  0  0  0  0  0  0
   -2.1522   -0.1749    0.7206 C   0  0  0  0  0  0  0  0  0  0  0  0
   -2.1860    1.2758    0.4986 C   0  0  0  0  0  0  0  0  0  0  0  0
   -2.8336    1.8229   -0.5925 C   0  0  0  0  0  0  0  0  0  0  0  0
   -2.8827    3.1888   -0.8108 C   0  0  0  0  0  0  0  0  0  0  0  0
   -2.2732    4.0511    0.0750 C   0  0  0  0  0  0  0  0  0  0  0  0
   -2.2953    5.4024   -0.0975 F   0  0  0  0  0  0  0  0  0  0  0  0
   -1.6146    3.5056    1.1827 C   0  0  0  0  0  0  0  0  0  0  0  0
   -1.5756    2.1315    1.3859 C   0  0  0  0  0  0  0  0  0  0  0  0
   -0.9263    1.6544    2.4703 F   0  0  0  0  0  0  0  0  0  0  0  0
   -3.1155   -0.8313    1.3922 N   0  0  0  0  0  0  0  0  0  0  0  0
   -2.8205   -2.1334    1.4354 C   0  0  0  0  0  0  0  0  0  0  0  0
   -1.6379   -2.2888    0.7696 N   0  0  0  0  0  0  0  0  0  0  0  0
   -0.9990   -3.5556    0.5936 C   0  0  0  0  0  0  0  0  0  0  0  0
   -1.4557   -4.3300   -0.6213 C   0  0  0  0  0  0  0  0  0  0  0  0
   -0.7163   -5.5231   -0.6073 F   0  0  0  0  0  0  0  0  0  0  0  0
   -2.7976   -4.7056   -0.4457 F   0  0  0  0  0  0  0  0  0  0  0  0
    1.0597   -0.0868    0.1540 C   0  0  0  0  0  0  0  0  0  0  0  0
    2.1894    0.2006   -0.5394 N   0  0  0  0  0  0  0  0  0  0  0  0
    5.7544    1.6781    0.8859 H   0  0  0  0  0  0  0  0  0  0  0  0
    4.9792    2.7731    2.0404 H   0  0  0  0  0  0  0  0  0  0  0  0
    5.1907    1.3203   -1.2861 H   0  0  0  0  0  0  0  0  0  0  0  0
    1.4399   -1.1583   -3.4702 H   0  0  0  0  0  0  0  0  0  0  0  0
   -0.6032   -1.6899   -2.2814 H   0  0  0  0  0  0  0  0  0  0  0  0
   -3.3221    1.1771   -1.3073 H   0  0  0  0  0  0  0  0  0  0  0  0
   -3.3856    3.6293   -1.6592 H   0  0  0  0  0  0  0  0  0  0  0  0
   -1.1322    4.1620    1.8865 H   0  0  0  0  0  0  0  0  0  0  0  0
   -3.3707   -2.9541    1.8925 H   0  0  0  0  0  0  0  0  0  0  0  0
    0.1048   -3.4461    0.5034 H   0  0  0  0  0  0  0  0  0  0  0  0
   -1.1525   -4.2404    1.4694 H   0  0  0  0  0  0  0  0  0  0  0  0
   -1.3590   -3.7992   -1.5669 H   0  0  0  0  0  0  0  0  0  0  0  0
    0.9850    0.2315    1.1771 H   0  0  0  0  0  0  0  0  0  0  0  0
  1  2  1  0
  2  3  2  0
  2  4  1  0
  4  5  2  0
  5  6  1  0
  6  7  2  0
  7  8  1  0
  8  9  2  0
  9 10  1  0
 10 11  1  0
 11 12  2  0
 12 13  1  0
 13 14  2  0
 14 15  1  0
 15 16  2  0
 16 17  1  0
 16 18  1  0
 18 19  2  0
 19 20  1  0
 12 21  1  0
 21 22  2  0
 22 23  1  0
 23 24  1  0
 24 25  1  0
 25 26  1  0
 25 27  1  0
 10 28  2  0
 28 29  1  0
 29  4  1  0
 29  7  1  0
 23 11  1  0
 19 13  1  0
  1 30  1  0
  1 31  1  0
  5 32  1  0
  8 33  1  0
  9 34  1  0
 14 35  1  0
 15 36  1  0
 18 37  1  0
 22 38  1  0
 24 39  1  0
 24 40  1  0
 25 41  1  0
 28 42  1  0
M  END
$$$$
