
     RDKit          3D

 42 44  0  0  0  0  0  0  0  0999 V2000
   -2.8356    0.4771    0.6570 C   0  0  1  0  0  0  0  0  0  0  0  0
   -3.4337    1.4379   -0.3444 C   0  0  0  0  0  0  0  0  0  0  0  0
   -4.7395    1.9458    0.2286 C   0  0  0  0  0  0  0  0  0  0  0  0
   -5.7116    0.7850    0.2568 C   0  0  0  0  0  0  0  0  0  0  0  0
   -5.1446   -0.3901    0.8422 N   0  0  0  0  0  0  0  0  0  0  0  0
   -3.8984   -0.1599    1.5195 C   0  0  0  0  0  0  0  0  0  0  0  0
   -2.0189   -0.5240   -0.0213 N   0  0  0  0  0  0  0  0  0  0  0  0
   -0.6172   -0.7511    0.0768 C   0  0  0  0  0  0  0  0  0  0  0  0
    0.1485   -0.0688    0.8130 O   0  0  0  0  0  0  0  0  0  0  0  0
   -0.0223   -1.8246   -0.7087 C   0  0  0  0  0  0  0  0  0  0  0  0
   -0.6583   -2.6674   -1.5539 N   0  0  0  0  0  0  0  0  0  0  0  0
    0.2325   -3.5075   -2.0805 N   0  0  0  0  0  0  0  0  0  0  0  0
    1.4561   -3.2038   -1.5700 C   0  0  0  0  0  0  0  0  0  0  0  0
    1.3250   -2.1263   -0.6850 C   0  0  0  0  0  0  0  0  0  0  0  0
    2.3736   -1.5082    0.0554 N   0  0  0  0  0  0  0  0  0  0  0  0
    3.0671   -0.4234   -0.5244 C   0  0  0  0  0  0  0  0  0  0  0  0
    2.5710   -0.2050   -1.6832 O   0  0  0  0  0  0  0  0  0  0  0  0
    4.1601    0.3484    0.0456 C   0  0  0  0  0  0  0  0  0  0  0  0
    4.7997    0.2463    1.2555 C   0  0  0  0  0  0  0  0  0  0  0  0
    4.3264   -0.7418    2.0433 F   0  0  0  0  0  0  0  0  0  0  0  0
    5.8244    1.0582    1.6503 C   0  0  0  0  0  0  0  0  0  0  0  0
    6.2937    2.0614    0.8320 C   0  0  0  0  0  0  0  0  0  0  0  0
    5.6674    2.1834   -0.3876 C   0  0  0  0  0  0  0  0  0  0  0  0
    4.6339    1.3676   -0.7905 C   0  0  0  0  0  0  0  0  0  0  0  0
    4.0968    1.5978   -2.0350 F   0  0  0  0  0  0  0  0  0  0  0  0
   -2.1351    1.0562    1.2923 H   0  0  0  0  0  0  0  0  0  0  0  0
   -2.7719    2.3040   -0.5290 H   0  0  0  0  0  0  0  0  0  0  0  0
   -3.6109    0.8362   -1.2639 H   0  0  0  0  0  0  0  0  0  0  0  0
   -5.1629    2.7752   -0.3467 H   0  0  0  0  0  0  0  0  0  0  0  0
   -4.5336    2.2307    1.2808 H   0  0  0  0  0  0  0  0  0  0  0  0
   -6.6390    1.1339    0.7961 H   0  0  0  0  0  0  0  0  0  0  0  0
   -6.0554    0.5153   -0.7610 H   0  0  0  0  0  0  0  0  0  0  0  0
   -5.2127   -1.2538    0.2972 H   0  0  0  0  0  0  0  0  0  0  0  0
   -4.1022    0.5374    2.3728 H   0  0  0  0  0  0  0  0  0  0  0  0
   -3.5463   -1.1202    1.9201 H   0  0  0  0  0  0  0  0  0  0  0  0
   -2.6042   -1.1382   -0.6624 H   0  0  0  0  0  0  0  0  0  0  0  0
    0.0543   -4.2883   -2.7785 H   0  0  0  0  0  0  0  0  0  0  0  0
    2.4210   -3.6602   -1.7565 H   0  0  0  0  0  0  0  0  0  0  0  0
    2.6586   -1.8163    1.0102 H   0  0  0  0  0  0  0  0  0  0  0  0
    6.2357    0.8587    2.6402 H   0  0  0  0  0  0  0  0  0  0  0  0
    7.0974    2.6613    1.1999 H   0  0  0  0  0  0  0  0  0  0  0  0
    6.0110    2.9612   -1.0551 H   0  0  0  0  0  0  0  0  0  0  0  0
  1  2  1  0
  2  3  1  0
  3  4  1  0
  4  5  1  0
  5  6  1  0
  1  7  1  0
  7  8  1  0
  8  9  2  0
  8 10  1  0
 10 11  2  0
 11 12  1  0
 12 13  1  0
 13 14  2  0
 14 15  1  0
 15 16  1  0
 16 17  2  0
 16 18  1  0
 18 19  2  0
 19 20  1  0
 19 21  1  0
 21 22  2  0
 22 23  1  0
 23 24  2  0
 24 25  1  0
  6  1  1  0
 14 10  1  0
 24 18  1  0
  1 26  1  1
  2 27  1  0
  2 28  1  0
  3 29  1  0
  3 30  1  0
  4 31  1  0
  4 32  1  0
  5 33  1  0
  6 34  1  0
  6 35  1  0
  7 36  1  0
 12 37  1  0
 13 38  1  0
 15 39  1  0
 21 40  1  0
 22 41  1  0
 23 42  1  0
M  END
$$$$
