
     RDKit          3D

 97100  0  0  0  0  0  0  0  0999 V2000
   -1.8553    0.6395    1.6719 C   0  0  1  0  0  0  0  0  0  0  0  0
   -2.6264   -0.5978    1.4256 C   0  0  0  0  0  0  0  0  0  0  0  0
   -2.9731   -0.8109   -0.0345 C   0  0  0  0  0  0  0  0  0  0  0  0
   -3.7383   -2.0587   -0.2308 C   0  0  0  0  0  0  0  0  0  0  0  0
   -5.1348   -2.0628   -0.1670 C   0  0  0  0  0  0  0  0  0  0  0  0
   -5.9327   -3.1697   -0.3371 C   0  0  0  0  0  0  0  0  0  0  0  0
   -7.3055   -3.0971   -0.2603 O   0  0  0  0  0  0  0  0  0  0  0  0
   -7.8819   -1.8202    0.0040 C   0  0  0  0  0  0  0  0  0  0  0  0
   -5.2748   -4.3517   -0.5884 C   0  0  0  0  0  0  0  0  0  0  0  0
   -6.0170   -5.5111   -0.7705 O   0  0  0  0  0  0  0  0  0  0  0  0
   -5.3434   -6.7296   -1.0293 C   0  0  0  0  0  0  0  0  0  0  0  0
   -3.8936   -4.4534   -0.6714 C   0  0  0  0  0  0  0  0  0  0  0  0
   -3.1679   -3.2905   -0.4876 C   0  0  0  0  0  0  0  0  0  0  0  0
   -0.6253    0.7646    1.0393 O   0  0  0  0  0  0  0  0  0  0  0  0
    0.5986    0.8669    1.6733 C   0  0  0  0  0  0  0  0  0  0  0  0
    0.6027    0.8478    2.9140 O   0  0  0  0  0  0  0  0  0  0  0  0
    1.8751    0.9957    0.9299 C   0  0  2  0  0  0  0  0  0  0  0  0
    2.5733    2.3039    1.2269 C   0  0  0  0  0  0  0  0  0  0  0  0
    1.7365    3.4680    0.7404 C   0  0  0  0  0  0  0  0  0  0  0  0
    1.5851    3.4221   -0.7522 C   0  0  0  0  0  0  0  0  0  0  0  0
    1.0283    2.0828   -1.1473 C   0  0  0  0  0  0  0  0  0  0  0  0
    1.6769    0.9622   -0.5057 N   0  0  0  0  0  0  0  0  0  0  0  0
    2.1069   -0.1598   -1.2642 C   0  0  0  0  0  0  0  0  0  0  0  0
    1.7528    0.1720   -2.4189 O   0  0  0  0  0  0  0  0  0  0  0  0
    2.7794   -1.3641   -0.7975 C   0  0  1  0  0  0  0  0  0  0  0  0
    2.9117   -2.3994   -1.8841 C   0  0  0  0  0  0  0  0  0  0  0  0
    3.6926   -1.9619   -3.0808 C   0  0  0  0  0  0  0  0  0  0  0  0
    4.1076   -1.1334   -0.1670 C   0  0  0  0  0  0  0  0  0  0  0  0
    4.6080   -1.7586    0.9593 C   0  0  0  0  0  0  0  0  0  0  0  0
    5.8567   -1.4382    1.4445 C   0  0  0  0  0  0  0  0  0  0  0  0
    6.3642   -2.0574    2.5698 O   0  0  0  0  0  0  0  0  0  0  0  0
    5.6878   -3.0335    3.3017 C   0  0  0  0  0  0  0  0  0  0  0  0
    6.6542   -0.4904    0.8358 C   0  0  0  0  0  0  0  0  0  0  0  0
    7.9265   -0.1604    1.3245 O   0  0  0  0  0  0  0  0  0  0  0  0
    8.9967   -0.9266    0.7951 C   0  0  0  0  0  0  0  0  0  0  0  0
    6.1660    0.1506   -0.3012 C   0  0  0  0  0  0  0  0  0  0  0  0
    6.9994    1.0991   -0.8866 O   0  0  0  0  0  0  0  0  0  0  0  0
    6.6444    1.8263   -2.0363 C   0  0  0  0  0  0  0  0  0  0  0  0
    4.9009   -0.1703   -0.7974 C   0  0  0  0  0  0  0  0  0  0  0  0
   -2.7495    1.8142    1.4983 C   0  0  0  0  0  0  0  0  0  0  0  0
   -2.9493    2.4587    0.2744 C   0  0  0  0  0  0  0  0  0  0  0  0
   -3.7752    3.5507    0.0958 C   0  0  0  0  0  0  0  0  0  0  0  0
   -3.8513    4.0631   -1.1886 O   0  0  0  0  0  0  0  0  0  0  0  0
   -4.6604    5.1639   -1.5023 C   0  0  0  0  0  0  0  0  0  0  0  0
   -6.0826    4.7848   -1.1976 C   0  0  0  0  0  0  0  0  0  0  0  0
   -6.9308    5.8533   -1.4668 O   0  0  0  0  0  0  0  0  0  0  0  0
   -6.7410    3.7768   -0.7665 O   0  0  0  0  0  0  0  0  0  0  0  0
   -4.4388    4.0286    1.1920 C   0  0  0  0  0  0  0  0  0  0  0  0
   -4.2830    3.4354    2.4267 C   0  0  0  0  0  0  0  0  0  0  0  0
   -3.4542    2.3457    2.5874 C   0  0  0  0  0  0  0  0  0  0  0  0
   -1.5883    0.6386    2.7715 H   0  0  0  0  0  0  0  0  0  0  0  0
   -3.6131   -0.4779    1.9268 H   0  0  0  0  0  0  0  0  0  0  0  0
   -2.1971   -1.5114    1.8974 H   0  0  0  0  0  0  0  0  0  0  0  0
   -3.6703    0.0222   -0.2957 H   0  0  0  0  0  0  0  0  0  0  0  0
   -2.1133   -0.7072   -0.7080 H   0  0  0  0  0  0  0  0  0  0  0  0
   -5.5814   -1.0817    0.0375 H   0  0  0  0  0  0  0  0  0  0  0  0
   -7.6130   -1.4778    1.0209 H   0  0  0  0  0  0  0  0  0  0  0  0
   -7.4772   -1.0638   -0.7084 H   0  0  0  0  0  0  0  0  0  0  0  0
   -8.9816   -1.8916   -0.1406 H   0  0  0  0  0  0  0  0  0  0  0  0
   -4.7842   -7.0259   -0.1181 H   0  0  0  0  0  0  0  0  0  0  0  0
   -4.6126   -6.5920   -1.8590 H   0  0  0  0  0  0  0  0  0  0  0  0
   -6.1183   -7.4869   -1.2849 H   0  0  0  0  0  0  0  0  0  0  0  0
   -3.3377   -5.3498   -0.8647 H   0  0  0  0  0  0  0  0  0  0  0  0
   -2.0862   -3.3257   -0.5447 H   0  0  0  0  0  0  0  0  0  0  0  0
    2.5263    0.1862    1.3091 H   0  0  0  0  0  0  0  0  0  0  0  0
    3.5568    2.2763    0.7380 H   0  0  0  0  0  0  0  0  0  0  0  0
    2.6807    2.3953    2.3256 H   0  0  0  0  0  0  0  0  0  0  0  0
    2.2308    4.3817    1.1114 H   0  0  0  0  0  0  0  0  0  0  0  0
    0.7387    3.4087    1.1778 H   0  0  0  0  0  0  0  0  0  0  0  0
    2.6245    3.4700   -1.1712 H   0  0  0  0  0  0  0  0  0  0  0  0
    0.9725    4.2282   -1.1507 H   0  0  0  0  0  0  0  0  0  0  0  0
    1.2233    1.9965   -2.2537 H   0  0  0  0  0  0  0  0  0  0  0  0
   -0.0708    2.0507   -1.0527 H   0  0  0  0  0  0  0  0  0  0  0  0
    2.1713   -1.8632    0.0108 H   0  0  0  0  0  0  0  0  0  0  0  0
    1.8649   -2.6151   -2.2450 H   0  0  0  0  0  0  0  0  0  0  0  0
    3.3114   -3.3180   -1.4326 H   0  0  0  0  0  0  0  0  0  0  0  0
    3.7046   -2.8546   -3.7762 H   0  0  0  0  0  0  0  0  0  0  0  0
    3.2021   -1.1542   -3.6562 H   0  0  0  0  0  0  0  0  0  0  0  0
    4.7281   -1.6369   -2.8733 H   0  0  0  0  0  0  0  0  0  0  0  0
    3.9666   -2.4923    1.4120 H   0  0  0  0  0  0  0  0  0  0  0  0
    4.9845   -3.6503    2.7372 H   0  0  0  0  0  0  0  0  0  0  0  0
    5.2043   -2.6178    4.2184 H   0  0  0  0  0  0  0  0  0  0  0  0
    6.4678   -3.7393    3.7127 H   0  0  0  0  0  0  0  0  0  0  0  0
    9.9715   -0.5542    1.1550 H   0  0  0  0  0  0  0  0  0  0  0  0
    8.8944   -2.0067    1.0124 H   0  0  0  0  0  0  0  0  0  0  0  0
    8.9736   -0.7869   -0.3066 H   0  0  0  0  0  0  0  0  0  0  0  0
    5.8705    2.5844   -1.7417 H   0  0  0  0  0  0  0  0  0  0  0  0
    6.2223    1.1404   -2.7935 H   0  0  0  0  0  0  0  0  0  0  0  0
    7.5507    2.3586   -2.4040 H   0  0  0  0  0  0  0  0  0  0  0  0
    4.6650    0.4215   -1.6892 H   0  0  0  0  0  0  0  0  0  0  0  0
   -2.4097    2.0459   -0.5413 H   0  0  0  0  0  0  0  0  0  0  0  0
   -4.5844    5.3837   -2.5917 H   0  0  0  0  0  0  0  0  0  0  0  0
   -4.4497    6.0725   -0.8904 H   0  0  0  0  0  0  0  0  0  0  0  0
   -7.9298    5.7559   -1.5955 H   0  0  0  0  0  0  0  0  0  0  0  0
   -5.0826    4.8833    1.0793 H   0  0  0  0  0  0  0  0  0  0  0  0
   -4.8295    3.8456    3.2808 H   0  0  0  0  0  0  0  0  0  0  0  0
   -3.3226    1.8658    3.5623 H   0  0  0  0  0  0  0  0  0  0  0  0
  1  2  1  0
  2  3  1  0
  3  4  1  0
  4  5  2  0
  5  6  1  0
  6  7  1  0
  7  8  1  0
  6  9  2  0
  9 10  1  0
 10 11  1  0
  9 12  1  0
 12 13  2  0
  1 14  1  0
 14 15  1  0
 15 16  2  0
 15 17  1  0
 17 18  1  0
 18 19  1  0
 19 20  1  0
 20 21  1  0
 21 22  1  0
 22 23  1  0
 23 24  2  0
 23 25  1  0
 25 26  1  0
 26 27  1  0
 25 28  1  0
 28 29  2  0
 29 30  1  0
 30 31  1  0
 31 32  1  0
 30 33  2  0
 33 34  1  0
 34 35  1  0
 33 36  1  0
 36 37  1  0
 37 38  1  0
 36 39  2  0
  1 40  1  0
 40 41  2  0
 41 42  1  0
 42 43  1  0
 43 44  1  0
 44 45  1  0
 45 46  1  0
 45 47  2  0
 42 48  2  0
 48 49  1  0
 49 50  2  0
 13  4  1  0
 22 17  1  0
 39 28  1  0
 50 40  1  0
  1 51  1  1
  2 52  1  0
  2 53  1  0
  3 54  1  0
  3 55  1  0
  5 56  1  0
  8 57  1  0
  8 58  1  0
  8 59  1  0
 11 60  1  0
 11 61  1  0
 11 62  1  0
 12 63  1  0
 13 64  1  0
 17 65  1  1
 18 66  1  0
 18 67  1  0
 19 68  1  0
 19 69  1  0
 20 70  1  0
 20 71  1  0
 21 72  1  0
 21 73  1  0
 25 74  1  1
 26 75  1  0
 26 76  1  0
 27 77  1  0
 27 78  1  0
 27 79  1  0
 29 80  1  0
 32 81  1  0
 32 82  1  0
 32 83  1  0
 35 84  1  0
 35 85  1  0
 35 86  1  0
 38 87  1  0
 38 88  1  0
 38 89  1  0
 39 90  1  0
 41 91  1  0
 44 92  1  0
 44 93  1  0
 46 94  1  0
 48 95  1  0
 49 96  1  0
 50 97  1  0
M  END
$$$$
