
     RDKit          3D

 56 59  0  0  0  0  0  0  0  0999 V2000
   -0.7477   -0.6279    1.1316 C   0  0  2  0  0  0  0  0  0  0  0  0
   -1.4238   -1.7943    1.7472 C   0  0  0  0  0  0  0  0  0  0  0  0
   -2.8472   -1.2414    1.9056 C   0  0  0  0  0  0  0  0  0  0  0  0
   -3.0042   -0.2330    0.7862 C   0  0  2  0  0  0  0  0  0  0  0  0
   -3.2193    1.0364    1.3176 O   0  0  0  0  0  0  0  0  0  0  0  0
   -4.1419   -0.6672   -0.0728 C   0  0  0  0  0  0  0  0  0  0  0  0
   -4.4317   -1.6694   -0.7447 O   0  0  0  0  0  0  0  0  0  0  0  0
   -5.3215    0.2425   -0.2724 C   0  0  0  0  0  0  0  0  0  0  0  0
   -5.1557    1.4554    0.4350 O   0  0  0  0  0  0  0  0  0  0  0  0
   -1.6799   -0.1896    0.0542 C   0  0  2  0  0  0  0  0  0  0  0  0
   -1.6779   -1.0717   -1.1663 C   0  0  0  0  0  0  0  0  0  0  0  0
   -1.2658    1.1895   -0.3709 C   0  0  0  0  0  0  0  0  0  0  0  0
    0.1882    1.4432   -0.4493 C   0  0  2  0  0  0  0  0  0  0  0  0
    0.4867    1.6980   -1.7906 O   0  0  0  0  0  0  0  0  0  0  0  0
    1.1269    0.5225    0.1887 C   0  0  1  0  0  0  0  0  0  0  0  0
    1.4348    0.9766    1.4859 F   0  0  0  0  0  0  0  0  0  0  0  0
    0.5754   -0.8833    0.4741 C   0  0  1  0  0  0  0  0  0  0  0  0
    1.4289   -1.6376    1.4388 C   0  0  0  0  0  0  0  0  0  0  0  0
    2.8408   -1.7648    0.9692 C   0  0  0  0  0  0  0  0  0  0  0  0
    3.2872   -0.3786    0.5887 C   0  0  0  0  0  0  0  0  0  0  0  0
    4.3721    0.1080    1.2162 C   0  0  0  0  0  0  0  0  0  0  0  0
    4.8386    1.4262    0.8889 C   0  0  0  0  0  0  0  0  0  0  0  0
    6.0428    1.6805    1.1281 O   0  0  0  0  0  0  0  0  0  0  0  0
    3.7765    2.3107    0.2959 C   0  0  0  0  0  0  0  0  0  0  0  0
    3.2158    1.5097   -0.8555 C   0  0  0  0  0  0  0  0  0  0  0  0
    2.4539    0.2929   -0.4547 C   0  0  2  0  0  0  0  0  0  0  0  0
    2.3505   -0.5881   -1.6914 C   0  0  0  0  0  0  0  0  0  0  0  0
   -0.6181    0.1777    1.8591 H   0  0  0  0  0  0  0  0  0  0  0  0
   -0.9693   -2.0201    2.7258 H   0  0  0  0  0  0  0  0  0  0  0  0
   -1.4079   -2.6987    1.1224 H   0  0  0  0  0  0  0  0  0  0  0  0
   -3.5983   -2.0390    1.8937 H   0  0  0  0  0  0  0  0  0  0  0  0
   -2.8350   -0.6948    2.8937 H   0  0  0  0  0  0  0  0  0  0  0  0
   -3.6662    1.0421    2.1928 H   0  0  0  0  0  0  0  0  0  0  0  0
   -5.4884    0.5092   -1.3160 H   0  0  0  0  0  0  0  0  0  0  0  0
   -6.2648   -0.2488    0.0954 H   0  0  0  0  0  0  0  0  0  0  0  0
   -5.8833    2.0384    0.0901 H   0  0  0  0  0  0  0  0  0  0  0  0
   -1.6260   -2.1404   -0.9733 H   0  0  0  0  0  0  0  0  0  0  0  0
   -2.5595   -0.7590   -1.7968 H   0  0  0  0  0  0  0  0  0  0  0  0
   -0.8068   -0.7391   -1.8029 H   0  0  0  0  0  0  0  0  0  0  0  0
   -1.8000    1.3624   -1.3313 H   0  0  0  0  0  0  0  0  0  0  0  0
   -1.8075    1.8854    0.3281 H   0  0  0  0  0  0  0  0  0  0  0  0
    0.3450    2.4626    0.0229 H   0  0  0  0  0  0  0  0  0  0  0  0
    0.1293    2.5855   -2.0606 H   0  0  0  0  0  0  0  0  0  0  0  0
    0.5059   -1.4902   -0.4382 H   0  0  0  0  0  0  0  0  0  0  0  0
    1.3940   -1.2326    2.4708 H   0  0  0  0  0  0  0  0  0  0  0  0
    1.0135   -2.6603    1.5022 H   0  0  0  0  0  0  0  0  0  0  0  0
    3.0197   -2.5078    0.1948 H   0  0  0  0  0  0  0  0  0  0  0  0
    3.4293   -2.1288    1.8612 H   0  0  0  0  0  0  0  0  0  0  0  0
    4.8577   -0.5251    1.9546 H   0  0  0  0  0  0  0  0  0  0  0  0
    3.0327    2.6193    1.0347 H   0  0  0  0  0  0  0  0  0  0  0  0
    4.2008    3.2381   -0.1420 H   0  0  0  0  0  0  0  0  0  0  0  0
    2.7646    2.1391   -1.6342 H   0  0  0  0  0  0  0  0  0  0  0  0
    4.1337    1.0967   -1.3790 H   0  0  0  0  0  0  0  0  0  0  0  0
    2.2525   -1.6539   -1.4732 H   0  0  0  0  0  0  0  0  0  0  0  0
    1.4920   -0.3246   -2.3392 H   0  0  0  0  0  0  0  0  0  0  0  0
    3.2579   -0.4380   -2.3372 H   0  0  0  0  0  0  0  0  0  0  0  0
  1  2  1  0
  2  3  1  0
  3  4  1  0
  4  5  1  1
  4  6  1  0
  6  7  2  0
  6  8  1  0
  8  9  1  0
  4 10  1  0
 10 11  1  6
 10 12  1  0
 12 13  1  0
 13 14  1  0
 13 15  1  0
 15 16  1  1
 15 17  1  0
 17 18  1  0
 18 19  1  0
 19 20  1  0
 20 21  2  0
 21 22  1  0
 22 23  2  0
 22 24  1  0
 24 25  1  0
 25 26  1  0
 26 27  1  6
 10  1  1  0
 26 15  1  0
 17  1  1  0
 26 20  1  0
  1 28  1  1
  2 29  1  0
  2 30  1  0
  3 31  1  0
  3 32  1  0
  5 33  1  0
  8 34  1  0
  8 35  1  0
  9 36  1  0
 11 37  1  0
 11 38  1  0
 11 39  1  0
 12 40  1  0
 12 41  1  0
 13 42  1  1
 14 43  1  0
 17 44  1  6
 18 45  1  0
 18 46  1  0
 19 47  1  0
 19 48  1  0
 21 49  1  0
 24 50  1  0
 24 51  1  0
 25 52  1  0
 25 53  1  0
 27 54  1  0
 27 55  1  0
 27 56  1  0
M  END
$$$$
