
     RDKit          3D

 41 44  0  0  0  0  0  0  0  0999 V2000
   -5.4655   -2.0448   -1.8283 F   0  0  0  0  0  0  0  0  0  0  0  0
   -4.5178   -1.2287   -1.3313 C   0  0  0  0  0  0  0  0  0  0  0  0
   -4.3651   -1.1002    0.0398 C   0  0  0  0  0  0  0  0  0  0  0  0
   -3.4044   -0.2718    0.5312 C   0  0  0  0  0  0  0  0  0  0  0  0
   -2.5506    0.4679   -0.2967 C   0  0  0  0  0  0  0  0  0  0  0  0
   -1.5307    1.3504    0.2644 C   0  0  0  0  0  0  0  0  0  0  0  0
   -1.6557    2.6144    0.6817 N   0  0  0  0  0  0  0  0  0  0  0  0
   -0.5065    3.1092    1.1415 C   0  0  0  0  0  0  0  0  0  0  0  0
    0.4110    2.1295    1.0206 N   0  0  0  0  0  0  0  0  0  0  0  0
    1.7974    2.2004    1.3623 C   0  0  0  0  0  0  0  0  0  0  0  0
    2.7010    2.7785    0.3463 C   0  0  0  0  0  0  0  0  0  0  0  0
    2.7585    2.1326   -0.9858 C   0  0  0  0  0  0  0  0  0  0  0  0
    3.6900    2.8685   -1.7421 F   0  0  0  0  0  0  0  0  0  0  0  0
    1.5557    2.1641   -1.6640 F   0  0  0  0  0  0  0  0  0  0  0  0
    3.2331    0.8442   -0.9562 F   0  0  0  0  0  0  0  0  0  0  0  0
   -0.1785    1.0427    0.4899 C   0  0  0  0  0  0  0  0  0  0  0  0
    0.3904   -0.2506    0.2014 C   0  0  0  0  0  0  0  0  0  0  0  0
    0.4613   -0.7191   -1.0845 C   0  0  0  0  0  0  0  0  0  0  0  0
    1.0023   -1.9738   -1.3774 C   0  0  0  0  0  0  0  0  0  0  0  0
    1.4760   -2.7576   -0.3487 C   0  0  0  0  0  0  0  0  0  0  0  0
    2.0419   -3.9779   -0.2836 N   0  0  0  0  0  0  0  0  0  0  0  0
    2.3171   -4.2674    0.9980 C   0  0  0  0  0  0  0  0  0  0  0  0
    1.9125   -3.1958    1.7655 C   0  0  0  0  0  0  0  0  0  0  0  0
    1.4053   -2.2956    0.9124 N   0  0  0  0  0  0  0  0  0  0  0  0
    0.8746   -1.0686    1.1902 C   0  0  0  0  0  0  0  0  0  0  0  0
   -2.7057    0.3374   -1.6345 C   0  0  0  0  0  0  0  0  0  0  0  0
   -3.6688   -0.4930   -2.1613 C   0  0  0  0  0  0  0  0  0  0  0  0
   -3.8844   -0.6767   -3.8792 Cl  0  0  0  0  0  0  0  0  0  0  0  0
   -5.0047   -1.6537    0.7433 H   0  0  0  0  0  0  0  0  0  0  0  0
   -3.2520   -0.1432    1.5942 H   0  0  0  0  0  0  0  0  0  0  0  0
   -0.3210    4.1210    1.5468 H   0  0  0  0  0  0  0  0  0  0  0  0
    1.8741    2.8661    2.2742 H   0  0  0  0  0  0  0  0  0  0  0  0
    2.1228    1.1943    1.7296 H   0  0  0  0  0  0  0  0  0  0  0  0
    3.7497    2.7207    0.7691 H   0  0  0  0  0  0  0  0  0  0  0  0
    2.5107    3.8861    0.2902 H   0  0  0  0  0  0  0  0  0  0  0  0
    0.1105   -0.1472   -1.9178 H   0  0  0  0  0  0  0  0  0  0  0  0
    1.0717   -2.3694   -2.3760 H   0  0  0  0  0  0  0  0  0  0  0  0
    2.7838   -5.1982    1.3610 H   0  0  0  0  0  0  0  0  0  0  0  0
    2.0080   -3.1392    2.8538 H   0  0  0  0  0  0  0  0  0  0  0  0
    0.8316   -0.7371    2.2045 H   0  0  0  0  0  0  0  0  0  0  0  0
   -2.0796    0.8817   -2.3189 H   0  0  0  0  0  0  0  0  0  0  0  0
  1  2  1  0
  2  3  2  0
  3  4  1  0
  4  5  2  0
  5  6  1  0
  6  7  1  0
  7  8  2  0
  8  9  1  0
  9 10  1  0
 10 11  1  0
 11 12  1  0
 12 13  1  0
 12 14  1  0
 12 15  1  0
  9 16  1  0
 16 17  1  0
 17 18  1  0
 18 19  2  0
 19 20  1  0
 20 21  2  0
 21 22  1  0
 22 23  2  0
 23 24  1  0
 24 25  1  0
  5 26  1  0
 26 27  2  0
 27 28  1  0
 27  2  1  0
 16  6  2  0
 25 17  2  0
 24 20  1  0
  3 29  1  0
  4 30  1  0
  8 31  1  0
 10 32  1  0
 10 33  1  0
 11 34  1  0
 11 35  1  0
 18 36  1  0
 19 37  1  0
 22 38  1  0
 23 39  1  0
 25 40  1  0
 26 41  1  0
M  END
$$$$
