
     RDKit          3D

 42 44  0  0  0  0  0  0  0  0999 V2000
    4.4955   -0.9744   -0.0902 C   0  0  0  0  0  0  0  0  0  0  0  0
    3.4588   -0.0186   -0.3345 N   0  0  0  0  0  0  0  0  0  0  0  0
    3.0068    0.6748    0.8307 C   0  0  0  0  0  0  0  0  0  0  0  0
    1.5269    0.8604    0.9197 C   0  0  0  0  0  0  0  0  0  0  0  0
    0.7105   -0.1509    0.4435 N   0  0  0  0  0  0  0  0  0  0  0  0
    1.3002   -1.1800   -0.2626 C   0  0  0  0  0  0  0  0  0  0  0  0
    2.4101   -0.5778   -1.1382 C   0  0  0  0  0  0  0  0  0  0  0  0
   -0.6372   -0.0535    0.7350 C   0  0  0  0  0  0  0  0  0  0  0  0
   -1.5282   -1.1413    0.2647 C   0  0  0  0  0  0  0  0  0  0  0  0
   -2.7190   -0.7929   -0.3746 C   0  0  0  0  0  0  0  0  0  0  0  0
   -3.5963   -1.7696   -0.8327 C   0  0  0  0  0  0  0  0  0  0  0  0
   -3.2571   -3.0990   -0.6377 C   0  0  0  0  0  0  0  0  0  0  0  0
   -2.0752   -3.4337   -0.0032 C   0  0  0  0  0  0  0  0  0  0  0  0
   -1.1879   -2.4609    0.4602 C   0  0  0  0  0  0  0  0  0  0  0  0
   -1.1289    1.2823    0.2397 C   0  0  0  0  0  0  0  0  0  0  0  0
   -1.9436    2.0907    1.0170 C   0  0  0  0  0  0  0  0  0  0  0  0
   -2.4188    3.3165    0.6106 C   0  0  0  0  0  0  0  0  0  0  0  0
   -2.0721    3.7781   -0.6385 C   0  0  0  0  0  0  0  0  0  0  0  0
   -1.2681    3.0133   -1.4431 C   0  0  0  0  0  0  0  0  0  0  0  0
   -0.8171    1.7912   -0.9905 C   0  0  0  0  0  0  0  0  0  0  0  0
    5.1853   -0.7021    0.7115 H   0  0  0  0  0  0  0  0  0  0  0  0
    4.1044   -2.0089    0.0430 H   0  0  0  0  0  0  0  0  0  0  0  0
    5.1048   -1.0283   -1.0385 H   0  0  0  0  0  0  0  0  0  0  0  0
    3.4823    1.6780    0.8286 H   0  0  0  0  0  0  0  0  0  0  0  0
    3.3820    0.1523    1.7344 H   0  0  0  0  0  0  0  0  0  0  0  0
    1.2240    1.8285    0.4222 H   0  0  0  0  0  0  0  0  0  0  0  0
    1.2564    1.0563    1.9994 H   0  0  0  0  0  0  0  0  0  0  0  0
    1.8688   -1.9256    0.3730 H   0  0  0  0  0  0  0  0  0  0  0  0
    0.6550   -1.7278   -0.9874 H   0  0  0  0  0  0  0  0  0  0  0  0
    1.9886    0.2297   -1.7710 H   0  0  0  0  0  0  0  0  0  0  0  0
    2.8270   -1.3615   -1.7757 H   0  0  0  0  0  0  0  0  0  0  0  0
   -0.7711   -0.0096    1.8511 H   0  0  0  0  0  0  0  0  0  0  0  0
   -3.0089    0.2377   -0.5402 H   0  0  0  0  0  0  0  0  0  0  0  0
   -4.5205   -1.4828   -1.3290 H   0  0  0  0  0  0  0  0  0  0  0  0
   -3.9562   -3.8357   -1.0032 H   0  0  0  0  0  0  0  0  0  0  0  0
   -1.9135   -4.4857    0.0941 H   0  0  0  0  0  0  0  0  0  0  0  0
   -0.2986   -2.7764    0.9401 H   0  0  0  0  0  0  0  0  0  0  0  0
   -2.2426    1.7709    2.0048 H   0  0  0  0  0  0  0  0  0  0  0  0
   -3.0484    3.9188    1.2368 H   0  0  0  0  0  0  0  0  0  0  0  0
   -2.4028    4.7311   -1.0351 H   0  0  0  0  0  0  0  0  0  0  0  0
   -0.9874    3.3633   -2.4273 H   0  0  0  0  0  0  0  0  0  0  0  0
   -0.1881    1.2233   -1.6560 H   0  0  0  0  0  0  0  0  0  0  0  0
  1  2  1  0
  2  3  1  0
  3  4  1  0
  4  5  1  0
  5  6  1  0
  6  7  1  0
  5  8  1  0
  8  9  1  0
  9 10  2  0
 10 11  1  0
 11 12  2  0
 12 13  1  0
 13 14  2  0
  8 15  1  0
 15 16  2  0
 16 17  1  0
 17 18  2  0
 18 19  1  0
 19 20  2  0
  7  2  1  0
 14  9  1  0
 20 15  1  0
  1 21  1  0
  1 22  1  0
  1 23  1  0
  3 24  1  0
  3 25  1  0
  4 26  1  0
  4 27  1  0
  6 28  1  0
  6 29  1  0
  7 30  1  0
  7 31  1  0
  8 32  1  0
 10 33  1  0
 11 34  1  0
 12 35  1  0
 13 36  1  0
 14 37  1  0
 16 38  1  0
 17 39  1  0
 18 40  1  0
 19 41  1  0
 20 42  1  0
M  END
$$$$
