
     RDKit          3D

 67 71  0  0  0  0  0  0  0  0999 V2000
   -9.8065   -1.3912   -0.2873 C   0  0  0  0  0  0  0  0  0  0  0  0
   -9.7965    0.0213   -0.1553 O   0  0  0  0  0  0  0  0  0  0  0  0
   -8.5588    0.6468   -0.2379 C   0  0  0  0  0  0  0  0  0  0  0  0
   -8.5347    2.0197   -0.1118 C   0  0  0  0  0  0  0  0  0  0  0  0
   -7.3244    2.7025   -0.1859 C   0  0  0  0  0  0  0  0  0  0  0  0
   -6.1542    1.9689   -0.3884 C   0  0  0  0  0  0  0  0  0  0  0  0
   -6.2121    0.6013   -0.5102 C   0  0  0  0  0  0  0  0  0  0  0  0
   -5.0079   -0.2238   -0.7245 C   0  0  2  0  0  0  0  0  0  0  0  0
   -5.4080   -1.3654   -1.4456 O   0  0  0  0  0  0  0  0  0  0  0  0
   -4.4622   -0.6078    0.6290 C   0  0  0  0  0  0  0  0  0  0  0  0
   -2.9738   -0.2426    0.6801 C   0  0  0  0  0  0  0  0  0  0  0  0
   -2.3000   -0.9747   -0.4282 C   0  0  2  0  0  0  0  0  0  0  0  0
   -0.8707   -0.8849   -0.4028 N   0  0  0  0  0  0  0  0  0  0  0  0
   -0.1493   -1.5646   -1.4313 C   0  0  0  0  0  0  0  0  0  0  0  0
    1.0001   -1.6452   -0.4285 C   0  0  0  0  0  0  0  0  0  0  0  0
    1.6445   -0.3657   -0.3216 N   0  0  0  0  0  0  0  0  0  0  0  0
    3.0510   -0.1804   -0.2362 C   0  0  0  0  0  0  0  0  0  0  0  0
    3.7500   -1.2364   -0.2590 O   0  0  0  0  0  0  0  0  0  0  0  0
    3.6498    1.1810   -0.1267 C   0  0  0  0  0  0  0  0  0  0  0  0
    5.1079    1.0366   -0.0539 N   0  0  0  0  0  0  0  0  0  0  0  0
    5.6628    0.3046    1.0212 C   0  0  0  0  0  0  0  0  0  0  0  0
    4.8481   -0.2507    1.9675 N   0  0  0  0  0  0  0  0  0  0  0  0
    5.2950   -0.9543    3.0121 C   0  0  0  0  0  0  0  0  0  0  0  0
    6.6216   -1.1139    3.1211 N   0  0  0  0  0  0  0  0  0  0  0  0
    7.4876   -0.5970    2.2289 C   0  0  0  0  0  0  0  0  0  0  0  0
    8.8362   -0.7665    2.3514 C   0  0  0  0  0  0  0  0  0  0  0  0
    9.7527   -0.2571    1.4657 C   0  0  0  0  0  0  0  0  0  0  0  0
    9.2992    0.4648    0.3934 C   0  0  0  0  0  0  0  0  0  0  0  0
   10.2231    1.0547   -0.6177 C   0  0  0  0  0  0  0  0  0  0  0  0
    9.9880    0.4191   -1.8113 F   0  0  0  0  0  0  0  0  0  0  0  0
   11.5158    0.8421   -0.1935 F   0  0  0  0  0  0  0  0  0  0  0  0
    9.9372    2.3829   -0.7611 F   0  0  0  0  0  0  0  0  0  0  0  0
    7.9179    0.6509    0.2488 C   0  0  0  0  0  0  0  0  0  0  0  0
    7.0061    0.1345    1.1447 C   0  0  0  0  0  0  0  0  0  0  0  0
   -0.1745   -1.6819    0.5627 C   0  0  0  0  0  0  0  0  0  0  0  0
   -2.7532   -0.3653   -1.7539 C   0  0  0  0  0  0  0  0  0  0  0  0
   -3.9932    0.4745   -1.5800 C   0  0  0  0  0  0  0  0  0  0  0  0
   -7.4015   -0.0099   -0.4317 N   0  0  0  0  0  0  0  0  0  0  0  0
  -10.8277   -1.7971   -0.3572 H   0  0  0  0  0  0  0  0  0  0  0  0
   -9.2343   -1.6765   -1.1942 H   0  0  0  0  0  0  0  0  0  0  0  0
   -9.2370   -1.7874    0.5769 H   0  0  0  0  0  0  0  0  0  0  0  0
   -9.4589    2.5756    0.0456 H   0  0  0  0  0  0  0  0  0  0  0  0
   -7.2571    3.7808   -0.0923 H   0  0  0  0  0  0  0  0  0  0  0  0
   -5.2294    2.5290   -0.4405 H   0  0  0  0  0  0  0  0  0  0  0  0
   -5.3592   -1.1731   -2.4301 H   0  0  0  0  0  0  0  0  0  0  0  0
   -5.0068   -0.1757    1.4708 H   0  0  0  0  0  0  0  0  0  0  0  0
   -4.5225   -1.7107    0.7141 H   0  0  0  0  0  0  0  0  0  0  0  0
   -2.9071    0.8504    0.5251 H   0  0  0  0  0  0  0  0  0  0  0  0
   -2.6274   -0.5450    1.6810 H   0  0  0  0  0  0  0  0  0  0  0  0
   -2.6063   -2.0363   -0.4010 H   0  0  0  0  0  0  0  0  0  0  0  0
    0.1828   -0.9718   -2.3001 H   0  0  0  0  0  0  0  0  0  0  0  0
   -0.5068   -2.5816   -1.6914 H   0  0  0  0  0  0  0  0  0  0  0  0
    1.6070   -2.5344   -0.4526 H   0  0  0  0  0  0  0  0  0  0  0  0
    1.0299    0.4795   -0.3067 H   0  0  0  0  0  0  0  0  0  0  0  0
    3.3708    1.8352   -0.9763 H   0  0  0  0  0  0  0  0  0  0  0  0
    3.3421    1.7029    0.8004 H   0  0  0  0  0  0  0  0  0  0  0  0
    5.7170    1.4574   -0.7677 H   0  0  0  0  0  0  0  0  0  0  0  0
    4.6714   -1.4020    3.7711 H   0  0  0  0  0  0  0  0  0  0  0  0
    9.1875   -1.3404    3.2048 H   0  0  0  0  0  0  0  0  0  0  0  0
   10.8161   -0.3940    1.5675 H   0  0  0  0  0  0  0  0  0  0  0  0
    7.5861    1.2276   -0.6112 H   0  0  0  0  0  0  0  0  0  0  0  0
   -0.4869   -2.7286    0.6804 H   0  0  0  0  0  0  0  0  0  0  0  0
    0.0382   -1.1341    1.5028 H   0  0  0  0  0  0  0  0  0  0  0  0
   -2.8807   -1.1840   -2.4700 H   0  0  0  0  0  0  0  0  0  0  0  0
   -1.9659    0.3078   -2.1517 H   0  0  0  0  0  0  0  0  0  0  0  0
   -4.4477    0.5918   -2.5941 H   0  0  0  0  0  0  0  0  0  0  0  0
   -3.7004    1.4755   -1.2453 H   0  0  0  0  0  0  0  0  0  0  0  0
  1  2  1  0
  2  3  1  0
  3  4  2  0
  4  5  1  0
  5  6  2  0
  6  7  1  0
  7  8  1  0
  8  9  1  6
  8 10  1  0
 10 11  1  0
 11 12  1  0
 12 13  1  0
 13 14  1  0
 14 15  1  0
 15 16  1  0
 16 17  1  0
 17 18  2  0
 17 19  1  0
 19 20  1  0
 20 21  1  0
 21 22  2  0
 22 23  1  0
 23 24  2  0
 24 25  1  0
 25 26  2  0
 26 27  1  0
 27 28  2  0
 28 29  1  0
 29 30  1  0
 29 31  1  0
 29 32  1  0
 28 33  1  0
 33 34  2  0
 15 35  1  0
 12 36  1  0
 36 37  1  0
  7 38  2  0
 38  3  1  0
 37  8  1  0
 35 13  1  0
 34 21  1  0
 34 25  1  0
  1 39  1  0
  1 40  1  0
  1 41  1  0
  4 42  1  0
  5 43  1  0
  6 44  1  0
  9 45  1  0
 10 46  1  0
 10 47  1  0
 11 48  1  0
 11 49  1  0
 12 50  1  6
 14 51  1  0
 14 52  1  0
 15 53  1  0
 16 54  1  0
 19 55  1  0
 19 56  1  0
 20 57  1  0
 23 58  1  0
 26 59  1  0
 27 60  1  0
 33 61  1  0
 35 62  1  0
 35 63  1  0
 36 64  1  0
 36 65  1  0
 37 66  1  0
 37 67  1  0
M  END
$$$$
