
     RDKit          3D

 75 82  0  0  0  0  0  0  0  0999 V2000
   -9.6676    3.4055    3.5251 C   0  0  0  0  0  0  0  0  0  0  0  0
   -9.0003    2.5963    2.4735 C   0  0  0  0  0  0  0  0  0  0  0  0
   -9.6214    2.0957    1.4049 N   0  0  0  0  0  0  0  0  0  0  0  0
   -8.7724    1.4200    0.6453 N   0  0  0  0  0  0  0  0  0  0  0  0
   -7.5616    1.4875    1.2453 C   0  0  0  0  0  0  0  0  0  0  0  0
   -6.3347    0.9553    0.8726 C   0  0  0  0  0  0  0  0  0  0  0  0
   -6.2024    0.2140   -0.2832 C   0  0  0  0  0  0  0  0  0  0  0  0
   -4.9339   -0.2943   -0.5993 C   0  0  0  0  0  0  0  0  0  0  0  0
   -4.7207   -1.0767   -1.7924 C   0  0  0  0  0  0  0  0  0  0  0  0
   -5.3894   -2.2623   -1.9576 C   0  0  0  0  0  0  0  0  0  0  0  0
   -5.2272   -3.0566   -3.0782 C   0  0  0  0  0  0  0  0  0  0  0  0
   -4.3463   -2.6160   -4.0638 C   0  0  0  0  0  0  0  0  0  0  0  0
   -3.6588   -1.4300   -3.9293 C   0  0  0  0  0  0  0  0  0  0  0  0
   -3.8578   -0.6597   -2.7734 C   0  0  0  0  0  0  0  0  0  0  0  0
   -3.8521   -0.0610    0.2193 C   0  0  0  0  0  0  0  0  0  0  0  0
   -2.5589   -0.6117   -0.1494 C   0  0  0  0  0  0  0  0  0  0  0  0
   -1.4914    0.2156   -0.4282 C   0  0  0  0  0  0  0  0  0  0  0  0
   -0.2460   -0.2827   -0.7837 C   0  0  0  0  0  0  0  0  0  0  0  0
   -0.0138   -1.6387   -0.8759 C   0  0  0  0  0  0  0  0  0  0  0  0
    1.3105   -2.1656   -1.2568 C   0  0  0  0  0  0  0  0  0  0  0  0
    2.2039   -2.4049   -0.1655 N   0  0  0  0  0  0  0  0  0  0  0  0
    3.4398   -2.9419   -0.6990 C   0  0  0  0  0  0  0  0  0  0  0  0
    4.6480   -2.3848    0.0192 C   0  0  0  0  0  0  0  0  0  0  0  0
    4.7455   -0.9000   -0.3170 C   0  0  0  0  0  0  0  0  0  0  0  0
    5.8691   -0.3418    0.4782 C   0  0  0  0  0  0  0  0  0  0  0  0
    6.0033   -0.2700    1.8120 N   0  0  0  0  0  0  0  0  0  0  0  0
    7.1762    0.3113    2.0736 N   0  0  0  0  0  0  0  0  0  0  0  0
    7.7794    0.6052    0.9158 C   0  0  0  0  0  0  0  0  0  0  0  0
    9.0875    1.2531    0.7460 C   0  0  0  0  0  0  0  0  0  0  0  0
    9.5732    1.4906   -0.5227 C   0  0  0  0  0  0  0  0  0  0  0  0
   10.8104    2.1039   -0.7107 C   0  0  0  0  0  0  0  0  0  0  0  0
   11.5502    2.4740    0.3854 C   0  0  0  0  0  0  0  0  0  0  0  0
   11.0164    2.2126    1.6392 C   0  0  0  0  0  0  0  0  0  0  0  0
    9.8201    1.6195    1.8125 N   0  0  0  0  0  0  0  0  0  0  0  0
    6.9742    0.2028   -0.0621 N   0  0  0  0  0  0  0  0  0  0  0  0
    3.4262   -0.2688   -0.0211 C   0  0  0  0  0  0  0  0  0  0  0  0
    2.4563   -1.2255    0.6334 C   0  0  0  0  0  0  0  0  0  0  0  0
   -1.0916   -2.4674   -0.5941 C   0  0  0  0  0  0  0  0  0  0  0  0
   -2.3305   -1.9762   -0.2407 C   0  0  0  0  0  0  0  0  0  0  0  0
   -4.0154    0.6637    1.3353 N   0  0  0  0  0  0  0  0  0  0  0  0
   -5.2356    1.1746    1.6750 C   0  0  0  0  0  0  0  0  0  0  0  0
   -5.4191    1.9211    2.8195 C   0  0  0  0  0  0  0  0  0  0  0  0
   -6.6513    2.4414    3.1706 C   0  0  0  0  0  0  0  0  0  0  0  0
   -7.7136    2.2160    2.3729 N   0  0  0  0  0  0  0  0  0  0  0  0
   -9.0827    3.4481    4.4668 H   0  0  0  0  0  0  0  0  0  0  0  0
  -10.6571    2.9613    3.8131 H   0  0  0  0  0  0  0  0  0  0  0  0
   -9.8264    4.4137    3.1195 H   0  0  0  0  0  0  0  0  0  0  0  0
   -7.0293    0.0199   -0.9345 H   0  0  0  0  0  0  0  0  0  0  0  0
   -6.0738   -2.6077   -1.1947 H   0  0  0  0  0  0  0  0  0  0  0  0
   -5.7670   -3.9869   -3.1823 H   0  0  0  0  0  0  0  0  0  0  0  0
   -4.2252   -3.2498   -4.9436 H   0  0  0  0  0  0  0  0  0  0  0  0
   -2.9893   -1.1369   -4.7228 H   0  0  0  0  0  0  0  0  0  0  0  0
   -3.2964    0.2583   -2.7172 H   0  0  0  0  0  0  0  0  0  0  0  0
   -1.6646    1.2849   -0.3581 H   0  0  0  0  0  0  0  0  0  0  0  0
    0.5722    0.4141   -0.9974 H   0  0  0  0  0  0  0  0  0  0  0  0
    1.2376   -3.1156   -1.8394 H   0  0  0  0  0  0  0  0  0  0  0  0
    1.8023   -1.4408   -1.9381 H   0  0  0  0  0  0  0  0  0  0  0  0
    3.5283   -2.6065   -1.7525 H   0  0  0  0  0  0  0  0  0  0  0  0
    3.4651   -4.0532   -0.6589 H   0  0  0  0  0  0  0  0  0  0  0  0
    4.6501   -2.5547    1.0944 H   0  0  0  0  0  0  0  0  0  0  0  0
    5.5464   -2.8549   -0.4173 H   0  0  0  0  0  0  0  0  0  0  0  0
    4.9436   -0.8287   -1.4071 H   0  0  0  0  0  0  0  0  0  0  0  0
    8.9843    1.1959   -1.3639 H   0  0  0  0  0  0  0  0  0  0  0  0
   11.1727    2.2811   -1.7245 H   0  0  0  0  0  0  0  0  0  0  0  0
   12.5194    2.9549    0.2772 H   0  0  0  0  0  0  0  0  0  0  0  0
   11.6240    2.5165    2.4947 H   0  0  0  0  0  0  0  0  0  0  0  0
    7.1724    0.2967   -1.1009 H   0  0  0  0  0  0  0  0  0  0  0  0
    3.4833    0.6248    0.6317 H   0  0  0  0  0  0  0  0  0  0  0  0
    2.9473    0.1063   -0.9729 H   0  0  0  0  0  0  0  0  0  0  0  0
    1.5464   -0.6887    0.8909 H   0  0  0  0  0  0  0  0  0  0  0  0
    2.9350   -1.5723    1.5831 H   0  0  0  0  0  0  0  0  0  0  0  0
   -0.9311   -3.5347   -0.6603 H   0  0  0  0  0  0  0  0  0  0  0  0
   -3.1749   -2.6273   -0.0203 H   0  0  0  0  0  0  0  0  0  0  0  0
   -4.5951    2.1259    3.4871 H   0  0  0  0  0  0  0  0  0  0  0  0
   -6.7937    3.0327    4.0780 H   0  0  0  0  0  0  0  0  0  0  0  0
  1  2  1  0
  2  3  2  0
  3  4  1  0
  4  5  2  0
  5  6  1  0
  6  7  2  0
  7  8  1  0
  8  9  1  0
  9 10  2  0
 10 11  1  0
 11 12  2  0
 12 13  1  0
 13 14  2  0
  8 15  2  0
 15 16  1  0
 16 17  2  0
 17 18  1  0
 18 19  2  0
 19 20  1  0
 20 21  1  0
 21 22  1  0
 22 23  1  0
 23 24  1  0
 24 25  1  0
 25 26  2  0
 26 27  1  0
 27 28  2  0
 28 29  1  0
 29 30  2  0
 30 31  1  0
 31 32  2  0
 32 33  1  0
 33 34  2  0
 28 35  1  0
 24 36  1  0
 36 37  1  0
 19 38  1  0
 38 39  2  0
 15 40  1  0
 40 41  2  0
 41 42  1  0
 42 43  2  0
 43 44  1  0
 44  2  1  0
 44  5  1  0
 41  6  1  0
 14  9  1  0
 39 16  1  0
 37 21  1  0
 35 25  1  0
 34 29  1  0
  1 45  1  0
  1 46  1  0
  1 47  1  0
  7 48  1  0
 10 49  1  0
 11 50  1  0
 12 51  1  0
 13 52  1  0
 14 53  1  0
 17 54  1  0
 18 55  1  0
 20 56  1  0
 20 57  1  0
 22 58  1  0
 22 59  1  0
 23 60  1  0
 23 61  1  0
 24 62  1  0
 30 63  1  0
 31 64  1  0
 32 65  1  0
 33 66  1  0
 35 67  1  0
 36 68  1  0
 36 69  1  0
 37 70  1  0
 37 71  1  0
 38 72  1  0
 39 73  1  0
 42 74  1  0
 43 75  1  0
M  END
$$$$
