
     RDKit          3D

 44 46  0  0  0  0  0  0  0  0999 V2000
    1.3790   -1.4267    1.1602 C   0  0  0  0  0  0  0  0  0  0  0  0
    0.0765   -0.9205    0.7800 N   0  0  0  0  0  0  0  0  0  0  0  0
   -0.1742   -0.2315   -0.3314 C   0  0  0  0  0  0  0  0  0  0  0  0
    0.7882    0.0943   -1.3622 C   0  0  0  0  0  0  0  0  0  0  0  0
    2.2033    0.0468   -1.1429 C   0  0  0  0  0  0  0  0  0  0  0  0
    2.8561   -1.0254   -1.2053 O   0  0  0  0  0  0  0  0  0  0  0  0
    2.9681    1.2312   -0.8356 N   0  0  0  0  0  0  0  0  0  0  0  0
    4.3724    1.0400   -0.6241 C   0  0  0  0  0  0  0  0  0  0  0  0
    4.8457    0.7896    0.6709 C   0  0  0  0  0  0  0  0  0  0  0  0
    6.1485    0.5828    0.9853 C   0  0  0  0  0  0  0  0  0  0  0  0
    7.0693    0.6230   -0.0550 C   0  0  0  0  0  0  0  0  0  0  0  0
    8.3610    0.4138    0.2861 F   0  0  0  0  0  0  0  0  0  0  0  0
    6.6476    0.8669   -1.3521 C   0  0  0  0  0  0  0  0  0  0  0  0
    7.8427    0.9063   -2.6523 Cl  0  0  0  0  0  0  0  0  0  0  0  0
    5.3157    1.0715   -1.6202 C   0  0  0  0  0  0  0  0  0  0  0  0
   -1.4479    0.2351   -0.5958 N   0  0  0  0  0  0  0  0  0  0  0  0
   -2.5003    0.0555    0.1906 C   0  0  0  0  0  0  0  0  0  0  0  0
   -3.8158    0.5079   -0.0454 N   0  0  0  0  0  0  0  0  0  0  0  0
   -4.6102    0.1224   -1.2250 C   0  0  0  0  0  0  0  0  0  0  0  0
   -5.9670   -0.3926   -0.7690 C   0  0  0  0  0  0  0  0  0  0  0  0
   -5.9646   -0.4884    0.6037 O   0  0  0  0  0  0  0  0  0  0  0  0
   -5.8965    0.7747    1.1699 C   0  0  0  0  0  0  0  0  0  0  0  0
   -4.5380    1.4086    0.8659 C   0  0  0  0  0  0  0  0  0  0  0  0
   -2.2362   -0.6748    1.3670 C   0  0  0  0  0  0  0  0  0  0  0  0
   -0.9745   -1.1382    1.6299 C   0  0  0  0  0  0  0  0  0  0  0  0
   -0.7310   -1.7960    2.6892 O   0  0  0  0  0  0  0  0  0  0  0  0
    1.6957   -2.3387    0.6755 H   0  0  0  0  0  0  0  0  0  0  0  0
    2.0791   -0.5753    1.2172 H   0  0  0  0  0  0  0  0  0  0  0  0
    1.3085   -1.7306    2.2662 H   0  0  0  0  0  0  0  0  0  0  0  0
    0.4881   -0.4962   -2.2778 H   0  0  0  0  0  0  0  0  0  0  0  0
    0.5547    1.1651   -1.7130 H   0  0  0  0  0  0  0  0  0  0  0  0
    2.5054    2.1615   -0.7804 H   0  0  0  0  0  0  0  0  0  0  0  0
    4.0980    0.7629    1.4609 H   0  0  0  0  0  0  0  0  0  0  0  0
    6.4440    0.3893    2.0292 H   0  0  0  0  0  0  0  0  0  0  0  0
    4.9692    1.2625   -2.6336 H   0  0  0  0  0  0  0  0  0  0  0  0
   -4.0664   -0.6969   -1.7149 H   0  0  0  0  0  0  0  0  0  0  0  0
   -4.6969    0.9995   -1.8710 H   0  0  0  0  0  0  0  0  0  0  0  0
   -6.1246   -1.3927   -1.2461 H   0  0  0  0  0  0  0  0  0  0  0  0
   -6.7471    0.3111   -1.1198 H   0  0  0  0  0  0  0  0  0  0  0  0
   -6.0274    0.6643    2.2592 H   0  0  0  0  0  0  0  0  0  0  0  0
   -6.7315    1.3806    0.7817 H   0  0  0  0  0  0  0  0  0  0  0  0
   -4.7274    2.3306    0.2929 H   0  0  0  0  0  0  0  0  0  0  0  0
   -3.9761    1.6568    1.7730 H   0  0  0  0  0  0  0  0  0  0  0  0
   -3.0630   -0.8328    2.0190 H   0  0  0  0  0  0  0  0  0  0  0  0
  1  2  1  0
  2  3  1  0
  3  4  1  0
  4  5  1  0
  5  6  2  0
  5  7  1  0
  7  8  1  0
  8  9  2  0
  9 10  1  0
 10 11  2  0
 11 12  1  0
 11 13  1  0
 13 14  1  0
 13 15  2  0
  3 16  2  0
 16 17  1  0
 17 18  1  0
 18 19  1  0
 19 20  1  0
 20 21  1  0
 21 22  1  0
 22 23  1  0
 17 24  2  0
 24 25  1  0
 25 26  2  0
 25  2  1  0
 15  8  1  0
 23 18  1  0
  1 27  1  0
  1 28  1  0
  1 29  1  0
  4 30  1  0
  4 31  1  0
  7 32  1  0
  9 33  1  0
 10 34  1  0
 15 35  1  0
 19 36  1  0
 19 37  1  0
 20 38  1  0
 20 39  1  0
 22 40  1  0
 22 41  1  0
 23 42  1  0
 23 43  1  0
 24 44  1  0
M  END
$$$$
