
     RDKit          3D

 41 44  0  0  0  0  0  0  0  0999 V2000
    5.7113    1.2578    0.0771 C   0  0  0  0  0  0  0  0  0  0  0  0
    4.6354    0.5990    0.8489 C   0  0  0  0  0  0  0  0  0  0  0  0
    3.3382    0.3467    0.4883 C   0  0  0  0  0  0  0  0  0  0  0  0
    2.7358   -0.2898    1.5570 C   0  0  0  0  0  0  0  0  0  0  0  0
    1.3814   -0.7156    1.5672 N   0  0  0  0  0  0  0  0  0  0  0  0
    0.4964   -0.5376    0.4932 C   0  0  0  0  0  0  0  0  0  0  0  0
   -0.2658    0.5796    0.4065 N   0  0  0  0  0  0  0  0  0  0  0  0
   -1.1077    0.7735   -0.5947 N   0  0  0  0  0  0  0  0  0  0  0  0
   -1.9170    1.9584   -0.6815 C   0  0  0  0  0  0  0  0  0  0  0  0
   -3.2321    1.8450    0.0002 C   0  0  0  0  0  0  0  0  0  0  0  0
   -4.3681    1.4384   -0.6467 C   0  0  0  0  0  0  0  0  0  0  0  0
   -5.5482    1.3557    0.0526 C   0  0  0  0  0  0  0  0  0  0  0  0
   -5.6239    1.6723    1.3970 C   0  0  0  0  0  0  0  0  0  0  0  0
   -4.4839    2.0635    1.9780 N   0  0  0  0  0  0  0  0  0  0  0  0
   -3.3080    2.1596    1.3366 C   0  0  0  0  0  0  0  0  0  0  0  0
   -1.2016   -0.1656   -1.5426 C   0  0  0  0  0  0  0  0  0  0  0  0
   -1.9977    0.0205   -2.4879 O   0  0  0  0  0  0  0  0  0  0  0  0
   -0.4583   -1.3308   -1.5236 C   0  0  0  0  0  0  0  0  0  0  0  0
   -0.6044   -2.2564   -2.5322 C   0  0  0  0  0  0  0  0  0  0  0  0
    0.1706   -3.4015   -2.4520 C   0  0  0  0  0  0  0  0  0  0  0  0
    1.0437   -3.6040   -1.4149 C   0  0  0  0  0  0  0  0  0  0  0  0
    1.1806   -2.6767   -0.4176 C   0  0  0  0  0  0  0  0  0  0  0  0
    0.4197   -1.5218   -0.4697 C   0  0  0  0  0  0  0  0  0  0  0  0
    3.6551   -0.4102    2.5248 N   0  0  0  0  0  0  0  0  0  0  0  0
    4.7808    0.1193    2.0983 N   0  0  0  0  0  0  0  0  0  0  0  0
    6.7023    1.0643    0.5093 H   0  0  0  0  0  0  0  0  0  0  0  0
    5.7464    0.8707   -0.9753 H   0  0  0  0  0  0  0  0  0  0  0  0
    5.5644    2.3529   -0.0224 H   0  0  0  0  0  0  0  0  0  0  0  0
    2.9208    0.6180   -0.4668 H   0  0  0  0  0  0  0  0  0  0  0  0
    1.0289   -1.1879    2.4259 H   0  0  0  0  0  0  0  0  0  0  0  0
   -2.0645    2.3065   -1.7282 H   0  0  0  0  0  0  0  0  0  0  0  0
   -1.3281    2.7835   -0.1831 H   0  0  0  0  0  0  0  0  0  0  0  0
   -4.3478    1.1804   -1.7139 H   0  0  0  0  0  0  0  0  0  0  0  0
   -6.4807    1.0350   -0.4255 H   0  0  0  0  0  0  0  0  0  0  0  0
   -6.5764    1.6004    1.9411 H   0  0  0  0  0  0  0  0  0  0  0  0
   -2.4151    2.4922    1.8974 H   0  0  0  0  0  0  0  0  0  0  0  0
   -1.2937   -2.0968   -3.3512 H   0  0  0  0  0  0  0  0  0  0  0  0
    0.0640   -4.1285   -3.2329 H   0  0  0  0  0  0  0  0  0  0  0  0
    1.6570   -4.5161   -1.3566 H   0  0  0  0  0  0  0  0  0  0  0  0
    1.8631   -2.8102    0.4146 H   0  0  0  0  0  0  0  0  0  0  0  0
    3.5270   -0.8436    3.4615 H   0  0  0  0  0  0  0  0  0  0  0  0
  1  2  1  0
  2  3  1  0
  3  4  2  0
  4  5  1  0
  5  6  1  0
  6  7  2  0
  7  8  1  0
  8  9  1  0
  9 10  1  0
 10 11  2  0
 11 12  1  0
 12 13  2  0
 13 14  1  0
 14 15  2  0
  8 16  1  0
 16 17  2  0
 16 18  1  0
 18 19  2  0
 19 20  1  0
 20 21  2  0
 21 22  1  0
 22 23  2  0
  4 24  1  0
 24 25  1  0
 25  2  2  0
 23  6  1  0
 15 10  1  0
 23 18  1  0
  1 26  1  0
  1 27  1  0
  1 28  1  0
  3 29  1  0
  5 30  1  0
  9 31  1  0
  9 32  1  0
 11 33  1  0
 12 34  1  0
 13 35  1  0
 15 36  1  0
 19 37  1  0
 20 38  1  0
 21 39  1  0
 22 40  1  0
 24 41  1  0
M  END
$$$$
