
     RDKit          3D

 42 44  0  0  0  0  0  0  0  0999 V2000
   -0.6302    0.2502    0.8068 C   0  0  2  0  0  0  0  0  0  0  0  0
    0.8552    0.2738    1.0725 C   0  0  0  0  0  0  0  0  0  0  0  0
    1.4912   -0.4634    0.1740 C   0  0  0  0  0  0  0  0  0  0  0  0
    0.5540   -1.0759   -0.8029 C   0  0  0  0  0  0  0  0  0  0  0  0
   -0.7162   -0.8185   -0.1454 N   0  0  0  0  0  0  0  0  0  0  0  0
   -1.7941   -1.6251   -0.5280 C   0  0  0  0  0  0  0  0  0  0  0  0
   -1.0987   -2.2879   -1.3670 O   0  0  0  0  0  0  0  0  0  0  0  0
   -3.1693   -1.7958   -0.2283 N   0  0  0  0  0  0  0  0  0  0  0  0
   -4.0251   -1.0701    0.7212 C   0  0  0  0  0  0  0  0  0  0  0  0
   -3.8138   -2.8392   -0.9709 C   0  0  0  0  0  0  0  0  0  0  0  0
    2.9421   -0.6213    0.1884 C   0  0  0  0  0  0  0  0  0  0  0  0
    3.6926    0.0080    1.1597 C   0  0  0  0  0  0  0  0  0  0  0  0
    5.0736   -0.1585    1.1514 C   0  0  0  0  0  0  0  0  0  0  0  0
    5.8268    0.4639    2.1137 F   0  0  0  0  0  0  0  0  0  0  0  0
    5.7324   -0.9295    0.2099 C   0  0  0  0  0  0  0  0  0  0  0  0
    4.9400   -1.5482   -0.7535 C   0  0  0  0  0  0  0  0  0  0  0  0
    3.5774   -1.3928   -0.7574 C   0  0  0  0  0  0  0  0  0  0  0  0
    2.9194   -2.0313   -1.7267 F   0  0  0  0  0  0  0  0  0  0  0  0
   -0.9569    1.5765    0.2744 C   0  0  0  0  0  0  0  0  0  0  0  0
   -0.2133    2.7170    0.5269 C   0  0  0  0  0  0  0  0  0  0  0  0
   -0.4887    3.9799    0.0445 C   0  0  0  0  0  0  0  0  0  0  0  0
   -1.6101    4.1393   -0.7698 C   0  0  0  0  0  0  0  0  0  0  0  0
   -2.3729    3.0231   -1.0412 C   0  0  0  0  0  0  0  0  0  0  0  0
   -2.0493    1.7916   -0.5327 C   0  0  0  0  0  0  0  0  0  0  0  0
   -1.1046    0.0351    1.7835 H   0  0  0  0  0  0  0  0  0  0  0  0
    1.2562    0.8406    1.9032 H   0  0  0  0  0  0  0  0  0  0  0  0
    0.7821   -2.1432   -0.9005 H   0  0  0  0  0  0  0  0  0  0  0  0
    0.5879   -0.5483   -1.7870 H   0  0  0  0  0  0  0  0  0  0  0  0
   -3.4080   -0.3217    1.2169 H   0  0  0  0  0  0  0  0  0  0  0  0
   -4.7504   -0.5039    0.0678 H   0  0  0  0  0  0  0  0  0  0  0  0
   -4.5877   -1.7458    1.3862 H   0  0  0  0  0  0  0  0  0  0  0  0
   -4.8606   -2.5594   -1.1747 H   0  0  0  0  0  0  0  0  0  0  0  0
   -3.8240   -3.7793   -0.3576 H   0  0  0  0  0  0  0  0  0  0  0  0
   -3.3436   -3.0538   -1.9376 H   0  0  0  0  0  0  0  0  0  0  0  0
    3.2836    0.6198    1.9247 H   0  0  0  0  0  0  0  0  0  0  0  0
    6.7985   -1.0709    0.1861 H   0  0  0  0  0  0  0  0  0  0  0  0
    5.4544   -2.1506   -1.4893 H   0  0  0  0  0  0  0  0  0  0  0  0
    0.6663    2.6452    1.1534 H   0  0  0  0  0  0  0  0  0  0  0  0
    0.1378    4.8236    0.2843 H   0  0  0  0  0  0  0  0  0  0  0  0
   -1.8173    5.1134   -1.1381 H   0  0  0  0  0  0  0  0  0  0  0  0
   -3.2242    3.2218   -1.6774 H   0  0  0  0  0  0  0  0  0  0  0  0
   -2.7129    1.0114   -0.8129 H   0  0  0  0  0  0  0  0  0  0  0  0
  1  2  1  0
  2  3  2  0
  3  4  1  0
  4  5  1  0
  5  6  1  0
  6  7  2  0
  6  8  1  0
  8  9  1  0
  8 10  1  0
  3 11  1  0
 11 12  2  0
 12 13  1  0
 13 14  1  0
 13 15  2  0
 15 16  1  0
 16 17  2  0
 17 18  1  0
  1 19  1  0
 19 20  2  0
 20 21  1  0
 21 22  2  0
 22 23  1  0
 23 24  2  0
  5  1  1  0
 17 11  1  0
 24 19  1  0
  1 25  1  1
  2 26  1  0
  4 27  1  0
  4 28  1  0
  9 29  1  0
  9 30  1  0
  9 31  1  0
 10 32  1  0
 10 33  1  0
 10 34  1  0
 12 35  1  0
 15 36  1  0
 16 37  1  0
 20 38  1  0
 21 39  1  0
 22 40  1  0
 23 41  1  0
 24 42  1  0
M  END
$$$$
