
     RDKit          3D

 51 54  0  0  0  0  0  0  0  0999 V2000
    8.2937    0.3673   -1.0017 C   0  0  0  0  0  0  0  0  0  0  0  0
    6.8190    0.4456   -0.8123 C   0  0  0  0  0  0  0  0  0  0  0  0
    5.9236    1.2969   -1.3437 N   0  0  0  0  0  0  0  0  0  0  0  0
    4.6805    1.0077   -0.9000 C   0  0  0  0  0  0  0  0  0  0  0  0
    3.4115    1.5415   -1.1157 C   0  0  0  0  0  0  0  0  0  0  0  0
    2.3154    0.9660   -0.4704 C   0  0  0  0  0  0  0  0  0  0  0  0
    2.4279   -0.1100    0.3740 C   0  0  0  0  0  0  0  0  0  0  0  0
    1.3336   -0.7196    1.0389 N   0  0  0  0  0  0  0  0  0  0  0  0
    1.5444   -1.8727    1.8989 C   0  0  0  0  0  0  0  0  0  0  0  0
    0.0110   -0.2405    0.9184 C   0  0  0  0  0  0  0  0  0  0  0  0
   -0.5337    0.4093    2.0030 C   0  0  0  0  0  0  0  0  0  0  0  0
   -1.8220    0.9093    1.9792 C   0  0  0  0  0  0  0  0  0  0  0  0
   -2.5050    0.7241    0.8417 N   0  0  0  0  0  0  0  0  0  0  0  0
   -2.0220    0.1017   -0.2380 C   0  0  0  0  0  0  0  0  0  0  0  0
   -2.8275   -0.0487   -1.3887 N   0  0  0  0  0  0  0  0  0  0  0  0
   -4.1916    0.2498   -1.4637 C   0  0  0  0  0  0  0  0  0  0  0  0
   -4.7582    0.4638   -2.7162 C   0  0  0  0  0  0  0  0  0  0  0  0
   -6.0998    0.7256   -2.8289 C   0  0  0  0  0  0  0  0  0  0  0  0
   -6.9408    0.7895   -1.7404 C   0  0  0  0  0  0  0  0  0  0  0  0
   -6.3845    0.5786   -0.5066 C   0  0  0  0  0  0  0  0  0  0  0  0
   -7.4120    0.6407    0.9022 S   0  0  0  0  0  6  0  0  0  0  0  0
   -7.9969   -0.9786    1.1891 N   0  0  0  0  0  0  0  0  0  0  0  0
   -8.5521    1.5837    0.6681 O   0  0  0  0  0  0  0  0  0  0  0  0
   -6.6210    1.0577    2.1136 O   0  0  0  0  0  0  0  0  0  0  0  0
   -5.0156    0.3101   -0.3675 C   0  0  0  0  0  0  0  0  0  0  0  0
   -0.7530   -0.3769   -0.1793 N   0  0  0  0  0  0  0  0  0  0  0  0
    3.7156   -0.6094    0.5595 C   0  0  0  0  0  0  0  0  0  0  0  0
    4.8226   -0.0707   -0.0583 C   0  0  0  0  0  0  0  0  0  0  0  0
    6.1372   -0.3894   -0.0256 N   0  0  0  0  0  0  0  0  0  0  0  0
    6.6937   -1.4942    0.7688 C   0  0  0  0  0  0  0  0  0  0  0  0
    8.6512   -0.6563   -1.1568 H   0  0  0  0  0  0  0  0  0  0  0  0
    8.8409    0.7950   -0.1346 H   0  0  0  0  0  0  0  0  0  0  0  0
    8.5457    0.9920   -1.8813 H   0  0  0  0  0  0  0  0  0  0  0  0
    3.3377    2.3780   -1.7742 H   0  0  0  0  0  0  0  0  0  0  0  0
    1.3485    1.4010   -0.6594 H   0  0  0  0  0  0  0  0  0  0  0  0
    0.6231   -2.2424    2.3452 H   0  0  0  0  0  0  0  0  0  0  0  0
    2.0249   -2.6710    1.2793 H   0  0  0  0  0  0  0  0  0  0  0  0
    2.3019   -1.6059    2.6836 H   0  0  0  0  0  0  0  0  0  0  0  0
    0.0552    0.5323    2.8968 H   0  0  0  0  0  0  0  0  0  0  0  0
   -2.3017    1.4209    2.7840 H   0  0  0  0  0  0  0  0  0  0  0  0
   -2.3280   -0.4261   -2.2666 H   0  0  0  0  0  0  0  0  0  0  0  0
   -4.0991    0.4160   -3.5846 H   0  0  0  0  0  0  0  0  0  0  0  0
   -6.4757    0.8850   -3.8402 H   0  0  0  0  0  0  0  0  0  0  0  0
   -7.9901    1.0007   -1.9095 H   0  0  0  0  0  0  0  0  0  0  0  0
   -7.1613   -1.6052    1.0461 H   0  0  0  0  0  0  0  0  0  0  0  0
   -8.6847   -1.2195    0.4486 H   0  0  0  0  0  0  0  0  0  0  0  0
   -4.6800    0.1475    0.6431 H   0  0  0  0  0  0  0  0  0  0  0  0
    3.8769   -1.4544    1.2113 H   0  0  0  0  0  0  0  0  0  0  0  0
    5.9404   -1.7973    1.5384 H   0  0  0  0  0  0  0  0  0  0  0  0
    7.6194   -1.1674    1.2886 H   0  0  0  0  0  0  0  0  0  0  0  0
    6.8606   -2.3809    0.1231 H   0  0  0  0  0  0  0  0  0  0  0  0
  1  2  1  0
  2  3  2  0
  3  4  1  0
  4  5  2  0
  5  6  1  0
  6  7  2  0
  7  8  1  0
  8  9  1  0
  8 10  1  0
 10 11  2  0
 11 12  1  0
 12 13  2  0
 13 14  1  0
 14 15  1  0
 15 16  1  0
 16 17  2  0
 17 18  1  0
 18 19  2  0
 19 20  1  0
 20 21  1  0
 21 22  1  0
 21 23  2  0
 21 24  2  0
 20 25  2  0
 14 26  2  0
  7 27  1  0
 27 28  2  0
 28 29  1  0
 29 30  1  0
 29  2  1  0
 28  4  1  0
 26 10  1  0
 25 16  1  0
  1 31  1  0
  1 32  1  0
  1 33  1  0
  5 34  1  0
  6 35  1  0
  9 36  1  0
  9 37  1  0
  9 38  1  0
 11 39  1  0
 12 40  1  0
 15 41  1  0
 17 42  1  0
 18 43  1  0
 19 44  1  0
 22 45  1  0
 22 46  1  0
 25 47  1  0
 27 48  1  0
 30 49  1  0
 30 50  1  0
 30 51  1  0
M  END
$$$$
