
     RDKit          3D

139144  0  0  0  0  0  0  0  0999 V2000
    9.2595    3.3853   -4.5592 C   0  0  0  0  0  0  0  0  0  0  0  0
    9.4131    3.3138   -3.1666 O   0  0  0  0  0  0  0  0  0  0  0  0
    9.0780    2.2386   -2.3654 C   0  0  0  0  0  0  0  0  0  0  0  0
    8.5476    1.0828   -2.8836 C   0  0  0  0  0  0  0  0  0  0  0  0
    8.2659    0.1132   -1.9715 C   0  0  0  0  0  0  0  0  0  0  0  0
    8.4351    0.1127   -0.5986 C   0  0  0  0  0  0  0  0  0  0  0  0
    8.9784    1.3346   -0.1753 C   0  0  0  0  0  0  0  0  0  0  0  0
    9.2951    2.3730   -1.0144 C   0  0  0  0  0  0  0  0  0  0  0  0
    9.8230    3.5470   -0.5360 O   0  0  0  0  0  0  0  0  0  0  0  0
   10.1166    3.8883    0.7798 C   0  0  0  0  0  0  0  0  0  0  0  0
    8.0535   -1.0876    0.1113 C   0  0  1  0  0  0  0  0  0  0  0  0
    8.3957   -1.2518    1.5327 C   0  0  0  0  0  0  0  0  0  0  0  0
    9.8152   -1.3027    1.9053 C   0  0  0  0  0  0  0  0  0  0  0  0
   10.7659   -0.4144    2.3425 C   0  0  0  0  0  0  0  0  0  0  0  0
   12.0501   -0.7707    2.6395 C   0  0  0  0  0  0  0  0  0  0  0  0
   13.0002    0.1303    3.0759 O   0  0  0  0  0  0  0  0  0  0  0  0
   12.6637    1.4773    3.2362 C   0  0  0  0  0  0  0  0  0  0  0  0
   12.5168   -2.0612    2.5299 C   0  0  0  0  0  0  0  0  0  0  0  0
   13.8139   -2.4627    2.8263 O   0  0  0  0  0  0  0  0  0  0  0  0
   14.1900   -3.8378    2.6785 C   0  0  0  0  0  0  0  0  0  0  0  0
   11.6348   -3.0207    2.0963 C   0  0  0  0  0  0  0  0  0  0  0  0
   10.3291   -2.6161    1.8027 C   0  0  0  0  0  0  0  0  0  0  0  0
    6.7630   -1.5930   -0.3170 N   0  0  1  0  0  4  0  0  0  0  0  0
    7.0074   -3.0811   -0.5501 C   0  0  0  0  0  0  0  0  0  0  0  0
    5.7437   -1.5911    0.6385 C   0  0  0  0  0  0  0  0  0  0  0  0
    4.7592   -0.5273    0.8872 C   0  0  0  0  0  0  0  0  0  0  0  0
    3.7155   -0.2176   -0.0470 C   0  0  0  0  0  0  0  0  0  0  0  0
    3.6150   -0.9844   -1.0039 O   0  0  0  0  0  0  0  0  0  0  0  0
    2.6857    0.2132   -0.8290 O   0  0  0  0  0  0  0  0  0  0  0  0
    2.1610   -0.2792   -1.9935 C   0  0  0  0  0  0  0  0  0  0  0  0
    0.9837    0.5474   -2.4232 C   0  0  0  0  0  0  0  0  0  0  0  0
   -0.0890    0.5233   -1.3248 C   0  0  0  0  0  0  0  0  0  0  0  0
   -0.4551   -0.8753   -1.0541 C   0  0  0  0  0  0  0  0  0  0  0  0
   -1.5199   -1.1858   -0.0471 C   0  0  0  0  0  0  0  0  0  0  0  0
   -2.7701   -0.8420   -0.1746 O   0  0  0  0  0  0  0  0  0  0  0  0
   -3.9917   -0.4870   -0.2988 C   0  0  0  0  0  0  0  0  0  0  0  0
   -2.9626    0.2447   -0.1511 O   0  0  0  0  0  0  0  0  0  0  0  0
   -5.3196   -1.0889   -0.4719 C   0  0  0  0  0  0  0  0  0  0  0  0
   -6.4167   -0.6812    0.4480 C   0  0  0  0  0  0  0  0  0  0  0  0
   -6.7854    0.6905    0.4637 N   0  0  1  0  0  4  0  0  0  0  0  0
   -5.5537    1.3808    0.9511 C   0  0  0  0  0  0  0  0  0  0  0  0
   -6.8851    1.1901   -0.9353 C   0  0  0  0  0  0  0  0  0  0  0  0
   -8.2120    0.7630   -1.5262 C   0  0  0  0  0  0  0  0  0  0  0  0
   -9.1330    1.8421   -1.0061 C   0  0  0  0  0  0  0  0  0  0  0  0
   -8.8627    1.9923    0.3509 C   0  0  0  0  0  0  0  0  0  0  0  0
   -9.5992    3.0002    0.9937 C   0  0  0  0  0  0  0  0  0  0  0  0
  -10.5165    3.7921    0.3798 C   0  0  0  0  0  0  0  0  0  0  0  0
  -11.2902    4.7941    0.8766 O   0  0  0  0  0  0  0  0  0  0  0  0
  -11.2528    5.1999    2.2117 C   0  0  0  0  0  0  0  0  0  0  0  0
  -10.7452    3.5895   -0.9844 C   0  0  0  0  0  0  0  0  0  0  0  0
  -11.6524    4.3263   -1.7088 O   0  0  0  0  0  0  0  0  0  0  0  0
  -11.7878    4.0220   -3.0777 C   0  0  0  0  0  0  0  0  0  0  0  0
  -10.0492    2.6143   -1.6653 C   0  0  0  0  0  0  0  0  0  0  0  0
   -7.8787    1.1423    1.1863 C   0  0  1  0  0  0  0  0  0  0  0  0
   -8.7092    0.3384    2.0929 C   0  0  0  0  0  0  0  0  0  0  0  0
   -9.5050   -0.7936    1.6483 C   0  0  0  0  0  0  0  0  0  0  0  0
   -9.4211   -2.1687    1.5147 C   0  0  0  0  0  0  0  0  0  0  0  0
  -10.3687   -3.0177    1.0706 C   0  0  0  0  0  0  0  0  0  0  0  0
  -10.1226   -4.3572    1.0046 O   0  0  0  0  0  0  0  0  0  0  0  0
   -8.9101   -4.9656    1.3697 C   0  0  0  0  0  0  0  0  0  0  0  0
  -11.5954   -2.5465    0.6801 C   0  0  0  0  0  0  0  0  0  0  0  0
  -12.5298   -3.4590    0.2340 O   0  0  0  0  0  0  0  0  0  0  0  0
  -13.8055   -2.9637   -0.1683 C   0  0  0  0  0  0  0  0  0  0  0  0
  -11.8269   -1.1919    0.7569 C   0  0  0  0  0  0  0  0  0  0  0  0
  -10.7953   -0.3791    1.2280 C   0  0  0  0  0  0  0  0  0  0  0  0
    6.3385   -1.1832   -1.6116 C   0  0  0  0  0  0  0  0  0  0  0  0
    7.6317   -1.1507   -2.4977 C   0  0  0  0  0  0  0  0  0  0  0  0
    9.2537    2.3627   -4.9834 H   0  0  0  0  0  0  0  0  0  0  0  0
    8.2738    3.8402   -4.8391 H   0  0  0  0  0  0  0  0  0  0  0  0
   10.1037    3.9030   -5.0697 H   0  0  0  0  0  0  0  0  0  0  0  0
    8.3517    0.9156   -3.9355 H   0  0  0  0  0  0  0  0  0  0  0  0
    9.1222    1.4388    0.8627 H   0  0  0  0  0  0  0  0  0  0  0  0
    9.2744    4.3750    1.3128 H   0  0  0  0  0  0  0  0  0  0  0  0
   11.0112    4.5754    0.8455 H   0  0  0  0  0  0  0  0  0  0  0  0
   10.4182    3.0082    1.3888 H   0  0  0  0  0  0  0  0  0  0  0  0
    8.7874   -1.8735   -0.3844 H   0  0  0  0  0  0  0  0  0  0  0  0
    7.9303   -2.1560    2.0028 H   0  0  0  0  0  0  0  0  0  0  0  0
    7.8786   -0.4432    2.1836 H   0  0  0  0  0  0  0  0  0  0  0  0
   10.4205    0.5669    2.4536 H   0  0  0  0  0  0  0  0  0  0  0  0
   13.5188    2.1106    3.5596 H   0  0  0  0  0  0  0  0  0  0  0  0
   11.7900    1.6296    3.9143 H   0  0  0  0  0  0  0  0  0  0  0  0
   12.3486    1.8615    2.2355 H   0  0  0  0  0  0  0  0  0  0  0  0
   15.2397   -4.0060    2.8773 H   0  0  0  0  0  0  0  0  0  0  0  0
   13.5278   -4.5072    3.2862 H   0  0  0  0  0  0  0  0  0  0  0  0
   13.9956   -4.1246    1.6311 H   0  0  0  0  0  0  0  0  0  0  0  0
   11.9418   -4.0453    1.9809 H   0  0  0  0  0  0  0  0  0  0  0  0
    9.7233   -3.4746    1.4693 H   0  0  0  0  0  0  0  0  0  0  0  0
    6.2265   -3.4879   -1.2064 H   0  0  0  0  0  0  0  0  0  0  0  0
    6.8924   -3.5216    0.4525 H   0  0  0  0  0  0  0  0  0  0  0  0
    8.0287   -3.2623   -0.8610 H   0  0  0  0  0  0  0  0  0  0  0  0
    6.0379   -2.1306    1.6093 H   0  0  0  0  0  0  0  0  0  0  0  0
    5.0264   -2.4590    0.2419 H   0  0  0  0  0  0  0  0  0  0  0  0
    5.2392    0.4618    1.1724 H   0  0  0  0  0  0  0  0  0  0  0  0
    4.2380   -0.8264    1.8779 H   0  0  0  0  0  0  0  0  0  0  0  0
    1.8958   -1.3671   -1.9342 H   0  0  0  0  0  0  0  0  0  0  0  0
    2.9234   -0.1830   -2.8493 H   0  0  0  0  0  0  0  0  0  0  0  0
    1.3314    1.6091   -2.5629 H   0  0  0  0  0  0  0  0  0  0  0  0
    0.6077    0.1438   -3.3591 H   0  0  0  0  0  0  0  0  0  0  0  0
   -0.9346    1.1969   -1.6563 H   0  0  0  0  0  0  0  0  0  0  0  0
    0.3403    1.0563   -0.4515 H   0  0  0  0  0  0  0  0  0  0  0  0
    0.4750   -1.3742   -0.6129 H   0  0  0  0  0  0  0  0  0  0  0  0
   -0.6239   -1.4757   -2.0003 H   0  0  0  0  0  0  0  0  0  0  0  0
   -1.1129   -0.7071    0.9329 H   0  0  0  0  0  0  0  0  0  0  0  0
   -1.4354   -2.2967    0.2370 H   0  0  0  0  0  0  0  0  0  0  0  0
   -5.5971   -1.0567   -1.5493 H   0  0  0  0  0  0  0  0  0  0  0  0
   -5.1824   -2.2069   -0.2973 H   0  0  0  0  0  0  0  0  0  0  0  0
   -7.2990   -1.2849    0.0977 H   0  0  0  0  0  0  0  0  0  0  0  0
   -6.0817   -0.9488    1.4654 H   0  0  0  0  0  0  0  0  0  0  0  0
   -5.8964    2.1895    1.6657 H   0  0  0  0  0  0  0  0  0  0  0  0
   -5.0340    1.9148    0.1702 H   0  0  0  0  0  0  0  0  0  0  0  0
   -4.9574    0.7109    1.5996 H   0  0  0  0  0  0  0  0  0  0  0  0
   -6.0043    0.9312   -1.5327 H   0  0  0  0  0  0  0  0  0  0  0  0
   -6.8824    2.2903   -0.8502 H   0  0  0  0  0  0  0  0  0  0  0  0
   -8.6120   -0.1526   -1.0877 H   0  0  0  0  0  0  0  0  0  0  0  0
   -8.0878    0.7785   -2.6064 H   0  0  0  0  0  0  0  0  0  0  0  0
   -9.4442    3.1695    2.0520 H   0  0  0  0  0  0  0  0  0  0  0  0
  -10.4971    4.6577    2.7959 H   0  0  0  0  0  0  0  0  0  0  0  0
  -12.2595    5.0733    2.6882 H   0  0  0  0  0  0  0  0  0  0  0  0
  -10.9784    6.2848    2.3195 H   0  0  0  0  0  0  0  0  0  0  0  0
  -12.0009    2.9294   -3.2022 H   0  0  0  0  0  0  0  0  0  0  0  0
  -12.6255    4.6261   -3.4970 H   0  0  0  0  0  0  0  0  0  0  0  0
  -10.8627    4.2021   -3.6631 H   0  0  0  0  0  0  0  0  0  0  0  0
  -10.1201    2.3486   -2.7076 H   0  0  0  0  0  0  0  0  0  0  0  0
   -7.4852    1.9893    1.8641 H   0  0  0  0  0  0  0  0  0  0  0  0
   -8.0920   -0.0786    2.9651 H   0  0  0  0  0  0  0  0  0  0  0  0
   -9.4051    1.0244    2.7042 H   0  0  0  0  0  0  0  0  0  0  0  0
   -8.4057   -2.4272    1.8613 H   0  0  0  0  0  0  0  0  0  0  0  0
   -8.0697   -4.4086    0.8825 H   0  0  0  0  0  0  0  0  0  0  0  0
   -8.8382   -6.0115    1.0475 H   0  0  0  0  0  0  0  0  0  0  0  0
   -8.8009   -4.8709    2.4587 H   0  0  0  0  0  0  0  0  0  0  0  0
  -14.3346   -2.4350    0.6479 H   0  0  0  0  0  0  0  0  0  0  0  0
  -14.4062   -3.7426   -0.6403 H   0  0  0  0  0  0  0  0  0  0  0  0
  -13.5890   -2.1740   -0.9489 H   0  0  0  0  0  0  0  0  0  0  0  0
  -12.7942   -0.8627    0.4464 H   0  0  0  0  0  0  0  0  0  0  0  0
  -11.1605    0.6508    1.2199 H   0  0  0  0  0  0  0  0  0  0  0  0
    5.7547   -1.9782   -2.1278 H   0  0  0  0  0  0  0  0  0  0  0  0
    5.9584   -0.1660   -1.7156 H   0  0  0  0  0  0  0  0  0  0  0  0
    8.2297   -2.0314   -2.3980 H   0  0  0  0  0  0  0  0  0  0  0  0
    7.2669   -1.0347   -3.5155 H   0  0  0  0  0  0  0  0  0  0  0  0
  1  2  1  0
  2  3  1  0
  3  4  2  0
  4  5  1  0
  5  6  2  0
  6  7  1  0
  7  8  2  0
  8  9  1  0
  9 10  1  0
  6 11  1  0
 11 12  1  0
 12 13  1  0
 13 14  2  0
 14 15  1  0
 15 16  1  0
 16 17  1  0
 15 18  2  0
 18 19  1  0
 19 20  1  0
 18 21  1  0
 21 22  2  0
 11 23  1  0
 23 24  1  6
 23 25  1  0
 25 26  1  0
 26 27  1  0
 27 28  2  0
 27 29  1  0
 29 30  1  0
 30 31  1  0
 31 32  1  0
 32 33  1  0
 33 34  1  0
 34 35  1  0
 35 36  1  0
 36 37  2  0
 36 38  1  0
 38 39  1  0
 40 39  1  6
 40 41  1  0
 40 42  1  0
 42 43  1  0
 43 44  1  0
 44 45  2  0
 45 46  1  0
 46 47  2  0
 47 48  1  0
 48 49  1  0
 47 50  1  0
 50 51  1  0
 51 52  1  0
 50 53  2  0
 45 54  1  0
 54 55  1  0
 55 56  1  0
 56 57  2  0
 57 58  1  0
 58 59  1  0
 59 60  1  0
 58 61  2  0
 61 62  1  0
 62 63  1  0
 61 64  1  0
 64 65  2  0
 23 66  1  0
 66 67  1  0
  8  3  1  0
 22 13  1  0
 54 40  1  0
 65 56  1  0
 67  5  1  0
 53 44  1  0
  1 68  1  0
  1 69  1  0
  1 70  1  0
  4 71  1  0
  7 72  1  0
 10 73  1  0
 10 74  1  0
 10 75  1  0
 11 76  1  6
 12 77  1  0
 12 78  1  0
 14 79  1  0
 17 80  1  0
 17 81  1  0
 17 82  1  0
 20 83  1  0
 20 84  1  0
 20 85  1  0
 21 86  1  0
 22 87  1  0
 24 88  1  0
 24 89  1  0
 24 90  1  0
 25 91  1  0
 25 92  1  0
 26 93  1  0
 26 94  1  0
 30 95  1  0
 30 96  1  0
 31 97  1  0
 31 98  1  0
 32 99  1  0
 32100  1  0
 33101  1  0
 33102  1  0
 34103  1  0
 34104  1  0
 38105  1  0
 38106  1  0
 39107  1  0
 39108  1  0
 41109  1  0
 41110  1  0
 41111  1  0
 42112  1  0
 42113  1  0
 43114  1  0
 43115  1  0
 46116  1  0
 49117  1  0
 49118  1  0
 49119  1  0
 52120  1  0
 52121  1  0
 52122  1  0
 53123  1  0
 54124  1  1
 55125  1  0
 55126  1  0
 57127  1  0
 60128  1  0
 60129  1  0
 60130  1  0
 63131  1  0
 63132  1  0
 63133  1  0
 64134  1  0
 65135  1  0
 66136  1  0
 66137  1  0
 67138  1  0
 67139  1  0
M  CHG  2  23   1  40   1
M  END
$$$$
