
     RDKit          3D

 55 60  0  0  0  0  0  0  0  0999 V2000
   -3.1626   -0.6049   -3.4925 C   0  0  0  0  0  0  0  0  0  0  0  0
   -3.6705    0.2782   -2.3452 C   0  0  0  0  0  0  0  0  0  0  0  0
   -3.0354   -0.2943   -1.1032 C   0  0  0  0  0  0  0  0  0  0  0  0
   -3.6855   -1.0862   -0.2152 N   0  0  0  0  0  0  0  0  0  0  0  0
   -2.8928   -1.4758    0.7657 N   0  0  0  0  0  0  0  0  0  0  0  0
   -3.1910   -2.3167    1.9039 C   0  0  0  0  0  0  0  0  0  0  0  0
   -4.0502   -1.8955    3.0108 C   0  0  0  0  0  0  0  0  0  0  0  0
   -4.6193   -2.8299    1.9915 C   0  0  0  0  0  0  0  0  0  0  0  0
   -1.6904   -0.9185    0.4979 C   0  0  0  0  0  0  0  0  0  0  0  0
   -1.7571   -0.1770   -0.6479 C   0  0  0  0  0  0  0  0  0  0  0  0
   -0.4503    0.5461   -0.8453 C   0  0  0  0  0  0  0  0  0  0  0  0
   -0.5944    1.8758   -0.1191 C   0  0  0  0  0  0  0  0  0  0  0  0
   -1.8355    2.4477    0.0520 C   0  0  0  0  0  0  0  0  0  0  0  0
   -1.9770    3.6425    0.7112 C   0  0  0  0  0  0  0  0  0  0  0  0
   -0.8835    4.2949    1.2156 C   0  0  0  0  0  0  0  0  0  0  0  0
   -1.0609    5.8334    2.0639 Cl  0  0  0  0  0  0  0  0  0  0  0  0
    0.3718    3.7677    1.0721 C   0  0  0  0  0  0  0  0  0  0  0  0
    0.4834    2.5539    0.3987 C   0  0  0  0  0  0  0  0  0  0  0  0
    0.5100   -0.2160   -0.0843 N   0  0  0  0  0  0  0  0  0  0  0  0
    1.9407   -0.2757   -0.2733 C   0  0  0  0  0  0  0  0  0  0  0  0
    2.4466    0.3317   -1.4220 C   0  0  0  0  0  0  0  0  0  0  0  0
    3.7986    0.3148   -1.6660 C   0  0  0  0  0  0  0  0  0  0  0  0
    4.4169    0.9388   -2.8667 C   0  0  0  0  0  0  0  0  0  0  0  0
    4.5976   -0.3235   -0.7278 C   0  0  0  0  0  0  0  0  0  0  0  0
    5.9366   -0.5216   -0.6567 N   0  0  0  0  0  0  0  0  0  0  0  0
    6.2178   -1.1933    0.4435 N   0  0  0  0  0  0  0  0  0  0  0  0
    5.0784   -1.4497    1.1154 C   0  0  0  0  0  0  0  0  0  0  0  0
    4.9327   -2.1837    2.4095 C   0  0  0  0  0  0  0  0  0  0  0  0
    4.0963   -0.8999    0.3664 N   0  0  0  0  0  0  0  0  0  0  0  0
    2.7570   -0.8968    0.6319 C   0  0  0  0  0  0  0  0  0  0  0  0
   -0.2613   -0.9412    0.8839 C   0  0  0  0  0  0  0  0  0  0  0  0
    0.1502   -1.5135    1.8978 O   0  0  0  0  0  0  0  0  0  0  0  0
   -3.7417   -1.5569   -3.4617 H   0  0  0  0  0  0  0  0  0  0  0  0
   -2.0759   -0.7719   -3.3115 H   0  0  0  0  0  0  0  0  0  0  0  0
   -3.2908   -0.0614   -4.4555 H   0  0  0  0  0  0  0  0  0  0  0  0
   -4.7687    0.1400   -2.3119 H   0  0  0  0  0  0  0  0  0  0  0  0
   -3.3393    1.3022   -2.5086 H   0  0  0  0  0  0  0  0  0  0  0  0
   -2.4375   -3.1172    2.1579 H   0  0  0  0  0  0  0  0  0  0  0  0
   -4.5554   -0.9080    3.0590 H   0  0  0  0  0  0  0  0  0  0  0  0
   -3.8278   -2.2860    4.0417 H   0  0  0  0  0  0  0  0  0  0  0  0
   -4.7977   -3.8959    2.2203 H   0  0  0  0  0  0  0  0  0  0  0  0
   -5.3470   -2.4280    1.2455 H   0  0  0  0  0  0  0  0  0  0  0  0
   -0.1925    0.7088   -1.8824 H   0  0  0  0  0  0  0  0  0  0  0  0
   -2.7226    1.9810   -0.3141 H   0  0  0  0  0  0  0  0  0  0  0  0
   -2.9630    4.0963    0.8461 H   0  0  0  0  0  0  0  0  0  0  0  0
    1.2573    4.2408    1.4502 H   0  0  0  0  0  0  0  0  0  0  0  0
    1.4851    2.1658    0.3160 H   0  0  0  0  0  0  0  0  0  0  0  0
    1.7955    0.8334   -2.1522 H   0  0  0  0  0  0  0  0  0  0  0  0
    5.1456    0.2625   -3.3499 H   0  0  0  0  0  0  0  0  0  0  0  0
    4.8309    1.9404   -2.6593 H   0  0  0  0  0  0  0  0  0  0  0  0
    3.5786    1.0990   -3.5917 H   0  0  0  0  0  0  0  0  0  0  0  0
    3.8828   -2.0961    2.7302 H   0  0  0  0  0  0  0  0  0  0  0  0
    5.1436   -3.2688    2.2612 H   0  0  0  0  0  0  0  0  0  0  0  0
    5.6453   -1.8193    3.1738 H   0  0  0  0  0  0  0  0  0  0  0  0
    2.3782   -1.3723    1.5302 H   0  0  0  0  0  0  0  0  0  0  0  0
  1  2  1  0
  2  3  1  0
  3  4  2  0
  4  5  1  0
  5  6  1  0
  6  7  1  0
  7  8  1  0
  5  9  1  0
  9 10  2  0
 10 11  1  0
 11 12  1  0
 12 13  2  0
 13 14  1  0
 14 15  2  0
 15 16  1  0
 15 17  1  0
 17 18  2  0
 11 19  1  0
 19 20  1  0
 20 21  1  0
 21 22  2  0
 22 23  1  0
 22 24  1  0
 24 25  2  0
 25 26  1  0
 26 27  2  0
 27 28  1  0
 27 29  1  0
 29 30  1  0
 19 31  1  0
 31 32  2  0
 10  3  1  0
 18 12  1  0
 30 20  2  0
  8  6  1  0
 31  9  1  0
 29 24  1  0
  1 33  1  0
  1 34  1  0
  1 35  1  0
  2 36  1  0
  2 37  1  0
  6 38  1  0
  7 39  1  0
  7 40  1  0
  8 41  1  0
  8 42  1  0
 11 43  1  0
 13 44  1  0
 14 45  1  0
 17 46  1  0
 18 47  1  0
 21 48  1  0
 23 49  1  0
 23 50  1  0
 23 51  1  0
 28 52  1  0
 28 53  1  0
 28 54  1  0
 30 55  1  0
M  END
$$$$
