
     RDKit          3D

 70 73  0  0  0  0  0  0  0  0999 V2000
    6.2148   -3.9047   -2.1617 C   0  0  0  0  0  0  0  0  0  0  0  0
    6.5726   -2.7531   -1.2708 C   0  0  0  0  0  0  0  0  0  0  0  0
    5.5234   -1.6744   -1.3997 C   0  0  0  0  0  0  0  0  0  0  0  0
    4.6090   -1.8640   -2.1453 O   0  0  0  0  0  0  0  0  0  0  0  0
    5.6301   -0.4240   -0.6246 C   0  0  0  0  0  0  0  0  0  0  0  0
    4.4517    0.4792   -0.8498 C   0  0  0  0  0  0  0  0  0  0  0  0
    3.1345   -0.0891   -0.4371 C   0  0  0  0  0  0  0  0  0  0  0  0
    2.0293    0.9360   -0.7205 C   0  0  0  0  0  0  0  0  0  0  0  0
    0.6882    0.3681   -0.3068 C   0  0  0  0  0  0  0  0  0  0  0  0
   -0.3782    1.3848   -0.5914 C   0  0  2  0  0  0  0  0  0  0  0  0
   -0.1134    2.5898    0.1536 N   0  0  0  0  0  0  0  0  0  0  0  0
    0.1780    3.8488   -0.4256 C   0  0  0  0  0  0  0  0  0  0  0  0
    0.2136    3.9482   -1.6716 O   0  0  0  0  0  0  0  0  0  0  0  0
    0.4282    4.9934    0.4473 C   0  0  0  0  0  0  0  0  0  0  0  0
    0.7195    6.3023   -0.2408 C   0  0  0  0  0  0  0  0  0  0  0  0
    1.6792    6.5644    0.8459 N   0  0  0  0  0  0  0  0  0  0  0  0
    2.8056    7.3575    0.4456 C   0  0  0  0  0  0  0  0  0  0  0  0
    1.9069    5.1154    0.8492 C   0  0  0  0  0  0  0  0  0  0  0  0
   -1.7305    0.8589   -0.3290 C   0  0  0  0  0  0  0  0  0  0  0  0
   -2.8796    1.5317   -0.2833 N   0  0  0  0  0  0  0  0  0  0  0  0
   -3.8758    0.6715   -0.0154 C   0  0  0  0  0  0  0  0  0  0  0  0
   -3.3294   -0.6113    0.1151 C   0  0  0  0  0  0  0  0  0  0  0  0
   -4.1455   -1.7982    0.4117 C   0  0  0  0  0  0  0  0  0  0  0  0
   -5.5231   -1.6702    0.5674 C   0  0  0  0  0  0  0  0  0  0  0  0
   -6.2927   -2.7756    0.8447 C   0  0  0  0  0  0  0  0  0  0  0  0
   -7.6784   -2.6551    1.0020 C   0  0  0  0  0  0  0  0  0  0  0  0
   -8.4451   -3.7667    1.2793 C   0  0  0  0  0  0  0  0  0  0  0  0
   -7.8254   -4.9909    1.3979 C   0  0  0  0  0  0  0  0  0  0  0  0
   -6.4579   -5.0979    1.2406 C   0  0  0  0  0  0  0  0  0  0  0  0
   -5.6638   -3.9923    0.9608 C   0  0  0  0  0  0  0  0  0  0  0  0
   -4.3431   -4.1237    0.8130 N   0  0  0  0  0  0  0  0  0  0  0  0
   -3.5653   -3.0381    0.5379 C   0  0  0  0  0  0  0  0  0  0  0  0
   -2.1899   -3.2055    0.3890 O   0  0  0  0  0  0  0  0  0  0  0  0
   -1.6505   -4.5018    0.5296 C   0  0  0  0  0  0  0  0  0  0  0  0
   -2.0328   -0.4477   -0.0824 N   0  0  0  0  0  0  0  0  0  0  0  0
    5.8169   -4.7780   -1.5844 H   0  0  0  0  0  0  0  0  0  0  0  0
    7.1112   -4.2370   -2.7305 H   0  0  0  0  0  0  0  0  0  0  0  0
    5.3943   -3.6193   -2.8622 H   0  0  0  0  0  0  0  0  0  0  0  0
    6.6705   -3.0782   -0.2061 H   0  0  0  0  0  0  0  0  0  0  0  0
    7.5329   -2.2611   -1.5450 H   0  0  0  0  0  0  0  0  0  0  0  0
    5.7683   -0.6422    0.4768 H   0  0  0  0  0  0  0  0  0  0  0  0
    6.5663    0.1139   -0.9392 H   0  0  0  0  0  0  0  0  0  0  0  0
    4.6197    1.4646   -0.3376 H   0  0  0  0  0  0  0  0  0  0  0  0
    4.4328    0.6749   -1.9609 H   0  0  0  0  0  0  0  0  0  0  0  0
    2.9053   -1.0569   -0.8913 H   0  0  0  0  0  0  0  0  0  0  0  0
    3.1363   -0.2554    0.6809 H   0  0  0  0  0  0  0  0  0  0  0  0
    2.0386    1.0910   -1.8103 H   0  0  0  0  0  0  0  0  0  0  0  0
    2.3041    1.8436   -0.1473 H   0  0  0  0  0  0  0  0  0  0  0  0
    0.7213    0.1712    0.8004 H   0  0  0  0  0  0  0  0  0  0  0  0
    0.5431   -0.5631   -0.8796 H   0  0  0  0  0  0  0  0  0  0  0  0
   -0.2925    1.6615   -1.6697 H   0  0  0  0  0  0  0  0  0  0  0  0
   -0.1480    2.4891    1.2122 H   0  0  0  0  0  0  0  0  0  0  0  0
   -0.2152    5.0679    1.3404 H   0  0  0  0  0  0  0  0  0  0  0  0
   -0.0951    7.0427   -0.2397 H   0  0  0  0  0  0  0  0  0  0  0  0
    1.2079    6.1373   -1.2217 H   0  0  0  0  0  0  0  0  0  0  0  0
    2.9610    8.2369    1.1327 H   0  0  0  0  0  0  0  0  0  0  0  0
    2.7268    7.6725   -0.6141 H   0  0  0  0  0  0  0  0  0  0  0  0
    3.7227    6.7400    0.5536 H   0  0  0  0  0  0  0  0  0  0  0  0
    2.1507    4.6765    1.8134 H   0  0  0  0  0  0  0  0  0  0  0  0
    2.5169    4.7643   -0.0185 H   0  0  0  0  0  0  0  0  0  0  0  0
   -4.9355    0.9297    0.0842 H   0  0  0  0  0  0  0  0  0  0  0  0
   -5.9805   -0.7065    0.4702 H   0  0  0  0  0  0  0  0  0  0  0  0
   -8.1312   -1.6705    0.9006 H   0  0  0  0  0  0  0  0  0  0  0  0
   -9.5330   -3.7026    1.4076 H   0  0  0  0  0  0  0  0  0  0  0  0
   -8.3697   -5.9026    1.6145 H   0  0  0  0  0  0  0  0  0  0  0  0
   -5.9280   -6.0482    1.3263 H   0  0  0  0  0  0  0  0  0  0  0  0
   -1.5605   -4.8043    1.5945 H   0  0  0  0  0  0  0  0  0  0  0  0
   -0.6406   -4.5816    0.0719 H   0  0  0  0  0  0  0  0  0  0  0  0
   -2.3642   -5.2128    0.0656 H   0  0  0  0  0  0  0  0  0  0  0  0
   -1.3179   -1.2230   -0.0546 H   0  0  0  0  0  0  0  0  0  0  0  0
  1  2  1  0
  2  3  1  0
  3  4  2  0
  3  5  1  0
  5  6  1  0
  6  7  1  0
  7  8  1  0
  8  9  1  0
  9 10  1  0
 10 11  1  0
 11 12  1  0
 12 13  2  0
 12 14  1  0
 14 15  1  0
 15 16  1  0
 16 17  1  0
 16 18  1  0
 10 19  1  0
 19 20  2  0
 20 21  1  0
 21 22  2  0
 22 23  1  0
 23 24  2  0
 24 25  1  0
 25 26  2  0
 26 27  1  0
 27 28  2  0
 28 29  1  0
 29 30  2  0
 30 31  1  0
 31 32  2  0
 32 33  1  0
 33 34  1  0
 22 35  1  0
 18 14  1  0
 35 19  1  0
 32 23  1  0
 30 25  1  0
  1 36  1  0
  1 37  1  0
  1 38  1  0
  2 39  1  0
  2 40  1  0
  5 41  1  0
  5 42  1  0
  6 43  1  0
  6 44  1  0
  7 45  1  0
  7 46  1  0
  8 47  1  0
  8 48  1  0
  9 49  1  0
  9 50  1  0
 10 51  1  6
 11 52  1  0
 14 53  1  0
 15 54  1  0
 15 55  1  0
 17 56  1  0
 17 57  1  0
 17 58  1  0
 18 59  1  0
 18 60  1  0
 21 61  1  0
 24 62  1  0
 26 63  1  0
 27 64  1  0
 28 65  1  0
 29 66  1  0
 34 67  1  0
 34 68  1  0
 34 69  1  0
 35 70  1  0
M  END
$$$$
