
     RDKit          3D

 49 51  0  0  0  0  0  0  0  0999 V2000
   -6.9337   -0.6280   -2.2030 O   0  0  0  0  0  0  0  0  0  0  0  0
   -7.1091   -1.0829   -1.0439 C   0  0  0  0  0  0  0  0  0  0  0  0
   -6.2596   -0.6567    0.0971 C   0  0  0  0  0  0  0  0  0  0  0  0
   -5.2314    0.3440   -0.3735 C   0  0  0  0  0  0  0  0  0  0  0  0
   -4.3382    0.8179    0.7339 C   0  0  0  0  0  0  0  0  0  0  0  0
   -3.5670   -0.3286    1.3700 C   0  0  0  0  0  0  0  0  0  0  0  0
   -2.5095    0.3207    2.6968 S   0  0  0  0  0  0  0  0  0  0  0  0
   -1.2609    1.3632    1.9429 C   0  0  0  0  0  0  0  0  0  0  0  0
   -0.0763    0.8204    1.5486 N   0  0  0  0  0  0  0  0  0  0  0  0
    0.8941    1.5562    0.9783 C   0  0  0  0  0  0  0  0  0  0  0  0
    2.1330    0.9337    0.5778 C   0  0  0  0  0  0  0  0  0  0  0  0
    2.3552   -0.4359    0.7702 C   0  0  0  0  0  0  0  0  0  0  0  0
    3.5281   -1.0234    0.3901 C   0  0  0  0  0  0  0  0  0  0  0  0
    4.5450   -0.3013   -0.1982 C   0  0  0  0  0  0  0  0  0  0  0  0
    5.8082   -0.9284   -0.6083 C   0  0  0  0  0  0  0  0  0  0  0  0
    6.3269   -1.9896    0.0749 C   0  0  0  0  0  0  0  0  0  0  0  0
    7.5194   -2.6045   -0.2875 C   0  0  0  0  0  0  0  0  0  0  0  0
    8.2288   -2.1447   -1.3779 C   0  0  0  0  0  0  0  0  0  0  0  0
    7.6970   -1.0651   -2.0695 C   0  0  0  0  0  0  0  0  0  0  0  0
    6.5111   -0.4626   -1.6995 C   0  0  0  0  0  0  0  0  0  0  0  0
    4.3551    1.0440   -0.3994 C   0  0  0  0  0  0  0  0  0  0  0  0
    3.1592    1.6310   -0.0093 C   0  0  0  0  0  0  0  0  0  0  0  0
    0.6513    2.8910    0.8028 C   0  0  0  0  0  0  0  0  0  0  0  0
   -0.5734    3.4587    1.2090 C   0  0  0  0  0  0  0  0  0  0  0  0
   -0.7970    4.6877    1.0474 O   0  0  0  0  0  0  0  0  0  0  0  0
   -1.4836    2.6688    1.7648 N   0  0  0  0  0  0  0  0  0  0  0  0
   -8.1544   -2.0267   -0.8538 N   0  0  0  0  0  0  0  0  0  0  0  0
   -8.9098   -2.3952   -1.9091 O   0  0  0  0  0  0  0  0  0  0  0  0
   -6.9142   -0.1810    0.8380 H   0  0  0  0  0  0  0  0  0  0  0  0
   -5.7659   -1.5210    0.5672 H   0  0  0  0  0  0  0  0  0  0  0  0
   -5.7381    1.2380   -0.7924 H   0  0  0  0  0  0  0  0  0  0  0  0
   -4.5750   -0.1445   -1.1440 H   0  0  0  0  0  0  0  0  0  0  0  0
   -3.6240    1.5421    0.2977 H   0  0  0  0  0  0  0  0  0  0  0  0
   -4.9291    1.3719    1.5086 H   0  0  0  0  0  0  0  0  0  0  0  0
   -4.2273   -1.0688    1.8211 H   0  0  0  0  0  0  0  0  0  0  0  0
   -2.9075   -0.7538    0.5905 H   0  0  0  0  0  0  0  0  0  0  0  0
    1.5428   -0.9990    1.2372 H   0  0  0  0  0  0  0  0  0  0  0  0
    3.6856   -2.0842    0.5454 H   0  0  0  0  0  0  0  0  0  0  0  0
    5.7770   -2.3605    0.9353 H   0  0  0  0  0  0  0  0  0  0  0  0
    7.9219   -3.4448    0.2604 H   0  0  0  0  0  0  0  0  0  0  0  0
    9.1702   -2.5939   -1.7025 H   0  0  0  0  0  0  0  0  0  0  0  0
    8.2550   -0.7008   -2.9299 H   0  0  0  0  0  0  0  0  0  0  0  0
    6.0921    0.3840   -2.2402 H   0  0  0  0  0  0  0  0  0  0  0  0
    5.1321    1.6343   -0.8571 H   0  0  0  0  0  0  0  0  0  0  0  0
    3.0928    2.7118   -0.2081 H   0  0  0  0  0  0  0  0  0  0  0  0
    1.3811    3.5396    0.3540 H   0  0  0  0  0  0  0  0  0  0  0  0
   -2.4230    3.0259    2.0929 H   0  0  0  0  0  0  0  0  0  0  0  0
   -8.3238   -2.4255    0.1123 H   0  0  0  0  0  0  0  0  0  0  0  0
   -9.1314   -1.6334   -2.5010 H   0  0  0  0  0  0  0  0  0  0  0  0
  1  2  2  0
  2  3  1  0
  3  4  1  0
  4  5  1  0
  5  6  1  0
  6  7  1  0
  7  8  1  0
  8  9  2  0
  9 10  1  0
 10 11  1  0
 11 12  2  0
 12 13  1  0
 13 14  2  0
 14 15  1  0
 15 16  2  0
 16 17  1  0
 17 18  2  0
 18 19  1  0
 19 20  2  0
 14 21  1  0
 21 22  2  0
 10 23  2  0
 23 24  1  0
 24 25  2  0
 24 26  1  0
  2 27  1  0
 27 28  1  0
 26  8  1  0
 22 11  1  0
 20 15  1  0
  3 29  1  0
  3 30  1  0
  4 31  1  0
  4 32  1  0
  5 33  1  0
  5 34  1  0
  6 35  1  0
  6 36  1  0
 12 37  1  0
 13 38  1  0
 16 39  1  0
 17 40  1  0
 18 41  1  0
 19 42  1  0
 20 43  1  0
 21 44  1  0
 22 45  1  0
 23 46  1  0
 26 47  1  0
 27 48  1  0
 28 49  1  0
M  END
$$$$
