
     RDKit          3D

 67 67  0  0  0  0  0  0  0  0999 V2000
    8.9585    2.2579   -1.0007 C   0  0  0  0  0  0  0  0  0  0  0  0
    8.1976    1.1642   -0.2473 C   0  0  0  0  0  0  0  0  0  0  0  0
    7.4587    1.7877    0.9094 C   0  0  0  0  0  0  0  0  0  0  0  0
    6.6992    0.7844    1.7043 C   0  0  0  0  0  0  0  0  0  0  0  0
    5.6723    0.0989    0.8026 C   0  0  0  0  0  0  0  0  0  0  0  0
    4.8895   -0.9052    1.5864 C   0  0  0  0  0  0  0  0  0  0  0  0
    3.8909   -1.5920    0.7119 C   0  0  0  0  0  0  0  0  0  0  0  0
    2.9003   -0.6277    0.1160 C   0  0  0  0  0  0  0  0  0  0  0  0
    1.8933   -1.3663   -0.7542 C   0  0  0  0  0  0  0  0  0  0  0  0
    1.2452   -2.2739    0.0625 O   0  0  0  0  0  0  0  0  0  0  0  0
    0.2895   -3.0308   -0.5873 C   0  0  0  0  0  0  0  0  0  0  0  0
   -0.8109   -2.2028   -1.2005 C   0  0  0  0  0  0  0  0  0  0  0  0
   -1.4902   -1.4290   -0.0865 C   0  0  0  0  0  0  0  0  0  0  0  0
   -2.6198   -0.5703   -0.6660 C   0  0  0  0  0  0  0  0  0  0  0  0
   -3.2850    0.1852    0.4112 C   0  0  0  0  0  0  0  0  0  0  0  0
   -4.3462    1.0282    0.0829 N   0  0  0  0  0  0  0  0  0  0  0  0
   -4.9221    1.7166    1.1890 C   0  0  0  0  0  0  0  0  0  0  0  0
   -6.0626    0.9371    1.7738 C   0  0  2  0  0  0  0  0  0  0  0  0
   -5.6601   -0.2911    2.2933 O   0  0  0  0  0  0  0  0  0  0  0  0
   -7.0975    0.7575    0.6937 C   0  0  1  0  0  0  0  0  0  0  0  0
   -8.1919    1.5880    1.0309 O   0  0  0  0  0  0  0  0  0  0  0  0
   -6.6048    1.2207   -0.6359 C   0  0  2  0  0  0  0  0  0  0  0  0
   -7.5088    0.7232   -1.6039 O   0  0  0  0  0  0  0  0  0  0  0  0
   -5.2082    0.6914   -0.9688 C   0  0  1  0  0  0  0  0  0  0  0  0
   -4.8274    1.4213   -2.2655 C   0  0  0  0  0  0  0  0  0  0  0  0
   -5.7790    0.9801   -3.2146 O   0  0  0  0  0  0  0  0  0  0  0  0
    8.8288    2.1498   -2.1032 H   0  0  0  0  0  0  0  0  0  0  0  0
   10.0384    2.2041   -0.7521 H   0  0  0  0  0  0  0  0  0  0  0  0
    8.5586    3.2311   -0.6994 H   0  0  0  0  0  0  0  0  0  0  0  0
    8.8808    0.3768    0.1081 H   0  0  0  0  0  0  0  0  0  0  0  0
    7.4354    0.7740   -0.9590 H   0  0  0  0  0  0  0  0  0  0  0  0
    8.1914    2.3169    1.5716 H   0  0  0  0  0  0  0  0  0  0  0  0
    6.7861    2.5614    0.4638 H   0  0  0  0  0  0  0  0  0  0  0  0
    6.1661    1.2807    2.5389 H   0  0  0  0  0  0  0  0  0  0  0  0
    7.3380   -0.0203    2.1142 H   0  0  0  0  0  0  0  0  0  0  0  0
    5.0757    0.8582    0.2766 H   0  0  0  0  0  0  0  0  0  0  0  0
    6.2375   -0.4915    0.0267 H   0  0  0  0  0  0  0  0  0  0  0  0
    5.6350   -1.6454    1.9922 H   0  0  0  0  0  0  0  0  0  0  0  0
    4.3703   -0.4108    2.4582 H   0  0  0  0  0  0  0  0  0  0  0  0
    4.4068   -2.1306   -0.1297 H   0  0  0  0  0  0  0  0  0  0  0  0
    3.3329   -2.3574    1.3133 H   0  0  0  0  0  0  0  0  0  0  0  0
    2.3261   -0.1716    0.9495 H   0  0  0  0  0  0  0  0  0  0  0  0
    3.4004    0.1478   -0.4975 H   0  0  0  0  0  0  0  0  0  0  0  0
    1.1698   -0.6030   -1.1079 H   0  0  0  0  0  0  0  0  0  0  0  0
    2.3905   -1.8376   -1.6303 H   0  0  0  0  0  0  0  0  0  0  0  0
   -0.1462   -3.7166    0.1821 H   0  0  0  0  0  0  0  0  0  0  0  0
    0.7519   -3.7111   -1.3447 H   0  0  0  0  0  0  0  0  0  0  0  0
   -0.3987   -1.5673   -1.9837 H   0  0  0  0  0  0  0  0  0  0  0  0
   -1.5109   -2.9141   -1.6897 H   0  0  0  0  0  0  0  0  0  0  0  0
   -1.8642   -2.1339    0.6598 H   0  0  0  0  0  0  0  0  0  0  0  0
   -0.7462   -0.7252    0.3317 H   0  0  0  0  0  0  0  0  0  0  0  0
   -3.2441   -1.2333   -1.2557 H   0  0  0  0  0  0  0  0  0  0  0  0
   -2.0862    0.1429   -1.3618 H   0  0  0  0  0  0  0  0  0  0  0  0
   -2.4910    0.7893    0.9416 H   0  0  0  0  0  0  0  0  0  0  0  0
   -3.6194   -0.5508    1.1935 H   0  0  0  0  0  0  0  0  0  0  0  0
   -4.2040    1.9154    1.9924 H   0  0  0  0  0  0  0  0  0  0  0  0
   -5.3615    2.7039    0.8590 H   0  0  0  0  0  0  0  0  0  0  0  0
   -6.4797    1.5033    2.6550 H   0  0  0  0  0  0  0  0  0  0  0  0
   -6.0379   -0.9926    1.7287 H   0  0  0  0  0  0  0  0  0  0  0  0
   -7.5118   -0.2681    0.6776 H   0  0  0  0  0  0  0  0  0  0  0  0
   -8.9110    1.0754    1.4759 H   0  0  0  0  0  0  0  0  0  0  0  0
   -6.5921    2.3062   -0.7595 H   0  0  0  0  0  0  0  0  0  0  0  0
   -7.7999   -0.2064   -1.3506 H   0  0  0  0  0  0  0  0  0  0  0  0
   -5.3444   -0.3863   -1.1705 H   0  0  0  0  0  0  0  0  0  0  0  0
   -4.9638    2.4946   -2.0906 H   0  0  0  0  0  0  0  0  0  0  0  0
   -3.8563    1.1194   -2.6487 H   0  0  0  0  0  0  0  0  0  0  0  0
   -5.8319   -0.0135   -3.1126 H   0  0  0  0  0  0  0  0  0  0  0  0
  1  2  1  0
  2  3  1  0
  3  4  1  0
  4  5  1  0
  5  6  1  0
  6  7  1  0
  7  8  1  0
  8  9  1  0
  9 10  1  0
 10 11  1  0
 11 12  1  0
 12 13  1  0
 13 14  1  0
 14 15  1  0
 15 16  1  0
 16 17  1  0
 17 18  1  0
 18 19  1  0
 18 20  1  0
 20 21  1  0
 20 22  1  0
 22 23  1  0
 22 24  1  0
 24 25  1  0
 25 26  1  0
 24 16  1  0
  1 27  1  0
  1 28  1  0
  1 29  1  0
  2 30  1  0
  2 31  1  0
  3 32  1  0
  3 33  1  0
  4 34  1  0
  4 35  1  0
  5 36  1  0
  5 37  1  0
  6 38  1  0
  6 39  1  0
  7 40  1  0
  7 41  1  0
  8 42  1  0
  8 43  1  0
  9 44  1  0
  9 45  1  0
 11 46  1  0
 11 47  1  0
 12 48  1  0
 12 49  1  0
 13 50  1  0
 13 51  1  0
 14 52  1  0
 14 53  1  0
 15 54  1  0
 15 55  1  0
 17 56  1  0
 17 57  1  0
 18 58  1  1
 19 59  1  0
 20 60  1  6
 21 61  1  0
 22 62  1  1
 23 63  1  0
 24 64  1  6
 25 65  1  0
 25 66  1  0
 26 67  1  0
M  END
$$$$
