
     RDKit          3D

 48 52  0  0  0  0  0  0  0  0999 V2000
    4.1625   -1.7074   -2.3706 O   0  0  0  0  0  0  0  0  0  0  0  0
    4.1966   -0.3761   -1.7111 S   0  0  0  0  0  6  0  0  0  0  0  0
    4.8568    0.5934   -2.6518 O   0  0  0  0  0  0  0  0  0  0  0  0
    5.1784   -0.5203   -0.2647 C   0  0  0  0  0  0  0  0  0  0  0  0
    5.8855    0.5645    0.1917 C   0  0  0  0  0  0  0  0  0  0  0  0
    6.6748    0.5178    1.3204 C   0  0  0  0  0  0  0  0  0  0  0  0
    6.7453   -0.6759    2.0068 C   0  0  0  0  0  0  0  0  0  0  0  0
    6.0569   -1.7832    1.5876 C   0  0  0  0  0  0  0  0  0  0  0  0
    6.1546   -2.9360    2.2919 F   0  0  0  0  0  0  0  0  0  0  0  0
    5.2687   -1.6976    0.4414 C   0  0  0  0  0  0  0  0  0  0  0  0
    2.5633    0.1278   -1.3123 C   0  0  0  0  0  0  0  0  0  0  0  0
    2.2380    1.4667   -1.2621 C   0  0  0  0  0  0  0  0  0  0  0  0
    0.9492    1.8864   -0.9478 C   0  0  0  0  0  0  0  0  0  0  0  0
   -0.0389    0.9697   -0.6777 C   0  0  0  0  0  0  0  0  0  0  0  0
   -1.3838    1.1189   -0.3429 C   0  0  0  0  0  0  0  0  0  0  0  0
   -1.8296   -0.1790   -0.2001 C   0  0  0  0  0  0  0  0  0  0  0  0
   -0.8411   -1.0042   -0.4293 O   0  0  0  0  0  0  0  0  0  0  0  0
    0.2635   -0.3745   -0.7220 C   0  0  0  0  0  0  0  0  0  0  0  0
    1.5621   -0.7784   -1.0391 C   0  0  0  0  0  0  0  0  0  0  0  0
   -3.2733   -0.3181    0.1665 C   0  0  0  0  0  0  0  0  0  0  0  0
   -4.1284   -0.3149   -1.0529 C   0  0  0  0  0  0  0  0  0  0  0  0
   -5.5759   -0.3912   -0.6203 C   0  0  0  0  0  0  0  0  0  0  0  0
   -5.6775   -1.4501    0.4493 C   0  0  0  0  0  0  0  0  0  0  0  0
   -4.5865   -2.3098    0.4524 O   0  0  0  0  0  0  0  0  0  0  0  0
   -3.4050   -1.6979    0.8249 C   0  0  0  0  0  0  0  0  0  0  0  0
   -3.6356    0.6479    1.1608 N   0  0  0  0  0  0  0  0  0  0  0  0
   -3.3773    2.0063    0.8363 C   0  0  0  0  0  0  0  0  0  0  0  0
   -2.2878    2.2645   -0.1438 C   0  0  0  0  0  0  0  0  0  0  0  0
    5.8207    1.5042   -0.3616 H   0  0  0  0  0  0  0  0  0  0  0  0
    7.2350    1.3958    1.6729 H   0  0  0  0  0  0  0  0  0  0  0  0
    7.3672   -0.7003    2.8899 H   0  0  0  0  0  0  0  0  0  0  0  0
    4.7138   -2.5489    0.0831 H   0  0  0  0  0  0  0  0  0  0  0  0
    2.9987    2.2001   -1.4707 H   0  0  0  0  0  0  0  0  0  0  0  0
    0.6784    2.9286   -0.9043 H   0  0  0  0  0  0  0  0  0  0  0  0
    1.7964   -1.8215   -1.0734 H   0  0  0  0  0  0  0  0  0  0  0  0
   -3.8843   -1.2335   -1.6390 H   0  0  0  0  0  0  0  0  0  0  0  0
   -3.9685    0.5357   -1.7153 H   0  0  0  0  0  0  0  0  0  0  0  0
   -5.8649    0.5949   -0.1983 H   0  0  0  0  0  0  0  0  0  0  0  0
   -6.2523   -0.5991   -1.4912 H   0  0  0  0  0  0  0  0  0  0  0  0
   -5.8913   -1.0186    1.4536 H   0  0  0  0  0  0  0  0  0  0  0  0
   -6.5660   -2.0802    0.1875 H   0  0  0  0  0  0  0  0  0  0  0  0
   -2.5682   -2.3617    0.4988 H   0  0  0  0  0  0  0  0  0  0  0  0
   -3.3133   -1.6046    1.9366 H   0  0  0  0  0  0  0  0  0  0  0  0
   -3.1282    0.3889    2.0420 H   0  0  0  0  0  0  0  0  0  0  0  0
   -3.0829    2.5397    1.7891 H   0  0  0  0  0  0  0  0  0  0  0  0
   -4.3418    2.5213    0.5532 H   0  0  0  0  0  0  0  0  0  0  0  0
   -1.6860    3.1765    0.1101 H   0  0  0  0  0  0  0  0  0  0  0  0
   -2.7781    2.5332   -1.1260 H   0  0  0  0  0  0  0  0  0  0  0  0
  1  2  2  0
  2  3  2  0
  2  4  1  0
  4  5  2  0
  5  6  1  0
  6  7  2  0
  7  8  1  0
  8  9  1  0
  8 10  2  0
  2 11  1  0
 11 12  2  0
 12 13  1  0
 13 14  2  0
 14 15  1  0
 15 16  2  0
 16 17  1  0
 17 18  1  0
 18 19  2  0
 16 20  1  0
 20 21  1  0
 21 22  1  0
 22 23  1  0
 23 24  1  0
 24 25  1  0
 20 26  1  0
 26 27  1  0
 27 28  1  0
 10  4  1  0
 19 11  1  0
 25 20  1  0
 18 14  1  0
 28 15  1  0
  5 29  1  0
  6 30  1  0
  7 31  1  0
 10 32  1  0
 12 33  1  0
 13 34  1  0
 19 35  1  0
 21 36  1  0
 21 37  1  0
 22 38  1  0
 22 39  1  0
 23 40  1  0
 23 41  1  0
 25 42  1  0
 25 43  1  0
 26 44  1  0
 27 45  1  0
 27 46  1  0
 28 47  1  0
 28 48  1  0
M  END
$$$$
