
     RDKit          3D

 42 45  0  0  0  0  0  0  0  0999 V2000
   -2.4119    3.4309    0.3480 N   0  0  0  0  0  0  0  0  0  0  0  0
   -2.9058    2.1151    0.1676 C   0  0  0  0  0  0  0  0  0  0  0  0
   -2.1671    1.0946    0.4282 N   0  0  0  0  0  0  0  0  0  0  0  0
   -2.6763   -0.2419    0.2425 C   0  0  1  0  0  0  0  0  0  0  0  0
   -1.4835   -1.1431    0.0681 C   0  0  0  0  0  0  0  0  0  0  0  0
   -0.1835   -0.6285    0.1083 C   0  0  0  0  0  0  0  0  0  0  0  0
    0.8976   -1.4516   -0.0489 C   0  0  0  0  0  0  0  0  0  0  0  0
    2.2446   -1.0052   -0.0205 N   0  0  0  0  0  0  0  0  0  0  0  0
    2.7057    0.3146    0.1671 C   0  0  0  0  0  0  0  0  0  0  0  0
    1.8807    1.2368    0.3318 O   0  0  0  0  0  0  0  0  0  0  0  0
    4.1619    0.6171    0.1704 C   0  0  0  0  0  0  0  0  0  0  0  0
    4.5921    1.9004    0.3533 C   0  0  0  0  0  0  0  0  0  0  0  0
    5.9650    2.1127    0.3453 C   0  0  0  0  0  0  0  0  0  0  0  0
    6.8433    1.0535    0.1582 C   0  0  0  0  0  0  0  0  0  0  0  0
    8.7366    1.3407    0.1463 Br  0  0  0  0  0  0  0  0  0  0  0  0
    6.3524   -0.2016   -0.0186 C   0  0  0  0  0  0  0  0  0  0  0  0
    5.0147   -0.4011   -0.0097 N   0  0  0  0  0  0  0  0  0  0  0  0
    0.6792   -2.8242   -0.2517 C   0  0  0  0  0  0  0  0  0  0  0  0
   -0.5765   -3.3325   -0.2923 C   0  0  0  0  0  0  0  0  0  0  0  0
   -1.6564   -2.4929   -0.1327 C   0  0  0  0  0  0  0  0  0  0  0  0
   -2.9319   -3.0023   -0.1748 F   0  0  0  0  0  0  0  0  0  0  0  0
   -3.3389   -0.6408    1.5450 C   0  0  0  0  0  0  0  0  0  0  0  0
   -2.3629   -0.5897    2.5215 F   0  0  0  0  0  0  0  0  0  0  0  0
   -4.3066    0.2767    1.9148 F   0  0  0  0  0  0  0  0  0  0  0  0
   -3.5698   -0.4155   -0.9379 C   0  0  1  0  0  0  0  0  0  0  0  0
   -5.0462   -0.4360   -0.8042 C   0  0  0  0  0  0  0  0  0  0  0  0
   -4.4095    0.8048   -1.2454 C   0  0  1  0  0  0  0  0  0  0  0  0
   -4.1963    1.8335   -0.2942 O   0  0  0  0  0  0  0  0  0  0  0  0
   -2.2314    4.0480   -0.4626 H   0  0  0  0  0  0  0  0  0  0  0  0
   -2.2227    3.7984    1.2980 H   0  0  0  0  0  0  0  0  0  0  0  0
   -0.0875    0.4412    0.2685 H   0  0  0  0  0  0  0  0  0  0  0  0
    3.0089   -1.7318   -0.1536 H   0  0  0  0  0  0  0  0  0  0  0  0
    3.9025    2.7196    0.4983 H   0  0  0  0  0  0  0  0  0  0  0  0
    6.3851    3.0978    0.4830 H   0  0  0  0  0  0  0  0  0  0  0  0
    7.0524   -1.0251   -0.1646 H   0  0  0  0  0  0  0  0  0  0  0  0
    1.5658   -3.4692   -0.3761 H   0  0  0  0  0  0  0  0  0  0  0  0
   -0.7501   -4.3800   -0.4469 H   0  0  0  0  0  0  0  0  0  0  0  0
   -3.7211   -1.6714    1.5079 H   0  0  0  0  0  0  0  0  0  0  0  0
   -3.1209   -0.8695   -1.8418 H   0  0  0  0  0  0  0  0  0  0  0  0
   -5.5717   -0.4558    0.1483 H   0  0  0  0  0  0  0  0  0  0  0  0
   -5.5929   -1.0089   -1.6085 H   0  0  0  0  0  0  0  0  0  0  0  0
   -4.4671    1.1824   -2.2805 H   0  0  0  0  0  0  0  0  0  0  0  0
  1  2  1  0
  2  3  2  0
  3  4  1  0
  4  5  1  0
  5  6  2  0
  6  7  1  0
  7  8  1  0
  8  9  1  0
  9 10  2  0
  9 11  1  0
 11 12  2  0
 12 13  1  0
 13 14  2  0
 14 15  1  0
 14 16  1  0
 16 17  2  0
  7 18  2  0
 18 19  1  0
 19 20  2  0
 20 21  1  0
  4 22  1  1
 22 23  1  0
 22 24  1  0
  4 25  1  0
 25 26  1  0
 26 27  1  0
 27 28  1  0
 28  2  1  0
 20  5  1  0
 27 25  1  0
 17 11  1  0
  1 29  1  0
  1 30  1  0
  6 31  1  0
  8 32  1  0
 12 33  1  0
 13 34  1  0
 16 35  1  0
 18 36  1  0
 19 37  1  0
 22 38  1  0
 25 39  1  6
 26 40  1  0
 26 41  1  0
 27 42  1  6
M  END
$$$$
