
     RDKit          3D

 43 45  0  0  0  0  0  0  0  0999 V2000
   -0.0224    4.9061    1.7086 C   0  0  0  0  0  0  0  0  0  0  0  0
   -1.2099    3.6285    1.2204 S   0  0  0  0  0  0  0  0  0  0  0  0
   -0.3135    2.1770    0.6525 C   0  0  0  0  0  0  0  0  0  0  0  0
    1.0323    2.0292    0.5872 N   0  0  0  0  0  0  0  0  0  0  0  0
    1.3272    0.8115    0.1135 C   0  0  0  0  0  0  0  0  0  0  0  0
    2.6858    0.3060   -0.0905 C   0  0  0  0  0  0  0  0  0  0  0  0
    3.7610    0.9213    0.5133 C   0  0  0  0  0  0  0  0  0  0  0  0
    5.0484    0.4739    0.3438 C   0  0  0  0  0  0  0  0  0  0  0  0
    5.2549   -0.6271   -0.4591 C   0  0  0  0  0  0  0  0  0  0  0  0
    6.5621   -1.0579   -0.6135 O   0  0  0  0  0  0  0  0  0  0  0  0
    7.0715   -2.0152    0.3021 C   0  0  0  0  0  0  0  0  0  0  0  0
    6.3166   -3.1685    0.2424 F   0  0  0  0  0  0  0  0  0  0  0  0
    6.9940   -1.4342    1.5624 F   0  0  0  0  0  0  0  0  0  0  0  0
    8.3751   -2.2706   -0.0216 F   0  0  0  0  0  0  0  0  0  0  0  0
    4.1872   -1.2643   -1.0785 C   0  0  0  0  0  0  0  0  0  0  0  0
    2.9152   -0.7938   -0.8895 C   0  0  0  0  0  0  0  0  0  0  0  0
    0.1651    0.1985   -0.1173 N   0  0  0  0  0  0  0  0  0  0  0  0
   -0.8297    1.0226    0.2081 N   0  0  0  0  0  0  0  0  0  0  0  0
   -2.2298    0.7324    0.1039 C   0  0  0  0  0  0  0  0  0  0  0  0
   -3.0359    1.6168    0.4515 O   0  0  0  0  0  0  0  0  0  0  0  0
   -2.6652   -0.5384   -0.3862 N   0  0  0  0  0  0  0  0  0  0  0  0
   -1.6740   -1.5207   -0.7734 C   0  0  0  0  0  0  0  0  0  0  0  0
   -4.0324   -0.8492   -0.4983 C   0  0  0  0  0  0  0  0  0  0  0  0
   -4.7785   -0.5930   -1.6532 C   0  0  0  0  0  0  0  0  0  0  0  0
   -6.1084   -0.8997   -1.7508 C   0  0  0  0  0  0  0  0  0  0  0  0
   -6.7670   -1.4816   -0.6948 C   0  0  0  0  0  0  0  0  0  0  0  0
   -6.0696   -1.7532    0.4669 C   0  0  0  0  0  0  0  0  0  0  0  0
   -4.7298   -1.4345    0.5405 C   0  0  0  0  0  0  0  0  0  0  0  0
   -0.4320    5.9292    1.5805 H   0  0  0  0  0  0  0  0  0  0  0  0
    0.9088    4.7907    1.0858 H   0  0  0  0  0  0  0  0  0  0  0  0
    0.2732    4.7042    2.7629 H   0  0  0  0  0  0  0  0  0  0  0  0
    3.6126    1.7921    1.1503 H   0  0  0  0  0  0  0  0  0  0  0  0
    5.8929    0.9801    0.8353 H   0  0  0  0  0  0  0  0  0  0  0  0
    4.3789   -2.1354   -1.7100 H   0  0  0  0  0  0  0  0  0  0  0  0
    2.0836   -1.2799   -1.3643 H   0  0  0  0  0  0  0  0  0  0  0  0
   -2.1865   -2.4381   -1.1798 H   0  0  0  0  0  0  0  0  0  0  0  0
   -1.0451   -1.1696   -1.6349 H   0  0  0  0  0  0  0  0  0  0  0  0
   -1.0591   -1.8250    0.1018 H   0  0  0  0  0  0  0  0  0  0  0  0
   -4.2948   -0.1343   -2.5092 H   0  0  0  0  0  0  0  0  0  0  0  0
   -6.7017   -0.7066   -2.6421 H   0  0  0  0  0  0  0  0  0  0  0  0
   -7.8199   -1.7390   -0.7348 H   0  0  0  0  0  0  0  0  0  0  0  0
   -6.6027   -2.2140    1.2956 H   0  0  0  0  0  0  0  0  0  0  0  0
   -4.2385   -1.6761    1.4883 H   0  0  0  0  0  0  0  0  0  0  0  0
  1  2  1  0
  2  3  1  0
  3  4  2  0
  4  5  1  0
  5  6  1  0
  6  7  2  0
  7  8  1  0
  8  9  2  0
  9 10  1  0
 10 11  1  0
 11 12  1  0
 11 13  1  0
 11 14  1  0
  9 15  1  0
 15 16  2  0
  5 17  2  0
 17 18  1  0
 18 19  1  0
 19 20  2  0
 19 21  1  0
 21 22  1  0
 21 23  1  0
 23 24  2  0
 24 25  1  0
 25 26  2  0
 26 27  1  0
 27 28  2  0
 18  3  1  0
 28 23  1  0
 16  6  1  0
  1 29  1  0
  1 30  1  0
  1 31  1  0
  7 32  1  0
  8 33  1  0
 15 34  1  0
 16 35  1  0
 22 36  1  0
 22 37  1  0
 22 38  1  0
 24 39  1  0
 25 40  1  0
 26 41  1  0
 27 42  1  0
 28 43  1  0
M  END
$$$$
