
     RDKit          3D

 59 59  0  0  0  0  0  0  0  0999 V2000
    6.5444    3.0957    1.0908 C   0  0  0  0  0  0  0  0  0  0  0  0
    6.5103    1.7323    0.4390 C   0  0  0  0  0  0  0  0  0  0  0  0
    5.0331    1.3220    0.3758 C   0  0  0  0  0  0  0  0  0  0  0  0
    4.9626   -0.0165   -0.2605 C   0  0  0  0  0  0  0  0  0  0  0  0
    3.5818   -0.5503   -0.3357 C   0  0  0  0  0  0  0  0  0  0  0  0
    2.6415    0.2930   -1.1372 C   0  0  2  0  0  0  0  0  0  0  0  0
    2.4423    1.5627   -0.6776 O   0  0  0  0  0  0  0  0  0  0  0  0
    1.2947   -0.3988   -1.0328 C   0  0  0  0  0  0  0  0  0  0  0  0
    0.9352   -1.4656   -1.7276 C   0  0  0  0  0  0  0  0  0  0  0  0
   -0.2885   -2.3152   -1.8152 C   0  0  1  0  0  0  0  0  0  0  0  0
    0.0099   -3.7001   -1.2142 C   0  0  2  0  0  0  0  0  0  0  0  0
    0.1152   -4.6557   -2.2121 O   0  0  0  0  0  0  0  0  0  0  0  0
   -1.1826   -4.0513   -0.3501 C   0  0  0  0  0  0  0  0  0  0  0  0
   -2.2230   -3.0835   -0.8078 C   0  0  0  0  0  0  0  0  0  0  0  0
   -3.3889   -3.4581   -0.9888 O   0  0  0  0  0  0  0  0  0  0  0  0
   -1.3834   -1.8282   -0.9015 C   0  0  2  0  0  0  0  0  0  0  0  0
   -2.1670   -0.6937   -1.4648 C   0  0  0  0  0  0  0  0  0  0  0  0
   -3.2453   -0.2795   -0.4700 C   0  0  0  0  0  0  0  0  0  0  0  0
   -2.7094    0.1666    0.8290 C   0  0  0  0  0  0  0  0  0  0  0  0
   -3.7150    0.5880    1.8215 C   0  0  0  0  0  0  0  0  0  0  0  0
   -4.4622    1.8170    1.5941 C   0  0  0  0  0  0  0  0  0  0  0  0
   -5.2543    1.9870    0.3626 C   0  0  0  0  0  0  0  0  0  0  0  0
   -6.0200    3.3118    0.5298 C   0  0  0  0  0  0  0  0  0  0  0  0
   -6.8718    3.7757   -0.4656 O   0  0  0  0  0  0  0  0  0  0  0  0
   -6.0243    4.1299    1.4791 O   0  0  0  0  0  0  0  0  0  0  0  0
    7.3971    3.6667    0.6721 H   0  0  0  0  0  0  0  0  0  0  0  0
    5.5713    3.6003    0.9940 H   0  0  0  0  0  0  0  0  0  0  0  0
    6.7520    3.0135    2.1928 H   0  0  0  0  0  0  0  0  0  0  0  0
    7.0960    0.9925    0.9959 H   0  0  0  0  0  0  0  0  0  0  0  0
    6.8501    1.7708   -0.6189 H   0  0  0  0  0  0  0  0  0  0  0  0
    4.5735    1.2978    1.3733 H   0  0  0  0  0  0  0  0  0  0  0  0
    4.5071    2.0801   -0.2512 H   0  0  0  0  0  0  0  0  0  0  0  0
    5.3626   -0.0002   -1.3132 H   0  0  0  0  0  0  0  0  0  0  0  0
    5.5583   -0.7866    0.3298 H   0  0  0  0  0  0  0  0  0  0  0  0
    3.6592   -1.5961   -0.7857 H   0  0  0  0  0  0  0  0  0  0  0  0
    3.1733   -0.7695    0.6861 H   0  0  0  0  0  0  0  0  0  0  0  0
    2.9172    0.2937   -2.2190 H   0  0  0  0  0  0  0  0  0  0  0  0
    2.0613    1.5544    0.2273 H   0  0  0  0  0  0  0  0  0  0  0  0
    0.4812   -0.1077   -0.3780 H   0  0  0  0  0  0  0  0  0  0  0  0
    1.6849   -1.8738   -2.4325 H   0  0  0  0  0  0  0  0  0  0  0  0
   -0.6063   -2.4066   -2.8581 H   0  0  0  0  0  0  0  0  0  0  0  0
    0.9343   -3.6000   -0.6210 H   0  0  0  0  0  0  0  0  0  0  0  0
    0.9022   -5.2170   -1.9933 H   0  0  0  0  0  0  0  0  0  0  0  0
   -1.4837   -5.1019   -0.4312 H   0  0  0  0  0  0  0  0  0  0  0  0
   -0.9555   -3.7624    0.7139 H   0  0  0  0  0  0  0  0  0  0  0  0
   -0.9274   -1.6317    0.0620 H   0  0  0  0  0  0  0  0  0  0  0  0
   -2.6709   -0.9216   -2.4010 H   0  0  0  0  0  0  0  0  0  0  0  0
   -1.5056    0.1752   -1.6023 H   0  0  0  0  0  0  0  0  0  0  0  0
   -3.7974   -1.2628   -0.2732 H   0  0  0  0  0  0  0  0  0  0  0  0
   -3.8859    0.4057   -0.9667 H   0  0  0  0  0  0  0  0  0  0  0  0
   -2.0891   -0.6293    1.3398 H   0  0  0  0  0  0  0  0  0  0  0  0
   -1.9214    0.9906    0.6960 H   0  0  0  0  0  0  0  0  0  0  0  0
   -3.2026    0.6168    2.8590 H   0  0  0  0  0  0  0  0  0  0  0  0
   -4.4243   -0.3155    1.9391 H   0  0  0  0  0  0  0  0  0  0  0  0
   -3.7740    2.7352    1.6362 H   0  0  0  0  0  0  0  0  0  0  0  0
   -5.1078    1.9856    2.5278 H   0  0  0  0  0  0  0  0  0  0  0  0
   -4.5350    2.2792   -0.4605 H   0  0  0  0  0  0  0  0  0  0  0  0
   -5.9132    1.1667    0.1249 H   0  0  0  0  0  0  0  0  0  0  0  0
   -7.8166    4.0727   -0.2411 H   0  0  0  0  0  0  0  0  0  0  0  0
  1  2  1  0
  2  3  1  0
  3  4  1  0
  4  5  1  0
  5  6  1  0
  6  7  1  0
  6  8  1  0
  8  9  2  0
  9 10  1  0
 10 11  1  0
 11 12  1  0
 11 13  1  0
 13 14  1  0
 14 15  2  0
 14 16  1  0
 16 17  1  0
 17 18  1  0
 18 19  1  0
 19 20  1  0
 20 21  1  0
 21 22  1  0
 22 23  1  0
 23 24  1  0
 23 25  2  0
 16 10  1  0
  1 26  1  0
  1 27  1  0
  1 28  1  0
  2 29  1  0
  2 30  1  0
  3 31  1  0
  3 32  1  0
  4 33  1  0
  4 34  1  0
  5 35  1  0
  5 36  1  0
  6 37  1  6
  7 38  1  0
  8 39  1  0
  9 40  1  0
 10 41  1  6
 11 42  1  1
 12 43  1  0
 13 44  1  0
 13 45  1  0
 16 46  1  1
 17 47  1  0
 17 48  1  0
 18 49  1  0
 18 50  1  0
 19 51  1  0
 19 52  1  0
 20 53  1  0
 20 54  1  0
 21 55  1  0
 21 56  1  0
 22 57  1  0
 22 58  1  0
 24 59  1  0
M  END
$$$$
