
     RDKit          3D

 58 62  0  0  0  0  0  0  0  0999 V2000
   -0.4901    0.4620   -3.0516 C   0  0  0  0  0  0  0  0  0  0  0  0
   -0.3460    0.2836   -1.5508 C   0  0  2  0  0  0  0  0  0  0  0  0
    0.3760    1.4862   -1.0622 C   0  0  0  0  0  0  0  0  0  0  0  0
    1.6247    1.3360   -0.5028 C   0  0  0  0  0  0  0  0  0  0  0  0
    2.3384    2.4064   -0.0110 C   0  0  0  0  0  0  0  0  0  0  0  0
    3.6628    2.2948    0.5900 C   0  0  0  0  0  0  0  0  0  0  0  0
    4.0651    1.3009    1.3383 C   0  0  0  0  0  0  0  0  0  0  0  0
    3.2074    0.2874    1.5895 F   0  0  0  0  0  0  0  0  0  0  0  0
    5.4181    1.2349    1.9199 C   0  0  0  0  0  0  0  0  0  0  0  0
    5.8378    0.2054    2.6957 C   0  0  0  0  0  0  0  0  0  0  0  0
    7.1149    0.2062    3.2055 C   0  0  0  0  0  0  0  0  0  0  0  0
    8.0031    1.2463    2.9458 C   0  0  0  0  0  0  0  0  0  0  0  0
    9.3321    1.2490    3.4757 C   0  0  0  0  0  0  0  0  0  0  0  0
   10.4359    1.2410    3.8966 N   0  0  0  0  0  0  0  0  0  0  0  0
    7.5277    2.2716    2.1504 C   0  0  0  0  0  0  0  0  0  0  0  0
    6.2746    2.2426    1.6670 N   0  0  0  0  0  0  0  0  0  0  0  0
    1.7243    3.6397   -0.1136 C   0  0  0  0  0  0  0  0  0  0  0  0
    0.4785    3.8102   -0.6690 C   0  0  0  0  0  0  0  0  0  0  0  0
   -0.2235    2.7066   -1.1605 C   0  0  0  0  0  0  0  0  0  0  0  0
   -1.4409    2.9460   -1.7130 F   0  0  0  0  0  0  0  0  0  0  0  0
    0.4756   -0.9047   -1.3788 N   0  0  0  0  0  0  0  0  0  0  0  0
    0.1266   -2.1024   -1.5315 C   0  0  0  0  0  0  0  0  0  0  0  0
    0.9906   -3.1777   -1.3443 N   0  0  0  0  0  0  0  0  0  0  0  0
   -1.5735   -2.3849   -1.9894 S   0  0  0  0  0  0  0  0  0  0  0  0
   -2.4876   -1.0350   -1.1746 C   0  0  1  0  0  0  0  0  0  0  0  0
   -3.9188   -0.9443   -1.5557 C   0  0  0  0  0  0  0  0  0  0  0  0
   -4.2425   -0.1270   -2.4580 O   0  0  0  0  0  0  0  0  0  0  0  0
   -4.9239   -1.7406   -0.9427 N   0  0  0  0  0  0  0  0  0  0  0  0
   -6.2963   -1.6057   -1.3575 C   0  0  0  0  0  0  0  0  0  0  0  0
   -7.2920   -2.0301   -0.3252 C   0  0  0  0  0  0  0  0  0  0  0  0
   -6.7431   -1.7587    0.9905 N   0  0  0  0  0  0  0  0  0  0  0  0
   -5.4780   -2.3743    1.2960 C   0  0  0  0  0  0  0  0  0  0  0  0
   -5.1356   -2.6097    2.4632 O   0  0  0  0  0  0  0  0  0  0  0  0
   -4.6300   -2.6973    0.0963 C   0  0  0  0  0  0  0  0  0  0  0  0
   -2.0114   -0.7498    0.1955 C   0  0  0  0  0  0  0  0  0  0  0  0
   -1.7154    0.1784   -0.9704 C   0  0  1  0  0  0  0  0  0  0  0  0
   -0.7104    1.5043   -3.3393 H   0  0  0  0  0  0  0  0  0  0  0  0
    0.4344    0.0829   -3.5482 H   0  0  0  0  0  0  0  0  0  0  0  0
   -1.3133   -0.1895   -3.4462 H   0  0  0  0  0  0  0  0  0  0  0  0
    2.1144    0.3654   -0.4200 H   0  0  0  0  0  0  0  0  0  0  0  0
    4.3570    3.1008    0.3962 H   0  0  0  0  0  0  0  0  0  0  0  0
    5.1427   -0.5995    2.8933 H   0  0  0  0  0  0  0  0  0  0  0  0
    7.4847   -0.5858    3.8205 H   0  0  0  0  0  0  0  0  0  0  0  0
    8.2080    3.1087    1.9282 H   0  0  0  0  0  0  0  0  0  0  0  0
    2.2716    4.5065    0.2706 H   0  0  0  0  0  0  0  0  0  0  0  0
    0.0065    4.7992   -0.7422 H   0  0  0  0  0  0  0  0  0  0  0  0
    0.5977   -4.0837   -0.9913 H   0  0  0  0  0  0  0  0  0  0  0  0
    2.0326   -3.1711   -1.5279 H   0  0  0  0  0  0  0  0  0  0  0  0
   -6.4940   -0.5321   -1.6329 H   0  0  0  0  0  0  0  0  0  0  0  0
   -6.4512   -2.2616   -2.2639 H   0  0  0  0  0  0  0  0  0  0  0  0
   -7.4781   -3.1201   -0.4424 H   0  0  0  0  0  0  0  0  0  0  0  0
   -8.2357   -1.4836   -0.4915 H   0  0  0  0  0  0  0  0  0  0  0  0
   -7.2141   -1.1594    1.6902 H   0  0  0  0  0  0  0  0  0  0  0  0
   -4.9346   -3.7132   -0.2500 H   0  0  0  0  0  0  0  0  0  0  0  0
   -3.5813   -2.6629    0.4263 H   0  0  0  0  0  0  0  0  0  0  0  0
   -1.2047   -1.3431    0.6310 H   0  0  0  0  0  0  0  0  0  0  0  0
   -2.7826   -0.4708    0.9408 H   0  0  0  0  0  0  0  0  0  0  0  0
   -2.3156    1.1152   -0.8832 H   0  0  0  0  0  0  0  0  0  0  0  0
  2  1  1  6
  2  3  1  0
  3  4  2  0
  4  5  1  0
  5  6  1  0
  6  7  2  0
  7  8  1  0
  7  9  1  0
  9 10  2  0
 10 11  1  0
 11 12  2  0
 12 13  1  0
 13 14  3  0
 12 15  1  0
 15 16  2  0
  5 17  2  0
 17 18  1  0
 18 19  2  0
 19 20  1  0
  2 21  1  0
 21 22  2  0
 22 23  1  0
 22 24  1  0
 24 25  1  0
 25 26  1  1
 26 27  2  0
 26 28  1  0
 28 29  1  0
 29 30  1  0
 30 31  1  0
 31 32  1  0
 32 33  2  0
 32 34  1  0
 25 35  1  0
 35 36  1  0
 36  2  1  0
 19  3  1  0
 36 25  1  0
 16  9  1  0
 34 28  1  0
  1 37  1  0
  1 38  1  0
  1 39  1  0
  4 40  1  0
  6 41  1  0
 10 42  1  0
 11 43  1  0
 15 44  1  0
 17 45  1  0
 18 46  1  0
 23 47  1  0
 23 48  1  0
 29 49  1  0
 29 50  1  0
 30 51  1  0
 30 52  1  0
 31 53  1  0
 34 54  1  0
 34 55  1  0
 35 56  1  0
 35 57  1  0
 36 58  1  1
M  END
$$$$
