
     RDKit          3D

 51 53  0  0  0  0  0  0  0  0999 V2000
    6.0176   -1.7632   -0.2839 C   0  0  0  0  0  0  0  0  0  0  0  0
    5.5067   -0.6015   -0.9232 O   0  0  0  0  0  0  0  0  0  0  0  0
    4.2257   -0.1604   -0.5892 C   0  0  0  0  0  0  0  0  0  0  0  0
    3.6846    0.9859   -1.1978 C   0  0  0  0  0  0  0  0  0  0  0  0
    2.4047    1.3715   -0.8235 C   0  0  0  0  0  0  0  0  0  0  0  0
    1.6718    0.6679    0.1115 C   0  0  0  0  0  0  0  0  0  0  0  0
    2.2107   -0.4630    0.7110 C   0  0  0  0  0  0  0  0  0  0  0  0
    3.4789   -0.8761    0.3631 C   0  0  0  0  0  0  0  0  0  0  0  0
    0.0897    1.0260    0.6859 S   0  0  0  0  0  0  0  0  0  0  0  0
   -0.0779    0.6246    2.1565 O   0  0  0  0  0  0  0  0  0  0  0  0
   -0.1403    2.5345    0.7016 O   0  0  0  0  0  0  0  0  0  0  0  0
   -1.2116    0.3296   -0.1438 N   0  0  0  0  0  0  0  0  0  0  0  0
   -2.1118    0.9059   -1.1195 C   0  0  0  0  0  0  0  0  0  0  0  0
   -2.3917    2.3457   -0.8438 C   0  0  0  0  0  0  0  0  0  0  0  0
   -1.4912    3.1325   -1.6009 C   0  0  0  0  0  0  0  0  0  0  0  0
   -1.5105    4.5044   -1.5426 C   0  0  0  0  0  0  0  0  0  0  0  0
   -2.4298    5.1229   -0.7285 C   0  0  0  0  0  0  0  0  0  0  0  0
   -3.2666    4.3486   -0.0252 N   0  0  0  0  0  0  0  0  0  0  0  0
   -3.2843    3.0037   -0.0488 C   0  0  0  0  0  0  0  0  0  0  0  0
   -1.4098   -1.0835    0.0676 C   0  0  0  0  0  0  0  0  0  0  0  0
   -2.0991   -1.7074    1.0859 C   0  0  0  0  0  0  0  0  0  0  0  0
   -2.1776   -3.0710    1.2066 C   0  0  0  0  0  0  0  0  0  0  0  0
   -1.5639   -3.9187    0.3073 C   0  0  0  0  0  0  0  0  0  0  0  0
   -0.8730   -3.3076   -0.7104 C   0  0  0  0  0  0  0  0  0  0  0  0
   -0.7756   -1.9244   -0.8615 C   0  0  0  0  0  0  0  0  0  0  0  0
    0.0109   -1.5498   -2.0619 C   0  0  0  0  0  0  0  0  0  0  0  0
   -2.7437   -0.8113    2.0352 C   0  0  0  0  0  0  0  0  0  0  0  0
   -3.5360    0.1489    2.1765 O   0  0  0  0  0  0  0  0  0  0  0  0
   -2.3471   -1.1000    3.3992 N   0  0  0  0  0  0  0  0  0  0  0  0
   -2.3033   -0.9710    4.7655 O   0  0  0  0  0  0  0  0  0  0  0  0
    5.9881   -1.6413    0.8392 H   0  0  0  0  0  0  0  0  0  0  0  0
    7.0886   -1.9224   -0.5226 H   0  0  0  0  0  0  0  0  0  0  0  0
    5.4722   -2.6585   -0.6464 H   0  0  0  0  0  0  0  0  0  0  0  0
    4.2419    1.5579   -1.9327 H   0  0  0  0  0  0  0  0  0  0  0  0
    1.9120    2.2610   -1.2555 H   0  0  0  0  0  0  0  0  0  0  0  0
    1.7184   -1.0797    1.4673 H   0  0  0  0  0  0  0  0  0  0  0  0
    3.9319   -1.7611    0.8101 H   0  0  0  0  0  0  0  0  0  0  0  0
   -3.1354    0.3941   -1.0502 H   0  0  0  0  0  0  0  0  0  0  0  0
   -1.7360    0.6945   -2.1264 H   0  0  0  0  0  0  0  0  0  0  0  0
   -0.7117    2.7666   -2.2923 H   0  0  0  0  0  0  0  0  0  0  0  0
   -0.8168    5.1166   -2.1300 H   0  0  0  0  0  0  0  0  0  0  0  0
   -2.4530    6.1910   -0.6740 H   0  0  0  0  0  0  0  0  0  0  0  0
   -3.9052    2.3014    0.4644 H   0  0  0  0  0  0  0  0  0  0  0  0
   -2.7336   -3.4791    2.0208 H   0  0  0  0  0  0  0  0  0  0  0  0
   -1.6819   -4.9835    0.4804 H   0  0  0  0  0  0  0  0  0  0  0  0
   -0.4034   -4.0305   -1.4041 H   0  0  0  0  0  0  0  0  0  0  0  0
    0.8425   -2.2510   -2.2080 H   0  0  0  0  0  0  0  0  0  0  0  0
   -0.6790   -1.6301   -2.9505 H   0  0  0  0  0  0  0  0  0  0  0  0
    0.3168   -0.5095   -2.0327 H   0  0  0  0  0  0  0  0  0  0  0  0
   -1.6612   -1.8791    3.7028 H   0  0  0  0  0  0  0  0  0  0  0  0
   -3.1516   -1.2007    5.1714 H   0  0  0  0  0  0  0  0  0  0  0  0
  1  2  1  0
  2  3  1  0
  3  4  2  0
  4  5  1  0
  5  6  2  0
  6  7  1  0
  7  8  2  0
  6  9  1  0
  9 10  2  0
  9 11  2  0
  9 12  1  0
 12 13  1  0
 13 14  1  0
 14 15  2  0
 15 16  1  0
 16 17  2  0
 17 18  1  0
 18 19  2  0
 12 20  1  0
 20 21  2  0
 21 22  1  0
 22 23  2  0
 23 24  1  0
 24 25  2  0
 25 26  1  0
 21 27  1  0
 27 28  2  0
 27 29  1  0
 29 30  1  0
  8  3  1  0
 19 14  1  0
 25 20  1  0
  1 31  1  0
  1 32  1  0
  1 33  1  0
  4 34  1  0
  5 35  1  0
  7 36  1  0
  8 37  1  0
 13 38  1  0
 13 39  1  0
 15 40  1  0
 16 41  1  0
 17 42  1  0
 19 43  1  0
 22 44  1  0
 23 45  1  0
 24 46  1  0
 26 47  1  0
 26 48  1  0
 26 49  1  0
 29 50  1  0
 30 51  1  0
M  END
$$$$
