
     RDKit          3D

 33 34  0  0  0  0  0  0  0  0999 V2000
    3.2541   -0.5636    0.0889 C   0  0  1  0  0  0  0  0  0  0  0  0
    3.3793   -0.8947   -1.2415 O   0  0  0  0  0  0  0  0  0  0  0  0
    4.5219    0.0030    0.6256 C   0  0  0  0  0  0  0  0  0  0  0  0
    4.8393    1.1913   -0.1360 N   0  0  0  0  0  0  0  0  0  0  0  0
    2.0303    0.3053    0.3668 C   0  0  0  0  0  0  0  0  0  0  0  0
    0.8657   -0.4480   -0.0429 N   0  0  0  0  0  0  0  0  0  0  0  0
   -0.4585    0.0598    0.0748 C   0  0  0  0  0  0  0  0  0  0  0  0
   -1.5892   -0.6548   -0.3159 C   0  0  0  0  0  0  0  0  0  0  0  0
   -1.3687   -1.8898   -0.8279 N   0  0  0  0  0  0  0  0  0  0  0  0
   -2.4175   -2.6466   -1.2303 C   0  0  0  0  0  0  0  0  0  0  0  0
   -3.6898   -2.1202   -1.1005 C   0  0  0  0  0  0  0  0  0  0  0  0
   -3.9163   -0.8532   -0.5753 C   0  0  0  0  0  0  0  0  0  0  0  0
   -2.8433   -0.1004   -0.1727 C   0  0  0  0  0  0  0  0  0  0  0  0
   -2.9303    1.1569    0.3591 C   0  0  0  0  0  0  0  0  0  0  0  0
   -1.8593    1.9259    0.7688 C   0  0  0  0  0  0  0  0  0  0  0  0
   -0.6076    1.3371    0.6106 C   0  0  0  0  0  0  0  0  0  0  0  0
   -4.1950    1.7544    0.5200 N   0  0  0  0  0  4  0  0  0  0  0  0
   -5.4597    1.7707    0.0220 O   0  0  0  0  0  1  0  0  0  0  0  0
   -4.5245    2.6248    1.3734 O   0  0  0  0  0  0  0  0  0  0  0  0
    3.0489   -1.5225    0.6369 H   0  0  0  0  0  0  0  0  0  0  0  0
    2.8882   -1.7357   -1.4465 H   0  0  0  0  0  0  0  0  0  0  0  0
    4.3423    0.2610    1.7090 H   0  0  0  0  0  0  0  0  0  0  0  0
    5.2947   -0.7659    0.5378 H   0  0  0  0  0  0  0  0  0  0  0  0
    5.8098    1.4470    0.0864 H   0  0  0  0  0  0  0  0  0  0  0  0
    4.1250    1.9037    0.0502 H   0  0  0  0  0  0  0  0  0  0  0  0
    2.0255    0.5824    1.4235 H   0  0  0  0  0  0  0  0  0  0  0  0
    2.1046    1.1928   -0.2968 H   0  0  0  0  0  0  0  0  0  0  0  0
    0.9397   -1.4249   -0.4551 H   0  0  0  0  0  0  0  0  0  0  0  0
   -2.3995   -3.6378   -1.6532 H   0  0  0  0  0  0  0  0  0  0  0  0
   -4.6091   -2.6466   -1.3940 H   0  0  0  0  0  0  0  0  0  0  0  0
   -4.8856   -0.4341   -0.4686 H   0  0  0  0  0  0  0  0  0  0  0  0
   -1.9806    2.9161    1.1837 H   0  0  0  0  0  0  0  0  0  0  0  0
    0.2654    1.9063    0.9196 H   0  0  0  0  0  0  0  0  0  0  0  0
  1  2  1  0
  1  3  1  0
  3  4  1  0
  1  5  1  0
  5  6  1  0
  6  7  1  0
  7  8  2  0
  8  9  1  0
  9 10  2  0
 10 11  1  0
 11 12  2  0
 12 13  1  0
 13 14  2  0
 14 15  1  0
 15 16  2  0
 14 17  1  0
 17 18  1  0
 17 19  2  0
 16  7  1  0
 13  8  1  0
  1 20  1  1
  2 21  1  0
  3 22  1  0
  3 23  1  0
  4 24  1  0
  4 25  1  0
  5 26  1  0
  5 27  1  0
  6 28  1  0
 10 29  1  0
 11 30  1  0
 12 31  1  0
 15 32  1  0
 16 33  1  0
M  CHG  2  17   1  18  -1
M  END
$$$$
