
     RDKit          3D

 45 48  0  0  0  0  0  0  0  0999 V2000
   -6.5593    1.5672    2.6746 O   0  0  0  0  0  0  0  0  0  0  0  0
   -5.7578    0.8957    1.9943 C   0  0  0  0  0  0  0  0  0  0  0  0
   -6.0538    0.1465    0.8119 N   0  0  0  0  0  0  0  0  0  0  0  0
   -4.8556   -0.4828    0.3327 C   0  0  0  0  0  0  0  0  0  0  0  0
   -4.5613   -1.3035   -0.7427 C   0  0  0  0  0  0  0  0  0  0  0  0
   -3.2918   -1.7826   -0.9804 C   0  0  0  0  0  0  0  0  0  0  0  0
   -2.2585   -1.4477   -0.1316 C   0  0  0  0  0  0  0  0  0  0  0  0
   -0.6139   -2.0441   -0.4043 S   0  0  0  0  0  6  0  0  0  0  0  0
   -0.0459   -2.3610    0.9263 O   0  0  0  0  0  0  0  0  0  0  0  0
   -0.7973   -3.3772   -1.1222 O   0  0  0  0  0  0  0  0  0  0  0  0
    0.2156   -1.0026   -1.3518 N   0  0  0  0  0  0  0  0  0  0  0  0
   -0.1895   -0.7086   -2.6546 C   0  0  0  0  0  0  0  0  0  0  0  0
    1.1765   -0.5109   -3.3319 C   0  0  0  0  0  0  0  0  0  0  0  0
    1.9478    0.2216   -2.2259 C   0  0  0  0  0  0  0  0  0  0  0  0
    1.3278   -0.2914   -0.9108 C   0  0  1  0  0  0  0  0  0  0  0  0
    1.0396    0.9224   -0.0798 C   0  0  0  0  0  0  0  0  0  0  0  0
    2.1283    1.6206    0.3579 O   0  0  0  0  0  0  0  0  0  0  0  0
    3.1795    1.3629    1.1512 C   0  0  0  0  0  0  0  0  0  0  0  0
    4.1137    2.3924    1.3325 C   0  0  0  0  0  0  0  0  0  0  0  0
    5.2235    2.2568    2.1152 C   0  0  0  0  0  0  0  0  0  0  0  0
    5.4705    1.0831    2.7670 C   0  0  0  0  0  0  0  0  0  0  0  0
    4.5887    0.0451    2.6238 C   0  0  0  0  0  0  0  0  0  0  0  0
    3.4544    0.1992    1.8175 C   0  0  0  0  0  0  0  0  0  0  0  0
   -2.5437   -0.6315    0.9406 C   0  0  0  0  0  0  0  0  0  0  0  0
   -3.8116   -0.1553    1.1747 C   0  0  0  0  0  0  0  0  0  0  0  0
   -4.3318    0.7123    2.2375 C   0  0  0  0  0  0  0  0  0  0  0  0
   -3.6641    1.2110    3.1921 O   0  0  0  0  0  0  0  0  0  0  0  0
   -6.9921    0.0553    0.3474 H   0  0  0  0  0  0  0  0  0  0  0  0
   -5.3940   -1.5523   -1.3966 H   0  0  0  0  0  0  0  0  0  0  0  0
   -3.1058   -2.4287   -1.8439 H   0  0  0  0  0  0  0  0  0  0  0  0
   -0.7378   -1.5592   -3.1065 H   0  0  0  0  0  0  0  0  0  0  0  0
   -0.7213    0.2560   -2.7564 H   0  0  0  0  0  0  0  0  0  0  0  0
    1.1107    0.0639   -4.2498 H   0  0  0  0  0  0  0  0  0  0  0  0
    1.5915   -1.5361   -3.4438 H   0  0  0  0  0  0  0  0  0  0  0  0
    1.7561    1.2887   -2.3720 H   0  0  0  0  0  0  0  0  0  0  0  0
    3.0230    0.0102   -2.2627 H   0  0  0  0  0  0  0  0  0  0  0  0
    2.0315   -0.9456   -0.3928 H   0  0  0  0  0  0  0  0  0  0  0  0
    0.3051    0.6908    0.7441 H   0  0  0  0  0  0  0  0  0  0  0  0
    0.4412    1.6116   -0.7511 H   0  0  0  0  0  0  0  0  0  0  0  0
    3.9710    3.3485    0.8395 H   0  0  0  0  0  0  0  0  0  0  0  0
    5.9374    3.0675    2.2430 H   0  0  0  0  0  0  0  0  0  0  0  0
    6.3524    0.9847    3.3848 H   0  0  0  0  0  0  0  0  0  0  0  0
    4.7912   -0.8756    3.1407 H   0  0  0  0  0  0  0  0  0  0  0  0
    2.8123   -0.6394    1.7618 H   0  0  0  0  0  0  0  0  0  0  0  0
   -1.7024   -0.3780    1.6038 H   0  0  0  0  0  0  0  0  0  0  0  0
  1  2  2  0
  2  3  1  0
  3  4  1  0
  4  5  2  0
  5  6  1  0
  6  7  2  0
  7  8  1  0
  8  9  2  0
  8 10  2  0
  8 11  1  0
 11 12  1  0
 12 13  1  0
 13 14  1  0
 14 15  1  0
 15 16  1  0
 16 17  1  0
 17 18  1  0
 18 19  2  0
 19 20  1  0
 20 21  2  0
 21 22  1  0
 22 23  2  0
  7 24  1  0
 24 25  2  0
 25 26  1  0
 26 27  2  0
 26  2  1  0
 25  4  1  0
 15 11  1  0
 23 18  1  0
  3 28  1  0
  5 29  1  0
  6 30  1  0
 12 31  1  0
 12 32  1  0
 13 33  1  0
 13 34  1  0
 14 35  1  0
 14 36  1  0
 15 37  1  1
 16 38  1  0
 16 39  1  0
 19 40  1  0
 20 41  1  0
 21 42  1  0
 22 43  1  0
 23 44  1  0
 24 45  1  0
M  END
$$$$
