
     RDKit          3D

 49 52  0  0  0  0  0  0  0  0999 V2000
   -4.0696    3.7814   -2.7677 C   0  0  0  0  0  0  0  0  0  0  0  0
   -3.9237    2.8130   -1.6991 N   0  0  0  0  0  0  0  0  0  0  0  0
   -2.6852    2.6887   -1.0206 C   0  0  0  0  0  0  0  0  0  0  0  0
   -1.7508    3.4431   -1.3898 O   0  0  0  0  0  0  0  0  0  0  0  0
   -2.5359    1.6981    0.0770 C   0  0  2  0  0  0  0  0  0  0  0  0
   -1.2465    1.5754    0.7951 C   0  0  0  0  0  0  0  0  0  0  0  0
   -1.7239    0.5339   -0.1565 C   0  0  1  0  0  0  0  0  0  0  0  0
   -2.1591   -0.8231    0.3175 C   0  0  1  0  0  0  0  0  0  0  0  0
   -3.1275   -1.3688   -0.7500 C   0  0  0  0  0  0  0  0  0  0  0  0
   -1.0150   -1.7696    0.3484 C   0  0  0  0  0  0  0  0  0  0  0  0
    0.2630   -1.2794    0.1911 C   0  0  0  0  0  0  0  0  0  0  0  0
    1.3504   -2.1540    0.2243 C   0  0  0  0  0  0  0  0  0  0  0  0
    2.7242   -1.6937    0.0789 C   0  0  0  0  0  0  0  0  0  0  0  0
    3.1993   -0.5856    0.6505 C   0  0  0  0  0  0  0  0  0  0  0  0
    2.3384    0.1309    1.4014 F   0  0  0  0  0  0  0  0  0  0  0  0
    4.5676   -0.1534    0.4842 C   0  0  0  0  0  0  0  0  0  0  0  0
    5.0050    0.9969    1.1058 C   0  0  0  0  0  0  0  0  0  0  0  0
    6.2670    1.4353    0.9775 N   0  0  0  0  0  0  0  0  0  0  0  0
    7.1717    0.7675    0.2287 C   0  0  0  0  0  0  0  0  0  0  0  0
    8.4845    1.1434    0.0389 C   0  0  0  0  0  0  0  0  0  0  0  0
    9.6524    1.4931   -0.1463 N   0  0  0  0  0  0  0  0  0  0  0  0
    6.7277   -0.4070   -0.4071 C   0  0  0  0  0  0  0  0  0  0  0  0
    5.4610   -0.8157   -0.2563 N   0  0  0  0  0  0  0  0  0  0  0  0
    1.1607   -3.5177    0.4148 C   0  0  0  0  0  0  0  0  0  0  0  0
   -0.1159   -3.9920    0.5700 C   0  0  0  0  0  0  0  0  0  0  0  0
   -1.2003   -3.1068    0.5353 C   0  0  0  0  0  0  0  0  0  0  0  0
   -2.4203   -3.6329    0.6980 F   0  0  0  0  0  0  0  0  0  0  0  0
   -2.8862   -0.8511    1.5443 N   0  0  0  0  0  0  0  0  0  0  0  0
   -3.6885   -0.0143    2.0362 C   0  0  0  0  0  0  0  0  0  0  0  0
   -4.3151   -0.2206    3.2743 N   0  0  0  0  0  0  0  0  0  0  0  0
   -4.0074    1.4725    1.1068 S   0  0  0  0  0  0  0  0  0  0  0  0
   -5.1253    3.9417   -3.0686 H   0  0  0  0  0  0  0  0  0  0  0  0
   -3.5468    3.4052   -3.6865 H   0  0  0  0  0  0  0  0  0  0  0  0
   -3.5674    4.7443   -2.5059 H   0  0  0  0  0  0  0  0  0  0  0  0
   -4.7289    2.2137   -1.4352 H   0  0  0  0  0  0  0  0  0  0  0  0
   -0.4298    2.2885    0.4925 H   0  0  0  0  0  0  0  0  0  0  0  0
   -1.2561    1.4149    1.8887 H   0  0  0  0  0  0  0  0  0  0  0  0
   -1.1294    0.5069   -1.1205 H   0  0  0  0  0  0  0  0  0  0  0  0
   -2.5451   -1.8453   -1.5489 H   0  0  0  0  0  0  0  0  0  0  0  0
   -3.7481   -0.5215   -1.1526 H   0  0  0  0  0  0  0  0  0  0  0  0
   -3.7793   -2.1106   -0.2509 H   0  0  0  0  0  0  0  0  0  0  0  0
    0.4836   -0.2182    0.0355 H   0  0  0  0  0  0  0  0  0  0  0  0
    3.4518   -2.2573   -0.5319 H   0  0  0  0  0  0  0  0  0  0  0  0
    4.3328    1.5757    1.7165 H   0  0  0  0  0  0  0  0  0  0  0  0
    7.3814   -1.0069   -1.0281 H   0  0  0  0  0  0  0  0  0  0  0  0
    2.0353   -4.1908    0.4405 H   0  0  0  0  0  0  0  0  0  0  0  0
   -0.2608   -5.0460    0.7165 H   0  0  0  0  0  0  0  0  0  0  0  0
   -4.8607   -1.0566    3.5718 H   0  0  0  0  0  0  0  0  0  0  0  0
   -4.2091    0.5747    3.9706 H   0  0  0  0  0  0  0  0  0  0  0  0
  1  2  1  0
  2  3  1  0
  3  4  2  0
  5  3  1  6
  5  6  1  0
  6  7  1  0
  7  8  1  0
  8  9  1  6
  8 10  1  0
 10 11  2  0
 11 12  1  0
 12 13  1  0
 13 14  2  0
 14 15  1  0
 14 16  1  0
 16 17  2  0
 17 18  1  0
 18 19  2  0
 19 20  1  0
 20 21  3  0
 19 22  1  0
 22 23  2  0
 12 24  2  0
 24 25  1  0
 25 26  2  0
 26 27  1  0
  8 28  1  0
 28 29  2  0
 29 30  1  0
 29 31  1  0
  7  5  1  0
 26 10  1  0
 31  5  1  0
 23 16  1  0
  1 32  1  0
  1 33  1  0
  1 34  1  0
  2 35  1  0
  6 36  1  0
  6 37  1  0
  7 38  1  6
  9 39  1  0
  9 40  1  0
  9 41  1  0
 11 42  1  0
 13 43  1  0
 17 44  1  0
 22 45  1  0
 24 46  1  0
 25 47  1  0
 30 48  1  0
 30 49  1  0
M  END
$$$$
