
     RDKit          3D

 57 62  0  0  0  0  0  0  0  0999 V2000
   10.8396    3.1328   -0.0842 N   0  0  0  0  0  0  0  0  0  0  0  0
    9.6892    2.8202    0.0959 C   0  0  0  0  0  0  0  0  0  0  0  0
    8.3437    2.4745    0.2906 C   0  0  0  0  0  0  0  0  0  0  0  0
    7.3596    3.4628    0.1123 C   0  0  0  0  0  0  0  0  0  0  0  0
    6.0635    3.1499    0.3545 C   0  0  0  0  0  0  0  0  0  0  0  0
    5.6557    1.8894    0.7729 C   0  0  0  0  0  0  0  0  0  0  0  0
    4.2810    1.5834    1.0489 C   0  0  0  0  0  0  0  0  0  0  0  0
    3.4399    2.5379    0.9302 O   0  0  0  0  0  0  0  0  0  0  0  0
    3.7469    0.3438    1.4416 N   0  0  0  0  0  0  0  0  0  0  0  0
    2.3333    0.1817    1.7118 C   0  0  0  0  0  0  0  0  0  0  0  0
    1.9281    0.3164    3.0201 C   0  0  0  0  0  0  0  0  0  0  0  0
    0.6293    0.2056    3.3549 C   0  0  0  0  0  0  0  0  0  0  0  0
   -0.3029   -0.0482    2.3415 C   0  0  0  0  0  0  0  0  0  0  0  0
    0.0441   -0.1913    1.0249 C   0  0  0  0  0  0  0  0  0  0  0  0
    1.4067   -0.0668    0.7416 C   0  0  0  0  0  0  0  0  0  0  0  0
   -0.9065   -0.4694   -0.0811 C   0  0  0  0  0  0  0  0  0  0  0  0
   -0.8055    0.5748   -1.1460 C   0  0  0  0  0  0  0  0  0  0  0  0
   -0.2262    0.0763   -2.4239 C   0  0  0  0  0  0  0  0  0  0  0  0
   -0.7222   -1.2208   -2.6898 O   0  0  0  0  0  0  0  0  0  0  0  0
   -0.5224   -2.1873   -1.7157 C   0  0  0  0  0  0  0  0  0  0  0  0
   -0.2234   -3.5609   -2.0684 N   0  0  0  0  0  0  0  0  0  0  0  0
   -0.6099   -1.8244   -0.5051 N   0  0  0  0  0  0  0  0  0  0  0  0
   -2.3107   -0.5467    0.4448 C   0  0  0  0  0  0  0  0  0  0  0  0
   -3.3590   -0.7877   -0.4455 C   0  0  0  0  0  0  0  0  0  0  0  0
   -4.6519   -0.8695    0.0422 C   0  0  0  0  0  0  0  0  0  0  0  0
   -5.7240   -1.0952   -0.9168 C   0  0  0  0  0  0  0  0  0  0  0  0
   -5.6910   -0.6109   -2.2080 C   0  0  0  0  0  0  0  0  0  0  0  0
   -6.7294   -0.8581   -3.0831 C   0  0  0  0  0  0  0  0  0  0  0  0
   -7.7943   -1.5821   -2.6818 N   0  0  0  0  0  0  0  0  0  0  0  0
   -7.8683   -2.0691   -1.4438 C   0  0  0  0  0  0  0  0  0  0  0  0
   -8.9513   -2.7926   -1.0648 F   0  0  0  0  0  0  0  0  0  0  0  0
   -6.8275   -1.8284   -0.5426 C   0  0  0  0  0  0  0  0  0  0  0  0
   -4.9321   -0.7161    1.4015 C   0  0  0  0  0  0  0  0  0  0  0  0
   -3.8945   -0.4780    2.2671 C   0  0  0  0  0  0  0  0  0  0  0  0
   -4.1626   -0.3287    3.5796 F   0  0  0  0  0  0  0  0  0  0  0  0
   -2.5752   -0.3957    1.7630 C   0  0  0  0  0  0  0  0  0  0  0  0
   -1.6168   -0.1493    2.7305 O   0  0  0  0  0  0  0  0  0  0  0  0
    6.6191    0.9861    0.9235 N   0  0  0  0  0  0  0  0  0  0  0  0
    7.9160    1.2436    0.6975 C   0  0  0  0  0  0  0  0  0  0  0  0
    7.7102    4.4344   -0.2187 H   0  0  0  0  0  0  0  0  0  0  0  0
    5.2927    3.8963    0.2254 H   0  0  0  0  0  0  0  0  0  0  0  0
    4.3884   -0.4651    1.5355 H   0  0  0  0  0  0  0  0  0  0  0  0
    2.6746    0.5122    3.7865 H   0  0  0  0  0  0  0  0  0  0  0  0
    0.2976    0.3079    4.3749 H   0  0  0  0  0  0  0  0  0  0  0  0
    1.7379   -0.1690   -0.2565 H   0  0  0  0  0  0  0  0  0  0  0  0
   -1.8362    0.9696   -1.4252 H   0  0  0  0  0  0  0  0  0  0  0  0
   -0.2871    1.5171   -0.7804 H   0  0  0  0  0  0  0  0  0  0  0  0
   -0.5230    0.7642   -3.2670 H   0  0  0  0  0  0  0  0  0  0  0  0
    0.8822    0.0242   -2.4557 H   0  0  0  0  0  0  0  0  0  0  0  0
   -0.8844   -4.3150   -1.7977 H   0  0  0  0  0  0  0  0  0  0  0  0
    0.6374   -3.7987   -2.5855 H   0  0  0  0  0  0  0  0  0  0  0  0
   -3.1760   -0.9089   -1.5010 H   0  0  0  0  0  0  0  0  0  0  0  0
   -4.8405   -0.0329   -2.5307 H   0  0  0  0  0  0  0  0  0  0  0  0
   -6.7405   -0.4914   -4.1141 H   0  0  0  0  0  0  0  0  0  0  0  0
   -6.9169   -2.2355    0.4553 H   0  0  0  0  0  0  0  0  0  0  0  0
   -5.9774   -0.7904    1.7343 H   0  0  0  0  0  0  0  0  0  0  0  0
    8.6723    0.4792    0.8296 H   0  0  0  0  0  0  0  0  0  0  0  0
  1  2  3  0
  2  3  1  0
  3  4  2  0
  4  5  1  0
  5  6  2  0
  6  7  1  0
  7  8  2  0
  7  9  1  0
  9 10  1  0
 10 11  2  0
 11 12  1  0
 12 13  2  0
 13 14  1  0
 14 15  2  0
 14 16  1  0
 16 17  1  0
 17 18  1  0
 18 19  1  0
 19 20  1  0
 20 21  1  0
 20 22  2  0
 16 23  1  0
 23 24  2  0
 24 25  1  0
 25 26  1  0
 26 27  2  0
 27 28  1  0
 28 29  2  0
 29 30  1  0
 30 31  1  0
 30 32  2  0
 25 33  2  0
 33 34  1  0
 34 35  1  0
 34 36  2  0
 36 37  1  0
  6 38  1  0
 38 39  2  0
 39  3  1  0
 15 10  1  0
 22 16  1  0
 36 23  1  0
 37 13  1  0
 32 26  1  0
  4 40  1  0
  5 41  1  0
  9 42  1  0
 11 43  1  0
 12 44  1  0
 15 45  1  0
 17 46  1  0
 17 47  1  0
 18 48  1  0
 18 49  1  0
 21 50  1  0
 21 51  1  0
 24 52  1  0
 27 53  1  0
 28 54  1  0
 32 55  1  0
 33 56  1  0
 39 57  1  0
M  END
$$$$
