
     RDKit          3D

 18 18  0  0  0  0  0  0  0  0999 V2000
    3.7103   -0.3962    0.2293 O   0  0  0  0  0  0  0  0  0  0  0  0
    2.3454   -0.4505    0.5124 C   0  0  0  0  0  0  0  0  0  0  0  0
    2.0106   -1.0688    1.5507 O   0  0  0  0  0  0  0  0  0  0  0  0
    1.4682    0.2163   -0.4294 C   0  0  0  0  0  0  0  0  0  0  0  0
    0.0547    0.2130   -0.2210 C   0  0  0  0  0  0  0  0  0  0  0  0
   -0.6713    1.1658    0.4946 C   0  0  0  0  0  0  0  0  0  0  0  0
   -2.0523    1.0819    0.6467 C   0  0  0  0  0  0  0  0  0  0  0  0
   -2.6146    1.9941    1.3120 O   0  0  0  0  0  0  0  0  0  0  0  0
   -2.7142    0.0656    0.0974 N   0  0  0  0  0  0  0  0  0  0  0  0
   -2.0104   -0.8611   -0.5982 C   0  0  0  0  0  0  0  0  0  0  0  0
   -2.6782   -1.7945   -1.0938 O   0  0  0  0  0  0  0  0  0  0  0  0
   -0.6780   -0.7679   -0.7372 N   0  0  0  0  0  0  0  0  0  0  0  0
    4.3970   -1.0253    0.6245 H   0  0  0  0  0  0  0  0  0  0  0  0
    1.6927   -0.1866   -1.4407 H   0  0  0  0  0  0  0  0  0  0  0  0
    1.8109    1.2876   -0.4832 H   0  0  0  0  0  0  0  0  0  0  0  0
   -0.0951    1.9901    0.9342 H   0  0  0  0  0  0  0  0  0  0  0  0
   -3.7396    0.0558    0.2439 H   0  0  0  0  0  0  0  0  0  0  0  0
   -0.2361   -1.5196   -1.2823 H   0  0  0  0  0  0  0  0  0  0  0  0
  1  2  1  0
  2  3  2  0
  2  4  1  0
  4  5  1  0
  5  6  2  0
  6  7  1  0
  7  8  2  0
  7  9  1  0
  9 10  1  0
 10 11  2  0
 10 12  1  0
 12  5  1  0
  1 13  1  0
  4 14  1  0
  4 15  1  0
  6 16  1  0
  9 17  1  0
 12 18  1  0
M  END
$$$$
