
     RDKit          3D

 74 79  0  0  0  0  0  0  0  0999 V2000
   -7.6775    2.9757   -0.5391 C   0  0  0  0  0  0  0  0  0  0  0  0
   -7.4885    3.2437    0.8560 N   0  0  0  0  0  0  0  0  0  0  0  0
   -6.1159    3.4291    1.2038 C   0  0  1  0  0  0  0  0  0  0  0  0
   -6.0759    3.8366    2.6861 C   0  0  0  0  0  0  0  0  0  0  0  0
   -5.2978    2.1722    1.0495 C   0  0  0  0  0  0  0  0  0  0  0  0
   -5.8824    1.0821    0.8460 O   0  0  0  0  0  0  0  0  0  0  0  0
   -3.9004    2.2215    1.1280 N   0  0  0  0  0  0  0  0  0  0  0  0
   -3.0273    1.1132    1.0106 C   0  0  0  0  0  0  0  0  0  0  0  0
   -3.3463   -0.2068    1.0760 C   0  0  0  0  0  0  0  0  0  0  0  0
   -2.4161   -1.2407    0.8669 C   0  0  0  0  0  0  0  0  0  0  0  0
   -1.0858   -0.8990    0.5734 C   0  0  0  0  0  0  0  0  0  0  0  0
   -0.1153   -1.9618    0.3201 C   0  0  0  0  0  0  0  0  0  0  0  0
   -0.2338   -2.8999   -0.7246 C   0  0  0  0  0  0  0  0  0  0  0  0
   -1.3845   -2.9068   -1.6504 C   0  0  0  0  0  0  0  0  0  0  0  0
   -1.7149   -1.8584   -2.4633 C   0  0  0  0  0  0  0  0  0  0  0  0
   -2.8122   -1.9628   -3.2771 C   0  0  0  0  0  0  0  0  0  0  0  0
   -3.5943   -3.1039   -3.2947 C   0  0  0  0  0  0  0  0  0  0  0  0
   -3.2410   -4.1101   -2.4864 N   0  0  0  0  0  0  0  0  0  0  0  0
   -2.1678   -4.0424   -1.6727 C   0  0  0  0  0  0  0  0  0  0  0  0
   -1.8242   -5.2215   -0.7973 C   0  0  0  0  0  0  0  0  0  0  0  0
    0.8231   -3.6823   -0.6467 N   0  0  0  0  0  0  0  0  0  0  0  0
    1.5838   -3.2740    0.3909 C   0  0  0  0  0  0  0  0  0  0  0  0
    2.7768   -3.8210    0.8228 C   0  0  0  0  0  0  0  0  0  0  0  0
    3.4090   -3.2407    1.9329 C   0  0  0  0  0  0  0  0  0  0  0  0
    4.6870   -3.8427    2.3825 C   0  0  0  0  0  0  0  0  0  0  0  0
    2.7964   -2.1751    2.5064 C   0  0  0  0  0  0  0  0  0  0  0  0
    1.5951   -1.6166    2.0791 C   0  0  0  0  0  0  0  0  0  0  0  0
    1.0182   -2.2224    0.9900 N   0  0  0  0  0  0  0  0  0  0  0  0
   -0.8224    0.4218    0.5207 C   0  0  0  0  0  0  0  0  0  0  0  0
    0.5580    0.8459    0.1521 C   0  0  0  0  0  0  0  0  0  0  0  0
    1.6307    1.1554   -0.1265 C   0  0  0  0  0  0  0  0  0  0  0  0
    2.9819    1.5227   -0.4676 C   0  0  0  0  0  0  0  0  0  0  0  0
    3.3636    1.4119   -1.7883 C   0  0  0  0  0  0  0  0  0  0  0  0
    4.6291    1.7510   -2.1703 C   0  0  0  0  0  0  0  0  0  0  0  0
    5.5354    2.2069   -1.2471 C   0  0  0  0  0  0  0  0  0  0  0  0
    6.8381    2.5621   -1.6107 C   0  0  0  0  0  0  0  0  0  0  0  0
    7.1954    2.4274   -3.0424 C   0  0  0  0  0  0  0  0  0  0  0  0
    7.7049    3.0061   -0.6803 N   0  0  0  0  0  0  0  0  0  0  0  0
    7.3769    3.1267    0.5983 C   0  0  0  0  0  0  0  0  0  0  0  0
    6.1037    2.7893    1.0129 C   0  0  0  0  0  0  0  0  0  0  0  0
    5.2013    2.3345    0.0833 C   0  0  0  0  0  0  0  0  0  0  0  0
    3.9145    1.9817    0.4319 C   0  0  0  0  0  0  0  0  0  0  0  0
   -1.7146    1.4031    0.7235 N   0  0  0  0  0  0  0  0  0  0  0  0
   -7.4890    3.9022   -1.1553 H   0  0  0  0  0  0  0  0  0  0  0  0
   -8.6947    2.6215   -0.7688 H   0  0  0  0  0  0  0  0  0  0  0  0
   -6.9294    2.2376   -0.8631 H   0  0  0  0  0  0  0  0  0  0  0  0
   -8.0687    2.7229    1.5056 H   0  0  0  0  0  0  0  0  0  0  0  0
   -5.6813    4.2532    0.6434 H   0  0  0  0  0  0  0  0  0  0  0  0
   -6.0294    2.9228    3.3084 H   0  0  0  0  0  0  0  0  0  0  0  0
   -6.9956    4.4238    2.9356 H   0  0  0  0  0  0  0  0  0  0  0  0
   -5.2095    4.4861    2.8893 H   0  0  0  0  0  0  0  0  0  0  0  0
   -3.4877    3.2049    1.2896 H   0  0  0  0  0  0  0  0  0  0  0  0
   -4.3418   -0.4886    1.3014 H   0  0  0  0  0  0  0  0  0  0  0  0
   -2.6626   -2.2695    0.9219 H   0  0  0  0  0  0  0  0  0  0  0  0
   -1.1064   -0.9637   -2.4528 H   0  0  0  0  0  0  0  0  0  0  0  0
   -3.1248   -1.1609   -3.9425 H   0  0  0  0  0  0  0  0  0  0  0  0
   -4.4754   -3.1760   -3.9493 H   0  0  0  0  0  0  0  0  0  0  0  0
   -1.2079   -5.9674   -1.3481 H   0  0  0  0  0  0  0  0  0  0  0  0
   -1.2172   -4.8843    0.0729 H   0  0  0  0  0  0  0  0  0  0  0  0
   -2.7680   -5.6953   -0.4771 H   0  0  0  0  0  0  0  0  0  0  0  0
    3.2008   -4.6654    0.3184 H   0  0  0  0  0  0  0  0  0  0  0  0
    4.8525   -4.8211    1.8746 H   0  0  0  0  0  0  0  0  0  0  0  0
    4.6894   -4.0872    3.4762 H   0  0  0  0  0  0  0  0  0  0  0  0
    5.5681   -3.2066    2.1106 H   0  0  0  0  0  0  0  0  0  0  0  0
    3.2690   -1.7105    3.3702 H   0  0  0  0  0  0  0  0  0  0  0  0
    1.1096   -0.7853    2.5198 H   0  0  0  0  0  0  0  0  0  0  0  0
    2.6677    1.0582   -2.5232 H   0  0  0  0  0  0  0  0  0  0  0  0
    4.9912    1.6798   -3.2062 H   0  0  0  0  0  0  0  0  0  0  0  0
    7.1546    1.3486   -3.3417 H   0  0  0  0  0  0  0  0  0  0  0  0
    8.1944    2.8419   -3.2705 H   0  0  0  0  0  0  0  0  0  0  0  0
    6.4671    3.0005   -3.6827 H   0  0  0  0  0  0  0  0  0  0  0  0
    8.0642    3.4853    1.3643 H   0  0  0  0  0  0  0  0  0  0  0  0
    5.8360    2.8840    2.0303 H   0  0  0  0  0  0  0  0  0  0  0  0
    3.6410    2.0773    1.4909 H   0  0  0  0  0  0  0  0  0  0  0  0
  1  2  1  0
  2  3  1  0
  3  4  1  0
  3  5  1  0
  5  6  2  0
  5  7  1  0
  7  8  1  0
  8  9  2  0
  9 10  1  0
 10 11  2  0
 11 12  1  0
 12 13  2  0
 13 14  1  0
 14 15  2  0
 15 16  1  0
 16 17  2  0
 17 18  1  0
 18 19  2  0
 19 20  1  0
 13 21  1  0
 21 22  2  0
 22 23  1  0
 23 24  2  0
 24 25  1  0
 24 26  1  0
 26 27  2  0
 27 28  1  0
 11 29  1  0
 29 30  1  0
 30 31  3  0
 31 32  1  0
 32 33  2  0
 33 34  1  0
 34 35  2  0
 35 36  1  0
 36 37  1  0
 36 38  2  0
 38 39  1  0
 39 40  2  0
 40 41  1  0
 41 42  2  0
 29 43  2  0
 43  8  1  0
 28 12  1  0
 42 32  1  0
 19 14  1  0
 28 22  1  0
 41 35  1  0
  1 44  1  0
  1 45  1  0
  1 46  1  0
  2 47  1  0
  3 48  1  6
  4 49  1  0
  4 50  1  0
  4 51  1  0
  7 52  1  0
  9 53  1  0
 10 54  1  0
 15 55  1  0
 16 56  1  0
 17 57  1  0
 20 58  1  0
 20 59  1  0
 20 60  1  0
 23 61  1  0
 25 62  1  0
 25 63  1  0
 25 64  1  0
 26 65  1  0
 27 66  1  0
 33 67  1  0
 34 68  1  0
 37 69  1  0
 37 70  1  0
 37 71  1  0
 39 72  1  0
 40 73  1  0
 42 74  1  0
M  END
$$$$
