
     RDKit          3D

 76 80  0  0  0  0  0  0  0  0999 V2000
   10.4833    2.7548    1.8212 C   0  0  0  0  0  0  0  0  0  0  0  0
    9.3883    2.0917    1.2141 C   0  0  0  0  0  0  0  0  0  0  0  0
    8.3883    1.4861    0.6612 O   0  0  0  0  0  0  0  0  0  0  0  0
    7.7797    0.2753    0.6520 C   0  0  0  0  0  0  0  0  0  0  0  0
    8.1956   -0.7730    1.4153 N   0  0  0  0  0  0  0  0  0  0  0  0
    7.3728   -1.7586    1.1516 N   0  0  0  0  0  0  0  0  0  0  0  0
    7.4322   -3.0909    1.7766 C   0  0  0  0  0  0  0  0  0  0  0  0
    6.4210   -1.3918    0.2339 C   0  0  0  0  0  0  0  0  0  0  0  0
    6.6889   -0.0919   -0.0790 C   0  0  0  0  0  0  0  0  0  0  0  0
    6.0025    0.7470   -0.9825 N   0  0  0  0  0  0  0  0  0  0  0  0
    4.9321    0.4057   -1.8227 C   0  0  0  0  0  0  0  0  0  0  0  0
    5.1956    0.1278   -3.1384 N   0  0  0  0  0  0  0  0  0  0  0  0
    4.1772   -0.1380   -3.9653 C   0  0  0  0  0  0  0  0  0  0  0  0
    2.8767   -0.1266   -3.4847 C   0  0  0  0  0  0  0  0  0  0  0  0
    1.7818   -0.4527   -4.4071 C   0  0  0  0  0  0  0  0  0  0  0  0
    2.6270    0.1537   -2.1703 C   0  0  0  0  0  0  0  0  0  0  0  0
    1.2573    0.1733   -1.6767 C   0  0  0  0  0  0  0  0  0  0  0  0
    0.2900    1.1216   -2.0796 C   0  0  0  0  0  0  0  0  0  0  0  0
   -0.8417    0.8596   -1.3578 N   0  0  0  0  0  0  0  0  0  0  0  0
   -0.6401   -0.1589   -0.5630 C   0  0  0  0  0  0  0  0  0  0  0  0
   -1.5297   -0.7501    0.3513 C   0  0  0  0  0  0  0  0  0  0  0  0
   -2.8470   -0.2059    0.4884 N   0  0  0  0  0  0  0  0  0  0  0  0
   -3.6098   -0.2451    1.6581 C   0  0  0  0  0  0  0  0  0  0  0  0
   -3.0775   -0.8169    2.6745 O   0  0  0  0  0  0  0  0  0  0  0  0
   -4.9618    0.2896    1.8778 C   0  0  1  0  0  0  0  0  0  0  0  0
   -4.8969    1.3457    2.9593 C   0  0  0  0  0  0  0  0  0  0  0  0
   -5.6973    0.6806    0.7060 N   0  0  0  0  0  0  0  0  0  0  0  0
   -6.6951    1.6947    1.0344 C   0  0  0  0  0  0  0  0  0  0  0  0
   -8.0924    1.2386    0.7772 C   0  0  0  0  0  0  0  0  0  0  0  0
   -8.1939    1.0229   -0.6618 N   0  0  0  0  0  0  0  0  0  0  0  0
   -9.5669    0.7299   -1.0487 C   0  0  0  0  0  0  0  0  0  0  0  0
   -7.2672   -0.0273   -1.0126 C   0  0  0  0  0  0  0  0  0  0  0  0
   -6.4182   -0.4802    0.1706 C   0  0  1  0  0  0  0  0  0  0  0  0
   -5.5192   -1.5780   -0.3026 C   0  0  0  0  0  0  0  0  0  0  0  0
   -1.0987   -1.8017    1.0802 C   0  0  0  0  0  0  0  0  0  0  0  0
    0.2089   -2.2786    0.9142 C   0  0  0  0  0  0  0  0  0  0  0  0
    1.0741   -1.7024    0.0297 C   0  0  0  0  0  0  0  0  0  0  0  0
    0.6471   -0.6014   -0.7431 C   0  0  0  0  0  0  0  0  0  0  0  0
    3.6674    0.4074   -1.3769 N   0  0  0  0  0  0  0  0  0  0  0  0
   11.1500    3.3147    1.0617 H   0  0  0  0  0  0  0  0  0  0  0  0
   10.2105    3.6069    2.5287 H   0  0  0  0  0  0  0  0  0  0  0  0
   11.2339    2.1671    2.4327 H   0  0  0  0  0  0  0  0  0  0  0  0
    9.3850    1.1401    2.2260 H   0  0  0  0  0  0  0  0  0  0  0  0
   10.2638    1.2470    0.5925 H   0  0  0  0  0  0  0  0  0  0  0  0
    6.5929   -3.7040    1.4236 H   0  0  0  0  0  0  0  0  0  0  0  0
    7.2478   -2.9609    2.8782 H   0  0  0  0  0  0  0  0  0  0  0  0
    8.3725   -3.5871    1.5772 H   0  0  0  0  0  0  0  0  0  0  0  0
    5.6393   -2.0659   -0.1404 H   0  0  0  0  0  0  0  0  0  0  0  0
    6.3295    1.7659   -1.0401 H   0  0  0  0  0  0  0  0  0  0  0  0
    4.3465   -0.3502   -5.0206 H   0  0  0  0  0  0  0  0  0  0  0  0
    1.2447   -1.3352   -3.9383 H   0  0  0  0  0  0  0  0  0  0  0  0
    1.0541    0.3637   -4.5511 H   0  0  0  0  0  0  0  0  0  0  0  0
    2.1985   -0.7824   -5.3824 H   0  0  0  0  0  0  0  0  0  0  0  0
    0.4870    1.8696   -2.8118 H   0  0  0  0  0  0  0  0  0  0  0  0
   -1.7034    1.4433   -1.4930 H   0  0  0  0  0  0  0  0  0  0  0  0
   -3.2740    0.2555   -0.3459 H   0  0  0  0  0  0  0  0  0  0  0  0
   -5.5551   -0.5640    2.3237 H   0  0  0  0  0  0  0  0  0  0  0  0
   -4.6723    2.3462    2.5376 H   0  0  0  0  0  0  0  0  0  0  0  0
   -5.7623    1.2978    3.6320 H   0  0  0  0  0  0  0  0  0  0  0  0
   -3.9906    1.0939    3.5932 H   0  0  0  0  0  0  0  0  0  0  0  0
   -6.5814    2.1493    2.0183 H   0  0  0  0  0  0  0  0  0  0  0  0
   -6.5047    2.5350    0.2864 H   0  0  0  0  0  0  0  0  0  0  0  0
   -8.7958    2.0903    1.0376 H   0  0  0  0  0  0  0  0  0  0  0  0
   -8.4507    0.4049    1.3872 H   0  0  0  0  0  0  0  0  0  0  0  0
   -9.9767    1.4999   -1.7601 H   0  0  0  0  0  0  0  0  0  0  0  0
   -9.5783   -0.2683   -1.4833 H   0  0  0  0  0  0  0  0  0  0  0  0
  -10.1661    0.7292   -0.0927 H   0  0  0  0  0  0  0  0  0  0  0  0
   -6.6013    0.2002   -1.8515 H   0  0  0  0  0  0  0  0  0  0  0  0
   -7.8996   -0.8966   -1.3178 H   0  0  0  0  0  0  0  0  0  0  0  0
   -7.0351   -0.9252    0.9900 H   0  0  0  0  0  0  0  0  0  0  0  0
   -4.8754   -1.3132   -1.1577 H   0  0  0  0  0  0  0  0  0  0  0  0
   -6.2031   -2.4199   -0.6356 H   0  0  0  0  0  0  0  0  0  0  0  0
   -4.9576   -1.9906    0.5788 H   0  0  0  0  0  0  0  0  0  0  0  0
   -1.7251   -2.3328    1.8088 H   0  0  0  0  0  0  0  0  0  0  0  0
    0.5307   -3.1266    1.5153 H   0  0  0  0  0  0  0  0  0  0  0  0
    2.0873   -2.0337   -0.1183 H   0  0  0  0  0  0  0  0  0  0  0  0
  1  2  1  0
  2  3  1  0
  3  4  1  0
  4  5  2  0
  5  6  1  0
  6  7  1  0
  6  8  1  0
  8  9  2  0
  9 10  1  0
 10 11  1  0
 11 12  2  0
 12 13  1  0
 13 14  2  0
 14 15  1  0
 14 16  1  0
 16 17  1  0
 17 18  2  0
 18 19  1  0
 19 20  1  0
 20 21  2  0
 21 22  1  0
 22 23  1  0
 23 24  2  0
 23 25  1  0
 25 26  1  0
 25 27  1  0
 27 28  1  0
 28 29  1  0
 29 30  1  0
 30 31  1  0
 30 32  1  0
 32 33  1  0
 33 34  1  0
 21 35  1  0
 35 36  2  0
 36 37  1  0
 37 38  2  0
 16 39  2  0
  9  4  1  0
 39 11  1  0
 38 17  1  0
 38 20  1  0
 33 27  1  0
  1 40  1  0
  1 41  1  0
  1 42  1  0
  2 43  1  0
  2 44  1  0
  7 45  1  0
  7 46  1  0
  7 47  1  0
  8 48  1  0
 10 49  1  0
 13 50  1  0
 15 51  1  0
 15 52  1  0
 15 53  1  0
 18 54  1  0
 19 55  1  0
 22 56  1  0
 25 57  1  1
 26 58  1  0
 26 59  1  0
 26 60  1  0
 28 61  1  0
 28 62  1  0
 29 63  1  0
 29 64  1  0
 31 65  1  0
 31 66  1  0
 31 67  1  0
 32 68  1  0
 32 69  1  0
 33 70  1  1
 34 71  1  0
 34 72  1  0
 34 73  1  0
 35 74  1  0
 36 75  1  0
 37 76  1  0
M  END
$$$$
