
     RDKit          3D

 37 41  0  0  0  0  0  0  0  0999 V2000
   -1.0352   -1.8072    0.3859 O   0  0  0  0  0  0  0  0  0  0  0  0
   -1.5539   -0.7446   -0.0145 C   0  0  0  0  0  0  0  0  0  0  0  0
   -2.9648   -0.7543   -0.1869 N   0  0  0  0  0  0  0  0  0  0  0  0
   -3.7428   -1.9561    0.0962 C   0  0  0  0  0  0  0  0  0  0  0  0
   -4.8312   -2.2968   -0.8662 C   0  0  0  0  0  0  0  0  0  0  0  0
   -5.1464   -1.8546    0.5096 C   0  0  0  0  0  0  0  0  0  0  0  0
   -0.8332    0.4879   -0.3145 C   0  0  0  0  0  0  0  0  0  0  0  0
   -1.4209    1.6633   -0.6858 N   0  0  0  0  0  0  0  0  0  0  0  0
   -0.4754    2.5934   -0.8691 C   0  0  0  0  0  0  0  0  0  0  0  0
   -0.5031    3.9362   -1.2423 C   0  0  0  0  0  0  0  0  0  0  0  0
    0.6423    4.6893   -1.3608 C   0  0  0  0  0  0  0  0  0  0  0  0
    1.8440    4.0665   -1.0949 C   0  0  0  0  0  0  0  0  0  0  0  0
    1.8410    2.7678   -0.7363 N   0  0  0  0  0  0  0  0  0  0  0  0
    0.7315    2.0602   -0.6275 N   0  0  0  0  0  0  0  0  0  0  0  0
    0.5124    0.7502   -0.2830 C   0  0  0  0  0  0  0  0  0  0  0  0
    1.5825   -0.1833    0.0257 C   0  0  0  0  0  0  0  0  0  0  0  0
    1.6992   -1.4149   -0.5724 C   0  0  0  0  0  0  0  0  0  0  0  0
    2.7122   -2.3040   -0.2578 C   0  0  0  0  0  0  0  0  0  0  0  0
    3.6443   -1.9564    0.6854 C   0  0  0  0  0  0  0  0  0  0  0  0
    4.7339   -2.5524    1.2255 N   0  0  0  0  0  0  0  0  0  0  0  0
    5.2874   -1.7185    2.1374 C   0  0  0  0  0  0  0  0  0  0  0  0
    4.5570   -0.6363    2.1582 O   0  0  0  0  0  0  0  0  0  0  0  0
    3.5579   -0.7218    1.3086 C   0  0  0  0  0  0  0  0  0  0  0  0
    2.5278    0.1541    0.9733 C   0  0  0  0  0  0  0  0  0  0  0  0
   -3.5002    0.0937   -0.5215 H   0  0  0  0  0  0  0  0  0  0  0  0
   -3.1482   -2.8267    0.4454 H   0  0  0  0  0  0  0  0  0  0  0  0
   -5.0263   -3.3678   -1.1291 H   0  0  0  0  0  0  0  0  0  0  0  0
   -4.9908   -1.5977   -1.7131 H   0  0  0  0  0  0  0  0  0  0  0  0
   -5.6708   -0.8877    0.6183 H   0  0  0  0  0  0  0  0  0  0  0  0
   -5.5180   -2.6105    1.2526 H   0  0  0  0  0  0  0  0  0  0  0  0
   -1.4421    4.4015   -1.4442 H   0  0  0  0  0  0  0  0  0  0  0  0
    0.6285    5.7368   -1.6512 H   0  0  0  0  0  0  0  0  0  0  0  0
    2.7852    4.6173   -1.1735 H   0  0  0  0  0  0  0  0  0  0  0  0
    1.0166   -1.7334   -1.3201 H   0  0  0  0  0  0  0  0  0  0  0  0
    2.7945   -3.2614   -0.7287 H   0  0  0  0  0  0  0  0  0  0  0  0
    6.1782   -1.9324    2.7321 H   0  0  0  0  0  0  0  0  0  0  0  0
    2.5270    1.1006    1.5035 H   0  0  0  0  0  0  0  0  0  0  0  0
  1  2  2  0
  2  3  1  0
  3  4  1  0
  4  5  1  0
  5  6  1  0
  2  7  1  0
  7  8  1  0
  8  9  2  0
  9 10  1  0
 10 11  2  0
 11 12  1  0
 12 13  2  0
 13 14  1  0
 14 15  1  0
 15 16  1  0
 16 17  2  0
 17 18  1  0
 18 19  2  0
 19 20  1  0
 20 21  2  0
 21 22  1  0
 22 23  1  0
 23 24  2  0
  6  4  1  0
 15  7  2  0
 24 16  1  0
 14  9  1  0
 23 19  1  0
  3 25  1  0
  4 26  1  0
  5 27  1  0
  5 28  1  0
  6 29  1  0
  6 30  1  0
 10 31  1  0
 11 32  1  0
 12 33  1  0
 17 34  1  0
 18 35  1  0
 21 36  1  0
 24 37  1  0
M  END
$$$$
