
     RDKit          3D

 18 17  0  0  0  0  0  0  0  0999 V2000
    1.5089   -0.3938    1.6876 O   0  0  0  0  0  0  0  0  0  0  0  0
    1.2676    0.4368    0.5993 C   0  0  2  0  0  0  0  0  0  0  0  0
   -0.0920    0.1066   -0.0317 C   0  0  0  0  0  0  0  0  0  0  0  0
   -1.1008    0.2894    0.9097 O   0  0  0  0  0  0  0  0  0  0  0  0
   -2.5923   -0.0801    0.1932 P   0  0  0  0  0  0  0  0  0  0  0  0
   -2.8716    1.0616   -1.0220 O   0  0  0  0  0  0  0  0  0  0  0  0
   -2.4671   -1.6330   -0.4585 O   0  0  0  0  0  0  0  0  0  0  0  0
   -3.6994   -0.0617    1.1912 O   0  0  0  0  0  0  0  0  0  0  0  0
    2.3293    0.3076   -0.4089 C   0  0  0  0  0  0  0  0  0  0  0  0
    3.4866   -0.4251   -0.5346 O   0  0  0  0  0  0  0  0  0  0  0  0
    2.2176    1.0229   -1.4566 O   0  0  0  0  0  0  0  0  0  0  0  0
    2.4727   -0.5571    1.8434 H   0  0  0  0  0  0  0  0  0  0  0  0
    1.1884    1.4856    0.9427 H   0  0  0  0  0  0  0  0  0  0  0  0
   -0.2472    0.8236   -0.8587 H   0  0  0  0  0  0  0  0  0  0  0  0
   -0.0609   -0.9336   -0.3853 H   0  0  0  0  0  0  0  0  0  0  0  0
   -2.3790    1.8788   -0.8151 H   0  0  0  0  0  0  0  0  0  0  0  0
   -2.6034   -2.2805    0.2688 H   0  0  0  0  0  0  0  0  0  0  0  0
    3.6427   -1.0480   -1.3046 H   0  0  0  0  0  0  0  0  0  0  0  0
  1  2  1  0
  2  3  1  0
  3  4  1  0
  4  5  1  0
  5  6  1  0
  5  7  1  0
  5  8  2  0
  2  9  1  0
  9 10  1  0
  9 11  2  0
  1 12  1  0
  2 13  1  1
  3 14  1  0
  3 15  1  0
  6 16  1  0
  7 17  1  0
 10 18  1  0
M  END
$$$$
