
     RDKit          3D

 58 62  0  0  0  0  0  0  0  0999 V2000
    1.4252    3.3896    0.9592 C   0  0  0  0  0  0  0  0  0  0  0  0
    0.5667    2.4447    0.3729 O   0  0  0  0  0  0  0  0  0  0  0  0
    0.9781    1.1375    0.2279 C   0  0  0  0  0  0  0  0  0  0  0  0
    2.2199    0.7489    0.6591 C   0  0  0  0  0  0  0  0  0  0  0  0
    2.7089   -0.5428    0.5510 C   0  0  0  0  0  0  0  0  0  0  0  0
    3.9548   -0.9286    0.9926 C   0  0  0  0  0  0  0  0  0  0  0  0
    4.8362    0.0385    1.5692 N   0  0  0  0  0  0  0  0  0  0  0  0
    6.0282    0.4443    0.9360 C   0  0  0  0  0  0  0  0  0  0  0  0
    7.2320    0.2522    1.5726 C   0  0  0  0  0  0  0  0  0  0  0  0
    8.4328    0.6109    0.9947 C   0  0  0  0  0  0  0  0  0  0  0  0
    8.4443    1.1867   -0.2703 C   0  0  0  0  0  0  0  0  0  0  0  0
   10.1058    1.6870   -1.0998 Br  0  0  0  0  0  0  0  0  0  0  0  0
    7.2475    1.3861   -0.9193 C   0  0  0  0  0  0  0  0  0  0  0  0
    7.2788    2.1116   -2.5097 Cl  0  0  0  0  0  0  0  0  0  0  0  0
    6.0381    1.0144   -0.3146 C   0  0  0  0  0  0  0  0  0  0  0  0
    4.8911    1.2270   -0.9868 F   0  0  0  0  0  0  0  0  0  0  0  0
    4.3107   -2.2037    0.8405 N   0  0  0  0  0  0  0  0  0  0  0  0
    3.4965   -3.1143    0.2735 C   0  0  0  0  0  0  0  0  0  0  0  0
    2.2897   -2.7250   -0.1509 N   0  0  0  0  0  0  0  0  0  0  0  0
    1.8401   -1.4683   -0.0429 C   0  0  0  0  0  0  0  0  0  0  0  0
    0.5889   -1.0981   -0.4835 C   0  0  0  0  0  0  0  0  0  0  0  0
    0.1252    0.1828   -0.3670 C   0  0  0  0  0  0  0  0  0  0  0  0
   -1.0980    0.6282   -0.7808 O   0  0  0  0  0  0  0  0  0  0  0  0
   -2.1540   -0.0199   -1.3723 C   0  0  0  0  0  0  0  0  0  0  0  0
   -2.8177   -1.0641   -0.5227 C   0  0  1  0  0  0  0  0  0  0  0  0
   -3.3579   -0.3501    0.7029 C   0  0  0  0  0  0  0  0  0  0  0  0
   -4.6918    0.1721    0.2140 C   0  0  2  0  0  0  0  0  0  0  0  0
   -5.7324   -0.0650    1.2544 C   0  0  0  0  0  0  0  0  0  0  0  0
   -6.8397   -0.6542    0.5667 N   0  0  0  0  0  0  0  0  0  0  0  0
   -7.6168    0.3272   -0.1408 C   0  0  0  0  0  0  0  0  0  0  0  0
   -6.2573   -1.5400   -0.4186 C   0  0  0  0  0  0  0  0  0  0  0  0
   -5.1071   -0.6830   -0.9344 C   0  0  2  0  0  0  0  0  0  0  0  0
   -3.9934   -1.6273   -1.2721 C   0  0  0  0  0  0  0  0  0  0  0  0
    0.9067    4.3745    1.0918 H   0  0  0  0  0  0  0  0  0  0  0  0
    1.8241    2.9814    1.8978 H   0  0  0  0  0  0  0  0  0  0  0  0
    2.3282    3.5535    0.3069 H   0  0  0  0  0  0  0  0  0  0  0  0
    2.9002    1.4590    1.1209 H   0  0  0  0  0  0  0  0  0  0  0  0
    4.6307    0.4887    2.5001 H   0  0  0  0  0  0  0  0  0  0  0  0
    7.2176   -0.2027    2.5690 H   0  0  0  0  0  0  0  0  0  0  0  0
    9.3801    0.4646    1.4778 H   0  0  0  0  0  0  0  0  0  0  0  0
    3.8649   -4.1452    0.1814 H   0  0  0  0  0  0  0  0  0  0  0  0
   -0.0221   -1.8488   -0.9418 H   0  0  0  0  0  0  0  0  0  0  0  0
   -2.8830    0.6489   -1.8710 H   0  0  0  0  0  0  0  0  0  0  0  0
   -1.7130   -0.6062   -2.2465 H   0  0  0  0  0  0  0  0  0  0  0  0
   -2.1999   -1.9050   -0.2188 H   0  0  0  0  0  0  0  0  0  0  0  0
   -3.4264   -1.0552    1.5391 H   0  0  0  0  0  0  0  0  0  0  0  0
   -2.6594    0.4780    0.9490 H   0  0  0  0  0  0  0  0  0  0  0  0
   -4.5964    1.2388   -0.0920 H   0  0  0  0  0  0  0  0  0  0  0  0
   -5.3367   -0.8274    1.9818 H   0  0  0  0  0  0  0  0  0  0  0  0
   -6.0249    0.8622    1.7955 H   0  0  0  0  0  0  0  0  0  0  0  0
   -8.3934    0.7149    0.5639 H   0  0  0  0  0  0  0  0  0  0  0  0
   -6.9947    1.1690   -0.5398 H   0  0  0  0  0  0  0  0  0  0  0  0
   -8.0849   -0.1465   -1.0509 H   0  0  0  0  0  0  0  0  0  0  0  0
   -5.8756   -2.4308    0.1383 H   0  0  0  0  0  0  0  0  0  0  0  0
   -6.8975   -1.7852   -1.2649 H   0  0  0  0  0  0  0  0  0  0  0  0
   -5.4001   -0.1157   -1.8328 H   0  0  0  0  0  0  0  0  0  0  0  0
   -3.7244   -1.5942   -2.3519 H   0  0  0  0  0  0  0  0  0  0  0  0
   -4.1937   -2.6761   -0.9403 H   0  0  0  0  0  0  0  0  0  0  0  0
  1  2  1  0
  2  3  1  0
  3  4  2  0
  4  5  1  0
  5  6  2  0
  6  7  1  0
  7  8  1  0
  8  9  2  0
  9 10  1  0
 10 11  2  0
 11 12  1  0
 11 13  1  0
 13 14  1  0
 13 15  2  0
 15 16  1  0
  6 17  1  0
 17 18  2  0
 18 19  1  0
 19 20  2  0
 20 21  1  0
 21 22  2  0
 22 23  1  0
 23 24  1  0
 24 25  1  0
 25 26  1  0
 26 27  1  0
 27 28  1  0
 28 29  1  0
 29 30  1  0
 29 31  1  0
 31 32  1  0
 32 33  1  0
 22  3  1  0
 33 25  1  0
 20  5  1  0
 32 27  1  0
 15  8  1  0
  1 34  1  0
  1 35  1  0
  1 36  1  0
  4 37  1  0
  7 38  1  0
  9 39  1  0
 10 40  1  0
 18 41  1  0
 21 42  1  0
 24 43  1  0
 24 44  1  0
 25 45  1  1
 26 46  1  0
 26 47  1  0
 27 48  1  6
 28 49  1  0
 28 50  1  0
 30 51  1  0
 30 52  1  0
 30 53  1  0
 31 54  1  0
 31 55  1  0
 32 56  1  6
 33 57  1  0
 33 58  1  0
M  END
$$$$
