
     RDKit          3D

 73 76  0  0  0  0  0  0  0  0999 V2000
   -3.2615    7.0528    1.4504 C   0  0  0  0  0  0  0  0  0  0  0  0
   -3.7845    6.0691    0.5703 O   0  0  0  0  0  0  0  0  0  0  0  0
   -3.1958    4.8334    0.4343 C   0  0  0  0  0  0  0  0  0  0  0  0
   -2.2242    4.8824    1.2148 O   0  0  0  0  0  0  0  0  0  0  0  0
   -3.6481    3.7600   -0.4353 C   0  0  0  0  0  0  0  0  0  0  0  0
   -2.9549    2.6365   -0.4391 C   0  0  0  0  0  0  0  0  0  0  0  0
   -3.3540    1.5303   -1.2845 C   0  0  0  0  0  0  0  0  0  0  0  0
   -2.6160    0.3433   -1.2856 C   0  0  0  0  0  0  0  0  0  0  0  0
   -2.8686   -0.7856   -2.0257 C   0  0  0  0  0  0  0  0  0  0  0  0
   -3.9890   -0.7218   -2.8628 C   0  0  0  0  0  0  0  0  0  0  0  0
   -4.7629    0.4217   -2.9104 C   0  0  0  0  0  0  0  0  0  0  0  0
   -4.4376    1.5182   -2.1294 C   0  0  0  0  0  0  0  0  0  0  0  0
   -2.0016   -1.8996   -1.8920 N   0  0  0  0  0  0  0  0  0  0  0  0
   -0.8139   -2.2050   -2.6355 C   0  0  0  0  0  0  0  0  0  0  0  0
    0.4171   -1.6278   -2.0300 C   0  0  0  0  0  0  0  0  0  0  0  0
    0.8224   -0.3484   -2.4249 C   0  0  0  0  0  0  0  0  0  0  0  0
    1.9600    0.2716   -1.9102 C   0  0  0  0  0  0  0  0  0  0  0  0
    2.7293   -0.4048   -0.9643 C   0  0  0  0  0  0  0  0  0  0  0  0
    2.3218   -1.6607   -0.5842 C   0  0  0  0  0  0  0  0  0  0  0  0
    1.1969   -2.2723   -1.0934 C   0  0  0  0  0  0  0  0  0  0  0  0
    3.9120    0.2721   -0.4444 C   0  0  0  0  0  0  0  0  0  0  0  0
    4.5852    1.1354   -1.2797 C   0  0  0  0  0  0  0  0  0  0  0  0
    5.7145    1.8061   -0.8359 C   0  0  0  0  0  0  0  0  0  0  0  0
    6.2196    1.6552    0.4310 C   0  0  0  0  0  0  0  0  0  0  0  0
    5.5133    0.7828    1.2291 C   0  0  0  0  0  0  0  0  0  0  0  0
    4.3846    0.0908    0.8378 C   0  0  0  0  0  0  0  0  0  0  0  0
    7.3690    2.3264    0.9099 N   0  0  0  0  0  0  0  0  0  0  0  0
    8.1451    3.2470    0.1439 C   0  0  0  0  0  0  0  0  0  0  0  0
    7.8057    2.0740    2.2737 C   0  0  0  0  0  0  0  0  0  0  0  0
   -2.4721   -2.7476   -0.8613 C   0  0  0  0  0  0  0  0  0  0  0  0
   -3.4294   -1.9646   -0.6695 O   0  0  0  0  0  0  0  0  0  0  0  0
   -2.8174   -3.7267    0.1677 C   0  0  0  0  0  0  0  0  0  0  0  0
   -4.0830   -3.2474    0.8474 C   0  0  0  0  0  0  0  0  0  0  0  0
   -4.5201   -4.1428    1.9534 C   0  0  0  0  0  0  0  0  0  0  0  0
   -3.4207   -4.6540    2.8378 C   0  0  0  0  0  0  0  0  0  0  0  0
   -2.1771   -5.0403    2.0989 C   0  0  0  0  0  0  0  0  0  0  0  0
   -1.7493   -3.8384    1.2597 C   0  0  0  0  0  0  0  0  0  0  0  0
   -2.3258    7.5011    1.0297 H   0  0  0  0  0  0  0  0  0  0  0  0
   -4.0503    7.8060    1.6138 H   0  0  0  0  0  0  0  0  0  0  0  0
   -3.0071    6.5850    2.4439 H   0  0  0  0  0  0  0  0  0  0  0  0
   -4.5114    3.9417   -1.0185 H   0  0  0  0  0  0  0  0  0  0  0  0
   -2.0858    2.5363    0.1889 H   0  0  0  0  0  0  0  0  0  0  0  0
   -1.7497    0.3302   -0.6227 H   0  0  0  0  0  0  0  0  0  0  0  0
   -4.1928   -1.6152   -3.4524 H   0  0  0  0  0  0  0  0  0  0  0  0
   -5.6222    0.4338   -3.5704 H   0  0  0  0  0  0  0  0  0  0  0  0
   -5.0556    2.3840   -2.1916 H   0  0  0  0  0  0  0  0  0  0  0  0
   -0.8669   -1.8345   -3.6830 H   0  0  0  0  0  0  0  0  0  0  0  0
   -0.6398   -3.3154   -2.7011 H   0  0  0  0  0  0  0  0  0  0  0  0
    0.2020    0.1597   -3.1692 H   0  0  0  0  0  0  0  0  0  0  0  0
    2.1678    1.2571   -2.2928 H   0  0  0  0  0  0  0  0  0  0  0  0
    2.9312   -2.1872    0.1635 H   0  0  0  0  0  0  0  0  0  0  0  0
    0.8917   -3.2693   -0.7776 H   0  0  0  0  0  0  0  0  0  0  0  0
    4.2239    1.2901   -2.2920 H   0  0  0  0  0  0  0  0  0  0  0  0
    6.1862    2.4594   -1.5372 H   0  0  0  0  0  0  0  0  0  0  0  0
    5.8006    0.5677    2.2575 H   0  0  0  0  0  0  0  0  0  0  0  0
    3.8443   -0.5940    1.4818 H   0  0  0  0  0  0  0  0  0  0  0  0
    7.6954    3.5914   -0.8018 H   0  0  0  0  0  0  0  0  0  0  0  0
    9.1241    2.7599   -0.0715 H   0  0  0  0  0  0  0  0  0  0  0  0
    8.3412    4.1758    0.7313 H   0  0  0  0  0  0  0  0  0  0  0  0
    7.7960    0.9507    2.3964 H   0  0  0  0  0  0  0  0  0  0  0  0
    8.7939    2.4949    2.4793 H   0  0  0  0  0  0  0  0  0  0  0  0
    7.0858    2.5353    3.0091 H   0  0  0  0  0  0  0  0  0  0  0  0
   -3.0010   -4.7333   -0.2074 H   0  0  0  0  0  0  0  0  0  0  0  0
   -4.8779   -3.2641    0.0724 H   0  0  0  0  0  0  0  0  0  0  0  0
   -3.9722   -2.1886    1.1597 H   0  0  0  0  0  0  0  0  0  0  0  0
   -5.1508   -4.9995    1.5800 H   0  0  0  0  0  0  0  0  0  0  0  0
   -5.2303   -3.5674    2.6044 H   0  0  0  0  0  0  0  0  0  0  0  0
   -3.1531   -3.9921    3.6668 H   0  0  0  0  0  0  0  0  0  0  0  0
   -3.8132   -5.6008    3.3148 H   0  0  0  0  0  0  0  0  0  0  0  0
   -2.3023   -5.8822    1.4182 H   0  0  0  0  0  0  0  0  0  0  0  0
   -1.3690   -5.1842    2.8460 H   0  0  0  0  0  0  0  0  0  0  0  0
   -0.7592   -4.0101    0.8307 H   0  0  0  0  0  0  0  0  0  0  0  0
   -1.8623   -2.9432    1.8743 H   0  0  0  0  0  0  0  0  0  0  0  0
  1  2  1  0
  2  3  1  0
  3  4  2  0
  3  5  1  0
  5  6  2  0
  6  7  1  0
  7  8  2  0
  8  9  1  0
  9 10  2  0
 10 11  1  0
 11 12  2  0
  9 13  1  0
 13 14  1  0
 14 15  1  0
 15 16  2  0
 16 17  1  0
 17 18  2  0
 18 19  1  0
 19 20  2  0
 18 21  1  0
 21 22  2  0
 22 23  1  0
 23 24  2  0
 24 25  1  0
 25 26  2  0
 24 27  1  0
 27 28  1  0
 27 29  1  0
 13 30  1  0
 30 31  2  0
 30 32  1  0
 32 33  1  0
 33 34  1  0
 34 35  1  0
 35 36  1  0
 36 37  1  0
 12  7  1  0
 20 15  1  0
 26 21  1  0
 37 32  1  0
  1 38  1  0
  1 39  1  0
  1 40  1  0
  5 41  1  0
  6 42  1  0
  8 43  1  0
 10 44  1  0
 11 45  1  0
 12 46  1  0
 14 47  1  0
 14 48  1  0
 16 49  1  0
 17 50  1  0
 19 51  1  0
 20 52  1  0
 22 53  1  0
 23 54  1  0
 25 55  1  0
 26 56  1  0
 28 57  1  0
 28 58  1  0
 28 59  1  0
 29 60  1  0
 29 61  1  0
 29 62  1  0
 32 63  1  0
 33 64  1  0
 33 65  1  0
 34 66  1  0
 34 67  1  0
 35 68  1  0
 35 69  1  0
 36 70  1  0
 36 71  1  0
 37 72  1  0
 37 73  1  0
M  END
$$$$
