
     RDKit          3D

 55 57  0  0  0  0  0  0  0  0999 V2000
    7.4679    1.6955   -1.8162 O   0  0  0  0  0  0  0  0  0  0  0  0
    6.3017    1.7816   -1.3884 C   0  0  0  0  0  0  0  0  0  0  0  0
    5.6248    0.5180   -0.9203 C   0  0  0  0  0  0  0  0  0  0  0  0
    6.5797   -0.6054   -1.0944 C   0  0  0  0  0  0  0  0  0  0  0  0
    6.1498   -1.9562   -0.7558 C   0  0  0  0  0  0  0  0  0  0  0  0
    5.7572   -2.3718    0.5919 C   0  0  0  0  0  0  0  0  0  0  0  0
    4.5897   -1.6984    1.1911 C   0  0  0  0  0  0  0  0  0  0  0  0
    3.3367   -1.8245    0.3609 C   0  0  0  0  0  0  0  0  0  0  0  0
    2.2396   -1.0944    1.0925 C   0  0  0  0  0  0  0  0  0  0  0  0
    2.5050   -0.5459    2.1738 O   0  0  0  0  0  0  0  0  0  0  0  0
    0.9816   -1.0802    0.5034 N   0  0  0  0  0  0  0  0  0  0  0  0
   -0.1643   -0.4520    1.0344 C   0  0  0  0  0  0  0  0  0  0  0  0
   -0.1724    0.2340    2.2208 C   0  0  0  0  0  0  0  0  0  0  0  0
   -1.3512    0.8393    2.6961 C   0  0  0  0  0  0  0  0  0  0  0  0
   -2.5101    0.7434    1.9642 C   0  0  0  0  0  0  0  0  0  0  0  0
   -2.5238    0.0558    0.7644 C   0  0  0  0  0  0  0  0  0  0  0  0
   -3.7432   -0.0632   -0.0370 C   0  0  0  0  0  0  0  0  0  0  0  0
   -4.9867    0.4558    0.2572 C   0  0  0  0  0  0  0  0  0  0  0  0
   -5.8408    0.1288   -0.7269 N   0  0  0  0  0  0  0  0  0  0  0  0
   -7.2305    0.4522   -0.8436 C   0  0  0  0  0  0  0  0  0  0  0  0
   -8.0293    0.4652    0.2821 C   0  0  0  0  0  0  0  0  0  0  0  0
   -9.3783    0.7697    0.2338 C   0  0  0  0  0  0  0  0  0  0  0  0
   -9.9744    1.0760   -0.9725 C   0  0  0  0  0  0  0  0  0  0  0  0
  -12.0312    1.5481   -1.0993 I   0  0  0  0  0  0  0  0  0  0  0  0
   -9.1745    1.0633   -2.1014 C   0  0  0  0  0  0  0  0  0  0  0  0
   -7.8222    0.7580   -2.0523 C   0  0  0  0  0  0  0  0  0  0  0  0
   -5.1551   -0.5698   -1.6047 N   0  0  0  0  0  0  0  0  0  0  0  0
   -3.8905   -0.6979   -1.2101 N   0  0  0  0  0  0  0  0  0  0  0  0
   -1.3706   -0.5181    0.3313 C   0  0  0  0  0  0  0  0  0  0  0  0
    5.6051    3.0176   -1.3312 N   0  0  0  0  0  0  0  0  0  0  0  0
    6.2081    4.1397   -1.7476 O   0  0  0  0  0  0  0  0  0  0  0  0
    5.3193    0.7441    0.1024 H   0  0  0  0  0  0  0  0  0  0  0  0
    4.7347    0.3928   -1.5662 H   0  0  0  0  0  0  0  0  0  0  0  0
    7.5017   -0.3770   -0.4515 H   0  0  0  0  0  0  0  0  0  0  0  0
    6.9143   -0.6020   -2.1723 H   0  0  0  0  0  0  0  0  0  0  0  0
    6.9797   -2.6702   -1.1179 H   0  0  0  0  0  0  0  0  0  0  0  0
    5.2908   -2.2101   -1.4890 H   0  0  0  0  0  0  0  0  0  0  0  0
    5.5291   -3.4778    0.5718 H   0  0  0  0  0  0  0  0  0  0  0  0
    6.6031   -2.3144    1.3380 H   0  0  0  0  0  0  0  0  0  0  0  0
    4.6795   -0.7061    1.5888 H   0  0  0  0  0  0  0  0  0  0  0  0
    4.3668   -2.3238    2.1567 H   0  0  0  0  0  0  0  0  0  0  0  0
    3.0190   -2.8913    0.2904 H   0  0  0  0  0  0  0  0  0  0  0  0
    3.4498   -1.4479   -0.6553 H   0  0  0  0  0  0  0  0  0  0  0  0
    0.8747   -1.5836   -0.4222 H   0  0  0  0  0  0  0  0  0  0  0  0
    0.7145    0.3326    2.8246 H   0  0  0  0  0  0  0  0  0  0  0  0
   -1.2904    1.3625    3.6337 H   0  0  0  0  0  0  0  0  0  0  0  0
   -3.4224    1.2049    2.3200 H   0  0  0  0  0  0  0  0  0  0  0  0
   -5.2881    1.0369    1.1186 H   0  0  0  0  0  0  0  0  0  0  0  0
   -7.5327    0.2181    1.2306 H   0  0  0  0  0  0  0  0  0  0  0  0
   -9.9627    0.7660    1.1480 H   0  0  0  0  0  0  0  0  0  0  0  0
   -9.6536    1.3053   -3.0415 H   0  0  0  0  0  0  0  0  0  0  0  0
   -7.2014    0.7516   -2.9526 H   0  0  0  0  0  0  0  0  0  0  0  0
   -1.3717   -1.0649   -0.6181 H   0  0  0  0  0  0  0  0  0  0  0  0
    4.6395    3.0372   -0.9683 H   0  0  0  0  0  0  0  0  0  0  0  0
    7.1086    4.2527   -1.3896 H   0  0  0  0  0  0  0  0  0  0  0  0
  1  2  2  0
  2  3  1  0
  3  4  1  0
  4  5  1  0
  5  6  1  0
  6  7  1  0
  7  8  1  0
  8  9  1  0
  9 10  2  0
  9 11  1  0
 11 12  1  0
 12 13  2  0
 13 14  1  0
 14 15  2  0
 15 16  1  0
 16 17  1  0
 17 18  2  0
 18 19  1  0
 19 20  1  0
 20 21  2  0
 21 22  1  0
 22 23  2  0
 23 24  1  0
 23 25  1  0
 25 26  2  0
 19 27  1  0
 27 28  2  0
 16 29  2  0
  2 30  1  0
 30 31  1  0
 29 12  1  0
 28 17  1  0
 26 20  1  0
  3 32  1  0
  3 33  1  0
  4 34  1  0
  4 35  1  0
  5 36  1  0
  5 37  1  0
  6 38  1  0
  6 39  1  0
  7 40  1  0
  7 41  1  0
  8 42  1  0
  8 43  1  0
 11 44  1  0
 13 45  1  0
 14 46  1  0
 15 47  1  0
 18 48  1  0
 21 49  1  0
 22 50  1  0
 25 51  1  0
 26 52  1  0
 29 53  1  0
 30 54  1  0
 31 55  1  0
M  END
$$$$
