
     RDKit          3D

 68 70  0  0  0  0  0  0  0  0999 V2000
   -3.9705    0.3055    3.5836 C   0  0  0  0  0  0  0  0  0  0  0  0
   -3.7305   -0.8829    2.6513 C   0  0  0  0  0  0  0  0  0  0  0  0
   -4.7999   -1.9032    3.0105 C   0  0  0  0  0  0  0  0  0  0  0  0
   -4.0229   -0.4269    1.2704 C   0  0  0  0  0  0  0  0  0  0  0  0
   -5.3646   -0.3573    0.8626 C   0  0  0  0  0  0  0  0  0  0  0  0
   -5.7417    0.0965   -0.3411 N   0  0  0  0  0  0  0  0  0  0  0  0
   -4.8488    0.5261   -1.2636 C   0  0  0  0  0  0  0  0  0  0  0  0
   -5.3193    1.0094   -2.5555 C   0  0  0  0  0  0  0  0  0  0  0  0
   -4.4961    1.4620   -3.5585 C   0  0  0  0  0  0  0  0  0  0  0  0
   -4.9925    1.9182   -4.7857 C   0  0  0  0  0  0  0  0  0  0  0  0
   -3.8462    2.4779   -6.0057 Cl  0  0  0  0  0  0  0  0  0  0  0  0
   -6.3498    1.9187   -5.0084 C   0  0  0  0  0  0  0  0  0  0  0  0
   -7.1962    1.4716   -4.0231 C   0  0  0  0  0  0  0  0  0  0  0  0
   -6.6847    1.0268   -2.8220 C   0  0  0  0  0  0  0  0  0  0  0  0
   -7.5393    0.5843   -1.8501 F   0  0  0  0  0  0  0  0  0  0  0  0
   -3.5393    0.4655   -0.8870 C   0  0  0  0  0  0  0  0  0  0  0  0
   -3.0993   -0.0006    0.3552 C   0  0  0  0  0  0  0  0  0  0  0  0
   -1.6995   -0.0037    0.6686 N   0  0  0  0  0  0  0  0  0  0  0  0
   -0.9763   -1.2137    0.8308 C   0  0  0  0  0  0  0  0  0  0  0  0
   -1.6427   -2.4228    0.5708 C   0  0  0  0  0  0  0  0  0  0  0  0
   -0.9687   -3.5852    0.7134 C   0  0  0  0  0  0  0  0  0  0  0  0
    0.3054   -3.5899    1.0935 N   0  0  0  0  0  0  0  0  0  0  0  0
    0.9905   -2.4407    1.3565 C   0  0  0  0  0  0  0  0  0  0  0  0
    0.3373   -1.2198    1.2235 C   0  0  0  0  0  0  0  0  0  0  0  0
    1.0991   -0.0039    1.5435 C   0  0  0  0  0  0  0  0  0  0  0  0
    0.5845    1.1573    1.5537 O   0  0  0  0  0  0  0  0  0  0  0  0
    2.4829   -0.0186    1.8698 N   0  0  0  0  0  0  0  0  0  0  0  0
    3.2157    1.2225    2.1771 C   0  0  0  0  0  0  0  0  0  0  0  0
    3.1815    2.0935    0.9576 C   0  0  0  0  0  0  0  0  0  0  0  0
    3.7946    1.4111   -0.1882 N   0  0  0  0  0  0  0  0  0  0  0  0
    5.1528    1.0247   -0.0916 C   0  0  0  0  0  0  0  0  0  0  0  0
    5.8325    1.2431    0.9155 O   0  0  0  0  0  0  0  0  0  0  0  0
    5.7646    0.3747   -1.1559 O   0  0  0  0  0  0  0  0  0  0  0  0
    7.1132   -0.0379   -1.1265 C   0  0  0  0  0  0  0  0  0  0  0  0
    8.0512    1.1333   -0.9273 C   0  0  0  0  0  0  0  0  0  0  0  0
    7.3592   -1.0958   -0.0729 C   0  0  0  0  0  0  0  0  0  0  0  0
    7.4340   -0.6624   -2.4649 C   0  0  0  0  0  0  0  0  0  0  0  0
   -5.0745    0.4467    3.6198 H   0  0  0  0  0  0  0  0  0  0  0  0
   -3.6633   -0.0118    4.6028 H   0  0  0  0  0  0  0  0  0  0  0  0
   -3.4402    1.2144    3.2331 H   0  0  0  0  0  0  0  0  0  0  0  0
   -2.7631   -1.3323    2.8199 H   0  0  0  0  0  0  0  0  0  0  0  0
   -5.6865   -1.3981    3.4508 H   0  0  0  0  0  0  0  0  0  0  0  0
   -4.3641   -2.6107    3.7227 H   0  0  0  0  0  0  0  0  0  0  0  0
   -5.0406   -2.4515    2.0772 H   0  0  0  0  0  0  0  0  0  0  0  0
   -6.1120   -0.6982    1.5868 H   0  0  0  0  0  0  0  0  0  0  0  0
   -3.4266    1.4608   -3.3811 H   0  0  0  0  0  0  0  0  0  0  0  0
   -6.7301    2.2717   -5.9580 H   0  0  0  0  0  0  0  0  0  0  0  0
   -8.2575    1.4853   -4.2312 H   0  0  0  0  0  0  0  0  0  0  0  0
   -2.7730    0.7991   -1.5906 H   0  0  0  0  0  0  0  0  0  0  0  0
   -1.2590    0.9051    0.7560 H   0  0  0  0  0  0  0  0  0  0  0  0
   -2.6746   -2.3698    0.2656 H   0  0  0  0  0  0  0  0  0  0  0  0
   -1.4371   -4.5518    0.5245 H   0  0  0  0  0  0  0  0  0  0  0  0
    2.0181   -2.4840    1.6641 H   0  0  0  0  0  0  0  0  0  0  0  0
    3.0009   -0.9273    1.8910 H   0  0  0  0  0  0  0  0  0  0  0  0
    2.5956    1.7356    2.9480 H   0  0  0  0  0  0  0  0  0  0  0  0
    4.2151    1.0137    2.5461 H   0  0  0  0  0  0  0  0  0  0  0  0
    3.8096    3.0154    1.1421 H   0  0  0  0  0  0  0  0  0  0  0  0
    2.1880    2.4540    0.7075 H   0  0  0  0  0  0  0  0  0  0  0  0
    3.2347    1.2130   -1.0647 H   0  0  0  0  0  0  0  0  0  0  0  0
    7.6919    2.0124   -1.5297 H   0  0  0  0  0  0  0  0  0  0  0  0
    8.0967    1.4379    0.1442 H   0  0  0  0  0  0  0  0  0  0  0  0
    9.0791    0.9071   -1.2454 H   0  0  0  0  0  0  0  0  0  0  0  0
    6.5633   -1.8490   -0.1429 H   0  0  0  0  0  0  0  0  0  0  0  0
    8.3131   -1.6086   -0.3588 H   0  0  0  0  0  0  0  0  0  0  0  0
    7.5092   -0.6770    0.9335 H   0  0  0  0  0  0  0  0  0  0  0  0
    7.9137    0.1100   -3.0951 H   0  0  0  0  0  0  0  0  0  0  0  0
    8.1063   -1.5517   -2.3291 H   0  0  0  0  0  0  0  0  0  0  0  0
    6.4963   -1.0178   -2.9520 H   0  0  0  0  0  0  0  0  0  0  0  0
  1  2  1  0
  2  3  1  0
  2  4  1  0
  4  5  2  0
  5  6  1  0
  6  7  2  0
  7  8  1  0
  8  9  2  0
  9 10  1  0
 10 11  1  0
 10 12  2  0
 12 13  1  0
 13 14  2  0
 14 15  1  0
  7 16  1  0
 16 17  2  0
 17 18  1  0
 18 19  1  0
 19 20  2  0
 20 21  1  0
 21 22  2  0
 22 23  1  0
 23 24  2  0
 24 25  1  0
 25 26  2  0
 25 27  1  0
 27 28  1  0
 28 29  1  0
 29 30  1  0
 30 31  1  0
 31 32  2  0
 31 33  1  0
 33 34  1  0
 34 35  1  0
 34 36  1  0
 34 37  1  0
 17  4  1  0
 24 19  1  0
 14  8  1  0
  1 38  1  0
  1 39  1  0
  1 40  1  0
  2 41  1  0
  3 42  1  0
  3 43  1  0
  3 44  1  0
  5 45  1  0
  9 46  1  0
 12 47  1  0
 13 48  1  0
 16 49  1  0
 18 50  1  0
 20 51  1  0
 21 52  1  0
 23 53  1  0
 27 54  1  0
 28 55  1  0
 28 56  1  0
 29 57  1  0
 29 58  1  0
 30 59  1  0
 35 60  1  0
 35 61  1  0
 35 62  1  0
 36 63  1  0
 36 64  1  0
 36 65  1  0
 37 66  1  0
 37 67  1  0
 37 68  1  0
M  END
$$$$
