
     RDKit          3D

 56 60  0  0  0  0  0  0  0  0999 V2000
   -3.0598   -3.3508    1.1150 C   0  0  0  0  0  0  0  0  0  0  0  0
   -2.2240   -2.3610    0.3974 N   0  0  0  0  0  0  0  0  0  0  0  0
   -2.1180   -1.0209    0.9219 C   0  0  0  0  0  0  0  0  0  0  0  0
   -3.3331   -0.2122    0.5695 C   0  0  0  0  0  0  0  0  0  0  0  0
   -3.4417    0.5554   -0.5525 C   0  0  0  0  0  0  0  0  0  0  0  0
   -4.6203    1.2761   -0.8044 C   0  0  0  0  0  0  0  0  0  0  0  0
   -5.7033    1.2488    0.0448 C   0  0  0  0  0  0  0  0  0  0  0  0
   -6.8589    1.9661   -0.2188 C   0  0  0  0  0  0  0  0  0  0  0  0
   -7.9358    1.9238    0.6495 C   0  0  0  0  0  0  0  0  0  0  0  0
   -7.8117    1.1359    1.7920 C   0  0  0  0  0  0  0  0  0  0  0  0
   -6.6642    0.4244    2.0528 C   0  0  0  0  0  0  0  0  0  0  0  0
   -5.5945    0.4723    1.1809 C   0  0  0  0  0  0  0  0  0  0  0  0
   -4.4388   -0.2366    1.4313 C   0  0  0  0  0  0  0  0  0  0  0  0
   -1.6123   -2.7742   -0.7880 C   0  0  0  0  0  0  0  0  0  0  0  0
   -1.8395   -3.9792   -1.2063 O   0  0  0  0  0  0  0  0  0  0  0  0
   -0.7541   -1.9944   -1.5857 N   0  0  0  0  0  0  0  0  0  0  0  0
   -0.1756   -2.3801   -2.7492 N   0  0  0  0  0  0  0  0  0  0  0  0
    0.5846   -1.4159   -3.2236 N   0  0  0  0  0  0  0  0  0  0  0  0
    0.5122   -0.3723   -2.3643 C   0  0  0  0  0  0  0  0  0  0  0  0
    1.1723    0.9486   -2.4289 C   0  0  0  0  0  0  0  0  0  0  0  0
    2.4657    0.8475   -1.7363 C   0  0  0  0  0  0  0  0  0  0  0  0
    2.5439    1.1173   -0.3943 C   0  0  0  0  0  0  0  0  0  0  0  0
    3.7707    1.0246    0.2795 C   0  0  0  0  0  0  0  0  0  0  0  0
    4.8811    0.6519   -0.4706 C   0  0  0  0  0  0  0  0  0  0  0  0
    6.1574    0.5591    0.2496 C   0  0  0  0  0  0  0  0  0  0  0  0
    6.2020    0.1857    1.5681 C   0  0  0  0  0  0  0  0  0  0  0  0
    7.4305    0.1160    2.1917 C   0  0  0  0  0  0  0  0  0  0  0  0
    8.5795    0.4183    1.4910 C   0  0  0  0  0  0  0  0  0  0  0  0
    8.5363    0.7948    0.1620 C   0  0  0  0  0  0  0  0  0  0  0  0
    7.3083    0.8641   -0.4605 C   0  0  0  0  0  0  0  0  0  0  0  0
    4.8224    0.3779   -1.8144 C   0  0  0  0  0  0  0  0  0  0  0  0
    3.5889    0.4833   -2.4345 C   0  0  0  0  0  0  0  0  0  0  0  0
   -0.3066   -0.7772   -1.3993 N   0  0  0  0  0  0  0  0  0  0  0  0
   -3.2355   -3.0025    2.1463 H   0  0  0  0  0  0  0  0  0  0  0  0
   -4.0329   -3.4666    0.5974 H   0  0  0  0  0  0  0  0  0  0  0  0
   -2.5493   -4.3341    1.0653 H   0  0  0  0  0  0  0  0  0  0  0  0
   -2.1547   -1.1132    2.0537 H   0  0  0  0  0  0  0  0  0  0  0  0
   -1.1964   -0.4973    0.6957 H   0  0  0  0  0  0  0  0  0  0  0  0
   -2.6177    0.6085   -1.2448 H   0  0  0  0  0  0  0  0  0  0  0  0
   -4.6969    1.8789   -1.6921 H   0  0  0  0  0  0  0  0  0  0  0  0
   -6.8883    2.5647   -1.1353 H   0  0  0  0  0  0  0  0  0  0  0  0
   -8.8378    2.4877    0.4374 H   0  0  0  0  0  0  0  0  0  0  0  0
   -8.6500    1.0835    2.4985 H   0  0  0  0  0  0  0  0  0  0  0  0
   -6.5878   -0.1799    2.9432 H   0  0  0  0  0  0  0  0  0  0  0  0
   -4.3333   -0.8564    2.3246 H   0  0  0  0  0  0  0  0  0  0  0  0
    0.5471    1.7112   -1.8814 H   0  0  0  0  0  0  0  0  0  0  0  0
    1.3079    1.2616   -3.4977 H   0  0  0  0  0  0  0  0  0  0  0  0
    1.6984    1.4097    0.2169 H   0  0  0  0  0  0  0  0  0  0  0  0
    3.8173    1.2388    1.3310 H   0  0  0  0  0  0  0  0  0  0  0  0
    5.2919   -0.0437    2.0886 H   0  0  0  0  0  0  0  0  0  0  0  0
    7.4945   -0.1797    3.2444 H   0  0  0  0  0  0  0  0  0  0  0  0
    9.5479    0.3668    1.9704 H   0  0  0  0  0  0  0  0  0  0  0  0
    9.4660    1.0209   -0.3405 H   0  0  0  0  0  0  0  0  0  0  0  0
    7.2846    1.1584   -1.4962 H   0  0  0  0  0  0  0  0  0  0  0  0
    5.7335    0.0954   -2.3200 H   0  0  0  0  0  0  0  0  0  0  0  0
    3.5279    0.2706   -3.4916 H   0  0  0  0  0  0  0  0  0  0  0  0
  1  2  1  0
  2  3  1  0
  3  4  1  0
  4  5  2  0
  5  6  1  0
  6  7  2  0
  7  8  1  0
  8  9  2  0
  9 10  1  0
 10 11  2  0
 11 12  1  0
 12 13  2  0
  2 14  1  0
 14 15  2  0
 14 16  1  0
 16 17  1  0
 17 18  2  0
 18 19  1  0
 19 20  1  0
 20 21  1  0
 21 22  2  0
 22 23  1  0
 23 24  2  0
 24 25  1  0
 25 26  2  0
 26 27  1  0
 27 28  2  0
 28 29  1  0
 29 30  2  0
 24 31  1  0
 31 32  2  0
 19 33  2  0
 13  4  1  0
 33 16  1  0
 12  7  1  0
 32 21  1  0
 30 25  1  0
  1 34  1  0
  1 35  1  0
  1 36  1  0
  3 37  1  0
  3 38  1  0
  5 39  1  0
  6 40  1  0
  8 41  1  0
  9 42  1  0
 10 43  1  0
 11 44  1  0
 13 45  1  0
 20 46  1  0
 20 47  1  0
 22 48  1  0
 23 49  1  0
 26 50  1  0
 27 51  1  0
 28 52  1  0
 29 53  1  0
 30 54  1  0
 31 55  1  0
 32 56  1  0
M  END
$$$$
