
     RDKit          3D

225230  0  0  0  0  0  0  0  0999 V2000
   -4.0771   -7.9064   -3.8900 C   0  0  0  0  0  0  0  0  0  0  0  0
   -2.9080   -7.7665   -2.9271 C   0  0  0  0  0  0  0  0  0  0  0  0
   -3.4113   -7.3208   -1.6365 N   0  0  0  0  0  0  0  0  0  0  0  0
   -3.9609   -6.0014   -1.5534 C   0  0  0  0  0  0  0  0  0  0  0  0
   -5.0133   -5.8192   -0.5743 N   0  0  0  0  0  0  0  0  0  0  0  0
   -6.2694   -5.0891   -0.8330 C   0  0  0  0  0  0  0  0  0  0  0  0
   -7.1309   -5.8843   -1.7944 C   0  0  0  0  0  0  0  0  0  0  0  0
   -3.7184   -4.9846   -2.1768 N   0  0  0  0  0  0  0  0  0  0  0  0
   -2.9703   -4.3973   -3.1683 C   0  0  0  0  0  0  0  0  0  0  0  0
   -1.5359   -4.1656   -3.0949 C   0  0  0  0  0  0  0  0  0  0  0  0
   -0.8445   -3.3648   -2.1000 C   0  0  0  0  0  0  0  0  0  0  0  0
   -1.1426   -1.9444   -1.8817 C   0  0  0  0  0  0  0  0  0  0  0  0
   -2.4828   -1.7268   -1.2556 C   0  0  1  0  0  0  0  0  0  0  0  0
   -2.4520   -2.3921    0.0573 N   0  0  0  0  0  0  0  0  0  0  0  0
   -3.6429   -2.7275    0.7883 C   0  0  0  0  0  0  0  0  0  0  0  0
   -4.6355   -2.3260    0.0902 O   0  0  0  0  0  0  0  0  0  0  0  0
   -3.6205   -3.4079    2.1020 C   0  0  2  0  0  0  0  0  0  0  0  0
   -4.2896   -2.6031    3.1649 C   0  0  0  0  0  0  0  0  0  0  0  0
   -5.6976   -2.3661    2.8190 C   0  0  0  0  0  0  0  0  0  0  0  0
   -6.6308   -3.3439    3.1990 C   0  0  0  0  0  0  0  0  0  0  0  0
   -7.9875   -3.2070    2.9381 C   0  0  0  0  0  0  0  0  0  0  0  0
   -8.4839   -2.0750    2.2783 C   0  0  0  0  0  0  0  0  0  0  0  0
   -9.8237   -1.8811    1.9912 O   0  0  0  0  0  0  0  0  0  0  0  0
   -7.5836   -1.0791    1.8836 C   0  0  0  0  0  0  0  0  0  0  0  0
   -6.2832   -1.3092    2.1846 C   0  0  0  0  0  0  0  0  0  0  0  0
   -2.2809   -3.8225    2.4724 N   0  0  0  0  0  0  0  0  0  0  0  0
   -2.0669   -5.2564    2.5057 C   0  0  0  0  0  0  0  0  0  0  0  0
   -2.9465   -6.0774    2.2424 O   0  0  0  0  0  0  0  0  0  0  0  0
   -0.8501   -6.1037    2.8305 C   0  0  2  0  0  0  0  0  0  0  0  0
   -1.2046   -7.1434    3.8546 C   0  0  0  0  0  0  0  0  0  0  0  0
   -0.1330   -7.9812    4.0966 O   0  0  0  0  0  0  0  0  0  0  0  0
    0.2681   -5.2714    3.2320 N   0  0  0  0  0  0  0  0  0  0  0  0
    1.2588   -4.9315    2.2821 C   0  0  0  0  0  0  0  0  0  0  0  0
    1.4525   -5.1678    1.0381 O   0  0  0  0  0  0  0  0  0  0  0  0
    2.4782   -4.1368    2.4286 C   0  0  1  0  0  0  0  0  0  0  0  0
    3.5432   -4.7888    3.2988 C   0  0  0  0  0  0  0  0  0  0  0  0
    4.0209   -6.0828    2.8240 C   0  0  0  0  0  0  0  0  0  0  0  0
    5.0990   -6.0778    1.9580 C   0  0  0  0  0  0  0  0  0  0  0  0
    5.6218   -7.2897    1.4818 C   0  0  0  0  0  0  0  0  0  0  0  0
    4.9611   -8.3822    1.9607 C   0  0  0  0  0  0  0  0  0  0  0  0
    3.9127   -8.4153    2.8009 N   0  0  0  0  0  0  0  0  0  0  0  0
    3.3966   -7.2363    3.2706 C   0  0  0  0  0  0  0  0  0  0  0  0
    3.0301   -3.7893    1.1293 N   0  0  0  0  0  0  0  0  0  0  0  0
    3.5843   -2.4991    1.0421 C   0  0  0  0  0  0  0  0  0  0  0  0
    3.7708   -1.4941    1.8414 O   0  0  0  0  0  0  0  0  0  0  0  0
    4.2481   -1.4321    0.2206 C   0  0  1  0  0  0  0  0  0  0  0  0
    3.0731   -0.9296   -0.6806 C   0  0  0  0  0  0  0  0  0  0  0  0
    3.4561    0.0789   -1.6311 C   0  0  0  0  0  0  0  0  0  0  0  0
    3.4197    1.4376   -1.7863 C   0  0  0  0  0  0  0  0  0  0  0  0
    3.9039    2.1902   -2.8138 C   0  0  0  0  0  0  0  0  0  0  0  0
    4.5141    1.5412   -3.8503 C   0  0  0  0  0  0  0  0  0  0  0  0
    5.1387    2.4834   -5.1829 Cl  0  0  0  0  0  0  0  0  0  0  0  0
    4.6151    0.1480   -3.8115 C   0  0  0  0  0  0  0  0  0  0  0  0
    4.0910   -0.5305   -2.7197 C   0  0  0  0  0  0  0  0  0  0  0  0
    4.7633   -0.4259    1.0673 N   0  0  0  0  0  0  0  0  0  0  0  0
    4.9051    0.7977    1.6921 C   0  0  0  0  0  0  0  0  0  0  0  0
    4.0257    1.5839    1.3395 O   0  0  0  0  0  0  0  0  0  0  0  0
    5.8325    1.3735    2.6520 C   0  0  1  0  0  0  0  0  0  0  0  0
    7.2272    1.6253    2.0744 C   0  0  0  0  0  0  0  0  0  0  0  0
    7.1870    2.5410    0.9349 C   0  0  0  0  0  0  0  0  0  0  0  0
    7.2457    3.9208    0.9787 C   0  0  0  0  0  0  0  0  0  0  0  0
    7.1940    4.6796   -0.1998 C   0  0  0  0  0  0  0  0  0  0  0  0
    7.2437    6.0754   -0.1275 C   0  0  0  0  0  0  0  0  0  0  0  0
    7.1819    6.8460   -1.2888 C   0  0  0  0  0  0  0  0  0  0  0  0
    7.0720    6.0919   -2.4445 C   0  0  0  0  0  0  0  0  0  0  0  0
    7.0181    4.7327   -2.6051 C   0  0  0  0  0  0  0  0  0  0  0  0
    7.0833    4.0028   -1.4161 C   0  0  0  0  0  0  0  0  0  0  0  0
    7.0234    2.6377   -1.4930 C   0  0  0  0  0  0  0  0  0  0  0  0
    7.0755    1.9140   -0.3103 C   0  0  0  0  0  0  0  0  0  0  0  0
    5.3809    2.6609    3.1247 N   0  0  0  0  0  0  0  0  0  0  0  0
    5.2009    2.9497    4.4940 C   0  0  0  0  0  0  0  0  0  0  0  0
    4.7603    4.1267    5.2646 C   0  0  0  0  0  0  0  0  0  0  0  0
    5.4882    1.9613    5.2451 O   0  0  0  0  0  0  0  0  0  0  0  0
   -2.6846   -0.2255   -1.0024 C   0  0  0  0  0  0  0  0  0  0  0  0
   -3.0284    0.4592   -1.9939 O   0  0  0  0  0  0  0  0  0  0  0  0
   -2.4901    0.3664    0.3013 N   0  0  0  0  0  0  0  0  0  0  0  0
   -2.8025    1.7975    0.2262 C   0  0  1  0  0  0  0  0  0  0  0  0
   -3.2784    2.2050    1.5718 C   0  0  0  0  0  0  0  0  0  0  0  0
   -3.6830    3.6286    1.7434 C   0  0  0  0  0  0  0  0  0  0  0  0
   -4.1548    3.8713    3.1940 C   0  0  0  0  0  0  0  0  0  0  0  0
   -4.9366    3.9049    0.9069 C   0  0  0  0  0  0  0  0  0  0  0  0
   -1.6997    2.5387   -0.3589 C   0  0  0  0  0  0  0  0  0  0  0  0
   -0.8283    1.6153   -0.6546 O   0  0  0  0  0  0  0  0  0  0  0  0
   -1.0671    3.6814   -0.7792 N   0  0  0  0  0  0  0  0  0  0  0  0
   -0.1588    4.6144   -1.3095 C   0  0  1  0  0  0  0  0  0  0  0  0
   -0.7668    5.4582   -2.4191 C   0  0  0  0  0  0  0  0  0  0  0  0
   -1.2461    4.6131   -3.5589 C   0  0  0  0  0  0  0  0  0  0  0  0
   -0.1992    3.7782   -4.2180 C   0  0  0  0  0  0  0  0  0  0  0  0
   -0.8624    2.9602   -5.3502 C   0  0  0  0  0  0  0  0  0  0  0  0
    0.0876    2.1410   -6.0147 N   0  0  0  0  0  0  0  0  0  0  0  0
   -0.0739    1.1741   -6.8050 C   0  0  0  0  0  0  0  0  0  0  0  0
    1.1632    0.5946   -7.2680 N   0  0  0  0  0  0  0  0  0  0  0  0
    2.3823    1.3609   -7.6035 C   0  0  0  0  0  0  0  0  0  0  0  0
    2.0172    2.1386   -8.8761 C   0  0  0  0  0  0  0  0  0  0  0  0
   -1.2827    0.6186   -7.2699 N   0  0  0  0  0  0  0  0  0  0  0  0
   -2.4456    1.4507   -7.5090 C   0  0  0  0  0  0  0  0  0  0  0  0
   -3.5193    0.4962   -8.0668 C   0  0  0  0  0  0  0  0  0  0  0  0
    0.4647    5.5335   -0.3410 C   0  0  0  0  0  0  0  0  0  0  0  0
    1.0878    6.5516   -0.0343 O   0  0  0  0  0  0  0  0  0  0  0  0
    0.6650    5.6439    1.0541 N   0  0  0  0  0  0  0  0  0  0  0  0
    1.2566    6.7070    1.8293 C   0  0  0  0  0  0  0  0  0  0  0  0
    2.4422    6.0431    2.5349 C   0  0  0  0  0  0  0  0  0  0  0  0
    1.8241    4.6802    2.8388 C   0  0  0  0  0  0  0  0  0  0  0  0
    0.4559    4.7425    2.1603 C   0  0  1  0  0  0  0  0  0  0  0  0
   -0.5700    5.1444    3.1258 C   0  0  0  0  0  0  0  0  0  0  0  0
   -1.4959    5.9679    3.3624 O   0  0  0  0  0  0  0  0  0  0  0  0
   -0.4491    4.2198    4.2321 N   0  0  0  0  0  0  0  0  0  0  0  0
   -1.2588    4.1999    5.4593 C   0  0  2  0  0  0  0  0  0  0  0  0
   -0.3297    4.8207    6.5231 C   0  0  0  0  0  0  0  0  0  0  0  0
   -1.5678    2.8473    5.9305 C   0  0  0  0  0  0  0  0  0  0  0  0
   -1.6343    1.4495    6.0102 N   0  0  0  0  0  0  0  0  0  0  0  0
   -2.2336    3.0664    7.0055 O   0  0  0  0  0  0  0  0  0  0  0  0
   -4.6917   -6.9960   -3.9290 H   0  0  0  0  0  0  0  0  0  0  0  0
   -4.7313   -8.7395   -3.5662 H   0  0  0  0  0  0  0  0  0  0  0  0
   -3.6175   -8.0561   -4.8932 H   0  0  0  0  0  0  0  0  0  0  0  0
   -2.0643   -7.2233   -3.3204 H   0  0  0  0  0  0  0  0  0  0  0  0
   -2.5281   -8.8112   -2.7348 H   0  0  0  0  0  0  0  0  0  0  0  0
   -3.3935   -7.9051   -0.7548 H   0  0  0  0  0  0  0  0  0  0  0  0
   -4.9234   -6.2256    0.3942 H   0  0  0  0  0  0  0  0  0  0  0  0
   -6.0382   -4.1294   -1.3158 H   0  0  0  0  0  0  0  0  0  0  0  0
   -6.7916   -4.8914    0.1148 H   0  0  0  0  0  0  0  0  0  0  0  0
   -7.7207   -5.1799   -2.4118 H   0  0  0  0  0  0  0  0  0  0  0  0
   -6.4730   -6.5436   -2.3654 H   0  0  0  0  0  0  0  0  0  0  0  0
   -7.8519   -6.4480   -1.1334 H   0  0  0  0  0  0  0  0  0  0  0  0
   -3.5570   -3.5120   -3.5711 H   0  0  0  0  0  0  0  0  0  0  0  0
   -3.0884   -5.1027   -4.0976 H   0  0  0  0  0  0  0  0  0  0  0  0
   -1.0190   -5.1984   -3.0710 H   0  0  0  0  0  0  0  0  0  0  0  0
   -1.1502   -3.8117   -4.1303 H   0  0  0  0  0  0  0  0  0  0  0  0
   -0.8452   -3.9522   -1.1108 H   0  0  0  0  0  0  0  0  0  0  0  0
    0.2719   -3.4216   -2.3578 H   0  0  0  0  0  0  0  0  0  0  0  0
   -0.4018   -1.4891   -1.1424 H   0  0  0  0  0  0  0  0  0  0  0  0
   -0.9863   -1.3031   -2.7809 H   0  0  0  0  0  0  0  0  0  0  0  0
   -3.3704   -1.9890   -1.8101 H   0  0  0  0  0  0  0  0  0  0  0  0
   -1.5364   -2.6422    0.5049 H   0  0  0  0  0  0  0  0  0  0  0  0
   -4.2263   -4.3215    1.9816 H   0  0  0  0  0  0  0  0  0  0  0  0
   -4.1979   -3.1821    4.1219 H   0  0  0  0  0  0  0  0  0  0  0  0
   -3.8391   -1.5996    3.3101 H   0  0  0  0  0  0  0  0  0  0  0  0
   -6.3515   -4.2590    3.7111 H   0  0  0  0  0  0  0  0  0  0  0  0
   -8.6901   -3.9811    3.2460 H   0  0  0  0  0  0  0  0  0  0  0  0
  -10.1347   -2.1136    1.0550 H   0  0  0  0  0  0  0  0  0  0  0  0
   -7.8988   -0.1813    1.3778 H   0  0  0  0  0  0  0  0  0  0  0  0
   -5.5730   -0.5168    1.8797 H   0  0  0  0  0  0  0  0  0  0  0  0
   -1.3840   -3.3607    2.7376 H   0  0  0  0  0  0  0  0  0  0  0  0
   -0.5481   -6.6192    1.8882 H   0  0  0  0  0  0  0  0  0  0  0  0
   -1.5479   -6.5953    4.7556 H   0  0  0  0  0  0  0  0  0  0  0  0
   -2.0731   -7.7268    3.4744 H   0  0  0  0  0  0  0  0  0  0  0  0
    0.4357   -8.0505    3.2733 H   0  0  0  0  0  0  0  0  0  0  0  0
    0.4762   -4.8536    4.1652 H   0  0  0  0  0  0  0  0  0  0  0  0
    2.2397   -3.1925    2.9622 H   0  0  0  0  0  0  0  0  0  0  0  0
    3.0980   -4.8291    4.3248 H   0  0  0  0  0  0  0  0  0  0  0  0
    4.3612   -4.0554    3.3501 H   0  0  0  0  0  0  0  0  0  0  0  0
    5.5937   -5.1797    1.5971 H   0  0  0  0  0  0  0  0  0  0  0  0
    6.4424   -7.4201    0.8190 H   0  0  0  0  0  0  0  0  0  0  0  0
    5.2231   -9.4120    1.7016 H   0  0  0  0  0  0  0  0  0  0  0  0
    2.5646   -7.1713    3.9449 H   0  0  0  0  0  0  0  0  0  0  0  0
    3.2746   -3.9590    0.1276 H   0  0  0  0  0  0  0  0  0  0  0  0
    4.9248   -1.8277   -0.5114 H   0  0  0  0  0  0  0  0  0  0  0  0
    2.6712   -1.8270   -1.1635 H   0  0  0  0  0  0  0  0  0  0  0  0
    2.2472   -0.5905    0.0201 H   0  0  0  0  0  0  0  0  0  0  0  0
    2.9118    1.9081   -0.9722 H   0  0  0  0  0  0  0  0  0  0  0  0
    3.7657    3.2559   -2.7280 H   0  0  0  0  0  0  0  0  0  0  0  0
    5.1104   -0.2627   -4.6681 H   0  0  0  0  0  0  0  0  0  0  0  0
    4.2623   -1.6000   -2.8753 H   0  0  0  0  0  0  0  0  0  0  0  0
    5.5619   -1.0214    1.4713 H   0  0  0  0  0  0  0  0  0  0  0  0
    5.9940    0.7065    3.5201 H   0  0  0  0  0  0  0  0  0  0  0  0
    7.7620    2.1752    2.9004 H   0  0  0  0  0  0  0  0  0  0  0  0
    7.7991    0.7071    1.9101 H   0  0  0  0  0  0  0  0  0  0  0  0
    7.3358    4.3838    1.9509 H   0  0  0  0  0  0  0  0  0  0  0  0
    7.3241    6.5939    0.8171 H   0  0  0  0  0  0  0  0  0  0  0  0
    7.2095    7.9051   -1.3035 H   0  0  0  0  0  0  0  0  0  0  0  0
    7.0174    6.6842   -3.3723 H   0  0  0  0  0  0  0  0  0  0  0  0
    6.9376    4.3072   -3.5961 H   0  0  0  0  0  0  0  0  0  0  0  0
    6.9415    2.1401   -2.4628 H   0  0  0  0  0  0  0  0  0  0  0  0
    7.0237    0.8312   -0.4336 H   0  0  0  0  0  0  0  0  0  0  0  0
    5.1400    3.5020    2.5416 H   0  0  0  0  0  0  0  0  0  0  0  0
    5.6157    4.7166    5.6535 H   0  0  0  0  0  0  0  0  0  0  0  0
    4.1023    4.7461    4.6140 H   0  0  0  0  0  0  0  0  0  0  0  0
    4.1002    3.7729    6.1020 H   0  0  0  0  0  0  0  0  0  0  0  0
   -2.1763   -0.2551    1.0731 H   0  0  0  0  0  0  0  0  0  0  0  0
   -3.6510    1.9406   -0.5124 H   0  0  0  0  0  0  0  0  0  0  0  0
   -2.4045    2.0505    2.2771 H   0  0  0  0  0  0  0  0  0  0  0  0
   -4.0496    1.5002    1.9746 H   0  0  0  0  0  0  0  0  0  0  0  0
   -2.8741    4.3260    1.5651 H   0  0  0  0  0  0  0  0  0  0  0  0
   -3.5287    3.2572    3.8850 H   0  0  0  0  0  0  0  0  0  0  0  0
   -4.0477    4.9566    3.3818 H   0  0  0  0  0  0  0  0  0  0  0  0
   -5.2176    3.5469    3.2920 H   0  0  0  0  0  0  0  0  0  0  0  0
   -4.5901    4.0773   -0.1192 H   0  0  0  0  0  0  0  0  0  0  0  0
   -5.5634    4.7057    1.3282 H   0  0  0  0  0  0  0  0  0  0  0  0
   -5.5618    2.9716    0.9958 H   0  0  0  0  0  0  0  0  0  0  0  0
   -1.8254    4.3935   -0.4954 H   0  0  0  0  0  0  0  0  0  0  0  0
    0.7140    4.0906   -1.8400 H   0  0  0  0  0  0  0  0  0  0  0  0
   -0.0015    6.1436   -2.7676 H   0  0  0  0  0  0  0  0  0  0  0  0
   -1.6163    6.0043   -2.0073 H   0  0  0  0  0  0  0  0  0  0  0  0
   -2.1391    4.0044   -3.3005 H   0  0  0  0  0  0  0  0  0  0  0  0
   -1.6261    5.3322   -4.3425 H   0  0  0  0  0  0  0  0  0  0  0  0
    0.3085    3.0792   -3.5139 H   0  0  0  0  0  0  0  0  0  0  0  0
    0.6065    4.3520   -4.7081 H   0  0  0  0  0  0  0  0  0  0  0  0
   -1.5948    2.3288   -4.7769 H   0  0  0  0  0  0  0  0  0  0  0  0
   -1.4136    3.6273   -6.0116 H   0  0  0  0  0  0  0  0  0  0  0  0
    1.2341   -0.4574   -7.3943 H   0  0  0  0  0  0  0  0  0  0  0  0
    2.6064    2.1002   -6.8281 H   0  0  0  0  0  0  0  0  0  0  0  0
    3.2003    0.6896   -7.8622 H   0  0  0  0  0  0  0  0  0  0  0  0
    1.4596    3.0461   -8.6713 H   0  0  0  0  0  0  0  0  0  0  0  0
    1.3396    1.4696   -9.4917 H   0  0  0  0  0  0  0  0  0  0  0  0
    2.9131    2.2976   -9.5215 H   0  0  0  0  0  0  0  0  0  0  0  0
   -1.2224   -0.4328   -7.4115 H   0  0  0  0  0  0  0  0  0  0  0  0
   -2.2616    2.1898   -8.3380 H   0  0  0  0  0  0  0  0  0  0  0  0
   -2.8792    1.9233   -6.6319 H   0  0  0  0  0  0  0  0  0  0  0  0
   -3.2519   -0.5596   -7.8622 H   0  0  0  0  0  0  0  0  0  0  0  0
   -3.6290    0.6155   -9.1443 H   0  0  0  0  0  0  0  0  0  0  0  0
   -4.4941    0.6468   -7.5211 H   0  0  0  0  0  0  0  0  0  0  0  0
    0.5314    6.9701    2.6612 H   0  0  0  0  0  0  0  0  0  0  0  0
    1.5264    7.6259    1.3206 H   0  0  0  0  0  0  0  0  0  0  0  0
    2.7313    6.5714    3.4565 H   0  0  0  0  0  0  0  0  0  0  0  0
    3.2928    5.8877    1.8831 H   0  0  0  0  0  0  0  0  0  0  0  0
    1.6990    4.6261    3.9320 H   0  0  0  0  0  0  0  0  0  0  0  0
    2.4315    3.8580    2.4797 H   0  0  0  0  0  0  0  0  0  0  0  0
    0.1887    3.7507    1.7357 H   0  0  0  0  0  0  0  0  0  0  0  0
    0.2073    3.4037    4.3792 H   0  0  0  0  0  0  0  0  0  0  0  0
   -2.1284    4.8518    5.3682 H   0  0  0  0  0  0  0  0  0  0  0  0
    0.5584    4.1509    6.5378 H   0  0  0  0  0  0  0  0  0  0  0  0
   -0.0270    5.7851    6.1157 H   0  0  0  0  0  0  0  0  0  0  0  0
   -0.8218    4.8476    7.4941 H   0  0  0  0  0  0  0  0  0  0  0  0
   -0.8868    0.9354    6.5595 H   0  0  0  0  0  0  0  0  0  0  0  0
   -2.4466    0.9935    5.5000 H   0  0  0  0  0  0  0  0  0  0  0  0
  1  2  1  0
  2  3  1  0
  3  4  1  0
  4  5  1  0
  5  6  1  0
  6  7  1  0
  4  8  2  3
  8  9  1  0
  9 10  1  0
 10 11  1  0
 11 12  1  0
 12 13  1  0
 13 14  1  0
 14 15  1  0
 15 16  2  0
 15 17  1  0
 17 18  1  0
 18 19  1  0
 19 20  2  0
 20 21  1  0
 21 22  2  0
 22 23  1  0
 22 24  1  0
 24 25  2  0
 17 26  1  0
 26 27  1  0
 27 28  2  0
 27 29  1  0
 29 30  1  0
 30 31  1  0
 29 32  1  0
 32 33  1  0
 33 34  2  0
 33 35  1  0
 35 36  1  0
 36 37  1  0
 37 38  2  0
 38 39  1  0
 39 40  2  0
 40 41  1  0
 41 42  2  0
 35 43  1  0
 43 44  1  0
 44 45  2  0
 44 46  1  0
 46 47  1  0
 47 48  1  0
 48 49  2  0
 49 50  1  0
 50 51  2  0
 51 52  1  0
 51 53  1  0
 53 54  2  0
 46 55  1  0
 55 56  1  0
 56 57  2  0
 56 58  1  0
 58 59  1  0
 59 60  1  0
 60 61  2  0
 61 62  1  0
 62 63  2  0
 63 64  1  0
 64 65  2  0
 65 66  1  0
 66 67  2  0
 67 68  1  0
 68 69  2  0
 58 70  1  0
 70 71  1  0
 71 72  1  0
 71 73  2  0
 13 74  1  0
 74 75  2  0
 74 76  1  0
 76 77  1  0
 77 78  1  0
 78 79  1  0
 79 80  1  0
 79 81  1  0
 77 82  1  0
 82 83  2  0
 82 84  1  0
 84 85  1  0
 85 86  1  0
 86 87  1  0
 87 88  1  0
 88 89  1  0
 89 90  1  0
 90 91  2  3
 91 92  1  0
 92 93  1  0
 93 94  1  0
 91 95  1  0
 95 96  1  0
 96 97  1  0
 85 98  1  0
 98 99  2  0
 98100  1  0
100101  1  0
101102  1  0
102103  1  0
103104  1  0
104105  1  0
105106  2  0
105107  1  0
107108  1  0
108109  1  0
108110  1  0
110111  1  0
110112  2  0
 25 19  1  0
 42 37  1  0
 54 48  1  0
 69 60  1  0
104100  1  0
 67 62  1  0
  1113  1  0
  1114  1  0
  1115  1  0
  2116  1  0
  2117  1  0
  3118  1  0
  5119  1  0
  6120  1  0
  6121  1  0
  7122  1  0
  7123  1  0
  7124  1  0
  9125  1  0
  9126  1  0
 10127  1  0
 10128  1  0
 11129  1  0
 11130  1  0
 12131  1  0
 12132  1  0
 13133  1  6
 14134  1  0
 17135  1  6
 18136  1  0
 18137  1  0
 20138  1  0
 21139  1  0
 23140  1  0
 24141  1  0
 25142  1  0
 26143  1  0
 29144  1  6
 30145  1  0
 30146  1  0
 31147  1  0
 32148  1  0
 35149  1  1
 36150  1  0
 36151  1  0
 38152  1  0
 39153  1  0
 40154  1  0
 42155  1  0
 43156  1  0
 46157  1  6
 47158  1  0
 47159  1  0
 49160  1  0
 50161  1  0
 53162  1  0
 54163  1  0
 55164  1  0
 58165  1  1
 59166  1  0
 59167  1  0
 61168  1  0
 63169  1  0
 64170  1  0
 65171  1  0
 66172  1  0
 68173  1  0
 69174  1  0
 70175  1  0
 72176  1  0
 72177  1  0
 72178  1  0
 76179  1  0
 77180  1  6
 78181  1  0
 78182  1  0
 79183  1  0
 80184  1  0
 80185  1  0
 80186  1  0
 81187  1  0
 81188  1  0
 81189  1  0
 84190  1  0
 85191  1  6
 86192  1  0
 86193  1  0
 87194  1  0
 87195  1  0
 88196  1  0
 88197  1  0
 89198  1  0
 89199  1  0
 92200  1  0
 93201  1  0
 93202  1  0
 94203  1  0
 94204  1  0
 94205  1  0
 95206  1  0
 96207  1  0
 96208  1  0
 97209  1  0
 97210  1  0
 97211  1  0
101212  1  0
101213  1  0
102214  1  0
102215  1  0
103216  1  0
103217  1  0
104218  1  6
107219  1  0
108220  1  6
109221  1  0
109222  1  0
109223  1  0
111224  1  0
111225  1  0
M  END
$$$$
