
     RDKit          3D

 40 42  0  0  0  0  0  0  0  0999 V2000
    3.8766   -3.6164    1.9232 O   0  0  0  0  0  0  0  0  0  0  0  0
    4.0020   -2.2258    1.3821 S   0  0  0  0  0  6  0  0  0  0  0  0
    4.8407   -1.4506    2.3647 O   0  0  0  0  0  0  0  0  0  0  0  0
    4.7774   -2.2832   -0.1334 N   0  0  0  0  0  0  0  0  0  0  0  0
    5.1202   -1.0990   -0.8660 C   0  0  0  0  0  0  0  0  0  0  0  0
    5.6042   -0.7230   -1.8334 N   0  0  0  0  0  0  0  0  0  0  0  0
    5.8037    0.4956   -2.2870 C   0  0  0  0  0  0  0  0  0  0  0  0
    5.3579    1.4710   -1.4643 C   0  0  0  0  0  0  0  0  0  0  0  0
    4.6662    0.5922   -0.0645 S   0  0  0  0  0  0  0  0  0  0  0  0
    2.4272   -1.4542    1.2364 C   0  0  0  0  0  0  0  0  0  0  0  0
    2.1021   -0.3149    1.9232 C   0  0  0  0  0  0  0  0  0  0  0  0
    0.8827    0.3113    1.8313 C   0  0  0  0  0  0  0  0  0  0  0  0
    0.4678    1.7612    2.7048 Cl  0  0  0  0  0  0  0  0  0  0  0  0
   -0.0846   -0.2402    0.9915 C   0  0  0  0  0  0  0  0  0  0  0  0
   -1.3586    0.3766    0.8679 N   0  0  0  0  0  0  0  0  0  0  0  0
   -2.3304   -0.2126   -0.0015 C   0  0  0  0  0  0  0  0  0  0  0  0
   -3.6241    0.5562   -0.0231 C   0  0  0  0  0  0  0  0  0  0  0  0
   -3.4615    1.9491   -0.5681 C   0  0  0  0  0  0  0  0  0  0  0  0
   -4.5497    2.3486   -1.3507 O   0  0  0  0  0  0  0  0  0  0  0  0
   -5.7433    1.9162   -0.8081 C   0  0  0  0  0  0  0  0  0  0  0  0
   -5.7509    0.4034   -0.8710 C   0  0  0  0  0  0  0  0  0  0  0  0
   -4.4790   -0.1341   -0.9137 O   0  0  0  0  0  0  0  0  0  0  0  0
    0.2281   -1.3761    0.3015 C   0  0  0  0  0  0  0  0  0  0  0  0
    1.4670   -1.9929    0.4091 C   0  0  0  0  0  0  0  0  0  0  0  0
    1.7736   -3.1273   -0.2825 F   0  0  0  0  0  0  0  0  0  0  0  0
    5.0266   -3.1847   -0.5747 H   0  0  0  0  0  0  0  0  0  0  0  0
    6.2912    0.7022   -3.2524 H   0  0  0  0  0  0  0  0  0  0  0  0
    5.3847    2.6202   -1.5763 H   0  0  0  0  0  0  0  0  0  0  0  0
    2.8530    0.1063    2.5701 H   0  0  0  0  0  0  0  0  0  0  0  0
   -1.5615    1.2455    1.4120 H   0  0  0  0  0  0  0  0  0  0  0  0
   -2.5773   -1.2398    0.3658 H   0  0  0  0  0  0  0  0  0  0  0  0
   -1.9288   -0.3187   -1.0209 H   0  0  0  0  0  0  0  0  0  0  0  0
   -4.1024    0.5389    0.9641 H   0  0  0  0  0  0  0  0  0  0  0  0
   -2.5543    1.9830   -1.2331 H   0  0  0  0  0  0  0  0  0  0  0  0
   -3.3469    2.7094    0.2202 H   0  0  0  0  0  0  0  0  0  0  0  0
   -5.8483    2.3084    0.2081 H   0  0  0  0  0  0  0  0  0  0  0  0
   -6.5659    2.3341   -1.4345 H   0  0  0  0  0  0  0  0  0  0  0  0
   -6.3169   -0.0026   -0.0130 H   0  0  0  0  0  0  0  0  0  0  0  0
   -6.2595    0.0969   -1.8191 H   0  0  0  0  0  0  0  0  0  0  0  0
   -0.5088   -1.8301   -0.3630 H   0  0  0  0  0  0  0  0  0  0  0  0
  1  2  2  0
  2  3  2  0
  2  4  1  0
  4  5  1  0
  5  6  2  0
  6  7  1  0
  7  8  2  0
  8  9  1  0
  2 10  1  0
 10 11  2  0
 11 12  1  0
 12 13  1  0
 12 14  2  0
 14 15  1  0
 15 16  1  0
 16 17  1  0
 17 18  1  0
 18 19  1  0
 19 20  1  0
 20 21  1  0
 21 22  1  0
 14 23  1  0
 23 24  2  0
 24 25  1  0
  9  5  1  0
 24 10  1  0
 22 17  1  0
  4 26  1  0
  7 27  1  0
  8 28  1  0
 11 29  1  0
 15 30  1  0
 16 31  1  0
 16 32  1  0
 17 33  1  0
 18 34  1  0
 18 35  1  0
 20 36  1  0
 20 37  1  0
 21 38  1  0
 21 39  1  0
 23 40  1  0
M  END
$$$$
