
     RDKit          3D

 58 62  0  0  0  0  0  0  0  0999 V2000
   -2.9520    3.9927    0.5523 C   0  0  0  0  0  0  0  0  0  0  0  0
   -3.1482    2.5521    0.3513 C   0  0  0  0  0  0  0  0  0  0  0  0
   -2.1481    1.6637    0.7373 C   0  0  0  0  0  0  0  0  0  0  0  0
   -2.3234    0.3058    0.5522 C   0  0  0  0  0  0  0  0  0  0  0  0
   -1.3161   -0.6678    0.9349 C   0  0  0  0  0  0  0  0  0  0  0  0
   -1.3684   -1.1382    2.0965 O   0  0  0  0  0  0  0  0  0  0  0  0
   -0.2844   -1.1155    0.0807 N   0  0  0  0  0  0  0  0  0  0  0  0
   -0.1470   -0.6262   -1.2777 C   0  0  0  0  0  0  0  0  0  0  0  0
   -0.1270   -1.8489   -2.1693 C   0  0  0  0  0  0  0  0  0  0  0  0
    0.8988   -2.7012   -1.8343 O   0  0  0  0  0  0  0  0  0  0  0  0
    1.6261   -2.3327   -0.7121 C   0  0  0  0  0  0  0  0  0  0  0  0
    0.7028   -2.0915    0.4878 C   0  0  1  0  0  0  0  0  0  0  0  0
    1.5651   -1.6484    1.6361 C   0  0  0  0  0  0  0  0  0  0  0  0
    2.3257   -0.4213    1.3115 C   0  0  0  0  0  0  0  0  0  0  0  0
    1.7873    0.8325    1.5600 C   0  0  0  0  0  0  0  0  0  0  0  0
    2.5256    1.9708    1.2533 C   0  0  0  0  0  0  0  0  0  0  0  0
    3.7773    1.8565    0.7091 C   0  0  0  0  0  0  0  0  0  0  0  0
    4.3200    0.6138    0.4590 C   0  0  0  0  0  0  0  0  0  0  0  0
    5.6246    0.4522   -0.1088 N   0  0  0  0  0  0  0  0  0  0  0  0
    6.5519   -0.4256    0.2268 N   0  0  0  0  0  0  0  0  0  0  0  0
    7.6469   -0.2705   -0.5313 C   0  0  0  0  0  0  0  0  0  0  0  0
    7.3819    0.7676   -1.3901 C   0  0  0  0  0  0  0  0  0  0  0  0
    6.1442    1.1722   -1.0949 N   0  0  0  0  0  0  0  0  0  0  0  0
    3.6031   -0.5011    0.7566 C   0  0  0  0  0  0  0  0  0  0  0  0
   -3.5199   -0.1304   -0.0258 C   0  0  0  0  0  0  0  0  0  0  0  0
   -3.6790   -1.5169   -0.2056 N   0  0  0  0  0  0  0  0  0  0  0  0
   -2.9958   -2.4986    0.3328 N   0  0  0  0  0  0  0  0  0  0  0  0
   -3.4513   -3.6782   -0.0881 C   0  0  0  0  0  0  0  0  0  0  0  0
   -4.4916   -3.4061   -0.9491 C   0  0  0  0  0  0  0  0  0  0  0  0
   -4.5911   -2.0704   -0.9872 N   0  0  0  0  0  0  0  0  0  0  0  0
   -4.5085    0.7609   -0.4062 C   0  0  0  0  0  0  0  0  0  0  0  0
   -4.3254    2.1158   -0.2179 C   0  0  0  0  0  0  0  0  0  0  0  0
   -5.3396    3.1094   -0.6021 C   0  0  0  0  0  0  0  0  0  0  0  0
   -3.8254    4.4887    1.0375 H   0  0  0  0  0  0  0  0  0  0  0  0
   -2.6930    4.5374   -0.3763 H   0  0  0  0  0  0  0  0  0  0  0  0
   -2.0954    4.1705    1.2639 H   0  0  0  0  0  0  0  0  0  0  0  0
   -1.2330    2.0121    1.1805 H   0  0  0  0  0  0  0  0  0  0  0  0
   -0.9582    0.0753   -1.5512 H   0  0  0  0  0  0  0  0  0  0  0  0
    0.7951   -0.0313   -1.4202 H   0  0  0  0  0  0  0  0  0  0  0  0
   -0.1218   -1.5728   -3.2430 H   0  0  0  0  0  0  0  0  0  0  0  0
   -1.0847   -2.4125   -1.9638 H   0  0  0  0  0  0  0  0  0  0  0  0
    2.1884   -1.4381   -0.9787 H   0  0  0  0  0  0  0  0  0  0  0  0
    2.3118   -3.1569   -0.4314 H   0  0  0  0  0  0  0  0  0  0  0  0
    0.1966   -3.0573    0.7033 H   0  0  0  0  0  0  0  0  0  0  0  0
    2.2744   -2.4856    1.8389 H   0  0  0  0  0  0  0  0  0  0  0  0
    0.9134   -1.4968    2.5235 H   0  0  0  0  0  0  0  0  0  0  0  0
    0.8073    0.9719    1.9891 H   0  0  0  0  0  0  0  0  0  0  0  0
    2.0861    2.9328    1.4554 H   0  0  0  0  0  0  0  0  0  0  0  0
    4.3270    2.7580    0.4814 H   0  0  0  0  0  0  0  0  0  0  0  0
    8.5789   -0.8411   -0.4959 H   0  0  0  0  0  0  0  0  0  0  0  0
    8.0417    1.1569   -2.1336 H   0  0  0  0  0  0  0  0  0  0  0  0
    4.0319   -1.4858    0.5589 H   0  0  0  0  0  0  0  0  0  0  0  0
   -3.0919   -4.6619    0.1794 H   0  0  0  0  0  0  0  0  0  0  0  0
   -5.0772   -4.1539   -1.4642 H   0  0  0  0  0  0  0  0  0  0  0  0
   -5.4192    0.3867   -0.8494 H   0  0  0  0  0  0  0  0  0  0  0  0
   -4.8445    3.9080   -1.2292 H   0  0  0  0  0  0  0  0  0  0  0  0
   -6.1427    2.6975   -1.2330 H   0  0  0  0  0  0  0  0  0  0  0  0
   -5.7299    3.6219    0.2894 H   0  0  0  0  0  0  0  0  0  0  0  0
  1  2  1  0
  2  3  2  0
  3  4  1  0
  4  5  1  0
  5  6  2  0
  5  7  1  0
  7  8  1  0
  8  9  1  0
  9 10  1  0
 10 11  1  0
 11 12  1  0
 12 13  1  0
 13 14  1  0
 14 15  2  0
 15 16  1  0
 16 17  2  0
 17 18  1  0
 18 19  1  0
 19 20  1  0
 20 21  2  0
 21 22  1  0
 22 23  2  0
 18 24  2  0
  4 25  2  0
 25 26  1  0
 26 27  1  0
 27 28  2  0
 28 29  1  0
 29 30  2  0
 25 31  1  0
 31 32  2  0
 32 33  1  0
 32  2  1  0
 12  7  1  0
 24 14  1  0
 30 26  1  0
 23 19  1  0
  1 34  1  0
  1 35  1  0
  1 36  1  0
  3 37  1  0
  8 38  1  0
  8 39  1  0
  9 40  1  0
  9 41  1  0
 11 42  1  0
 11 43  1  0
 12 44  1  1
 13 45  1  0
 13 46  1  0
 15 47  1  0
 16 48  1  0
 17 49  1  0
 21 50  1  0
 22 51  1  0
 24 52  1  0
 28 53  1  0
 29 54  1  0
 31 55  1  0
 33 56  1  0
 33 57  1  0
 33 58  1  0
M  END
$$$$
