
     RDKit          3D

 32 34  0  0  0  0  0  0  0  0999 V2000
   -2.0283   -2.9646    0.2393 O   0  0  0  0  0  0  0  0  0  0  0  0
   -1.5882   -1.7817    0.1297 C   0  0  0  0  0  0  0  0  0  0  0  0
   -0.2086   -1.5336    0.1163 C   0  0  0  0  0  0  0  0  0  0  0  0
    0.5836   -2.6379    0.2276 O   0  0  0  0  0  0  0  0  0  0  0  0
    0.3386   -0.2900    0.0017 C   0  0  0  0  0  0  0  0  0  0  0  0
    1.7556    0.0194   -0.0173 C   0  0  0  0  0  0  0  0  0  0  0  0
    2.1465    1.3589   -0.1423 C   0  0  0  0  0  0  0  0  0  0  0  0
    3.4444    1.7774   -0.1725 C   0  0  0  0  0  0  0  0  0  0  0  0
    4.4292    0.8386   -0.0756 C   0  0  0  0  0  0  0  0  0  0  0  0
    5.7541    1.2383   -0.1039 O   0  0  0  0  0  0  0  0  0  0  0  0
    4.1311   -0.4863    0.0486 C   0  0  0  0  0  0  0  0  0  0  0  0
    5.1393   -1.4382    0.1470 O   0  0  0  0  0  0  0  0  0  0  0  0
    2.7867   -0.8663    0.0749 C   0  0  0  0  0  0  0  0  0  0  0  0
   -0.5439    0.7083   -0.1001 O   0  0  0  0  0  0  0  0  0  0  0  0
   -1.8311    0.5566   -0.0952 C   0  0  0  0  0  0  0  0  0  0  0  0
   -2.6547    1.6563   -0.2063 C   0  0  0  0  0  0  0  0  0  0  0  0
   -4.0273    1.5161   -0.2031 C   0  0  0  0  0  0  0  0  0  0  0  0
   -4.8352    2.6191   -0.3144 O   0  0  0  0  0  0  0  0  0  0  0  0
   -4.5889    0.2456   -0.0861 C   0  0  0  0  0  0  0  0  0  0  0  0
   -3.7842   -0.8634    0.0258 C   0  0  0  0  0  0  0  0  0  0  0  0
   -4.3344   -2.1252    0.1421 O   0  0  0  0  0  0  0  0  0  0  0  0
   -2.4291   -0.6970    0.0200 C   0  0  0  0  0  0  0  0  0  0  0  0
    0.3426   -3.4819   -0.2677 H   0  0  0  0  0  0  0  0  0  0  0  0
    1.3777    2.1107   -0.2197 H   0  0  0  0  0  0  0  0  0  0  0  0
    3.7266    2.8076   -0.2688 H   0  0  0  0  0  0  0  0  0  0  0  0
    6.0157    2.1472    0.2727 H   0  0  0  0  0  0  0  0  0  0  0  0
    5.0376   -2.1604    0.8225 H   0  0  0  0  0  0  0  0  0  0  0  0
    2.6005   -1.9001    0.1722 H   0  0  0  0  0  0  0  0  0  0  0  0
   -2.2771    2.6652   -0.2998 H   0  0  0  0  0  0  0  0  0  0  0  0
   -4.5756    3.4492   -0.8367 H   0  0  0  0  0  0  0  0  0  0  0  0
   -5.6519    0.0867   -0.0788 H   0  0  0  0  0  0  0  0  0  0  0  0
   -4.2511   -2.5747    1.0481 H   0  0  0  0  0  0  0  0  0  0  0  0
  1  2  2  0
  2  3  1  0
  3  4  1  0
  3  5  2  0
  5  6  1  0
  6  7  2  0
  7  8  1  0
  8  9  2  0
  9 10  1  0
  9 11  1  0
 11 12  1  0
 11 13  2  0
  5 14  1  0
 14 15  1  0
 15 16  2  0
 16 17  1  0
 17 18  1  0
 17 19  2  0
 19 20  1  0
 20 21  1  0
 20 22  2  0
 22  2  1  0
 13  6  1  0
 22 15  1  0
  4 23  1  0
  7 24  1  0
  8 25  1  0
 10 26  1  0
 12 27  1  0
 13 28  1  0
 16 29  1  0
 18 30  1  0
 19 31  1  0
 21 32  1  0
M  END
$$$$
