
     RDKit          3D

 52 53  0  0  0  0  0  0  0  0999 V2000
   -2.1430    2.1376    0.2661 C   0  0  2  0  0  0  0  0  0  0  0  0
   -2.5234    2.1202    1.7274 C   0  0  0  0  0  0  0  0  0  0  0  0
   -1.1553    1.1074    0.0237 N   0  0  0  0  0  0  0  0  0  0  0  0
   -1.5604   -0.0959   -0.2095 C   0  0  0  0  0  0  0  0  0  0  0  0
   -2.9075   -0.4297   -0.2347 O   0  0  0  0  0  0  0  0  0  0  0  0
   -0.5481   -1.1555   -0.4588 C   0  0  2  0  0  0  0  0  0  0  0  0
   -0.5806   -2.2751    0.5331 C   0  0  0  0  0  0  0  0  0  0  0  0
   -1.8480   -3.0100    0.6061 C   0  0  0  0  0  0  0  0  0  0  0  0
   -1.9253   -4.0954   -0.2713 C   0  0  0  0  0  0  0  0  0  0  0  0
   -3.0621   -4.8931   -0.3213 C   0  0  0  0  0  0  0  0  0  0  0  0
   -4.1048   -4.5729    0.5244 C   0  0  0  0  0  0  0  0  0  0  0  0
   -5.2517   -5.3792    0.4726 O   0  0  0  0  0  0  0  0  0  0  0  0
   -4.0223   -3.4987    1.3894 C   0  0  0  0  0  0  0  0  0  0  0  0
   -2.8992   -2.6995    1.4482 C   0  0  0  0  0  0  0  0  0  0  0  0
    0.7895   -0.5985   -0.4198 N   0  0  0  0  0  0  0  0  0  0  0  0
    1.1059    0.2973   -1.2651 C   0  0  0  0  0  0  0  0  0  0  0  0
    0.2298    0.7847   -2.2440 O   0  0  0  0  0  0  0  0  0  0  0  0
    2.4089    0.7240   -1.0973 O   0  0  0  0  0  0  0  0  0  0  0  0
    3.4043    0.0054   -0.4162 C   0  0  0  0  0  0  0  0  0  0  0  0
    4.6660    0.8031   -0.4567 C   0  0  0  0  0  0  0  0  0  0  0  0
    5.5778    0.6636   -1.4701 C   0  0  0  0  0  0  0  0  0  0  0  0
    6.7271    1.3980   -1.4965 C   0  0  0  0  0  0  0  0  0  0  0  0
    7.0048    2.3072   -0.4972 C   0  0  0  0  0  0  0  0  0  0  0  0
    6.1033    2.4655    0.5328 C   0  0  0  0  0  0  0  0  0  0  0  0
    4.9355    1.7141    0.5525 C   0  0  0  0  0  0  0  0  0  0  0  0
   -1.6284    3.4813   -0.1465 C   0  0  0  0  0  0  0  0  0  0  0  0
   -0.5248    3.6926   -0.6252 O   0  0  0  0  0  0  0  0  0  0  0  0
   -2.5621    4.6361    0.0555 C   0  0  0  0  0  0  0  0  0  0  0  0
   -1.9767    5.8006   -0.3585 F   0  0  0  0  0  0  0  0  0  0  0  0
   -3.0697    1.9746   -0.3270 H   0  0  0  0  0  0  0  0  0  0  0  0
   -2.0084    1.2946    2.2970 H   0  0  0  0  0  0  0  0  0  0  0  0
   -3.6141    1.9697    1.8576 H   0  0  0  0  0  0  0  0  0  0  0  0
   -2.3078    3.0927    2.2245 H   0  0  0  0  0  0  0  0  0  0  0  0
   -3.5372    0.1084    0.3462 H   0  0  0  0  0  0  0  0  0  0  0  0
   -0.7112   -1.5660   -1.4943 H   0  0  0  0  0  0  0  0  0  0  0  0
    0.2909   -2.9172    0.3207 H   0  0  0  0  0  0  0  0  0  0  0  0
   -0.3796   -1.8317    1.5519 H   0  0  0  0  0  0  0  0  0  0  0  0
   -1.1361   -4.3844   -0.9509 H   0  0  0  0  0  0  0  0  0  0  0  0
   -3.1337   -5.7331   -0.9938 H   0  0  0  0  0  0  0  0  0  0  0  0
   -5.6119   -5.6024   -0.4625 H   0  0  0  0  0  0  0  0  0  0  0  0
   -4.8506   -3.2702    2.0392 H   0  0  0  0  0  0  0  0  0  0  0  0
   -2.7909   -1.8499    2.1102 H   0  0  0  0  0  0  0  0  0  0  0  0
   -0.5435    0.1716   -2.5417 H   0  0  0  0  0  0  0  0  0  0  0  0
    3.1003   -0.2300    0.6297 H   0  0  0  0  0  0  0  0  0  0  0  0
    3.6586   -0.9672   -0.8815 H   0  0  0  0  0  0  0  0  0  0  0  0
    5.3237   -0.0522   -2.2250 H   0  0  0  0  0  0  0  0  0  0  0  0
    7.4043    1.2377   -2.3271 H   0  0  0  0  0  0  0  0  0  0  0  0
    7.9501    2.8368   -0.6212 H   0  0  0  0  0  0  0  0  0  0  0  0
    6.3565    3.1873    1.2967 H   0  0  0  0  0  0  0  0  0  0  0  0
    4.2272    1.8402    1.3641 H   0  0  0  0  0  0  0  0  0  0  0  0
   -2.8647    4.7593    1.1103 H   0  0  0  0  0  0  0  0  0  0  0  0
   -3.4814    4.4963   -0.5531 H   0  0  0  0  0  0  0  0  0  0  0  0
  1  2  1  0
  1  3  1  0
  3  4  2  3
  4  5  1  0
  4  6  1  0
  6  7  1  0
  7  8  1  0
  8  9  2  0
  9 10  1  0
 10 11  2  0
 11 12  1  0
 11 13  1  0
 13 14  2  0
  6 15  1  0
 15 16  2  3
 16 17  1  0
 16 18  1  0
 18 19  1  0
 19 20  1  0
 20 21  2  0
 21 22  1  0
 22 23  2  0
 23 24  1  0
 24 25  2  0
  1 26  1  0
 26 27  2  0
 26 28  1  0
 28 29  1  0
 14  8  1  0
 25 20  1  0
  1 30  1  6
  2 31  1  0
  2 32  1  0
  2 33  1  0
  5 34  1  0
  6 35  1  6
  7 36  1  0
  7 37  1  0
  9 38  1  0
 10 39  1  0
 12 40  1  0
 13 41  1  0
 14 42  1  0
 17 43  1  0
 19 44  1  0
 19 45  1  0
 21 46  1  0
 22 47  1  0
 23 48  1  0
 24 49  1  0
 25 50  1  0
 28 51  1  0
 28 52  1  0
M  END
$$$$
