
     RDKit          3D

 52 57  0  0  0  0  0  0  0  0999 V2000
   -3.9658    1.8066   -0.8829 C   0  0  0  0  0  0  0  0  0  0  0  0
   -3.3991    0.4498   -0.6439 C   0  0  0  0  0  0  0  0  0  0  0  0
   -4.1153   -0.6515   -0.4198 N   0  0  0  0  0  0  0  0  0  0  0  0
   -3.3461   -1.7003   -0.2433 N   0  0  0  0  0  0  0  0  0  0  0  0
   -3.7877   -3.0557    0.0217 C   0  0  0  0  0  0  0  0  0  0  0  0
   -5.1758   -3.2270    0.5987 C   0  0  0  0  0  0  0  0  0  0  0  0
   -4.9752   -3.5572   -0.8293 C   0  0  0  0  0  0  0  0  0  0  0  0
   -2.0642   -1.2667   -0.3571 C   0  0  0  0  0  0  0  0  0  0  0  0
   -2.0653    0.0887   -0.6104 C   0  0  0  0  0  0  0  0  0  0  0  0
   -0.6799    0.6071   -0.7427 C   0  0  1  0  0  0  0  0  0  0  0  0
   -0.4065    1.7031    0.2156 C   0  0  0  0  0  0  0  0  0  0  0  0
   -0.5821    1.5627    1.5767 C   0  0  0  0  0  0  0  0  0  0  0  0
   -0.3241    2.5954    2.4722 C   0  0  0  0  0  0  0  0  0  0  0  0
    0.1245    3.8103    1.9969 C   0  0  0  0  0  0  0  0  0  0  0  0
    0.3820    4.8316    2.8575 F   0  0  0  0  0  0  0  0  0  0  0  0
    0.3092    3.9761    0.6290 C   0  0  0  0  0  0  0  0  0  0  0  0
    0.0453    2.9397   -0.2184 C   0  0  0  0  0  0  0  0  0  0  0  0
    0.2230    3.0907   -1.5642 F   0  0  0  0  0  0  0  0  0  0  0  0
    0.1860   -0.5273   -0.5524 N   0  0  0  0  0  0  0  0  0  0  0  0
    1.6086   -0.4942   -0.5945 C   0  0  0  0  0  0  0  0  0  0  0  0
    2.2937   -0.6951   -1.7802 C   0  0  0  0  0  0  0  0  0  0  0  0
    3.6704   -0.6689   -1.8505 C   0  0  0  0  0  0  0  0  0  0  0  0
    4.3947   -0.8860   -3.1286 C   0  0  0  0  0  0  0  0  0  0  0  0
    4.3706   -0.4324   -0.6869 C   0  0  0  0  0  0  0  0  0  0  0  0
    5.6795   -0.3428   -0.4051 N   0  0  0  0  0  0  0  0  0  0  0  0
    5.8096   -0.0979    0.8919 N   0  0  0  0  0  0  0  0  0  0  0  0
    4.5998   -0.0243    1.4732 C   0  0  0  0  0  0  0  0  0  0  0  0
    4.2574    0.2311    2.8996 C   0  0  0  0  0  0  0  0  0  0  0  0
    3.7146   -0.2337    0.4825 N   0  0  0  0  0  0  0  0  0  0  0  0
    2.3539   -0.2615    0.5420 C   0  0  0  0  0  0  0  0  0  0  0  0
   -0.6593   -1.6458   -0.3219 C   0  0  0  0  0  0  0  0  0  0  0  0
   -0.2477   -2.8176   -0.1134 O   0  0  0  0  0  0  0  0  0  0  0  0
   -4.6834    1.9944   -0.0606 H   0  0  0  0  0  0  0  0  0  0  0  0
   -4.5196    1.8740   -1.8380 H   0  0  0  0  0  0  0  0  0  0  0  0
   -3.1667    2.5779   -0.8599 H   0  0  0  0  0  0  0  0  0  0  0  0
   -3.0364   -3.8086    0.3335 H   0  0  0  0  0  0  0  0  0  0  0  0
   -5.3369   -4.1062    1.2679 H   0  0  0  0  0  0  0  0  0  0  0  0
   -5.7457   -2.3180    0.8622 H   0  0  0  0  0  0  0  0  0  0  0  0
   -5.3936   -2.8427   -1.5770 H   0  0  0  0  0  0  0  0  0  0  0  0
   -4.9232   -4.5853   -1.2030 H   0  0  0  0  0  0  0  0  0  0  0  0
   -0.6026    1.0262   -1.7740 H   0  0  0  0  0  0  0  0  0  0  0  0
   -0.9326    0.6204    1.9720 H   0  0  0  0  0  0  0  0  0  0  0  0
   -0.4759    2.4469    3.5531 H   0  0  0  0  0  0  0  0  0  0  0  0
    0.6651    4.9364    0.2386 H   0  0  0  0  0  0  0  0  0  0  0  0
    1.6871   -0.8772   -2.6669 H   0  0  0  0  0  0  0  0  0  0  0  0
    3.8004   -0.5548   -3.9869 H   0  0  0  0  0  0  0  0  0  0  0  0
    4.7275   -1.9402   -3.2163 H   0  0  0  0  0  0  0  0  0  0  0  0
    5.3254   -0.2544   -3.1099 H   0  0  0  0  0  0  0  0  0  0  0  0
    3.5348   -0.5512    3.2755 H   0  0  0  0  0  0  0  0  0  0  0  0
    5.1823    0.1304    3.5262 H   0  0  0  0  0  0  0  0  0  0  0  0
    3.8413    1.2275    3.0712 H   0  0  0  0  0  0  0  0  0  0  0  0
    1.8241   -0.1023    1.4801 H   0  0  0  0  0  0  0  0  0  0  0  0
  1  2  1  0
  2  3  2  0
  3  4  1  0
  4  5  1  0
  5  6  1  0
  6  7  1  0
  4  8  1  0
  8  9  2  0
  9 10  1  0
 10 11  1  0
 11 12  2  0
 12 13  1  0
 13 14  2  0
 14 15  1  0
 14 16  1  0
 16 17  2  0
 17 18  1  0
 10 19  1  0
 19 20  1  0
 20 21  1  0
 21 22  2  0
 22 23  1  0
 22 24  1  0
 24 25  2  0
 25 26  1  0
 26 27  2  0
 27 28  1  0
 27 29  1  0
 29 30  1  0
 19 31  1  0
 31 32  2  0
  9  2  1  0
 17 11  1  0
 30 20  2  0
  7  5  1  0
 31  8  1  0
 29 24  1  0
  1 33  1  0
  1 34  1  0
  1 35  1  0
  5 36  1  0
  6 37  1  0
  6 38  1  0
  7 39  1  0
  7 40  1  0
 10 41  1  6
 12 42  1  0
 13 43  1  0
 16 44  1  0
 21 45  1  0
 23 46  1  0
 23 47  1  0
 23 48  1  0
 28 49  1  0
 28 50  1  0
 28 51  1  0
 30 52  1  0
M  END
$$$$
