
     RDKit          3D

 48 51  0  0  0  0  0  0  0  0999 V2000
   -3.0199    2.2659    1.8637 C   0  0  0  0  0  0  0  0  0  0  0  0
   -3.8918    1.3461    1.1019 C   0  0  0  0  0  0  0  0  0  0  0  0
   -5.3489    1.5339    1.2150 C   0  0  0  0  0  0  0  0  0  0  0  0
   -3.3560    0.4287    0.3548 C   0  0  0  0  0  0  0  0  0  0  0  0
   -4.1049   -0.5362   -0.4403 C   0  0  0  0  0  0  0  0  0  0  0  0
   -3.7239   -0.8508   -1.7407 C   0  0  0  0  0  0  0  0  0  0  0  0
   -4.3842   -1.7623   -2.5286 C   0  0  0  0  0  0  0  0  0  0  0  0
   -5.4531   -2.3923   -2.0387 N   0  0  0  0  0  0  0  0  0  0  0  0
   -5.8539   -2.1187   -0.7883 C   0  0  0  0  0  0  0  0  0  0  0  0
   -5.2137   -1.2105    0.0272 C   0  0  0  0  0  0  0  0  0  0  0  0
   -1.9028    0.3353    0.3104 C   0  0  0  0  0  0  0  0  0  0  0  0
   -1.2606    1.0117   -0.7006 C   0  0  0  0  0  0  0  0  0  0  0  0
    0.1075    0.9739   -0.8243 C   0  0  0  0  0  0  0  0  0  0  0  0
    0.8609    0.2518    0.0712 C   0  0  0  0  0  0  0  0  0  0  0  0
    2.3122    0.2490   -0.1140 C   0  0  0  0  0  0  0  0  0  0  0  0
    3.0135    1.3082   -0.6357 C   0  0  0  0  0  0  0  0  0  0  0  0
    4.3783    1.3229   -0.8155 C   0  0  0  0  0  0  0  0  0  0  0  0
    5.0911    0.1980   -0.4470 C   0  0  0  0  0  0  0  0  0  0  0  0
    6.4609    0.2224   -0.6313 C   0  0  0  0  0  0  0  0  0  0  0  0
    7.2135   -0.8720   -0.2798 C   0  0  0  0  0  0  0  0  0  0  0  0
    8.5721   -0.8391   -0.4665 O   0  0  0  0  0  0  0  0  0  0  0  0
    6.5590   -1.9754    0.2547 C   0  0  0  0  0  0  0  0  0  0  0  0
    5.1918   -1.9890    0.4340 C   0  0  0  0  0  0  0  0  0  0  0  0
    4.4369   -0.8920    0.0815 C   0  0  0  0  0  0  0  0  0  0  0  0
    3.0660   -0.8670    0.2457 C   0  0  0  0  0  0  0  0  0  0  0  0
    0.2456   -0.4438    1.1058 C   0  0  0  0  0  0  0  0  0  0  0  0
   -1.1399   -0.3852    1.2025 C   0  0  0  0  0  0  0  0  0  0  0  0
   -2.9530    1.9605    2.9352 H   0  0  0  0  0  0  0  0  0  0  0  0
   -3.3502    3.3274    1.8097 H   0  0  0  0  0  0  0  0  0  0  0  0
   -1.9854    2.2570    1.4215 H   0  0  0  0  0  0  0  0  0  0  0  0
   -5.9323    1.2058    0.3458 H   0  0  0  0  0  0  0  0  0  0  0  0
   -5.7234    1.0585    2.1593 H   0  0  0  0  0  0  0  0  0  0  0  0
   -5.6037    2.6412    1.3081 H   0  0  0  0  0  0  0  0  0  0  0  0
   -2.8597   -0.3515   -2.1539 H   0  0  0  0  0  0  0  0  0  0  0  0
   -4.0627   -1.9803   -3.5290 H   0  0  0  0  0  0  0  0  0  0  0  0
   -6.7249   -2.6392   -0.4042 H   0  0  0  0  0  0  0  0  0  0  0  0
   -5.5503   -1.0141    1.0409 H   0  0  0  0  0  0  0  0  0  0  0  0
   -1.7886    1.6132   -1.4454 H   0  0  0  0  0  0  0  0  0  0  0  0
    0.5922    1.5108   -1.6228 H   0  0  0  0  0  0  0  0  0  0  0  0
    2.4597    2.1892   -0.9253 H   0  0  0  0  0  0  0  0  0  0  0  0
    4.9106    2.1731   -1.2311 H   0  0  0  0  0  0  0  0  0  0  0  0
    6.9483    1.0994   -1.0526 H   0  0  0  0  0  0  0  0  0  0  0  0
    9.1869   -0.0834   -0.2951 H   0  0  0  0  0  0  0  0  0  0  0  0
    7.1706   -2.8186    0.5215 H   0  0  0  0  0  0  0  0  0  0  0  0
    4.6690   -2.8373    0.8469 H   0  0  0  0  0  0  0  0  0  0  0  0
    2.5339   -1.7015    0.6527 H   0  0  0  0  0  0  0  0  0  0  0  0
    0.8485   -1.0073    1.8034 H   0  0  0  0  0  0  0  0  0  0  0  0
   -1.6413   -0.9169    1.9974 H   0  0  0  0  0  0  0  0  0  0  0  0
  1  2  1  0
  2  3  1  0
  2  4  2  3
  4  5  1  0
  5  6  2  0
  6  7  1  0
  7  8  2  0
  8  9  1  0
  9 10  2  0
  4 11  1  0
 11 12  2  0
 12 13  1  0
 13 14  2  0
 14 15  1  0
 15 16  2  0
 16 17  1  0
 17 18  2  0
 18 19  1  0
 19 20  2  0
 20 21  1  0
 20 22  1  0
 22 23  2  0
 23 24  1  0
 24 25  2  0
 14 26  1  0
 26 27  2  0
 10  5  1  0
 27 11  1  0
 25 15  1  0
 24 18  1  0
  1 28  1  0
  1 29  1  0
  1 30  1  0
  3 31  1  0
  3 32  1  0
  3 33  1  0
  6 34  1  0
  7 35  1  0
  9 36  1  0
 10 37  1  0
 12 38  1  0
 13 39  1  0
 16 40  1  0
 17 41  1  0
 19 42  1  0
 21 43  1  0
 22 44  1  0
 23 45  1  0
 25 46  1  0
 26 47  1  0
 27 48  1  0
M  END
$$$$
