
     RDKit          3D

 29 28  0  0  0  0  0  0  0  0999 V2000
    4.2019    2.1177    0.5503 O   0  0  0  0  0  0  0  0  0  0  0  0
    3.6510    1.1389   -0.2657 C   0  0  0  0  0  0  0  0  0  0  0  0
    3.9819    1.0177   -1.4942 O   0  0  0  0  0  0  0  0  0  0  0  0
    2.6335    0.1888    0.3063 C   0  0  0  0  0  0  0  0  0  0  0  0
    2.1789   -0.7740   -0.7429 C   0  0  0  0  0  0  0  0  0  0  0  0
    1.1467   -1.7436   -0.1769 C   0  0  0  0  0  0  0  0  0  0  0  0
   -0.0651   -0.9914    0.3343 C   0  0  0  0  0  0  0  0  0  0  0  0
   -0.6884   -0.2223   -0.7852 C   0  0  0  0  0  0  0  0  0  0  0  0
   -1.9111    0.5686   -0.3856 C   0  0  0  0  0  0  0  0  0  0  0  0
   -3.0072   -0.3233    0.1596 C   0  0  0  0  0  0  0  0  0  0  0  0
   -4.1999    0.4755    0.5468 C   0  0  0  0  0  0  0  0  0  0  0  0
   -4.2781    1.8561    0.4178 O   0  0  0  0  0  0  0  0  0  0  0  0
   -5.2599   -0.0197    1.0309 O   0  0  0  0  0  0  0  0  0  0  0  0
    5.1839    2.3620    0.3678 H   0  0  0  0  0  0  0  0  0  0  0  0
    3.1646   -0.3945    1.0832 H   0  0  0  0  0  0  0  0  0  0  0  0
    1.8422    0.7666    0.7869 H   0  0  0  0  0  0  0  0  0  0  0  0
    3.0734   -1.4016   -1.0119 H   0  0  0  0  0  0  0  0  0  0  0  0
    1.8321   -0.3218   -1.6832 H   0  0  0  0  0  0  0  0  0  0  0  0
    0.8063   -2.4359   -0.9666 H   0  0  0  0  0  0  0  0  0  0  0  0
    1.6251   -2.3481    0.6076 H   0  0  0  0  0  0  0  0  0  0  0  0
    0.1772   -0.3425    1.1944 H   0  0  0  0  0  0  0  0  0  0  0  0
   -0.7900   -1.7712    0.6794 H   0  0  0  0  0  0  0  0  0  0  0  0
   -0.8982   -0.9001   -1.6327 H   0  0  0  0  0  0  0  0  0  0  0  0
    0.0601    0.5308   -1.1423 H   0  0  0  0  0  0  0  0  0  0  0  0
   -2.2408    1.1261   -1.2807 H   0  0  0  0  0  0  0  0  0  0  0  0
   -1.6125    1.3198    0.3740 H   0  0  0  0  0  0  0  0  0  0  0  0
   -3.3075   -0.9845   -0.7040 H   0  0  0  0  0  0  0  0  0  0  0  0
   -2.6474   -0.9769    0.9630 H   0  0  0  0  0  0  0  0  0  0  0  0
   -4.6527    2.4829    1.1280 H   0  0  0  0  0  0  0  0  0  0  0  0
  1  2  1  0
  2  3  2  0
  2  4  1  0
  4  5  1  0
  5  6  1  0
  6  7  1  0
  7  8  1  0
  8  9  1  0
  9 10  1  0
 10 11  1  0
 11 12  1  0
 11 13  2  0
  1 14  1  0
  4 15  1  0
  4 16  1  0
  5 17  1  0
  5 18  1  0
  6 19  1  0
  6 20  1  0
  7 21  1  0
  7 22  1  0
  8 23  1  0
  8 24  1  0
  9 25  1  0
  9 26  1  0
 10 27  1  0
 10 28  1  0
 12 29  1  0
M  END
$$$$
