
     RDKit          3D

 54 58  0  0  0  0  0  0  0  0999 V2000
    7.2721    2.7082   -1.0230 C   0  0  0  0  0  0  0  0  0  0  0  0
    6.0466    2.0151   -1.1102 O   0  0  0  0  0  0  0  0  0  0  0  0
    5.6403    1.0590   -0.2060 C   0  0  0  0  0  0  0  0  0  0  0  0
    6.4430    0.8168    0.7454 O   0  0  0  0  0  0  0  0  0  0  0  0
    4.3803    0.3567   -0.3089 N   0  0  0  0  0  0  0  0  0  0  0  0
    4.1734   -0.6009    0.7561 C   0  0  0  0  0  0  0  0  0  0  0  0
    3.0474   -0.0195    1.5745 C   0  0  0  0  0  0  0  0  0  0  0  0
    3.3085    0.1030    2.9049 C   0  0  0  0  0  0  0  0  0  0  0  0
    2.3537    0.6847    3.7493 C   0  0  0  0  0  0  0  0  0  0  0  0
    2.6719    0.8474    5.4596 Cl  0  0  0  0  0  0  0  0  0  0  0  0
    1.1530    1.1264    3.1924 C   0  0  0  0  0  0  0  0  0  0  0  0
    0.8654    1.0137    1.8447 C   0  0  0  0  0  0  0  0  0  0  0  0
    1.8218    0.4397    1.0759 C   0  0  0  0  0  0  0  0  0  0  0  0
    1.3910    0.3306   -0.2753 N   0  0  0  0  0  0  0  0  0  0  0  0
    2.1774    0.4952   -1.3956 C   0  0  0  0  0  0  0  0  0  0  0  0
    1.3316    0.3027   -2.4036 N   0  0  0  0  0  0  0  0  0  0  0  0
    0.1430    0.0427   -1.9568 N   0  0  0  0  0  0  0  0  0  0  0  0
    0.1309    0.0469   -0.5888 C   0  0  0  0  0  0  0  0  0  0  0  0
   -1.0138   -0.2821    0.2016 C   0  0  0  0  0  0  0  0  0  0  0  0
   -2.1511    0.6499   -0.1962 C   0  0  0  0  0  0  0  0  0  0  0  0
   -2.8796    0.1144   -1.4086 C   0  0  0  0  0  0  0  0  0  0  0  0
   -3.7048   -0.9466   -0.8708 N   0  0  0  0  0  0  0  0  0  0  0  0
   -5.0404   -1.0641   -1.2830 C   0  0  0  0  0  0  0  0  0  0  0  0
   -5.8254   -2.0838   -0.7664 C   0  0  0  0  0  0  0  0  0  0  0  0
   -7.1454   -2.2548   -1.1299 C   0  0  0  0  0  0  0  0  0  0  0  0
   -7.6890   -1.3734   -2.0393 C   0  0  0  0  0  0  0  0  0  0  0  0
   -6.8929   -0.3597   -2.5469 C   0  0  0  0  0  0  0  0  0  0  0  0
   -5.6092   -0.2271   -2.1665 N   0  0  0  0  0  0  0  0  0  0  0  0
   -3.0147   -1.7974    0.0730 C   0  0  0  0  0  0  0  0  0  0  0  0
   -1.5431   -1.7094   -0.2013 C   0  0  0  0  0  0  0  0  0  0  0  0
    3.6318    0.7797   -1.4489 C   0  0  0  0  0  0  0  0  0  0  0  0
    7.9775    2.3663   -1.8017 H   0  0  0  0  0  0  0  0  0  0  0  0
    7.0248    3.7892   -1.2353 H   0  0  0  0  0  0  0  0  0  0  0  0
    7.6939    2.6424    0.0077 H   0  0  0  0  0  0  0  0  0  0  0  0
    5.0787   -0.7012    1.3839 H   0  0  0  0  0  0  0  0  0  0  0  0
    3.8718   -1.5600    0.2927 H   0  0  0  0  0  0  0  0  0  0  0  0
    4.2424   -0.2454    3.3024 H   0  0  0  0  0  0  0  0  0  0  0  0
    0.4301    1.5761    3.8781 H   0  0  0  0  0  0  0  0  0  0  0  0
   -0.0170    1.4220    1.4576 H   0  0  0  0  0  0  0  0  0  0  0  0
   -1.0756   -0.3477    1.2495 H   0  0  0  0  0  0  0  0  0  0  0  0
   -2.8924    0.8023    0.6055 H   0  0  0  0  0  0  0  0  0  0  0  0
   -1.7330    1.6518   -0.4667 H   0  0  0  0  0  0  0  0  0  0  0  0
   -3.4819    0.9511   -1.8152 H   0  0  0  0  0  0  0  0  0  0  0  0
   -2.2053   -0.2380   -2.2047 H   0  0  0  0  0  0  0  0  0  0  0  0
   -5.3683   -2.7532   -0.0589 H   0  0  0  0  0  0  0  0  0  0  0  0
   -7.7407   -3.0571   -0.7149 H   0  0  0  0  0  0  0  0  0  0  0  0
   -8.7305   -1.4556   -2.3682 H   0  0  0  0  0  0  0  0  0  0  0  0
   -7.3576    0.3142   -3.2608 H   0  0  0  0  0  0  0  0  0  0  0  0
   -3.2788   -1.5146    1.1126 H   0  0  0  0  0  0  0  0  0  0  0  0
   -3.3079   -2.8357   -0.1375 H   0  0  0  0  0  0  0  0  0  0  0  0
   -1.3562   -1.8792   -1.2523 H   0  0  0  0  0  0  0  0  0  0  0  0
   -1.0277   -2.4789    0.3927 H   0  0  0  0  0  0  0  0  0  0  0  0
    4.0748    0.4231   -2.4093 H   0  0  0  0  0  0  0  0  0  0  0  0
    3.7055    1.9143   -1.4420 H   0  0  0  0  0  0  0  0  0  0  0  0
  1  2  1  0
  2  3  1  0
  3  4  2  0
  3  5  1  0
  5  6  1  0
  6  7  1  0
  7  8  2  0
  8  9  1  0
  9 10  1  0
  9 11  2  0
 11 12  1  0
 12 13  2  0
 13 14  1  0
 14 15  1  0
 15 16  2  0
 16 17  1  0
 17 18  2  0
 18 19  1  0
 19 20  1  0
 20 21  1  0
 21 22  1  0
 22 23  1  0
 23 24  2  0
 24 25  1  0
 25 26  2  0
 26 27  1  0
 27 28  2  0
 22 29  1  0
 29 30  1  0
 15 31  1  0
 31  5  1  0
 13  7  1  0
 18 14  1  0
 30 19  1  0
 28 23  1  0
  1 32  1  0
  1 33  1  0
  1 34  1  0
  6 35  1  0
  6 36  1  0
  8 37  1  0
 11 38  1  0
 12 39  1  0
 19 40  1  0
 20 41  1  0
 20 42  1  0
 21 43  1  0
 21 44  1  0
 24 45  1  0
 25 46  1  0
 26 47  1  0
 27 48  1  0
 29 49  1  0
 29 50  1  0
 30 51  1  0
 30 52  1  0
 31 53  1  0
 31 54  1  0
M  END
$$$$
