
     RDKit          3D

 56 60  0  0  0  0  0  0  0  0999 V2000
    5.0193    1.6671   -1.4242 O   0  0  0  0  0  0  0  0  0  0  0  0
    5.0068    0.4679   -0.5304 S   0  0  0  0  0  6  0  0  0  0  0  0
    6.3301   -0.2289   -0.5347 O   0  0  0  0  0  0  0  0  0  0  0  0
    4.4668    0.8698    1.1198 C   0  0  0  0  0  0  0  0  0  0  0  0
    3.2489   -0.0120    1.3745 C   0  0  0  0  0  0  0  0  0  0  0  0
    2.1205    0.3191    0.3993 C   0  0  0  0  0  0  0  0  0  0  0  0
    1.9588    1.8354    0.4823 C   0  0  0  0  0  0  0  0  0  0  0  0
    0.5547    2.2951    0.2515 C   0  0  0  0  0  0  0  0  0  0  0  0
   -0.3221    1.2935   -0.4610 C   0  0  0  0  0  0  0  0  0  0  0  0
   -0.4053    0.0386    0.3534 C   0  0  1  0  0  0  0  0  0  0  0  0
   -1.6831    0.3178    1.5985 S   0  0  0  0  0  6  0  0  0  0  0  0
   -1.8699   -0.9538    2.4088 O   0  0  0  0  0  0  0  0  0  0  0  0
   -1.2881    1.3662    2.5800 O   0  0  0  0  0  0  0  0  0  0  0  0
   -3.2241    0.6726    0.8843 C   0  0  0  0  0  0  0  0  0  0  0  0
   -3.5821    1.9787    0.6322 C   0  0  0  0  0  0  0  0  0  0  0  0
   -4.7917    2.3416    0.0642 C   0  0  0  0  0  0  0  0  0  0  0  0
   -5.6745    1.3345   -0.2611 C   0  0  0  0  0  0  0  0  0  0  0  0
   -7.2416    1.6875   -0.9888 Cl  0  0  0  0  0  0  0  0  0  0  0  0
   -5.3311    0.0215   -0.0150 C   0  0  0  0  0  0  0  0  0  0  0  0
   -4.1243   -0.3055    0.5492 C   0  0  0  0  0  0  0  0  0  0  0  0
   -0.9094   -1.1162   -0.4309 C   0  0  0  0  0  0  0  0  0  0  0  0
   -1.6291   -1.0008   -1.6042 C   0  0  0  0  0  0  0  0  0  0  0  0
   -1.8983    0.2016   -2.1027 F   0  0  0  0  0  0  0  0  0  0  0  0
   -2.0980   -2.1022   -2.2886 C   0  0  0  0  0  0  0  0  0  0  0  0
   -1.8631   -3.3760   -1.8209 C   0  0  0  0  0  0  0  0  0  0  0  0
   -1.1504   -3.5155   -0.6573 C   0  0  0  0  0  0  0  0  0  0  0  0
   -0.9174   -4.7600   -0.1888 F   0  0  0  0  0  0  0  0  0  0  0  0
   -0.6825   -2.3902    0.0229 C   0  0  0  0  0  0  0  0  0  0  0  0
    0.0374   -2.5409    1.1986 O   0  0  0  0  0  0  0  0  0  0  0  0
    1.1367   -1.6711    1.4085 C   0  0  0  0  0  0  0  0  0  0  0  0
    0.8743   -0.2562    1.0390 C   0  0  1  0  0  0  0  0  0  0  0  0
    2.3946   -0.1467   -0.9822 C   0  0  0  0  0  0  0  0  0  0  0  0
    3.8064   -0.7208   -1.1437 C   0  0  0  0  0  0  0  0  0  0  0  0
    4.2711    1.9252    1.2728 H   0  0  0  0  0  0  0  0  0  0  0  0
    5.2565    0.4735    1.8111 H   0  0  0  0  0  0  0  0  0  0  0  0
    2.9069    0.1559    2.4010 H   0  0  0  0  0  0  0  0  0  0  0  0
    3.5943   -1.0372    1.1974 H   0  0  0  0  0  0  0  0  0  0  0  0
    2.6213    2.3333   -0.2548 H   0  0  0  0  0  0  0  0  0  0  0  0
    2.2826    2.1889    1.5023 H   0  0  0  0  0  0  0  0  0  0  0  0
    0.5340    3.2577   -0.3412 H   0  0  0  0  0  0  0  0  0  0  0  0
    0.0948    2.5366    1.2279 H   0  0  0  0  0  0  0  0  0  0  0  0
   -1.3104    1.7935   -0.5781 H   0  0  0  0  0  0  0  0  0  0  0  0
    0.0522    1.1112   -1.4944 H   0  0  0  0  0  0  0  0  0  0  0  0
   -2.9211    2.8096    0.8717 H   0  0  0  0  0  0  0  0  0  0  0  0
   -5.0440    3.3919   -0.1227 H   0  0  0  0  0  0  0  0  0  0  0  0
   -6.0646   -0.7633   -0.2889 H   0  0  0  0  0  0  0  0  0  0  0  0
   -3.9016   -1.3509    0.7224 H   0  0  0  0  0  0  0  0  0  0  0  0
   -2.6602   -2.0027   -3.2063 H   0  0  0  0  0  0  0  0  0  0  0  0
   -2.2391   -4.2585   -2.3696 H   0  0  0  0  0  0  0  0  0  0  0  0
    1.4536   -1.7920    2.4528 H   0  0  0  0  0  0  0  0  0  0  0  0
    1.9609   -2.0650    0.7802 H   0  0  0  0  0  0  0  0  0  0  0  0
    0.8252    0.3032    2.0345 H   0  0  0  0  0  0  0  0  0  0  0  0
    2.4164    0.7717   -1.6432 H   0  0  0  0  0  0  0  0  0  0  0  0
    1.7039   -0.9036   -1.3722 H   0  0  0  0  0  0  0  0  0  0  0  0
    3.9232   -1.7026   -0.7001 H   0  0  0  0  0  0  0  0  0  0  0  0
    3.9747   -0.7882   -2.2338 H   0  0  0  0  0  0  0  0  0  0  0  0
  1  2  2  0
  2  3  2  0
  2  4  1  0
  4  5  1  0
  5  6  1  0
  6  7  1  0
  7  8  1  0
  8  9  1  0
  9 10  1  0
 10 11  1  1
 11 12  2  0
 11 13  2  0
 11 14  1  0
 14 15  2  0
 15 16  1  0
 16 17  2  0
 17 18  1  0
 17 19  1  0
 19 20  2  0
 10 21  1  0
 21 22  2  0
 22 23  1  0
 22 24  1  0
 24 25  2  0
 25 26  1  0
 26 27  1  0
 26 28  2  0
 28 29  1  0
 29 30  1  0
 30 31  1  0
  6 32  1  0
 32 33  1  0
 33  2  1  0
 31  6  1  0
 31 10  1  0
 20 14  1  0
 28 21  1  0
  4 34  1  0
  4 35  1  0
  5 36  1  0
  5 37  1  0
  7 38  1  0
  7 39  1  0
  8 40  1  0
  8 41  1  0
  9 42  1  0
  9 43  1  0
 15 44  1  0
 16 45  1  0
 19 46  1  0
 20 47  1  0
 24 48  1  0
 25 49  1  0
 30 50  1  0
 30 51  1  0
 31 52  1  1
 32 53  1  0
 32 54  1  0
 33 55  1  0
 33 56  1  0
M  END
$$$$
