
     RDKit          3D

 63 68  0  0  0  0  0  0  0  0999 V2000
   -4.7664    0.0464   -2.8138 C   0  0  0  0  0  0  0  0  0  0  0  0
   -4.9786   -1.1667   -1.9871 C   0  0  0  0  0  0  0  0  0  0  0  0
   -6.1487   -1.7875   -1.8706 O   0  0  0  0  0  0  0  0  0  0  0  0
   -6.0280   -2.8346   -1.0700 C   0  0  0  0  0  0  0  0  0  0  0  0
   -4.7071   -2.8796   -0.6563 C   0  0  0  0  0  0  0  0  0  0  0  0
   -4.0342   -1.8234   -1.2343 C   0  0  0  0  0  0  0  0  0  0  0  0
   -2.6373   -1.4485   -1.0995 C   0  0  0  0  0  0  0  0  0  0  0  0
   -1.6745   -1.9585   -1.9142 N   0  0  0  0  0  0  0  0  0  0  0  0
   -0.3766   -1.6250   -1.8157 C   0  0  0  0  0  0  0  0  0  0  0  0
    0.6221   -2.1661   -2.6743 N   0  0  0  0  0  0  0  0  0  0  0  0
    0.0359   -0.7293   -0.8586 C   0  0  0  0  0  0  0  0  0  0  0  0
    1.3521   -0.3420   -0.6976 O   0  0  0  0  0  0  0  0  0  0  0  0
    1.7202    0.5847    0.3030 C   0  0  0  0  0  0  0  0  0  0  0  0
    3.2712    0.7955    0.2458 C   0  0  1  0  0  0  0  0  0  0  0  0
    3.5197    1.7487    1.3000 N   0  0  0  0  0  0  0  0  0  0  0  0
    3.9321   -0.4958    0.5747 C   0  0  0  0  0  0  0  0  0  0  0  0
    5.3771   -0.5810    0.6075 C   0  0  0  0  0  0  0  0  0  0  0  0
    6.0023   -1.7441    1.1205 C   0  0  0  0  0  0  0  0  0  0  0  0
    7.3148   -1.5646    1.0472 N   0  0  0  0  0  0  0  0  0  0  0  0
    7.5640   -0.3513    0.5157 C   0  0  0  0  0  0  0  0  0  0  0  0
    8.7366    0.3160    0.2271 C   0  0  0  0  0  0  0  0  0  0  0  0
    8.7314    1.5757   -0.3272 C   0  0  0  0  0  0  0  0  0  0  0  0
    7.5490    2.2138   -0.6129 C   0  0  0  0  0  0  0  0  0  0  0  0
    6.3744    1.5632   -0.3315 C   0  0  0  0  0  0  0  0  0  0  0  0
    6.3544    0.3009    0.2240 C   0  0  0  0  0  0  0  0  0  0  0  0
   -0.9138   -0.1967   -0.0206 C   0  0  0  0  0  0  0  0  0  0  0  0
   -2.2588   -0.5462   -0.1270 C   0  0  0  0  0  0  0  0  0  0  0  0
   -3.2603    0.0054    0.7773 C   0  0  0  0  0  0  0  0  0  0  0  0
   -3.0606   -0.1634    2.1509 C   0  0  0  0  0  0  0  0  0  0  0  0
   -3.9292    0.3025    3.0554 N   0  0  0  0  0  0  0  0  0  0  0  0
   -5.0466    0.9617    2.6725 C   0  0  0  0  0  0  0  0  0  0  0  0
   -6.0777    1.5301    3.2916 N   0  0  0  0  0  0  0  0  0  0  0  0
   -6.9019    2.0389    2.3915 N   0  0  0  0  0  0  0  0  0  0  0  0
   -6.4276    1.8149    1.1535 C   0  0  0  0  0  0  0  0  0  0  0  0
   -7.0417    2.2158   -0.1556 C   0  0  0  0  0  0  0  0  0  0  0  0
   -5.2425    1.1276    1.3218 C   0  0  0  0  0  0  0  0  0  0  0  0
   -4.3644    0.6573    0.3933 N   0  0  0  0  0  0  0  0  0  0  0  0
   -5.6598    0.7032   -2.6435 H   0  0  0  0  0  0  0  0  0  0  0  0
   -3.8240    0.5550   -2.5373 H   0  0  0  0  0  0  0  0  0  0  0  0
   -4.7070   -0.1944   -3.8905 H   0  0  0  0  0  0  0  0  0  0  0  0
   -6.8565   -3.4870   -0.8317 H   0  0  0  0  0  0  0  0  0  0  0  0
   -4.3225   -3.6318    0.0050 H   0  0  0  0  0  0  0  0  0  0  0  0
    1.4318   -1.5939   -3.0082 H   0  0  0  0  0  0  0  0  0  0  0  0
    0.5451   -3.1581   -2.9774 H   0  0  0  0  0  0  0  0  0  0  0  0
    1.2382    1.5581    0.0921 H   0  0  0  0  0  0  0  0  0  0  0  0
    1.4486    0.2697    1.3103 H   0  0  0  0  0  0  0  0  0  0  0  0
    3.4514    1.1397   -0.7695 H   0  0  0  0  0  0  0  0  0  0  0  0
    2.8745    2.5649    1.2927 H   0  0  0  0  0  0  0  0  0  0  0  0
    3.6198    1.3248    2.2246 H   0  0  0  0  0  0  0  0  0  0  0  0
    3.4733   -0.9604    1.5100 H   0  0  0  0  0  0  0  0  0  0  0  0
    3.5795   -1.2322   -0.2234 H   0  0  0  0  0  0  0  0  0  0  0  0
    5.5113   -2.6234    1.5045 H   0  0  0  0  0  0  0  0  0  0  0  0
    8.0779   -2.2101    1.3341 H   0  0  0  0  0  0  0  0  0  0  0  0
    9.7009   -0.1454    0.4333 H   0  0  0  0  0  0  0  0  0  0  0  0
    9.6566    2.0878   -0.5488 H   0  0  0  0  0  0  0  0  0  0  0  0
    7.4945    3.2007   -1.0475 H   0  0  0  0  0  0  0  0  0  0  0  0
    5.4495    2.0555   -0.5548 H   0  0  0  0  0  0  0  0  0  0  0  0
   -0.6643    0.5263    0.7695 H   0  0  0  0  0  0  0  0  0  0  0  0
   -2.1713   -0.6879    2.4674 H   0  0  0  0  0  0  0  0  0  0  0  0
   -6.1943    1.5557    4.3477 H   0  0  0  0  0  0  0  0  0  0  0  0
   -7.8310    2.9565    0.0906 H   0  0  0  0  0  0  0  0  0  0  0  0
   -7.5765    1.3480   -0.6127 H   0  0  0  0  0  0  0  0  0  0  0  0
   -6.3269    2.6837   -0.8430 H   0  0  0  0  0  0  0  0  0  0  0  0
  1  2  1  0
  2  3  1  0
  3  4  1  0
  4  5  2  0
  5  6  1  0
  6  7  1  0
  7  8  2  0
  8  9  1  0
  9 10  1  0
  9 11  2  0
 11 12  1  0
 12 13  1  0
 13 14  1  0
 14 15  1  0
 14 16  1  0
 16 17  1  0
 17 18  2  0
 18 19  1  0
 19 20  1  0
 20 21  2  0
 21 22  1  0
 22 23  2  0
 23 24  1  0
 24 25  2  0
 11 26  1  0
 26 27  2  0
 27 28  1  0
 28 29  2  0
 29 30  1  0
 30 31  2  0
 31 32  1  0
 32 33  1  0
 33 34  2  0
 34 35  1  0
 34 36  1  0
 36 37  2  0
  6  2  2  0
 27  7  1  0
 37 28  1  0
 25 17  1  0
 36 31  1  0
 25 20  1  0
  1 38  1  0
  1 39  1  0
  1 40  1  0
  4 41  1  0
  5 42  1  0
 10 43  1  0
 10 44  1  0
 13 45  1  0
 13 46  1  0
 14 47  1  6
 15 48  1  0
 15 49  1  0
 16 50  1  0
 16 51  1  0
 18 52  1  0
 19 53  1  0
 21 54  1  0
 22 55  1  0
 23 56  1  0
 24 57  1  0
 26 58  1  0
 29 59  1  0
 32 60  1  0
 35 61  1  0
 35 62  1  0
 35 63  1  0
M  END
$$$$
