
     RDKit          3D

 49 52  0  0  0  0  0  0  0  0999 V2000
   -4.3947    2.9041    0.1794 C   0  0  0  0  0  0  0  0  0  0  0  0
   -4.0486    1.5507    0.7575 C   0  0  0  0  0  0  0  0  0  0  0  0
   -5.2946    0.6954    0.7198 C   0  0  0  0  0  0  0  0  0  0  0  0
   -2.9661    0.9273   -0.0083 N   0  0  0  0  0  0  0  0  0  0  0  0
   -2.0568    0.0821    0.5195 C   0  0  0  0  0  0  0  0  0  0  0  0
   -1.2148   -0.2877   -0.5059 C   0  0  0  0  0  0  0  0  0  0  0  0
   -0.0368   -1.1960   -0.5005 C   0  0  0  0  0  0  0  0  0  0  0  0
    1.1933   -0.4518   -0.8843 C   0  0  0  0  0  0  0  0  0  0  0  0
    1.6659   -0.5967   -2.1695 C   0  0  0  0  0  0  0  0  0  0  0  0
    2.8075    0.0586   -2.6133 C   0  0  0  0  0  0  0  0  0  0  0  0
    3.4590    0.8712   -1.7059 C   0  0  0  0  0  0  0  0  0  0  0  0
    4.5810    1.5332   -2.0929 F   0  0  0  0  0  0  0  0  0  0  0  0
    3.0274    1.0512   -0.4063 C   0  0  0  0  0  0  0  0  0  0  0  0
    3.7449    1.9185    0.5168 C   0  0  0  0  0  0  0  0  0  0  0  0
    3.9936    1.5232    1.8109 C   0  0  0  0  0  0  0  0  0  0  0  0
    4.6652    2.3305    2.6826 N   0  0  0  0  0  0  0  0  0  0  0  0
    5.1029    3.5405    2.2931 C   0  0  0  0  0  0  0  0  0  0  0  0
    4.8574    3.9216    1.0290 N   0  0  0  0  0  0  0  0  0  0  0  0
    4.2000    3.1613    0.1337 C   0  0  0  0  0  0  0  0  0  0  0  0
    1.8727    0.3685   -0.0101 C   0  0  0  0  0  0  0  0  0  0  0  0
   -0.3290   -2.2482   -1.4339 N   0  0  0  0  0  0  0  0  0  0  0  0
   -0.3603   -3.4095   -0.9066 C   0  0  0  0  0  0  0  0  0  0  0  0
   -0.6277   -4.6575   -1.5920 N   0  0  0  0  0  0  0  0  0  0  0  0
   -0.0904   -3.2725    0.4785 N   0  0  0  0  0  0  0  0  0  0  0  0
   -0.0322   -4.3780    1.4488 C   0  0  0  0  0  0  0  0  0  0  0  0
    0.1153   -1.9014    0.7779 C   0  0  0  0  0  0  0  0  0  0  0  0
    0.3707   -1.4883    1.9416 O   0  0  0  0  0  0  0  0  0  0  0  0
   -1.6664    0.3654   -1.6233 C   0  0  0  0  0  0  0  0  0  0  0  0
   -2.7152    1.0834   -1.2895 N   0  0  0  0  0  0  0  0  0  0  0  0
   -5.3535    3.2438    0.6164 H   0  0  0  0  0  0  0  0  0  0  0  0
   -3.5729    3.6503    0.3536 H   0  0  0  0  0  0  0  0  0  0  0  0
   -4.5768    2.7755   -0.8995 H   0  0  0  0  0  0  0  0  0  0  0  0
   -3.7304    1.7303    1.8197 H   0  0  0  0  0  0  0  0  0  0  0  0
   -5.8039    0.6614    1.7175 H   0  0  0  0  0  0  0  0  0  0  0  0
   -6.0579    1.0808    0.0152 H   0  0  0  0  0  0  0  0  0  0  0  0
   -5.0759   -0.3576    0.3998 H   0  0  0  0  0  0  0  0  0  0  0  0
   -1.9420   -0.2822    1.5310 H   0  0  0  0  0  0  0  0  0  0  0  0
    1.1485   -1.2343   -2.8711 H   0  0  0  0  0  0  0  0  0  0  0  0
    3.1501   -0.0817   -3.6395 H   0  0  0  0  0  0  0  0  0  0  0  0
    3.6370    0.5509    2.1095 H   0  0  0  0  0  0  0  0  0  0  0  0
    5.6445    4.1968    2.9893 H   0  0  0  0  0  0  0  0  0  0  0  0
    4.0091    3.4871   -0.8904 H   0  0  0  0  0  0  0  0  0  0  0  0
    1.4975    0.4817    1.0043 H   0  0  0  0  0  0  0  0  0  0  0  0
   -1.5924   -5.0155   -1.7269 H   0  0  0  0  0  0  0  0  0  0  0  0
    0.1600   -5.2188   -1.9624 H   0  0  0  0  0  0  0  0  0  0  0  0
    1.0099   -4.7382    1.5350 H   0  0  0  0  0  0  0  0  0  0  0  0
   -0.6729   -5.2233    1.1082 H   0  0  0  0  0  0  0  0  0  0  0  0
   -0.4558   -4.0175    2.4050 H   0  0  0  0  0  0  0  0  0  0  0  0
   -1.2452    0.3113   -2.6181 H   0  0  0  0  0  0  0  0  0  0  0  0
  1  2  1  0
  2  3  1  0
  2  4  1  0
  4  5  1  0
  5  6  2  0
  6  7  1  0
  7  8  1  0
  8  9  2  0
  9 10  1  0
 10 11  2  0
 11 12  1  0
 11 13  1  0
 13 14  1  0
 14 15  2  0
 15 16  1  0
 16 17  2  0
 17 18  1  0
 18 19  2  0
 13 20  2  0
  7 21  1  0
 21 22  2  0
 22 23  1  0
 22 24  1  0
 24 25  1  0
 24 26  1  0
 26 27  2  0
  6 28  1  0
 28 29  2  0
 29  4  1  0
 26  7  1  0
 20  8  1  0
 19 14  1  0
  1 30  1  0
  1 31  1  0
  1 32  1  0
  2 33  1  0
  3 34  1  0
  3 35  1  0
  3 36  1  0
  5 37  1  0
  9 38  1  0
 10 39  1  0
 15 40  1  0
 17 41  1  0
 19 42  1  0
 20 43  1  0
 23 44  1  0
 23 45  1  0
 25 46  1  0
 25 47  1  0
 25 48  1  0
 28 49  1  0
M  END
$$$$
