
     RDKit          3D

 69 73  0  0  0  0  0  0  0  0999 V2000
   -4.7480   -3.1885   -0.6413 C   0  0  0  0  0  0  0  0  0  0  0  0
   -3.2934   -3.1703   -0.8418 C   0  0  0  0  0  0  0  0  0  0  0  0
   -2.4388   -2.2231   -0.3315 C   0  0  0  0  0  0  0  0  0  0  0  0
   -2.6116   -1.0808    0.4598 C   0  0  0  0  0  0  0  0  0  0  0  0
   -3.8827   -0.7902    0.8408 O   0  0  0  0  0  0  0  0  0  0  0  0
   -4.3438    0.2753    1.6242 C   0  0  2  0  0  0  0  0  0  0  0  0
   -5.0038   -0.1751    2.9000 C   0  0  0  0  0  0  0  0  0  0  0  0
   -5.2397    1.1227    0.7689 C   0  0  1  0  0  0  0  0  0  0  0  0
   -5.8078    2.3140    1.4949 C   0  0  0  0  0  0  0  0  0  0  0  0
   -6.3415    3.0929    0.3747 N   0  0  0  0  0  0  0  0  0  0  0  0
   -5.4161    2.9041   -0.6856 C   0  0  0  0  0  0  0  0  0  0  0  0
   -5.3775    3.5760   -1.7407 O   0  0  0  0  0  0  0  0  0  0  0  0
   -4.4904    1.7876   -0.3669 C   0  0  0  0  0  0  0  0  0  0  0  0
   -1.4741   -0.3719    0.7686 C   0  0  0  0  0  0  0  0  0  0  0  0
   -0.2044   -0.7085    0.3571 C   0  0  0  0  0  0  0  0  0  0  0  0
    0.9668    0.1054    0.7302 C   0  0  0  0  0  0  0  0  0  0  0  0
    1.1975    0.8446    1.8690 C   0  0  0  0  0  0  0  0  0  0  0  0
    2.4105    1.4213    1.7653 N   0  0  0  0  0  0  0  0  0  0  0  0
    2.9560    1.0798    0.6130 N   0  0  0  0  0  0  0  0  0  0  0  0
    4.2640    1.5422    0.2083 C   0  0  0  0  0  0  0  0  0  0  0  0
    4.4769    1.4721   -1.2906 C   0  0  0  0  0  0  0  0  0  0  0  0
    6.0013    1.3913   -1.3398 C   0  0  0  0  0  0  0  0  0  0  0  0
    6.4700    0.6076   -2.5423 C   0  0  0  0  0  0  0  0  0  0  0  0
    6.5012    2.8152   -1.4550 C   0  0  0  0  0  0  0  0  0  0  0  0
    6.4305    0.8722   -0.1541 O   0  0  0  0  0  0  0  0  0  0  0  0
    5.3714    0.5994    0.6641 C   0  0  0  0  0  0  0  0  0  0  0  0
    5.6442    0.8804    2.1205 C   0  0  0  0  0  0  0  0  0  0  0  0
    4.9768   -0.8452    0.4889 C   0  0  0  0  0  0  0  0  0  0  0  0
    2.0955    0.2749   -0.0419 C   0  0  0  0  0  0  0  0  0  0  0  0
   -0.0682   -1.8402   -0.4218 C   0  0  0  0  0  0  0  0  0  0  0  0
   -1.1794   -2.5951   -0.7654 C   0  0  0  0  0  0  0  0  0  0  0  0
   -1.3178   -3.7224   -1.5013 N   0  0  0  0  0  0  0  0  0  0  0  0
   -2.5955   -4.0842   -1.5568 N   0  0  0  0  0  0  0  0  0  0  0  0
   -3.1732   -5.2315   -2.2415 C   0  0  0  0  0  0  0  0  0  0  0  0
   -5.0030   -2.8083    0.3805 H   0  0  0  0  0  0  0  0  0  0  0  0
   -5.1867   -4.2202   -0.6921 H   0  0  0  0  0  0  0  0  0  0  0  0
   -5.2627   -2.5416   -1.3966 H   0  0  0  0  0  0  0  0  0  0  0  0
   -3.4722    0.8922    1.9150 H   0  0  0  0  0  0  0  0  0  0  0  0
   -4.9311    0.5926    3.6978 H   0  0  0  0  0  0  0  0  0  0  0  0
   -6.0831   -0.3933    2.7680 H   0  0  0  0  0  0  0  0  0  0  0  0
   -4.5488   -1.1190    3.2704 H   0  0  0  0  0  0  0  0  0  0  0  0
   -6.0782    0.5652    0.3324 H   0  0  0  0  0  0  0  0  0  0  0  0
   -5.0133    2.9585    1.9418 H   0  0  0  0  0  0  0  0  0  0  0  0
   -6.6148    2.0624    2.1979 H   0  0  0  0  0  0  0  0  0  0  0  0
   -7.2252    3.6718    0.3571 H   0  0  0  0  0  0  0  0  0  0  0  0
   -3.5262    2.2084    0.0410 H   0  0  0  0  0  0  0  0  0  0  0  0
   -4.3142    1.1102   -1.2134 H   0  0  0  0  0  0  0  0  0  0  0  0
   -1.5684    0.5144    1.3767 H   0  0  0  0  0  0  0  0  0  0  0  0
    0.4958    0.9236    2.6882 H   0  0  0  0  0  0  0  0  0  0  0  0
    4.5022    2.5421    0.5710 H   0  0  0  0  0  0  0  0  0  0  0  0
    4.0973    2.3627   -1.8115 H   0  0  0  0  0  0  0  0  0  0  0  0
    4.0941    0.5364   -1.7119 H   0  0  0  0  0  0  0  0  0  0  0  0
    5.8691    0.8660   -3.4379 H   0  0  0  0  0  0  0  0  0  0  0  0
    7.5347    0.8859   -2.7228 H   0  0  0  0  0  0  0  0  0  0  0  0
    6.4443   -0.4760   -2.4083 H   0  0  0  0  0  0  0  0  0  0  0  0
    7.1957    2.9356   -2.2962 H   0  0  0  0  0  0  0  0  0  0  0  0
    7.0490    3.1357   -0.5219 H   0  0  0  0  0  0  0  0  0  0  0  0
    5.6800    3.5527   -1.5660 H   0  0  0  0  0  0  0  0  0  0  0  0
    5.6318    1.9813    2.2901 H   0  0  0  0  0  0  0  0  0  0  0  0
    6.5942    0.4083    2.4625 H   0  0  0  0  0  0  0  0  0  0  0  0
    4.7967    0.4652    2.7039 H   0  0  0  0  0  0  0  0  0  0  0  0
    4.9621   -1.1171   -0.5828 H   0  0  0  0  0  0  0  0  0  0  0  0
    4.0356   -1.1032    1.0100 H   0  0  0  0  0  0  0  0  0  0  0  0
    5.7711   -1.4555    0.9637 H   0  0  0  0  0  0  0  0  0  0  0  0
    2.3061   -0.1427   -1.0127 H   0  0  0  0  0  0  0  0  0  0  0  0
    0.9368   -2.1121   -0.7511 H   0  0  0  0  0  0  0  0  0  0  0  0
   -3.6473   -4.9192   -3.1926 H   0  0  0  0  0  0  0  0  0  0  0  0
   -2.3839   -5.9664   -2.5006 H   0  0  0  0  0  0  0  0  0  0  0  0
   -3.8923   -5.7489   -1.5839 H   0  0  0  0  0  0  0  0  0  0  0  0
  1  2  1  0
  2  3  2  0
  3  4  1  0
  4  5  1  0
  5  6  1  0
  6  7  1  0
  6  8  1  0
  8  9  1  0
  9 10  1  0
 10 11  1  0
 11 12  2  0
 11 13  1  0
  4 14  2  0
 14 15  1  0
 15 16  1  0
 16 17  1  0
 17 18  2  0
 18 19  1  0
 19 20  1  0
 20 21  1  0
 21 22  1  0
 22 23  1  0
 22 24  1  0
 22 25  1  0
 25 26  1  0
 26 27  1  0
 26 28  1  0
 19 29  1  0
 15 30  2  0
 30 31  1  0
 31 32  2  0
 32 33  1  0
 33 34  1  0
 33  2  1  0
 31  3  1  0
 13  8  1  0
 29 16  2  0
 26 20  1  0
  1 35  1  0
  1 36  1  0
  1 37  1  0
  6 38  1  1
  7 39  1  0
  7 40  1  0
  7 41  1  0
  8 42  1  6
  9 43  1  0
  9 44  1  0
 10 45  1  0
 13 46  1  0
 13 47  1  0
 14 48  1  0
 17 49  1  0
 20 50  1  0
 21 51  1  0
 21 52  1  0
 23 53  1  0
 23 54  1  0
 23 55  1  0
 24 56  1  0
 24 57  1  0
 24 58  1  0
 27 59  1  0
 27 60  1  0
 27 61  1  0
 28 62  1  0
 28 63  1  0
 28 64  1  0
 29 65  1  0
 30 66  1  0
 34 67  1  0
 34 68  1  0
 34 69  1  0
M  END
$$$$
