
     RDKit          3D

 69 71  0  0  0  0  0  0  0  0999 V2000
    7.3805    0.9257   -0.2452 C   0  0  0  0  0  0  0  0  0  0  0  0
    6.7888    0.3570    0.9519 N   0  0  0  0  0  0  0  0  0  0  0  0
    7.0343    1.2348    2.0792 C   0  0  0  0  0  0  0  0  0  0  0  0
    5.3824    0.0831    0.7788 C   0  0  0  0  0  0  0  0  0  0  0  0
    5.1863   -1.0508   -0.2159 C   0  0  0  0  0  0  0  0  0  0  0  0
    3.7461   -1.3057   -0.3788 N   0  0  0  0  0  0  0  0  0  0  0  0
    3.0776   -0.5652   -1.4003 C   0  0  0  0  0  0  0  0  0  0  0  0
    2.1601   -1.3811   -2.2584 C   0  0  0  0  0  0  0  0  0  0  0  0
    1.0781   -1.8716   -1.2934 N   0  0  0  0  0  0  0  0  0  0  0  0
    0.0456   -0.9462   -1.1497 C   0  0  0  0  0  0  0  0  0  0  0  0
    0.2162    0.1394   -1.8815 O   0  0  0  0  0  0  0  0  0  0  0  0
   -1.1657   -0.9596   -0.3539 C   0  0  0  0  0  0  0  0  0  0  0  0
   -1.4832   -1.8948    0.5826 C   0  0  0  0  0  0  0  0  0  0  0  0
   -2.6295   -1.7776    1.2725 C   0  0  0  0  0  0  0  0  0  0  0  0
   -3.1977   -2.6893    2.3525 C   0  0  0  0  0  0  0  0  0  0  0  0
   -2.7231   -2.2733    3.7069 C   0  0  0  0  0  0  0  0  0  0  0  0
   -4.7092   -2.5961    2.3416 C   0  0  0  0  0  0  0  0  0  0  0  0
   -2.8164   -4.1132    2.0206 C   0  0  0  0  0  0  0  0  0  0  0  0
   -3.3543   -0.3386    0.6597 S   0  0  0  0  0  0  0  0  0  0  0  0
   -2.0896    0.0300   -0.4863 C   0  0  0  0  0  0  0  0  0  0  0  0
   -2.1512    1.2059   -1.3445 N   0  0  0  0  0  0  0  0  0  0  0  0
   -3.2476    2.1202   -1.2068 C   0  0  0  0  0  0  0  0  0  0  0  0
   -4.0995    1.8730   -0.3594 O   0  0  0  0  0  0  0  0  0  0  0  0
   -3.3634    3.2726   -2.0075 N   0  0  0  0  0  0  0  0  0  0  0  0
   -4.3815    4.2429   -1.9654 C   0  0  0  0  0  0  0  0  0  0  0  0
   -5.4428    4.2438   -1.1113 C   0  0  0  0  0  0  0  0  0  0  0  0
   -6.4444    5.2230   -1.0920 C   0  0  0  0  0  0  0  0  0  0  0  0
   -6.3682    6.2589   -1.9855 C   0  0  0  0  0  0  0  0  0  0  0  0
   -5.3027    6.2796   -2.8605 C   0  0  0  0  0  0  0  0  0  0  0  0
   -5.1869    7.5965   -4.0143 Cl  0  0  0  0  0  0  0  0  0  0  0  0
   -4.3233    5.3152   -2.8740 C   0  0  0  0  0  0  0  0  0  0  0  0
   -2.9993    5.4363   -4.0389 Cl  0  0  0  0  0  0  0  0  0  0  0  0
    1.2239   -3.1473   -0.6901 C   0  0  0  0  0  0  0  0  0  0  0  0
    1.9687   -3.0298    0.6064 C   0  0  0  0  0  0  0  0  0  0  0  0
    3.2262   -2.2523    0.5137 C   0  0  0  0  0  0  0  0  0  0  0  0
    4.0187   -2.5134    1.4815 O   0  0  0  0  0  0  0  0  0  0  0  0
    8.1596    1.6628    0.0395 H   0  0  0  0  0  0  0  0  0  0  0  0
    6.5920    1.4996   -0.7794 H   0  0  0  0  0  0  0  0  0  0  0  0
    7.8541    0.1750   -0.9043 H   0  0  0  0  0  0  0  0  0  0  0  0
    7.1468    0.6155    2.9951 H   0  0  0  0  0  0  0  0  0  0  0  0
    6.1154    1.8623    2.2055 H   0  0  0  0  0  0  0  0  0  0  0  0
    7.9372    1.8540    1.9086 H   0  0  0  0  0  0  0  0  0  0  0  0
    4.9134    0.9990    0.3650 H   0  0  0  0  0  0  0  0  0  0  0  0
    4.9766   -0.2221    1.7597 H   0  0  0  0  0  0  0  0  0  0  0  0
    5.6360   -1.9648    0.1983 H   0  0  0  0  0  0  0  0  0  0  0  0
    5.5485   -0.7680   -1.2252 H   0  0  0  0  0  0  0  0  0  0  0  0
    2.4559    0.2153   -0.8983 H   0  0  0  0  0  0  0  0  0  0  0  0
    3.8009   -0.0567   -2.0736 H   0  0  0  0  0  0  0  0  0  0  0  0
    1.6561   -0.7267   -2.9695 H   0  0  0  0  0  0  0  0  0  0  0  0
    2.6429   -2.2456   -2.7244 H   0  0  0  0  0  0  0  0  0  0  0  0
   -0.8593   -2.7479    0.8341 H   0  0  0  0  0  0  0  0  0  0  0  0
   -3.3610   -2.7895    4.4564 H   0  0  0  0  0  0  0  0  0  0  0  0
   -1.6537   -2.4514    3.8402 H   0  0  0  0  0  0  0  0  0  0  0  0
   -2.9296   -1.1879    3.8440 H   0  0  0  0  0  0  0  0  0  0  0  0
   -5.0788   -3.4517    2.9319 H   0  0  0  0  0  0  0  0  0  0  0  0
   -5.1410   -2.5788    1.3182 H   0  0  0  0  0  0  0  0  0  0  0  0
   -4.9940   -1.6858    2.9137 H   0  0  0  0  0  0  0  0  0  0  0  0
   -1.7588   -4.3374    2.1570 H   0  0  0  0  0  0  0  0  0  0  0  0
   -3.0851   -4.3063    0.9655 H   0  0  0  0  0  0  0  0  0  0  0  0
   -3.4043   -4.7740    2.6762 H   0  0  0  0  0  0  0  0  0  0  0  0
   -1.4715    1.4463   -2.0600 H   0  0  0  0  0  0  0  0  0  0  0  0
   -2.5827    3.4172   -2.7262 H   0  0  0  0  0  0  0  0  0  0  0  0
   -5.5769    3.4680   -0.3788 H   0  0  0  0  0  0  0  0  0  0  0  0
   -7.2701    5.1845   -0.3949 H   0  0  0  0  0  0  0  0  0  0  0  0
   -7.1323    7.0214   -1.9809 H   0  0  0  0  0  0  0  0  0  0  0  0
    1.9334   -3.8064   -1.3353 H   0  0  0  0  0  0  0  0  0  0  0  0
    0.2962   -3.6760   -0.5851 H   0  0  0  0  0  0  0  0  0  0  0  0
    2.2390   -4.0992    0.8834 H   0  0  0  0  0  0  0  0  0  0  0  0
    1.3411   -2.6767    1.4412 H   0  0  0  0  0  0  0  0  0  0  0  0
  1  2  1  0
  2  3  1  0
  2  4  1  0
  4  5  1  0
  5  6  1  0
  6  7  1  0
  7  8  1  0
  8  9  1  0
  9 10  1  0
 10 11  2  0
 10 12  1  0
 12 13  1  0
 13 14  2  0
 14 15  1  0
 15 16  1  0
 15 17  1  0
 15 18  1  0
 14 19  1  0
 19 20  1  0
 20 21  1  0
 21 22  1  0
 22 23  2  0
 22 24  1  0
 24 25  1  0
 25 26  2  0
 26 27  1  0
 27 28  2  0
 28 29  1  0
 29 30  1  0
 29 31  2  0
 31 32  1  0
  9 33  1  0
 33 34  1  0
 34 35  1  0
 35 36  2  0
 35  6  1  0
 20 12  2  0
 31 25  1  0
  1 37  1  0
  1 38  1  0
  1 39  1  0
  3 40  1  0
  3 41  1  0
  3 42  1  0
  4 43  1  0
  4 44  1  0
  5 45  1  0
  5 46  1  0
  7 47  1  0
  7 48  1  0
  8 49  1  0
  8 50  1  0
 13 51  1  0
 16 52  1  0
 16 53  1  0
 16 54  1  0
 17 55  1  0
 17 56  1  0
 17 57  1  0
 18 58  1  0
 18 59  1  0
 18 60  1  0
 21 61  1  0
 24 62  1  0
 26 63  1  0
 27 64  1  0
 28 65  1  0
 33 66  1  0
 33 67  1  0
 34 68  1  0
 34 69  1  0
M  END
$$$$
