
     RDKit          3D

 43 45  0  0  0  0  0  0  0  0999 V2000
   -4.8613    0.0729    0.3235 C   0  0  0  0  0  0  0  0  0  0  0  0
   -3.4649    0.5213    0.7278 C   0  0  0  0  0  0  0  0  0  0  0  0
   -2.5081   -0.4817    0.7703 N   0  0  0  0  0  0  0  0  0  0  0  0
   -2.3548   -1.4515   -0.2212 C   0  0  1  0  0  0  0  0  0  0  0  0
   -1.4306   -1.1189   -1.3494 C   0  0  0  0  0  0  0  0  0  0  0  0
   -0.0204   -0.8506   -0.9369 C   0  0  0  0  0  0  0  0  0  0  0  0
    0.9147   -1.8680   -0.8572 C   0  0  0  0  0  0  0  0  0  0  0  0
    2.2418   -1.6430   -0.4786 C   0  0  0  0  0  0  0  0  0  0  0  0
    2.6593   -0.3730   -0.1693 C   0  0  0  0  0  0  0  0  0  0  0  0
    1.7631    0.6596   -0.2373 C   0  0  0  0  0  0  0  0  0  0  0  0
    0.4398    0.4075   -0.6192 C   0  0  0  0  0  0  0  0  0  0  0  0
    2.3850    1.7638    0.0984 O   0  0  0  0  0  0  0  0  0  0  0  0
    3.6366    1.5342    0.3855 C   0  0  0  0  0  0  0  0  0  0  0  0
    4.7112    2.3073    0.7858 C   0  0  0  0  0  0  0  0  0  0  0  0
    5.9344    1.7223    1.0092 C   0  0  0  0  0  0  0  0  0  0  0  0
    6.1287    0.3673    0.8447 C   0  0  0  0  0  0  0  0  0  0  0  0
    5.0876   -0.4154    0.4516 C   0  0  0  0  0  0  0  0  0  0  0  0
    3.8587    0.1832    0.2289 C   0  0  0  0  0  0  0  0  0  0  0  0
   -1.8623   -2.7313    0.4167 C   0  0  0  0  0  0  0  0  0  0  0  0
   -1.7213   -3.7903   -0.2437 O   0  0  0  0  0  0  0  0  0  0  0  0
   -1.5484   -2.7715    1.7666 O   0  0  0  0  0  0  0  0  0  0  0  0
   -3.1147    2.1094    0.0011 P   0  0  0  0  0  5  0  0  0  0  0  0
   -4.3571    3.0010    0.2129 O   0  0  0  0  0  0  0  0  0  0  0  0
   -2.8151    2.0967   -1.6368 O   0  0  0  0  0  0  0  0  0  0  0  0
   -1.8088    2.7909    0.8574 O   0  0  0  0  0  0  0  0  0  0  0  0
   -5.2003   -0.7991    0.9135 H   0  0  0  0  0  0  0  0  0  0  0  0
   -5.5396    0.9142    0.5784 H   0  0  0  0  0  0  0  0  0  0  0  0
   -4.9502   -0.0785   -0.7714 H   0  0  0  0  0  0  0  0  0  0  0  0
   -3.6586    0.7857    1.8654 H   0  0  0  0  0  0  0  0  0  0  0  0
   -2.0377   -0.6590    1.6755 H   0  0  0  0  0  0  0  0  0  0  0  0
   -3.3526   -1.7883   -0.6604 H   0  0  0  0  0  0  0  0  0  0  0  0
   -1.8500   -0.3301   -1.9796 H   0  0  0  0  0  0  0  0  0  0  0  0
   -1.4189   -2.0285   -2.0519 H   0  0  0  0  0  0  0  0  0  0  0  0
    0.6169   -2.8571   -1.1024 H   0  0  0  0  0  0  0  0  0  0  0  0
    2.9663   -2.4421   -0.4182 H   0  0  0  0  0  0  0  0  0  0  0  0
   -0.2478    1.2155   -0.6817 H   0  0  0  0  0  0  0  0  0  0  0  0
    4.5740    3.3611    0.9173 H   0  0  0  0  0  0  0  0  0  0  0  0
    6.8005    2.3026    1.3250 H   0  0  0  0  0  0  0  0  0  0  0  0
    7.0933   -0.1111    1.0183 H   0  0  0  0  0  0  0  0  0  0  0  0
    5.1702   -1.4841    0.3037 H   0  0  0  0  0  0  0  0  0  0  0  0
   -1.0443   -3.5609    2.1634 H   0  0  0  0  0  0  0  0  0  0  0  0
   -3.6649    2.0117   -2.1438 H   0  0  0  0  0  0  0  0  0  0  0  0
   -2.1491    3.5056    1.4344 H   0  0  0  0  0  0  0  0  0  0  0  0
  1  2  1  0
  2  3  1  0
  3  4  1  0
  4  5  1  0
  5  6  1  0
  6  7  2  0
  7  8  1  0
  8  9  2  0
  9 10  1  0
 10 11  2  0
 10 12  1  0
 12 13  1  0
 13 14  2  0
 14 15  1  0
 15 16  2  0
 16 17  1  0
 17 18  2  0
  4 19  1  0
 19 20  2  0
 19 21  1  0
  2 22  1  0
 22 23  2  0
 22 24  1  0
 22 25  1  0
 11  6  1  0
 18 13  1  0
 18  9  1  0
  1 26  1  0
  1 27  1  0
  1 28  1  0
  2 29  1  0
  3 30  1  0
  4 31  1  6
  5 32  1  0
  5 33  1  0
  7 34  1  0
  8 35  1  0
 11 36  1  0
 14 37  1  0
 15 38  1  0
 16 39  1  0
 17 40  1  0
 21 41  1  0
 24 42  1  0
 25 43  1  0
M  END
$$$$
