
     RDKit          3D

 61 64  0  0  0  0  0  0  0  0999 V2000
    6.5038    1.8927   -0.1500 C   0  0  0  0  0  0  0  0  0  0  0  0
    5.2139    1.1551   -0.2017 C   0  0  1  0  0  0  0  0  0  0  0  0
    4.7426    0.6370    1.1663 C   0  0  0  0  0  0  0  0  0  0  0  0
    3.3071    0.7154    1.0972 N   0  0  0  0  0  0  0  0  0  0  0  0
    2.4384   -0.3669    0.9387 C   0  0  0  0  0  0  0  0  0  0  0  0
    2.8925   -1.6697    0.8816 C   0  0  0  0  0  0  0  0  0  0  0  0
    2.0544   -2.7533    0.7197 C   0  0  0  0  0  0  0  0  0  0  0  0
    2.5134   -3.8978    0.6766 O   0  0  0  0  0  0  0  0  0  0  0  0
    0.7104   -2.4573    0.6142 C   0  0  0  0  0  0  0  0  0  0  0  0
   -0.2018   -3.4739    0.4415 C   0  0  0  0  0  0  0  0  0  0  0  0
   -1.5688   -3.2198    0.3263 C   0  0  0  0  0  0  0  0  0  0  0  0
   -2.4698   -4.3587    0.1714 C   0  0  0  0  0  0  0  0  0  0  0  0
   -2.1692   -5.3549    0.9315 O   0  0  0  0  0  0  0  0  0  0  0  0
   -3.5708   -4.4418   -0.6861 N   0  0  0  0  0  0  0  0  0  0  0  0
   -3.9573   -3.3699   -1.5621 C   0  0  0  0  0  0  0  0  0  0  0  0
   -4.3541   -5.6877   -0.6744 C   0  0  0  0  0  0  0  0  0  0  0  0
   -1.9452   -1.9230    0.3907 C   0  0  0  0  0  0  0  0  0  0  0  0
   -1.0803   -0.8514    0.5627 C   0  0  0  0  0  0  0  0  0  0  0  0
   -1.6102    0.5729    0.6626 C   0  0  2  0  0  0  0  0  0  0  0  0
   -2.8645    0.5504    1.4314 C   0  0  0  0  0  0  0  0  0  0  0  0
   -1.4930    1.2600   -0.5315 N   0  0  0  0  0  0  0  0  0  0  0  0
   -2.0103    2.5035   -0.9030 C   0  0  0  0  0  0  0  0  0  0  0  0
   -2.8556    3.2548   -0.1258 C   0  0  0  0  0  0  0  0  0  0  0  0
   -3.3030    4.4997   -0.5461 C   0  0  0  0  0  0  0  0  0  0  0  0
   -4.1548    5.1984    0.2735 F   0  0  0  0  0  0  0  0  0  0  0  0
   -2.9333    5.0517   -1.7557 C   0  0  0  0  0  0  0  0  0  0  0  0
   -2.0859    4.3125   -2.5482 C   0  0  0  0  0  0  0  0  0  0  0  0
   -1.7083    4.8592   -3.7480 F   0  0  0  0  0  0  0  0  0  0  0  0
   -1.6359    3.0839   -2.1454 C   0  0  0  0  0  0  0  0  0  0  0  0
    0.2671   -1.1316    0.6730 C   0  0  0  0  0  0  0  0  0  0  0  0
    1.1222   -0.1499    0.8320 O   0  0  0  0  0  0  0  0  0  0  0  0
    2.7941    2.0911    1.1877 C   0  0  0  0  0  0  0  0  0  0  0  0
    3.7633    2.8819    0.2833 C   0  0  0  0  0  0  0  0  0  0  0  0
    4.2153    2.0262   -0.7019 O   0  0  0  0  0  0  0  0  0  0  0  0
    7.2544    1.3269   -0.7624 H   0  0  0  0  0  0  0  0  0  0  0  0
    6.4592    2.9164   -0.5819 H   0  0  0  0  0  0  0  0  0  0  0  0
    6.9616    1.8856    0.8808 H   0  0  0  0  0  0  0  0  0  0  0  0
    5.2908    0.3262   -0.9252 H   0  0  0  0  0  0  0  0  0  0  0  0
    5.1385    1.3526    1.9332 H   0  0  0  0  0  0  0  0  0  0  0  0
    5.1699   -0.3242    1.3822 H   0  0  0  0  0  0  0  0  0  0  0  0
    3.9688   -1.7908    0.9777 H   0  0  0  0  0  0  0  0  0  0  0  0
    0.1698   -4.4697    0.4004 H   0  0  0  0  0  0  0  0  0  0  0  0
   -4.6849   -2.6757   -1.1112 H   0  0  0  0  0  0  0  0  0  0  0  0
   -3.0187   -2.8277   -1.8602 H   0  0  0  0  0  0  0  0  0  0  0  0
   -4.4190   -3.8379   -2.4693 H   0  0  0  0  0  0  0  0  0  0  0  0
   -4.1671   -6.2582    0.2490 H   0  0  0  0  0  0  0  0  0  0  0  0
   -4.0043   -6.2774   -1.5454 H   0  0  0  0  0  0  0  0  0  0  0  0
   -5.4291   -5.4154   -0.7718 H   0  0  0  0  0  0  0  0  0  0  0  0
   -3.0009   -1.7058    0.2982 H   0  0  0  0  0  0  0  0  0  0  0  0
   -0.8276    1.0411    1.4042 H   0  0  0  0  0  0  0  0  0  0  0  0
   -3.8029    0.6488    0.8838 H   0  0  0  0  0  0  0  0  0  0  0  0
   -2.8593    1.2360    2.3141 H   0  0  0  0  0  0  0  0  0  0  0  0
   -2.9480   -0.4994    1.9033 H   0  0  0  0  0  0  0  0  0  0  0  0
   -0.9033    0.7736   -1.3098 H   0  0  0  0  0  0  0  0  0  0  0  0
   -3.2259    2.9000    0.8491 H   0  0  0  0  0  0  0  0  0  0  0  0
   -3.3044    6.0261   -2.0578 H   0  0  0  0  0  0  0  0  0  0  0  0
   -0.9709    2.5402   -2.7926 H   0  0  0  0  0  0  0  0  0  0  0  0
    2.8967    2.4893    2.2207 H   0  0  0  0  0  0  0  0  0  0  0  0
    1.7963    2.2007    0.7434 H   0  0  0  0  0  0  0  0  0  0  0  0
    3.2472    3.7501   -0.1784 H   0  0  0  0  0  0  0  0  0  0  0  0
    4.6467    3.2295    0.8690 H   0  0  0  0  0  0  0  0  0  0  0  0
  1  2  1  0
  2  3  1  0
  3  4  1  0
  4  5  1  0
  5  6  2  0
  6  7  1  0
  7  8  2  0
  7  9  1  0
  9 10  2  0
 10 11  1  0
 11 12  1  0
 12 13  2  0
 12 14  1  0
 14 15  1  0
 14 16  1  0
 11 17  2  0
 17 18  1  0
 18 19  1  0
 19 20  1  0
 19 21  1  0
 21 22  1  0
 22 23  2  0
 23 24  1  0
 24 25  1  0
 24 26  2  0
 26 27  1  0
 27 28  1  0
 27 29  2  0
 18 30  2  0
 30 31  1  0
  4 32  1  0
 32 33  1  0
 33 34  1  0
 34  2  1  0
 31  5  1  0
 30  9  1  0
 29 22  1  0
  1 35  1  0
  1 36  1  0
  1 37  1  0
  2 38  1  6
  3 39  1  0
  3 40  1  0
  6 41  1  0
 10 42  1  0
 15 43  1  0
 15 44  1  0
 15 45  1  0
 16 46  1  0
 16 47  1  0
 16 48  1  0
 17 49  1  0
 19 50  1  1
 20 51  1  0
 20 52  1  0
 20 53  1  0
 21 54  1  0
 23 55  1  0
 26 56  1  0
 29 57  1  0
 32 58  1  0
 32 59  1  0
 33 60  1  0
 33 61  1  0
M  END
$$$$
