
     RDKit          3D

 28 28  0  0  0  0  0  0  0  0999 V2000
   -1.9581    0.1613    1.0338 C   0  0  1  0  0  0  0  0  0  0  0  0
   -2.5929   -1.0826    1.4538 N   0  0  0  0  0  0  0  0  0  0  0  0
   -0.5599   -0.1418    0.6473 C   0  0  0  0  0  0  0  0  0  0  0  0
    0.2816    0.9943    0.1814 C   0  0  0  0  0  0  0  0  0  0  0  0
    1.6239    0.4145   -0.1385 C   0  0  0  0  0  0  0  0  0  0  0  0
    2.5015    0.4046    0.9203 C   0  0  0  0  0  0  0  0  0  0  0  0
    3.7974   -0.0916    0.8296 C   0  0  0  0  0  0  0  0  0  0  0  0
    4.2112   -0.5984   -0.3959 C   0  0  0  0  0  0  0  0  0  0  0  0
    3.3275   -0.5865   -1.4555 C   0  0  0  0  0  0  0  0  0  0  0  0
    2.0512   -0.0920   -1.3465 C   0  0  0  0  0  0  0  0  0  0  0  0
   -2.7951    0.7775    0.0056 C   0  0  0  0  0  0  0  0  0  0  0  0
   -4.0824    0.1538   -0.4742 C   0  0  0  0  0  0  0  0  0  0  0  0
   -2.5416    1.8374   -0.5568 O   0  0  0  0  0  0  0  0  0  0  0  0
   -1.9808    0.8225    1.9265 H   0  0  0  0  0  0  0  0  0  0  0  0
   -2.1359   -1.4549    2.3172 H   0  0  0  0  0  0  0  0  0  0  0  0
   -2.5508   -1.8199    0.6919 H   0  0  0  0  0  0  0  0  0  0  0  0
   -0.5174   -0.9314   -0.1293 H   0  0  0  0  0  0  0  0  0  0  0  0
   -0.0577   -0.5765    1.5364 H   0  0  0  0  0  0  0  0  0  0  0  0
   -0.0594    1.3992   -0.8167 H   0  0  0  0  0  0  0  0  0  0  0  0
    0.3671    1.8289    0.8800 H   0  0  0  0  0  0  0  0  0  0  0  0
    2.2497    0.7843    1.9110 H   0  0  0  0  0  0  0  0  0  0  0  0
    4.4834   -0.0948    1.6733 H   0  0  0  0  0  0  0  0  0  0  0  0
    5.2193   -0.9888   -0.4813 H   0  0  0  0  0  0  0  0  0  0  0  0
    3.6384   -0.9802   -2.4209 H   0  0  0  0  0  0  0  0  0  0  0  0
    1.3156   -0.0551   -2.1359 H   0  0  0  0  0  0  0  0  0  0  0  0
   -4.3193    0.3906   -1.5147 H   0  0  0  0  0  0  0  0  0  0  0  0
   -4.0426   -0.9534   -0.4079 H   0  0  0  0  0  0  0  0  0  0  0  0
   -4.8741    0.4789    0.2436 H   0  0  0  0  0  0  0  0  0  0  0  0
  1  2  1  0
  1  3  1  0
  3  4  1  0
  4  5  1  0
  5  6  2  0
  6  7  1  0
  7  8  2  0
  8  9  1  0
  9 10  2  0
  1 11  1  0
 11 12  1  0
 11 13  2  0
 10  5  1  0
  1 14  1  1
  2 15  1  0
  2 16  1  0
  3 17  1  0
  3 18  1  0
  4 19  1  0
  4 20  1  0
  6 21  1  0
  7 22  1  0
  8 23  1  0
  9 24  1  0
 10 25  1  0
 12 26  1  0
 12 27  1  0
 12 28  1  0
M  END
$$$$
