
     RDKit          3D

 52 55  0  0  0  0  0  0  0  0999 V2000
   -0.0879    2.5820   -1.7116 O   0  0  0  0  0  0  0  0  0  0  0  0
   -0.0896    1.3265   -1.9598 C   0  0  0  0  0  0  0  0  0  0  0  0
   -1.2479    0.7237   -2.5044 N   0  0  0  0  0  0  0  0  0  0  0  0
   -2.4120    1.5116   -2.7729 C   0  0  0  0  0  0  0  0  0  0  0  0
   -2.5108    2.1053   -4.0176 C   0  0  0  0  0  0  0  0  0  0  0  0
   -3.6325    2.8702   -4.2965 C   0  0  0  0  0  0  0  0  0  0  0  0
   -4.6203    3.0271   -3.3444 C   0  0  0  0  0  0  0  0  0  0  0  0
   -6.0309    3.9885   -3.6937 Cl  0  0  0  0  0  0  0  0  0  0  0  0
   -4.4665    2.4118   -2.1221 C   0  0  0  0  0  0  0  0  0  0  0  0
   -3.3749    1.6436   -1.7964 C   0  0  0  0  0  0  0  0  0  0  0  0
   -3.2046    0.9852   -0.5097 C   0  0  0  0  0  0  0  0  0  0  0  0
   -2.1506    0.2926   -0.3097 O   0  0  0  0  0  0  0  0  0  0  0  0
   -4.1119    1.0408    0.5606 N   0  0  0  0  0  0  0  0  0  0  0  0
   -3.9171    0.3879    1.8046 C   0  0  0  0  0  0  0  0  0  0  0  0
   -4.8560    0.4906    2.8006 C   0  0  0  0  0  0  0  0  0  0  0  0
   -4.6901   -0.1430    4.0354 C   0  0  0  0  0  0  0  0  0  0  0  0
   -3.5479   -0.8875    4.2444 C   0  0  0  0  0  0  0  0  0  0  0  0
   -3.2561   -1.7210    5.7780 Cl  0  0  0  0  0  0  0  0  0  0  0  0
   -2.6375   -0.9579    3.2132 C   0  0  0  0  0  0  0  0  0  0  0  0
   -2.8038   -0.3419    2.0186 N   0  0  0  0  0  0  0  0  0  0  0  0
    1.1407    0.6054   -1.6509 C   0  0  0  0  0  0  0  0  0  0  0  0
    2.2674    1.2709   -1.1875 C   0  0  0  0  0  0  0  0  0  0  0  0
    3.4418    0.6147   -0.8864 C   0  0  0  0  0  0  0  0  0  0  0  0
    3.5227   -0.7585   -1.0443 C   0  0  0  0  0  0  0  0  0  0  0  0
    4.8127   -1.4279   -0.7210 C   0  0  0  0  0  0  0  0  0  0  0  0
    4.9094   -1.7751    0.6923 N   0  0  0  0  0  0  0  0  0  0  0  0
    4.4621   -3.0006    1.3095 C   0  0  0  0  0  0  0  0  0  0  0  0
    4.9347   -2.9046    2.7396 C   0  0  0  0  0  0  0  0  0  0  0  0
    5.2874   -1.5252    2.9290 N   0  0  0  0  0  0  0  0  0  0  0  0
    5.4766   -0.9067    1.6698 C   0  0  0  0  0  0  0  0  0  0  0  0
    6.0432    0.2130    1.4308 O   0  0  0  0  0  0  0  0  0  0  0  0
    2.4206   -1.4500   -1.5028 C   0  0  0  0  0  0  0  0  0  0  0  0
    1.2439   -0.7617   -1.8010 C   0  0  0  0  0  0  0  0  0  0  0  0
   -1.2281   -0.2944   -2.7020 H   0  0  0  0  0  0  0  0  0  0  0  0
   -1.7613    2.0086   -4.7930 H   0  0  0  0  0  0  0  0  0  0  0  0
   -3.7660    3.3535   -5.2424 H   0  0  0  0  0  0  0  0  0  0  0  0
   -5.2430    2.5396   -1.3871 H   0  0  0  0  0  0  0  0  0  0  0  0
   -4.9810    1.6004    0.4236 H   0  0  0  0  0  0  0  0  0  0  0  0
   -5.7420    1.0789    2.6188 H   0  0  0  0  0  0  0  0  0  0  0  0
   -5.4279   -0.0677    4.8279 H   0  0  0  0  0  0  0  0  0  0  0  0
   -1.7493   -1.5328    3.3636 H   0  0  0  0  0  0  0  0  0  0  0  0
    2.1928    2.3500   -1.0657 H   0  0  0  0  0  0  0  0  0  0  0  0
    4.3144    1.1573   -0.5222 H   0  0  0  0  0  0  0  0  0  0  0  0
    4.8994   -2.3507   -1.3555 H   0  0  0  0  0  0  0  0  0  0  0  0
    5.6792   -0.7841   -0.9596 H   0  0  0  0  0  0  0  0  0  0  0  0
    3.3476   -3.0891    1.3057 H   0  0  0  0  0  0  0  0  0  0  0  0
    4.8483   -3.8881    0.7857 H   0  0  0  0  0  0  0  0  0  0  0  0
    4.1486   -3.1819    3.4799 H   0  0  0  0  0  0  0  0  0  0  0  0
    5.8464   -3.5339    2.8537 H   0  0  0  0  0  0  0  0  0  0  0  0
    5.3879   -1.0507    3.8542 H   0  0  0  0  0  0  0  0  0  0  0  0
    2.5103   -2.5151   -1.6175 H   0  0  0  0  0  0  0  0  0  0  0  0
    0.4094   -1.3294   -2.1517 H   0  0  0  0  0  0  0  0  0  0  0  0
  1  2  2  0
  2  3  1  0
  3  4  1  0
  4  5  2  0
  5  6  1  0
  6  7  2  0
  7  8  1  0
  7  9  1  0
  9 10  2  0
 10 11  1  0
 11 12  2  0
 11 13  1  0
 13 14  1  0
 14 15  2  0
 15 16  1  0
 16 17  2  0
 17 18  1  0
 17 19  1  0
 19 20  2  0
  2 21  1  0
 21 22  2  0
 22 23  1  0
 23 24  2  0
 24 25  1  0
 25 26  1  0
 26 27  1  0
 27 28  1  0
 28 29  1  0
 29 30  1  0
 30 31  2  0
 24 32  1  0
 32 33  2  0
 10  4  1  0
 20 14  1  0
 33 21  1  0
 30 26  1  0
  3 34  1  0
  5 35  1  0
  6 36  1  0
  9 37  1  0
 13 38  1  0
 15 39  1  0
 16 40  1  0
 19 41  1  0
 22 42  1  0
 23 43  1  0
 25 44  1  0
 25 45  1  0
 27 46  1  0
 27 47  1  0
 28 48  1  0
 28 49  1  0
 29 50  1  0
 32 51  1  0
 33 52  1  0
M  END
$$$$
