
     RDKit          3D

 55 58  0  0  0  0  0  0  0  0999 V2000
    4.3476    4.2776    0.7308 C   0  0  0  0  0  0  0  0  0  0  0  0
    3.5215    3.0418    0.7604 C   0  0  0  0  0  0  0  0  0  0  0  0
    2.4779    2.8649    1.6479 C   0  0  0  0  0  0  0  0  0  0  0  0
    1.7142    1.7221    1.6751 C   0  0  0  0  0  0  0  0  0  0  0  0
    2.0013    0.7182    0.7844 C   0  0  0  0  0  0  0  0  0  0  0  0
    1.1730   -0.5441    0.8002 C   0  0  0  0  0  0  0  0  0  0  0  0
    2.1241   -1.6641    1.1220 C   0  0  0  0  0  0  0  0  0  0  0  0
    1.5578   -3.0260    0.9085 C   0  0  0  0  0  0  0  0  0  0  0  0
    2.1294   -3.6586   -0.3652 C   0  0  0  0  0  0  0  0  0  0  0  0
    1.3445   -2.9996   -1.4942 C   0  0  0  0  0  0  0  0  0  0  0  0
    0.2510   -2.2633   -0.7505 C   0  0  0  0  0  0  0  0  0  0  0  0
    0.5805   -0.7902   -0.5706 C   0  0  0  0  0  0  0  0  0  0  0  0
   -0.6060    0.0588   -0.8211 C   0  0  0  0  0  0  0  0  0  0  0  0
   -1.7855    0.0529   -0.1100 C   0  0  0  0  0  0  0  0  0  0  0  0
   -2.6309    1.0109   -0.6873 C   0  0  0  0  0  0  0  0  0  0  0  0
   -3.9933    1.4004   -0.3136 C   0  0  0  0  0  0  0  0  0  0  0  0
   -4.5200    0.6386    0.8612 C   0  0  0  0  0  0  0  0  0  0  0  0
   -4.0474    2.8846    0.0529 C   0  0  0  0  0  0  0  0  0  0  0  0
   -4.9822    1.1973   -1.4623 C   0  0  0  0  0  0  0  0  0  0  0  0
   -1.9114    1.5228   -1.6952 N   0  0  0  0  0  0  0  0  0  0  0  0
   -0.7504    0.9624   -1.7556 O   0  0  0  0  0  0  0  0  0  0  0  0
    0.1563   -2.9036    0.5558 N   0  0  0  0  0  0  0  0  0  0  0  0
   -0.3793   -4.2403    0.3902 C   0  0  0  0  0  0  0  0  0  0  0  0
    3.0348    0.8696   -0.1090 C   0  0  0  0  0  0  0  0  0  0  0  0
    3.7894    2.0170   -0.1246 C   0  0  0  0  0  0  0  0  0  0  0  0
    4.8989    4.3110   -0.2354 H   0  0  0  0  0  0  0  0  0  0  0  0
    3.7257    5.2005    0.8359 H   0  0  0  0  0  0  0  0  0  0  0  0
    5.1050    4.1817    1.5352 H   0  0  0  0  0  0  0  0  0  0  0  0
    2.2698    3.6645    2.3376 H   0  0  0  0  0  0  0  0  0  0  0  0
    0.8863    1.6145    2.3993 H   0  0  0  0  0  0  0  0  0  0  0  0
    0.4240   -0.4429    1.5805 H   0  0  0  0  0  0  0  0  0  0  0  0
    2.9993   -1.5416    0.4189 H   0  0  0  0  0  0  0  0  0  0  0  0
    2.4804   -1.6076    2.1776 H   0  0  0  0  0  0  0  0  0  0  0  0
    1.7101   -3.7297    1.7386 H   0  0  0  0  0  0  0  0  0  0  0  0
    2.0234   -4.7491   -0.3552 H   0  0  0  0  0  0  0  0  0  0  0  0
    3.2161   -3.4362   -0.4412 H   0  0  0  0  0  0  0  0  0  0  0  0
    1.9624   -2.2285   -2.0023 H   0  0  0  0  0  0  0  0  0  0  0  0
    0.9139   -3.7364   -2.1835 H   0  0  0  0  0  0  0  0  0  0  0  0
   -0.6858   -2.4068   -1.3126 H   0  0  0  0  0  0  0  0  0  0  0  0
    1.3799   -0.5627   -1.3059 H   0  0  0  0  0  0  0  0  0  0  0  0
   -2.0691   -0.5491    0.7393 H   0  0  0  0  0  0  0  0  0  0  0  0
   -4.4108   -0.4680    0.7122 H   0  0  0  0  0  0  0  0  0  0  0  0
   -4.1312    0.9859    1.8226 H   0  0  0  0  0  0  0  0  0  0  0  0
   -5.6337    0.8149    0.8969 H   0  0  0  0  0  0  0  0  0  0  0  0
   -3.8164    2.9798    1.1432 H   0  0  0  0  0  0  0  0  0  0  0  0
   -5.1026    3.2126   -0.1120 H   0  0  0  0  0  0  0  0  0  0  0  0
   -3.3494    3.4475   -0.5861 H   0  0  0  0  0  0  0  0  0  0  0  0
   -4.7172    0.3010   -2.0697 H   0  0  0  0  0  0  0  0  0  0  0  0
   -5.9873    1.1146   -1.0055 H   0  0  0  0  0  0  0  0  0  0  0  0
   -4.9710    2.1289   -2.0542 H   0  0  0  0  0  0  0  0  0  0  0  0
    0.0376   -4.9010    1.1600 H   0  0  0  0  0  0  0  0  0  0  0  0
   -0.1451   -4.6830   -0.5908 H   0  0  0  0  0  0  0  0  0  0  0  0
   -1.4900   -4.2660    0.4967 H   0  0  0  0  0  0  0  0  0  0  0  0
    3.2609    0.0600   -0.8220 H   0  0  0  0  0  0  0  0  0  0  0  0
    4.6189    2.1413   -0.8401 H   0  0  0  0  0  0  0  0  0  0  0  0
  1  2  1  0
  2  3  2  0
  3  4  1  0
  4  5  2  0
  5  6  1  0
  6  7  1  0
  7  8  1  0
  8  9  1  0
  9 10  1  0
 10 11  1  0
 11 12  1  0
 12 13  1  0
 13 14  2  0
 14 15  1  0
 15 16  1  0
 16 17  1  0
 16 18  1  0
 16 19  1  0
 15 20  2  0
 20 21  1  0
 11 22  1  0
 22 23  1  0
  5 24  1  0
 24 25  2  0
 25  2  1  0
 12  6  1  0
 21 13  1  0
 22  8  1  0
  1 26  1  0
  1 27  1  0
  1 28  1  0
  3 29  1  0
  4 30  1  0
  6 31  1  0
  7 32  1  0
  7 33  1  0
  8 34  1  0
  9 35  1  0
  9 36  1  0
 10 37  1  0
 10 38  1  0
 11 39  1  0
 12 40  1  0
 14 41  1  0
 17 42  1  0
 17 43  1  0
 17 44  1  0
 18 45  1  0
 18 46  1  0
 18 47  1  0
 19 48  1  0
 19 49  1  0
 19 50  1  0
 23 51  1  0
 23 52  1  0
 23 53  1  0
 24 54  1  0
 25 55  1  0
M  END
$$$$
