
     RDKit          3D

 59 63  0  0  0  0  0  0  0  0999 V2000
   -7.5231    1.4887   -1.7962 C   0  0  0  0  0  0  0  0  0  0  0  0
   -8.2194    0.5042   -0.9272 C   0  0  0  0  0  0  0  0  0  0  0  0
   -9.5294    0.1615   -1.1174 C   0  0  0  0  0  0  0  0  0  0  0  0
  -10.1311   -0.7685   -0.2705 C   0  0  0  0  0  0  0  0  0  0  0  0
   -9.4239   -1.3590    0.7699 C   0  0  0  0  0  0  0  0  0  0  0  0
   -8.1076   -1.0107    0.9563 C   0  0  0  0  0  0  0  0  0  0  0  0
   -7.3456   -1.5565    1.9682 C   0  0  0  0  0  0  0  0  0  0  0  0
   -7.8926   -2.3982    2.7334 O   0  0  0  0  0  0  0  0  0  0  0  0
   -6.0563   -1.2355    2.1752 N   0  0  0  0  0  0  0  0  0  0  0  0
   -5.4976   -0.3364    1.3458 C   0  0  0  0  0  0  0  0  0  0  0  0
   -4.0818    0.0970    1.4742 C   0  0  0  0  0  0  0  0  0  0  0  0
   -3.2440   -0.8227    0.6414 C   0  0  0  0  0  0  0  0  0  0  0  0
   -1.7997   -0.4806    0.6952 C   0  0  0  0  0  0  0  0  0  0  0  0
   -1.4552    0.5107    1.4107 O   0  0  0  0  0  0  0  0  0  0  0  0
   -0.8021   -1.1834    0.0069 N   0  0  0  0  0  0  0  0  0  0  0  0
    0.5679   -0.8202    0.0877 C   0  0  0  0  0  0  0  0  0  0  0  0
    1.1773    0.0687   -0.7653 C   0  0  0  0  0  0  0  0  0  0  0  0
    2.5145    0.4035   -0.6620 C   0  0  0  0  0  0  0  0  0  0  0  0
    3.3057   -0.1467    0.3140 C   0  0  0  0  0  0  0  0  0  0  0  0
    4.7272    0.1793    0.4611 C   0  0  0  0  0  0  0  0  0  0  0  0
    5.4017   -0.3630    1.3826 O   0  0  0  0  0  0  0  0  0  0  0  0
    5.3482    1.0865   -0.4092 N   0  0  0  0  0  0  0  0  0  0  0  0
    6.7470    1.3527   -0.1975 C   0  0  0  0  0  0  0  0  0  0  0  0
    7.1386    2.3780    0.6388 C   0  0  0  0  0  0  0  0  0  0  0  0
    8.4715    2.6595    0.8632 C   0  0  0  0  0  0  0  0  0  0  0  0
    9.4496    1.9139    0.2496 C   0  0  0  0  0  0  0  0  0  0  0  0
    9.0976    0.8799   -0.5940 C   0  0  0  0  0  0  0  0  0  0  0  0
   10.0778    0.1388   -1.2038 C   0  0  0  0  0  0  0  0  0  0  0  0
    9.7138   -0.8843   -2.0384 C   0  0  0  0  0  0  0  0  0  0  0  0
    8.3588   -1.1363   -2.2385 C   0  0  0  0  0  0  0  0  0  0  0  0
    7.4437   -0.3815   -1.6178 N   0  0  0  0  0  0  0  0  0  0  0  0
    7.7445    0.6197   -0.8009 C   0  0  0  0  0  0  0  0  0  0  0  0
    2.7057   -1.0543    1.1934 C   0  0  0  0  0  0  0  0  0  0  0  0
    1.3718   -1.3679    1.0654 C   0  0  0  0  0  0  0  0  0  0  0  0
   -6.2221    0.2085    0.3524 N   0  0  0  0  0  0  0  0  0  0  0  0
   -7.5118   -0.0824    0.1089 C   0  0  0  0  0  0  0  0  0  0  0  0
   -8.0968    1.7493   -2.6850 H   0  0  0  0  0  0  0  0  0  0  0  0
   -7.2082    2.3432   -1.1740 H   0  0  0  0  0  0  0  0  0  0  0  0
   -6.5622    0.9859   -2.1125 H   0  0  0  0  0  0  0  0  0  0  0  0
  -10.0890    0.6072   -1.9146 H   0  0  0  0  0  0  0  0  0  0  0  0
  -11.1693   -1.0009   -0.4687 H   0  0  0  0  0  0  0  0  0  0  0  0
   -9.9025   -2.0765    1.4167 H   0  0  0  0  0  0  0  0  0  0  0  0
   -5.4720   -1.6378    2.9315 H   0  0  0  0  0  0  0  0  0  0  0  0
   -3.7560    0.1509    2.5307 H   0  0  0  0  0  0  0  0  0  0  0  0
   -3.9886    1.1230    1.0700 H   0  0  0  0  0  0  0  0  0  0  0  0
   -3.3763   -1.8622    1.0071 H   0  0  0  0  0  0  0  0  0  0  0  0
   -3.6186   -0.7827   -0.4014 H   0  0  0  0  0  0  0  0  0  0  0  0
   -1.1167   -2.0092   -0.5852 H   0  0  0  0  0  0  0  0  0  0  0  0
    0.6068    0.5355   -1.5546 H   0  0  0  0  0  0  0  0  0  0  0  0
    2.9292    1.1246   -1.3845 H   0  0  0  0  0  0  0  0  0  0  0  0
    4.8657    1.5771   -1.1940 H   0  0  0  0  0  0  0  0  0  0  0  0
    6.3763    2.9867    1.1396 H   0  0  0  0  0  0  0  0  0  0  0  0
    8.7553    3.4640    1.5195 H   0  0  0  0  0  0  0  0  0  0  0  0
   10.5097    2.1044    0.4008 H   0  0  0  0  0  0  0  0  0  0  0  0
   11.1055    0.3532   -1.0329 H   0  0  0  0  0  0  0  0  0  0  0  0
   10.4002   -1.5197   -2.5606 H   0  0  0  0  0  0  0  0  0  0  0  0
    8.0064   -1.9298   -2.8854 H   0  0  0  0  0  0  0  0  0  0  0  0
    3.3496   -1.4747    1.9541 H   0  0  0  0  0  0  0  0  0  0  0  0
    0.9314   -2.0747    1.7606 H   0  0  0  0  0  0  0  0  0  0  0  0
  1  2  1  0
  2  3  2  0
  3  4  1  0
  4  5  2  0
  5  6  1  0
  6  7  1  0
  7  8  2  0
  7  9  1  0
  9 10  1  0
 10 11  1  0
 11 12  1  0
 12 13  1  0
 13 14  2  0
 13 15  1  0
 15 16  1  0
 16 17  2  0
 17 18  1  0
 18 19  2  0
 19 20  1  0
 20 21  2  0
 20 22  1  0
 22 23  1  0
 23 24  2  0
 24 25  1  0
 25 26  2  0
 26 27  1  0
 27 28  2  0
 28 29  1  0
 29 30  2  0
 30 31  1  0
 31 32  2  0
 19 33  1  0
 33 34  2  0
 10 35  2  0
 35 36  1  0
 36  2  1  0
 36  6  2  0
 34 16  1  0
 32 23  1  0
 32 27  1  0
  1 37  1  0
  1 38  1  0
  1 39  1  0
  3 40  1  0
  4 41  1  0
  5 42  1  0
  9 43  1  0
 11 44  1  0
 11 45  1  0
 12 46  1  0
 12 47  1  0
 15 48  1  0
 17 49  1  0
 18 50  1  0
 22 51  1  0
 24 52  1  0
 25 53  1  0
 26 54  1  0
 28 55  1  0
 29 56  1  0
 30 57  1  0
 33 58  1  0
 34 59  1  0
M  END
$$$$
