
     RDKit          3D

 68 71  0  0  0  0  0  0  0  0999 V2000
   -5.8023   -3.6187   -4.6385 C   0  0  0  0  0  0  0  0  0  0  0  0
   -4.8869   -3.8188   -3.5300 N   0  0  0  0  0  0  0  0  0  0  0  0
   -4.9835   -3.0729   -2.3249 C   0  0  0  0  0  0  0  0  0  0  0  0
   -5.9221   -2.2135   -2.2691 O   0  0  0  0  0  0  0  0  0  0  0  0
   -4.0783   -3.2490   -1.1856 C   0  0  0  0  0  0  0  0  0  0  0  0
   -4.4424   -2.2968   -0.0544 C   0  0  0  0  0  0  0  0  0  0  0  0
   -3.2348   -1.4055    0.1353 C   0  0  1  0  0  0  0  0  0  0  0  0
   -3.0852   -0.9177    1.4839 N   0  0  0  0  0  0  0  0  0  0  0  0
   -3.0575    0.4590    1.7829 C   0  0  0  0  0  0  0  0  0  0  0  0
   -3.1731    1.2514    0.7846 O   0  0  0  0  0  0  0  0  0  0  0  0
   -2.9079    0.9414    3.1287 C   0  0  0  0  0  0  0  0  0  0  0  0
   -2.9154    2.2988    3.3604 C   0  0  0  0  0  0  0  0  0  0  0  0
   -2.7737    2.8218    4.6473 C   0  0  0  0  0  0  0  0  0  0  0  0
   -2.6258    1.9147    5.6803 C   0  0  0  0  0  0  0  0  0  0  0  0
   -2.4803    2.4056    6.9908 O   0  0  0  0  0  0  0  0  0  0  0  0
   -2.6133    0.5596    5.4945 C   0  0  0  0  0  0  0  0  0  0  0  0
   -2.7590    0.0883    4.1808 C   0  0  0  0  0  0  0  0  0  0  0  0
   -2.0862   -2.2924   -0.2224 C   0  0  2  0  0  0  0  0  0  0  0  0
   -0.8734   -1.6326   -0.4473 O   0  0  0  0  0  0  0  0  0  0  0  0
    0.3316   -2.0257    0.1249 C   0  0  0  0  0  0  0  0  0  0  0  0
    0.3606   -3.0112    0.8716 O   0  0  0  0  0  0  0  0  0  0  0  0
    1.5519   -1.2819   -0.1532 C   0  0  0  0  0  0  0  0  0  0  0  0
    2.7281   -1.7283    0.3993 C   0  0  0  0  0  0  0  0  0  0  0  0
    3.8848   -1.0227    0.1561 C   0  0  0  0  0  0  0  0  0  0  0  0
    5.0862   -1.4945    0.7304 O   0  0  0  0  0  0  0  0  0  0  0  0
    3.9515    0.1188   -0.6134 C   0  0  0  0  0  0  0  0  0  0  0  0
    5.2096    0.7284   -0.9027 C   0  0  0  0  0  0  0  0  0  0  0  0
    6.2318   -0.0727   -0.8136 O   0  0  0  0  0  0  0  0  0  0  0  0
    5.4869    2.0913   -1.2861 C   0  0  0  0  0  0  0  0  0  0  0  0
    6.4777    2.2494   -2.2905 C   0  0  0  0  0  0  0  0  0  0  0  0
    7.0451    1.1009   -2.8152 O   0  0  0  0  0  0  0  0  0  0  0  0
    6.8394    3.5017   -2.7070 C   0  0  0  0  0  0  0  0  0  0  0  0
    6.2791    4.6390   -2.1897 C   0  0  0  0  0  0  0  0  0  0  0  0
    5.3269    4.5155   -1.2202 C   0  0  0  0  0  0  0  0  0  0  0  0
    4.9346    3.2240   -0.7669 C   0  0  0  0  0  0  0  0  0  0  0  0
    4.0806    3.1761    0.4062 C   0  0  0  0  0  0  0  0  0  0  0  0
    3.8637    2.1637    1.0647 O   0  0  0  0  0  0  0  0  0  0  0  0
    3.4281    4.3456    0.8668 O   0  0  0  0  0  0  0  0  0  0  0  0
    2.7259    0.5282   -1.1522 C   0  0  0  0  0  0  0  0  0  0  0  0
    2.6954    1.6504   -1.9370 O   0  0  0  0  0  0  0  0  0  0  0  0
    1.5538   -0.1463   -0.9334 C   0  0  0  0  0  0  0  0  0  0  0  0
   -2.6246   -2.9217   -1.5251 C   0  0  0  0  0  0  0  0  0  0  0  0
   -6.7830   -4.0427   -4.3388 H   0  0  0  0  0  0  0  0  0  0  0  0
   -5.4300   -4.0364   -5.5786 H   0  0  0  0  0  0  0  0  0  0  0  0
   -5.9321   -2.5091   -4.7921 H   0  0  0  0  0  0  0  0  0  0  0  0
   -4.1132   -4.5243   -3.5735 H   0  0  0  0  0  0  0  0  0  0  0  0
   -4.0720   -4.2953   -0.7829 H   0  0  0  0  0  0  0  0  0  0  0  0
   -4.5790   -2.8568    0.8754 H   0  0  0  0  0  0  0  0  0  0  0  0
   -5.3616   -1.7021   -0.3330 H   0  0  0  0  0  0  0  0  0  0  0  0
   -3.2969   -0.5405   -0.5724 H   0  0  0  0  0  0  0  0  0  0  0  0
   -2.9970   -1.6174    2.2340 H   0  0  0  0  0  0  0  0  0  0  0  0
   -3.0310    3.0334    2.5587 H   0  0  0  0  0  0  0  0  0  0  0  0
   -2.7786    3.8810    4.8381 H   0  0  0  0  0  0  0  0  0  0  0  0
   -2.5143    3.3849    7.1985 H   0  0  0  0  0  0  0  0  0  0  0  0
   -2.4971   -0.1191    6.3229 H   0  0  0  0  0  0  0  0  0  0  0  0
   -2.7413   -0.9903    4.0851 H   0  0  0  0  0  0  0  0  0  0  0  0
   -1.9962   -3.1405    0.4816 H   0  0  0  0  0  0  0  0  0  0  0  0
    2.7359   -2.6366    1.0247 H   0  0  0  0  0  0  0  0  0  0  0  0
    5.6396   -2.1293    0.1313 H   0  0  0  0  0  0  0  0  0  0  0  0
    6.9820    0.7940   -3.7662 H   0  0  0  0  0  0  0  0  0  0  0  0
    7.5943    3.5971   -3.4724 H   0  0  0  0  0  0  0  0  0  0  0  0
    6.5718    5.6422   -2.5286 H   0  0  0  0  0  0  0  0  0  0  0  0
    4.8355    5.3813   -0.7622 H   0  0  0  0  0  0  0  0  0  0  0  0
    3.1472    4.3905    1.8592 H   0  0  0  0  0  0  0  0  0  0  0  0
    1.9368    2.3329   -1.9681 H   0  0  0  0  0  0  0  0  0  0  0  0
    0.5986    0.1670   -1.3464 H   0  0  0  0  0  0  0  0  0  0  0  0
   -2.0604   -3.8324   -1.7729 H   0  0  0  0  0  0  0  0  0  0  0  0
   -2.6056   -2.1821   -2.3474 H   0  0  0  0  0  0  0  0  0  0  0  0
  1  2  1  0
  2  3  1  0
  3  4  2  0
  3  5  1  0
  5  6  1  0
  6  7  1  0
  7  8  1  0
  8  9  1  0
  9 10  2  0
  9 11  1  0
 11 12  2  0
 12 13  1  0
 13 14  2  0
 14 15  1  0
 14 16  1  0
 16 17  2  0
  7 18  1  0
 18 19  1  0
 19 20  1  0
 20 21  2  0
 20 22  1  0
 22 23  2  0
 23 24  1  0
 24 25  1  0
 24 26  2  0
 26 27  1  0
 27 28  2  0
 27 29  1  0
 29 30  2  0
 30 31  1  0
 30 32  1  0
 32 33  2  0
 33 34  1  0
 34 35  2  0
 35 36  1  0
 36 37  2  0
 36 38  1  0
 26 39  1  0
 39 40  1  0
 39 41  2  0
 18 42  1  0
 42  5  1  0
 17 11  1  0
 41 22  1  0
 35 29  1  0
  1 43  1  0
  1 44  1  0
  1 45  1  0
  2 46  1  0
  5 47  1  0
  6 48  1  0
  6 49  1  0
  7 50  1  6
  8 51  1  0
 12 52  1  0
 13 53  1  0
 15 54  1  0
 16 55  1  0
 17 56  1  0
 18 57  1  1
 23 58  1  0
 25 59  1  0
 31 60  1  0
 32 61  1  0
 33 62  1  0
 34 63  1  0
 38 64  1  0
 40 65  1  0
 41 66  1  0
 42 67  1  0
 42 68  1  0
M  END
$$$$
