
     RDKit          3D

 47 47  0  0  0  0  0  0  0  0999 V2000
    5.6791    0.1438    0.8454 C   0  0  2  0  0  0  0  0  0  0  0  0
    5.4955    1.3836    1.6625 C   0  0  0  0  0  0  0  0  0  0  0  0
    6.5531    0.3712   -0.3004 N   0  0  0  0  0  0  0  0  0  0  0  0
    4.4456   -0.4487    0.3374 C   0  0  0  0  0  0  0  0  0  0  0  0
    4.4122   -0.6240   -0.9202 O   0  0  0  0  0  0  0  0  0  0  0  0
    3.3024   -0.8422    1.0807 N   0  0  0  0  0  0  0  0  0  0  0  0
    2.1737   -1.4102    0.4135 C   0  0  1  0  0  0  0  0  0  0  0  0
    1.8630   -2.8161    0.8795 C   0  0  0  0  0  0  0  0  0  0  0  0
    0.9371   -0.5904    0.5930 C   0  0  0  0  0  0  0  0  0  0  0  0
    1.2089    0.3970    1.2902 O   0  0  0  0  0  0  0  0  0  0  0  0
   -0.2614   -1.0431   -0.0200 N   0  0  0  0  0  0  0  0  0  0  0  0
   -1.4967   -0.2502    0.1429 C   0  0  1  0  0  0  0  0  0  0  0  0
   -1.8964    0.1218   -1.2353 C   0  0  0  0  0  0  0  0  0  0  0  0
   -3.1058    0.9239   -1.3884 C   0  0  0  0  0  0  0  0  0  0  0  0
   -4.4143    0.4840   -1.5613 C   0  0  0  0  0  0  0  0  0  0  0  0
   -5.4815    1.3342   -1.6955 C   0  0  0  0  0  0  0  0  0  0  0  0
   -5.3042    2.6961   -1.6648 C   0  0  0  0  0  0  0  0  0  0  0  0
   -4.0265    3.2056   -1.4955 C   0  0  0  0  0  0  0  0  0  0  0  0
   -2.9927    2.3107   -1.3659 C   0  0  0  0  0  0  0  0  0  0  0  0
   -2.4335   -1.1690    0.8749 C   0  0  1  0  0  0  0  0  0  0  0  0
   -3.7068   -0.5737    1.3369 C   0  0  0  0  0  0  0  0  0  0  0  0
   -2.6753   -2.3352    0.1347 O   0  0  0  0  0  0  0  0  0  0  0  0
    6.1991   -0.6067    1.4768 H   0  0  0  0  0  0  0  0  0  0  0  0
    4.4479    1.6994    1.8086 H   0  0  0  0  0  0  0  0  0  0  0  0
    5.9965    2.2350    1.1411 H   0  0  0  0  0  0  0  0  0  0  0  0
    5.9489    1.3339    2.6700 H   0  0  0  0  0  0  0  0  0  0  0  0
    7.0422    1.2867   -0.1597 H   0  0  0  0  0  0  0  0  0  0  0  0
    5.9851    0.4688   -1.1918 H   0  0  0  0  0  0  0  0  0  0  0  0
    3.3510   -0.6903    2.1033 H   0  0  0  0  0  0  0  0  0  0  0  0
    2.3811   -1.4608   -0.6751 H   0  0  0  0  0  0  0  0  0  0  0  0
    2.8210   -3.3828    0.9607 H   0  0  0  0  0  0  0  0  0  0  0  0
    1.4126   -2.8552    1.8798 H   0  0  0  0  0  0  0  0  0  0  0  0
    1.2439   -3.3583    0.1525 H   0  0  0  0  0  0  0  0  0  0  0  0
   -0.2430   -1.9282   -0.5733 H   0  0  0  0  0  0  0  0  0  0  0  0
   -1.1989    0.5991    0.7597 H   0  0  0  0  0  0  0  0  0  0  0  0
   -1.9555   -0.7781   -1.8837 H   0  0  0  0  0  0  0  0  0  0  0  0
   -1.0374    0.7058   -1.6681 H   0  0  0  0  0  0  0  0  0  0  0  0
   -4.5214   -0.6119   -1.5814 H   0  0  0  0  0  0  0  0  0  0  0  0
   -6.4694    0.9026   -1.8266 H   0  0  0  0  0  0  0  0  0  0  0  0
   -6.1578    3.3375   -1.7723 H   0  0  0  0  0  0  0  0  0  0  0  0
   -3.8608    4.2673   -1.4680 H   0  0  0  0  0  0  0  0  0  0  0  0
   -2.0162    2.7462   -1.2363 H   0  0  0  0  0  0  0  0  0  0  0  0
   -1.8548   -1.5289    1.7780 H   0  0  0  0  0  0  0  0  0  0  0  0
   -3.8336   -0.7408    2.4460 H   0  0  0  0  0  0  0  0  0  0  0  0
   -4.6195   -1.0231    0.8999 H   0  0  0  0  0  0  0  0  0  0  0  0
   -3.7105    0.5411    1.2461 H   0  0  0  0  0  0  0  0  0  0  0  0
   -3.6262   -2.4274   -0.1136 H   0  0  0  0  0  0  0  0  0  0  0  0
  1  2  1  0
  1  3  1  0
  1  4  1  0
  4  5  2  0
  4  6  1  0
  6  7  1  0
  7  8  1  0
  7  9  1  0
  9 10  2  0
  9 11  1  0
 11 12  1  0
 12 13  1  0
 13 14  1  0
 14 15  2  0
 15 16  1  0
 16 17  2  0
 17 18  1  0
 18 19  2  0
 12 20  1  0
 20 21  1  0
 20 22  1  0
 19 14  1  0
  1 23  1  1
  2 24  1  0
  2 25  1  0
  2 26  1  0
  3 27  1  0
  3 28  1  0
  6 29  1  0
  7 30  1  6
  8 31  1  0
  8 32  1  0
  8 33  1  0
 11 34  1  0
 12 35  1  1
 13 36  1  0
 13 37  1  0
 15 38  1  0
 16 39  1  0
 17 40  1  0
 18 41  1  0
 19 42  1  0
 20 43  1  1
 21 44  1  0
 21 45  1  0
 21 46  1  0
 22 47  1  0
M  END
$$$$
