
     RDKit          3D

 43 45  0  0  0  0  0  0  0  0999 V2000
    3.7988    0.1168   -0.0046 C   0  0  0  0  0  0  0  0  0  0  0  0
    3.1275   -0.9871   -0.7348 C   0  0  0  0  0  0  0  0  0  0  0  0
    1.6853   -0.7706   -1.0868 C   0  0  0  0  0  0  0  0  0  0  0  0
    0.9874    0.0971   -0.2001 N   0  0  0  0  0  0  0  0  0  0  0  0
    1.6396    0.2888    1.0649 C   0  0  0  0  0  0  0  0  0  0  0  0
    2.9222    1.0271    0.7821 C   0  0  0  0  0  0  0  0  0  0  0  0
   -0.4261   -0.1944   -0.0666 C   0  0  0  0  0  0  0  0  0  0  0  0
   -1.0908   -0.2113   -1.3986 C   0  0  0  0  0  0  0  0  0  0  0  0
   -1.7265   -1.5165   -1.7784 C   0  0  0  0  0  0  0  0  0  0  0  0
   -2.5932   -1.9762   -0.6119 C   0  0  0  0  0  0  0  0  0  0  0  0
   -1.6040   -2.3823    0.4452 C   0  0  0  0  0  0  0  0  0  0  0  0
   -0.6055   -1.3511    0.8157 C   0  0  0  0  0  0  0  0  0  0  0  0
   -0.9605    1.0342    0.6115 C   0  0  0  0  0  0  0  0  0  0  0  0
   -2.0685    0.8813    1.4141 C   0  0  0  0  0  0  0  0  0  0  0  0
   -2.6533    1.9438    2.0790 C   0  0  0  0  0  0  0  0  0  0  0  0
   -2.1360    3.2173    1.9578 C   0  0  0  0  0  0  0  0  0  0  0  0
   -1.0386    3.3776    1.1647 C   0  0  0  0  0  0  0  0  0  0  0  0
   -0.4517    2.3366    0.5028 C   0  0  0  0  0  0  0  0  0  0  0  0
    4.4466    0.7521   -0.6693 H   0  0  0  0  0  0  0  0  0  0  0  0
    4.5451   -0.3367    0.7121 H   0  0  0  0  0  0  0  0  0  0  0  0
    3.2531   -1.9774   -0.2179 H   0  0  0  0  0  0  0  0  0  0  0  0
    3.7255   -1.1297   -1.6839 H   0  0  0  0  0  0  0  0  0  0  0  0
    1.6577   -0.3269   -2.1037 H   0  0  0  0  0  0  0  0  0  0  0  0
    1.1957   -1.7643   -1.1280 H   0  0  0  0  0  0  0  0  0  0  0  0
    1.9078   -0.6670    1.5593 H   0  0  0  0  0  0  0  0  0  0  0  0
    0.9539    0.8112    1.7471 H   0  0  0  0  0  0  0  0  0  0  0  0
    3.3841    1.2768    1.7586 H   0  0  0  0  0  0  0  0  0  0  0  0
    2.7444    1.9482    0.1910 H   0  0  0  0  0  0  0  0  0  0  0  0
   -1.8832    0.5542   -1.5321 H   0  0  0  0  0  0  0  0  0  0  0  0
   -0.3482    0.0206   -2.1900 H   0  0  0  0  0  0  0  0  0  0  0  0
   -2.4207   -1.3495   -2.6189 H   0  0  0  0  0  0  0  0  0  0  0  0
   -1.0007   -2.3005   -1.9789 H   0  0  0  0  0  0  0  0  0  0  0  0
   -3.3431   -1.2494   -0.3072 H   0  0  0  0  0  0  0  0  0  0  0  0
   -3.1490   -2.9048   -0.8979 H   0  0  0  0  0  0  0  0  0  0  0  0
   -2.1421   -2.7876    1.3318 H   0  0  0  0  0  0  0  0  0  0  0  0
   -1.0730   -3.2836    0.0164 H   0  0  0  0  0  0  0  0  0  0  0  0
    0.3822   -1.8840    0.9711 H   0  0  0  0  0  0  0  0  0  0  0  0
   -0.8474   -1.0292    1.8744 H   0  0  0  0  0  0  0  0  0  0  0  0
   -2.5976   -0.0370    1.6181 H   0  0  0  0  0  0  0  0  0  0  0  0
   -3.5330    1.8718    2.7267 H   0  0  0  0  0  0  0  0  0  0  0  0
   -2.5175    4.1173    2.4352 H   0  0  0  0  0  0  0  0  0  0  0  0
   -0.5641    4.3254    1.0070 H   0  0  0  0  0  0  0  0  0  0  0  0
    0.4175    2.4187   -0.1356 H   0  0  0  0  0  0  0  0  0  0  0  0
  1  2  1  0
  2  3  1  0
  3  4  1  0
  4  5  1  0
  5  6  1  0
  4  7  1  0
  7  8  1  0
  8  9  1  0
  9 10  1  0
 10 11  1  0
 11 12  1  0
  7 13  1  0
 13 14  2  0
 14 15  1  0
 15 16  2  0
 16 17  1  0
 17 18  2  0
  6  1  1  0
 12  7  1  0
 18 13  1  0
  1 19  1  0
  1 20  1  0
  2 21  1  0
  2 22  1  0
  3 23  1  0
  3 24  1  0
  5 25  1  0
  5 26  1  0
  6 27  1  0
  6 28  1  0
  8 29  1  0
  8 30  1  0
  9 31  1  0
  9 32  1  0
 10 33  1  0
 10 34  1  0
 11 35  1  0
 11 36  1  0
 12 37  1  0
 12 38  1  0
 14 39  1  0
 15 40  1  0
 16 41  1  0
 17 42  1  0
 18 43  1  0
M  END
$$$$
