
     RDKit          3D

 53 55  0  0  0  0  0  0  0  0999 V2000
   -6.1939    3.3211   -0.4000 C   0  0  0  0  0  0  0  0  0  0  0  0
   -6.0305    1.9486   -0.9328 C   0  0  0  0  0  0  0  0  0  0  0  0
   -6.9870    1.4500   -1.6204 N   0  0  0  0  0  0  0  0  0  0  0  0
   -4.8446    1.2438   -0.6705 N   0  0  0  0  0  0  0  0  0  0  0  0
   -3.5893    1.9298   -0.4537 C   0  0  0  0  0  0  0  0  0  0  0  0
   -4.8414   -0.2164   -0.6077 C   0  0  0  0  0  0  0  0  0  0  0  0
   -3.4807   -0.7340   -0.3192 C   0  0  0  0  0  0  0  0  0  0  0  0
   -2.5885   -1.0399   -1.3114 C   0  0  0  0  0  0  0  0  0  0  0  0
   -1.3189   -1.5239   -0.9803 C   0  0  0  0  0  0  0  0  0  0  0  0
   -0.9490   -1.6987    0.3252 C   0  0  0  0  0  0  0  0  0  0  0  0
    0.3655   -2.2003    0.6850 C   0  0  0  0  0  0  0  0  0  0  0  0
    0.6597   -2.3447    1.9152 O   0  0  0  0  0  0  0  0  0  0  0  0
    1.3649   -2.5481   -0.2414 N   0  0  0  0  0  0  0  0  0  0  0  0
    2.6421   -3.0366    0.1472 C   0  0  0  0  0  0  0  0  0  0  0  0
    2.8106   -4.4006    0.2961 C   0  0  0  0  0  0  0  0  0  0  0  0
    4.0306   -4.9163    0.6711 C   0  0  0  0  0  0  0  0  0  0  0  0
    5.0740   -4.0422    0.8930 C   0  0  0  0  0  0  0  0  0  0  0  0
    6.6645   -4.6071    1.3738 Cl  0  0  0  0  0  0  0  0  0  0  0  0
    4.8736   -2.6762    0.7352 C   0  0  0  0  0  0  0  0  0  0  0  0
    3.6693   -2.1487    0.3636 C   0  0  0  0  0  0  0  0  0  0  0  0
    3.3866   -0.7228    0.1786 C   0  0  0  0  0  0  0  0  0  0  0  0
    2.2361   -0.3436   -0.1670 O   0  0  0  0  0  0  0  0  0  0  0  0
    4.3686    0.2856    0.3736 N   0  0  0  0  0  0  0  0  0  0  0  0
    4.2117    1.6712    0.2262 C   0  0  0  0  0  0  0  0  0  0  0  0
    3.0971    2.3526   -0.1322 C   0  0  0  0  0  0  0  0  0  0  0  0
    3.1123    3.7287   -0.2314 C   0  0  0  0  0  0  0  0  0  0  0  0
    4.2658    4.4349    0.0336 C   0  0  0  0  0  0  0  0  0  0  0  0
    4.3385    6.1797   -0.0775 Cl  0  0  0  0  0  0  0  0  0  0  0  0
    5.4004    3.7360    0.3988 C   0  0  0  0  0  0  0  0  0  0  0  0
    5.3287    2.4219    0.4777 N   0  0  0  0  0  0  0  0  0  0  0  0
   -1.8679   -1.3824    1.3027 C   0  0  0  0  0  0  0  0  0  0  0  0
   -3.1267   -0.9034    1.0029 C   0  0  0  0  0  0  0  0  0  0  0  0
   -5.9810    4.0252   -1.2479 H   0  0  0  0  0  0  0  0  0  0  0  0
   -7.2287    3.5292   -0.0626 H   0  0  0  0  0  0  0  0  0  0  0  0
   -5.4356    3.5264    0.3625 H   0  0  0  0  0  0  0  0  0  0  0  0
   -7.0217    0.5233   -2.0507 H   0  0  0  0  0  0  0  0  0  0  0  0
   -3.6909    2.9336   -0.9262 H   0  0  0  0  0  0  0  0  0  0  0  0
   -3.4073    2.0728    0.6311 H   0  0  0  0  0  0  0  0  0  0  0  0
   -2.7207    1.3814   -0.8555 H   0  0  0  0  0  0  0  0  0  0  0  0
   -5.5127   -0.5817    0.1921 H   0  0  0  0  0  0  0  0  0  0  0  0
   -5.2409   -0.6385   -1.5549 H   0  0  0  0  0  0  0  0  0  0  0  0
   -2.8715   -0.9051   -2.3463 H   0  0  0  0  0  0  0  0  0  0  0  0
   -0.6678   -1.7444   -1.7996 H   0  0  0  0  0  0  0  0  0  0  0  0
    1.1700   -2.4467   -1.2611 H   0  0  0  0  0  0  0  0  0  0  0  0
    1.9939   -5.0931    0.1231 H   0  0  0  0  0  0  0  0  0  0  0  0
    4.2142   -5.9731    0.8011 H   0  0  0  0  0  0  0  0  0  0  0  0
    5.7053   -2.0201    0.9151 H   0  0  0  0  0  0  0  0  0  0  0  0
    5.3254   -0.0887    0.6654 H   0  0  0  0  0  0  0  0  0  0  0  0
    2.1991    1.8366   -0.3410 H   0  0  0  0  0  0  0  0  0  0  0  0
    2.2454    4.3109   -0.5141 H   0  0  0  0  0  0  0  0  0  0  0  0
    6.2903    4.3016    0.6017 H   0  0  0  0  0  0  0  0  0  0  0  0
   -1.6195   -1.5041    2.3327 H   0  0  0  0  0  0  0  0  0  0  0  0
   -3.8274   -0.6635    1.7923 H   0  0  0  0  0  0  0  0  0  0  0  0
  1  2  1  0
  2  3  2  3
  2  4  1  0
  4  5  1  0
  4  6  1  0
  6  7  1  0
  7  8  2  0
  8  9  1  0
  9 10  2  0
 10 11  1  0
 11 12  2  0
 11 13  1  0
 13 14  1  0
 14 15  2  0
 15 16  1  0
 16 17  2  0
 17 18  1  0
 17 19  1  0
 19 20  2  0
 20 21  1  0
 21 22  2  0
 21 23  1  0
 23 24  1  0
 24 25  2  0
 25 26  1  0
 26 27  2  0
 27 28  1  0
 27 29  1  0
 29 30  2  0
 10 31  1  0
 31 32  2  0
 32  7  1  0
 20 14  1  0
 30 24  1  0
  1 33  1  0
  1 34  1  0
  1 35  1  0
  3 36  1  0
  5 37  1  0
  5 38  1  0
  5 39  1  0
  6 40  1  0
  6 41  1  0
  8 42  1  0
  9 43  1  0
 13 44  1  0
 15 45  1  0
 16 46  1  0
 19 47  1  0
 23 48  1  0
 25 49  1  0
 26 50  1  0
 29 51  1  0
 31 52  1  0
 32 53  1  0
M  END
$$$$
