
     RDKit          3D

 38 41  0  0  0  0  0  0  0  0999 V2000
    5.4176   -0.3419   -0.2707 O   0  0  0  0  0  0  0  0  0  0  0  0
    4.0608   -0.3144    0.0381 C   0  0  0  0  0  0  0  0  0  0  0  0
    3.2028   -0.1436   -1.0521 C   0  0  0  0  0  0  0  0  0  0  0  0
    1.8272   -0.1079   -0.8041 C   0  0  0  0  0  0  0  0  0  0  0  0
    1.2681   -0.2308    0.4480 C   0  0  0  0  0  0  0  0  0  0  0  0
    2.1649   -0.3983    1.4944 C   0  0  0  0  0  0  0  0  0  0  0  0
    3.5313   -0.4404    1.3057 C   0  0  0  0  0  0  0  0  0  0  0  0
   -0.1929   -0.1879    0.6826 C   0  0  0  0  0  0  0  0  0  0  0  0
   -0.5069   -0.1155    2.0565 O   0  0  0  0  0  0  0  0  0  0  0  0
   -1.3958   -1.1363    2.3218 C   0  0  0  0  0  0  0  0  0  0  0  0
   -1.8688   -1.3220    3.4754 O   0  0  0  0  0  0  0  0  0  0  0  0
   -1.7121   -1.9454    1.1521 C   0  0  0  0  0  0  0  0  0  0  0  0
   -2.5327   -3.0402    0.9848 C   0  0  0  0  0  0  0  0  0  0  0  0
   -2.6008   -3.5814   -0.2847 C   0  0  0  0  0  0  0  0  0  0  0  0
   -1.8618   -3.0163   -1.3074 C   0  0  0  0  0  0  0  0  0  0  0  0
   -1.0488   -1.9113   -1.0852 C   0  0  0  0  0  0  0  0  0  0  0  0
   -0.9461   -1.3267    0.1827 C   0  0  0  0  0  0  0  0  0  0  0  0
   -0.6634    1.1347    0.1251 C   0  0  0  0  0  0  0  0  0  0  0  0
   -1.4981    1.2622   -0.9535 C   0  0  0  0  0  0  0  0  0  0  0  0
   -1.8996    2.4898   -1.4327 C   0  0  0  0  0  0  0  0  0  0  0  0
   -1.4685    3.6487   -0.8339 C   0  0  0  0  0  0  0  0  0  0  0  0
   -1.8587    4.8956   -1.2973 O   0  0  0  0  0  0  0  0  0  0  0  0
   -0.6177    3.5127    0.2653 C   0  0  0  0  0  0  0  0  0  0  0  0
   -0.2079    2.2775    0.7551 C   0  0  0  0  0  0  0  0  0  0  0  0
    6.0496   -0.8352    0.3263 H   0  0  0  0  0  0  0  0  0  0  0  0
    3.5715   -0.0389   -2.0761 H   0  0  0  0  0  0  0  0  0  0  0  0
    1.2068    0.0282   -1.6752 H   0  0  0  0  0  0  0  0  0  0  0  0
    1.8102   -0.5047    2.5198 H   0  0  0  0  0  0  0  0  0  0  0  0
    4.2321   -0.5721    2.1305 H   0  0  0  0  0  0  0  0  0  0  0  0
   -3.0847   -3.4373    1.8200 H   0  0  0  0  0  0  0  0  0  0  0  0
   -3.2246   -4.4400   -0.4873 H   0  0  0  0  0  0  0  0  0  0  0  0
   -1.9545   -3.4828   -2.2833 H   0  0  0  0  0  0  0  0  0  0  0  0
   -0.5358   -1.5737   -1.9486 H   0  0  0  0  0  0  0  0  0  0  0  0
   -1.8483    0.3858   -1.4382 H   0  0  0  0  0  0  0  0  0  0  0  0
   -2.5635    2.5126   -2.2932 H   0  0  0  0  0  0  0  0  0  0  0  0
   -2.4126    5.5223   -0.7280 H   0  0  0  0  0  0  0  0  0  0  0  0
   -0.2909    4.4589    0.7203 H   0  0  0  0  0  0  0  0  0  0  0  0
    0.4527    2.3160    1.6146 H   0  0  0  0  0  0  0  0  0  0  0  0
  1  2  1  0
  2  3  2  0
  3  4  1  0
  4  5  2  0
  5  6  1  0
  6  7  2  0
  5  8  1  0
  8  9  1  0
  9 10  1  0
 10 11  2  0
 10 12  1  0
 12 13  2  0
 13 14  1  0
 14 15  2  0
 15 16  1  0
 16 17  2  0
  8 18  1  0
 18 19  2  0
 19 20  1  0
 20 21  2  0
 21 22  1  0
 21 23  1  0
 23 24  2  0
  7  2  1  0
 17  8  1  0
 24 18  1  0
 17 12  1  0
  1 25  1  0
  3 26  1  0
  4 27  1  0
  6 28  1  0
  7 29  1  0
 13 30  1  0
 14 31  1  0
 15 32  1  0
 16 33  1  0
 19 34  1  0
 20 35  1  0
 22 36  1  0
 23 37  1  0
 24 38  1  0
M  END
$$$$
