
     RDKit          3D

 50 51  0  0  0  0  0  0  0  0999 V2000
   -1.2873   -2.3938    2.3634 C   0  0  0  0  0  0  0  0  0  0  0  0
   -2.0562   -1.1173    2.2442 C   0  0  0  0  0  0  0  0  0  0  0  0
   -1.6353   -0.1675    1.2178 C   0  0  0  0  0  0  0  0  0  0  0  0
   -2.4059    0.8085    1.3346 O   0  0  0  0  0  0  0  0  0  0  0  0
   -0.5807   -0.0500    0.1148 C   0  0  0  0  0  0  0  0  0  0  0  0
    0.7791   -0.1728    0.6626 C   0  0  0  0  0  0  0  0  0  0  0  0
    1.9481   -0.0870   -0.2560 C   0  0  0  0  0  0  0  0  0  0  0  0
    2.1233    1.1927   -1.0308 C   0  0  0  0  0  0  0  0  0  0  0  0
    3.1379   -0.1884    0.5758 N   0  0  0  0  0  0  0  0  0  0  0  0
    3.2347   -1.3917    1.3174 C   0  0  0  0  0  0  0  0  0  0  0  0
    3.5809    0.9908    1.1919 C   0  0  0  0  0  0  0  0  0  0  0  0
   -0.7432    1.3425   -0.3807 C   0  0  0  0  0  0  0  0  0  0  0  0
   -0.7405    2.2776    0.6702 C   0  0  0  0  0  0  0  0  0  0  0  0
   -0.8989    3.6408    0.4314 C   0  0  0  0  0  0  0  0  0  0  0  0
   -1.0645    4.1307   -0.8457 C   0  0  0  0  0  0  0  0  0  0  0  0
   -1.0662    3.2167   -1.8723 C   0  0  0  0  0  0  0  0  0  0  0  0
   -0.9104    1.8714   -1.6412 C   0  0  0  0  0  0  0  0  0  0  0  0
   -1.0025   -1.0669   -0.8692 C   0  0  0  0  0  0  0  0  0  0  0  0
   -2.2090   -0.6637   -1.4490 C   0  0  0  0  0  0  0  0  0  0  0  0
   -2.8543   -1.4480   -2.4131 C   0  0  0  0  0  0  0  0  0  0  0  0
   -2.2937   -2.6453   -2.8040 C   0  0  0  0  0  0  0  0  0  0  0  0
   -1.1196   -3.0488   -2.2461 C   0  0  0  0  0  0  0  0  0  0  0  0
   -0.5023   -2.2646   -1.3012 C   0  0  0  0  0  0  0  0  0  0  0  0
   -0.3258   -2.3406    2.8701 H   0  0  0  0  0  0  0  0  0  0  0  0
   -1.3049   -2.9198    1.3908 H   0  0  0  0  0  0  0  0  0  0  0  0
   -1.9065   -3.0794    3.0210 H   0  0  0  0  0  0  0  0  0  0  0  0
   -1.9826   -0.6359    3.2551 H   0  0  0  0  0  0  0  0  0  0  0  0
   -3.1294   -1.3861    2.1152 H   0  0  0  0  0  0  0  0  0  0  0  0
    0.9069    0.7199    1.3650 H   0  0  0  0  0  0  0  0  0  0  0  0
    0.9381   -1.1075    1.2604 H   0  0  0  0  0  0  0  0  0  0  0  0
    1.9684   -0.9064   -1.0258 H   0  0  0  0  0  0  0  0  0  0  0  0
    1.7752    1.0865   -2.0896 H   0  0  0  0  0  0  0  0  0  0  0  0
    1.7640    2.0982   -0.5664 H   0  0  0  0  0  0  0  0  0  0  0  0
    3.2419    1.3895   -1.1958 H   0  0  0  0  0  0  0  0  0  0  0  0
    4.3089   -1.6266    1.4935 H   0  0  0  0  0  0  0  0  0  0  0  0
    2.6378   -2.2258    0.9384 H   0  0  0  0  0  0  0  0  0  0  0  0
    2.8148   -1.2043    2.3507 H   0  0  0  0  0  0  0  0  0  0  0  0
    4.0334    0.7115    2.1865 H   0  0  0  0  0  0  0  0  0  0  0  0
    4.3789    1.5441    0.6583 H   0  0  0  0  0  0  0  0  0  0  0  0
    2.7213    1.6450    1.4411 H   0  0  0  0  0  0  0  0  0  0  0  0
   -0.6088    2.0905    1.7346 H   0  0  0  0  0  0  0  0  0  0  0  0
   -0.9050    4.4004    1.2018 H   0  0  0  0  0  0  0  0  0  0  0  0
   -1.1917    5.1632   -1.1057 H   0  0  0  0  0  0  0  0  0  0  0  0
   -1.1864    3.4757   -2.9074 H   0  0  0  0  0  0  0  0  0  0  0  0
   -0.8946    1.1156   -2.4116 H   0  0  0  0  0  0  0  0  0  0  0  0
   -2.7886    0.2320   -1.2645 H   0  0  0  0  0  0  0  0  0  0  0  0
   -3.7780   -1.2048   -2.9001 H   0  0  0  0  0  0  0  0  0  0  0  0
   -2.7530   -3.2906   -3.5474 H   0  0  0  0  0  0  0  0  0  0  0  0
   -0.5778   -3.9710   -2.4704 H   0  0  0  0  0  0  0  0  0  0  0  0
    0.4095   -2.5394   -0.8128 H   0  0  0  0  0  0  0  0  0  0  0  0
  1  2  1  0
  2  3  1  0
  3  4  2  0
  3  5  1  0
  5  6  1  0
  6  7  1  0
  7  8  1  0
  7  9  1  0
  9 10  1  0
  9 11  1  0
  5 12  1  0
 12 13  2  0
 13 14  1  0
 14 15  2  0
 15 16  1  0
 16 17  2  0
  5 18  1  0
 18 19  2  0
 19 20  1  0
 20 21  2  0
 21 22  1  0
 22 23  2  0
 17 12  1  0
 23 18  1  0
  1 24  1  0
  1 25  1  0
  1 26  1  0
  2 27  1  0
  2 28  1  0
  6 29  1  0
  6 30  1  0
  7 31  1  0
  8 32  1  0
  8 33  1  0
  8 34  1  0
 10 35  1  0
 10 36  1  0
 10 37  1  0
 11 38  1  0
 11 39  1  0
 11 40  1  0
 13 41  1  0
 14 42  1  0
 15 43  1  0
 16 44  1  0
 17 45  1  0
 19 46  1  0
 20 47  1  0
 21 48  1  0
 22 49  1  0
 23 50  1  0
M  END
$$$$
