
     RDKit          3D

 60 64  0  0  0  0  0  0  0  0999 V2000
   -0.2469    0.2785   -2.0299 C   0  0  0  0  0  0  0  0  0  0  0  0
   -0.1373   -0.7827   -0.8051 C   0  0  2  0  0  0  0  0  0  0  0  0
    0.2246    0.2203    0.2697 C   0  0  0  0  0  0  0  0  0  0  0  0
    1.5143    0.4680    0.6033 C   0  0  0  0  0  0  0  0  0  0  0  0
    1.8740    1.5206    1.4887 C   0  0  0  0  0  0  0  0  0  0  0  0
    3.1708    1.9503    1.8614 C   0  0  0  0  0  0  0  0  0  0  0  0
    4.2625    1.3360    2.1863 C   0  0  0  0  0  0  0  0  0  0  0  0
    4.1900   -0.0169    2.1891 F   0  0  0  0  0  0  0  0  0  0  0  0
    5.4892    2.0978    2.4532 C   0  0  0  0  0  0  0  0  0  0  0  0
    6.6564    1.5043    2.9211 C   0  0  0  0  0  0  0  0  0  0  0  0
    7.7876    2.3227    3.1268 C   0  0  0  0  0  0  0  0  0  0  0  0
    7.7506    3.6565    2.8842 C   0  0  0  0  0  0  0  0  0  0  0  0
    8.8275    4.5920    3.1879 C   0  0  0  0  0  0  0  0  0  0  0  0
    9.7240    5.3519    3.4531 N   0  0  0  0  0  0  0  0  0  0  0  0
    6.5657    4.2309    2.4111 C   0  0  0  0  0  0  0  0  0  0  0  0
    5.5266    3.3871    2.2311 N   0  0  0  0  0  0  0  0  0  0  0  0
    0.7797    2.2340    1.9736 C   0  0  0  0  0  0  0  0  0  0  0  0
   -0.5347    1.9890    1.6454 C   0  0  0  0  0  0  0  0  0  0  0  0
   -0.8071    0.9727    0.7780 C   0  0  0  0  0  0  0  0  0  0  0  0
   -2.1269    0.7790    0.4666 F   0  0  0  0  0  0  0  0  0  0  0  0
    0.9297   -1.5752   -1.2448 N   0  0  0  0  0  0  0  0  0  0  0  0
    0.8991   -2.7412   -1.7174 C   0  0  0  0  0  0  0  0  0  0  0  0
    2.1018   -3.4084   -2.1229 N   0  0  0  0  0  0  0  0  0  0  0  0
   -0.6325   -3.5983   -1.9158 S   0  0  0  0  0  0  0  0  0  0  0  0
   -1.9538   -2.6587   -1.1260 C   0  0  1  0  0  0  0  0  0  0  0  0
   -3.2225   -2.4965   -1.8727 C   0  0  0  0  0  0  0  0  0  0  0  0
   -2.8819   -2.3936   -3.2291 O   0  0  0  0  0  0  0  0  0  0  0  0
   -4.5096   -2.4035   -1.6836 N   0  0  0  0  0  0  0  0  0  0  0  0
   -5.4786   -2.0868   -2.8064 C   0  0  0  0  0  0  0  0  0  0  0  0
   -5.5643   -0.5713   -2.6151 C   0  0  0  0  0  0  0  0  0  0  0  0
   -5.8537   -0.1606   -1.2219 C   0  0  0  0  0  0  0  0  0  0  0  0
   -5.4105    1.1663   -1.0877 F   0  0  0  0  0  0  0  0  0  0  0  0
   -5.2843   -0.9303   -0.0883 C   0  0  0  0  0  0  0  0  0  0  0  0
   -5.2643   -2.4573   -0.4204 C   0  0  0  0  0  0  0  0  0  0  0  0
   -1.8330   -2.3472    0.2922 C   0  0  0  0  0  0  0  0  0  0  0  0
   -1.4807   -1.2927   -0.6411 C   0  0  1  0  0  0  0  0  0  0  0  0
   -0.4709   -0.3706   -2.8678 H   0  0  0  0  0  0  0  0  0  0  0  0
    0.7493    0.7070   -2.0493 H   0  0  0  0  0  0  0  0  0  0  0  0
   -1.0724    0.9354   -1.7852 H   0  0  0  0  0  0  0  0  0  0  0  0
    2.3599   -0.1068    0.2475 H   0  0  0  0  0  0  0  0  0  0  0  0
    3.2705    3.1022    1.8804 H   0  0  0  0  0  0  0  0  0  0  0  0
    6.6898    0.4613    3.1032 H   0  0  0  0  0  0  0  0  0  0  0  0
    8.7215    1.8937    3.4865 H   0  0  0  0  0  0  0  0  0  0  0  0
    6.4517    5.2619    2.1891 H   0  0  0  0  0  0  0  0  0  0  0  0
    0.9856    3.0445    2.6794 H   0  0  0  0  0  0  0  0  0  0  0  0
   -1.3483    2.5750    2.0607 H   0  0  0  0  0  0  0  0  0  0  0  0
    2.9539   -2.8377   -2.2011 H   0  0  0  0  0  0  0  0  0  0  0  0
    2.1324   -4.4177   -2.3471 H   0  0  0  0  0  0  0  0  0  0  0  0
   -5.0414   -2.3448   -3.7515 H   0  0  0  0  0  0  0  0  0  0  0  0
   -6.3880   -2.6230   -2.5756 H   0  0  0  0  0  0  0  0  0  0  0  0
   -6.3484   -0.1588   -3.2667 H   0  0  0  0  0  0  0  0  0  0  0  0
   -4.5388   -0.2120   -2.9341 H   0  0  0  0  0  0  0  0  0  0  0  0
   -6.9691   -0.0717   -1.0750 H   0  0  0  0  0  0  0  0  0  0  0  0
   -5.8921   -0.8005    0.8042 H   0  0  0  0  0  0  0  0  0  0  0  0
   -4.2213   -0.7084    0.0658 H   0  0  0  0  0  0  0  0  0  0  0  0
   -6.2845   -2.7982   -0.6008 H   0  0  0  0  0  0  0  0  0  0  0  0
   -4.7895   -2.9944    0.3708 H   0  0  0  0  0  0  0  0  0  0  0  0
   -1.0301   -2.9313    0.8253 H   0  0  0  0  0  0  0  0  0  0  0  0
   -2.7080   -2.2423    0.9316 H   0  0  0  0  0  0  0  0  0  0  0  0
   -2.2635   -0.4992   -0.9245 H   0  0  0  0  0  0  0  0  0  0  0  0
  2  1  1  6
  2  3  1  0
  3  4  2  0
  4  5  1  0
  5  6  1  0
  6  7  2  0
  7  8  1  0
  7  9  1  0
  9 10  2  0
 10 11  1  0
 11 12  2  0
 12 13  1  0
 13 14  3  0
 12 15  1  0
 15 16  2  0
  5 17  2  0
 17 18  1  0
 18 19  2  0
 19 20  1  0
  2 21  1  0
 21 22  2  0
 22 23  1  0
 22 24  1  0
 24 25  1  0
 25 26  1  1
 26 27  2  0
 26 28  1  0
 28 29  1  0
 29 30  1  0
 30 31  1  0
 31 32  1  0
 31 33  1  0
 33 34  1  0
 25 35  1  0
 35 36  1  0
 36  2  1  0
 19  3  1  0
 36 25  1  0
 16  9  1  0
 34 28  1  0
  1 37  1  0
  1 38  1  0
  1 39  1  0
  4 40  1  0
  6 41  1  0
 10 42  1  0
 11 43  1  0
 15 44  1  0
 17 45  1  0
 18 46  1  0
 23 47  1  0
 23 48  1  0
 29 49  1  0
 29 50  1  0
 30 51  1  0
 30 52  1  0
 31 53  1  0
 33 54  1  0
 33 55  1  0
 34 56  1  0
 34 57  1  0
 35 58  1  0
 35 59  1  0
 36 60  1  1
M  END
$$$$
