
     RDKit          3D

 33 33  0  0  0  0  0  0  0  0999 V2000
   -0.9225    1.7928   -0.7892 O   0  0  0  0  0  0  0  0  0  0  0  0
   -1.0203    0.5536   -0.6987 C   0  0  0  0  0  0  0  0  0  0  0  0
   -1.8561   -0.0140    0.2956 N   0  0  0  0  0  0  0  0  0  0  0  0
   -2.6204    0.7653    1.2336 C   0  0  0  0  0  0  0  0  0  0  0  0
   -3.5226   -0.3391    2.2962 S   0  0  0  0  0  6  0  0  0  0  0  0
   -2.5869   -1.2253    3.0680 O   0  0  0  0  0  0  0  0  0  0  0  0
   -4.3658    0.4150    3.2814 O   0  0  0  0  0  0  0  0  0  0  0  0
   -4.5565   -1.2914    1.3787 O   0  0  0  0  0  0  0  0  0  0  0  0
   -0.2640   -0.3031   -1.6290 C   0  0  0  0  0  0  0  0  0  0  0  0
    0.5584    0.5172   -2.6097 C   0  0  0  0  0  0  0  0  0  0  0  0
   -0.5937    1.5624   -3.5571 S   0  0  0  0  0  0  0  0  0  0  0  0
    0.5910   -1.3357   -0.9274 C   0  0  0  0  0  0  0  0  0  0  0  0
    1.5991   -0.7442   -0.0313 C   0  0  0  0  0  0  0  0  0  0  0  0
    1.3911   -0.4655    1.3030 C   0  0  0  0  0  0  0  0  0  0  0  0
    2.3909    0.0945    2.0888 C   0  0  0  0  0  0  0  0  0  0  0  0
    3.6309    0.3934    1.5640 C   0  0  0  0  0  0  0  0  0  0  0  0
    3.8450    0.1167    0.2291 C   0  0  0  0  0  0  0  0  0  0  0  0
    2.8429   -0.4411   -0.5452 C   0  0  0  0  0  0  0  0  0  0  0  0
   -1.8907   -1.0745    0.3137 H   0  0  0  0  0  0  0  0  0  0  0  0
   -1.8868    1.3305    1.8726 H   0  0  0  0  0  0  0  0  0  0  0  0
   -3.2838    1.5034    0.7858 H   0  0  0  0  0  0  0  0  0  0  0  0
   -4.2975   -1.2058    0.4404 H   0  0  0  0  0  0  0  0  0  0  0  0
   -0.9992   -0.8665   -2.2414 H   0  0  0  0  0  0  0  0  0  0  0  0
    1.2962    1.1296   -2.0747 H   0  0  0  0  0  0  0  0  0  0  0  0
    1.0027   -0.2008   -3.3252 H   0  0  0  0  0  0  0  0  0  0  0  0
   -0.4029    1.4183   -4.9369 H   0  0  0  0  0  0  0  0  0  0  0  0
    1.0311   -1.9759   -1.7122 H   0  0  0  0  0  0  0  0  0  0  0  0
   -0.1227   -1.9746   -0.3406 H   0  0  0  0  0  0  0  0  0  0  0  0
    0.4447   -0.6849    1.7382 H   0  0  0  0  0  0  0  0  0  0  0  0
    2.2424    0.3196    3.1407 H   0  0  0  0  0  0  0  0  0  0  0  0
    4.4261    0.8317    2.1624 H   0  0  0  0  0  0  0  0  0  0  0  0
    4.8153    0.3491   -0.1871 H   0  0  0  0  0  0  0  0  0  0  0  0
    3.0847   -0.6304   -1.5862 H   0  0  0  0  0  0  0  0  0  0  0  0
  1  2  2  0
  2  3  1  0
  3  4  1  0
  4  5  1  0
  5  6  2  0
  5  7  2  0
  5  8  1  0
  2  9  1  0
  9 10  1  0
 10 11  1  0
  9 12  1  0
 12 13  1  0
 13 14  2  0
 14 15  1  0
 15 16  2  0
 16 17  1  0
 17 18  2  0
 18 13  1  0
  3 19  1  0
  4 20  1  0
  4 21  1  0
  8 22  1  0
  9 23  1  0
 10 24  1  0
 10 25  1  0
 11 26  1  0
 12 27  1  0
 12 28  1  0
 14 29  1  0
 15 30  1  0
 16 31  1  0
 17 32  1  0
 18 33  1  0
M  END
$$$$
