
     RDKit          3D

 47 50  0  0  0  0  0  0  0  0999 V2000
    5.0143   -0.5465   -3.0629 C   0  0  0  0  0  0  0  0  0  0  0  0
    4.1132    0.0677   -2.1880 O   0  0  0  0  0  0  0  0  0  0  0  0
    4.4850    0.9399   -1.1754 C   0  0  0  0  0  0  0  0  0  0  0  0
    5.8166    1.2168   -1.0243 C   0  0  0  0  0  0  0  0  0  0  0  0
    6.1956    2.0804   -0.0224 C   0  0  0  0  0  0  0  0  0  0  0  0
    7.5603    2.3970    0.1756 C   0  0  0  0  0  0  0  0  0  0  0  0
    8.6800    2.6457    0.3338 N   0  0  0  0  0  0  0  0  0  0  0  0
    5.1942    2.6153    0.7711 C   0  0  0  0  0  0  0  0  0  0  0  0
    3.8909    2.3450    0.6236 N   0  0  0  0  0  0  0  0  0  0  0  0
    3.5263    1.4967   -0.3614 C   0  0  0  0  0  0  0  0  0  0  0  0
    2.1207    1.1681   -0.5793 C   0  0  0  0  0  0  0  0  0  0  0  0
    1.8252    0.4247   -1.5437 O   0  0  0  0  0  0  0  0  0  0  0  0
    1.0725    1.6355    0.2307 N   0  0  0  0  0  0  0  0  0  0  0  0
   -0.2932    1.3425    0.0539 C   0  0  0  0  0  0  0  0  0  0  0  0
   -1.0805    2.1629   -0.6962 C   0  0  0  0  0  0  0  0  0  0  0  0
   -2.4259    1.9185   -0.9069 C   0  0  0  0  0  0  0  0  0  0  0  0
   -2.9534    0.7848   -0.3143 C   0  0  0  0  0  0  0  0  0  0  0  0
   -4.2763    0.5326   -0.5136 F   0  0  0  0  0  0  0  0  0  0  0  0
   -2.1711   -0.0739    0.4592 C   0  0  0  0  0  0  0  0  0  0  0  0
   -2.8486   -1.2771    1.0496 C   0  0  1  0  0  0  0  0  0  0  0  0
   -1.8650   -1.9810    1.9602 C   0  0  0  0  0  0  0  0  0  0  0  0
   -2.4262   -3.0972    2.5531 F   0  0  0  0  0  0  0  0  0  0  0  0
   -1.5506   -1.1105    2.9815 F   0  0  0  0  0  0  0  0  0  0  0  0
   -3.8882   -0.7575    1.8868 N   0  0  0  0  0  0  0  0  0  0  0  0
   -5.1163   -1.0065    1.8135 C   0  0  0  0  0  0  0  0  0  0  0  0
   -6.0029   -0.3668    2.7698 N   0  0  0  0  0  0  0  0  0  0  0  0
   -5.5972   -1.8555    0.8596 O   0  0  0  0  0  0  0  0  0  0  0  0
   -4.8006   -2.3860   -0.1386 C   0  0  2  0  0  0  0  0  0  0  0  0
   -3.8605   -3.5086    0.1056 C   0  0  0  0  0  0  0  0  0  0  0  0
   -3.3685   -2.1392   -0.0368 C   0  0  2  0  0  0  0  0  0  0  0  0
   -0.8495    0.1990    0.6450 C   0  0  0  0  0  0  0  0  0  0  0  0
    4.4230   -0.9710   -3.9247 H   0  0  0  0  0  0  0  0  0  0  0  0
    5.7295    0.1799   -3.4833 H   0  0  0  0  0  0  0  0  0  0  0  0
    5.5667   -1.4060   -2.6080 H   0  0  0  0  0  0  0  0  0  0  0  0
    6.5608    0.7566   -1.6918 H   0  0  0  0  0  0  0  0  0  0  0  0
    5.5057    3.2932    1.5558 H   0  0  0  0  0  0  0  0  0  0  0  0
    1.3262    2.2561    1.0374 H   0  0  0  0  0  0  0  0  0  0  0  0
   -0.6408    3.0556   -1.1553 H   0  0  0  0  0  0  0  0  0  0  0  0
   -3.0437    2.5748   -1.5042 H   0  0  0  0  0  0  0  0  0  0  0  0
   -0.9809   -2.2935    1.3572 H   0  0  0  0  0  0  0  0  0  0  0  0
   -6.7735   -0.8861    3.2086 H   0  0  0  0  0  0  0  0  0  0  0  0
   -5.8482    0.6233    3.0046 H   0  0  0  0  0  0  0  0  0  0  0  0
   -5.3282   -2.3733   -1.1447 H   0  0  0  0  0  0  0  0  0  0  0  0
   -3.7370   -4.2173   -0.7665 H   0  0  0  0  0  0  0  0  0  0  0  0
   -3.8212   -4.0443    1.0506 H   0  0  0  0  0  0  0  0  0  0  0  0
   -2.8105   -1.9554   -1.0220 H   0  0  0  0  0  0  0  0  0  0  0  0
   -0.2481   -0.4594    1.2399 H   0  0  0  0  0  0  0  0  0  0  0  0
  1  2  1  0
  2  3  1  0
  3  4  2  0
  4  5  1  0
  5  6  1  0
  6  7  3  0
  5  8  2  0
  8  9  1  0
  9 10  2  0
 10 11  1  0
 11 12  2  0
 11 13  1  0
 13 14  1  0
 14 15  2  0
 15 16  1  0
 16 17  2  0
 17 18  1  0
 17 19  1  0
 19 20  1  0
 20 21  1  1
 21 22  1  0
 21 23  1  0
 20 24  1  0
 24 25  2  0
 25 26  1  0
 25 27  1  0
 27 28  1  0
 28 29  1  0
 29 30  1  0
 19 31  2  0
 10  3  1  0
 31 14  1  0
 30 20  1  0
 30 28  1  0
  1 32  1  0
  1 33  1  0
  1 34  1  0
  4 35  1  0
  8 36  1  0
 13 37  1  0
 15 38  1  0
 16 39  1  0
 21 40  1  0
 26 41  1  0
 26 42  1  0
 28 43  1  6
 29 44  1  0
 29 45  1  0
 30 46  1  6
 31 47  1  0
M  END
$$$$
