
     RDKit          3D

 49 51  0  0  0  0  0  0  0  0999 V2000
    3.1813    0.7526    1.1328 O   0  0  0  0  0  0  0  0  0  0  0  0
    3.7557    0.7040    0.0424 C   0  0  0  0  0  0  0  0  0  0  0  0
    3.0491    0.9101   -1.2272 C   0  0  0  0  0  0  0  0  0  0  0  0
    1.5719    1.0980   -1.1095 C   0  0  0  0  0  0  0  0  0  0  0  0
    0.9193   -0.1050   -0.5345 C   0  0  0  0  0  0  0  0  0  0  0  0
   -0.4827   -0.0366   -0.4056 N   0  0  0  0  0  0  0  0  0  0  0  0
   -1.0656    0.8396    0.5121 C   0  0  0  0  0  0  0  0  0  0  0  0
   -2.5868    0.8726    0.4393 C   0  0  0  0  0  0  0  0  0  0  0  0
   -3.1723   -0.5174    0.5556 C   0  0  0  0  0  0  0  0  0  0  0  0
   -3.2176   -0.7551    1.9628 O   0  0  0  0  0  0  0  0  0  0  0  0
   -4.5494   -0.4921    0.1240 C   0  0  0  0  0  0  0  0  0  0  0  0
   -5.1606    0.6919   -0.1963 C   0  0  0  0  0  0  0  0  0  0  0  0
   -6.4926    0.7521   -0.6298 C   0  0  0  0  0  0  0  0  0  0  0  0
   -7.2306   -0.3849   -0.7475 C   0  0  0  0  0  0  0  0  0  0  0  0
   -8.9059   -0.3034   -1.2926 Cl  0  0  0  0  0  0  0  0  0  0  0  0
   -6.6465   -1.5885   -0.4337 C   0  0  0  0  0  0  0  0  0  0  0  0
   -5.3422   -1.6378   -0.0097 C   0  0  0  0  0  0  0  0  0  0  0  0
   -2.2867   -1.5511   -0.0112 C   0  0  0  0  0  0  0  0  0  0  0  0
   -1.2723   -1.0367   -1.0131 C   0  0  0  0  0  0  0  0  0  0  0  0
    5.1913    0.4320    0.0088 C   0  0  0  0  0  0  0  0  0  0  0  0
    5.8947    0.3578   -1.1833 C   0  0  0  0  0  0  0  0  0  0  0  0
    7.2474    0.1045   -1.2063 C   0  0  0  0  0  0  0  0  0  0  0  0
    7.9672   -0.0867   -0.0489 C   0  0  0  0  0  0  0  0  0  0  0  0
    9.3101   -0.3371   -0.0726 F   0  0  0  0  0  0  0  0  0  0  0  0
    7.2764   -0.0143    1.1449 C   0  0  0  0  0  0  0  0  0  0  0  0
    5.9119    0.2409    1.1663 C   0  0  0  0  0  0  0  0  0  0  0  0
    3.3154    0.1008   -1.9516 H   0  0  0  0  0  0  0  0  0  0  0  0
    3.5170    1.8440   -1.6789 H   0  0  0  0  0  0  0  0  0  0  0  0
    1.1842    1.2492   -2.1470 H   0  0  0  0  0  0  0  0  0  0  0  0
    1.4161    1.9998   -0.4814 H   0  0  0  0  0  0  0  0  0  0  0  0
    1.3453   -0.3427    0.4615 H   0  0  0  0  0  0  0  0  0  0  0  0
    1.2247   -0.9874   -1.1768 H   0  0  0  0  0  0  0  0  0  0  0  0
   -0.7566    1.9167    0.3698 H   0  0  0  0  0  0  0  0  0  0  0  0
   -0.8101    0.5552    1.5489 H   0  0  0  0  0  0  0  0  0  0  0  0
   -2.9143    1.5675    1.2305 H   0  0  0  0  0  0  0  0  0  0  0  0
   -2.8049    1.2202   -0.5977 H   0  0  0  0  0  0  0  0  0  0  0  0
   -3.4235    0.0812    2.4495 H   0  0  0  0  0  0  0  0  0  0  0  0
   -4.6784    1.6530   -0.1364 H   0  0  0  0  0  0  0  0  0  0  0  0
   -6.9521    1.7084   -0.8799 H   0  0  0  0  0  0  0  0  0  0  0  0
   -7.2233   -2.4911   -0.5246 H   0  0  0  0  0  0  0  0  0  0  0  0
   -4.8468   -2.5519    0.2457 H   0  0  0  0  0  0  0  0  0  0  0  0
   -2.7856   -2.4052   -0.4986 H   0  0  0  0  0  0  0  0  0  0  0  0
   -1.6536   -2.0359    0.7945 H   0  0  0  0  0  0  0  0  0  0  0  0
   -0.5887   -1.9224   -1.1891 H   0  0  0  0  0  0  0  0  0  0  0  0
   -1.7272   -0.7634   -1.9856 H   0  0  0  0  0  0  0  0  0  0  0  0
    5.3019    0.5134   -2.0958 H   0  0  0  0  0  0  0  0  0  0  0  0
    7.7712    0.0504   -2.1459 H   0  0  0  0  0  0  0  0  0  0  0  0
    7.8440   -0.1649    2.0607 H   0  0  0  0  0  0  0  0  0  0  0  0
    5.3807    0.2958    2.1116 H   0  0  0  0  0  0  0  0  0  0  0  0
  1  2  2  0
  2  3  1  0
  3  4  1  0
  4  5  1  0
  5  6  1  0
  6  7  1  0
  7  8  1  0
  8  9  1  0
  9 10  1  0
  9 11  1  0
 11 12  2  0
 12 13  1  0
 13 14  2  0
 14 15  1  0
 14 16  1  0
 16 17  2  0
  9 18  1  0
 18 19  1  0
  2 20  1  0
 20 21  2  0
 21 22  1  0
 22 23  2  0
 23 24  1  0
 23 25  1  0
 25 26  2  0
 19  6  1  0
 26 20  1  0
 17 11  1  0
  3 27  1  0
  3 28  1  0
  4 29  1  0
  4 30  1  0
  5 31  1  0
  5 32  1  0
  7 33  1  0
  7 34  1  0
  8 35  1  0
  8 36  1  0
 10 37  1  0
 12 38  1  0
 13 39  1  0
 16 40  1  0
 17 41  1  0
 18 42  1  0
 18 43  1  0
 19 44  1  0
 19 45  1  0
 21 46  1  0
 22 47  1  0
 25 48  1  0
 26 49  1  0
M  END
$$$$
