
     RDKit          3D

 43 46  0  0  0  0  0  0  0  0999 V2000
   -7.4925    2.1463    0.1309 N   0  0  0  0  0  0  0  0  0  0  0  0
   -6.4926    1.6068   -0.1075 C   0  0  0  0  0  0  0  0  0  0  0  0
   -5.2455    0.9591   -0.3905 C   0  0  0  0  0  0  0  0  0  0  0  0
   -4.4391    0.5551    0.6315 C   0  0  0  0  0  0  0  0  0  0  0  0
   -3.2262   -0.0751    0.3300 C   0  0  0  0  0  0  0  0  0  0  0  0
   -2.8341   -0.2943   -0.9656 C   0  0  0  0  0  0  0  0  0  0  0  0
   -1.5645   -0.9791   -1.3638 C   0  0  1  0  0  0  0  0  0  0  0  0
   -0.8605   -0.0304   -2.1905 N   0  0  0  0  0  0  0  0  0  0  0  0
    0.4619    0.3678   -1.8554 C   0  0  0  0  0  0  0  0  0  0  0  0
    1.0780    1.2304   -2.5559 O   0  0  0  0  0  0  0  0  0  0  0  0
    1.1543   -0.1655   -0.7413 N   0  0  0  0  0  0  0  0  0  0  0  0
    2.4818    0.2368   -0.4163 C   0  0  0  0  0  0  0  0  0  0  0  0
    3.5791   -0.4227   -0.9311 C   0  0  0  0  0  0  0  0  0  0  0  0
    4.8814   -0.0643   -0.6409 C   0  0  0  0  0  0  0  0  0  0  0  0
    5.0631    1.0210    0.2171 C   0  0  0  0  0  0  0  0  0  0  0  0
    4.0182    1.7078    0.7537 C   0  0  0  0  0  0  0  0  0  0  0  0
    4.2680    2.8621    1.6666 C   0  0  0  0  0  0  0  0  0  0  0  0
    3.2357    3.0483    2.5468 F   0  0  0  0  0  0  0  0  0  0  0  0
    4.5091    3.9664    0.8767 F   0  0  0  0  0  0  0  0  0  0  0  0
    5.4214    2.5321    2.3825 F   0  0  0  0  0  0  0  0  0  0  0  0
    2.7264    1.3054    0.4289 C   0  0  0  0  0  0  0  0  0  0  0  0
    0.4411   -1.1425    0.0513 C   0  0  0  0  0  0  0  0  0  0  0  0
   -0.8015   -1.5184   -0.2376 C   0  0  0  0  0  0  0  0  0  0  0  0
   -1.2102   -2.5574    0.7036 C   0  0  0  0  0  0  0  0  0  0  0  0
   -2.3417   -3.0313    0.9512 O   0  0  0  0  0  0  0  0  0  0  0  0
    0.0213   -3.0159    1.3870 C   0  0  0  0  0  0  0  0  0  0  0  0
    0.9388   -1.8369    1.2631 C   0  0  0  0  0  0  0  0  0  0  0  0
   -3.6937    0.1379   -1.9616 C   0  0  0  0  0  0  0  0  0  0  0  0
   -4.8916    0.7603   -1.6904 C   0  0  0  0  0  0  0  0  0  0  0  0
   -4.6815    0.6933    1.6942 H   0  0  0  0  0  0  0  0  0  0  0  0
   -2.5747   -0.3847    1.1292 H   0  0  0  0  0  0  0  0  0  0  0  0
   -1.9038   -1.7924   -2.0739 H   0  0  0  0  0  0  0  0  0  0  0  0
   -1.3534    0.3354   -3.0174 H   0  0  0  0  0  0  0  0  0  0  0  0
    3.3722   -1.2548   -1.5893 H   0  0  0  0  0  0  0  0  0  0  0  0
    5.7426   -0.5914   -1.0524 H   0  0  0  0  0  0  0  0  0  0  0  0
    6.0905    1.3119    0.4525 H   0  0  0  0  0  0  0  0  0  0  0  0
    1.8853    1.8210    0.8313 H   0  0  0  0  0  0  0  0  0  0  0  0
   -0.1651   -3.3149    2.4377 H   0  0  0  0  0  0  0  0  0  0  0  0
    0.5077   -3.8529    0.8102 H   0  0  0  0  0  0  0  0  0  0  0  0
    1.9945   -2.1609    1.1556 H   0  0  0  0  0  0  0  0  0  0  0  0
    0.8121   -1.1640    2.1531 H   0  0  0  0  0  0  0  0  0  0  0  0
   -3.3969   -0.0280   -2.9864 H   0  0  0  0  0  0  0  0  0  0  0  0
   -5.5153    1.0727   -2.5167 H   0  0  0  0  0  0  0  0  0  0  0  0
  1  2  3  0
  2  3  1  0
  3  4  2  0
  4  5  1  0
  5  6  2  0
  6  7  1  0
  7  8  1  0
  8  9  1  0
  9 10  2  0
  9 11  1  0
 11 12  1  0
 12 13  2  0
 13 14  1  0
 14 15  2  0
 15 16  1  0
 16 17  1  0
 17 18  1  0
 17 19  1  0
 17 20  1  0
 16 21  2  0
 11 22  1  0
 22 23  2  0
 23 24  1  0
 24 25  2  0
 24 26  1  0
 26 27  1  0
  6 28  1  0
 28 29  2  0
 29  3  1  0
 23  7  1  0
 21 12  1  0
 27 22  1  0
  4 30  1  0
  5 31  1  0
  7 32  1  6
  8 33  1  0
 13 34  1  0
 14 35  1  0
 15 36  1  0
 21 37  1  0
 26 38  1  0
 26 39  1  0
 27 40  1  0
 27 41  1  0
 28 42  1  0
 29 43  1  0
M  END
$$$$
