
     RDKit          3D

 38 39  0  0  0  0  0  0  0  0999 V2000
   -3.7611   -2.3816   -1.0903 C   0  0  0  0  0  0  0  0  0  0  0  0
   -2.8073   -1.3534   -0.9693 O   0  0  0  0  0  0  0  0  0  0  0  0
   -3.0057   -0.2646   -0.1464 C   0  0  0  0  0  0  0  0  0  0  0  0
   -4.1496   -0.1040    0.6160 C   0  0  0  0  0  0  0  0  0  0  0  0
   -4.3349    0.9912    1.4355 C   0  0  0  0  0  0  0  0  0  0  0  0
   -3.3331    1.9365    1.4749 C   0  0  0  0  0  0  0  0  0  0  0  0
   -3.4884    3.0230    2.2715 F   0  0  0  0  0  0  0  0  0  0  0  0
   -2.1952    1.7745    0.7151 C   0  0  0  0  0  0  0  0  0  0  0  0
   -1.9895    0.6899   -0.1093 C   0  0  0  0  0  0  0  0  0  0  0  0
   -0.7717    0.4952   -0.9358 C   0  0  0  0  0  0  0  0  0  0  0  0
    0.1633   -0.5474   -0.3366 C   0  0  2  0  0  0  0  0  0  0  0  0
    0.5511   -0.0345    1.0348 C   0  0  0  0  0  0  0  0  0  0  0  0
    1.8490    0.6987    0.6568 C   0  0  0  0  0  0  0  0  0  0  0  0
    2.4034   -0.3779   -0.2872 C   0  0  2  0  0  0  0  0  0  0  0  0
    3.6019    0.1075   -1.0208 C   0  0  0  0  0  0  0  0  0  0  0  0
    4.6776    0.4787   -0.0392 C   0  0  0  0  0  0  0  0  0  0  0  0
    5.1085   -0.5987    0.7969 N   0  0  0  0  0  0  0  0  0  0  0  0
    1.3029   -0.6082   -1.0933 O   0  0  0  0  0  0  0  0  0  0  0  0
   -3.6001   -2.9698   -2.0241 H   0  0  0  0  0  0  0  0  0  0  0  0
   -4.7859   -1.9846   -1.0942 H   0  0  0  0  0  0  0  0  0  0  0  0
   -3.6159   -3.0824   -0.2241 H   0  0  0  0  0  0  0  0  0  0  0  0
   -4.9406   -0.8483    0.5869 H   0  0  0  0  0  0  0  0  0  0  0  0
   -5.2274    1.1276    2.0375 H   0  0  0  0  0  0  0  0  0  0  0  0
   -1.4143    2.5224    0.7521 H   0  0  0  0  0  0  0  0  0  0  0  0
   -1.0164    0.1882   -1.9720 H   0  0  0  0  0  0  0  0  0  0  0  0
   -0.2146    1.4510   -1.0249 H   0  0  0  0  0  0  0  0  0  0  0  0
   -0.3424   -1.5345   -0.2577 H   0  0  0  0  0  0  0  0  0  0  0  0
   -0.1772    0.6130    1.5054 H   0  0  0  0  0  0  0  0  0  0  0  0
    0.8807   -0.8883    1.6603 H   0  0  0  0  0  0  0  0  0  0  0  0
    2.4879    0.8704    1.5181 H   0  0  0  0  0  0  0  0  0  0  0  0
    1.6323    1.5971    0.0409 H   0  0  0  0  0  0  0  0  0  0  0  0
    2.5884   -1.2637    0.3216 H   0  0  0  0  0  0  0  0  0  0  0  0
    3.3662    0.9891   -1.6221 H   0  0  0  0  0  0  0  0  0  0  0  0
    3.9620   -0.7201   -1.6638 H   0  0  0  0  0  0  0  0  0  0  0  0
    5.5755    0.8929   -0.5497 H   0  0  0  0  0  0  0  0  0  0  0  0
    4.3019    1.2947    0.6206 H   0  0  0  0  0  0  0  0  0  0  0  0
    4.5766   -1.4712    0.7207 H   0  0  0  0  0  0  0  0  0  0  0  0
    6.1420   -0.7081    0.8520 H   0  0  0  0  0  0  0  0  0  0  0  0
  1  2  1  0
  2  3  1  0
  3  4  2  0
  4  5  1  0
  5  6  2  0
  6  7  1  0
  6  8  1  0
  8  9  2  0
  9 10  1  0
 10 11  1  0
 11 12  1  0
 12 13  1  0
 13 14  1  0
 14 15  1  0
 15 16  1  0
 16 17  1  0
 14 18  1  0
  9  3  1  0
 18 11  1  0
  1 19  1  0
  1 20  1  0
  1 21  1  0
  4 22  1  0
  5 23  1  0
  8 24  1  0
 10 25  1  0
 10 26  1  0
 11 27  1  1
 12 28  1  0
 12 29  1  0
 13 30  1  0
 13 31  1  0
 14 32  1  1
 15 33  1  0
 15 34  1  0
 16 35  1  0
 16 36  1  0
 17 37  1  0
 17 38  1  0
M  END
$$$$
