
     RDKit          3D

 38 40  0  0  0  0  0  0  0  0999 V2000
    5.1431    1.7517   -1.4286 C   0  0  0  0  0  0  0  0  0  0  0  0
    5.0430    0.8164   -0.3374 N   0  0  0  0  0  0  0  0  0  0  0  0
    6.2388    0.3820    0.3389 C   0  0  0  0  0  0  0  0  0  0  0  0
    3.7833    0.3402    0.0530 C   0  0  0  0  0  0  0  0  0  0  0  0
    3.6164   -0.5556    1.0883 C   0  0  0  0  0  0  0  0  0  0  0  0
    2.3916   -1.0222    1.4723 C   0  0  0  0  0  0  0  0  0  0  0  0
    1.2158   -0.6105    0.8254 C   0  0  0  0  0  0  0  0  0  0  0  0
    0.0414   -1.0897    1.2312 N   0  0  0  0  0  0  0  0  0  0  0  0
   -1.1800   -0.8738    0.8095 C   0  0  0  0  0  0  0  0  0  0  0  0
   -2.2911   -1.5080    1.4069 C   0  0  0  0  0  0  0  0  0  0  0  0
   -3.5562   -1.2508    0.9305 C   0  0  0  0  0  0  0  0  0  0  0  0
   -3.8235   -0.3937   -0.1184 C   0  0  0  0  0  0  0  0  0  0  0  0
   -5.0133   -0.1880   -0.5239 N   0  0  0  0  0  4  0  0  0  0  0  0
   -5.2558    0.7187   -1.6279 C   0  0  0  0  0  0  0  0  0  0  0  0
   -6.1429   -0.8481    0.1016 C   0  0  0  0  0  0  0  0  0  0  0  0
   -2.7422    0.2324   -0.7104 C   0  0  0  0  0  0  0  0  0  0  0  0
   -1.4475    0.0290   -0.2934 C   0  0  0  0  0  0  0  0  0  0  0  0
   -0.0743    0.7631   -0.9731 S   0  0  0  0  0  0  0  0  0  0  0  0
    1.3844    0.2833   -0.2072 C   0  0  0  0  0  0  0  0  0  0  0  0
    2.6248    0.7500   -0.5892 C   0  0  0  0  0  0  0  0  0  0  0  0
    4.6504    2.7135   -1.1450 H   0  0  0  0  0  0  0  0  0  0  0  0
    6.2078    1.9009   -1.7154 H   0  0  0  0  0  0  0  0  0  0  0  0
    4.6376    1.3103   -2.3181 H   0  0  0  0  0  0  0  0  0  0  0  0
    7.1401    0.9013   -0.0131 H   0  0  0  0  0  0  0  0  0  0  0  0
    6.3752   -0.7046    0.0637 H   0  0  0  0  0  0  0  0  0  0  0  0
    6.1239    0.4507    1.4588 H   0  0  0  0  0  0  0  0  0  0  0  0
    4.5452   -0.8779    1.5958 H   0  0  0  0  0  0  0  0  0  0  0  0
    2.3421   -1.7198    2.2895 H   0  0  0  0  0  0  0  0  0  0  0  0
   -2.1134   -2.1839    2.2296 H   0  0  0  0  0  0  0  0  0  0  0  0
   -4.4093   -1.7560    1.4108 H   0  0  0  0  0  0  0  0  0  0  0  0
   -4.8985    1.7539   -1.3761 H   0  0  0  0  0  0  0  0  0  0  0  0
   -4.8043    0.3644   -2.5787 H   0  0  0  0  0  0  0  0  0  0  0  0
   -6.3460    0.8260   -1.8164 H   0  0  0  0  0  0  0  0  0  0  0  0
   -5.9950   -1.9481   -0.0289 H   0  0  0  0  0  0  0  0  0  0  0  0
   -6.0986   -0.5580    1.1879 H   0  0  0  0  0  0  0  0  0  0  0  0
   -7.0973   -0.5624   -0.3628 H   0  0  0  0  0  0  0  0  0  0  0  0
   -2.8993    0.9090   -1.5309 H   0  0  0  0  0  0  0  0  0  0  0  0
    2.6836    1.4544   -1.4132 H   0  0  0  0  0  0  0  0  0  0  0  0
  1  2  1  0
  2  3  1  0
  2  4  1  0
  4  5  2  0
  5  6  1  0
  6  7  2  0
  7  8  1  0
  8  9  2  0
  9 10  1  0
 10 11  2  0
 11 12  1  0
 12 13  2  3
 13 14  1  0
 13 15  1  0
 12 16  1  0
 16 17  2  0
 17 18  1  0
 18 19  1  0
 19 20  2  0
 20  4  1  0
 19  7  1  0
 17  9  1  0
  1 21  1  0
  1 22  1  0
  1 23  1  0
  3 24  1  0
  3 25  1  0
  3 26  1  0
  5 27  1  0
  6 28  1  0
 10 29  1  0
 11 30  1  0
 14 31  1  0
 14 32  1  0
 14 33  1  0
 15 34  1  0
 15 35  1  0
 15 36  1  0
 16 37  1  0
 20 38  1  0
M  CHG  1  13   1
M  END
$$$$
