
     RDKit          3D

 48 49  0  0  0  0  0  0  0  0999 V2000
   -4.8164   -2.3144    1.8469 C   0  0  0  0  0  0  0  0  0  0  0  0
   -4.7305   -1.3248    0.8367 O   0  0  0  0  0  0  0  0  0  0  0  0
   -3.5005   -0.8454    0.4088 C   0  0  0  0  0  0  0  0  0  0  0  0
   -2.3110   -1.3007    0.9373 C   0  0  0  0  0  0  0  0  0  0  0  0
   -1.1213   -0.7867    0.4717 C   0  0  0  0  0  0  0  0  0  0  0  0
   -1.0902    0.1697   -0.5077 C   0  0  0  0  0  0  0  0  0  0  0  0
    0.1196    0.7362   -1.0295 N   0  0  0  0  0  0  0  0  0  0  0  0
    1.3678    0.4190   -0.4655 C   0  0  0  0  0  0  0  0  0  0  0  0
    2.3060   -0.2860   -1.1856 C   0  0  0  0  0  0  0  0  0  0  0  0
    3.5421   -0.6148   -0.6727 C   0  0  0  0  0  0  0  0  0  0  0  0
    4.5364   -1.3351   -1.3700 N   0  0  0  0  0  0  0  0  0  0  0  0
    5.8157   -1.6701   -0.8214 C   0  0  0  0  0  0  0  0  0  0  0  0
    6.6355   -0.4624   -0.4219 C   0  0  0  0  0  0  0  0  0  0  0  0
    6.8966    0.4081   -1.5412 N   0  0  0  0  0  0  0  0  0  0  0  0
    3.7665   -0.1947    0.5883 N   0  0  0  0  0  0  0  0  0  0  0  0
    2.8933    0.4766    1.2918 N   0  0  0  0  0  0  0  0  0  0  0  0
    1.6701    0.8133    0.8085 C   0  0  0  0  0  0  0  0  0  0  0  0
    0.8312    1.6185    1.6628 C   0  0  0  0  0  0  0  0  0  0  0  0
    1.2240    1.8617    3.0131 N   0  0  0  0  0  0  0  0  0  0  0  0
   -0.2457    2.1123    1.2372 O   0  0  0  0  0  0  0  0  0  0  0  0
   -2.2693    0.5956   -1.0053 N   0  0  0  0  0  0  0  0  0  0  0  0
   -3.4516    0.1183   -0.5769 C   0  0  0  0  0  0  0  0  0  0  0  0
   -4.7509    0.6022   -1.1401 C   0  0  0  0  0  0  0  0  0  0  0  0
   -5.2939    1.7842   -0.3837 C   0  0  0  0  0  0  0  0  0  0  0  0
   -4.4561    1.0972   -2.5599 C   0  0  0  0  0  0  0  0  0  0  0  0
   -4.2490   -3.2263    1.5980 H   0  0  0  0  0  0  0  0  0  0  0  0
   -5.8597   -2.5437    2.0720 H   0  0  0  0  0  0  0  0  0  0  0  0
   -4.3497   -1.8816    2.7697 H   0  0  0  0  0  0  0  0  0  0  0  0
   -2.3481   -2.0555    1.7099 H   0  0  0  0  0  0  0  0  0  0  0  0
   -0.1742   -1.1316    0.8754 H   0  0  0  0  0  0  0  0  0  0  0  0
    0.0987    1.3932   -1.8353 H   0  0  0  0  0  0  0  0  0  0  0  0
    2.0823   -0.6052   -2.2004 H   0  0  0  0  0  0  0  0  0  0  0  0
    4.2960   -1.6353   -2.3609 H   0  0  0  0  0  0  0  0  0  0  0  0
    6.4086   -2.2404   -1.5468 H   0  0  0  0  0  0  0  0  0  0  0  0
    5.7381   -2.3211    0.0890 H   0  0  0  0  0  0  0  0  0  0  0  0
    6.1517    0.0448    0.4321 H   0  0  0  0  0  0  0  0  0  0  0  0
    7.6177   -0.8382   -0.0578 H   0  0  0  0  0  0  0  0  0  0  0  0
    6.1848    0.3316   -2.2944 H   0  0  0  0  0  0  0  0  0  0  0  0
    6.9824    1.3777   -1.1623 H   0  0  0  0  0  0  0  0  0  0  0  0
    1.3360    1.0491    3.6530 H   0  0  0  0  0  0  0  0  0  0  0  0
    1.3918    2.8164    3.3434 H   0  0  0  0  0  0  0  0  0  0  0  0
   -5.5047   -0.2096   -1.1872 H   0  0  0  0  0  0  0  0  0  0  0  0
   -5.6691    2.5909   -1.0636 H   0  0  0  0  0  0  0  0  0  0  0  0
   -4.4691    2.2109    0.2237 H   0  0  0  0  0  0  0  0  0  0  0  0
   -6.1440    1.4812    0.2846 H   0  0  0  0  0  0  0  0  0  0  0  0
   -3.7404    1.9382   -2.4386 H   0  0  0  0  0  0  0  0  0  0  0  0
   -3.9662    0.2986   -3.1356 H   0  0  0  0  0  0  0  0  0  0  0  0
   -5.3815    1.4778   -3.0405 H   0  0  0  0  0  0  0  0  0  0  0  0
  1  2  1  0
  2  3  1  0
  3  4  2  0
  4  5  1  0
  5  6  2  0
  6  7  1  0
  7  8  1  0
  8  9  2  0
  9 10  1  0
 10 11  1  0
 11 12  1  0
 12 13  1  0
 13 14  1  0
 10 15  2  0
 15 16  1  0
 16 17  2  0
 17 18  1  0
 18 19  1  0
 18 20  2  0
  6 21  1  0
 21 22  2  0
 22 23  1  0
 23 24  1  0
 23 25  1  0
 22  3  1  0
 17  8  1  0
  1 26  1  0
  1 27  1  0
  1 28  1  0
  4 29  1  0
  5 30  1  0
  7 31  1  0
  9 32  1  0
 11 33  1  0
 12 34  1  0
 12 35  1  0
 13 36  1  0
 13 37  1  0
 14 38  1  0
 14 39  1  0
 19 40  1  0
 19 41  1  0
 23 42  1  0
 24 43  1  0
 24 44  1  0
 24 45  1  0
 25 46  1  0
 25 47  1  0
 25 48  1  0
M  END
$$$$
