
     RDKit          3D

 44 45  0  0  0  0  0  0  0  0999 V2000
   -0.9226   -1.2801    1.1888 C   0  0  0  0  0  0  0  0  0  0  0  0
   -0.7280   -0.8562   -0.2301 C   0  0  1  0  0  0  0  0  0  0  0  0
   -1.5373    0.3644   -0.6003 C   0  0  0  0  0  0  0  0  0  0  0  0
   -2.9952    0.1293   -0.4287 C   0  0  0  0  0  0  0  0  0  0  0  0
   -3.5378    0.4358    0.8223 C   0  0  0  0  0  0  0  0  0  0  0  0
   -4.8790    0.2606    1.1040 C   0  0  0  0  0  0  0  0  0  0  0  0
   -5.4053    0.5694    2.3522 O   0  0  0  0  0  0  0  0  0  0  0  0
   -5.6720   -0.2355    0.0881 C   0  0  0  0  0  0  0  0  0  0  0  0
   -7.0440   -0.4362    0.3117 O   0  0  0  0  0  0  0  0  0  0  0  0
   -5.1635   -0.5507   -1.1684 C   0  0  0  0  0  0  0  0  0  0  0  0
   -3.8022   -0.3658   -1.4328 C   0  0  0  0  0  0  0  0  0  0  0  0
    0.7195   -0.6396   -0.6112 C   0  0  2  0  0  0  0  0  0  0  0  0
    1.5164   -1.9038   -0.4315 C   0  0  0  0  0  0  0  0  0  0  0  0
    1.3463    0.5045    0.1576 C   0  0  0  0  0  0  0  0  0  0  0  0
    2.7808    0.6933   -0.2430 C   0  0  0  0  0  0  0  0  0  0  0  0
    3.8851    0.0862    0.3383 C   0  0  0  0  0  0  0  0  0  0  0  0
    5.1423    0.3681   -0.1505 C   0  0  0  0  0  0  0  0  0  0  0  0
    6.2187   -0.2618    0.4612 O   0  0  0  0  0  0  0  0  0  0  0  0
    5.3313    1.2432   -1.2087 C   0  0  0  0  0  0  0  0  0  0  0  0
    6.6142    1.5013   -1.6727 O   0  0  0  0  0  0  0  0  0  0  0  0
    4.2583    1.8765   -1.8249 C   0  0  0  0  0  0  0  0  0  0  0  0
    3.0158    1.5612   -1.2984 C   0  0  0  0  0  0  0  0  0  0  0  0
   -1.8235   -1.9098    1.3273 H   0  0  0  0  0  0  0  0  0  0  0  0
   -0.0592   -1.9682    1.4267 H   0  0  0  0  0  0  0  0  0  0  0  0
   -0.8930   -0.4469    1.9151 H   0  0  0  0  0  0  0  0  0  0  0  0
   -1.0740   -1.7104   -0.8672 H   0  0  0  0  0  0  0  0  0  0  0  0
   -1.3018    0.6493   -1.6402 H   0  0  0  0  0  0  0  0  0  0  0  0
   -1.1957    1.2265    0.0405 H   0  0  0  0  0  0  0  0  0  0  0  0
   -2.9057    0.8253    1.6141 H   0  0  0  0  0  0  0  0  0  0  0  0
   -5.2758    1.5440    2.6516 H   0  0  0  0  0  0  0  0  0  0  0  0
   -7.5350    0.3683    0.6999 H   0  0  0  0  0  0  0  0  0  0  0  0
   -5.8110   -0.9447   -1.9646 H   0  0  0  0  0  0  0  0  0  0  0  0
   -3.3677   -0.5988   -2.3972 H   0  0  0  0  0  0  0  0  0  0  0  0
    0.7316   -0.3531   -1.6820 H   0  0  0  0  0  0  0  0  0  0  0  0
    1.8158   -2.0046    0.6252 H   0  0  0  0  0  0  0  0  0  0  0  0
    2.4354   -1.8703   -1.0627 H   0  0  0  0  0  0  0  0  0  0  0  0
    0.9759   -2.8026   -0.7268 H   0  0  0  0  0  0  0  0  0  0  0  0
    0.8294    1.4509    0.0090 H   0  0  0  0  0  0  0  0  0  0  0  0
    1.3596    0.2152    1.2284 H   0  0  0  0  0  0  0  0  0  0  0  0
    3.6702   -0.5746    1.1465 H   0  0  0  0  0  0  0  0  0  0  0  0
    7.0383   -0.4033   -0.1352 H   0  0  0  0  0  0  0  0  0  0  0  0
    6.7048    1.6224   -2.6905 H   0  0  0  0  0  0  0  0  0  0  0  0
    4.3625    2.5600   -2.6461 H   0  0  0  0  0  0  0  0  0  0  0  0
    2.1773    2.0615   -1.7863 H   0  0  0  0  0  0  0  0  0  0  0  0
  1  2  1  0
  2  3  1  0
  3  4  1  0
  4  5  2  0
  5  6  1  0
  6  7  1  0
  6  8  2  0
  8  9  1  0
  8 10  1  0
 10 11  2  0
  2 12  1  0
 12 13  1  0
 12 14  1  0
 14 15  1  0
 15 16  2  0
 16 17  1  0
 17 18  1  0
 17 19  2  0
 19 20  1  0
 19 21  1  0
 21 22  2  0
 11  4  1  0
 22 15  1  0
  1 23  1  0
  1 24  1  0
  1 25  1  0
  2 26  1  6
  3 27  1  0
  3 28  1  0
  5 29  1  0
  7 30  1  0
  9 31  1  0
 10 32  1  0
 11 33  1  0
 12 34  1  6
 13 35  1  0
 13 36  1  0
 13 37  1  0
 14 38  1  0
 14 39  1  0
 16 40  1  0
 18 41  1  0
 20 42  1  0
 21 43  1  0
 22 44  1  0
M  END
$$$$
