
     RDKit          3D

 75 78  0  0  0  0  0  0  0  0999 V2000
    0.2235    2.4057    1.3322 C   0  0  2  0  0  0  0  0  0  0  0  0
    0.1372    3.7086    0.5932 C   0  0  0  0  0  0  0  0  0  0  0  0
    0.5140    3.6746   -0.8476 C   0  0  0  0  0  0  0  0  0  0  0  0
    1.6156    1.8830    1.3182 C   0  0  0  0  0  0  0  0  0  0  0  0
    2.3365    1.4390    0.2367 C   0  0  0  0  0  0  0  0  0  0  0  0
    3.6437    0.9609    0.2590 C   0  0  0  0  0  0  0  0  0  0  0  0
    4.2607    0.5166   -0.9417 N   0  0  0  0  0  0  0  0  0  0  0  0
    5.1263   -0.8407   -1.4758 S   0  0  0  0  0  0  0  0  0  0  0  0
    4.2043   -2.0632   -1.4249 O   0  0  0  0  0  0  0  0  0  0  0  0
    5.4241   -0.6734   -2.9503 O   0  0  0  0  0  0  0  0  0  0  0  0
    6.6157   -1.1631   -0.6725 C   0  0  0  0  0  0  0  0  0  0  0  0
    6.8066   -1.4489    0.6244 N   0  0  0  0  0  0  0  0  0  0  0  0
    8.0040   -1.6875    1.1810 C   0  0  0  0  0  0  0  0  0  0  0  0
    9.1733   -1.6631    0.4695 C   0  0  0  0  0  0  0  0  0  0  0  0
    9.0839   -1.3780   -0.8745 C   0  0  0  0  0  0  0  0  0  0  0  0
    7.8309   -1.1464   -1.3691 C   0  0  0  0  0  0  0  0  0  0  0  0
   10.4875   -1.9268    1.0926 C   0  0  0  0  0  0  0  0  0  0  0  0
   10.4884   -3.2034    1.6404 F   0  0  0  0  0  0  0  0  0  0  0  0
   10.7722   -1.0327    2.1052 F   0  0  0  0  0  0  0  0  0  0  0  0
   11.4672   -1.8989    0.1089 F   0  0  0  0  0  0  0  0  0  0  0  0
    4.2379    0.9467    1.5022 C   0  0  0  0  0  0  0  0  0  0  0  0
    3.6344    1.3615    2.6708 C   0  0  0  0  0  0  0  0  0  0  0  0
    2.3393    1.8139    2.5201 C   0  0  0  0  0  0  0  0  0  0  0  0
   -0.7981    1.4334    0.9676 C   0  0  0  0  0  0  0  0  0  0  0  0
   -0.8063    0.1628    0.6084 C   0  0  0  0  0  0  0  0  0  0  0  0
    0.4367   -0.5046    0.5312 O   0  0  0  0  0  0  0  0  0  0  0  0
   -1.9400   -0.7157    0.2594 C   0  0  0  0  0  0  0  0  0  0  0  0
   -3.2137   -0.0039   -0.1055 C   0  0  1  0  0  0  0  0  0  0  0  0
   -3.2638    0.4755   -1.4938 C   0  0  0  0  0  0  0  0  0  0  0  0
   -3.1144   -0.4640   -2.6187 C   0  0  0  0  0  0  0  0  0  0  0  0
   -4.0855   -1.5788   -2.7691 C   0  0  0  0  0  0  0  0  0  0  0  0
   -4.4235   -0.7702    0.3247 C   0  0  0  0  0  0  0  0  0  0  0  0
   -5.7037   -0.0727    0.0113 C   0  0  0  0  0  0  0  0  0  0  0  0
   -6.8828   -0.8864    0.4608 C   0  0  0  0  0  0  0  0  0  0  0  0
   -7.3810   -0.7133    1.7550 C   0  0  0  0  0  0  0  0  0  0  0  0
   -8.4580   -1.3946    2.2921 C   0  0  0  0  0  0  0  0  0  0  0  0
   -9.0805   -2.3182    1.4674 C   0  0  0  0  0  0  0  0  0  0  0  0
   -8.6132   -2.5117    0.1870 C   0  0  0  0  0  0  0  0  0  0  0  0
   -7.5392   -1.8213   -0.3252 C   0  0  0  0  0  0  0  0  0  0  0  0
   -3.2797    1.1883    0.7194 O   0  0  0  0  0  0  0  0  0  0  0  0
   -2.1654    1.9512    1.0153 C   0  0  0  0  0  0  0  0  0  0  0  0
   -2.6117    3.0937    1.3072 O   0  0  0  0  0  0  0  0  0  0  0  0
   -0.0054    2.6914    2.4120 H   0  0  0  0  0  0  0  0  0  0  0  0
   -0.7688    4.3063    0.8016 H   0  0  0  0  0  0  0  0  0  0  0  0
    0.9549    4.3454    1.0801 H   0  0  0  0  0  0  0  0  0  0  0  0
    1.5976    3.7834   -1.0585 H   0  0  0  0  0  0  0  0  0  0  0  0
    0.0739    4.6048   -1.3323 H   0  0  0  0  0  0  0  0  0  0  0  0
    0.0883    2.8415   -1.4371 H   0  0  0  0  0  0  0  0  0  0  0  0
    1.8623    1.4544   -0.7121 H   0  0  0  0  0  0  0  0  0  0  0  0
    4.1000    1.3023   -1.6504 H   0  0  0  0  0  0  0  0  0  0  0  0
    8.0633   -1.9124    2.2441 H   0  0  0  0  0  0  0  0  0  0  0  0
    9.9479   -1.3349   -1.5216 H   0  0  0  0  0  0  0  0  0  0  0  0
    7.7786   -0.9199   -2.4461 H   0  0  0  0  0  0  0  0  0  0  0  0
    5.2540    0.5942    1.5956 H   0  0  0  0  0  0  0  0  0  0  0  0
    4.1053    1.3448    3.6251 H   0  0  0  0  0  0  0  0  0  0  0  0
    1.8506    2.1469    3.4506 H   0  0  0  0  0  0  0  0  0  0  0  0
    0.6527   -0.8960   -0.3906 H   0  0  0  0  0  0  0  0  0  0  0  0
   -1.6259   -1.4541   -0.5023 H   0  0  0  0  0  0  0  0  0  0  0  0
   -2.1827   -1.3541    1.1524 H   0  0  0  0  0  0  0  0  0  0  0  0
   -4.2087    1.0540   -1.6843 H   0  0  0  0  0  0  0  0  0  0  0  0
   -2.4739    1.2863   -1.6698 H   0  0  0  0  0  0  0  0  0  0  0  0
   -3.2722    0.1725   -3.5532 H   0  0  0  0  0  0  0  0  0  0  0  0
   -2.0484   -0.8011   -2.7795 H   0  0  0  0  0  0  0  0  0  0  0  0
   -5.1116   -1.2011   -2.6875 H   0  0  0  0  0  0  0  0  0  0  0  0
   -3.9379   -1.9714   -3.8324 H   0  0  0  0  0  0  0  0  0  0  0  0
   -3.8923   -2.4781   -2.1515 H   0  0  0  0  0  0  0  0  0  0  0  0
   -4.3666   -0.7725    1.4683 H   0  0  0  0  0  0  0  0  0  0  0  0
   -4.4284   -1.8420    0.0401 H   0  0  0  0  0  0  0  0  0  0  0  0
   -5.8771    0.2205   -1.0294 H   0  0  0  0  0  0  0  0  0  0  0  0
   -5.7809    0.9006    0.5882 H   0  0  0  0  0  0  0  0  0  0  0  0
   -6.8888    0.0151    2.4041 H   0  0  0  0  0  0  0  0  0  0  0  0
   -8.7688   -1.1921    3.3038 H   0  0  0  0  0  0  0  0  0  0  0  0
   -9.9280   -2.8685    1.8606 H   0  0  0  0  0  0  0  0  0  0  0  0
   -9.1087   -3.2401   -0.4542 H   0  0  0  0  0  0  0  0  0  0  0  0
   -7.1576   -1.9599   -1.3290 H   0  0  0  0  0  0  0  0  0  0  0  0
  1  2  1  0
  2  3  1  0
  1  4  1  0
  4  5  2  0
  5  6  1  0
  6  7  1  0
  7  8  1  0
  8  9  2  0
  8 10  2  0
  8 11  1  0
 11 12  2  0
 12 13  1  0
 13 14  2  0
 14 15  1  0
 15 16  2  0
 14 17  1  0
 17 18  1  0
 17 19  1  0
 17 20  1  0
  6 21  2  0
 21 22  1  0
 22 23  2  0
  1 24  1  0
 24 25  2  0
 25 26  1  0
 25 27  1  0
 27 28  1  0
 28 29  1  6
 29 30  1  0
 30 31  1  0
 28 32  1  0
 32 33  1  0
 33 34  1  0
 34 35  2  0
 35 36  1  0
 36 37  2  0
 37 38  1  0
 38 39  2  0
 28 40  1  0
 40 41  1  0
 41 42  2  0
 23  4  1  0
 41 24  1  0
 16 11  1  0
 39 34  1  0
  1 43  1  1
  2 44  1  0
  2 45  1  0
  3 46  1  0
  3 47  1  0
  3 48  1  0
  5 49  1  0
  7 50  1  0
 13 51  1  0
 15 52  1  0
 16 53  1  0
 21 54  1  0
 22 55  1  0
 23 56  1  0
 26 57  1  0
 27 58  1  0
 27 59  1  0
 29 60  1  0
 29 61  1  0
 30 62  1  0
 30 63  1  0
 31 64  1  0
 31 65  1  0
 31 66  1  0
 32 67  1  0
 32 68  1  0
 33 69  1  0
 33 70  1  0
 35 71  1  0
 36 72  1  0
 37 73  1  0
 38 74  1  0
 39 75  1  0
M  END
$$$$
