
     RDKit          3D

 73 80  0  0  0  0  0  0  0  0999 V2000
   -8.6771   -1.1791    6.2634 O   0  0  0  0  0  0  0  0  0  0  0  0
   -8.3098   -1.1727    5.0610 C   0  0  0  0  0  0  0  0  0  0  0  0
   -9.0922   -1.5876    4.0503 N   0  0  0  0  0  0  0  0  0  0  0  0
   -8.4059   -1.4517    2.9068 N   0  0  0  0  0  0  0  0  0  0  0  0
   -7.1905   -0.9539    3.1705 C   0  0  0  0  0  0  0  0  0  0  0  0
   -6.1449   -0.6458    2.3264 C   0  0  0  0  0  0  0  0  0  0  0  0
   -6.1832   -0.8136    0.9620 C   0  0  0  0  0  0  0  0  0  0  0  0
   -5.1214   -0.4967    0.1396 C   0  0  0  0  0  0  0  0  0  0  0  0
   -5.1560   -0.6715   -1.3083 C   0  0  0  0  0  0  0  0  0  0  0  0
   -5.3264   -1.9188   -1.8714 C   0  0  0  0  0  0  0  0  0  0  0  0
   -5.3564   -2.0597   -3.2618 C   0  0  0  0  0  0  0  0  0  0  0  0
   -5.2174   -0.9636   -4.0993 C   0  0  0  0  0  0  0  0  0  0  0  0
   -5.0469    0.2837   -3.5304 C   0  0  0  0  0  0  0  0  0  0  0  0
   -5.0193    0.4077   -2.1582 C   0  0  0  0  0  0  0  0  0  0  0  0
   -3.9906    0.0074    0.7486 C   0  0  0  0  0  0  0  0  0  0  0  0
   -2.8171    0.3694   -0.0425 C   0  0  0  0  0  0  0  0  0  0  0  0
   -2.1120   -0.5555   -0.7670 C   0  0  0  0  0  0  0  0  0  0  0  0
   -0.9968   -0.1708   -1.5095 C   0  0  0  0  0  0  0  0  0  0  0  0
   -0.5775    1.1365   -1.5349 C   0  0  0  0  0  0  0  0  0  0  0  0
    0.5892    1.5579   -2.3054 C   0  0  0  0  0  0  0  0  0  0  0  0
    1.8220    1.5068   -1.5823 N   0  0  0  0  0  0  0  0  0  0  0  0
    2.8913    1.9428   -2.4444 C   0  0  0  0  0  0  0  0  0  0  0  0
    4.2498    1.7134   -1.8587 C   0  0  0  0  0  0  0  0  0  0  0  0
    4.1391    1.3248   -0.3982 C   0  0  0  0  0  0  0  0  0  0  0  0
    5.4813    1.1462    0.1678 C   0  0  0  0  0  0  0  0  0  0  0  0
    6.0396    1.8760    1.1494 N   0  0  0  0  0  0  0  0  0  0  0  0
    7.2670    1.4330    1.4088 N   0  0  0  0  0  0  0  0  0  0  0  0
    7.5149    0.4065    0.5920 C   0  0  0  0  0  0  0  0  0  0  0  0
    8.7556   -0.3686    0.5519 C   0  0  0  0  0  0  0  0  0  0  0  0
    9.8088   -0.0804    1.3947 C   0  0  0  0  0  0  0  0  0  0  0  0
   10.9655   -0.8055    1.3559 C   0  0  0  0  0  0  0  0  0  0  0  0
   11.0955   -1.8483    0.4611 C   0  0  0  0  0  0  0  0  0  0  0  0
   10.0375   -2.1212   -0.3702 C   0  0  0  0  0  0  0  0  0  0  0  0
    8.9186   -1.3896   -0.3046 N   0  0  0  0  0  0  0  0  0  0  0  0
    6.4209    0.2361   -0.1633 N   0  0  0  0  0  0  0  0  0  0  0  0
    3.3480    0.0349   -0.3496 C   0  0  0  0  0  0  0  0  0  0  0  0
    2.0360    0.1600   -1.0893 C   0  0  0  0  0  0  0  0  0  0  0  0
   -1.2984    2.0466   -0.8021 C   0  0  0  0  0  0  0  0  0  0  0  0
   -2.4086    1.6824   -0.0587 C   0  0  0  0  0  0  0  0  0  0  0  0
   -3.9354    0.1801    2.0973 N   0  0  0  0  0  0  0  0  0  0  0  0
   -4.9866   -0.1376    2.8763 C   0  0  0  0  0  0  0  0  0  0  0  0
   -4.9477    0.0328    4.2600 C   0  0  0  0  0  0  0  0  0  0  0  0
   -6.0225   -0.2909    5.0661 C   0  0  0  0  0  0  0  0  0  0  0  0
   -7.1476   -0.7874    4.5049 N   0  0  0  0  0  0  0  0  0  0  0  0
  -10.0698   -1.9623    4.0653 H   0  0  0  0  0  0  0  0  0  0  0  0
   -7.0652   -1.2038    0.5167 H   0  0  0  0  0  0  0  0  0  0  0  0
   -5.4340   -2.7674   -1.2048 H   0  0  0  0  0  0  0  0  0  0  0  0
   -5.4870   -3.0168   -3.7058 H   0  0  0  0  0  0  0  0  0  0  0  0
   -5.2374   -1.0478   -5.1757 H   0  0  0  0  0  0  0  0  0  0  0  0
   -4.9379    1.1432   -4.1993 H   0  0  0  0  0  0  0  0  0  0  0  0
   -4.8869    1.3757   -1.6961 H   0  0  0  0  0  0  0  0  0  0  0  0
   -2.4517   -1.5815   -0.7392 H   0  0  0  0  0  0  0  0  0  0  0  0
   -0.4870   -0.9474   -2.0567 H   0  0  0  0  0  0  0  0  0  0  0  0
    0.7200    0.9831   -3.2475 H   0  0  0  0  0  0  0  0  0  0  0  0
    0.4121    2.6172   -2.6400 H   0  0  0  0  0  0  0  0  0  0  0  0
    2.8404    1.4360   -3.4279 H   0  0  0  0  0  0  0  0  0  0  0  0
    2.7127    3.0284   -2.6639 H   0  0  0  0  0  0  0  0  0  0  0  0
    4.7915    0.9622   -2.4305 H   0  0  0  0  0  0  0  0  0  0  0  0
    4.8220    2.6570   -1.9011 H   0  0  0  0  0  0  0  0  0  0  0  0
    3.6265    2.1648    0.1096 H   0  0  0  0  0  0  0  0  0  0  0  0
    9.7018    0.7428    2.0985 H   0  0  0  0  0  0  0  0  0  0  0  0
   11.7822   -0.5464    2.0423 H   0  0  0  0  0  0  0  0  0  0  0  0
   11.9997   -2.4432    0.4049 H   0  0  0  0  0  0  0  0  0  0  0  0
   10.0694   -2.9345   -1.1059 H   0  0  0  0  0  0  0  0  0  0  0  0
    6.3467   -0.5006   -0.8872 H   0  0  0  0  0  0  0  0  0  0  0  0
    3.9468   -0.7249   -0.8938 H   0  0  0  0  0  0  0  0  0  0  0  0
    3.2166   -0.2719    0.7081 H   0  0  0  0  0  0  0  0  0  0  0  0
    1.2251   -0.0417   -0.3497 H   0  0  0  0  0  0  0  0  0  0  0  0
    1.9248   -0.6104   -1.8809 H   0  0  0  0  0  0  0  0  0  0  0  0
   -0.9799    3.0700   -0.8148 H   0  0  0  0  0  0  0  0  0  0  0  0
   -2.9224    2.4672    0.4937 H   0  0  0  0  0  0  0  0  0  0  0  0
   -4.0739    0.4224    4.7324 H   0  0  0  0  0  0  0  0  0  0  0  0
   -5.9976   -0.1601    6.1451 H   0  0  0  0  0  0  0  0  0  0  0  0
  1  2  2  0
  2  3  1  0
  3  4  1  0
  4  5  2  0
  5  6  1  0
  6  7  2  0
  7  8  1  0
  8  9  1  0
  9 10  2  0
 10 11  1  0
 11 12  2  0
 12 13  1  0
 13 14  2  0
  8 15  2  0
 15 16  1  0
 16 17  2  0
 17 18  1  0
 18 19  2  0
 19 20  1  0
 20 21  1  0
 21 22  1  0
 22 23  1  0
 23 24  1  0
 24 25  1  0
 25 26  2  0
 26 27  1  0
 27 28  2  0
 28 29  1  0
 29 30  2  0
 30 31  1  0
 31 32  2  0
 32 33  1  0
 33 34  2  0
 28 35  1  0
 24 36  1  0
 36 37  1  0
 19 38  1  0
 38 39  2  0
 15 40  1  0
 40 41  2  0
 41 42  1  0
 42 43  2  0
 43 44  1  0
 44  2  1  0
 44  5  1  0
 41  6  1  0
 14  9  1  0
 39 16  1  0
 37 21  1  0
 35 25  1  0
 34 29  1  0
  3 45  1  0
  7 46  1  0
 10 47  1  0
 11 48  1  0
 12 49  1  0
 13 50  1  0
 14 51  1  0
 17 52  1  0
 18 53  1  0
 20 54  1  0
 20 55  1  0
 22 56  1  0
 22 57  1  0
 23 58  1  0
 23 59  1  0
 24 60  1  0
 30 61  1  0
 31 62  1  0
 32 63  1  0
 33 64  1  0
 35 65  1  0
 36 66  1  0
 36 67  1  0
 37 68  1  0
 37 69  1  0
 38 70  1  0
 39 71  1  0
 42 72  1  0
 43 73  1  0
M  END
$$$$
