
     RDKit          3D

 50 54  0  0  0  0  0  0  0  0999 V2000
   -3.7196    1.2137    0.6644 C   0  0  0  0  0  0  0  0  0  0  0  0
   -2.7690    0.1422    0.1756 C   0  0  1  0  0  0  0  0  0  0  0  0
   -2.0165   -0.2929    1.2588 O   0  0  0  0  0  0  0  0  0  0  0  0
   -0.6679   -0.2786    1.4336 C   0  0  0  0  0  0  0  0  0  0  0  0
    0.1674    0.2148    0.4636 C   0  0  0  0  0  0  0  0  0  0  0  0
    1.5522    0.2350    0.6309 C   0  0  0  0  0  0  0  0  0  0  0  0
    2.4584    0.7565   -0.3869 C   0  0  0  0  0  0  0  0  0  0  0  0
    3.7433    0.3038   -0.6113 C   0  0  0  0  0  0  0  0  0  0  0  0
    4.2161    1.0433   -1.6193 N   0  0  0  0  0  0  0  0  0  0  0  0
    3.3348    1.9183   -2.0419 N   0  0  0  0  0  0  0  0  0  0  0  0
    3.4978    2.8970   -3.1271 C   0  0  0  0  0  0  0  0  0  0  0  0
    4.2321    2.4217   -4.3413 C   0  0  0  0  0  0  0  0  0  0  0  0
    4.9374    3.3508   -3.3569 C   0  0  0  0  0  0  0  0  0  0  0  0
    2.2374    1.7644   -1.2982 C   0  0  0  0  0  0  0  0  0  0  0  0
    2.0588   -0.2608    1.8124 C   0  0  0  0  0  0  0  0  0  0  0  0
    1.2431   -0.7694    2.8197 C   0  0  0  0  0  0  0  0  0  0  0  0
    1.4649   -1.2999    4.0353 N   0  0  0  0  0  0  0  0  0  0  0  0
    0.3223   -1.6276    4.5897 N   0  0  0  0  0  0  0  0  0  0  0  0
    0.1657   -2.2290    5.9059 C   0  0  0  0  0  0  0  0  0  0  0  0
   -0.6724   -1.3252    3.7636 C   0  0  0  0  0  0  0  0  0  0  0  0
   -2.0121   -1.5208    3.9942 F   0  0  0  0  0  0  0  0  0  0  0  0
   -0.1388   -0.7669    2.6021 C   0  0  0  0  0  0  0  0  0  0  0  0
   -3.5243   -1.0605   -0.3597 C   0  0  1  0  0  0  0  0  0  0  0  0
   -4.4207   -0.7321   -1.5055 C   0  0  0  0  0  0  0  0  0  0  0  0
   -3.5855   -0.8912   -2.6659 N   0  0  0  0  0  0  0  0  0  0  0  0
   -2.5509   -1.8160   -2.4059 C   0  0  0  0  0  0  0  0  0  0  0  0
   -1.7355   -2.3566   -3.2002 O   0  0  0  0  0  0  0  0  0  0  0  0
   -2.5654   -2.0803   -0.9386 C   0  0  0  0  0  0  0  0  0  0  0  0
   -4.2457    1.7133   -0.1665 H   0  0  0  0  0  0  0  0  0  0  0  0
   -3.0765    1.9778    1.1802 H   0  0  0  0  0  0  0  0  0  0  0  0
   -4.3883    0.8105    1.4329 H   0  0  0  0  0  0  0  0  0  0  0  0
   -2.1964    0.5702   -0.6648 H   0  0  0  0  0  0  0  0  0  0  0  0
   -0.1745    0.6158   -0.4808 H   0  0  0  0  0  0  0  0  0  0  0  0
    4.2114   -0.4934   -0.0475 H   0  0  0  0  0  0  0  0  0  0  0  0
    2.7398    3.6783   -3.1974 H   0  0  0  0  0  0  0  0  0  0  0  0
    4.0337    2.8959   -5.3273 H   0  0  0  0  0  0  0  0  0  0  0  0
    4.5872    1.3862   -4.4093 H   0  0  0  0  0  0  0  0  0  0  0  0
    5.7412    2.9024   -2.7496 H   0  0  0  0  0  0  0  0  0  0  0  0
    5.1089    4.4035   -3.6570 H   0  0  0  0  0  0  0  0  0  0  0  0
    1.3205    2.3268   -1.3821 H   0  0  0  0  0  0  0  0  0  0  0  0
    3.1270   -0.2659    1.9877 H   0  0  0  0  0  0  0  0  0  0  0  0
   -0.0058   -3.3189    5.7570 H   0  0  0  0  0  0  0  0  0  0  0  0
   -0.6663   -1.7667    6.4623 H   0  0  0  0  0  0  0  0  0  0  0  0
    1.1013   -2.1038    6.4792 H   0  0  0  0  0  0  0  0  0  0  0  0
   -4.1176   -1.5752    0.4216 H   0  0  0  0  0  0  0  0  0  0  0  0
   -4.9183    0.2403   -1.4358 H   0  0  0  0  0  0  0  0  0  0  0  0
   -5.2172   -1.5298   -1.5733 H   0  0  0  0  0  0  0  0  0  0  0  0
   -3.7033   -0.4044   -3.5839 H   0  0  0  0  0  0  0  0  0  0  0  0
   -1.5576   -2.0112   -0.5208 H   0  0  0  0  0  0  0  0  0  0  0  0
   -2.9567   -3.1175   -0.8161 H   0  0  0  0  0  0  0  0  0  0  0  0
  1  2  1  0
  2  3  1  0
  3  4  1  0
  4  5  2  0
  5  6  1  0
  6  7  1  0
  7  8  1  0
  8  9  2  0
  9 10  1  0
 10 11  1  0
 11 12  1  0
 12 13  1  0
 10 14  1  0
  6 15  2  0
 15 16  1  0
 16 17  2  0
 17 18  1  0
 18 19  1  0
 18 20  1  0
 20 21  1  0
 20 22  2  0
  2 23  1  0
 23 24  1  0
 24 25  1  0
 25 26  1  0
 26 27  2  0
 26 28  1  0
 22  4  1  0
 28 23  1  0
 14  7  2  0
 22 16  1  0
 13 11  1  0
  1 29  1  0
  1 30  1  0
  1 31  1  0
  2 32  1  6
  5 33  1  0
  8 34  1  0
 11 35  1  0
 12 36  1  0
 12 37  1  0
 13 38  1  0
 13 39  1  0
 14 40  1  0
 15 41  1  0
 19 42  1  0
 19 43  1  0
 19 44  1  0
 23 45  1  1
 24 46  1  0
 24 47  1  0
 25 48  1  0
 28 49  1  0
 28 50  1  0
M  END
$$$$
