
     RDKit          3D

 38 40  0  0  0  0  0  0  0  0999 V2000
   -5.8645    0.5915    1.3093 C   0  0  0  0  0  0  0  0  0  0  0  0
   -5.3894   -0.0689   -0.3048 S   0  0  0  0  0  0  0  0  0  0  0  0
   -3.6212   -0.3051   -0.3045 C   0  0  0  0  0  0  0  0  0  0  0  0
   -3.0921   -1.5087    0.1072 C   0  0  0  0  0  0  0  0  0  0  0  0
   -1.7196   -1.6410    0.0889 C   0  0  0  0  0  0  0  0  0  0  0  0
   -0.9084   -0.6031   -0.3276 C   0  0  0  0  0  0  0  0  0  0  0  0
   -1.4360    0.6213   -0.7469 C   0  0  0  0  0  0  0  0  0  0  0  0
   -2.8264    0.7393   -0.7224 C   0  0  0  0  0  0  0  0  0  0  0  0
   -3.4591    2.0118   -1.1541 C   0  0  0  0  0  0  0  0  0  0  0  0
   -4.2820    1.7197   -2.2244 F   0  0  0  0  0  0  0  0  0  0  0  0
   -2.4832    2.8745   -1.6366 F   0  0  0  0  0  0  0  0  0  0  0  0
   -4.1048    2.6617   -0.1398 F   0  0  0  0  0  0  0  0  0  0  0  0
    0.4486   -0.9816   -0.2579 N   0  0  0  0  0  0  0  0  0  0  0  0
    1.5871   -0.1288   -0.1932 C   0  0  0  0  0  0  0  0  0  0  0  0
    1.4917    1.1257   -0.1917 O   0  0  0  0  0  0  0  0  0  0  0  0
    2.9103   -0.6570   -0.1260 N   0  0  0  0  0  0  0  0  0  0  0  0
    4.0454    0.1972   -0.0615 C   0  0  0  0  0  0  0  0  0  0  0  0
    4.6044    0.6573    1.1100 C   0  0  0  0  0  0  0  0  0  0  0  0
    5.7028    1.4840    1.1731 C   0  0  0  0  0  0  0  0  0  0  0  0
    6.2686    1.8671   -0.0341 C   0  0  0  0  0  0  0  0  0  0  0  0
    5.7458    1.4349   -1.1864 N   0  0  0  0  0  0  0  0  0  0  0  0
    4.6537    0.6134   -1.2327 C   0  0  0  0  0  0  0  0  0  0  0  0
    0.4445   -2.4308   -0.2657 C   0  0  0  0  0  0  0  0  0  0  0  0
   -0.8277   -2.7641    0.4562 C   0  0  0  0  0  0  0  0  0  0  0  0
   -6.2299   -0.2145    1.9865 H   0  0  0  0  0  0  0  0  0  0  0  0
   -5.0043    1.0585    1.8413 H   0  0  0  0  0  0  0  0  0  0  0  0
   -6.6572    1.3648    1.1764 H   0  0  0  0  0  0  0  0  0  0  0  0
   -3.7548   -2.3022    0.4276 H   0  0  0  0  0  0  0  0  0  0  0  0
   -0.8123    1.4309   -1.0712 H   0  0  0  0  0  0  0  0  0  0  0  0
    2.9914   -1.7067   -0.1272 H   0  0  0  0  0  0  0  0  0  0  0  0
    4.1503    0.3485    2.0381 H   0  0  0  0  0  0  0  0  0  0  0  0
    6.1196    1.8297    2.1243 H   0  0  0  0  0  0  0  0  0  0  0  0
    7.1381    2.5213    0.0077 H   0  0  0  0  0  0  0  0  0  0  0  0
    4.3018    0.3156   -2.2078 H   0  0  0  0  0  0  0  0  0  0  0  0
    1.3305   -2.8530    0.2533 H   0  0  0  0  0  0  0  0  0  0  0  0
    0.4064   -2.8347   -1.3067 H   0  0  0  0  0  0  0  0  0  0  0  0
   -1.2452   -3.7544    0.1643 H   0  0  0  0  0  0  0  0  0  0  0  0
   -0.6226   -2.7143    1.5590 H   0  0  0  0  0  0  0  0  0  0  0  0
  1  2  1  0
  2  3  1  0
  3  4  2  0
  4  5  1  0
  5  6  2  0
  6  7  1  0
  7  8  2  0
  8  9  1  0
  9 10  1  0
  9 11  1  0
  9 12  1  0
  6 13  1  0
 13 14  1  0
 14 15  2  0
 14 16  1  0
 16 17  1  0
 17 18  2  0
 18 19  1  0
 19 20  2  0
 20 21  1  0
 21 22  2  0
 13 23  1  0
 23 24  1  0
  8  3  1  0
 22 17  1  0
 24  5  1  0
  1 25  1  0
  1 26  1  0
  1 27  1  0
  4 28  1  0
  7 29  1  0
 16 30  1  0
 18 31  1  0
 19 32  1  0
 20 33  1  0
 22 34  1  0
 23 35  1  0
 23 36  1  0
 24 37  1  0
 24 38  1  0
M  END
$$$$
