
     RDKit          3D

 42 45  0  0  0  0  0  0  0  0999 V2000
   -5.1413    2.5399    0.1311 N   0  0  0  0  0  0  0  0  0  0  0  0
   -4.3835    1.3735   -0.1352 C   0  0  0  0  0  0  0  0  0  0  0  0
   -3.4356    0.9326    0.6229 N   0  0  0  0  0  0  0  0  0  0  0  0
   -2.6897   -0.2734    0.3030 C   0  0  1  0  0  0  0  0  0  0  0  0
   -1.4677   -0.2203    1.1441 C   0  0  0  0  0  0  0  0  0  0  0  0
   -0.2044   -0.3661    0.6201 C   0  0  0  0  0  0  0  0  0  0  0  0
    0.9585   -0.3945    1.4078 C   0  0  0  0  0  0  0  0  0  0  0  0
    2.1868   -0.5475    0.7523 N   0  0  0  0  0  0  0  0  0  0  0  0
    2.9929    0.5011    0.2770 C   0  0  0  0  0  0  0  0  0  0  0  0
    2.6251    1.6778    0.4287 O   0  0  0  0  0  0  0  0  0  0  0  0
    4.2562    0.2259   -0.3925 C   0  0  0  0  0  0  0  0  0  0  0  0
    4.7088   -1.0287   -0.5868 N   0  0  0  0  0  0  0  0  0  0  0  0
    5.8888   -1.2681   -1.2128 C   0  0  0  0  0  0  0  0  0  0  0  0
    6.6919   -0.2516   -1.6854 C   0  0  0  0  0  0  0  0  0  0  0  0
    8.2257   -0.5736   -2.4987 Cl  0  0  0  0  0  0  0  0  0  0  0  0
    6.2545    1.0435   -1.5008 C   0  0  0  0  0  0  0  0  0  0  0  0
    5.0438    1.2575   -0.8573 C   0  0  0  0  0  0  0  0  0  0  0  0
    4.4767    2.9008   -0.6166 Cl  0  0  0  0  0  0  0  0  0  0  0  0
    0.8101   -0.2709    2.7574 C   0  0  0  0  0  0  0  0  0  0  0  0
   -0.4256   -0.1233    3.3287 C   0  0  0  0  0  0  0  0  0  0  0  0
   -1.5433   -0.0980    2.5313 C   0  0  0  0  0  0  0  0  0  0  0  0
   -3.1428    0.1590    3.2446 Cl  0  0  0  0  0  0  0  0  0  0  0  0
   -3.4622   -1.5051    0.6490 C   0  0  0  0  0  0  0  0  0  0  0  0
   -4.6823   -1.6136    0.0025 F   0  0  0  0  0  0  0  0  0  0  0  0
   -2.6863   -2.6495    0.3700 F   0  0  0  0  0  0  0  0  0  0  0  0
   -2.3525   -0.2791   -1.1824 C   0  0  1  0  0  0  0  0  0  0  0  0
   -2.9743   -1.1955   -2.1341 C   0  0  0  0  0  0  0  0  0  0  0  0
   -3.4993    0.1635   -2.0284 C   0  0  1  0  0  0  0  0  0  0  0  0
   -4.6051    0.5741   -1.2823 O   0  0  0  0  0  0  0  0  0  0  0  0
   -6.1436    2.5432    0.4120 H   0  0  0  0  0  0  0  0  0  0  0  0
   -4.6533    3.4708    0.0375 H   0  0  0  0  0  0  0  0  0  0  0  0
   -0.0692   -0.4836   -0.4528 H   0  0  0  0  0  0  0  0  0  0  0  0
    2.5368   -1.5285    0.6025 H   0  0  0  0  0  0  0  0  0  0  0  0
    6.2001   -2.2943   -1.3400 H   0  0  0  0  0  0  0  0  0  0  0  0
    6.8644    1.8578   -1.8614 H   0  0  0  0  0  0  0  0  0  0  0  0
    1.7342   -0.2967    3.3546 H   0  0  0  0  0  0  0  0  0  0  0  0
   -0.5206   -0.0287    4.3829 H   0  0  0  0  0  0  0  0  0  0  0  0
   -3.6812   -1.5846    1.7213 H   0  0  0  0  0  0  0  0  0  0  0  0
   -1.4192    0.2547   -1.4472 H   0  0  0  0  0  0  0  0  0  0  0  0
   -3.6197   -2.0419   -1.8996 H   0  0  0  0  0  0  0  0  0  0  0  0
   -2.3681   -1.4176   -3.0750 H   0  0  0  0  0  0  0  0  0  0  0  0
   -3.2848    0.8589   -2.8918 H   0  0  0  0  0  0  0  0  0  0  0  0
  1  2  1  0
  2  3  2  0
  3  4  1  0
  4  5  1  0
  5  6  2  0
  6  7  1  0
  7  8  1  0
  8  9  1  0
  9 10  2  0
  9 11  1  0
 11 12  2  0
 12 13  1  0
 13 14  2  0
 14 15  1  0
 14 16  1  0
 16 17  2  0
 17 18  1  0
  7 19  2  0
 19 20  1  0
 20 21  2  0
 21 22  1  0
  4 23  1  1
 23 24  1  0
 23 25  1  0
  4 26  1  0
 26 27  1  0
 27 28  1  0
 28 29  1  0
 29  2  1  0
 21  5  1  0
 28 26  1  0
 17 11  1  0
  1 30  1  0
  1 31  1  0
  6 32  1  0
  8 33  1  0
 13 34  1  0
 16 35  1  0
 19 36  1  0
 20 37  1  0
 23 38  1  0
 26 39  1  1
 27 40  1  0
 27 41  1  0
 28 42  1  6
M  END
$$$$
