
     RDKit          3D

 42 45  0  0  0  0  0  0  0  0999 V2000
    5.3743   -1.4225   -0.6929 C   0  0  0  0  0  0  0  0  0  0  0  0
    4.3057   -0.4999   -0.5333 O   0  0  0  0  0  0  0  0  0  0  0  0
    3.0161   -0.9497   -0.3359 C   0  0  0  0  0  0  0  0  0  0  0  0
    2.6912   -2.2806   -0.2823 C   0  0  0  0  0  0  0  0  0  0  0  0
    1.4000   -2.6775   -0.0840 C   0  0  0  0  0  0  0  0  0  0  0  0
    1.0694   -3.9747   -0.0292 F   0  0  0  0  0  0  0  0  0  0  0  0
    0.3731   -1.7341    0.0695 C   0  0  0  0  0  0  0  0  0  0  0  0
    0.6805   -0.3967    0.0163 C   0  0  0  0  0  0  0  0  0  0  0  0
    2.0109    0.0031   -0.1860 C   0  0  0  0  0  0  0  0  0  0  0  0
    2.3230    1.3127   -0.2080 N   0  0  0  0  0  0  0  0  0  0  0  0
    1.3782    2.2504   -0.0390 C   0  0  0  0  0  0  0  0  0  0  0  0
    1.7813    3.6848   -0.0708 C   0  0  0  0  0  0  0  0  0  0  0  0
    0.0627    1.8904    0.1595 C   0  0  0  0  0  0  0  0  0  0  0  0
   -1.0864    2.6216    0.3618 C   0  0  0  0  0  0  0  0  0  0  0  0
   -1.1694    4.1020    0.4129 C   0  0  0  0  0  0  0  0  0  0  0  0
   -2.0794    1.7392    0.4974 N   0  0  0  0  0  0  0  0  0  0  0  0
   -1.5715    0.4534    0.3821 C   0  0  0  0  0  0  0  0  0  0  0  0
   -2.4874   -0.6431    0.4900 C   0  0  0  0  0  0  0  0  0  0  0  0
   -3.0687   -0.8615    1.7209 C   0  0  0  0  0  0  0  0  0  0  0  0
   -4.0237   -1.8189    1.8899 C   0  0  0  0  0  0  0  0  0  0  0  0
   -4.4221   -2.5852    0.8254 C   0  0  0  0  0  0  0  0  0  0  0  0
   -3.8475   -2.3602   -0.3634 N   0  0  0  0  0  0  0  0  0  0  0  0
   -2.9118   -1.4326   -0.5624 C   0  0  0  0  0  0  0  0  0  0  0  0
   -2.3362   -1.2445   -1.9024 C   0  0  0  0  0  0  0  0  0  0  0  0
   -0.2638    0.5617    0.1814 N   0  0  0  0  0  0  0  0  0  0  0  0
    5.3182   -2.1445    0.1483 H   0  0  0  0  0  0  0  0  0  0  0  0
    5.1503   -2.0126   -1.6216 H   0  0  0  0  0  0  0  0  0  0  0  0
    6.3305   -0.9143   -0.7960 H   0  0  0  0  0  0  0  0  0  0  0  0
    3.5022   -2.9864   -0.4041 H   0  0  0  0  0  0  0  0  0  0  0  0
   -0.5963   -2.0685    0.2529 H   0  0  0  0  0  0  0  0  0  0  0  0
    2.9031    3.7374    0.0456 H   0  0  0  0  0  0  0  0  0  0  0  0
    1.3891    4.2671    0.7700 H   0  0  0  0  0  0  0  0  0  0  0  0
    1.5961    4.1493   -1.0690 H   0  0  0  0  0  0  0  0  0  0  0  0
   -2.2592    4.3880    0.3006 H   0  0  0  0  0  0  0  0  0  0  0  0
   -0.6645    4.6006   -0.4186 H   0  0  0  0  0  0  0  0  0  0  0  0
   -0.9020    4.5043    1.4194 H   0  0  0  0  0  0  0  0  0  0  0  0
   -2.7540   -0.2490    2.5842 H   0  0  0  0  0  0  0  0  0  0  0  0
   -4.4518   -1.9542    2.8752 H   0  0  0  0  0  0  0  0  0  0  0  0
   -5.1917   -3.3577    0.9590 H   0  0  0  0  0  0  0  0  0  0  0  0
   -3.1359   -1.3284   -2.6891 H   0  0  0  0  0  0  0  0  0  0  0  0
   -1.7925   -0.2817   -1.9823 H   0  0  0  0  0  0  0  0  0  0  0  0
   -1.6400   -2.0867   -2.0920 H   0  0  0  0  0  0  0  0  0  0  0  0
  1  2  1  0
  2  3  1  0
  3  4  2  0
  4  5  1  0
  5  6  1  0
  5  7  2  0
  7  8  1  0
  8  9  2  0
  9 10  1  0
 10 11  2  0
 11 12  1  0
 11 13  1  0
 13 14  2  0
 14 15  1  0
 14 16  1  0
 16 17  2  0
 17 18  1  0
 18 19  2  0
 19 20  1  0
 20 21  2  0
 21 22  1  0
 22 23  2  0
 23 24  1  0
 17 25  1  0
  9  3  1  0
 25 13  1  0
 25  8  1  0
 23 18  1  0
  1 26  1  0
  1 27  1  0
  1 28  1  0
  4 29  1  0
  7 30  1  0
 12 31  1  0
 12 32  1  0
 12 33  1  0
 15 34  1  0
 15 35  1  0
 15 36  1  0
 19 37  1  0
 20 38  1  0
 21 39  1  0
 24 40  1  0
 24 41  1  0
 24 42  1  0
M  END
$$$$
