
     RDKit          3D

 66 69  0  0  0  0  0  0  0  0999 V2000
   -3.0316   -4.2164    0.7821 C   0  0  0  0  0  0  0  0  0  0  0  0
   -1.7798   -3.6201    0.1193 C   0  0  0  0  0  0  0  0  0  0  0  0
   -1.9558   -3.7815   -1.3660 C   0  0  0  0  0  0  0  0  0  0  0  0
   -1.7457   -2.1681    0.5530 C   0  0  0  0  0  0  0  0  0  0  0  0
   -0.5882   -1.4294   -0.0040 C   0  0  2  0  0  0  0  0  0  0  0  0
    0.7091   -1.9994    0.4862 C   0  0  0  0  0  0  0  0  0  0  0  0
    0.7530   -2.9453    1.3421 O   0  0  0  0  0  0  0  0  0  0  0  0
    1.8967   -1.4439   -0.0384 N   0  0  0  0  0  0  0  0  0  0  0  0
    2.0019   -0.0506   -0.4171 C   0  0  2  0  0  0  0  0  0  0  0  0
    3.2114    0.5115    0.2881 C   0  0  0  0  0  0  0  0  0  0  0  0
    3.4508    1.9528   -0.0076 C   0  0  0  0  0  0  0  0  0  0  0  0
    4.9333    2.0643    0.0182 C   0  0  0  0  0  0  0  0  0  0  0  0
    5.8006    3.1273    0.1784 C   0  0  0  0  0  0  0  0  0  0  0  0
    7.1724    2.9757    0.1652 C   0  0  0  0  0  0  0  0  0  0  0  0
    7.7103    1.7325   -0.0123 C   0  0  0  0  0  0  0  0  0  0  0  0
    6.8778    0.6492   -0.1753 C   0  0  0  0  0  0  0  0  0  0  0  0
    5.5036    0.8195   -0.1593 C   0  0  0  0  0  0  0  0  0  0  0  0
    4.4295   -0.1657   -0.3096 C   0  0  0  0  0  0  0  0  0  0  0  0
    0.7578    0.6116    0.0403 C   0  0  0  0  0  0  0  0  0  0  0  0
    0.8635    1.7836    0.4740 O   0  0  0  0  0  0  0  0  0  0  0  0
   -0.5368   -0.0344    0.0001 N   0  0  0  0  0  0  0  0  0  0  0  0
   -1.6879    0.9046   -0.0992 C   0  0  1  0  0  0  0  0  0  0  0  0
   -2.3632    0.6323   -1.3873 C   0  0  0  0  0  0  0  0  0  0  0  0
   -2.3195   -0.5018   -1.8837 O   0  0  0  0  0  0  0  0  0  0  0  0
   -3.0626    1.6405   -2.0833 N   0  0  0  0  0  0  0  0  0  0  0  0
   -3.1879    3.0224   -1.7069 C   0  0  0  0  0  0  0  0  0  0  0  0
   -3.7463    1.2630   -3.3304 C   0  0  0  0  0  0  0  0  0  0  0  0
   -2.5224    0.7883    1.1005 C   0  0  0  0  0  0  0  0  0  0  0  0
   -3.8733    1.0457    1.0806 C   0  0  0  0  0  0  0  0  0  0  0  0
   -4.6733    0.8930    2.2198 C   0  0  0  0  0  0  0  0  0  0  0  0
   -4.0930    0.4727    3.3943 C   0  0  0  0  0  0  0  0  0  0  0  0
   -4.8560    0.3206    4.5038 F   0  0  0  0  0  0  0  0  0  0  0  0
   -2.7391    0.2134    3.4180 C   0  0  0  0  0  0  0  0  0  0  0  0
   -1.9879    0.3759    2.2788 C   0  0  0  0  0  0  0  0  0  0  0  0
   -0.6740    0.1219    2.3927 F   0  0  0  0  0  0  0  0  0  0  0  0
   -2.9341   -5.3128    0.8825 H   0  0  0  0  0  0  0  0  0  0  0  0
   -3.8835   -4.0486    0.0758 H   0  0  0  0  0  0  0  0  0  0  0  0
   -3.2743   -3.7019    1.7221 H   0  0  0  0  0  0  0  0  0  0  0  0
   -0.9465   -4.2085    0.5242 H   0  0  0  0  0  0  0  0  0  0  0  0
   -2.7835   -3.2040   -1.7745 H   0  0  0  0  0  0  0  0  0  0  0  0
   -2.1698   -4.8489   -1.6203 H   0  0  0  0  0  0  0  0  0  0  0  0
   -1.0089   -3.5492   -1.9204 H   0  0  0  0  0  0  0  0  0  0  0  0
   -2.7041   -1.7190    0.4125 H   0  0  0  0  0  0  0  0  0  0  0  0
   -1.6475   -2.2844    1.6970 H   0  0  0  0  0  0  0  0  0  0  0  0
   -0.5568   -1.7305   -1.1210 H   0  0  0  0  0  0  0  0  0  0  0  0
    2.7423   -2.0901   -0.1456 H   0  0  0  0  0  0  0  0  0  0  0  0
    2.1183    0.0950   -1.4983 H   0  0  0  0  0  0  0  0  0  0  0  0
    3.1862    0.3336    1.3663 H   0  0  0  0  0  0  0  0  0  0  0  0
    3.0097    2.3006   -0.9509 H   0  0  0  0  0  0  0  0  0  0  0  0
    3.0810    2.5448    0.8768 H   0  0  0  0  0  0  0  0  0  0  0  0
    5.4129    4.1136    0.3195 H   0  0  0  0  0  0  0  0  0  0  0  0
    7.8351    3.8324    0.2941 H   0  0  0  0  0  0  0  0  0  0  0  0
    8.7852    1.6058   -0.0239 H   0  0  0  0  0  0  0  0  0  0  0  0
    7.3232   -0.3310   -0.3151 H   0  0  0  0  0  0  0  0  0  0  0  0
    4.2034   -0.3299   -1.3870 H   0  0  0  0  0  0  0  0  0  0  0  0
    4.6521   -1.1336    0.2032 H   0  0  0  0  0  0  0  0  0  0  0  0
   -1.3286    1.9476   -0.1311 H   0  0  0  0  0  0  0  0  0  0  0  0
   -3.0848    3.6327   -2.6506 H   0  0  0  0  0  0  0  0  0  0  0  0
   -4.2139    3.2490   -1.3102 H   0  0  0  0  0  0  0  0  0  0  0  0
   -2.4362    3.4011   -1.0190 H   0  0  0  0  0  0  0  0  0  0  0  0
   -4.0849    0.2151   -3.3002 H   0  0  0  0  0  0  0  0  0  0  0  0
   -4.5950    1.9381   -3.5460 H   0  0  0  0  0  0  0  0  0  0  0  0
   -2.9944    1.3620   -4.1592 H   0  0  0  0  0  0  0  0  0  0  0  0
   -4.3374    1.3603    0.1632 H   0  0  0  0  0  0  0  0  0  0  0  0
   -5.7309    1.1175    2.1201 H   0  0  0  0  0  0  0  0  0  0  0  0
   -2.2813   -0.1228    4.3608 H   0  0  0  0  0  0  0  0  0  0  0  0
  1  2  1  0
  2  3  1  0
  2  4  1  0
  4  5  1  0
  5  6  1  0
  6  7  2  0
  6  8  1  0
  8  9  1  0
  9 10  1  0
 10 11  1  0
 11 12  1  0
 12 13  2  0
 13 14  1  0
 14 15  2  0
 15 16  1  0
 16 17  2  0
 17 18  1  0
  9 19  1  0
 19 20  2  0
 19 21  1  0
 21 22  1  0
 22 23  1  0
 23 24  2  0
 23 25  1  0
 25 26  1  0
 25 27  1  0
 22 28  1  0
 28 29  2  0
 29 30  1  0
 30 31  2  0
 31 32  1  0
 31 33  1  0
 33 34  2  0
 34 35  1  0
 21  5  1  0
 34 28  1  0
 18 10  1  0
 17 12  1  0
  1 36  1  0
  1 37  1  0
  1 38  1  0
  2 39  1  0
  3 40  1  0
  3 41  1  0
  3 42  1  0
  4 43  1  0
  4 44  1  0
  5 45  1  6
  8 46  1  0
  9 47  1  6
 10 48  1  0
 11 49  1  0
 11 50  1  0
 13 51  1  0
 14 52  1  0
 15 53  1  0
 16 54  1  0
 18 55  1  0
 18 56  1  0
 22 57  1  6
 26 58  1  0
 26 59  1  0
 26 60  1  0
 27 61  1  0
 27 62  1  0
 27 63  1  0
 29 64  1  0
 30 65  1  0
 33 66  1  0
M  END
$$$$
