
     RDKit          3D

 55 59  0  0  0  0  0  0  0  0999 V2000
   -3.4183   -1.6971    2.3339 C   0  0  0  0  0  0  0  0  0  0  0  0
   -2.1218   -1.1925    1.7929 C   0  0  2  0  0  0  0  0  0  0  0  0
   -1.1043   -0.8760    2.8743 C   0  0  0  0  0  0  0  0  0  0  0  0
    0.1090   -0.4131    2.2630 N   0  0  0  0  0  0  0  0  0  0  0  0
    1.4020   -0.5856    2.5721 N   0  0  0  0  0  0  0  0  0  0  0  0
    2.1718    0.0657    1.6700 C   0  0  0  0  0  0  0  0  0  0  0  0
    1.3425    0.6743    0.7547 C   0  0  0  0  0  0  0  0  0  0  0  0
    1.7781    1.4941   -0.4052 C   0  0  0  0  0  0  0  0  0  0  0  0
    1.9612    0.6336   -1.5972 C   0  0  0  0  0  0  0  0  0  0  0  0
    3.3442    0.1945   -1.8919 C   0  0  0  0  0  0  0  0  0  0  0  0
    4.2523    0.5476   -0.8553 N   0  0  0  0  0  0  0  0  0  0  0  0
    5.8370   -0.0573   -1.0786 S   0  0  0  0  0  6  0  0  0  0  0  0
    5.7592   -1.8311   -1.0996 C   0  0  0  0  0  0  0  0  0  0  0  0
    6.7728    0.4314   -0.0333 O   0  0  0  0  0  0  0  0  0  0  0  0
    6.3528    0.4658   -2.4095 O   0  0  0  0  0  0  0  0  0  0  0  0
    4.2175    1.9930   -0.7299 C   0  0  0  0  0  0  0  0  0  0  0  0
    2.9460    2.3156    0.0053 C   0  0  0  0  0  0  0  0  0  0  0  0
    0.0606    0.3458    1.1677 C   0  0  0  0  0  0  0  0  0  0  0  0
   -1.2081    0.7716    0.4941 C   0  0  0  0  0  0  0  0  0  0  0  0
   -2.3211   -0.0446    0.9528 N   0  0  0  0  0  0  0  0  0  0  0  0
   -3.6261    0.3115    0.5454 C   0  0  0  0  0  0  0  0  0  0  0  0
   -4.5250    0.8379    1.4785 C   0  0  0  0  0  0  0  0  0  0  0  0
   -5.7681    1.1937    1.0614 C   0  0  0  0  0  0  0  0  0  0  0  0
   -6.9086    1.8549    2.2145 Cl  0  0  0  0  0  0  0  0  0  0  0  0
   -6.1469    1.0516   -0.2153 N   0  0  0  0  0  0  0  0  0  0  0  0
   -5.3045    0.5486   -1.1338 C   0  0  0  0  0  0  0  0  0  0  0  0
   -5.5198    0.3381   -2.4379 N   0  0  0  0  0  0  0  0  0  0  0  0
   -4.3878   -0.1771   -2.9215 C   0  0  0  0  0  0  0  0  0  0  0  0
   -3.4414   -0.2964   -1.9170 C   0  0  0  0  0  0  0  0  0  0  0  0
   -4.0279    0.1691   -0.7693 C   0  0  0  0  0  0  0  0  0  0  0  0
   -3.7166   -1.2437    3.3039 H   0  0  0  0  0  0  0  0  0  0  0  0
   -3.2869   -2.7997    2.5177 H   0  0  0  0  0  0  0  0  0  0  0  0
   -4.2037   -1.5868    1.5566 H   0  0  0  0  0  0  0  0  0  0  0  0
   -1.6854   -1.9998    1.1608 H   0  0  0  0  0  0  0  0  0  0  0  0
   -0.9550   -1.8260    3.4437 H   0  0  0  0  0  0  0  0  0  0  0  0
   -1.4998   -0.0705    3.5456 H   0  0  0  0  0  0  0  0  0  0  0  0
    3.2515    0.0697    1.7150 H   0  0  0  0  0  0  0  0  0  0  0  0
    0.9236    2.2072   -0.6020 H   0  0  0  0  0  0  0  0  0  0  0  0
    1.5528    1.1533   -2.4922 H   0  0  0  0  0  0  0  0  0  0  0  0
    1.3247   -0.2932   -1.4953 H   0  0  0  0  0  0  0  0  0  0  0  0
    3.7138    0.6311   -2.8624 H   0  0  0  0  0  0  0  0  0  0  0  0
    3.4183   -0.9212   -2.0467 H   0  0  0  0  0  0  0  0  0  0  0  0
    4.7166   -2.2070   -1.1402 H   0  0  0  0  0  0  0  0  0  0  0  0
    6.1984   -2.2409   -0.1662 H   0  0  0  0  0  0  0  0  0  0  0  0
    6.2719   -2.2322   -1.9975 H   0  0  0  0  0  0  0  0  0  0  0  0
    5.0777    2.3651   -0.1455 H   0  0  0  0  0  0  0  0  0  0  0  0
    4.2360    2.4944   -1.7223 H   0  0  0  0  0  0  0  0  0  0  0  0
    2.7651    3.4142   -0.1187 H   0  0  0  0  0  0  0  0  0  0  0  0
    3.1834    2.1971    1.1026 H   0  0  0  0  0  0  0  0  0  0  0  0
   -1.1409    0.7454   -0.6035 H   0  0  0  0  0  0  0  0  0  0  0  0
   -1.3648    1.8488    0.7673 H   0  0  0  0  0  0  0  0  0  0  0  0
   -4.1970    0.9500    2.5174 H   0  0  0  0  0  0  0  0  0  0  0  0
   -6.4067    0.5362   -2.9893 H   0  0  0  0  0  0  0  0  0  0  0  0
   -4.2231   -0.4629   -3.9456 H   0  0  0  0  0  0  0  0  0  0  0  0
   -2.4313   -0.6799   -1.9881 H   0  0  0  0  0  0  0  0  0  0  0  0
  1  2  1  0
  2  3  1  0
  3  4  1  0
  4  5  1  0
  5  6  2  0
  6  7  1  0
  7  8  1  0
  8  9  1  0
  9 10  1  0
 10 11  1  0
 11 12  1  0
 12 13  1  0
 12 14  2  0
 12 15  2  0
 11 16  1  0
 16 17  1  0
  7 18  2  0
 18 19  1  0
 19 20  1  0
 20 21  1  0
 21 22  2  0
 22 23  1  0
 23 24  1  0
 23 25  2  0
 25 26  1  0
 26 27  1  0
 27 28  1  0
 28 29  2  0
 29 30  1  0
 20  2  1  0
 30 21  1  0
 18  4  1  0
 30 26  2  0
 17  8  1  0
  1 31  1  0
  1 32  1  0
  1 33  1  0
  2 34  1  6
  3 35  1  0
  3 36  1  0
  6 37  1  0
  8 38  1  0
  9 39  1  0
  9 40  1  0
 10 41  1  0
 10 42  1  0
 13 43  1  0
 13 44  1  0
 13 45  1  0
 16 46  1  0
 16 47  1  0
 17 48  1  0
 17 49  1  0
 19 50  1  0
 19 51  1  0
 22 52  1  0
 27 53  1  0
 28 54  1  0
 29 55  1  0
M  END
$$$$
