
     RDKit          3D

 65 68  0  0  0  0  0  0  0  0999 V2000
   11.3608   -1.1403    1.1477 C   0  0  0  0  0  0  0  0  0  0  0  0
   10.0120   -0.5213    1.0416 C   0  0  0  0  0  0  0  0  0  0  0  0
    8.8507   -1.1031    0.5793 C   0  0  0  0  0  0  0  0  0  0  0  0
    7.7906   -0.1894    0.6380 C   0  0  0  0  0  0  0  0  0  0  0  0
    6.4617   -0.2567    0.3081 C   0  0  0  0  0  0  0  0  0  0  0  0
    5.9449   -1.3946   -0.1900 F   0  0  0  0  0  0  0  0  0  0  0  0
    5.6523    0.8332    0.4834 C   0  0  0  0  0  0  0  0  0  0  0  0
    4.2962    0.8263    0.1673 O   0  0  0  0  0  0  0  0  0  0  0  0
    3.4906   -0.0868    0.8221 C   0  0  0  0  0  0  0  0  0  0  0  0
    3.9720   -0.9327    1.7214 N   0  0  0  0  0  0  0  0  0  0  0  0
    3.1322   -1.7859    2.3125 C   0  0  0  0  0  0  0  0  0  0  0  0
    1.8394   -1.7898    2.0079 N   0  0  0  0  0  0  0  0  0  0  0  0
    1.3266   -0.9429    1.1002 N   0  0  0  0  0  0  0  0  0  0  0  0
    0.0842   -0.7614    0.6355 C   0  0  0  0  0  0  0  0  0  0  0  0
    0.0924    0.2463   -0.2972 C   0  0  0  0  0  0  0  0  0  0  0  0
   -1.0392    0.6818   -0.9713 O   0  0  0  0  0  0  0  0  0  0  0  0
   -2.3186    0.1324   -0.7667 C   0  0  0  0  0  0  0  0  0  0  0  0
   -3.3763    0.7727   -1.6135 C   0  0  1  0  0  0  0  0  0  0  0  0
   -3.1257    0.6061   -3.0935 C   0  0  0  0  0  0  0  0  0  0  0  0
   -4.6112    0.1483   -1.3301 O   0  0  0  0  0  0  0  0  0  0  0  0
   -5.6769    0.9101   -0.8770 C   0  0  0  0  0  0  0  0  0  0  0  0
   -5.4754    2.1647   -0.7381 O   0  0  0  0  0  0  0  0  0  0  0  0
   -7.0072    0.3042   -0.5612 C   0  0  2  0  0  0  0  0  0  0  0  0
   -7.8772    1.3563   -0.1232 N   0  0  0  0  0  0  0  0  0  0  0  0
   -6.7748   -0.7455    0.5001 C   0  0  0  0  0  0  0  0  0  0  0  0
   -8.0566   -1.4336    0.9049 C   0  0  0  0  0  0  0  0  0  0  0  0
   -9.0623   -0.4490    1.4646 C   0  0  0  0  0  0  0  0  0  0  0  0
   -8.6368   -2.1229   -0.2974 C   0  0  0  0  0  0  0  0  0  0  0  0
    1.3864    0.6850   -0.3955 C   0  0  0  0  0  0  0  0  0  0  0  0
    1.8801    1.7646   -1.2793 C   0  0  0  0  0  0  0  0  0  0  0  0
    2.1334   -0.0671    0.4802 C   0  0  0  0  0  0  0  0  0  0  0  0
    6.2047    1.9868    0.9951 C   0  0  0  0  0  0  0  0  0  0  0  0
    7.5415    2.0513    1.3259 C   0  0  0  0  0  0  0  0  0  0  0  0
    8.3752    0.9607    1.1561 C   0  0  0  0  0  0  0  0  0  0  0  0
    9.6865    0.7371    1.3851 N   0  0  0  0  0  0  0  0  0  0  0  0
   11.3451   -2.0173    1.8516 H   0  0  0  0  0  0  0  0  0  0  0  0
   11.6124   -1.5254    0.1399 H   0  0  0  0  0  0  0  0  0  0  0  0
   12.0688   -0.4093    1.5338 H   0  0  0  0  0  0  0  0  0  0  0  0
    8.7621   -2.1136    0.2224 H   0  0  0  0  0  0  0  0  0  0  0  0
    3.5497   -2.4689    3.0455 H   0  0  0  0  0  0  0  0  0  0  0  0
   -0.7604   -1.3628    0.9918 H   0  0  0  0  0  0  0  0  0  0  0  0
   -2.6596    0.1928    0.2882 H   0  0  0  0  0  0  0  0  0  0  0  0
   -2.2421   -0.9521   -1.0039 H   0  0  0  0  0  0  0  0  0  0  0  0
   -3.4608    1.8443   -1.4151 H   0  0  0  0  0  0  0  0  0  0  0  0
   -4.0863    0.4685   -3.6363 H   0  0  0  0  0  0  0  0  0  0  0  0
   -2.5310   -0.3213   -3.3058 H   0  0  0  0  0  0  0  0  0  0  0  0
   -2.6472    1.5047   -3.5355 H   0  0  0  0  0  0  0  0  0  0  0  0
   -7.3781   -0.1352   -1.5112 H   0  0  0  0  0  0  0  0  0  0  0  0
   -8.1145    1.9313   -0.9730 H   0  0  0  0  0  0  0  0  0  0  0  0
   -7.3688    2.0138    0.5144 H   0  0  0  0  0  0  0  0  0  0  0  0
   -6.2590   -0.2655    1.3503 H   0  0  0  0  0  0  0  0  0  0  0  0
   -6.1146   -1.5111    0.0574 H   0  0  0  0  0  0  0  0  0  0  0  0
   -7.8005   -2.1639    1.6985 H   0  0  0  0  0  0  0  0  0  0  0  0
   -9.7135   -1.0068    2.1695 H   0  0  0  0  0  0  0  0  0  0  0  0
   -8.5591    0.3459    2.0396 H   0  0  0  0  0  0  0  0  0  0  0  0
   -9.7222   -0.0501    0.6674 H   0  0  0  0  0  0  0  0  0  0  0  0
   -7.9088   -2.8408   -0.7192 H   0  0  0  0  0  0  0  0  0  0  0  0
   -9.5325   -2.6943    0.0168 H   0  0  0  0  0  0  0  0  0  0  0  0
   -8.9304   -1.3872   -1.0549 H   0  0  0  0  0  0  0  0  0  0  0  0
    2.4138    1.3585   -2.1655 H   0  0  0  0  0  0  0  0  0  0  0  0
    2.6168    2.3737   -0.7125 H   0  0  0  0  0  0  0  0  0  0  0  0
    1.0627    2.4636   -1.5590 H   0  0  0  0  0  0  0  0  0  0  0  0
    5.5823    2.8640    1.1429 H   0  0  0  0  0  0  0  0  0  0  0  0
    7.9601    2.9667    1.7274 H   0  0  0  0  0  0  0  0  0  0  0  0
   10.3391    1.4527    1.7742 H   0  0  0  0  0  0  0  0  0  0  0  0
  1  2  1  0
  2  3  2  0
  3  4  1  0
  4  5  2  0
  5  6  1  0
  5  7  1  0
  7  8  1  0
  8  9  1  0
  9 10  2  0
 10 11  1  0
 11 12  2  0
 12 13  1  0
 13 14  1  0
 14 15  2  0
 15 16  1  0
 16 17  1  0
 17 18  1  0
 18 19  1  0
 18 20  1  0
 20 21  1  0
 21 22  2  0
 21 23  1  0
 23 24  1  0
 23 25  1  0
 25 26  1  0
 26 27  1  0
 26 28  1  0
 15 29  1  0
 29 30  1  0
 29 31  2  0
  7 32  2  0
 32 33  1  0
 33 34  2  0
 34 35  1  0
 35  2  1  0
 34  4  1  0
 31  9  1  0
 31 13  1  0
  1 36  1  0
  1 37  1  0
  1 38  1  0
  3 39  1  0
 11 40  1  0
 14 41  1  0
 17 42  1  0
 17 43  1  0
 18 44  1  6
 19 45  1  0
 19 46  1  0
 19 47  1  0
 23 48  1  6
 24 49  1  0
 24 50  1  0
 25 51  1  0
 25 52  1  0
 26 53  1  0
 27 54  1  0
 27 55  1  0
 27 56  1  0
 28 57  1  0
 28 58  1  0
 28 59  1  0
 30 60  1  0
 30 61  1  0
 30 62  1  0
 32 63  1  0
 33 64  1  0
 35 65  1  0
M  END
$$$$
