
     RDKit          3D

 52 54  0  0  0  0  0  0  0  0999 V2000
    3.8191    0.2267   -5.9623 N   0  0  0  0  0  0  0  0  0  0  0  0
    3.8190    0.9185   -4.9617 C   0  0  0  0  0  0  0  0  0  0  0  0
    3.8385    1.7041   -3.7999 C   0  0  0  0  0  0  0  0  0  0  0  0
    4.8693    2.5387   -3.4400 C   0  0  0  0  0  0  0  0  0  0  0  0
    4.8556    3.3230   -2.3057 C   0  0  0  0  0  0  0  0  0  0  0  0
    3.7245    3.2445   -1.5011 C   0  0  0  0  0  0  0  0  0  0  0  0
    2.7107    2.4202   -1.8587 C   0  0  0  0  0  0  0  0  0  0  0  0
    2.7181    1.6454   -2.9746 C   0  0  0  0  0  0  0  0  0  0  0  0
    1.6226    0.7541   -3.2882 C   0  0  0  0  0  0  0  0  0  0  0  0
    0.7463    1.1388   -4.1463 O   0  0  0  0  0  0  0  0  0  0  0  0
    1.4331   -0.5063   -2.7320 N   0  0  0  0  0  0  0  0  0  0  0  0
    0.3418   -1.3707   -3.1244 C   0  0  0  0  0  0  0  0  0  0  0  0
   -0.6036   -1.4753   -1.8943 C   0  0  0  0  0  0  0  0  0  0  0  0
   -0.0248   -0.5927   -0.8086 C   0  0  0  0  0  0  0  0  0  0  0  0
   -0.8231   -0.5661    0.3761 C   0  0  0  0  0  0  0  0  0  0  0  0
   -0.7597   -1.6058    1.3326 C   0  0  0  0  0  0  0  0  0  0  0  0
   -1.5246   -1.5363    2.4656 C   0  0  0  0  0  0  0  0  0  0  0  0
   -2.3634   -0.4984    2.7277 C   0  0  0  0  0  0  0  0  0  0  0  0
   -3.2182   -0.3834    3.9226 C   0  0  0  0  0  0  0  0  0  0  0  0
   -3.8227    0.6981    4.1378 O   0  0  0  0  0  0  0  0  0  0  0  0
   -3.3737   -1.4576    4.8259 N   0  0  0  0  0  0  0  0  0  0  0  0
   -4.1611   -1.4406    5.9894 C   0  0  0  0  0  0  0  0  0  0  0  0
   -4.8726   -0.3708    6.3498 N   0  0  0  0  0  0  0  0  0  0  0  0
   -4.2559   -2.5583    6.8773 N   0  0  0  0  0  0  0  0  0  0  0  0
   -2.4095    0.5178    1.7659 C   0  0  0  0  0  0  0  0  0  0  0  0
   -1.6641    0.5028    0.6114 C   0  0  0  0  0  0  0  0  0  0  0  0
   -1.8230    1.6026   -0.3131 C   0  0  0  0  0  0  0  0  0  0  0  0
   -2.3127    1.1065   -1.5218 F   0  0  0  0  0  0  0  0  0  0  0  0
   -2.8628    2.4352    0.1374 F   0  0  0  0  0  0  0  0  0  0  0  0
   -0.7472    2.3573   -0.6098 F   0  0  0  0  0  0  0  0  0  0  0  0
    1.3404   -1.2581   -0.4981 C   0  0  0  0  0  0  0  0  0  0  0  0
    2.3001   -0.9600   -1.6584 C   0  0  0  0  0  0  0  0  0  0  0  0
    5.7522    2.5870   -4.0878 H   0  0  0  0  0  0  0  0  0  0  0  0
    5.6683    3.9677   -2.0344 H   0  0  0  0  0  0  0  0  0  0  0  0
    3.6634    3.8333   -0.6091 H   0  0  0  0  0  0  0  0  0  0  0  0
    1.8356    2.3761   -1.2026 H   0  0  0  0  0  0  0  0  0  0  0  0
    0.7080   -2.3720   -3.4093 H   0  0  0  0  0  0  0  0  0  0  0  0
   -0.2496   -0.9835   -3.9482 H   0  0  0  0  0  0  0  0  0  0  0  0
   -1.5899   -1.2608   -2.2392 H   0  0  0  0  0  0  0  0  0  0  0  0
   -0.5390   -2.5470   -1.5656 H   0  0  0  0  0  0  0  0  0  0  0  0
    0.2832    0.4014   -1.2040 H   0  0  0  0  0  0  0  0  0  0  0  0
   -0.0888   -2.4164    1.0960 H   0  0  0  0  0  0  0  0  0  0  0  0
   -1.4336   -2.3717    3.1686 H   0  0  0  0  0  0  0  0  0  0  0  0
   -2.8418   -2.3581    4.5891 H   0  0  0  0  0  0  0  0  0  0  0  0
   -4.7919    0.4075    5.7161 H   0  0  0  0  0  0  0  0  0  0  0  0
   -3.3916   -3.0537    7.1690 H   0  0  0  0  0  0  0  0  0  0  0  0
   -5.1610   -2.8958    7.2430 H   0  0  0  0  0  0  0  0  0  0  0  0
   -3.0829    1.3398    1.9963 H   0  0  0  0  0  0  0  0  0  0  0  0
    1.7107   -0.8270    0.4319 H   0  0  0  0  0  0  0  0  0  0  0  0
    1.2291   -2.3400   -0.4027 H   0  0  0  0  0  0  0  0  0  0  0  0
    2.8329   -1.8830   -1.8784 H   0  0  0  0  0  0  0  0  0  0  0  0
    2.9703   -0.1580   -1.2930 H   0  0  0  0  0  0  0  0  0  0  0  0
  1  2  3  0
  2  3  1  0
  3  4  2  0
  4  5  1  0
  5  6  2  0
  6  7  1  0
  7  8  2  0
  8  9  1  0
  9 10  2  0
  9 11  1  0
 11 12  1  0
 12 13  1  0
 13 14  1  0
 14 15  1  0
 15 16  2  0
 16 17  1  0
 17 18  2  0
 18 19  1  0
 19 20  2  0
 19 21  1  0
 21 22  1  0
 22 23  2  3
 22 24  1  0
 18 25  1  0
 25 26  2  0
 26 27  1  0
 27 28  1  0
 27 29  1  0
 27 30  1  0
 14 31  1  0
 31 32  1  0
  8  3  1  0
 32 11  1  0
 26 15  1  0
  4 33  1  0
  5 34  1  0
  6 35  1  0
  7 36  1  0
 12 37  1  0
 12 38  1  0
 13 39  1  0
 13 40  1  0
 14 41  1  0
 16 42  1  0
 17 43  1  0
 21 44  1  0
 23 45  1  0
 24 46  1  0
 24 47  1  0
 25 48  1  0
 31 49  1  0
 31 50  1  0
 32 51  1  0
 32 52  1  0
M  END
$$$$
