
     RDKit          3D

 47 50  0  0  0  0  0  0  0  0999 V2000
   -2.6108   -1.7793   -0.2619 N   0  0  0  0  0  0  0  0  0  0  0  0
   -3.0457   -0.9487    0.8406 C   0  0  0  0  0  0  0  0  0  0  0  0
   -2.4585    0.4291    0.6445 C   0  0  2  0  0  0  0  0  0  0  0  0
   -2.9289    1.0239   -0.6409 C   0  0  0  0  0  0  0  0  0  0  0  0
   -4.3986    1.1736   -0.7074 C   0  0  0  0  0  0  0  0  0  0  0  0
   -4.9973    2.3348   -0.2428 C   0  0  0  0  0  0  0  0  0  0  0  0
   -6.3632    2.5127   -0.2914 C   0  0  0  0  0  0  0  0  0  0  0  0
   -7.1853    1.5347   -0.8074 C   0  0  0  0  0  0  0  0  0  0  0  0
   -6.6097    0.3741   -1.2740 C   0  0  0  0  0  0  0  0  0  0  0  0
   -7.3862   -0.6310   -1.7979 F   0  0  0  0  0  0  0  0  0  0  0  0
   -5.2215    0.2016   -1.2209 C   0  0  0  0  0  0  0  0  0  0  0  0
   -1.0100    0.2892    0.6737 N   0  0  0  0  0  0  0  0  0  0  0  0
   -0.2107    0.8972    1.6722 C   0  0  0  0  0  0  0  0  0  0  0  0
   -0.6970    1.5780    2.5712 O   0  0  0  0  0  0  0  0  0  0  0  0
    1.2565    0.7278    1.6621 C   0  0  0  0  0  0  0  0  0  0  0  0
    2.1906    1.1972    2.4834 C   0  0  0  0  0  0  0  0  0  0  0  0
    3.4933    0.8937    2.2548 C   0  0  0  0  0  0  0  0  0  0  0  0
    4.8985    1.5721    3.4369 Br  0  0  0  0  0  0  0  0  0  0  0  0
    3.7934    0.1139    1.1847 C   0  0  0  0  0  0  0  0  0  0  0  0
    5.0211   -0.4116    0.6176 C   0  0  0  0  0  0  0  0  0  0  0  0
    6.2549   -0.2173    1.1680 C   0  0  0  0  0  0  0  0  0  0  0  0
    7.4271   -0.7425    0.5754 C   0  0  0  0  0  0  0  0  0  0  0  0
    7.3265   -1.4470   -0.5515 N   0  0  0  0  0  0  0  0  0  0  0  0
    6.1334   -1.6617   -1.1259 C   0  0  0  0  0  0  0  0  0  0  0  0
    5.8704   -2.3442   -2.2523 N   0  0  0  0  0  0  0  0  0  0  0  0
    4.5597   -2.3000   -2.4446 C   0  0  0  0  0  0  0  0  0  0  0  0
    3.9646   -1.5672   -1.4104 C   0  0  0  0  0  0  0  0  0  0  0  0
    4.9549   -1.1534   -0.5613 C   0  0  0  0  0  0  0  0  0  0  0  0
    2.1673   -0.1753    0.5118 S   0  0  0  0  0  0  0  0  0  0  0  0
   -3.1959   -2.6629   -0.3206 H   0  0  0  0  0  0  0  0  0  0  0  0
   -1.6148   -1.9904   -0.1373 H   0  0  0  0  0  0  0  0  0  0  0  0
   -4.1689   -0.8680    0.8757 H   0  0  0  0  0  0  0  0  0  0  0  0
   -2.6454   -1.3240    1.8133 H   0  0  0  0  0  0  0  0  0  0  0  0
   -2.8254    1.0523    1.4799 H   0  0  0  0  0  0  0  0  0  0  0  0
   -2.6359    0.3739   -1.5139 H   0  0  0  0  0  0  0  0  0  0  0  0
   -2.4453    1.9968   -0.8263 H   0  0  0  0  0  0  0  0  0  0  0  0
   -4.3783    3.1137    0.1647 H   0  0  0  0  0  0  0  0  0  0  0  0
   -6.7563    3.4475    0.0909 H   0  0  0  0  0  0  0  0  0  0  0  0
   -8.2623    1.6905   -0.8387 H   0  0  0  0  0  0  0  0  0  0  0  0
   -4.8048   -0.7314   -1.6032 H   0  0  0  0  0  0  0  0  0  0  0  0
   -0.5165   -0.2722   -0.0529 H   0  0  0  0  0  0  0  0  0  0  0  0
    1.8825    1.8390    3.3547 H   0  0  0  0  0  0  0  0  0  0  0  0
    6.3644    0.3454    2.0819 H   0  0  0  0  0  0  0  0  0  0  0  0
    8.3716   -0.5547    1.0581 H   0  0  0  0  0  0  0  0  0  0  0  0
    6.5574   -2.8216   -2.8663 H   0  0  0  0  0  0  0  0  0  0  0  0
    3.9670   -2.7401   -3.2554 H   0  0  0  0  0  0  0  0  0  0  0  0
    2.9182   -1.3682   -1.3079 H   0  0  0  0  0  0  0  0  0  0  0  0
  1  2  1  0
  2  3  1  0
  3  4  1  0
  4  5  1  0
  5  6  2  0
  6  7  1  0
  7  8  2  0
  8  9  1  0
  9 10  1  0
  9 11  2  0
  3 12  1  0
 12 13  1  0
 13 14  2  0
 13 15  1  0
 15 16  2  0
 16 17  1  0
 17 18  1  0
 17 19  2  0
 19 20  1  0
 20 21  2  0
 21 22  1  0
 22 23  2  0
 23 24  1  0
 24 25  1  0
 25 26  1  0
 26 27  2  0
 27 28  1  0
 19 29  1  0
 11  5  1  0
 29 15  1  0
 28 20  1  0
 28 24  2  0
  1 30  1  0
  1 31  1  0
  2 32  1  0
  2 33  1  0
  3 34  1  1
  4 35  1  0
  4 36  1  0
  6 37  1  0
  7 38  1  0
  8 39  1  0
 11 40  1  0
 12 41  1  0
 16 42  1  0
 21 43  1  0
 22 44  1  0
 25 45  1  0
 26 46  1  0
 27 47  1  0
M  END
$$$$
