
     RDKit          3D

 46 48  0  0  0  0  0  0  0  0999 V2000
   -4.3720    1.8424   -1.0942 C   0  0  0  0  0  0  0  0  0  0  0  0
   -4.3511    0.7281   -0.0639 C   0  0  0  0  0  0  0  0  0  0  0  0
   -4.3264    1.2272    1.3101 C   0  0  0  0  0  0  0  0  0  0  0  0
   -4.1166    2.4344    1.5381 O   0  0  0  0  0  0  0  0  0  0  0  0
   -4.5433    0.3360    2.3779 N   0  0  0  0  0  0  0  0  0  0  0  0
   -4.5118    0.8550    3.6463 O   0  0  0  0  0  0  0  0  0  0  0  0
   -3.4835   -0.3798   -0.4300 C   0  0  0  0  0  0  0  0  0  0  0  0
   -4.0407   -1.5370   -1.0231 C   0  0  0  0  0  0  0  0  0  0  0  0
   -3.2999   -2.6163   -1.4244 C   0  0  0  0  0  0  0  0  0  0  0  0
   -1.9308   -2.6114   -1.2573 C   0  0  0  0  0  0  0  0  0  0  0  0
   -1.3573   -1.5066   -0.6855 C   0  0  0  0  0  0  0  0  0  0  0  0
   -2.1236   -0.3950   -0.2721 C   0  0  0  0  0  0  0  0  0  0  0  0
   -1.3225    0.9558    0.4759 S   0  0  0  0  0  6  0  0  0  0  0  0
   -1.5721    2.2620   -0.2080 O   0  0  0  0  0  0  0  0  0  0  0  0
   -1.5466    1.0098    1.9644 O   0  0  0  0  0  0  0  0  0  0  0  0
    0.4220    0.6835    0.3238 C   0  0  0  0  0  0  0  0  0  0  0  0
    1.0656   -0.0065    1.3053 C   0  0  0  0  0  0  0  0  0  0  0  0
    2.4403   -0.2301    1.1936 C   0  0  0  0  0  0  0  0  0  0  0  0
    3.1482    0.2296    0.1206 C   0  0  0  0  0  0  0  0  0  0  0  0
    4.5836   -0.0257    0.0431 C   0  0  0  0  0  0  0  0  0  0  0  0
    5.2922   -0.0860    1.2283 C   0  0  0  0  0  0  0  0  0  0  0  0
    6.6637   -0.3335    1.1691 C   0  0  0  0  0  0  0  0  0  0  0  0
    7.2714   -0.5094   -0.0480 C   0  0  0  0  0  0  0  0  0  0  0  0
    6.5329   -0.4429   -1.2176 C   0  0  0  0  0  0  0  0  0  0  0  0
    5.1871   -0.2015   -1.1888 C   0  0  0  0  0  0  0  0  0  0  0  0
    2.4686    0.9260   -0.8588 C   0  0  0  0  0  0  0  0  0  0  0  0
    1.1148    1.1521   -0.7592 C   0  0  0  0  0  0  0  0  0  0  0  0
   -5.3404    1.9136   -1.6260 H   0  0  0  0  0  0  0  0  0  0  0  0
   -3.6299    1.5977   -1.8892 H   0  0  0  0  0  0  0  0  0  0  0  0
   -4.2185    2.8447   -0.6410 H   0  0  0  0  0  0  0  0  0  0  0  0
   -5.4242    0.3112   -0.1476 H   0  0  0  0  0  0  0  0  0  0  0  0
   -4.7275   -0.7014    2.2559 H   0  0  0  0  0  0  0  0  0  0  0  0
   -4.6991    0.1351    4.3064 H   0  0  0  0  0  0  0  0  0  0  0  0
   -5.1234   -1.5657   -1.1672 H   0  0  0  0  0  0  0  0  0  0  0  0
   -3.7571   -3.4814   -1.8732 H   0  0  0  0  0  0  0  0  0  0  0  0
   -1.2779   -3.4213   -1.5471 H   0  0  0  0  0  0  0  0  0  0  0  0
   -0.2748   -1.4642   -0.5349 H   0  0  0  0  0  0  0  0  0  0  0  0
    0.5683   -0.4046    2.1913 H   0  0  0  0  0  0  0  0  0  0  0  0
    2.9706   -0.7757    1.9619 H   0  0  0  0  0  0  0  0  0  0  0  0
    4.8324    0.0492    2.1842 H   0  0  0  0  0  0  0  0  0  0  0  0
    7.2125   -0.3786    2.1151 H   0  0  0  0  0  0  0  0  0  0  0  0
    8.3323   -0.7024   -0.1172 H   0  0  0  0  0  0  0  0  0  0  0  0
    7.0147   -0.5838   -2.1943 H   0  0  0  0  0  0  0  0  0  0  0  0
    4.6068   -0.1489   -2.1034 H   0  0  0  0  0  0  0  0  0  0  0  0
    3.0100    1.3049   -1.7279 H   0  0  0  0  0  0  0  0  0  0  0  0
    0.6332    1.7110   -1.5681 H   0  0  0  0  0  0  0  0  0  0  0  0
  1  2  1  0
  2  3  1  0
  3  4  2  0
  3  5  1  0
  5  6  1  0
  2  7  1  0
  7  8  2  0
  8  9  1  0
  9 10  2  0
 10 11  1  0
 11 12  2  0
 12 13  1  0
 13 14  2  0
 13 15  2  0
 13 16  1  0
 16 17  2  0
 17 18  1  0
 18 19  2  0
 19 20  1  0
 20 21  2  0
 21 22  1  0
 22 23  2  0
 23 24  1  0
 24 25  2  0
 19 26  1  0
 26 27  2  0
 12  7  1  0
 27 16  1  0
 25 20  1  0
  1 28  1  0
  1 29  1  0
  1 30  1  0
  2 31  1  0
  5 32  1  0
  6 33  1  0
  8 34  1  0
  9 35  1  0
 10 36  1  0
 11 37  1  0
 17 38  1  0
 18 39  1  0
 21 40  1  0
 22 41  1  0
 23 42  1  0
 24 43  1  0
 25 44  1  0
 26 45  1  0
 27 46  1  0
M  END
$$$$
