
     RDKit          3D

 59 63  0  0  0  0  0  0  0  0999 V2000
   -1.2287    3.0827    2.1837 C   0  0  0  0  0  0  0  0  0  0  0  0
   -0.6125    2.0739    1.4424 O   0  0  0  0  0  0  0  0  0  0  0  0
   -1.2919    1.1162    0.7099 C   0  0  0  0  0  0  0  0  0  0  0  0
   -2.6670    1.0958    0.6632 C   0  0  0  0  0  0  0  0  0  0  0  0
   -3.3886    0.1663   -0.0494 C   0  0  0  0  0  0  0  0  0  0  0  0
   -4.7999    0.2213   -0.0438 N   0  0  0  0  0  0  0  0  0  0  0  0
   -5.5738   -0.8071   -0.6894 C   0  0  0  0  0  0  0  0  0  0  0  0
   -6.8488   -0.9848    0.1081 C   0  0  0  0  0  0  0  0  0  0  0  0
   -7.6341    0.2012    0.2119 N   0  0  0  0  0  0  0  0  0  0  0  0
   -8.7251    0.2644   -0.7250 C   0  0  0  0  0  0  0  0  0  0  0  0
   -6.9155    1.4337    0.1974 C   0  0  0  0  0  0  0  0  0  0  0  0
   -5.4655    1.3058    0.6017 C   0  0  0  0  0  0  0  0  0  0  0  0
   -2.6706   -0.7769   -0.7393 C   0  0  0  0  0  0  0  0  0  0  0  0
   -1.2613   -0.7626   -0.6962 C   0  0  0  0  0  0  0  0  0  0  0  0
   -0.5596    0.1665    0.0156 C   0  0  0  0  0  0  0  0  0  0  0  0
    0.8303    0.1946    0.0715 N   0  0  0  0  0  0  0  0  0  0  0  0
    1.7501   -0.6647   -0.5592 C   0  0  0  0  0  0  0  0  0  0  0  0
    1.3617   -1.6627   -1.3441 N   0  0  0  0  0  0  0  0  0  0  0  0
    2.1951   -2.5134   -1.9699 C   0  0  0  0  0  0  0  0  0  0  0  0
    3.5422   -2.3098   -1.7624 C   0  0  0  0  0  0  0  0  0  0  0  0
    4.0076   -1.2766   -0.9473 C   0  0  0  0  0  0  0  0  0  0  0  0
    5.4359   -1.0918   -0.7486 C   0  0  0  0  0  0  0  0  0  0  0  0
    6.4863   -1.7998   -1.2609 C   0  0  0  0  0  0  0  0  0  0  0  0
    7.6568   -1.2935   -0.8191 N   0  0  0  0  0  0  0  0  0  0  0  0
    8.9956   -1.7510   -1.1243 C   0  0  0  0  0  0  0  0  0  0  0  0
    7.3859   -0.2433   -0.0087 C   0  0  0  0  0  0  0  0  0  0  0  0
    8.2091    0.6066    0.6889 C   0  0  0  0  0  0  0  0  0  0  0  0
    7.6528    1.5730    1.4235 N   0  0  0  0  0  0  0  0  0  0  0  0
    6.3275    1.7509    1.5106 C   0  0  0  0  0  0  0  0  0  0  0  0
    5.4720    0.9225    0.8284 C   0  0  0  0  0  0  0  0  0  0  0  0
    5.9903   -0.1111    0.0398 C   0  0  0  0  0  0  0  0  0  0  0  0
    3.1033   -0.4903   -0.3739 N   0  0  0  0  0  0  0  0  0  0  0  0
   -0.5134    3.4189    2.9863 H   0  0  0  0  0  0  0  0  0  0  0  0
   -1.5078    3.9715    1.5517 H   0  0  0  0  0  0  0  0  0  0  0  0
   -2.1708    2.7749    2.6826 H   0  0  0  0  0  0  0  0  0  0  0  0
   -3.2363    1.8464    1.2129 H   0  0  0  0  0  0  0  0  0  0  0  0
   -5.7572   -0.5350   -1.7463 H   0  0  0  0  0  0  0  0  0  0  0  0
   -5.0860   -1.8084   -0.6951 H   0  0  0  0  0  0  0  0  0  0  0  0
   -7.4723   -1.7488   -0.4186 H   0  0  0  0  0  0  0  0  0  0  0  0
   -6.5702   -1.4102    1.0809 H   0  0  0  0  0  0  0  0  0  0  0  0
   -8.8108    1.2815   -1.1793 H   0  0  0  0  0  0  0  0  0  0  0  0
   -9.6601    0.1085   -0.1416 H   0  0  0  0  0  0  0  0  0  0  0  0
   -8.6309   -0.4472   -1.5654 H   0  0  0  0  0  0  0  0  0  0  0  0
   -6.9784    1.9827   -0.7527 H   0  0  0  0  0  0  0  0  0  0  0  0
   -7.3993    2.1045    0.9642 H   0  0  0  0  0  0  0  0  0  0  0  0
   -4.9694    2.2509    0.2301 H   0  0  0  0  0  0  0  0  0  0  0  0
   -5.3994    1.1970    1.6821 H   0  0  0  0  0  0  0  0  0  0  0  0
   -3.1938   -1.5202   -1.3108 H   0  0  0  0  0  0  0  0  0  0  0  0
   -0.8131   -1.5524   -1.2765 H   0  0  0  0  0  0  0  0  0  0  0  0
    1.2718    0.9779    0.6785 H   0  0  0  0  0  0  0  0  0  0  0  0
    1.7868   -3.2843   -2.5803 H   0  0  0  0  0  0  0  0  0  0  0  0
    4.2584   -2.9495   -2.2295 H   0  0  0  0  0  0  0  0  0  0  0  0
    6.3876   -2.6359   -1.9183 H   0  0  0  0  0  0  0  0  0  0  0  0
    9.7335   -0.9244   -1.1578 H   0  0  0  0  0  0  0  0  0  0  0  0
    9.3514   -2.4413   -0.3064 H   0  0  0  0  0  0  0  0  0  0  0  0
    9.0125   -2.3636   -2.0540 H   0  0  0  0  0  0  0  0  0  0  0  0
    9.2701    0.4888    0.6384 H   0  0  0  0  0  0  0  0  0  0  0  0
    5.9372    2.5386    2.1124 H   0  0  0  0  0  0  0  0  0  0  0  0
    4.4002    1.0433    0.8802 H   0  0  0  0  0  0  0  0  0  0  0  0
  1  2  1  0
  2  3  1  0
  3  4  2  0
  4  5  1  0
  5  6  1  0
  6  7  1  0
  7  8  1  0
  8  9  1  0
  9 10  1  0
  9 11  1  0
 11 12  1  0
  5 13  2  0
 13 14  1  0
 14 15  2  0
 15 16  1  0
 16 17  1  0
 17 18  2  0
 18 19  1  0
 19 20  2  0
 20 21  1  0
 21 22  1  0
 22 23  2  0
 23 24  1  0
 24 25  1  0
 24 26  1  0
 26 27  2  0
 27 28  1  0
 28 29  2  0
 29 30  1  0
 30 31  2  0
 21 32  2  0
 15  3  1  0
 32 17  1  0
 12  6  1  0
 31 22  1  0
 31 26  1  0
  1 33  1  0
  1 34  1  0
  1 35  1  0
  4 36  1  0
  7 37  1  0
  7 38  1  0
  8 39  1  0
  8 40  1  0
 10 41  1  0
 10 42  1  0
 10 43  1  0
 11 44  1  0
 11 45  1  0
 12 46  1  0
 12 47  1  0
 13 48  1  0
 14 49  1  0
 16 50  1  0
 19 51  1  0
 20 52  1  0
 23 53  1  0
 25 54  1  0
 25 55  1  0
 25 56  1  0
 27 57  1  0
 29 58  1  0
 30 59  1  0
M  END
$$$$
