
     RDKit          3D

 41 41  0  0  0  0  0  0  0  0999 V2000
    7.8816    1.7277   -0.0383 O   0  0  0  0  0  0  0  0  0  0  0  0
    6.6271    1.2610   -0.3566 C   0  0  0  0  0  0  0  0  0  0  0  0
    5.8588    1.7987    0.4821 O   0  0  0  0  0  0  0  0  0  0  0  0
    6.3590    0.3228   -1.4772 C   0  0  0  0  0  0  0  0  0  0  0  0
    4.9373    0.0464   -1.5208 N   0  0  0  0  0  0  0  0  0  0  0  0
    4.3383   -0.5510   -0.3629 C   0  0  0  0  0  0  0  0  0  0  0  0
    5.1724   -0.7452    0.5341 O   0  0  0  0  0  0  0  0  0  0  0  0
    2.8619   -0.7880   -0.5304 C   0  0  0  0  0  0  0  0  0  0  0  0
    2.3209   -1.4146    0.7279 C   0  0  0  0  0  0  0  0  0  0  0  0
    0.8304   -1.6840    0.6324 C   0  0  0  0  0  0  0  0  0  0  0  0
   -0.0536   -0.1381    0.3548 P   0  0  1  0  0  5  0  0  0  0  0  0
    0.6616    1.1217    1.2262 O   0  0  0  0  0  0  0  0  0  0  0  0
    0.0910    0.2143   -1.1273 O   0  0  0  0  0  0  0  0  0  0  0  0
   -1.6981   -0.2801    0.7469 O   0  0  0  0  0  0  0  0  0  0  0  0
   -2.3855    0.6154   -0.0384 C   0  0  0  0  0  0  0  0  0  0  0  0
   -3.8459    0.6079    0.1919 C   0  0  0  0  0  0  0  0  0  0  0  0
   -4.5848    1.3395    1.0666 C   0  0  0  0  0  0  0  0  0  0  0  0
   -5.9595    1.1944    1.1410 C   0  0  0  0  0  0  0  0  0  0  0  0
   -6.5946    0.2858    0.3076 C   0  0  0  0  0  0  0  0  0  0  0  0
   -5.8725   -0.4790   -0.5986 C   0  0  0  0  0  0  0  0  0  0  0  0
   -4.5057   -0.3021   -0.6389 C   0  0  0  0  0  0  0  0  0  0  0  0
   -8.0036    0.1273    0.3738 N   0  0  0  0  0  4  0  0  0  0  0  0
   -8.6222   -0.7753   -0.4559 O   0  0  0  0  0  1  0  0  0  0  0  0
   -8.6973    0.7796    1.1595 O   0  0  0  0  0  0  0  0  0  0  0  0
    8.3013    1.7279    0.8691 H   0  0  0  0  0  0  0  0  0  0  0  0
    6.9089   -0.6145   -1.3090 H   0  0  0  0  0  0  0  0  0  0  0  0
    6.7144    0.7342   -2.4355 H   0  0  0  0  0  0  0  0  0  0  0  0
    4.4092    0.2952   -2.3965 H   0  0  0  0  0  0  0  0  0  0  0  0
    2.3916    0.2189   -0.7120 H   0  0  0  0  0  0  0  0  0  0  0  0
    2.7011   -1.4316   -1.3983 H   0  0  0  0  0  0  0  0  0  0  0  0
    2.5432   -0.7394    1.5842 H   0  0  0  0  0  0  0  0  0  0  0  0
    2.8735   -2.3618    0.8845 H   0  0  0  0  0  0  0  0  0  0  0  0
    0.5275   -2.0724    1.6434 H   0  0  0  0  0  0  0  0  0  0  0  0
    0.6536   -2.4339   -0.1400 H   0  0  0  0  0  0  0  0  0  0  0  0
   -0.0587    1.7341    1.5136 H   0  0  0  0  0  0  0  0  0  0  0  0
   -2.1208    0.4908   -1.0903 H   0  0  0  0  0  0  0  0  0  0  0  0
   -2.0408    1.6462    0.2666 H   0  0  0  0  0  0  0  0  0  0  0  0
   -3.9986    2.0155    1.6681 H   0  0  0  0  0  0  0  0  0  0  0  0
   -6.4988    1.8122    1.8660 H   0  0  0  0  0  0  0  0  0  0  0  0
   -6.4068   -1.1752   -1.2294 H   0  0  0  0  0  0  0  0  0  0  0  0
   -4.0165   -0.9477   -1.3844 H   0  0  0  0  0  0  0  0  0  0  0  0
  1  2  1  0
  2  3  2  0
  2  4  1  0
  4  5  1  0
  5  6  1  0
  6  7  2  0
  6  8  1  0
  8  9  1  0
  9 10  1  0
 10 11  1  0
 11 12  1  1
 11 13  2  0
 11 14  1  0
 14 15  1  0
 15 16  1  0
 16 17  2  0
 17 18  1  0
 18 19  2  0
 19 20  1  0
 20 21  2  0
 19 22  1  0
 22 23  1  0
 22 24  2  0
 21 16  1  0
  1 25  1  0
  4 26  1  0
  4 27  1  0
  5 28  1  0
  8 29  1  0
  8 30  1  0
  9 31  1  0
  9 32  1  0
 10 33  1  0
 10 34  1  0
 12 35  1  0
 15 36  1  0
 15 37  1  0
 17 38  1  0
 18 39  1  0
 20 40  1  0
 21 41  1  0
M  CHG  2  22   1  23  -1
M  END
$$$$
