
     RDKit          3D

 33 35  0  0  0  0  0  0  0  0999 V2000
    2.3197   -0.4287   -1.6274 N   0  0  0  0  0  0  0  0  0  0  0  0
    2.5416   -0.7554   -0.2452 C   0  0  2  0  0  0  0  0  0  0  0  0
    1.8250   -2.0005    0.1906 C   0  0  0  0  0  0  0  0  0  0  0  0
    0.3429   -1.9477   -0.0059 C   0  0  0  0  0  0  0  0  0  0  0  0
   -0.1551   -0.6104    0.0956 N   0  0  0  0  0  0  0  0  0  0  0  0
   -1.4196   -0.2035   -0.4405 C   0  0  0  0  0  0  0  0  0  0  0  0
   -1.7766    1.0651   -0.7482 C   0  0  0  0  0  0  0  0  0  0  0  0
   -3.0321    1.3233   -1.2425 C   0  0  0  0  0  0  0  0  0  0  0  0
   -3.9827    0.3405   -1.4525 C   0  0  0  0  0  0  0  0  0  0  0  0
   -5.5775    0.7011   -2.0848 Cl  0  0  0  0  0  0  0  0  0  0  0  0
   -3.5950   -0.9439   -1.1320 C   0  0  0  0  0  0  0  0  0  0  0  0
   -4.7678   -2.2478   -1.3787 Cl  0  0  0  0  0  0  0  0  0  0  0  0
   -2.3443   -1.2215   -0.6365 C   0  0  0  0  0  0  0  0  0  0  0  0
    0.6008    0.3645    0.7685 C   0  0  0  0  0  0  0  0  0  0  0  0
    0.0174    1.3449    1.5634 C   0  0  0  0  0  0  0  0  0  0  0  0
    0.8229    2.2832    2.1906 C   0  0  0  0  0  0  0  0  0  0  0  0
    2.1962    2.2795    2.0535 C   0  0  0  0  0  0  0  0  0  0  0  0
    2.7702    1.2862    1.2503 C   0  0  0  0  0  0  0  0  0  0  0  0
    1.9970    0.3531    0.6242 C   0  0  0  0  0  0  0  0  0  0  0  0
    1.8638    0.4741   -1.7943 H   0  0  0  0  0  0  0  0  0  0  0  0
    1.9180   -1.2323   -2.1571 H   0  0  0  0  0  0  0  0  0  0  0  0
    3.6061   -0.8562    0.0138 H   0  0  0  0  0  0  0  0  0  0  0  0
    2.0669   -2.1138    1.2911 H   0  0  0  0  0  0  0  0  0  0  0  0
    2.2842   -2.9101   -0.2689 H   0  0  0  0  0  0  0  0  0  0  0  0
   -0.1992   -2.6613    0.6585 H   0  0  0  0  0  0  0  0  0  0  0  0
    0.1750   -2.2421   -1.0924 H   0  0  0  0  0  0  0  0  0  0  0  0
   -1.0508    1.8782   -0.6098 H   0  0  0  0  0  0  0  0  0  0  0  0
   -3.3475    2.3386   -1.4991 H   0  0  0  0  0  0  0  0  0  0  0  0
   -2.0777   -2.2646   -0.3939 H   0  0  0  0  0  0  0  0  0  0  0  0
   -1.0583    1.3194    1.6546 H   0  0  0  0  0  0  0  0  0  0  0  0
    0.3474    3.0360    2.8034 H   0  0  0  0  0  0  0  0  0  0  0  0
    2.8321    3.0086    2.5396 H   0  0  0  0  0  0  0  0  0  0  0  0
    3.8570    1.2436    1.1122 H   0  0  0  0  0  0  0  0  0  0  0  0
  1  2  1  0
  2  3  1  0
  3  4  1  0
  4  5  1  0
  5  6  1  0
  6  7  2  0
  7  8  1  0
  8  9  2  0
  9 10  1  0
  9 11  1  0
 11 12  1  0
 11 13  2  0
  5 14  1  0
 14 15  2  0
 15 16  1  0
 16 17  2  0
 17 18  1  0
 18 19  2  0
 19  2  1  0
 13  6  1  0
 19 14  1  0
  1 20  1  0
  1 21  1  0
  2 22  1  6
  3 23  1  0
  3 24  1  0
  4 25  1  0
  4 26  1  0
  7 27  1  0
  8 28  1  0
 13 29  1  0
 15 30  1  0
 16 31  1  0
 17 32  1  0
 18 33  1  0
M  END
$$$$
