
     RDKit          3D

 39 41  0  0  0  0  0  0  0  0999 V2000
   -3.3465   -1.1807    2.2229 N   0  0  0  0  0  0  0  0  0  0  0  0
   -2.0619   -0.8104    1.7358 C   0  0  0  0  0  0  0  0  0  0  0  0
   -0.9064   -0.9665    2.4026 N   0  0  0  0  0  0  0  0  0  0  0  0
    0.1532   -0.5620    1.6363 C   0  0  0  0  0  0  0  0  0  0  0  0
    1.5078   -0.5968    2.0427 N   0  0  0  0  0  0  0  0  0  0  0  0
    2.5770   -0.1726    1.2292 C   0  0  0  0  0  0  0  0  0  0  0  0
    2.4676    0.3252   -0.0467 C   0  0  0  0  0  0  0  0  0  0  0  0
    3.5909    0.7224   -0.7798 C   0  0  0  0  0  0  0  0  0  0  0  0
    4.8670    0.6414   -0.2758 C   0  0  0  0  0  0  0  0  0  0  0  0
    6.2549    1.1476   -1.2203 S   0  0  0  0  0  6  0  0  0  0  0  0
    6.8727   -0.1747   -2.1409 N   0  0  0  0  0  0  0  0  0  0  0  0
    5.8672    2.2272   -2.2148 O   0  0  0  0  0  0  0  0  0  0  0  0
    7.3137    1.7532   -0.3322 O   0  0  0  0  0  0  0  0  0  0  0  0
    4.9910    0.1447    1.0011 C   0  0  0  0  0  0  0  0  0  0  0  0
    3.8941   -0.2455    1.7226 C   0  0  0  0  0  0  0  0  0  0  0  0
   -0.4006   -0.1614    0.4990 N   0  0  0  0  0  0  0  0  0  0  0  0
   -1.7237   -0.2982    0.5332 N   0  0  0  0  0  0  0  0  0  0  0  0
   -2.5393   -0.0138   -0.5703 C   0  0  0  0  0  0  0  0  0  0  0  0
   -1.9663    0.2242   -1.7005 O   0  0  0  0  0  0  0  0  0  0  0  0
   -3.9717    0.0453   -0.5994 C   0  0  0  0  0  0  0  0  0  0  0  0
   -4.6005   -0.5655   -1.6940 C   0  0  0  0  0  0  0  0  0  0  0  0
   -3.8615   -1.2335   -2.6342 F   0  0  0  0  0  0  0  0  0  0  0  0
   -5.9605   -0.5320   -1.8849 C   0  0  0  0  0  0  0  0  0  0  0  0
   -6.7656    0.1188   -0.9843 C   0  0  0  0  0  0  0  0  0  0  0  0
   -6.1560    0.7223    0.0925 C   0  0  0  0  0  0  0  0  0  0  0  0
   -4.7751    0.6978    0.2992 C   0  0  0  0  0  0  0  0  0  0  0  0
   -4.2438    1.3746    1.3451 F   0  0  0  0  0  0  0  0  0  0  0  0
   -3.6378   -0.8453    3.1558 H   0  0  0  0  0  0  0  0  0  0  0  0
   -3.9550   -1.7739    1.6343 H   0  0  0  0  0  0  0  0  0  0  0  0
    1.7191   -0.9573    2.9983 H   0  0  0  0  0  0  0  0  0  0  0  0
    1.5038    0.4219   -0.5167 H   0  0  0  0  0  0  0  0  0  0  0  0
    3.4734    1.1160   -1.7960 H   0  0  0  0  0  0  0  0  0  0  0  0
    7.7241   -0.5489   -1.6612 H   0  0  0  0  0  0  0  0  0  0  0  0
    7.1372    0.1218   -3.0986 H   0  0  0  0  0  0  0  0  0  0  0  0
    5.9950    0.0755    1.4113 H   0  0  0  0  0  0  0  0  0  0  0  0
    4.0021   -0.6390    2.7365 H   0  0  0  0  0  0  0  0  0  0  0  0
   -6.4486   -1.0016   -2.7273 H   0  0  0  0  0  0  0  0  0  0  0  0
   -7.8508    0.1538   -1.1214 H   0  0  0  0  0  0  0  0  0  0  0  0
   -6.7404    1.2460    0.8286 H   0  0  0  0  0  0  0  0  0  0  0  0
  1  2  1  0
  2  3  2  0
  3  4  1  0
  4  5  1  0
  5  6  1  0
  6  7  2  0
  7  8  1  0
  8  9  2  0
  9 10  1  0
 10 11  1  0
 10 12  2  0
 10 13  2  0
  9 14  1  0
 14 15  2  0
  4 16  2  0
 16 17  1  0
 17 18  1  0
 18 19  2  0
 18 20  1  0
 20 21  2  0
 21 22  1  0
 21 23  1  0
 23 24  2  0
 24 25  1  0
 25 26  2  0
 26 27  1  0
 17  2  1  0
 26 20  1  0
 15  6  1  0
  1 28  1  0
  1 29  1  0
  5 30  1  0
  7 31  1  0
  8 32  1  0
 11 33  1  0
 11 34  1  0
 14 35  1  0
 15 36  1  0
 23 37  1  0
 24 38  1  0
 25 39  1  0
M  END
$$$$
