
     RDKit          3D

 51 55  0  0  0  0  0  0  0  0999 V2000
    7.0093    2.8564   -0.8711 C   0  0  0  0  0  0  0  0  0  0  0  0
    6.1703    1.7473   -0.2988 C   0  0  0  0  0  0  0  0  0  0  0  0
    6.5778    0.7575    0.5699 C   0  0  0  0  0  0  0  0  0  0  0  0
    5.4956   -0.0562    0.8453 C   0  0  0  0  0  0  0  0  0  0  0  0
    5.2765   -1.1459    1.5950 N   0  0  0  0  0  0  0  0  0  0  0  0
    4.0796   -1.7528    1.6797 C   0  0  0  0  0  0  0  0  0  0  0  0
    2.9965   -1.2412    0.9605 C   0  0  0  0  0  0  0  0  0  0  0  0
    3.2417   -0.1306    0.2032 C   0  0  0  0  0  0  0  0  0  0  0  0
    4.4522    0.4536    0.1398 N   0  0  0  0  0  0  0  0  0  0  0  0
    4.8652    1.5169   -0.5301 N   0  0  0  0  0  0  0  0  0  0  0  0
    1.9425    0.2221   -0.4634 C   0  0  0  0  0  0  0  0  0  0  0  0
    0.9223   -0.4656    0.2986 N   0  0  0  0  0  0  0  0  0  0  0  0
   -0.1932   -0.7689   -0.5520 C   0  0  2  0  0  0  0  0  0  0  0  0
   -0.7620    0.4964   -1.1078 C   0  0  0  0  0  0  0  0  0  0  0  0
   -1.9532    0.8896   -0.2574 C   0  0  0  0  0  0  0  0  0  0  0  0
   -3.0749   -0.0375   -0.6661 C   0  0  2  0  0  0  0  0  0  0  0  0
   -4.3624    0.3006   -0.0694 C   0  0  0  0  0  0  0  0  0  0  0  0
   -4.7128   -0.2363    1.1518 C   0  0  0  0  0  0  0  0  0  0  0  0
   -5.9409    0.0705    1.7500 C   0  0  0  0  0  0  0  0  0  0  0  0
   -6.2808   -0.4539    2.9405 F   0  0  0  0  0  0  0  0  0  0  0  0
   -6.8298    0.9208    1.1261 C   0  0  0  0  0  0  0  0  0  0  0  0
   -6.4412    1.4362   -0.0935 C   0  0  0  0  0  0  0  0  0  0  0  0
   -5.2345    1.1427   -0.6946 C   0  0  0  0  0  0  0  0  0  0  0  0
   -4.9605    1.7191   -1.9129 F   0  0  0  0  0  0  0  0  0  0  0  0
   -2.6109   -1.4379   -0.4535 C   0  0  1  0  0  0  0  0  0  0  0  0
   -2.5626   -2.1940   -1.7114 N   0  0  0  0  0  0  0  0  0  0  0  0
   -1.2550   -1.5257    0.2081 C   0  0  0  0  0  0  0  0  0  0  0  0
    1.5694   -1.6485    0.8243 C   0  0  0  0  0  0  0  0  0  0  0  0
    6.5073    3.1962   -1.8019 H   0  0  0  0  0  0  0  0  0  0  0  0
    8.0439    2.5314   -1.0221 H   0  0  0  0  0  0  0  0  0  0  0  0
    6.9299    3.7226   -0.1559 H   0  0  0  0  0  0  0  0  0  0  0  0
    7.5726    0.6294    0.9741 H   0  0  0  0  0  0  0  0  0  0  0  0
    3.9208   -2.6330    2.2909 H   0  0  0  0  0  0  0  0  0  0  0  0
    2.0166   -0.1133   -1.4964 H   0  0  0  0  0  0  0  0  0  0  0  0
    1.8179    1.3061   -0.3236 H   0  0  0  0  0  0  0  0  0  0  0  0
    0.2054   -1.4044   -1.3890 H   0  0  0  0  0  0  0  0  0  0  0  0
   -0.0253    1.3153   -1.1967 H   0  0  0  0  0  0  0  0  0  0  0  0
   -1.1196    0.2951   -2.1438 H   0  0  0  0  0  0  0  0  0  0  0  0
   -1.7109    0.7237    0.7966 H   0  0  0  0  0  0  0  0  0  0  0  0
   -2.1707    1.9487   -0.4867 H   0  0  0  0  0  0  0  0  0  0  0  0
   -3.1804    0.1076   -1.7822 H   0  0  0  0  0  0  0  0  0  0  0  0
   -4.0906   -0.9109    1.7236 H   0  0  0  0  0  0  0  0  0  0  0  0
   -7.7816    1.1602    1.5869 H   0  0  0  0  0  0  0  0  0  0  0  0
   -7.1343    2.1039   -0.5879 H   0  0  0  0  0  0  0  0  0  0  0  0
   -3.3144   -2.0052    0.1945 H   0  0  0  0  0  0  0  0  0  0  0  0
   -1.5917   -2.0564   -2.1001 H   0  0  0  0  0  0  0  0  0  0  0  0
   -2.6866   -3.2017   -1.5007 H   0  0  0  0  0  0  0  0  0  0  0  0
   -0.9590   -2.5962    0.2028 H   0  0  0  0  0  0  0  0  0  0  0  0
   -1.3113   -1.2190    1.2735 H   0  0  0  0  0  0  0  0  0  0  0  0
    1.4490   -2.5296    0.1695 H   0  0  0  0  0  0  0  0  0  0  0  0
    1.1888   -1.8054    1.8536 H   0  0  0  0  0  0  0  0  0  0  0  0
  1  2  1  0
  2  3  1  0
  3  4  2  0
  4  5  1  0
  5  6  2  0
  6  7  1  0
  7  8  2  0
  8  9  1  0
  9 10  1  0
  8 11  1  0
 11 12  1  0
 12 13  1  0
 13 14  1  0
 14 15  1  0
 15 16  1  0
 16 17  1  0
 17 18  2  0
 18 19  1  0
 19 20  1  0
 19 21  2  0
 21 22  1  0
 22 23  2  0
 23 24  1  0
 16 25  1  0
 25 26  1  0
 25 27  1  0
 12 28  1  0
 10  2  2  0
 27 13  1  0
  9  4  1  0
 23 17  1  0
 28  7  1  0
  1 29  1  0
  1 30  1  0
  1 31  1  0
  3 32  1  0
  6 33  1  0
 11 34  1  0
 11 35  1  0
 13 36  1  6
 14 37  1  0
 14 38  1  0
 15 39  1  0
 15 40  1  0
 16 41  1  6
 18 42  1  0
 21 43  1  0
 22 44  1  0
 25 45  1  1
 26 46  1  0
 26 47  1  0
 27 48  1  0
 27 49  1  0
 28 50  1  0
 28 51  1  0
M  END
$$$$
