
     RDKit          3D

 31 33  0  0  0  0  0  0  0  0999 V2000
    4.6491    1.3914    0.5034 O   0  0  0  0  0  0  0  0  0  0  0  0
    4.2942    0.3016    0.9878 C   0  0  0  0  0  0  0  0  0  0  0  0
    5.1170   -0.3510    1.8745 O   0  0  0  0  0  0  0  0  0  0  0  0
    3.0078   -0.2481    0.5940 C   0  0  0  0  0  0  0  0  0  0  0  0
    2.5574   -1.4615    1.1014 C   0  0  0  0  0  0  0  0  0  0  0  0
    1.3358   -1.9316    0.6946 C   0  0  0  0  0  0  0  0  0  0  0  0
    0.5457   -1.2767   -0.1748 N   0  0  0  0  0  0  0  0  0  0  0  0
    0.9416   -0.0817   -0.7020 C   0  0  0  0  0  0  0  0  0  0  0  0
    0.1169    0.6225   -1.6224 N   0  0  0  0  0  0  0  0  0  0  0  0
    0.5235    1.1951   -2.7258 N   0  0  0  0  0  0  0  0  0  0  0  0
   -0.5283    1.7801   -3.3696 C   0  0  0  0  0  0  0  0  0  0  0  0
   -1.6323    1.5303   -2.5831 C   0  0  0  0  0  0  0  0  0  0  0  0
   -1.2056    0.7986   -1.4849 C   0  0  0  0  0  0  0  0  0  0  0  0
   -1.9839    0.2883   -0.3646 C   0  0  0  0  0  0  0  0  0  0  0  0
   -3.2060   -0.3477   -0.5515 C   0  0  0  0  0  0  0  0  0  0  0  0
   -3.9635   -0.8393    0.4780 C   0  0  0  0  0  0  0  0  0  0  0  0
   -3.4839   -0.6920    1.7554 C   0  0  0  0  0  0  0  0  0  0  0  0
   -4.2002   -1.1624    2.7939 F   0  0  0  0  0  0  0  0  0  0  0  0
   -2.2783   -0.0690    1.9917 C   0  0  0  0  0  0  0  0  0  0  0  0
   -1.5215    0.4245    0.9338 C   0  0  0  0  0  0  0  0  0  0  0  0
    2.1685    0.3877   -0.2916 C   0  0  0  0  0  0  0  0  0  0  0  0
    6.0515   -0.0552    2.1296 H   0  0  0  0  0  0  0  0  0  0  0  0
    3.2033   -1.9874    1.8061 H   0  0  0  0  0  0  0  0  0  0  0  0
    1.0323   -2.8972    1.1300 H   0  0  0  0  0  0  0  0  0  0  0  0
   -0.4566    2.3181   -4.3040 H   0  0  0  0  0  0  0  0  0  0  0  0
   -2.6408    1.8488   -2.7900 H   0  0  0  0  0  0  0  0  0  0  0  0
   -3.5457   -0.4421   -1.5734 H   0  0  0  0  0  0  0  0  0  0  0  0
   -4.9254   -1.3368    0.2951 H   0  0  0  0  0  0  0  0  0  0  0  0
   -1.8866    0.0542    2.9994 H   0  0  0  0  0  0  0  0  0  0  0  0
   -0.5824    0.9054    1.1693 H   0  0  0  0  0  0  0  0  0  0  0  0
    2.4962    1.3331   -0.7004 H   0  0  0  0  0  0  0  0  0  0  0  0
  1  2  2  0
  2  3  1  0
  2  4  1  0
  4  5  2  0
  5  6  1  0
  6  7  2  0
  7  8  1  0
  8  9  1  0
  9 10  1  0
 10 11  2  0
 11 12  1  0
 12 13  2  0
 13 14  1  0
 14 15  2  0
 15 16  1  0
 16 17  2  0
 17 18  1  0
 17 19  1  0
 19 20  2  0
  8 21  2  0
 21  4  1  0
 13  9  1  0
 20 14  1  0
  3 22  1  0
  5 23  1  0
  6 24  1  0
 11 25  1  0
 12 26  1  0
 15 27  1  0
 16 28  1  0
 19 29  1  0
 20 30  1  0
 21 31  1  0
M  END
$$$$
