
     RDKit          3D

 73 79  0  0  0  0  0  0  0  0999 V2000
    2.7552   -7.3639    0.7675 C   0  0  0  0  0  0  0  0  0  0  0  0
    2.1241   -6.1260    0.9088 O   0  0  0  0  0  0  0  0  0  0  0  0
    2.0800   -5.1637   -0.0708 C   0  0  0  0  0  0  0  0  0  0  0  0
    1.4144   -3.9722    0.2076 C   0  0  0  0  0  0  0  0  0  0  0  0
    1.3293   -2.9625   -0.7253 C   0  0  0  0  0  0  0  0  0  0  0  0
    0.6444   -1.7584   -0.4183 N   0  0  0  0  0  0  0  0  0  0  0  0
   -0.7489   -1.5929   -0.6851 C   0  0  0  0  0  0  0  0  0  0  0  0
   -1.4791   -2.3070   -1.4209 O   0  0  0  0  0  0  0  0  0  0  0  0
   -1.2273   -0.4588    0.0252 N   0  0  0  0  0  0  0  0  0  0  0  0
   -2.5609    0.0303    0.0172 C   0  0  0  0  0  0  0  0  0  0  0  0
   -3.4410   -0.4451    0.9716 C   0  0  0  0  0  0  0  0  0  0  0  0
   -4.7524   -0.0262    1.0345 C   0  0  0  0  0  0  0  0  0  0  0  0
   -5.1790    0.8973    0.1055 C   0  0  0  0  0  0  0  0  0  0  0  0
   -6.5637    1.3418    0.1699 C   0  0  0  0  0  0  0  0  0  0  0  0
   -7.5082    0.4439    0.6184 C   0  0  0  0  0  0  0  0  0  0  0  0
   -8.8363    0.8354    0.6900 C   0  0  0  0  0  0  0  0  0  0  0  0
   -9.1604    2.1224    0.3047 C   0  0  0  0  0  0  0  0  0  0  0  0
  -10.3387    2.7887    0.2602 N   0  0  0  0  0  0  0  0  0  0  0  0
  -10.1159    4.0346   -0.1954 C   0  0  0  0  0  0  0  0  0  0  0  0
   -8.8117    4.1958   -0.4501 N   0  0  0  0  0  0  0  0  0  0  0  0
   -8.2167    3.0262   -0.1458 C   0  0  0  0  0  0  0  0  0  0  0  0
   -6.8945    2.6355   -0.2167 C   0  0  0  0  0  0  0  0  0  0  0  0
   -4.3228    1.3797   -0.8470 C   0  0  0  0  0  0  0  0  0  0  0  0
   -3.0096    0.9513   -0.8990 C   0  0  0  0  0  0  0  0  0  0  0  0
   -0.1274    0.0694    0.7266 C   0  0  0  0  0  0  0  0  0  0  0  0
   -0.1538    0.9238    1.6827 O   0  0  0  0  0  0  0  0  0  0  0  0
    1.1024   -0.5390    0.1656 C   0  0  0  0  0  0  0  0  0  0  0  0
    1.6588    0.4092   -0.8561 C   0  0  0  0  0  0  0  0  0  0  0  0
    3.1311    0.3442   -1.0462 C   0  0  0  0  0  0  0  0  0  0  0  0
    3.9168    0.1763    0.1232 N   0  0  0  0  0  0  0  0  0  0  0  0
    4.2026    1.3790    0.8380 C   0  0  0  0  0  0  0  0  0  0  0  0
    4.9696    2.3494    0.0214 C   0  0  0  0  0  0  0  0  0  0  0  0
    4.4280    3.4427   -0.5396 N   0  0  0  0  0  0  0  0  0  0  0  0
    5.1260    4.3140   -1.2755 C   0  0  0  0  0  0  0  0  0  0  0  0
    6.4532    4.1049   -1.4811 C   0  0  0  0  0  0  0  0  0  0  0  0
    7.0659    3.0010   -0.9314 C   0  0  0  0  0  0  0  0  0  0  0  0
    6.3262    2.1113   -0.1730 C   0  0  0  0  0  0  0  0  0  0  0  0
    6.9525    0.9107    0.4354 C   0  0  0  0  0  0  0  0  0  0  0  0
    3.4620   -0.9174    0.9134 C   0  0  0  0  0  0  0  0  0  0  0  0
    2.0399   -0.7566    1.3288 C   0  0  0  0  0  0  0  0  0  0  0  0
    1.9249   -3.1886   -1.9231 N   0  0  0  0  0  0  0  0  0  0  0  0
    2.5639   -4.3319   -2.1914 C   0  0  0  0  0  0  0  0  0  0  0  0
    2.6401   -5.3032   -1.2801 N   0  0  0  0  0  0  0  0  0  0  0  0
    3.2028   -7.5076   -0.2463 H   0  0  0  0  0  0  0  0  0  0  0  0
    1.9778   -8.1711    0.8964 H   0  0  0  0  0  0  0  0  0  0  0  0
    3.5479   -7.4369    1.5512 H   0  0  0  0  0  0  0  0  0  0  0  0
    0.9469   -3.8303    1.1885 H   0  0  0  0  0  0  0  0  0  0  0  0
   -3.0678   -1.1809    1.6975 H   0  0  0  0  0  0  0  0  0  0  0  0
   -5.3752   -0.4405    1.8042 H   0  0  0  0  0  0  0  0  0  0  0  0
   -7.2794   -0.5517    0.9201 H   0  0  0  0  0  0  0  0  0  0  0  0
   -9.5954    0.1532    1.0375 H   0  0  0  0  0  0  0  0  0  0  0  0
  -10.8435    4.8178   -0.3487 H   0  0  0  0  0  0  0  0  0  0  0  0
   -8.3420    5.0639   -0.8157 H   0  0  0  0  0  0  0  0  0  0  0  0
   -6.1420    3.3096   -0.5603 H   0  0  0  0  0  0  0  0  0  0  0  0
   -4.6993    2.0956   -1.5474 H   0  0  0  0  0  0  0  0  0  0  0  0
   -2.3154    1.3227   -1.6470 H   0  0  0  0  0  0  0  0  0  0  0  0
    1.1817    0.1238   -1.8403 H   0  0  0  0  0  0  0  0  0  0  0  0
    1.3529    1.4626   -0.6931 H   0  0  0  0  0  0  0  0  0  0  0  0
    3.4502   -0.4296   -1.7916 H   0  0  0  0  0  0  0  0  0  0  0  0
    3.4459    1.3200   -1.5208 H   0  0  0  0  0  0  0  0  0  0  0  0
    3.2082    1.8614    1.0669 H   0  0  0  0  0  0  0  0  0  0  0  0
    4.6986    1.2146    1.8025 H   0  0  0  0  0  0  0  0  0  0  0  0
    4.6679    5.2005   -1.7257 H   0  0  0  0  0  0  0  0  0  0  0  0
    7.0609    4.7872   -2.0727 H   0  0  0  0  0  0  0  0  0  0  0  0
    8.1270    2.8068   -1.0778 H   0  0  0  0  0  0  0  0  0  0  0  0
    6.6914    0.7966    1.5016 H   0  0  0  0  0  0  0  0  0  0  0  0
    6.7460   -0.0160   -0.1512 H   0  0  0  0  0  0  0  0  0  0  0  0
    8.0731    1.0335    0.3850 H   0  0  0  0  0  0  0  0  0  0  0  0
    4.0808   -0.9460    1.8453 H   0  0  0  0  0  0  0  0  0  0  0  0
    3.6574   -1.8547    0.3682 H   0  0  0  0  0  0  0  0  0  0  0  0
    1.9440    0.1122    2.0039 H   0  0  0  0  0  0  0  0  0  0  0  0
    1.7172   -1.6562    1.8767 H   0  0  0  0  0  0  0  0  0  0  0  0
    3.0182   -4.4661   -3.1506 H   0  0  0  0  0  0  0  0  0  0  0  0
  1  2  1  0
  2  3  1  0
  3  4  2  0
  4  5  1  0
  5  6  1  0
  6  7  1  0
  7  8  2  0
  7  9  1  0
  9 10  1  0
 10 11  2  0
 11 12  1  0
 12 13  2  0
 13 14  1  0
 14 15  2  0
 15 16  1  0
 16 17  2  0
 17 18  1  0
 18 19  2  0
 19 20  1  0
 20 21  1  0
 21 22  2  0
 13 23  1  0
 23 24  2  0
  9 25  1  0
 25 26  2  0
 25 27  1  0
 27 28  1  0
 28 29  1  0
 29 30  1  0
 30 31  1  0
 31 32  1  0
 32 33  2  0
 33 34  1  0
 34 35  2  0
 35 36  1  0
 36 37  2  0
 37 38  1  0
 30 39  1  0
 39 40  1  0
  5 41  2  0
 41 42  1  0
 42 43  2  0
 43  3  1  0
 27  6  1  0
 37 32  1  0
 24 10  1  0
 40 27  1  0
 22 14  1  0
 21 17  1  0
  1 44  1  0
  1 45  1  0
  1 46  1  0
  4 47  1  0
 11 48  1  0
 12 49  1  0
 15 50  1  0
 16 51  1  0
 19 52  1  0
 20 53  1  0
 22 54  1  0
 23 55  1  0
 24 56  1  0
 28 57  1  0
 28 58  1  0
 29 59  1  0
 29 60  1  0
 31 61  1  0
 31 62  1  0
 34 63  1  0
 35 64  1  0
 36 65  1  0
 38 66  1  0
 38 67  1  0
 38 68  1  0
 39 69  1  0
 39 70  1  0
 40 71  1  0
 40 72  1  0
 42 73  1  0
M  END
$$$$
