
     RDKit          3D

 41 43  0  0  0  0  0  0  0  0999 V2000
    5.4543    0.6409   -0.5480 C   0  0  0  0  0  0  0  0  0  0  0  0
    4.6922   -0.6453   -0.7882 C   0  0  0  0  0  0  0  0  0  0  0  0
    3.7625   -1.0085    0.6855 S   0  0  0  0  0  6  0  0  0  0  0  0
    4.7266   -1.0602    1.8530 O   0  0  0  0  0  0  0  0  0  0  0  0
    3.0466   -2.3117    0.5878 O   0  0  0  0  0  0  0  0  0  0  0  0
    2.6407    0.3383    0.9993 C   0  0  0  0  0  0  0  0  0  0  0  0
    1.6817    0.5316   -0.1512 C   0  0  1  0  0  0  0  0  0  0  0  0
    0.8102   -0.6670   -0.4559 C   0  0  0  0  0  0  0  0  0  0  0  0
   -0.4381    0.1779   -0.3192 C   0  0  1  0  0  0  0  0  0  0  0  0
   -1.4359   -0.3605    0.5926 N   0  0  0  0  0  0  0  0  0  0  0  0
   -1.1206   -0.5833    1.9906 C   0  0  0  0  0  0  0  0  0  0  0  0
   -2.7515   -0.6903    0.1634 C   0  0  0  0  0  0  0  0  0  0  0  0
   -3.1466   -1.9679    0.3079 N   0  0  0  0  0  0  0  0  0  0  0  0
   -4.4018   -2.3240   -0.0920 C   0  0  0  0  0  0  0  0  0  0  0  0
   -5.2482   -1.4294   -0.6247 N   0  0  0  0  0  0  0  0  0  0  0  0
   -4.9067   -0.1427   -0.7919 C   0  0  0  0  0  0  0  0  0  0  0  0
   -5.5472    0.9319   -1.2872 N   0  0  0  0  0  0  0  0  0  0  0  0
   -4.6961    1.9687   -1.2005 C   0  0  0  0  0  0  0  0  0  0  0  0
   -3.5030    1.5518   -0.6453 C   0  0  0  0  0  0  0  0  0  0  0  0
   -3.6248    0.2116   -0.3814 C   0  0  0  0  0  0  0  0  0  0  0  0
    0.4217    1.2721    0.2534 C   0  0  0  0  0  0  0  0  0  0  0  0
    6.5126    0.5083   -0.8750 H   0  0  0  0  0  0  0  0  0  0  0  0
    5.4646    0.9036    0.5332 H   0  0  0  0  0  0  0  0  0  0  0  0
    5.0161    1.4314   -1.1720 H   0  0  0  0  0  0  0  0  0  0  0  0
    4.0095   -0.5334   -1.6337 H   0  0  0  0  0  0  0  0  0  0  0  0
    5.3912   -1.4830   -1.0060 H   0  0  0  0  0  0  0  0  0  0  0  0
    2.1243    0.2294    1.9571 H   0  0  0  0  0  0  0  0  0  0  0  0
    3.2734    1.2614    1.0355 H   0  0  0  0  0  0  0  0  0  0  0  0
    2.1698    0.9432   -1.0456 H   0  0  0  0  0  0  0  0  0  0  0  0
    0.9931   -1.0694   -1.4721 H   0  0  0  0  0  0  0  0  0  0  0  0
    0.8438   -1.4758    0.3128 H   0  0  0  0  0  0  0  0  0  0  0  0
   -0.9259    0.4184   -1.2961 H   0  0  0  0  0  0  0  0  0  0  0  0
   -1.6774   -1.4765    2.3247 H   0  0  0  0  0  0  0  0  0  0  0  0
   -1.4761    0.3139    2.5461 H   0  0  0  0  0  0  0  0  0  0  0  0
   -0.0432   -0.7831    2.1489 H   0  0  0  0  0  0  0  0  0  0  0  0
   -4.7085   -3.3440    0.0267 H   0  0  0  0  0  0  0  0  0  0  0  0
   -6.5191    0.9845   -1.6730 H   0  0  0  0  0  0  0  0  0  0  0  0
   -4.9207    2.9741   -1.5200 H   0  0  0  0  0  0  0  0  0  0  0  0
   -2.6125    2.1321   -0.4377 H   0  0  0  0  0  0  0  0  0  0  0  0
    0.3079    2.2595   -0.2386 H   0  0  0  0  0  0  0  0  0  0  0  0
    0.3610    1.3713    1.3368 H   0  0  0  0  0  0  0  0  0  0  0  0
  1  2  1  0
  2  3  1  0
  3  4  2  0
  3  5  2  0
  3  6  1  0
  6  7  1  0
  7  8  1  0
  8  9  1  0
  9 10  1  0
 10 11  1  0
 10 12  1  0
 12 13  2  0
 13 14  1  0
 14 15  2  0
 15 16  1  0
 16 17  1  0
 17 18  1  0
 18 19  2  0
 19 20  1  0
  9 21  1  0
 21  7  1  0
 20 12  1  0
 20 16  2  0
  1 22  1  0
  1 23  1  0
  1 24  1  0
  2 25  1  0
  2 26  1  0
  6 27  1  0
  6 28  1  0
  7 29  1  6
  8 30  1  0
  8 31  1  0
  9 32  1  6
 11 33  1  0
 11 34  1  0
 11 35  1  0
 14 36  1  0
 17 37  1  0
 18 38  1  0
 19 39  1  0
 21 40  1  0
 21 41  1  0
M  END
$$$$
