
     RDKit          3D

 59 62  0  0  0  0  0  0  0  0999 V2000
   -6.1072    3.5041    0.5981 C   0  0  0  0  0  0  0  0  0  0  0  0
   -5.9313    1.9296    1.1437 S   0  0  0  0  0  6  0  0  0  0  0  0
   -6.4166    0.9928   -0.1108 O   0  0  0  0  0  0  0  0  0  0  0  0
   -6.6851    1.4123    2.2911 O   0  0  0  0  0  0  0  0  0  0  0  0
   -4.2903    1.2398    1.3213 N   0  0  0  0  0  0  0  0  0  0  0  0
   -3.8414    1.3577   -0.0039 C   0  0  0  0  0  0  0  0  0  0  0  0
   -2.6720    0.4491   -0.3369 C   0  0  0  0  0  0  0  0  0  0  0  0
   -1.4262    0.4225    0.2145 N   0  0  0  0  0  0  0  0  0  0  0  0
   -0.4319   -0.2635   -0.5126 C   0  0  0  0  0  0  0  0  0  0  0  0
   -0.7538   -0.9252   -1.5146 O   0  0  0  0  0  0  0  0  0  0  0  0
    1.0163   -0.1873   -0.1050 C   0  0  0  0  0  0  0  0  0  0  0  0
    1.3076    1.2376   -0.5984 N   0  0  0  0  0  0  0  0  0  0  0  0
    1.8239   -1.1139   -0.9623 C   0  0  0  0  0  0  0  0  0  0  0  0
    3.2226   -0.6391   -0.9912 C   0  0  0  0  0  0  0  0  0  0  0  0
    3.5780   -0.3120    0.4341 N   0  0  0  0  0  0  0  0  0  0  0  0
    4.7868    0.4656    0.4731 C   0  0  0  0  0  0  0  0  0  0  0  0
    4.8347    1.6904    0.2240 N   0  0  0  0  0  0  0  0  0  0  0  0
    5.9370    2.4075   -0.0136 C   0  0  0  0  0  0  0  0  0  0  0  0
    7.1083    1.6827    0.0745 N   0  0  0  0  0  0  0  0  0  0  0  0
    7.1327    0.4084    0.3745 C   0  0  0  0  0  0  0  0  0  0  0  0
    8.1680   -0.5000    0.5197 N   0  0  0  0  0  0  0  0  0  0  0  0
    7.6157   -1.7002    0.7833 C   0  0  0  0  0  0  0  0  0  0  0  0
    6.2858   -1.5771    0.7755 C   0  0  0  0  0  0  0  0  0  0  0  0
    5.9375   -0.2901    0.5726 C   0  0  0  0  0  0  0  0  0  0  0  0
    2.7391   -0.7932    1.4530 C   0  0  0  0  0  0  0  0  0  0  0  0
    1.3227   -0.2211    1.3245 C   0  0  0  0  0  0  0  0  0  0  0  0
   -3.4584   -0.9470   -0.2875 C   0  0  0  0  0  0  0  0  0  0  0  0
   -3.9700   -1.3253    0.9300 C   0  0  0  0  0  0  0  0  0  0  0  0
   -4.8310   -2.4203    1.0220 C   0  0  0  0  0  0  0  0  0  0  0  0
   -5.1425   -3.0632   -0.1582 C   0  0  0  0  0  0  0  0  0  0  0  0
   -6.5866   -4.1540   -0.1505 Cl  0  0  0  0  0  0  0  0  0  0  0  0
   -4.5845   -2.6987   -1.3429 C   0  0  0  0  0  0  0  0  0  0  0  0
   -3.7290   -1.6069   -1.3960 C   0  0  0  0  0  0  0  0  0  0  0  0
   -5.6563    4.2648    1.3039 H   0  0  0  0  0  0  0  0  0  0  0  0
   -5.7121    3.6532   -0.4177 H   0  0  0  0  0  0  0  0  0  0  0  0
   -7.2180    3.7460    0.5641 H   0  0  0  0  0  0  0  0  0  0  0  0
   -3.8574    2.1132    1.8681 H   0  0  0  0  0  0  0  0  0  0  0  0
   -4.2256    1.9867   -0.7684 H   0  0  0  0  0  0  0  0  0  0  0  0
   -2.9807    2.3486    0.2077 H   0  0  0  0  0  0  0  0  0  0  0  0
   -2.5642    0.5429   -1.5115 H   0  0  0  0  0  0  0  0  0  0  0  0
   -1.1619    0.7102    1.2170 H   0  0  0  0  0  0  0  0  0  0  0  0
    0.8539    1.8571    0.0954 H   0  0  0  0  0  0  0  0  0  0  0  0
    0.7426    1.3613   -1.4974 H   0  0  0  0  0  0  0  0  0  0  0  0
    1.3654   -1.1342   -1.9922 H   0  0  0  0  0  0  0  0  0  0  0  0
    1.7500   -2.1382   -0.5268 H   0  0  0  0  0  0  0  0  0  0  0  0
    3.3057    0.2789   -1.6095 H   0  0  0  0  0  0  0  0  0  0  0  0
    3.8741   -1.4486   -1.3436 H   0  0  0  0  0  0  0  0  0  0  0  0
    5.9009    3.4077   -0.3346 H   0  0  0  0  0  0  0  0  0  0  0  0
    9.1748   -0.2764    0.2729 H   0  0  0  0  0  0  0  0  0  0  0  0
    8.1901   -2.5885    1.0274 H   0  0  0  0  0  0  0  0  0  0  0  0
    5.5208   -2.4379    0.8732 H   0  0  0  0  0  0  0  0  0  0  0  0
    3.1549   -0.6206    2.4499 H   0  0  0  0  0  0  0  0  0  0  0  0
    2.6559   -1.9203    1.3100 H   0  0  0  0  0  0  0  0  0  0  0  0
    0.6055   -0.7897    1.9444 H   0  0  0  0  0  0  0  0  0  0  0  0
    1.4233    0.8183    1.7470 H   0  0  0  0  0  0  0  0  0  0  0  0
   -3.7501   -0.8123    1.8446 H   0  0  0  0  0  0  0  0  0  0  0  0
   -5.2265   -2.7331    1.9528 H   0  0  0  0  0  0  0  0  0  0  0  0
   -4.7200   -3.3627   -2.1847 H   0  0  0  0  0  0  0  0  0  0  0  0
   -3.4038   -1.2886   -2.3791 H   0  0  0  0  0  0  0  0  0  0  0  0
  1  2  1  0
  2  3  2  0
  2  4  2  0
  2  5  1  0
  5  6  1  0
  6  7  1  0
  7  8  1  0
  8  9  1  0
  9 10  2  0
  9 11  1  0
 11 12  1  0
 11 13  1  0
 13 14  1  0
 14 15  1  0
 15 16  1  0
 16 17  2  0
 17 18  1  0
 18 19  2  0
 19 20  1  0
 20 21  1  0
 21 22  1  0
 22 23  2  0
 23 24  1  0
 15 25  1  0
 25 26  1  0
  7 27  1  0
 27 28  2  0
 28 29  1  0
 29 30  2  0
 30 31  1  0
 30 32  1  0
 32 33  2  0
 26 11  1  0
 33 27  1  0
 24 16  1  0
 24 20  2  0
  1 34  1  0
  1 35  1  0
  1 36  1  0
  5 37  1  0
  6 38  1  0
  6 39  1  0
  7 40  1  0
  8 41  1  0
 12 42  1  0
 12 43  1  0
 13 44  1  0
 13 45  1  0
 14 46  1  0
 14 47  1  0
 18 48  1  0
 21 49  1  0
 22 50  1  0
 23 51  1  0
 25 52  1  0
 25 53  1  0
 26 54  1  0
 26 55  1  0
 28 56  1  0
 29 57  1  0
 32 58  1  0
 33 59  1  0
M  END
$$$$
