
     RDKit          3D

 58 62  0  0  0  0  0  0  0  0999 V2000
    6.3271   -0.2437   -0.2626 C   0  0  0  0  0  0  0  0  0  0  0  0
    5.0512    0.9707   -0.6485 P   0  0  0  0  0  5  0  0  0  0  0  0
    5.7241    2.3057   -0.9827 O   0  0  0  0  0  0  0  0  0  0  0  0
    4.1289    0.5474   -1.9849 O   0  0  0  0  0  0  0  0  0  0  0  0
    3.3685   -0.5939   -1.7711 C   0  0  0  0  0  0  0  0  0  0  0  0
    1.9563   -0.2720   -1.3057 C   0  0  0  0  0  0  0  0  0  0  0  0
    1.8612    0.3501    0.0186 C   0  0  1  0  0  0  0  0  0  0  0  0
    1.6991    1.8745   -0.0984 C   0  0  0  0  0  0  0  0  0  0  0  0
    0.4265    2.2286   -0.7438 C   0  0  0  0  0  0  0  0  0  0  0  0
   -0.6678    1.2217   -0.7388 C   0  0  0  0  0  0  0  0  0  0  0  0
   -0.6527    0.1729    0.3068 C   0  0  1  0  0  0  0  0  0  0  0  0
   -1.6907    0.5892    1.7058 S   0  0  0  0  0  6  0  0  0  0  0  0
   -1.4639   -0.4554    2.7919 O   0  0  0  0  0  0  0  0  0  0  0  0
   -1.1540    1.8831    2.3070 O   0  0  0  0  0  0  0  0  0  0  0  0
   -3.3453    0.8207    1.3593 C   0  0  0  0  0  0  0  0  0  0  0  0
   -4.2157   -0.2335    1.4441 C   0  0  0  0  0  0  0  0  0  0  0  0
   -5.5615   -0.1267    1.1846 C   0  0  0  0  0  0  0  0  0  0  0  0
   -6.0571    1.1004    0.8220 C   0  0  0  0  0  0  0  0  0  0  0  0
   -7.7704    1.2395    0.4910 Cl  0  0  0  0  0  0  0  0  0  0  0  0
   -5.1996    2.1751    0.7303 C   0  0  0  0  0  0  0  0  0  0  0  0
   -3.8561    2.0362    0.9966 C   0  0  0  0  0  0  0  0  0  0  0  0
   -1.2520   -1.0686   -0.2564 C   0  0  0  0  0  0  0  0  0  0  0  0
   -2.3520   -0.9864   -1.0817 C   0  0  0  0  0  0  0  0  0  0  0  0
   -2.9253    0.1844   -1.4229 F   0  0  0  0  0  0  0  0  0  0  0  0
   -2.9494   -2.1195   -1.6278 C   0  0  0  0  0  0  0  0  0  0  0  0
   -2.4541   -3.3776   -1.3578 C   0  0  0  0  0  0  0  0  0  0  0  0
   -1.3590   -3.4892   -0.5390 C   0  0  0  0  0  0  0  0  0  0  0  0
   -0.8561   -4.7144   -0.2607 F   0  0  0  0  0  0  0  0  0  0  0  0
   -0.7755   -2.3309   -0.0015 C   0  0  0  0  0  0  0  0  0  0  0  0
    0.3150   -2.4918    0.8077 O   0  0  0  0  0  0  0  0  0  0  0  0
    0.9248   -1.4392    1.4490 C   0  0  0  0  0  0  0  0  0  0  0  0
    0.7146   -0.0745    0.8989 C   0  0  1  0  0  0  0  0  0  0  0  0
    3.1256    0.2046    0.8636 C   0  0  0  0  0  0  0  0  0  0  0  0
    4.0151    1.2551    0.6347 O   0  0  0  0  0  0  0  0  0  0  0  0
    6.5081   -0.3563    0.8195 H   0  0  0  0  0  0  0  0  0  0  0  0
    7.2862    0.1011   -0.7234 H   0  0  0  0  0  0  0  0  0  0  0  0
    6.0893   -1.2188   -0.7649 H   0  0  0  0  0  0  0  0  0  0  0  0
    3.2255   -1.0396   -2.8038 H   0  0  0  0  0  0  0  0  0  0  0  0
    3.8600   -1.3724   -1.1925 H   0  0  0  0  0  0  0  0  0  0  0  0
    1.3719   -1.1668   -1.5078 H   0  0  0  0  0  0  0  0  0  0  0  0
    1.6009    0.4855   -2.0704 H   0  0  0  0  0  0  0  0  0  0  0  0
    1.7773    2.2472    0.9550 H   0  0  0  0  0  0  0  0  0  0  0  0
    2.5710    2.2511   -0.6573 H   0  0  0  0  0  0  0  0  0  0  0  0
    0.1149    3.2294   -0.3121 H   0  0  0  0  0  0  0  0  0  0  0  0
    0.6398    2.4979   -1.8230 H   0  0  0  0  0  0  0  0  0  0  0  0
   -0.7538    0.7407   -1.7508 H   0  0  0  0  0  0  0  0  0  0  0  0
   -1.6117    1.8412   -0.6428 H   0  0  0  0  0  0  0  0  0  0  0  0
   -3.8672   -1.2341    1.7301 H   0  0  0  0  0  0  0  0  0  0  0  0
   -6.2386   -0.9650    1.2547 H   0  0  0  0  0  0  0  0  0  0  0  0
   -5.6290    3.1432    0.4375 H   0  0  0  0  0  0  0  0  0  0  0  0
   -3.2412    2.9314    0.9028 H   0  0  0  0  0  0  0  0  0  0  0  0
   -3.8104   -2.0541   -2.2736 H   0  0  0  0  0  0  0  0  0  0  0  0
   -2.9451   -4.2427   -1.8009 H   0  0  0  0  0  0  0  0  0  0  0  0
    2.0144   -1.6623    1.4986 H   0  0  0  0  0  0  0  0  0  0  0  0
    0.6144   -1.4728    2.5410 H   0  0  0  0  0  0  0  0  0  0  0  0
    0.8433    0.6204    1.7967 H   0  0  0  0  0  0  0  0  0  0  0  0
    2.8501    0.2821    1.9370 H   0  0  0  0  0  0  0  0  0  0  0  0
    3.6500   -0.7290    0.7232 H   0  0  0  0  0  0  0  0  0  0  0  0
  1  2  1  0
  2  3  2  0
  2  4  1  0
  4  5  1  0
  5  6  1  0
  7  6  1  6
  7  8  1  0
  8  9  1  0
  9 10  1  0
 10 11  1  0
 11 12  1  1
 12 13  2  0
 12 14  2  0
 12 15  1  0
 15 16  2  0
 16 17  1  0
 17 18  2  0
 18 19  1  0
 18 20  1  0
 20 21  2  0
 11 22  1  0
 22 23  2  0
 23 24  1  0
 23 25  1  0
 25 26  2  0
 26 27  1  0
 27 28  1  0
 27 29  2  0
 29 30  1  0
 30 31  1  0
 31 32  1  0
  7 33  1  0
 33 34  1  0
 34  2  1  0
 32  7  1  0
 32 11  1  0
 21 15  1  0
 29 22  1  0
  1 35  1  0
  1 36  1  0
  1 37  1  0
  5 38  1  0
  5 39  1  0
  6 40  1  0
  6 41  1  0
  8 42  1  0
  8 43  1  0
  9 44  1  0
  9 45  1  0
 10 46  1  0
 10 47  1  0
 16 48  1  0
 17 49  1  0
 20 50  1  0
 21 51  1  0
 25 52  1  0
 26 53  1  0
 31 54  1  0
 31 55  1  0
 32 56  1  1
 33 57  1  0
 33 58  1  0
M  END
$$$$
