
     RDKit          3D

102107  0  0  0  0  0  0  0  0999 V2000
   -7.7492   -5.9641   -0.9451 C   0  0  0  0  0  0  0  0  0  0  0  0
   -6.4233   -6.3113   -0.9203 O   0  0  0  0  0  0  0  0  0  0  0  0
   -5.6422   -5.6605   -1.8397 C   0  0  0  0  0  0  0  0  0  0  0  0
   -5.6123   -4.1695   -1.6857 C   0  0  0  0  0  0  0  0  0  0  0  0
   -5.0679   -3.7585   -0.3157 C   0  0  0  0  0  0  0  0  0  0  0  0
   -5.0701   -2.2629   -0.2389 C   0  0  0  0  0  0  0  0  0  0  0  0
   -3.9396   -1.6199   -0.6778 C   0  0  0  0  0  0  0  0  0  0  0  0
   -3.8192   -0.2192   -0.6633 C   0  0  0  0  0  0  0  0  0  0  0  0
   -2.5837    0.3690   -1.1632 C   0  0  0  0  0  0  0  0  0  0  0  0
   -1.4872    0.5608   -0.2529 N   0  0  0  0  0  0  0  0  0  0  0  0
   -0.5428   -0.4763   -0.0248 C   0  0  0  0  0  0  0  0  0  0  0  0
   -0.6051   -1.5585   -0.6955 O   0  0  0  0  0  0  0  0  0  0  0  0
    0.5356   -0.3481    0.9885 C   0  0  1  0  0  0  0  0  0  0  0  0
   -0.1347   -0.2837    2.3344 C   0  0  0  0  0  0  0  0  0  0  0  0
   -0.6866   -1.5568    2.7770 N   0  0  0  0  0  0  0  0  0  0  0  0
    0.2599   -2.6335    2.6111 C   0  0  0  0  0  0  0  0  0  0  0  0
    1.6399   -2.0820    2.3331 C   0  0  0  0  0  0  0  0  0  0  0  0
    1.5323   -1.4259    0.9490 C   0  0  2  0  0  0  0  0  0  0  0  0
    2.9029   -1.1180    0.5594 C   0  0  0  0  0  0  0  0  0  0  0  0
    3.6493   -2.1717    0.0124 C   0  0  0  0  0  0  0  0  0  0  0  0
    4.9442   -1.9707   -0.3708 C   0  0  0  0  0  0  0  0  0  0  0  0
    5.6068   -0.7357   -0.2524 C   0  0  0  0  0  0  0  0  0  0  0  0
    6.8974   -0.6245   -0.6578 O   0  0  0  0  0  0  0  0  0  0  0  0
    7.7970    0.4226   -0.6682 C   0  0  0  0  0  0  0  0  0  0  0  0
    8.2032    0.9652    0.6595 C   0  0  0  0  0  0  0  0  0  0  0  0
    9.1167    2.0186    0.6395 O   0  0  0  0  0  0  0  0  0  0  0  0
   10.3790    1.9411    0.1131 C   0  0  0  0  0  0  0  0  0  0  0  0
   11.4022    1.4740    0.9347 C   0  0  0  0  0  0  0  0  0  0  0  0
   11.0130    1.0162    2.5767 Cl  0  0  0  0  0  0  0  0  0  0  0  0
   12.7030    1.3635    0.4924 C   0  0  0  0  0  0  0  0  0  0  0  0
   12.9947    1.7233   -0.7904 C   0  0  0  0  0  0  0  0  0  0  0  0
   14.3785    1.6275   -1.3044 C   0  0  0  0  0  0  0  0  0  0  0  0
   12.0102    2.1872   -1.6264 C   0  0  0  0  0  0  0  0  0  0  0  0
   10.6903    2.2968   -1.1677 C   0  0  0  0  0  0  0  0  0  0  0  0
    9.4647    2.9212   -2.2478 Cl  0  0  0  0  0  0  0  0  0  0  0  0
    4.8338    0.2703    0.2887 C   0  0  0  0  0  0  0  0  0  0  0  0
    3.5205    0.0899    0.6852 C   0  0  0  0  0  0  0  0  0  0  0  0
   -1.2599    1.8549    0.3328 C   0  0  0  0  0  0  0  0  0  0  0  0
   -2.2875    2.6174    1.0978 C   0  0  0  0  0  0  0  0  0  0  0  0
   -1.7924    3.1039   -0.2276 C   0  0  0  0  0  0  0  0  0  0  0  0
   -4.9068    0.4396   -0.1840 C   0  0  0  0  0  0  0  0  0  0  0  0
   -6.0666   -0.1394    0.2711 C   0  0  0  0  0  0  0  0  0  0  0  0
   -7.1630    0.5472    0.7583 O   0  0  0  0  0  0  0  0  0  0  0  0
   -7.3597    1.8816    0.8644 C   0  0  0  0  0  0  0  0  0  0  0  0
   -7.5315    2.7446   -0.3297 C   0  0  0  0  0  0  0  0  0  0  0  0
   -7.6807    4.2327    0.0347 C   0  0  0  0  0  0  0  0  0  0  0  0
   -6.5091    4.7561    0.7083 C   0  0  0  0  0  0  0  0  0  0  0  0
   -5.4445    4.1202    0.8775 O   0  0  0  0  0  0  0  0  0  0  0  0
   -6.5834    6.0700    1.2025 O   0  0  0  0  0  0  0  0  0  0  0  0
   -8.5863    2.3339   -1.3353 C   0  0  0  0  0  0  0  0  0  0  0  0
   -7.1276    2.3567   -1.6822 C   0  0  0  0  0  0  0  0  0  0  0  0
   -6.1264   -1.5478    0.2321 C   0  0  0  0  0  0  0  0  0  0  0  0
   -7.8601   -4.8955   -0.7459 H   0  0  0  0  0  0  0  0  0  0  0  0
   -8.2282   -6.2220   -1.9356 H   0  0  0  0  0  0  0  0  0  0  0  0
   -8.3254   -6.5170   -0.1713 H   0  0  0  0  0  0  0  0  0  0  0  0
   -4.5905   -6.0559   -1.7338 H   0  0  0  0  0  0  0  0  0  0  0  0
   -5.9215   -5.8860   -2.8928 H   0  0  0  0  0  0  0  0  0  0  0  0
   -6.6098   -3.7212   -1.8254 H   0  0  0  0  0  0  0  0  0  0  0  0
   -4.9073   -3.7782   -2.4551 H   0  0  0  0  0  0  0  0  0  0  0  0
   -4.0646   -4.1598   -0.1463 H   0  0  0  0  0  0  0  0  0  0  0  0
   -5.7845   -4.1376    0.4280 H   0  0  0  0  0  0  0  0  0  0  0  0
   -3.1215   -2.1917   -1.0581 H   0  0  0  0  0  0  0  0  0  0  0  0
   -2.1767   -0.2837   -1.9809 H   0  0  0  0  0  0  0  0  0  0  0  0
   -2.8835    1.3026   -1.7170 H   0  0  0  0  0  0  0  0  0  0  0  0
    1.0619    0.6030    0.7370 H   0  0  0  0  0  0  0  0  0  0  0  0
    0.5552    0.1457    3.0634 H   0  0  0  0  0  0  0  0  0  0  0  0
   -1.0728    0.3683    2.3128 H   0  0  0  0  0  0  0  0  0  0  0  0
   -1.6037   -1.7383    2.3220 H   0  0  0  0  0  0  0  0  0  0  0  0
   -0.0514   -3.1545    1.6573 H   0  0  0  0  0  0  0  0  0  0  0  0
    0.2178   -3.3933    3.3931 H   0  0  0  0  0  0  0  0  0  0  0  0
    1.8660   -1.3136    3.0805 H   0  0  0  0  0  0  0  0  0  0  0  0
    2.4079   -2.8857    2.3176 H   0  0  0  0  0  0  0  0  0  0  0  0
    1.1869   -2.2899    0.2868 H   0  0  0  0  0  0  0  0  0  0  0  0
    3.2282   -3.1638   -0.1198 H   0  0  0  0  0  0  0  0  0  0  0  0
    5.5564   -2.7740   -0.8015 H   0  0  0  0  0  0  0  0  0  0  0  0
    7.3092    1.2370   -1.2900 H   0  0  0  0  0  0  0  0  0  0  0  0
    8.6923    0.1194   -1.2508 H   0  0  0  0  0  0  0  0  0  0  0  0
    7.3253    1.2499    1.2445 H   0  0  0  0  0  0  0  0  0  0  0  0
    8.6969    0.1503    1.2877 H   0  0  0  0  0  0  0  0  0  0  0  0
   13.5087    0.9979    1.1307 H   0  0  0  0  0  0  0  0  0  0  0  0
   14.3605    1.6343   -2.4312 H   0  0  0  0  0  0  0  0  0  0  0  0
   14.9722    2.5391   -1.0152 H   0  0  0  0  0  0  0  0  0  0  0  0
   14.9312    0.7535   -0.9616 H   0  0  0  0  0  0  0  0  0  0  0  0
   12.2191    2.4765   -2.6458 H   0  0  0  0  0  0  0  0  0  0  0  0
    5.2224    1.2648    0.4117 H   0  0  0  0  0  0  0  0  0  0  0  0
    2.9429    0.9048    1.1171 H   0  0  0  0  0  0  0  0  0  0  0  0
   -0.2511    1.9353    0.8713 H   0  0  0  0  0  0  0  0  0  0  0  0
   -1.9227    3.2687    1.9639 H   0  0  0  0  0  0  0  0  0  0  0  0
   -3.2760    2.2311    1.2834 H   0  0  0  0  0  0  0  0  0  0  0  0
   -1.0852    3.9714   -0.2596 H   0  0  0  0  0  0  0  0  0  0  0  0
   -2.5433    3.1301   -1.0282 H   0  0  0  0  0  0  0  0  0  0  0  0
   -4.8646    1.5272   -0.1699 H   0  0  0  0  0  0  0  0  0  0  0  0
   -8.2811    2.0383    1.5492 H   0  0  0  0  0  0  0  0  0  0  0  0
   -6.5281    2.3103    1.5196 H   0  0  0  0  0  0  0  0  0  0  0  0
   -8.6096    4.2788    0.6593 H   0  0  0  0  0  0  0  0  0  0  0  0
   -7.8827    4.7935   -0.9036 H   0  0  0  0  0  0  0  0  0  0  0  0
   -5.7275    6.5042    1.5387 H   0  0  0  0  0  0  0  0  0  0  0  0
   -9.1228    1.3895   -1.2072 H   0  0  0  0  0  0  0  0  0  0  0  0
   -9.1945    3.1333   -1.7833 H   0  0  0  0  0  0  0  0  0  0  0  0
   -6.8006    3.2292   -2.3402 H   0  0  0  0  0  0  0  0  0  0  0  0
   -6.6388    1.4436   -2.0054 H   0  0  0  0  0  0  0  0  0  0  0  0
   -7.0168   -2.0375    0.5806 H   0  0  0  0  0  0  0  0  0  0  0  0
  1  2  1  0
  2  3  1  0
  3  4  1  0
  4  5  1  0
  5  6  1  0
  6  7  2  0
  7  8  1  0
  8  9  1  0
  9 10  1  0
 10 11  1  0
 11 12  2  0
 11 13  1  0
 13 14  1  0
 14 15  1  0
 15 16  1  0
 16 17  1  0
 17 18  1  0
 18 19  1  0
 19 20  2  0
 20 21  1  0
 21 22  2  0
 22 23  1  0
 23 24  1  0
 24 25  1  0
 25 26  1  0
 26 27  1  0
 27 28  2  0
 28 29  1  0
 28 30  1  0
 30 31  2  0
 31 32  1  0
 31 33  1  0
 33 34  2  0
 34 35  1  0
 22 36  1  0
 36 37  2  0
 10 38  1  0
 38 39  1  0
 39 40  1  0
  8 41  2  0
 41 42  1  0
 42 43  1  0
 43 44  1  0
 44 45  1  0
 45 46  1  0
 46 47  1  0
 47 48  2  0
 47 49  1  0
 45 50  1  0
 50 51  1  0
 42 52  2  0
 52  6  1  0
 18 13  1  0
 37 19  1  0
 40 38  1  0
 51 45  1  0
 34 27  1  0
  1 53  1  0
  1 54  1  0
  1 55  1  0
  3 56  1  0
  3 57  1  0
  4 58  1  0
  4 59  1  0
  5 60  1  0
  5 61  1  0
  7 62  1  0
  9 63  1  0
  9 64  1  0
 13 65  1  6
 14 66  1  0
 14 67  1  0
 15 68  1  0
 16 69  1  0
 16 70  1  0
 17 71  1  0
 17 72  1  0
 18 73  1  6
 20 74  1  0
 21 75  1  0
 24 76  1  0
 24 77  1  0
 25 78  1  0
 25 79  1  0
 30 80  1  0
 32 81  1  0
 32 82  1  0
 32 83  1  0
 33 84  1  0
 36 85  1  0
 37 86  1  0
 38 87  1  0
 39 88  1  0
 39 89  1  0
 40 90  1  0
 40 91  1  0
 41 92  1  0
 44 93  1  0
 44 94  1  0
 46 95  1  0
 46 96  1  0
 49 97  1  0
 50 98  1  0
 50 99  1  0
 51100  1  0
 51101  1  0
 52102  1  0
M  END
$$$$
