
     RDKit          3D

 50 52  0  0  0  0  0  0  0  0999 V2000
   -5.8688   -0.2362   -1.4726 C   0  0  0  0  0  0  0  0  0  0  0  0
   -4.4490    0.3070   -1.3775 C   0  0  0  0  0  0  0  0  0  0  0  0
   -4.4127    1.5049   -2.3469 C   0  0  0  0  0  0  0  0  0  0  0  0
   -3.4495   -0.6798   -1.7539 C   0  0  0  0  0  0  0  0  0  0  0  0
   -3.8303   -1.5964   -2.8488 N   0  0  0  0  0  0  0  0  0  0  0  0
   -2.3519   -0.7898   -1.2168 N   0  0  0  0  0  0  0  0  0  0  0  0
   -1.7445   -0.0636   -0.1459 C   0  0  2  0  0  0  0  0  0  0  0  0
   -1.0913    1.2236   -0.5595 C   0  0  0  0  0  0  0  0  0  0  0  0
   -0.7027   -0.9756    0.4284 C   0  0  0  0  0  0  0  0  0  0  0  0
    0.5865   -0.6215    0.4258 C   0  0  0  0  0  0  0  0  0  0  0  0
    1.6507   -1.4251    0.9227 C   0  0  0  0  0  0  0  0  0  0  0  0
    2.9563   -0.9187    0.7684 N   0  0  0  0  0  0  0  0  0  0  0  0
    3.6898   -0.1004    1.6326 C   0  0  0  0  0  0  0  0  0  0  0  0
    3.1388    0.2491    2.7228 O   0  0  0  0  0  0  0  0  0  0  0  0
    5.0523    0.3681    1.3135 C   0  0  0  0  0  0  0  0  0  0  0  0
    5.6872    1.2757    2.0779 C   0  0  0  0  0  0  0  0  0  0  0  0
    6.9629    1.8009    1.7628 C   0  0  0  0  0  0  0  0  0  0  0  0
    7.5188    1.3242    0.6181 C   0  0  0  0  0  0  0  0  0  0  0  0
    8.7845    1.8457    0.1280 C   0  0  0  0  0  0  0  0  0  0  0  0
    9.8348    2.2603   -0.2694 N   0  0  0  0  0  0  0  0  0  0  0  0
    6.8637    0.4041   -0.1424 C   0  0  0  0  0  0  0  0  0  0  0  0
    5.6328   -0.0973    0.1683 N   0  0  0  0  0  0  0  0  0  0  0  0
    1.2859   -2.6130    1.4200 C   0  0  0  0  0  0  0  0  0  0  0  0
   -0.0539   -3.0454    1.4535 C   0  0  0  0  0  0  0  0  0  0  0  0
   -1.0725   -2.2224    0.9512 C   0  0  0  0  0  0  0  0  0  0  0  0
   -2.3490   -2.6197    0.9330 F   0  0  0  0  0  0  0  0  0  0  0  0
   -2.7670    0.1880    0.9663 C   0  0  0  0  0  0  0  0  0  0  0  0
   -4.1976    0.9237    0.2409 S   0  0  0  0  0  6  0  0  0  0  0  0
   -5.4016    0.6261    1.1233 O   0  0  0  0  0  0  0  0  0  0  0  0
   -4.0068    2.4340    0.2176 O   0  0  0  0  0  0  0  0  0  0  0  0
   -6.4293    0.1914   -2.3330 H   0  0  0  0  0  0  0  0  0  0  0  0
   -6.4136    0.0358   -0.5524 H   0  0  0  0  0  0  0  0  0  0  0  0
   -5.8548   -1.3487   -1.5660 H   0  0  0  0  0  0  0  0  0  0  0  0
   -4.1405    1.0484   -3.3436 H   0  0  0  0  0  0  0  0  0  0  0  0
   -3.6458    2.2369   -2.0960 H   0  0  0  0  0  0  0  0  0  0  0  0
   -5.4311    1.9219   -2.4888 H   0  0  0  0  0  0  0  0  0  0  0  0
   -3.0877   -2.2352   -3.1740 H   0  0  0  0  0  0  0  0  0  0  0  0
   -4.7623   -1.5969   -3.2536 H   0  0  0  0  0  0  0  0  0  0  0  0
   -1.8962    2.0447   -0.5291 H   0  0  0  0  0  0  0  0  0  0  0  0
   -0.3797    1.5744    0.2048 H   0  0  0  0  0  0  0  0  0  0  0  0
   -0.7010    1.1888   -1.5965 H   0  0  0  0  0  0  0  0  0  0  0  0
    0.9749    0.3322    0.0291 H   0  0  0  0  0  0  0  0  0  0  0  0
    3.4987   -1.1612   -0.1450 H   0  0  0  0  0  0  0  0  0  0  0  0
    5.2274    1.6317    2.9586 H   0  0  0  0  0  0  0  0  0  0  0  0
    7.4584    2.5282    2.3623 H   0  0  0  0  0  0  0  0  0  0  0  0
    7.3123    0.0005   -1.0574 H   0  0  0  0  0  0  0  0  0  0  0  0
    2.0199   -3.2954    1.8263 H   0  0  0  0  0  0  0  0  0  0  0  0
   -0.3191   -4.0044    1.8685 H   0  0  0  0  0  0  0  0  0  0  0  0
   -2.2652    0.8781    1.6885 H   0  0  0  0  0  0  0  0  0  0  0  0
   -3.0611   -0.7018    1.5208 H   0  0  0  0  0  0  0  0  0  0  0  0
  1  2  1  0
  2  3  1  0
  2  4  1  0
  4  5  1  0
  4  6  2  0
  6  7  1  0
  7  8  1  6
  7  9  1  0
  9 10  2  0
 10 11  1  0
 11 12  1  0
 12 13  1  0
 13 14  2  0
 13 15  1  0
 15 16  2  0
 16 17  1  0
 17 18  2  0
 18 19  1  0
 19 20  3  0
 18 21  1  0
 21 22  2  0
 11 23  2  0
 23 24  1  0
 24 25  2  0
 25 26  1  0
  7 27  1  0
 27 28  1  0
 28 29  2  0
 28 30  2  0
 28  2  1  0
 25  9  1  0
 22 15  1  0
  1 31  1  0
  1 32  1  0
  1 33  1  0
  3 34  1  0
  3 35  1  0
  3 36  1  0
  5 37  1  0
  5 38  1  0
  8 39  1  0
  8 40  1  0
  8 41  1  0
 10 42  1  0
 12 43  1  0
 16 44  1  0
 17 45  1  0
 21 46  1  0
 23 47  1  0
 24 48  1  0
 27 49  1  0
 27 50  1  0
M  END
$$$$
