
     RDKit          3D

 52 55  0  0  0  0  0  0  0  0999 V2000
    6.4937    3.6381   -1.1802 C   0  0  0  0  0  0  0  0  0  0  0  0
    5.7930    2.4443   -0.6133 O   0  0  0  0  0  0  0  0  0  0  0  0
    5.2775    1.5609   -0.1947 C   0  0  0  0  0  0  0  0  0  0  0  0
    3.8363    1.6748    0.2209 C   0  0  0  0  0  0  0  0  0  0  0  0
    3.2364    0.6505    0.7343 N   0  0  0  0  0  0  0  0  0  0  0  0
    3.7583   -0.5443    0.9471 C   0  0  0  0  0  0  0  0  0  0  0  0
    2.9984   -1.5220    1.5417 C   0  0  0  0  0  0  0  0  0  0  0  0
    1.6334   -1.1619    1.7744 N   0  0  0  0  0  0  0  0  0  0  0  0
    0.6456   -1.4758    0.8118 C   0  0  0  0  0  0  0  0  0  0  0  0
    0.7634   -2.6813    0.1246 C   0  0  0  0  0  0  0  0  0  0  0  0
   -0.1422   -3.0422   -0.8404 C   0  0  0  0  0  0  0  0  0  0  0  0
   -1.2204   -2.2096   -1.1711 C   0  0  0  0  0  0  0  0  0  0  0  0
   -2.0569   -2.6570   -2.1854 F   0  0  0  0  0  0  0  0  0  0  0  0
   -1.3648   -1.0174   -0.5081 C   0  0  0  0  0  0  0  0  0  0  0  0
   -2.5312   -0.1487   -0.7774 C   0  0  2  0  0  0  0  0  0  0  0  0
   -2.7698   -0.0905   -2.3426 C   0  0  0  0  0  0  0  0  0  0  0  0
   -2.2470    1.2509   -0.3389 C   0  0  0  0  0  0  0  0  0  0  0  0
   -3.3994    1.7658    0.8985 S   0  0  0  0  0  6  0  0  0  0  0  0
   -3.0673    1.0982    2.2094 O   0  0  0  0  0  0  0  0  0  0  0  0
   -3.4446    3.2445    1.0229 O   0  0  0  0  0  0  0  0  0  0  0  0
   -4.9731    1.1546    0.3560 C   0  0  1  0  0  0  0  0  0  0  0  0
   -5.9453    1.4204    1.4605 C   0  0  0  0  0  0  0  0  0  0  0  0
   -5.4442    1.7678   -0.7653 F   0  0  0  0  0  0  0  0  0  0  0  0
   -4.8022   -0.3150    0.1451 C   0  0  0  0  0  0  0  0  0  0  0  0
   -5.9418   -1.1201    0.5479 N   0  0  0  0  0  0  0  0  0  0  0  0
   -3.7363   -0.7710   -0.3370 N   0  0  0  0  0  0  0  0  0  0  0  0
   -0.4222   -0.6791    0.4741 C   0  0  0  0  0  0  0  0  0  0  0  0
    3.5807   -2.6973    1.7607 N   0  0  0  0  0  0  0  0  0  0  0  0
    4.8808   -2.9735    1.4256 C   0  0  0  0  0  0  0  0  0  0  0  0
    5.6310   -1.9853    0.8263 C   0  0  0  0  0  0  0  0  0  0  0  0
    5.1099   -0.7535    0.5757 C   0  0  0  0  0  0  0  0  0  0  0  0
    5.7096    0.2867    0.0546 N   0  0  0  0  0  0  0  0  0  0  0  0
    6.4301    4.3401   -0.3320 H   0  0  0  0  0  0  0  0  0  0  0  0
    5.8876    4.0443   -2.0093 H   0  0  0  0  0  0  0  0  0  0  0  0
    7.4955    3.3984   -1.4618 H   0  0  0  0  0  0  0  0  0  0  0  0
    3.4663    2.6577    0.0446 H   0  0  0  0  0  0  0  0  0  0  0  0
    1.4164   -0.6704    2.6396 H   0  0  0  0  0  0  0  0  0  0  0  0
    1.5938   -3.3487    0.3736 H   0  0  0  0  0  0  0  0  0  0  0  0
   -0.0481   -3.9852   -1.3723 H   0  0  0  0  0  0  0  0  0  0  0  0
   -3.5345    0.7347   -2.4109 H   0  0  0  0  0  0  0  0  0  0  0  0
   -3.3126   -0.9827   -2.6387 H   0  0  0  0  0  0  0  0  0  0  0  0
   -1.9124    0.2488   -2.8660 H   0  0  0  0  0  0  0  0  0  0  0  0
   -1.2246    1.4564    0.0209 H   0  0  0  0  0  0  0  0  0  0  0  0
   -2.3414    1.9508   -1.2497 H   0  0  0  0  0  0  0  0  0  0  0  0
   -5.6733    0.9933    2.4475 H   0  0  0  0  0  0  0  0  0  0  0  0
   -5.9769    2.5307    1.6191 H   0  0  0  0  0  0  0  0  0  0  0  0
   -6.9785    1.1565    1.1569 H   0  0  0  0  0  0  0  0  0  0  0  0
   -5.7727   -1.9272    1.1821 H   0  0  0  0  0  0  0  0  0  0  0  0
   -6.8691   -0.8618    0.1813 H   0  0  0  0  0  0  0  0  0  0  0  0
   -0.4688    0.2475    1.0415 H   0  0  0  0  0  0  0  0  0  0  0  0
    5.3170   -3.9285    1.6314 H   0  0  0  0  0  0  0  0  0  0  0  0
    6.6669   -2.1667    0.5366 H   0  0  0  0  0  0  0  0  0  0  0  0
  1  2  1  0
  2  3  1  0
  3  4  2  0
  4  5  1  0
  5  6  2  0
  6  7  1  0
  7  8  1  0
  8  9  1  0
  9 10  2  0
 10 11  1  0
 11 12  2  0
 12 13  1  0
 12 14  1  0
 14 15  1  0
 15 16  1  6
 15 17  1  0
 17 18  1  0
 18 19  2  0
 18 20  2  0
 18 21  1  0
 21 22  1  0
 21 23  1  6
 21 24  1  0
 24 25  1  0
 24 26  2  0
 14 27  2  0
  7 28  2  0
 28 29  1  0
 29 30  2  0
 30 31  1  0
 31 32  2  0
 32  3  1  0
 31  6  1  0
 27  9  1  0
 26 15  1  0
  1 33  1  0
  1 34  1  0
  1 35  1  0
  4 36  1  0
  8 37  1  0
 10 38  1  0
 11 39  1  0
 16 40  1  0
 16 41  1  0
 16 42  1  0
 17 43  1  0
 17 44  1  0
 22 45  1  0
 22 46  1  0
 22 47  1  0
 25 48  1  0
 25 49  1  0
 27 50  1  0
 29 51  1  0
 30 52  1  0
M  END
$$$$
