
     RDKit          3D

 48 50  0  0  0  0  0  0  0  0999 V2000
    6.8563   -0.2473   -1.1799 C   0  0  0  0  0  0  0  0  0  0  0  0
    5.4274    0.1860   -1.1193 C   0  0  0  0  0  0  0  0  0  0  0  0
    4.4200   -0.6056   -0.7701 N   0  0  0  0  0  0  0  0  0  0  0  0
    3.1294   -0.2730   -0.6866 C   0  0  0  0  0  0  0  0  0  0  0  0
    2.0948   -1.1417   -0.3436 N   0  0  0  0  0  0  0  0  0  0  0  0
    1.1057   -1.0079    0.6363 C   0  0  0  0  0  0  0  0  0  0  0  0
   -0.2217   -0.8414    0.1468 C   0  0  0  0  0  0  0  0  0  0  0  0
   -1.2528   -0.7135    1.0315 C   0  0  0  0  0  0  0  0  0  0  0  0
   -2.6139   -0.5447    0.5907 N   0  0  0  0  0  0  0  0  0  0  0  0
   -3.0130   -0.4509   -0.7749 C   0  0  2  0  0  0  0  0  0  0  0  0
   -2.5231    0.8262   -1.3980 C   0  0  0  0  0  0  0  0  0  0  0  0
   -3.7041    1.7716   -1.6672 C   0  0  0  0  0  0  0  0  0  0  0  0
   -4.5065    1.8566   -0.3968 C   0  0  0  0  0  0  0  0  0  0  0  0
   -5.2462    0.5461   -0.2344 C   0  0  0  0  0  0  0  0  0  0  0  0
   -4.5151   -0.5892   -0.9096 C   0  0  2  0  0  0  0  0  0  0  0  0
   -4.9138   -1.8158   -0.2280 N   0  0  0  0  0  0  0  0  0  0  0  0
   -0.9555   -0.7512    2.3331 N   0  0  0  0  0  0  0  0  0  0  0  0
    0.2592   -0.9037    2.8084 N   0  0  0  0  0  0  0  0  0  0  0  0
    1.3449   -1.0416    1.9660 C   0  0  0  0  0  0  0  0  0  0  0  0
    2.6592   -1.2914    2.5219 C   0  0  0  0  0  0  0  0  0  0  0  0
    2.7457   -1.2018    3.9726 N   0  0  0  0  0  0  0  0  0  0  0  0
    3.6934   -1.5722    1.8948 O   0  0  0  0  0  0  0  0  0  0  0  0
    2.8219    1.0592   -1.0080 C   0  0  0  0  0  0  0  0  0  0  0  0
    3.8136    1.9341   -1.3811 C   0  0  0  0  0  0  0  0  0  0  0  0
    5.1361    1.5012   -1.4396 C   0  0  0  0  0  0  0  0  0  0  0  0
    6.4332    2.5661   -1.9089 Cl  0  0  0  0  0  0  0  0  0  0  0  0
    7.3093    0.1049   -0.2233 H   0  0  0  0  0  0  0  0  0  0  0  0
    6.9062   -1.3427   -1.2407 H   0  0  0  0  0  0  0  0  0  0  0  0
    7.3811    0.1870   -2.0447 H   0  0  0  0  0  0  0  0  0  0  0  0
    2.0428   -2.0498   -0.9062 H   0  0  0  0  0  0  0  0  0  0  0  0
   -0.3959   -0.8216   -0.9035 H   0  0  0  0  0  0  0  0  0  0  0  0
   -3.3705   -0.4840    1.3252 H   0  0  0  0  0  0  0  0  0  0  0  0
   -2.5723   -1.2870   -1.3671 H   0  0  0  0  0  0  0  0  0  0  0  0
   -1.8306    1.3809   -0.7462 H   0  0  0  0  0  0  0  0  0  0  0  0
   -2.0171    0.6464   -2.3828 H   0  0  0  0  0  0  0  0  0  0  0  0
   -4.3781    1.3598   -2.4454 H   0  0  0  0  0  0  0  0  0  0  0  0
   -3.2865    2.7319   -1.9787 H   0  0  0  0  0  0  0  0  0  0  0  0
   -5.1901    2.7229   -0.4158 H   0  0  0  0  0  0  0  0  0  0  0  0
   -3.7992    2.0057    0.4472 H   0  0  0  0  0  0  0  0  0  0  0  0
   -5.3185    0.3722    0.8731 H   0  0  0  0  0  0  0  0  0  0  0  0
   -6.2448    0.6255   -0.7010 H   0  0  0  0  0  0  0  0  0  0  0  0
   -4.7512   -0.6295   -1.9876 H   0  0  0  0  0  0  0  0  0  0  0  0
   -4.1036   -2.4862   -0.1673 H   0  0  0  0  0  0  0  0  0  0  0  0
   -5.7582   -2.2373   -0.6658 H   0  0  0  0  0  0  0  0  0  0  0  0
    2.9204   -0.2942    4.3973 H   0  0  0  0  0  0  0  0  0  0  0  0
    2.6242   -2.0599    4.5085 H   0  0  0  0  0  0  0  0  0  0  0  0
    1.7778    1.3591   -0.9476 H   0  0  0  0  0  0  0  0  0  0  0  0
    3.5795    2.9415   -1.6299 H   0  0  0  0  0  0  0  0  0  0  0  0
  1  2  1  0
  2  3  2  0
  3  4  1  0
  4  5  1  0
  5  6  1  0
  6  7  2  0
  7  8  1  0
  8  9  1  0
  9 10  1  0
 10 11  1  0
 11 12  1  0
 12 13  1  0
 13 14  1  0
 14 15  1  0
 15 16  1  0
  8 17  2  0
 17 18  1  0
 18 19  2  0
 19 20  1  0
 20 21  1  0
 20 22  2  0
  4 23  2  0
 23 24  1  0
 24 25  2  0
 25 26  1  0
 25  2  1  0
 19  6  1  0
 15 10  1  0
  1 27  1  0
  1 28  1  0
  1 29  1  0
  5 30  1  0
  7 31  1  0
  9 32  1  0
 10 33  1  6
 11 34  1  0
 11 35  1  0
 12 36  1  0
 12 37  1  0
 13 38  1  0
 13 39  1  0
 14 40  1  0
 14 41  1  0
 15 42  1  6
 16 43  1  0
 16 44  1  0
 21 45  1  0
 21 46  1  0
 23 47  1  0
 24 48  1  0
M  END
$$$$
