
     RDKit          3D

 72 73  0  0  0  0  0  0  0  0999 V2000
   -4.7812    2.9058   -1.1304 C   0  0  0  0  0  0  0  0  0  0  0  0
   -3.2846    3.0279   -1.2067 C   0  0  0  0  0  0  0  0  0  0  0  0
   -2.8224    3.5053    0.1814 C   0  0  0  0  0  0  0  0  0  0  0  0
   -2.7891    4.0363   -2.2049 C   0  0  0  0  0  0  0  0  0  0  0  0
   -2.6508    1.7520   -1.4383 O   0  0  0  0  0  0  0  0  0  0  0  0
   -2.8440    0.7734   -0.4856 C   0  0  0  0  0  0  0  0  0  0  0  0
   -3.5372    1.0131    0.5237 O   0  0  0  0  0  0  0  0  0  0  0  0
   -2.2643   -0.5578   -0.5994 N   0  0  0  0  0  0  0  0  0  0  0  0
   -2.5596   -1.4620    0.4870 C   0  0  1  0  0  0  0  0  0  0  0  0
   -3.0939   -2.7871   -0.0648 C   0  0  0  0  0  0  0  0  0  0  0  0
   -3.3852   -3.7013    1.0801 C   0  0  0  0  0  0  0  0  0  0  0  0
   -2.4476   -4.5322    1.6129 C   0  0  0  0  0  0  0  0  0  0  0  0
   -2.7485   -5.3698    2.6651 C   0  0  0  0  0  0  0  0  0  0  0  0
   -4.0073   -5.4129    3.2312 C   0  0  0  0  0  0  0  0  0  0  0  0
   -4.9629   -4.5764    2.7012 C   0  0  0  0  0  0  0  0  0  0  0  0
   -4.6534   -3.7367    1.6439 C   0  0  0  0  0  0  0  0  0  0  0  0
   -1.4400   -1.6671    1.3919 C   0  0  0  0  0  0  0  0  0  0  0  0
   -1.7704   -1.8923    2.6362 O   0  0  0  0  0  0  0  0  0  0  0  0
   -0.0385   -1.6644    1.1516 N   0  0  0  0  0  0  0  0  0  0  0  0
    0.9009   -1.6641    2.2485 C   0  0  0  0  0  0  0  0  0  0  0  0
    2.3410   -2.4847    1.5433 S   0  0  0  0  0  0  0  0  0  0  0  0
    1.5794   -2.9197   -0.0325 C   0  0  0  0  0  0  0  0  0  0  0  0
    0.5935   -1.7371   -0.1046 C   0  0  0  0  0  0  0  0  0  0  0  0
    1.3231   -0.5009   -0.4237 C   0  0  0  0  0  0  0  0  0  0  0  0
    1.2127    0.5113    0.3122 O   0  0  0  0  0  0  0  0  0  0  0  0
    2.1586   -0.4114   -1.5544 N   0  0  0  0  0  0  0  0  0  0  0  0
    2.9265    0.6952   -2.0158 C   0  0  2  0  0  0  0  0  0  0  0  0
    2.6204    1.0666   -3.4279 C   0  0  0  0  0  0  0  0  0  0  0  0
    3.1656    2.0207   -3.9426 O   0  0  0  0  0  0  0  0  0  0  0  0
    4.4200    0.4207   -1.8486 C   0  0  0  0  0  0  0  0  0  0  0  0
    4.8116    0.2200   -0.4186 C   0  0  0  0  0  0  0  0  0  0  0  0
    4.6024    1.4446    0.4500 C   0  0  0  0  0  0  0  0  0  0  0  0
    5.4289    2.5196   -0.1038 N   0  0  0  0  0  0  0  0  0  0  0  0
    5.5253    3.8141    0.4631 C   0  0  0  0  0  0  0  0  0  0  0  0
    4.9590    4.0277    1.6165 N   0  0  0  0  0  0  0  0  0  0  0  0
    6.2271    4.8687   -0.2032 N   0  0  0  0  0  0  0  0  0  0  0  0
   -5.2677    3.8581   -1.4718 H   0  0  0  0  0  0  0  0  0  0  0  0
   -5.1244    2.6560   -0.1071 H   0  0  0  0  0  0  0  0  0  0  0  0
   -5.0922    2.0720   -1.7904 H   0  0  0  0  0  0  0  0  0  0  0  0
   -3.5396    3.2739    0.9770 H   0  0  0  0  0  0  0  0  0  0  0  0
   -2.6763    4.5965    0.1329 H   0  0  0  0  0  0  0  0  0  0  0  0
   -1.8112    3.0692    0.3622 H   0  0  0  0  0  0  0  0  0  0  0  0
   -1.6794    3.8902   -2.2837 H   0  0  0  0  0  0  0  0  0  0  0  0
   -3.2138    3.7474   -3.1774 H   0  0  0  0  0  0  0  0  0  0  0  0
   -2.9407    5.0774   -1.9147 H   0  0  0  0  0  0  0  0  0  0  0  0
   -1.7216   -0.7388   -1.4661 H   0  0  0  0  0  0  0  0  0  0  0  0
   -3.4103   -1.0464    1.1075 H   0  0  0  0  0  0  0  0  0  0  0  0
   -4.0712   -2.5610   -0.5333 H   0  0  0  0  0  0  0  0  0  0  0  0
   -2.3848   -3.2718   -0.7421 H   0  0  0  0  0  0  0  0  0  0  0  0
   -1.4353   -4.5515    1.2295 H   0  0  0  0  0  0  0  0  0  0  0  0
   -2.0073   -6.0289    3.0818 H   0  0  0  0  0  0  0  0  0  0  0  0
   -4.2562   -6.0560    4.0562 H   0  0  0  0  0  0  0  0  0  0  0  0
   -5.9580   -4.6055    3.1486 H   0  0  0  0  0  0  0  0  0  0  0  0
   -5.4500   -3.1157    1.2818 H   0  0  0  0  0  0  0  0  0  0  0  0
    0.4936   -2.2073    3.1325 H   0  0  0  0  0  0  0  0  0  0  0  0
    1.1471   -0.6063    2.5495 H   0  0  0  0  0  0  0  0  0  0  0  0
    2.2573   -2.9528   -0.8745 H   0  0  0  0  0  0  0  0  0  0  0  0
    0.9976   -3.8702    0.0317 H   0  0  0  0  0  0  0  0  0  0  0  0
   -0.1328   -2.0071   -0.9370 H   0  0  0  0  0  0  0  0  0  0  0  0
    2.2230   -1.2992   -2.1396 H   0  0  0  0  0  0  0  0  0  0  0  0
    2.7325    1.5832   -1.3879 H   0  0  0  0  0  0  0  0  0  0  0  0
    1.9150    0.5102   -4.0354 H   0  0  0  0  0  0  0  0  0  0  0  0
    5.0275    1.1841   -2.3481 H   0  0  0  0  0  0  0  0  0  0  0  0
    4.5854   -0.5686   -2.3497 H   0  0  0  0  0  0  0  0  0  0  0  0
    5.8866   -0.0682   -0.4101 H   0  0  0  0  0  0  0  0  0  0  0  0
    4.2471   -0.6449    0.0077 H   0  0  0  0  0  0  0  0  0  0  0  0
    4.9744    1.2465    1.4748 H   0  0  0  0  0  0  0  0  0  0  0  0
    3.5782    1.8182    0.4283 H   0  0  0  0  0  0  0  0  0  0  0  0
    5.9785    2.3291   -0.9573 H   0  0  0  0  0  0  0  0  0  0  0  0
    4.4496    3.2606    2.1036 H   0  0  0  0  0  0  0  0  0  0  0  0
    6.4266    5.7559    0.2742 H   0  0  0  0  0  0  0  0  0  0  0  0
    6.5373    4.7264   -1.1875 H   0  0  0  0  0  0  0  0  0  0  0  0
  1  2  1  0
  2  3  1  0
  2  4  1  0
  2  5  1  0
  5  6  1  0
  6  7  2  0
  6  8  1  0
  8  9  1  0
  9 10  1  0
 10 11  1  0
 11 12  2  0
 12 13  1  0
 13 14  2  0
 14 15  1  0
 15 16  2  0
  9 17  1  0
 17 18  2  0
 17 19  1  0
 19 20  1  0
 20 21  1  0
 21 22  1  0
 22 23  1  0
 23 24  1  0
 24 25  2  0
 24 26  1  0
 26 27  1  0
 27 28  1  0
 28 29  2  0
 27 30  1  0
 30 31  1  0
 31 32  1  0
 32 33  1  0
 33 34  1  0
 34 35  2  3
 34 36  1  0
 16 11  1  0
 23 19  1  0
  1 37  1  0
  1 38  1  0
  1 39  1  0
  3 40  1  0
  3 41  1  0
  3 42  1  0
  4 43  1  0
  4 44  1  0
  4 45  1  0
  8 46  1  0
  9 47  1  1
 10 48  1  0
 10 49  1  0
 12 50  1  0
 13 51  1  0
 14 52  1  0
 15 53  1  0
 16 54  1  0
 20 55  1  0
 20 56  1  0
 22 57  1  0
 22 58  1  0
 23 59  1  0
 26 60  1  0
 27 61  1  1
 28 62  1  0
 30 63  1  0
 30 64  1  0
 31 65  1  0
 31 66  1  0
 32 67  1  0
 32 68  1  0
 33 69  1  0
 35 70  1  0
 36 71  1  0
 36 72  1  0
M  END
$$$$
