
     RDKit          3D

 44 47  0  0  0  0  0  0  0  0999 V2000
    4.9099    1.0049    2.3146 C   0  0  0  0  0  0  0  0  0  0  0  0
    4.1488    0.9982    1.0215 C   0  0  0  0  0  0  0  0  0  0  0  0
    3.6605    2.0651    0.5651 O   0  0  0  0  0  0  0  0  0  0  0  0
    3.9496   -0.1961    0.2678 N   0  0  0  0  0  0  0  0  0  0  0  0
    3.2193   -0.1318   -0.9493 C   0  0  0  0  0  0  0  0  0  0  0  0
    3.7037    0.0973   -2.2220 C   0  0  0  0  0  0  0  0  0  0  0  0
    2.6942    0.0817   -3.1004 N   0  0  0  0  0  0  0  0  0  0  0  0
    1.5633   -0.1594   -2.3747 C   0  0  0  0  0  0  0  0  0  0  0  0
    0.2489   -0.2788   -2.7596 C   0  0  0  0  0  0  0  0  0  0  0  0
   -0.7365   -0.5263   -1.8392 C   0  0  0  0  0  0  0  0  0  0  0  0
   -0.3805   -0.6530   -0.5156 C   0  0  0  0  0  0  0  0  0  0  0  0
   -1.3834   -0.9059    0.5038 C   0  0  0  0  0  0  0  0  0  0  0  0
   -2.3193   -0.0135    0.9490 C   0  0  0  0  0  0  0  0  0  0  0  0
   -2.5556    1.3865    0.5309 C   0  0  0  0  0  0  0  0  0  0  0  0
   -3.1220    1.6910   -0.6813 C   0  0  0  0  0  0  0  0  0  0  0  0
   -3.3173    3.0343   -1.0319 C   0  0  0  0  0  0  0  0  0  0  0  0
   -2.9621    4.0579   -0.2053 C   0  0  0  0  0  0  0  0  0  0  0  0
   -3.1549    5.3354   -0.5535 F   0  0  0  0  0  0  0  0  0  0  0  0
   -2.3953    3.7588    1.0089 C   0  0  0  0  0  0  0  0  0  0  0  0
   -2.1959    2.4279    1.3689 C   0  0  0  0  0  0  0  0  0  0  0  0
   -3.0367   -0.6726    1.8994 N   0  0  0  0  0  0  0  0  0  0  0  0
   -2.5805   -1.9206    2.0511 C   0  0  0  0  0  0  0  0  0  0  0  0
   -1.5566   -2.0455    1.1779 N   0  0  0  0  0  0  0  0  0  0  0  0
   -0.7852   -3.2557    1.0228 C   0  0  0  0  0  0  0  0  0  0  0  0
   -1.4446   -4.1235   -0.0115 C   0  0  0  0  0  0  0  0  0  0  0  0
   -2.7350   -4.4222    0.4269 F   0  0  0  0  0  0  0  0  0  0  0  0
   -1.4810   -3.5659   -1.2572 F   0  0  0  0  0  0  0  0  0  0  0  0
    0.9399   -0.5260   -0.1847 N   0  0  0  0  0  0  0  0  0  0  0  0
    1.8849   -0.2879   -1.0748 N   0  0  0  0  0  0  0  0  0  0  0  0
    5.6551    0.2030    2.3545 H   0  0  0  0  0  0  0  0  0  0  0  0
    5.3979    1.9856    2.3958 H   0  0  0  0  0  0  0  0  0  0  0  0
    4.2177    0.9218    3.1849 H   0  0  0  0  0  0  0  0  0  0  0  0
    4.3509   -1.0839    0.6393 H   0  0  0  0  0  0  0  0  0  0  0  0
    4.7419    0.2623   -2.4575 H   0  0  0  0  0  0  0  0  0  0  0  0
   -0.0622   -0.1825   -3.8062 H   0  0  0  0  0  0  0  0  0  0  0  0
   -1.7811   -0.6324   -2.1033 H   0  0  0  0  0  0  0  0  0  0  0  0
   -3.4126    0.8964   -1.3416 H   0  0  0  0  0  0  0  0  0  0  0  0
   -3.7618    3.2421   -1.9866 H   0  0  0  0  0  0  0  0  0  0  0  0
   -2.0980    4.5421    1.6964 H   0  0  0  0  0  0  0  0  0  0  0  0
   -1.7474    2.1531    2.3276 H   0  0  0  0  0  0  0  0  0  0  0  0
   -2.9197   -2.7070    2.7155 H   0  0  0  0  0  0  0  0  0  0  0  0
   -0.7691   -3.7700    2.0035 H   0  0  0  0  0  0  0  0  0  0  0  0
    0.2560   -3.0025    0.7327 H   0  0  0  0  0  0  0  0  0  0  0  0
   -0.8482   -5.0824   -0.0277 H   0  0  0  0  0  0  0  0  0  0  0  0
  1  2  1  0
  2  3  2  0
  2  4  1  0
  4  5  1  0
  5  6  2  0
  6  7  1  0
  7  8  2  0
  8  9  1  0
  9 10  2  0
 10 11  1  0
 11 12  1  0
 12 13  2  0
 13 14  1  0
 14 15  2  0
 15 16  1  0
 16 17  2  0
 17 18  1  0
 17 19  1  0
 19 20  2  0
 13 21  1  0
 21 22  2  0
 22 23  1  0
 23 24  1  0
 24 25  1  0
 25 26  1  0
 25 27  1  0
 11 28  2  0
 28 29  1  0
 29  5  1  0
 29  8  1  0
 23 12  1  0
 20 14  1  0
  1 30  1  0
  1 31  1  0
  1 32  1  0
  4 33  1  0
  6 34  1  0
  9 35  1  0
 10 36  1  0
 15 37  1  0
 16 38  1  0
 19 39  1  0
 20 40  1  0
 22 41  1  0
 24 42  1  0
 24 43  1  0
 25 44  1  0
M  END
$$$$
