
     RDKit          3D

 62 65  0  0  0  0  0  0  0  0999 V2000
   -2.4773    1.1326    0.0069 C   0  0  2  0  0  0  0  0  0  0  0  0
   -2.6198    0.8501    1.3989 N   0  0  0  0  0  0  0  0  0  0  0  0
   -3.0882    0.1163   -0.8704 C   0  0  0  0  0  0  0  0  0  0  0  0
   -2.9881    0.3418   -2.1177 O   0  0  0  0  0  0  0  0  0  0  0  0
   -3.8001   -1.1106   -0.8934 N   0  0  0  0  0  0  0  0  0  0  0  0
   -4.1639   -1.6837   -2.1711 C   0  0  0  0  0  0  0  0  0  0  0  0
   -3.4407   -3.0359   -2.0898 C   0  0  0  0  0  0  0  0  0  0  0  0
   -3.7288   -3.4040   -0.6481 C   0  0  2  0  0  0  0  0  0  0  0  0
   -4.5889   -4.4724   -0.6252 F   0  0  0  0  0  0  0  0  0  0  0  0
   -4.3875   -2.1592   -0.0464 C   0  0  0  0  0  0  0  0  0  0  0  0
   -1.1050    1.5427   -0.4310 C   0  0  1  0  0  0  0  0  0  0  0  0
   -0.7851    2.7732    0.3390 C   0  0  0  0  0  0  0  0  0  0  0  0
    0.0791    3.1364    1.1746 O   0  0  0  0  0  0  0  0  0  0  0  0
   -1.4822    4.0031    0.3043 N   0  0  0  0  0  0  0  0  0  0  0  0
   -0.8014    4.8964    1.2227 C   0  0  0  0  0  0  0  0  0  0  0  0
   -2.6543    4.5238   -0.4105 C   0  0  0  0  0  0  0  0  0  0  0  0
   -0.0328    0.5374   -0.3895 C   0  0  1  0  0  0  0  0  0  0  0  0
    1.3138    1.0678   -0.8553 C   0  0  0  0  0  0  0  0  0  0  0  0
    2.4147    0.9167    0.1334 C   0  0  0  0  0  0  0  0  0  0  0  0
    2.5794   -0.4662    0.6994 C   0  0  1  0  0  0  0  0  0  0  0  0
    1.2984   -1.2262    0.5372 C   0  0  0  0  0  0  0  0  0  0  0  0
    0.1784   -0.2210    0.8678 C   0  0  0  0  0  0  0  0  0  0  0  0
    3.7550   -1.1873    0.1570 C   0  0  0  0  0  0  0  0  0  0  0  0
    3.8645   -1.5039   -1.1864 C   0  0  0  0  0  0  0  0  0  0  0  0
    4.9387   -2.1748   -1.7444 C   0  0  0  0  0  0  0  0  0  0  0  0
    5.9671   -2.5531   -0.9110 C   0  0  0  0  0  0  0  0  0  0  0  0
    5.8724   -2.2444    0.4317 C   0  0  0  0  0  0  0  0  0  0  0  0
    6.7276   -2.4986    1.4375 N   0  0  0  0  0  0  0  0  0  0  0  0
    6.1680   -1.9898    2.5538 C   0  0  0  0  0  0  0  0  0  0  0  0
    4.9963   -1.4391    2.2245 N   0  0  0  0  0  0  0  0  0  0  0  0
    4.7996   -1.5874    0.9218 N   0  0  0  0  0  0  0  0  0  0  0  0
   -3.1016    2.0615   -0.1683 H   0  0  0  0  0  0  0  0  0  0  0  0
   -1.8141    1.1248    1.9990 H   0  0  0  0  0  0  0  0  0  0  0  0
   -2.9243   -0.0996    1.6441 H   0  0  0  0  0  0  0  0  0  0  0  0
   -5.2454   -1.9596   -2.2000 H   0  0  0  0  0  0  0  0  0  0  0  0
   -3.8661   -1.1177   -3.0470 H   0  0  0  0  0  0  0  0  0  0  0  0
   -2.3724   -2.8285   -2.2291 H   0  0  0  0  0  0  0  0  0  0  0  0
   -3.8643   -3.7676   -2.7984 H   0  0  0  0  0  0  0  0  0  0  0  0
   -2.7961   -3.6542   -0.1321 H   0  0  0  0  0  0  0  0  0  0  0  0
   -4.1137   -2.0764    1.0028 H   0  0  0  0  0  0  0  0  0  0  0  0
   -5.4804   -2.2362   -0.2366 H   0  0  0  0  0  0  0  0  0  0  0  0
   -1.2488    1.9113   -1.4944 H   0  0  0  0  0  0  0  0  0  0  0  0
   -1.3407    5.8702    1.3060 H   0  0  0  0  0  0  0  0  0  0  0  0
   -0.8293    4.4455    2.2488 H   0  0  0  0  0  0  0  0  0  0  0  0
    0.2431    5.0301    0.8918 H   0  0  0  0  0  0  0  0  0  0  0  0
   -3.5737    4.3888    0.1564 H   0  0  0  0  0  0  0  0  0  0  0  0
   -2.7474    4.0743   -1.4137 H   0  0  0  0  0  0  0  0  0  0  0  0
   -2.4744    5.6095   -0.5744 H   0  0  0  0  0  0  0  0  0  0  0  0
   -0.2940   -0.2491   -1.1640 H   0  0  0  0  0  0  0  0  0  0  0  0
    1.2201    2.1818   -1.0267 H   0  0  0  0  0  0  0  0  0  0  0  0
    1.6368    0.6749   -1.8288 H   0  0  0  0  0  0  0  0  0  0  0  0
    3.3657    1.1225   -0.4406 H   0  0  0  0  0  0  0  0  0  0  0  0
    2.3957    1.6900    0.9150 H   0  0  0  0  0  0  0  0  0  0  0  0
    2.7638   -0.3557    1.7890 H   0  0  0  0  0  0  0  0  0  0  0  0
    1.2190   -1.5429   -0.5235 H   0  0  0  0  0  0  0  0  0  0  0  0
    1.2169   -2.1185    1.1833 H   0  0  0  0  0  0  0  0  0  0  0  0
   -0.6932   -0.8253    1.1904 H   0  0  0  0  0  0  0  0  0  0  0  0
    0.5270    0.4389    1.6754 H   0  0  0  0  0  0  0  0  0  0  0  0
    3.0923   -1.2339   -1.8850 H   0  0  0  0  0  0  0  0  0  0  0  0
    4.9805   -2.4008   -2.8021 H   0  0  0  0  0  0  0  0  0  0  0  0
    6.8074   -3.0742   -1.3285 H   0  0  0  0  0  0  0  0  0  0  0  0
    6.5024   -1.9647    3.5920 H   0  0  0  0  0  0  0  0  0  0  0  0
  1  2  1  0
  1  3  1  0
  3  4  2  0
  3  5  1  0
  5  6  1  0
  6  7  1  0
  7  8  1  0
  8  9  1  0
  8 10  1  0
  1 11  1  0
 11 12  1  0
 12 13  2  0
 12 14  1  0
 14 15  1  0
 14 16  1  0
 11 17  1  0
 17 18  1  0
 18 19  1  0
 19 20  1  0
 20 21  1  0
 21 22  1  0
 20 23  1  0
 23 24  2  0
 24 25  1  0
 25 26  2  0
 26 27  1  0
 27 28  2  0
 28 29  1  0
 29 30  2  0
 30 31  1  0
 10  5  1  0
 22 17  1  0
 31 23  1  0
 31 27  1  0
  1 32  1  1
  2 33  1  0
  2 34  1  0
  6 35  1  0
  6 36  1  0
  7 37  1  0
  7 38  1  0
  8 39  1  1
 10 40  1  0
 10 41  1  0
 11 42  1  6
 15 43  1  0
 15 44  1  0
 15 45  1  0
 16 46  1  0
 16 47  1  0
 16 48  1  0
 17 49  1  6
 18 50  1  0
 18 51  1  0
 19 52  1  0
 19 53  1  0
 20 54  1  1
 21 55  1  0
 21 56  1  0
 22 57  1  0
 22 58  1  0
 24 59  1  0
 25 60  1  0
 26 61  1  0
 29 62  1  0
M  END
$$$$
