
     RDKit          3D

 46 48  0  0  0  0  0  0  0  0999 V2000
   -7.6997    1.8100   -0.2296 C   0  0  0  0  0  0  0  0  0  0  0  0
   -6.8763    0.5673   -0.0776 C   0  0  0  0  0  0  0  0  0  0  0  0
   -7.3449   -0.6982   -0.2950 C   0  0  0  0  0  0  0  0  0  0  0  0
   -6.5558   -1.7948   -0.1554 C   0  0  0  0  0  0  0  0  0  0  0  0
   -5.2469   -1.6076    0.2232 C   0  0  0  0  0  0  0  0  0  0  0  0
   -4.6349   -0.3692    0.4810 C   0  0  0  0  0  0  0  0  0  0  0  0
   -5.5638    0.6781    0.2938 C   0  0  0  0  0  0  0  0  0  0  0  0
   -3.3037    0.0262    0.8351 C   0  0  0  0  0  0  0  0  0  0  0  0
   -3.2191    1.1503    1.4408 O   0  0  0  0  0  0  0  0  0  0  0  0
   -2.0133   -0.6276    0.6281 C   0  0  0  0  0  0  0  0  0  0  0  0
   -1.5115   -1.8712    0.4298 C   0  0  0  0  0  0  0  0  0  0  0  0
   -0.2401   -2.2873    0.2225 C   0  0  0  0  0  0  0  0  0  0  0  0
    0.7149   -1.3606    0.2037 N   0  0  0  0  0  0  0  0  0  0  0  0
    0.4152   -0.0538    0.3833 C   0  0  0  0  0  0  0  0  0  0  0  0
    1.3966    0.9539    0.3671 N   0  0  0  0  0  0  0  0  0  0  0  0
    2.3754    1.9463    0.2919 C   0  0  0  0  0  0  0  0  0  0  0  0
    3.7098    1.3826   -0.0994 C   0  0  0  0  0  0  0  0  0  0  0  0
    4.3249    1.5566   -1.3068 C   0  0  0  0  0  0  0  0  0  0  0  0
    5.5298    0.9365   -1.4934 C   0  0  0  0  0  0  0  0  0  0  0  0
    6.1405    0.1492   -0.5179 C   0  0  0  0  0  0  0  0  0  0  0  0
    5.4968   -0.0225    0.7129 C   0  0  0  0  0  0  0  0  0  0  0  0
    4.2834    0.5958    0.9164 C   0  0  0  0  0  0  0  0  0  0  0  0
    7.4078   -0.5456   -0.6294 C   0  0  0  0  0  0  0  0  0  0  0  0
    7.5046   -1.9037   -0.2823 N   0  0  0  0  0  0  0  0  0  0  0  0
    8.4536    0.0979   -1.0547 N   0  0  0  0  0  0  0  0  0  0  0  0
   -0.9353    0.2768    0.5877 C   0  0  0  0  0  0  0  0  0  0  0  0
   -8.2657    2.0779    0.6851 H   0  0  0  0  0  0  0  0  0  0  0  0
   -7.0337    2.6929   -0.4574 H   0  0  0  0  0  0  0  0  0  0  0  0
   -8.3376    1.6917   -1.1240 H   0  0  0  0  0  0  0  0  0  0  0  0
   -8.3836   -0.8645   -0.6085 H   0  0  0  0  0  0  0  0  0  0  0  0
   -6.9107   -2.8077   -0.3137 H   0  0  0  0  0  0  0  0  0  0  0  0
   -4.6030   -2.4369    0.3700 H   0  0  0  0  0  0  0  0  0  0  0  0
   -5.2400    1.7059    0.4506 H   0  0  0  0  0  0  0  0  0  0  0  0
   -2.2922   -2.6148    0.4377 H   0  0  0  0  0  0  0  0  0  0  0  0
   -0.0575   -3.3334    0.0825 H   0  0  0  0  0  0  0  0  0  0  0  0
    1.3770    0.9425    1.4546 H   0  0  0  0  0  0  0  0  0  0  0  0
    2.0547    2.5680   -0.6865 H   0  0  0  0  0  0  0  0  0  0  0  0
    2.4264    2.7621    1.0271 H   0  0  0  0  0  0  0  0  0  0  0  0
    3.8695    2.1531   -2.0853 H   0  0  0  0  0  0  0  0  0  0  0  0
    6.0924    1.0244   -2.4280 H   0  0  0  0  0  0  0  0  0  0  0  0
    5.8712   -0.6164    1.5543 H   0  0  0  0  0  0  0  0  0  0  0  0
    3.7709    0.4831    1.8422 H   0  0  0  0  0  0  0  0  0  0  0  0
    7.9743   -2.7589    0.0743 H   0  0  0  0  0  0  0  0  0  0  0  0
    6.7557   -2.6350   -0.3908 H   0  0  0  0  0  0  0  0  0  0  0  0
    9.3740   -0.3658   -1.1419 H   0  0  0  0  0  0  0  0  0  0  0  0
   -1.0503    1.3463    0.7087 H   0  0  0  0  0  0  0  0  0  0  0  0
  1  2  1  0
  2  3  2  0
  3  4  1  0
  4  5  2  0
  5  6  1  0
  6  7  2  0
  6  8  1  0
  8  9  2  0
  8 10  1  0
 10 11  2  0
 11 12  1  0
 12 13  2  0
 13 14  1  0
 14 15  1  0
 15 16  1  0
 16 17  1  0
 17 18  2  0
 18 19  1  0
 19 20  2  0
 20 21  1  0
 21 22  2  0
 20 23  1  0
 23 24  1  0
 23 25  2  3
 14 26  2  0
  7  2  1  0
 26 10  1  0
 22 17  1  0
  1 27  1  0
  1 28  1  0
  1 29  1  0
  3 30  1  0
  4 31  1  0
  5 32  1  0
  7 33  1  0
 11 34  1  0
 12 35  1  0
 15 36  1  0
 16 37  1  0
 16 38  1  0
 18 39  1  0
 19 40  1  0
 21 41  1  0
 22 42  1  0
 24 43  1  0
 24 44  1  0
 25 45  1  0
 26 46  1  0
M  END
$$$$
