
     RDKit          3D

 54 58  0  0  0  0  0  0  0  0999 V2000
   -3.7203   -3.3129   -1.2203 C   0  0  0  0  0  0  0  0  0  0  0  0
   -2.6357   -2.7381   -0.5614 O   0  0  0  0  0  0  0  0  0  0  0  0
   -2.5764   -1.3966   -0.1859 C   0  0  0  0  0  0  0  0  0  0  0  0
   -3.6245   -0.5151   -0.4499 C   0  0  0  0  0  0  0  0  0  0  0  0
   -3.5897    0.8084   -0.0904 C   0  0  0  0  0  0  0  0  0  0  0  0
   -4.7185    1.7054   -0.3820 C   0  0  0  0  0  0  0  0  0  0  0  0
   -6.0097    1.2519   -0.1350 C   0  0  0  0  0  0  0  0  0  0  0  0
   -7.1142    2.0269   -0.3771 C   0  0  0  0  0  0  0  0  0  0  0  0
   -6.9685    3.3040   -0.8830 C   0  0  0  0  0  0  0  0  0  0  0  0
   -5.6860    3.7555   -1.1286 C   0  0  0  0  0  0  0  0  0  0  0  0
   -5.5497    5.0071   -1.6228 F   0  0  0  0  0  0  0  0  0  0  0  0
   -4.5678    2.9609   -0.8796 C   0  0  0  0  0  0  0  0  0  0  0  0
   -2.4538    1.2461    0.5566 C   0  0  0  0  0  0  0  0  0  0  0  0
   -2.3033    2.9146    1.0628 Cl  0  0  0  0  0  0  0  0  0  0  0  0
   -1.3916    0.4057    0.8377 C   0  0  0  0  0  0  0  0  0  0  0  0
   -1.4449   -0.9413    0.4636 C   0  0  0  0  0  0  0  0  0  0  0  0
   -0.3577   -1.8539    0.7629 C   0  0  0  0  0  0  0  0  0  0  0  0
   -0.5734   -2.9712    1.5128 N   0  0  0  0  0  0  0  0  0  0  0  0
    0.4173   -3.8263    1.7960 C   0  0  0  0  0  0  0  0  0  0  0  0
    1.6931   -3.6247    1.3499 C   0  0  0  0  0  0  0  0  0  0  0  0
    1.9679   -2.5105    0.5864 C   0  0  0  0  0  0  0  0  0  0  0  0
    3.2462   -2.2891    0.1189 C   0  0  0  0  0  0  0  0  0  0  0  0
    3.5437   -1.1693   -0.6631 C   0  0  0  0  0  0  0  0  0  0  0  0
    5.1580   -0.9241   -1.2675 S   0  0  0  0  0  6  0  0  0  0  0  0
    5.0655    0.0395   -2.4333 O   0  0  0  0  0  0  0  0  0  0  0  0
    5.7205   -2.1962   -1.8507 O   0  0  0  0  0  0  0  0  0  0  0  0
    6.2505   -0.2986   -0.1004 N   0  0  0  0  0  0  0  0  0  0  0  0
    6.1387    0.9358    0.5396 C   0  0  0  0  0  0  0  0  0  0  0  0
    5.1775    1.8631    0.2978 C   0  0  0  0  0  0  0  0  0  0  0  0
    5.1551    3.0902    0.9658 C   0  0  0  0  0  0  0  0  0  0  0  0
    6.1023    3.3724    1.8714 N   0  0  0  0  0  0  0  0  0  0  0  0
    7.0528    2.4443    2.1031 C   0  0  0  0  0  0  0  0  0  0  0  0
    7.0806    1.2679    1.4681 N   0  0  0  0  0  0  0  0  0  0  0  0
    2.5094   -0.3261   -0.9296 C   0  0  0  0  0  0  0  0  0  0  0  0
    1.2173   -0.5295   -0.4695 C   0  0  0  0  0  0  0  0  0  0  0  0
    0.9178   -1.6387    0.3073 C   0  0  0  0  0  0  0  0  0  0  0  0
   -3.5002   -4.4037   -1.3366 H   0  0  0  0  0  0  0  0  0  0  0  0
   -4.6562   -3.2234   -0.6357 H   0  0  0  0  0  0  0  0  0  0  0  0
   -3.8398   -2.8276   -2.2196 H   0  0  0  0  0  0  0  0  0  0  0  0
   -4.4839   -0.9445   -0.9647 H   0  0  0  0  0  0  0  0  0  0  0  0
   -6.1398    0.2564    0.2600 H   0  0  0  0  0  0  0  0  0  0  0  0
   -8.1247    1.6604   -0.1798 H   0  0  0  0  0  0  0  0  0  0  0  0
   -7.8415    3.9410   -1.0843 H   0  0  0  0  0  0  0  0  0  0  0  0
   -3.5832    3.3614   -1.0900 H   0  0  0  0  0  0  0  0  0  0  0  0
   -0.5123    0.7897    1.3543 H   0  0  0  0  0  0  0  0  0  0  0  0
    0.1962   -4.6924    2.3904 H   0  0  0  0  0  0  0  0  0  0  0  0
    2.5250   -4.2913    1.5563 H   0  0  0  0  0  0  0  0  0  0  0  0
    4.0262   -2.9736    0.3499 H   0  0  0  0  0  0  0  0  0  0  0  0
    7.0974   -0.9110    0.1597 H   0  0  0  0  0  0  0  0  0  0  0  0
    4.4178    1.6832   -0.4192 H   0  0  0  0  0  0  0  0  0  0  0  0
    4.3558    3.7830    0.7190 H   0  0  0  0  0  0  0  0  0  0  0  0
    7.8151    2.7079    2.8525 H   0  0  0  0  0  0  0  0  0  0  0  0
    2.6648    0.5580   -1.5351 H   0  0  0  0  0  0  0  0  0  0  0  0
    0.4546    0.1893   -0.7338 H   0  0  0  0  0  0  0  0  0  0  0  0
  1  2  1  0
  2  3  1  0
  3  4  2  0
  4  5  1  0
  5  6  1  0
  6  7  2  0
  7  8  1  0
  8  9  2  0
  9 10  1  0
 10 11  1  0
 10 12  2  0
  5 13  2  0
 13 14  1  0
 13 15  1  0
 15 16  2  0
 16 17  1  0
 17 18  2  0
 18 19  1  0
 19 20  2  0
 20 21  1  0
 21 22  2  0
 22 23  1  0
 23 24  1  0
 24 25  2  0
 24 26  2  0
 24 27  1  0
 27 28  1  0
 28 29  2  0
 29 30  1  0
 30 31  2  0
 31 32  1  0
 32 33  2  0
 23 34  2  0
 34 35  1  0
 35 36  2  0
 16  3  1  0
 36 17  1  0
 12  6  1  0
 36 21  1  0
 33 28  1  0
  1 37  1  0
  1 38  1  0
  1 39  1  0
  4 40  1  0
  7 41  1  0
  8 42  1  0
  9 43  1  0
 12 44  1  0
 15 45  1  0
 19 46  1  0
 20 47  1  0
 22 48  1  0
 27 49  1  0
 29 50  1  0
 30 51  1  0
 32 52  1  0
 34 53  1  0
 35 54  1  0
M  END
$$$$
