
     RDKit          3D

 52 54  0  0  0  0  0  0  0  0999 V2000
   -4.2506   -1.0601   -3.0334 O   0  0  0  0  0  0  0  0  0  0  0  0
   -4.4055   -1.0321   -1.7629 C   0  0  0  0  0  0  0  0  0  0  0  0
   -4.7338   -2.2863   -1.1832 N   0  0  0  0  0  0  0  0  0  0  0  0
   -4.8614   -3.4187   -1.9266 O   0  0  0  0  0  0  0  0  0  0  0  0
   -4.2450    0.2391   -1.0453 C   0  0  1  0  0  0  0  0  0  0  0  0
   -4.4716    1.2537   -2.0374 O   0  0  0  0  0  0  0  0  0  0  0  0
   -5.3339    0.3813   -0.0289 C   0  0  0  0  0  0  0  0  0  0  0  0
   -5.3848    1.6253    0.5529 O   0  0  0  0  0  0  0  0  0  0  0  0
   -4.3009    2.4247    0.3089 C   0  0  0  0  0  0  0  0  0  0  0  0
   -2.9622    1.7284    0.3873 C   0  0  0  0  0  0  0  0  0  0  0  0
   -2.8745    0.4845   -0.4701 C   0  0  1  0  0  0  0  0  0  0  0  0
   -2.2544   -0.9033    0.3467 S   0  0  0  0  0  6  0  0  0  0  0  0
   -2.2282   -2.0657   -0.6156 O   0  0  0  0  0  0  0  0  0  0  0  0
   -3.1269   -1.3476    1.5135 O   0  0  0  0  0  0  0  0  0  0  0  0
   -0.6386   -0.7436    0.9356 C   0  0  0  0  0  0  0  0  0  0  0  0
   -0.3668   -0.2822    2.1928 C   0  0  0  0  0  0  0  0  0  0  0  0
    0.9172   -0.1499    2.6799 C   0  0  0  0  0  0  0  0  0  0  0  0
    1.9829   -0.4916    1.8807 C   0  0  0  0  0  0  0  0  0  0  0  0
    3.2546   -0.3379    2.4282 O   0  0  0  0  0  0  0  0  0  0  0  0
    4.4487   -0.6197    1.7720 C   0  0  0  0  0  0  0  0  0  0  0  0
    4.6339    0.2155    0.5728 C   0  0  0  0  0  0  0  0  0  0  0  0
    3.8476    1.3124    0.2859 C   0  0  0  0  0  0  0  0  0  0  0  0
    4.0613    2.0790   -0.8372 C   0  0  0  0  0  0  0  0  0  0  0  0
    5.0747    1.7882   -1.7340 C   0  0  0  0  0  0  0  0  0  0  0  0
    5.8572    0.6945   -1.4458 C   0  0  0  0  0  0  0  0  0  0  0  0
    5.6502   -0.0915   -0.3093 C   0  0  0  0  0  0  0  0  0  0  0  0
    6.5596   -1.2469   -0.1111 C   0  0  0  0  0  0  0  0  0  0  0  0
    5.8653   -2.4523   -0.0909 F   0  0  0  0  0  0  0  0  0  0  0  0
    7.4691   -1.3367   -1.1404 F   0  0  0  0  0  0  0  0  0  0  0  0
    7.2913   -1.1110    1.0615 F   0  0  0  0  0  0  0  0  0  0  0  0
    1.7391   -0.9584    0.6122 C   0  0  0  0  0  0  0  0  0  0  0  0
    0.4208   -1.0853    0.1362 C   0  0  0  0  0  0  0  0  0  0  0  0
   -4.9014   -2.3823   -0.1784 H   0  0  0  0  0  0  0  0  0  0  0  0
   -5.8112   -3.6741   -2.0470 H   0  0  0  0  0  0  0  0  0  0  0  0
   -5.4337    1.4393   -2.0491 H   0  0  0  0  0  0  0  0  0  0  0  0
   -5.2724   -0.3633    0.7848 H   0  0  0  0  0  0  0  0  0  0  0  0
   -6.3028    0.1929   -0.5456 H   0  0  0  0  0  0  0  0  0  0  0  0
   -4.3886    3.0644   -0.6011 H   0  0  0  0  0  0  0  0  0  0  0  0
   -4.2741    3.1730    1.1631 H   0  0  0  0  0  0  0  0  0  0  0  0
   -2.2229    2.4534   -0.0138 H   0  0  0  0  0  0  0  0  0  0  0  0
   -2.7901    1.5052    1.4606 H   0  0  0  0  0  0  0  0  0  0  0  0
   -2.2129    0.6719   -1.3641 H   0  0  0  0  0  0  0  0  0  0  0  0
   -1.1773   -0.0131    2.8237 H   0  0  0  0  0  0  0  0  0  0  0  0
    1.0830    0.2266    3.7015 H   0  0  0  0  0  0  0  0  0  0  0  0
    5.2777   -0.4592    2.5205 H   0  0  0  0  0  0  0  0  0  0  0  0
    4.4910   -1.7222    1.5626 H   0  0  0  0  0  0  0  0  0  0  0  0
    3.0463    1.5906    0.9473 H   0  0  0  0  0  0  0  0  0  0  0  0
    3.4439    2.9538   -1.0778 H   0  0  0  0  0  0  0  0  0  0  0  0
    5.2504    2.3863   -2.6211 H   0  0  0  0  0  0  0  0  0  0  0  0
    6.6651    0.4468   -2.1431 H   0  0  0  0  0  0  0  0  0  0  0  0
    2.5699   -1.2328   -0.0146 H   0  0  0  0  0  0  0  0  0  0  0  0
    0.3258   -1.4628   -0.8801 H   0  0  0  0  0  0  0  0  0  0  0  0
  1  2  2  0
  2  3  1  0
  3  4  1  0
  2  5  1  0
  5  6  1  6
  5  7  1  0
  7  8  1  0
  8  9  1  0
  9 10  1  0
 10 11  1  0
 11 12  1  0
 12 13  2  0
 12 14  2  0
 12 15  1  0
 15 16  2  0
 16 17  1  0
 17 18  2  0
 18 19  1  0
 19 20  1  0
 20 21  1  0
 21 22  2  0
 22 23  1  0
 23 24  2  0
 24 25  1  0
 25 26  2  0
 26 27  1  0
 27 28  1  0
 27 29  1  0
 27 30  1  0
 18 31  1  0
 31 32  2  0
 11  5  1  0
 32 15  1  0
 26 21  1  0
  3 33  1  0
  4 34  1  0
  6 35  1  0
  7 36  1  0
  7 37  1  0
  9 38  1  0
  9 39  1  0
 10 40  1  0
 10 41  1  0
 11 42  1  6
 16 43  1  0
 17 44  1  0
 20 45  1  0
 20 46  1  0
 22 47  1  0
 23 48  1  0
 24 49  1  0
 25 50  1  0
 31 51  1  0
 32 52  1  0
M  END
$$$$
