
     RDKit          3D

 78 83  0  0  0  0  0  0  0  0999 V2000
   -5.6491    0.0267   -1.1471 C   0  0  1  0  0  0  0  0  0  0  0  0
   -4.6073   -1.0621   -1.2988 C   0  0  0  0  0  0  0  0  0  0  0  0
   -3.4602   -0.4649   -1.7789 O   0  0  0  0  0  0  0  0  0  0  0  0
   -2.1985   -1.5745   -2.0437 P   0  0  0  0  0  0  0  0  0  0  0  0
   -2.2511   -2.8302   -0.9179 O   0  0  0  0  0  0  0  0  0  0  0  0
   -2.2620   -2.1101   -3.4638 O   0  0  0  0  0  0  0  0  0  0  0  0
   -0.6421   -0.6813   -1.8462 C   0  0  0  0  0  0  0  0  0  0  0  0
    0.2190   -1.3165   -0.3901 P   0  0  0  0  0  0  0  0  0  0  0  0
   -0.0522   -2.9889   -0.3024 O   0  0  0  0  0  0  0  0  0  0  0  0
   -0.3436   -0.6389    0.8393 O   0  0  0  0  0  0  0  0  0  0  0  0
    1.8751   -0.9933   -0.5616 O   0  0  0  0  0  0  0  0  0  0  0  0
    2.6106   -2.4268   -1.0793 P   0  0  2  0  0  5  0  0  0  0  0  0
    1.9944   -2.7577   -2.6180 O   0  0  0  0  0  0  0  0  0  0  0  0
    2.1868   -3.6652    0.0517 S   0  0  0  0  0  0  0  0  0  0  0  0
    4.2857   -2.2268   -1.1660 O   0  0  0  0  0  0  0  0  0  0  0  0
    4.9098   -2.4049    0.0438 C   0  0  0  0  0  0  0  0  0  0  0  0
    6.4051   -2.2574   -0.0289 C   0  0  1  0  0  0  0  0  0  0  0  0
    6.7719   -1.0080   -0.4710 O   0  0  0  0  0  0  0  0  0  0  0  0
    8.0939   -0.9024   -0.0500 C   0  0  1  0  0  0  0  0  0  0  0  0
    8.7063    0.3600   -0.3003 N   0  0  0  0  0  0  0  0  0  0  0  0
    9.4631    0.6030   -1.3997 C   0  0  0  0  0  0  0  0  0  0  0  0
    9.9136    1.8555   -1.3889 N   0  0  0  0  0  0  0  0  0  0  0  0
    9.4621    2.4745   -0.2742 C   0  0  0  0  0  0  0  0  0  0  0  0
    9.6265    3.7516    0.2218 C   0  0  0  0  0  0  0  0  0  0  0  0
   10.4267    4.6370   -0.5640 N   0  0  0  0  0  0  0  0  0  0  0  0
    9.0233    4.0430    1.3889 N   0  0  0  0  0  0  0  0  0  0  0  0
    8.2899    3.0962    2.0270 C   0  0  0  0  0  0  0  0  0  0  0  0
    8.1362    1.8393    1.5257 N   0  0  0  0  0  0  0  0  0  0  0  0
    8.7124    1.5004    0.3745 C   0  0  0  0  0  0  0  0  0  0  0  0
    7.9707   -1.2558    1.4203 C   0  0  2  0  0  0  0  0  0  0  0  0
    9.1770   -1.6315    1.9870 O   0  0  0  0  0  0  0  0  0  0  0  0
    7.0285   -2.4626    1.3252 C   0  0  2  0  0  0  0  0  0  0  0  0
    7.8532   -3.5906    1.3665 O   0  0  0  0  0  0  0  0  0  0  0  0
   -6.8547   -0.4606   -0.6675 O   0  0  0  0  0  0  0  0  0  0  0  0
   -7.5670    0.7175   -0.4526 C   0  0  1  0  0  0  0  0  0  0  0  0
   -8.7590    0.5399    0.3331 N   0  0  0  0  0  0  0  0  0  0  0  0
   -9.0622   -0.3888    1.2338 C   0  0  0  0  0  0  0  0  0  0  0  0
  -10.3090   -0.1372    1.7088 N   0  0  0  0  0  0  0  0  0  0  0  0
  -10.7966    0.9689    1.0953 C   0  0  0  0  0  0  0  0  0  0  0  0
  -11.9755    1.6816    1.1679 C   0  0  0  0  0  0  0  0  0  0  0  0
  -13.0066    1.2649    2.0559 N   0  0  0  0  0  0  0  0  0  0  0  0
  -12.0951    2.7603    0.3767 N   0  0  0  0  0  0  0  0  0  0  0  0
  -11.1747    3.2006   -0.4707 C   0  0  0  0  0  0  0  0  0  0  0  0
  -10.0400    2.4870   -0.5184 N   0  0  0  0  0  0  0  0  0  0  0  0
   -9.8105    1.3896    0.2281 C   0  0  0  0  0  0  0  0  0  0  0  0
   -6.5925    1.6540    0.2648 C   0  0  2  0  0  0  0  0  0  0  0  0
   -6.6870    2.8810   -0.3887 O   0  0  0  0  0  0  0  0  0  0  0  0
   -5.2708    0.9831   -0.0191 C   0  0  2  0  0  0  0  0  0  0  0  0
   -4.3338    1.8525   -0.5198 O   0  0  0  0  0  0  0  0  0  0  0  0
   -5.8150    0.6239   -2.0466 H   0  0  0  0  0  0  0  0  0  0  0  0
   -4.9826   -1.9065   -1.8869 H   0  0  0  0  0  0  0  0  0  0  0  0
   -4.3748   -1.4246   -0.2729 H   0  0  0  0  0  0  0  0  0  0  0  0
   -2.4725   -2.5048   -0.0156 H   0  0  0  0  0  0  0  0  0  0  0  0
   -0.8026    0.4205   -1.7147 H   0  0  0  0  0  0  0  0  0  0  0  0
   -0.0051   -0.7675   -2.7681 H   0  0  0  0  0  0  0  0  0  0  0  0
    0.0011   -3.3634   -1.2194 H   0  0  0  0  0  0  0  0  0  0  0  0
    2.6822   -2.5204   -3.2737 H   0  0  0  0  0  0  0  0  0  0  0  0
    4.5586   -1.5531    0.6965 H   0  0  0  0  0  0  0  0  0  0  0  0
    4.5972   -3.3124    0.5914 H   0  0  0  0  0  0  0  0  0  0  0  0
    6.7954   -3.0511   -0.6992 H   0  0  0  0  0  0  0  0  0  0  0  0
    8.6617   -1.7254   -0.5325 H   0  0  0  0  0  0  0  0  0  0  0  0
    9.7517   -0.0040   -2.2397 H   0  0  0  0  0  0  0  0  0  0  0  0
   10.3423    5.1654   -1.4580 H   0  0  0  0  0  0  0  0  0  0  0  0
   11.3712    4.8399   -0.1690 H   0  0  0  0  0  0  0  0  0  0  0  0
    7.8561    3.4473    2.9509 H   0  0  0  0  0  0  0  0  0  0  0  0
    7.5092   -0.4379    2.0012 H   0  0  0  0  0  0  0  0  0  0  0  0
    9.5886   -2.3752    1.5089 H   0  0  0  0  0  0  0  0  0  0  0  0
    6.2942   -2.4536    2.1568 H   0  0  0  0  0  0  0  0  0  0  0  0
    7.3578   -4.4335    1.2227 H   0  0  0  0  0  0  0  0  0  0  0  0
   -7.8342    1.1192   -1.4664 H   0  0  0  0  0  0  0  0  0  0  0  0
   -8.4263   -1.2051    1.5373 H   0  0  0  0  0  0  0  0  0  0  0  0
  -13.0286    1.5125    3.0855 H   0  0  0  0  0  0  0  0  0  0  0  0
  -13.6294    0.7101    1.4002 H   0  0  0  0  0  0  0  0  0  0  0  0
  -11.2642    4.0666   -1.1090 H   0  0  0  0  0  0  0  0  0  0  0  0
   -6.8165    1.7349    1.3332 H   0  0  0  0  0  0  0  0  0  0  0  0
   -6.7740    2.6583   -1.3560 H   0  0  0  0  0  0  0  0  0  0  0  0
   -4.8882    0.3954    0.8406 H   0  0  0  0  0  0  0  0  0  0  0  0
   -3.5939    2.0137    0.1421 H   0  0  0  0  0  0  0  0  0  0  0  0
  1  2  1  0
  2  3  1  0
  3  4  1  0
  4  5  1  0
  4  6  2  0
  4  7  1  0
  7  8  1  0
  8  9  1  0
  8 10  2  0
  8 11  1  0
 12 11  1  1
 12 13  1  0
 12 14  2  0
 12 15  1  0
 15 16  1  0
 16 17  1  0
 17 18  1  0
 18 19  1  0
 19 20  1  0
 20 21  1  0
 21 22  2  0
 22 23  1  0
 23 24  2  0
 24 25  1  0
 24 26  1  0
 26 27  2  0
 27 28  1  0
 28 29  2  0
 19 30  1  0
 30 31  1  0
 30 32  1  0
 32 33  1  0
  1 34  1  0
 34 35  1  0
 35 36  1  0
 36 37  1  0
 37 38  2  0
 38 39  1  0
 39 40  2  0
 40 41  1  0
 40 42  1  0
 42 43  2  0
 43 44  1  0
 44 45  2  0
 35 46  1  0
 46 47  1  0
 46 48  1  0
 48 49  1  0
 48  1  1  0
 32 17  1  0
 45 36  1  0
 29 20  1  0
 45 39  1  0
 29 23  1  0
  1 50  1  6
  2 51  1  0
  2 52  1  0
  5 53  1  0
  7 54  1  0
  7 55  1  0
  9 56  1  0
 13 57  1  0
 16 58  1  0
 16 59  1  0
 17 60  1  6
 19 61  1  6
 21 62  1  0
 25 63  1  0
 25 64  1  0
 27 65  1  0
 30 66  1  1
 31 67  1  0
 32 68  1  1
 33 69  1  0
 35 70  1  6
 37 71  1  0
 41 72  1  0
 41 73  1  0
 43 74  1  0
 46 75  1  1
 47 76  1  0
 48 77  1  1
 49 78  1  0
M  END
$$$$
