
     RDKit          3D

 43 45  0  0  0  0  0  0  0  0999 V2000
    1.6293   -0.3355    1.2339 C   0  0  2  0  0  0  0  0  0  0  0  0
    0.3906   -1.0601    1.7264 C   0  0  0  0  0  0  0  0  0  0  0  0
   -0.5957   -0.1199    1.9082 O   0  0  0  0  0  0  0  0  0  0  0  0
   -0.9856    0.5493    0.7839 C   0  0  1  0  0  0  0  0  0  0  0  0
   -2.3765    0.0573    0.3940 C   0  0  0  0  0  0  0  0  0  0  0  0
   -2.3647   -1.3211    0.1356 O   0  0  0  0  0  0  0  0  0  0  0  0
   -3.9129   -1.8023   -0.2866 S   0  0  0  0  0  0  0  0  0  0  0  0
   -3.8772   -2.7978   -1.7144 N   0  0  0  0  0  0  0  0  0  0  0  0
   -4.7379   -0.5842   -0.6426 O   0  0  0  0  0  0  0  0  0  0  0  0
   -4.5830   -2.5369    0.8390 O   0  0  0  0  0  0  0  0  0  0  0  0
   -1.1208    1.8896    1.0974 O   0  0  0  0  0  0  0  0  0  0  0  0
   -0.5529    2.6444    0.0930 C   0  0  0  0  0  0  0  0  0  0  0  0
    0.6039    3.4412    0.7071 C   0  0  0  0  0  0  0  0  0  0  0  0
   -1.5594    3.6128   -0.4781 C   0  0  0  0  0  0  0  0  0  0  0  0
   -0.1148    1.8023   -0.8933 O   0  0  0  0  0  0  0  0  0  0  0  0
   -0.1110    0.5095   -0.3848 C   0  0  1  0  0  0  0  0  0  0  0  0
    1.3139    0.0919   -0.1848 C   0  0  2  0  0  0  0  0  0  0  0  0
    1.6126   -1.0745   -0.8900 O   0  0  0  0  0  0  0  0  0  0  0  0
    2.8221   -1.4479   -0.3093 C   0  0  0  0  0  0  0  0  0  0  0  0
    3.0028   -2.9412   -0.4593 C   0  0  0  0  0  0  0  0  0  0  0  0
    3.9204   -0.6621   -0.9598 C   0  0  0  0  0  0  0  0  0  0  0  0
    2.7053   -1.1757    1.0501 O   0  0  0  0  0  0  0  0  0  0  0  0
    1.8870    0.5320    1.8743 H   0  0  0  0  0  0  0  0  0  0  0  0
    0.1593   -1.8561    1.0136 H   0  0  0  0  0  0  0  0  0  0  0  0
    0.5929   -1.5171    2.7168 H   0  0  0  0  0  0  0  0  0  0  0  0
   -2.7189    0.5648   -0.5390 H   0  0  0  0  0  0  0  0  0  0  0  0
   -3.1316    0.2911    1.1662 H   0  0  0  0  0  0  0  0  0  0  0  0
   -4.8775   -3.0170   -1.9252 H   0  0  0  0  0  0  0  0  0  0  0  0
   -3.3988   -3.7022   -1.5422 H   0  0  0  0  0  0  0  0  0  0  0  0
    1.0110    4.0744   -0.0924 H   0  0  0  0  0  0  0  0  0  0  0  0
    1.3520    2.7526    1.1020 H   0  0  0  0  0  0  0  0  0  0  0  0
    0.1643    4.1167    1.4532 H   0  0  0  0  0  0  0  0  0  0  0  0
   -1.9430    3.2015   -1.4324 H   0  0  0  0  0  0  0  0  0  0  0  0
   -1.0397    4.5955   -0.6436 H   0  0  0  0  0  0  0  0  0  0  0  0
   -2.3756    3.7552    0.2664 H   0  0  0  0  0  0  0  0  0  0  0  0
   -0.5455   -0.1280   -1.1832 H   0  0  0  0  0  0  0  0  0  0  0  0
    2.0259    0.9030   -0.4398 H   0  0  0  0  0  0  0  0  0  0  0  0
    4.0344   -3.2528   -0.2277 H   0  0  0  0  0  0  0  0  0  0  0  0
    2.7800   -3.2617   -1.5118 H   0  0  0  0  0  0  0  0  0  0  0  0
    2.2730   -3.4573    0.1785 H   0  0  0  0  0  0  0  0  0  0  0  0
    4.7658   -1.2923   -1.2588 H   0  0  0  0  0  0  0  0  0  0  0  0
    4.3066    0.0520   -0.1850 H   0  0  0  0  0  0  0  0  0  0  0  0
    3.5701   -0.0936   -1.8616 H   0  0  0  0  0  0  0  0  0  0  0  0
  1  2  1  0
  2  3  1  0
  3  4  1  0
  4  5  1  6
  5  6  1  0
  6  7  1  0
  7  8  1  0
  7  9  2  0
  7 10  2  0
  4 11  1  0
 11 12  1  0
 12 13  1  0
 12 14  1  0
 12 15  1  0
 15 16  1  0
 16 17  1  0
 17 18  1  0
 18 19  1  0
 19 20  1  0
 19 21  1  0
 19 22  1  0
 17  1  1  0
 22  1  1  0
 16  4  1  0
  1 23  1  1
  2 24  1  0
  2 25  1  0
  5 26  1  0
  5 27  1  0
  8 28  1  0
  8 29  1  0
 13 30  1  0
 13 31  1  0
 13 32  1  0
 14 33  1  0
 14 34  1  0
 14 35  1  0
 16 36  1  6
 17 37  1  6
 20 38  1  0
 20 39  1  0
 20 40  1  0
 21 41  1  0
 21 42  1  0
 21 43  1  0
M  END
$$$$
