
     RDKit          3D

 40 42  0  0  0  0  0  0  0  0999 V2000
    4.0102   -3.7215    0.3506 O   0  0  0  0  0  0  0  0  0  0  0  0
    4.1173   -2.2173    0.4664 S   0  0  0  0  0  6  0  0  0  0  0  0
    4.8059   -1.9707    1.7884 O   0  0  0  0  0  0  0  0  0  0  0  0
    5.0171   -1.5652   -0.8417 N   0  0  0  0  0  0  0  0  0  0  0  0
    5.2814   -0.1299   -0.8099 C   0  0  0  0  0  0  0  0  0  0  0  0
    5.0752    0.8226   -0.1417 N   0  0  0  0  0  0  0  0  0  0  0  0
    5.4542    2.0605   -0.3704 C   0  0  0  0  0  0  0  0  0  0  0  0
    6.1553    2.2789   -1.4865 C   0  0  0  0  0  0  0  0  0  0  0  0
    6.2510    0.6130   -2.2060 S   0  0  0  0  0  0  0  0  0  0  0  0
    2.5212   -1.5154    0.5544 C   0  0  0  0  0  0  0  0  0  0  0  0
    2.1295   -0.8335    1.6781 C   0  0  0  0  0  0  0  0  0  0  0  0
    0.8746   -0.2567    1.8004 C   0  0  0  0  0  0  0  0  0  0  0  0
    0.3595    0.6161    3.2265 Cl  0  0  0  0  0  0  0  0  0  0  0  0
   -0.0081   -0.3762    0.7504 C   0  0  0  0  0  0  0  0  0  0  0  0
   -1.3110    0.1915    0.8102 N   0  0  0  0  0  0  0  0  0  0  0  0
   -2.2543    0.0792   -0.2785 C   0  0  0  0  0  0  0  0  0  0  0  0
   -3.5455    0.7678    0.0533 C   0  0  0  0  0  0  0  0  0  0  0  0
   -4.1207    0.2876    1.3576 C   0  0  0  0  0  0  0  0  0  0  0  0
   -5.2667   -0.4697    1.1915 O   0  0  0  0  0  0  0  0  0  0  0  0
   -6.2527    0.1694    0.4579 C   0  0  0  0  0  0  0  0  0  0  0  0
   -5.6689    1.1383   -0.5419 C   0  0  0  0  0  0  0  0  0  0  0  0
   -4.4567    0.6633   -0.9897 O   0  0  0  0  0  0  0  0  0  0  0  0
    0.3385   -1.0517   -0.3998 C   0  0  0  0  0  0  0  0  0  0  0  0
    1.6129   -1.6166   -0.4791 C   0  0  0  0  0  0  0  0  0  0  0  0
    2.0067   -2.2891   -1.5805 F   0  0  0  0  0  0  0  0  0  0  0  0
    5.3366   -2.1807   -1.5894 H   0  0  0  0  0  0  0  0  0  0  0  0
    5.2026    2.8892    0.3334 H   0  0  0  0  0  0  0  0  0  0  0  0
    6.6095    3.1871   -1.9531 H   0  0  0  0  0  0  0  0  0  0  0  0
    2.8051   -0.7314    2.5046 H   0  0  0  0  0  0  0  0  0  0  0  0
   -1.6256    0.7221    1.6758 H   0  0  0  0  0  0  0  0  0  0  0  0
   -1.8518    0.5068   -1.2180 H   0  0  0  0  0  0  0  0  0  0  0  0
   -2.4594   -0.9965   -0.4949 H   0  0  0  0  0  0  0  0  0  0  0  0
   -3.3353    1.8613    0.1764 H   0  0  0  0  0  0  0  0  0  0  0  0
   -3.3811   -0.3409    1.8804 H   0  0  0  0  0  0  0  0  0  0  0  0
   -4.3772    1.1266    2.0362 H   0  0  0  0  0  0  0  0  0  0  0  0
   -7.0137    0.6750    1.1010 H   0  0  0  0  0  0  0  0  0  0  0  0
   -6.7778   -0.6431   -0.1243 H   0  0  0  0  0  0  0  0  0  0  0  0
   -5.4990    2.1469   -0.0831 H   0  0  0  0  0  0  0  0  0  0  0  0
   -6.4079    1.2594   -1.3617 H   0  0  0  0  0  0  0  0  0  0  0  0
   -0.3507   -1.1563   -1.2440 H   0  0  0  0  0  0  0  0  0  0  0  0
  1  2  2  0
  2  3  2  0
  2  4  1  0
  4  5  1  0
  5  6  2  0
  6  7  1  0
  7  8  2  0
  8  9  1  0
  2 10  1  0
 10 11  2  0
 11 12  1  0
 12 13  1  0
 12 14  2  0
 14 15  1  0
 15 16  1  0
 16 17  1  0
 17 18  1  0
 18 19  1  0
 19 20  1  0
 20 21  1  0
 21 22  1  0
 14 23  1  0
 23 24  2  0
 24 25  1  0
  9  5  1  0
 24 10  1  0
 22 17  1  0
  4 26  1  0
  7 27  1  0
  8 28  1  0
 11 29  1  0
 15 30  1  0
 16 31  1  0
 16 32  1  0
 17 33  1  0
 18 34  1  0
 18 35  1  0
 20 36  1  0
 20 37  1  0
 21 38  1  0
 21 39  1  0
 23 40  1  0
M  END
$$$$
