
     RDKit          3D

 86 87  0  0  0  0  0  0  0  0999 V2000
   -1.5833   -3.6291    0.8209 C   0  0  0  0  0  0  0  0  0  0  0  0
   -2.3592   -3.0112   -0.3040 C   0  0  0  0  0  0  0  0  0  0  0  0
   -1.6115   -2.8251   -1.5632 C   0  0  0  0  0  0  0  0  0  0  0  0
   -1.0258   -3.9877   -2.2373 C   0  0  0  0  0  0  0  0  0  0  0  0
   -0.6249   -1.6322   -1.5578 C   0  0  2  0  0  0  0  0  0  0  0  0
    0.3195   -1.7787   -0.4969 N   0  0  0  0  0  0  0  0  0  0  0  0
    1.6357   -2.3186   -0.6109 C   0  0  0  0  0  0  0  0  0  0  0  0
    1.9242   -2.7032   -1.8008 O   0  0  0  0  0  0  0  0  0  0  0  0
    2.6516   -2.4895    0.3845 C   0  0  2  0  0  0  0  0  0  0  0  0
    3.0211   -3.8092    0.9269 C   0  0  0  0  0  0  0  0  0  0  0  0
    3.5511   -4.8603    0.0302 C   0  0  0  0  0  0  0  0  0  0  0  0
    2.6963   -5.3804   -1.0605 C   0  0  0  0  0  0  0  0  0  0  0  0
    4.8065   -4.2806   -0.6804 C   0  0  0  0  0  0  0  0  0  0  0  0
    2.3558   -1.5754    1.5270 N   0  0  0  0  0  0  0  0  0  0  0  0
    3.4104   -0.7021    1.9730 C   0  0  0  0  0  0  0  0  0  0  0  0
    4.5441   -0.7374    1.3890 O   0  0  0  0  0  0  0  0  0  0  0  0
    3.2781    0.2131    3.0403 N   0  0  0  0  0  0  0  0  0  0  0  0
    4.3233    1.0897    3.5150 C   0  0  0  0  0  0  0  0  0  0  0  0
    4.4883    2.2141    2.5655 C   0  0  0  0  0  0  0  0  0  0  0  0
    3.6902    3.3526    2.6198 C   0  0  0  0  0  0  0  0  0  0  0  0
    3.8356    4.4241    1.7698 C   0  0  0  0  0  0  0  0  0  0  0  0
    4.8154    4.3989    0.8022 C   0  0  0  0  0  0  0  0  0  0  0  0
    5.0102    5.7737   -0.2849 Cl  0  0  0  0  0  0  0  0  0  0  0  0
    5.6329    3.2958    0.7051 C   0  0  0  0  0  0  0  0  0  0  0  0
    6.8665    3.2954   -0.5520 Cl  0  0  0  0  0  0  0  0  0  0  0  0
    5.4752    2.2215    1.5700 C   0  0  0  0  0  0  0  0  0  0  0  0
   -1.3904   -0.3876   -1.6226 C   0  0  0  0  0  0  0  0  0  0  0  0
   -2.0000   -0.0920   -2.7204 O   0  0  0  0  0  0  0  0  0  0  0  0
   -1.5661    0.5848   -0.5838 N   0  0  0  0  0  0  0  0  0  0  0  0
   -2.3838    1.7738   -0.8952 C   0  0  1  0  0  0  0  0  0  0  0  0
   -3.8441    1.4165   -0.5340 C   0  0  0  0  0  0  0  0  0  0  0  0
   -4.7770    2.5526   -0.8484 C   0  0  0  0  0  0  0  0  0  0  0  0
   -4.7998    2.8814   -2.3242 C   0  0  0  0  0  0  0  0  0  0  0  0
   -5.6675    3.9508   -2.6843 N   0  0  0  0  0  0  0  0  0  0  0  0
   -6.8831    4.1305   -2.3945 C   0  0  0  0  0  0  0  0  0  0  0  0
   -7.5360    5.3171   -2.8991 N   0  0  0  0  0  0  0  0  0  0  0  0
   -7.6913    3.2677   -1.6120 N   0  0  0  0  0  0  0  0  0  0  0  0
   -2.0124    2.9705   -0.1693 C   0  0  0  0  0  0  0  0  0  0  0  0
   -2.3275    4.1442   -0.5552 O   0  0  0  0  0  0  0  0  0  0  0  0
   -1.2282    2.8133    1.1015 C   0  0  0  0  0  0  0  0  0  0  0  0
   -0.7690    2.0780    1.8375 N   0  0  0  0  0  0  0  0  0  0  0  0
   -0.1293    2.2613    2.9633 C   0  0  0  0  0  0  0  0  0  0  0  0
    0.0376    3.5378    3.3571 C   0  0  0  0  0  0  0  0  0  0  0  0
   -0.7845    4.4476    2.0016 S   0  0  0  0  0  0  0  0  0  0  0  0
   -1.6732   -2.9340    1.6945 H   0  0  0  0  0  0  0  0  0  0  0  0
   -0.5131   -3.7611    0.6493 H   0  0  0  0  0  0  0  0  0  0  0  0
   -2.0794   -4.5654    1.1837 H   0  0  0  0  0  0  0  0  0  0  0  0
   -3.2348   -3.6634   -0.4966 H   0  0  0  0  0  0  0  0  0  0  0  0
   -2.8178   -2.0364   -0.0076 H   0  0  0  0  0  0  0  0  0  0  0  0
   -2.4558   -2.4862   -2.3091 H   0  0  0  0  0  0  0  0  0  0  0  0
   -1.7590   -4.5584   -2.8751 H   0  0  0  0  0  0  0  0  0  0  0  0
   -0.2407   -3.6917   -2.9833 H   0  0  0  0  0  0  0  0  0  0  0  0
   -0.5633   -4.7336   -1.5623 H   0  0  0  0  0  0  0  0  0  0  0  0
   -0.1185   -1.7703   -2.5665 H   0  0  0  0  0  0  0  0  0  0  0  0
    0.0664   -1.4688    0.4793 H   0  0  0  0  0  0  0  0  0  0  0  0
    3.6172   -2.0714   -0.0622 H   0  0  0  0  0  0  0  0  0  0  0  0
    3.8752   -3.6011    1.6650 H   0  0  0  0  0  0  0  0  0  0  0  0
    2.2448   -4.2282    1.6305 H   0  0  0  0  0  0  0  0  0  0  0  0
    3.9307   -5.7546    0.6200 H   0  0  0  0  0  0  0  0  0  0  0  0
    2.6938   -6.5380   -1.0192 H   0  0  0  0  0  0  0  0  0  0  0  0
    1.6241   -5.1584   -0.9077 H   0  0  0  0  0  0  0  0  0  0  0  0
    2.9792   -5.1245   -2.0786 H   0  0  0  0  0  0  0  0  0  0  0  0
    5.3008   -3.5501   -0.0126 H   0  0  0  0  0  0  0  0  0  0  0  0
    5.4651   -5.1113   -0.9558 H   0  0  0  0  0  0  0  0  0  0  0  0
    4.4510   -3.8085   -1.6140 H   0  0  0  0  0  0  0  0  0  0  0  0
    1.4315   -1.5601    1.9889 H   0  0  0  0  0  0  0  0  0  0  0  0
    2.3253    0.2338    3.5196 H   0  0  0  0  0  0  0  0  0  0  0  0
    5.2637    0.4849    3.5834 H   0  0  0  0  0  0  0  0  0  0  0  0
    4.0781    1.5385    4.4968 H   0  0  0  0  0  0  0  0  0  0  0  0
    2.9187    3.3897    3.3710 H   0  0  0  0  0  0  0  0  0  0  0  0
    3.2074    5.2924    1.8327 H   0  0  0  0  0  0  0  0  0  0  0  0
    6.1487    1.3894    1.4662 H   0  0  0  0  0  0  0  0  0  0  0  0
   -1.1205    0.4059    0.3296 H   0  0  0  0  0  0  0  0  0  0  0  0
   -2.4051    1.9042   -1.9762 H   0  0  0  0  0  0  0  0  0  0  0  0
   -3.9376    1.1166    0.5189 H   0  0  0  0  0  0  0  0  0  0  0  0
   -4.1961    0.5442   -1.1558 H   0  0  0  0  0  0  0  0  0  0  0  0
   -4.4978    3.4920   -0.3258 H   0  0  0  0  0  0  0  0  0  0  0  0
   -5.8356    2.2767   -0.5819 H   0  0  0  0  0  0  0  0  0  0  0  0
   -3.7659    3.2059   -2.6543 H   0  0  0  0  0  0  0  0  0  0  0  0
   -5.0312    1.9547   -2.9308 H   0  0  0  0  0  0  0  0  0  0  0  0
   -8.1798    5.2291   -3.6910 H   0  0  0  0  0  0  0  0  0  0  0  0
   -7.3401    6.2129   -2.4548 H   0  0  0  0  0  0  0  0  0  0  0  0
   -7.9059    3.4440   -0.6118 H   0  0  0  0  0  0  0  0  0  0  0  0
   -8.0829    2.4164   -2.0855 H   0  0  0  0  0  0  0  0  0  0  0  0
    0.2528    1.4124    3.5636 H   0  0  0  0  0  0  0  0  0  0  0  0
    0.5043    4.0251    4.2182 H   0  0  0  0  0  0  0  0  0  0  0  0
  1  2  1  0
  2  3  1  0
  3  4  1  0
  3  5  1  0
  5  6  1  0
  6  7  1  0
  7  8  2  0
  7  9  1  0
  9 10  1  0
 10 11  1  0
 11 12  1  0
 11 13  1  0
  9 14  1  0
 14 15  1  0
 15 16  2  0
 15 17  1  0
 17 18  1  0
 18 19  1  0
 19 20  2  0
 20 21  1  0
 21 22  2  0
 22 23  1  0
 22 24  1  0
 24 25  1  0
 24 26  2  0
  5 27  1  0
 27 28  2  0
 27 29  1  0
 29 30  1  0
 30 31  1  0
 31 32  1  0
 32 33  1  0
 33 34  1  0
 34 35  2  3
 35 36  1  0
 35 37  1  0
 30 38  1  0
 38 39  2  0
 38 40  1  0
 40 41  2  0
 41 42  1  0
 42 43  2  0
 43 44  1  0
 26 19  1  0
 44 40  1  0
  1 45  1  0
  1 46  1  0
  1 47  1  0
  2 48  1  0
  2 49  1  0
  3 50  1  0
  4 51  1  0
  4 52  1  0
  4 53  1  0
  5 54  1  6
  6 55  1  0
  9 56  1  6
 10 57  1  0
 10 58  1  0
 11 59  1  0
 12 60  1  0
 12 61  1  0
 12 62  1  0
 13 63  1  0
 13 64  1  0
 13 65  1  0
 14 66  1  0
 17 67  1  0
 18 68  1  0
 18 69  1  0
 20 70  1  0
 21 71  1  0
 26 72  1  0
 29 73  1  0
 30 74  1  6
 31 75  1  0
 31 76  1  0
 32 77  1  0
 32 78  1  0
 33 79  1  0
 33 80  1  0
 36 81  1  0
 36 82  1  0
 37 83  1  0
 37 84  1  0
 42 85  1  0
 43 86  1  0
M  END
$$$$
