
     RDKit          3D

 80 84  0  0  0  0  0  0  0  0999 V2000
    2.9231    1.0357    2.4666 C   0  0  0  0  0  0  0  0  0  0  0  0
    2.2234    0.8218    1.2452 O   0  0  0  0  0  0  0  0  0  0  0  0
    2.6063   -0.2784    0.4871 C   0  0  0  0  0  0  0  0  0  0  0  0
    3.5822   -1.1200    0.8571 N   0  0  0  0  0  0  0  0  0  0  0  0
    3.9747   -2.1901    0.1464 C   0  0  0  0  0  0  0  0  0  0  0  0
    5.0002   -3.0887    0.5222 N   0  0  0  0  0  0  0  0  0  0  0  0
    5.7902   -2.9026    1.6937 C   0  0  0  0  0  0  0  0  0  0  0  0
    6.8901   -1.9297    1.4966 C   0  0  0  0  0  0  0  0  0  0  0  0
    6.5423   -0.5466    1.1049 C   0  0  0  0  0  0  0  0  0  0  0  0
    7.7476    0.3042    0.9893 N   0  0  0  0  0  0  0  0  0  0  0  0
    8.5082   -0.1408   -0.1365 C   0  0  0  0  0  0  0  0  0  0  0  0
    9.5960    0.8649   -0.4981 C   0  0  0  0  0  0  0  0  0  0  0  0
    9.0985    2.1424   -0.6170 O   0  0  0  0  0  0  0  0  0  0  0  0
    7.7275    2.2089   -0.5519 C   0  0  0  0  0  0  0  0  0  0  0  0
    7.2474    1.6431    0.7745 C   0  0  0  0  0  0  0  0  0  0  0  0
    3.3251   -2.4147   -1.0206 N   0  0  0  0  0  0  0  0  0  0  0  0
    2.3435   -1.6054   -1.4357 C   0  0  0  0  0  0  0  0  0  0  0  0
    1.6983   -1.8601   -2.6308 O   0  0  0  0  0  0  0  0  0  0  0  0
    2.0892   -2.9795   -3.3985 C   0  0  0  0  0  0  0  0  0  0  0  0
    1.9394   -0.5009   -0.7024 C   0  0  0  0  0  0  0  0  0  0  0  0
    0.9174    0.3902   -1.0975 N   0  0  0  0  0  0  0  0  0  0  0  0
   -0.4418    0.2017   -0.6762 C   0  0  0  0  0  0  0  0  0  0  0  0
   -0.6708   -0.7899    0.0541 O   0  0  0  0  0  0  0  0  0  0  0  0
   -1.4803    1.1448   -1.0979 C   0  0  0  0  0  0  0  0  0  0  0  0
   -1.3352    2.2174   -1.9467 C   0  0  0  0  0  0  0  0  0  0  0  0
   -2.5678    2.8171   -2.0526 C   0  0  0  0  0  0  0  0  0  0  0  0
   -3.4161    2.0733   -1.2540 C   0  0  0  0  0  0  0  0  0  0  0  0
   -4.7555    2.3368   -1.0743 O   0  0  0  0  0  0  0  0  0  0  0  0
   -5.6357    1.6321   -0.2915 C   0  0  0  0  0  0  0  0  0  0  0  0
   -6.7598    1.0394   -0.8214 C   0  0  0  0  0  0  0  0  0  0  0  0
   -7.6772    0.3213   -0.0803 C   0  0  0  0  0  0  0  0  0  0  0  0
   -7.4517    0.1930    1.2580 C   0  0  0  0  0  0  0  0  0  0  0  0
   -6.3216    0.7808    1.8278 C   0  0  0  0  0  0  0  0  0  0  0  0
   -5.4203    1.4952    1.0592 C   0  0  0  0  0  0  0  0  0  0  0  0
   -4.2462    2.0875    1.7515 C   0  0  0  0  0  0  0  0  0  0  0  0
   -8.4938   -0.5973    1.9519 C   0  0  0  0  0  0  0  0  0  0  0  0
   -9.5996   -0.6218    0.9262 C   0  0  0  0  0  0  0  0  0  0  0  0
   -8.9229   -0.3780   -0.4085 C   0  0  0  0  0  0  0  0  0  0  0  0
   -8.6934   -1.7059   -1.0529 C   0  0  0  0  0  0  0  0  0  0  0  0
   -9.8589    0.5057   -1.2154 C   0  0  0  0  0  0  0  0  0  0  0  0
   -2.7270    1.1064   -0.7195 O   0  0  0  0  0  0  0  0  0  0  0  0
    3.6913    1.8332    2.3502 H   0  0  0  0  0  0  0  0  0  0  0  0
    3.4823    0.1266    2.7781 H   0  0  0  0  0  0  0  0  0  0  0  0
    2.2600    1.3379    3.2885 H   0  0  0  0  0  0  0  0  0  0  0  0
    5.1529   -3.9221   -0.1239 H   0  0  0  0  0  0  0  0  0  0  0  0
    5.1308   -2.6422    2.5652 H   0  0  0  0  0  0  0  0  0  0  0  0
    6.1870   -3.9300    1.9686 H   0  0  0  0  0  0  0  0  0  0  0  0
    7.6227   -2.3750    0.7718 H   0  0  0  0  0  0  0  0  0  0  0  0
    7.4335   -1.8604    2.4901 H   0  0  0  0  0  0  0  0  0  0  0  0
    5.9005   -0.0067    1.8174 H   0  0  0  0  0  0  0  0  0  0  0  0
    6.0771   -0.4649    0.0963 H   0  0  0  0  0  0  0  0  0  0  0  0
    7.8621   -0.2403   -1.0235 H   0  0  0  0  0  0  0  0  0  0  0  0
    9.0124   -1.1147    0.0373 H   0  0  0  0  0  0  0  0  0  0  0  0
    9.9969    0.5332   -1.4865 H   0  0  0  0  0  0  0  0  0  0  0  0
   10.3803    0.8556    0.3001 H   0  0  0  0  0  0  0  0  0  0  0  0
    7.4041    3.2554   -0.6065 H   0  0  0  0  0  0  0  0  0  0  0  0
    7.2441    1.6784   -1.3960 H   0  0  0  0  0  0  0  0  0  0  0  0
    7.6051    2.3023    1.5739 H   0  0  0  0  0  0  0  0  0  0  0  0
    6.1404    1.7065    0.7414 H   0  0  0  0  0  0  0  0  0  0  0  0
    3.1750   -3.1338   -3.2837 H   0  0  0  0  0  0  0  0  0  0  0  0
    1.9027   -2.7179   -4.4774 H   0  0  0  0  0  0  0  0  0  0  0  0
    1.5794   -3.9150   -3.1213 H   0  0  0  0  0  0  0  0  0  0  0  0
    1.1184    1.2265   -1.7162 H   0  0  0  0  0  0  0  0  0  0  0  0
   -0.4531    2.5691   -2.4594 H   0  0  0  0  0  0  0  0  0  0  0  0
   -2.8548    3.6858   -2.6267 H   0  0  0  0  0  0  0  0  0  0  0  0
   -6.9386    1.1418   -1.8826 H   0  0  0  0  0  0  0  0  0  0  0  0
   -6.1292    0.6867    2.8874 H   0  0  0  0  0  0  0  0  0  0  0  0
   -3.7870    2.8911    1.1387 H   0  0  0  0  0  0  0  0  0  0  0  0
   -3.4487    1.3420    1.9439 H   0  0  0  0  0  0  0  0  0  0  0  0
   -4.5686    2.4622    2.7565 H   0  0  0  0  0  0  0  0  0  0  0  0
   -8.1223   -1.6206    2.1058 H   0  0  0  0  0  0  0  0  0  0  0  0
   -8.8278   -0.1014    2.8934 H   0  0  0  0  0  0  0  0  0  0  0  0
  -10.3127    0.1916    1.1911 H   0  0  0  0  0  0  0  0  0  0  0  0
  -10.1614   -1.5629    0.9570 H   0  0  0  0  0  0  0  0  0  0  0  0
   -8.5151   -2.4768   -0.2665 H   0  0  0  0  0  0  0  0  0  0  0  0
   -7.7787   -1.6664   -1.6757 H   0  0  0  0  0  0  0  0  0  0  0  0
   -9.5422   -1.9964   -1.7146 H   0  0  0  0  0  0  0  0  0  0  0  0
  -10.9251    0.3038   -0.9617 H   0  0  0  0  0  0  0  0  0  0  0  0
   -9.6756    0.3347   -2.2916 H   0  0  0  0  0  0  0  0  0  0  0  0
   -9.6130    1.5702   -0.9956 H   0  0  0  0  0  0  0  0  0  0  0  0
  1  2  1  0
  2  3  1  0
  3  4  2  0
  4  5  1  0
  5  6  1  0
  6  7  1  0
  7  8  1  0
  8  9  1  0
  9 10  1  0
 10 11  1  0
 11 12  1  0
 12 13  1  0
 13 14  1  0
 14 15  1  0
  5 16  2  0
 16 17  1  0
 17 18  1  0
 18 19  1  0
 17 20  2  0
 20 21  1  0
 21 22  1  0
 22 23  2  0
 22 24  1  0
 24 25  2  0
 25 26  1  0
 26 27  2  0
 27 28  1  0
 28 29  1  0
 29 30  2  0
 30 31  1  0
 31 32  2  0
 32 33  1  0
 33 34  2  0
 34 35  1  0
 32 36  1  0
 36 37  1  0
 37 38  1  0
 38 39  1  0
 38 40  1  0
 27 41  1  0
 20  3  1  0
 41 24  1  0
 15 10  1  0
 34 29  1  0
 38 31  1  0
  1 42  1  0
  1 43  1  0
  1 44  1  0
  6 45  1  0
  7 46  1  0
  7 47  1  0
  8 48  1  0
  8 49  1  0
  9 50  1  0
  9 51  1  0
 11 52  1  0
 11 53  1  0
 12 54  1  0
 12 55  1  0
 14 56  1  0
 14 57  1  0
 15 58  1  0
 15 59  1  0
 19 60  1  0
 19 61  1  0
 19 62  1  0
 21 63  1  0
 25 64  1  0
 26 65  1  0
 30 66  1  0
 33 67  1  0
 35 68  1  0
 35 69  1  0
 35 70  1  0
 36 71  1  0
 36 72  1  0
 37 73  1  0
 37 74  1  0
 39 75  1  0
 39 76  1  0
 39 77  1  0
 40 78  1  0
 40 79  1  0
 40 80  1  0
M  END
$$$$
