
     RDKit          3D

 76 78  0  0  0  0  0  0  0  0999 V2000
   -7.4683   -1.4749   -1.5701 C   0  0  0  0  0  0  0  0  0  0  0  0
   -5.9812   -1.7912   -1.4888 C   0  0  0  0  0  0  0  0  0  0  0  0
   -5.2035   -0.4494   -1.4411 C   0  0  0  0  0  0  0  0  0  0  0  0
   -3.7541   -0.6945   -1.3616 C   0  0  0  0  0  0  0  0  0  0  0  0
   -2.8247    0.4758   -1.3286 C   0  0  2  0  0  0  0  0  0  0  0  0
   -1.4729   -0.1324   -1.2432 N   0  0  0  0  0  0  0  0  0  0  0  0
   -1.0122   -0.8626   -0.1423 C   0  0  0  0  0  0  0  0  0  0  0  0
   -1.7275   -1.0419    0.8445 O   0  0  0  0  0  0  0  0  0  0  0  0
    0.2710   -1.4318   -0.0831 O   0  0  0  0  0  0  0  0  0  0  0  0
    0.7206   -2.1622    1.0282 C   0  0  2  0  0  0  0  0  0  0  0  0
    1.8543   -1.5980    1.7771 C   0  0  0  0  0  0  0  0  0  0  0  0
    3.0885   -1.3949    1.0632 N   0  0  0  0  0  0  0  0  0  0  0  0
    4.2229   -2.2569    0.9527 C   0  0  0  0  0  0  0  0  0  0  0  0
    5.3583   -1.4605    0.3545 C   0  0  0  0  0  0  0  0  0  0  0  0
    4.8496   -0.1317    0.1634 N   0  0  0  0  0  0  0  0  0  0  0  0
    5.6734    1.0024   -0.1256 C   0  0  0  0  0  0  0  0  0  0  0  0
    6.2040    1.7852    0.8777 C   0  0  0  0  0  0  0  0  0  0  0  0
    7.0017    2.8859    0.6251 C   0  0  0  0  0  0  0  0  0  0  0  0
    7.2965    3.2409   -0.6763 C   0  0  0  0  0  0  0  0  0  0  0  0
    8.1492    4.4165   -0.9918 C   0  0  0  0  0  0  0  0  0  0  0  0
    9.4338    4.2388   -0.5014 F   0  0  0  0  0  0  0  0  0  0  0  0
    7.6443    5.5361   -0.3325 F   0  0  0  0  0  0  0  0  0  0  0  0
    8.1253    4.6460   -2.3417 F   0  0  0  0  0  0  0  0  0  0  0  0
    6.7740    2.4687   -1.6921 C   0  0  0  0  0  0  0  0  0  0  0  0
    5.9681    1.3567   -1.4255 C   0  0  0  0  0  0  0  0  0  0  0  0
    3.4582   -0.2093    0.3159 C   0  0  0  0  0  0  0  0  0  0  0  0
    2.6312    0.6320   -0.1317 O   0  0  0  0  0  0  0  0  0  0  0  0
    0.7979   -3.6065    0.6325 C   0  0  0  0  0  0  0  0  0  0  0  0
    1.2998   -4.5053    1.7432 C   0  0  0  0  0  0  0  0  0  0  0  0
    1.4749   -3.8622   -0.6873 C   0  0  0  0  0  0  0  0  0  0  0  0
   -0.6608   -4.1047    0.4082 C   0  0  0  0  0  0  0  0  0  0  0  0
   -3.0205    1.4448   -0.2632 C   0  0  0  0  0  0  0  0  0  0  0  0
   -2.2200    1.5076    0.7357 O   0  0  0  0  0  0  0  0  0  0  0  0
   -4.1178    2.4036   -0.2532 C   0  0  0  0  0  0  0  0  0  0  0  0
   -4.9330    2.5006   -1.2118 O   0  0  0  0  0  0  0  0  0  0  0  0
   -4.3417    3.2886    0.8318 N   0  0  0  0  0  0  0  0  0  0  0  0
   -5.3607    4.2371    0.9328 C   0  0  0  0  0  0  0  0  0  0  0  0
   -5.5262    5.0774    2.0399 C   0  0  0  0  0  0  0  0  0  0  0  0
   -6.6194    5.8542    1.7650 C   0  0  0  0  0  0  0  0  0  0  0  0
   -7.0902    5.5073    0.5632 N   0  0  0  0  0  0  0  0  0  0  0  0
   -6.3298    4.5246    0.0517 N   0  0  0  0  0  0  0  0  0  0  0  0
   -8.0732   -2.1062   -0.9048 H   0  0  0  0  0  0  0  0  0  0  0  0
   -7.7711   -1.5072   -2.6373 H   0  0  0  0  0  0  0  0  0  0  0  0
   -7.6130   -0.4170   -1.2194 H   0  0  0  0  0  0  0  0  0  0  0  0
   -5.6479   -2.3998   -2.3347 H   0  0  0  0  0  0  0  0  0  0  0  0
   -5.8040   -2.3278   -0.5349 H   0  0  0  0  0  0  0  0  0  0  0  0
   -5.5953    0.1155   -2.2724 H   0  0  0  0  0  0  0  0  0  0  0  0
   -5.5408    0.0348   -0.4767 H   0  0  0  0  0  0  0  0  0  0  0  0
   -3.4937   -1.3512   -2.2522 H   0  0  0  0  0  0  0  0  0  0  0  0
   -3.5559   -1.3952   -0.4942 H   0  0  0  0  0  0  0  0  0  0  0  0
   -2.8700    0.9482   -2.3274 H   0  0  0  0  0  0  0  0  0  0  0  0
   -0.8491   -0.0018   -2.0470 H   0  0  0  0  0  0  0  0  0  0  0  0
   -0.1561   -2.1513    1.7873 H   0  0  0  0  0  0  0  0  0  0  0  0
    2.1435   -2.2357    2.6695 H   0  0  0  0  0  0  0  0  0  0  0  0
    1.5366   -0.6338    2.2857 H   0  0  0  0  0  0  0  0  0  0  0  0
    4.0060   -3.0703    0.2448 H   0  0  0  0  0  0  0  0  0  0  0  0
    4.5084   -2.7357    1.9114 H   0  0  0  0  0  0  0  0  0  0  0  0
    6.2284   -1.5241    1.0392 H   0  0  0  0  0  0  0  0  0  0  0  0
    5.6979   -1.8868   -0.6345 H   0  0  0  0  0  0  0  0  0  0  0  0
    5.9975    1.5417    1.9131 H   0  0  0  0  0  0  0  0  0  0  0  0
    7.4106    3.4910    1.4473 H   0  0  0  0  0  0  0  0  0  0  0  0
    7.0102    2.7531   -2.7179 H   0  0  0  0  0  0  0  0  0  0  0  0
    5.5654    0.7596   -2.2562 H   0  0  0  0  0  0  0  0  0  0  0  0
    0.6848   -4.2978    2.6360 H   0  0  0  0  0  0  0  0  0  0  0  0
    1.0669   -5.5449    1.4363 H   0  0  0  0  0  0  0  0  0  0  0  0
    2.3801   -4.4127    1.9210 H   0  0  0  0  0  0  0  0  0  0  0  0
    0.7834   -4.1671   -1.4990 H   0  0  0  0  0  0  0  0  0  0  0  0
    2.0072   -2.9672   -1.0737 H   0  0  0  0  0  0  0  0  0  0  0  0
    2.2745   -4.6482   -0.5683 H   0  0  0  0  0  0  0  0  0  0  0  0
   -1.1647   -3.4763   -0.3477 H   0  0  0  0  0  0  0  0  0  0  0  0
   -1.2065   -4.0894    1.3627 H   0  0  0  0  0  0  0  0  0  0  0  0
   -0.5399   -5.1177   -0.0245 H   0  0  0  0  0  0  0  0  0  0  0  0
   -3.6407    3.1879    1.6288 H   0  0  0  0  0  0  0  0  0  0  0  0
   -4.8987    5.0755    2.9036 H   0  0  0  0  0  0  0  0  0  0  0  0
   -7.0297    6.6276    2.4283 H   0  0  0  0  0  0  0  0  0  0  0  0
   -6.4840    4.0701   -0.8845 H   0  0  0  0  0  0  0  0  0  0  0  0
  1  2  1  0
  2  3  1  0
  3  4  1  0
  4  5  1  0
  5  6  1  0
  6  7  1  0
  7  8  2  0
  7  9  1  0
  9 10  1  0
 10 11  1  0
 11 12  1  0
 12 13  1  0
 13 14  1  0
 14 15  1  0
 15 16  1  0
 16 17  2  0
 17 18  1  0
 18 19  2  0
 19 20  1  0
 20 21  1  0
 20 22  1  0
 20 23  1  0
 19 24  1  0
 24 25  2  0
 15 26  1  0
 26 27  2  0
 10 28  1  0
 28 29  1  0
 28 30  1  0
 28 31  1  0
  5 32  1  0
 32 33  2  0
 32 34  1  0
 34 35  2  0
 34 36  1  0
 36 37  1  0
 37 38  2  0
 38 39  1  0
 39 40  2  0
 40 41  1  0
 26 12  1  0
 41 37  1  0
 25 16  1  0
  1 42  1  0
  1 43  1  0
  1 44  1  0
  2 45  1  0
  2 46  1  0
  3 47  1  0
  3 48  1  0
  4 49  1  0
  4 50  1  0
  5 51  1  6
  6 52  1  0
 10 53  1  1
 11 54  1  0
 11 55  1  0
 13 56  1  0
 13 57  1  0
 14 58  1  0
 14 59  1  0
 17 60  1  0
 18 61  1  0
 24 62  1  0
 25 63  1  0
 29 64  1  0
 29 65  1  0
 29 66  1  0
 30 67  1  0
 30 68  1  0
 30 69  1  0
 31 70  1  0
 31 71  1  0
 31 72  1  0
 36 73  1  0
 38 74  1  0
 39 75  1  0
 41 76  1  0
M  END
$$$$
