
     RDKit          3D

 29 30  0  0  0  0  0  0  0  0999 V2000
    5.6971    2.1987    0.4499 O   0  0  0  0  0  0  0  0  0  0  0  0
    4.4352    1.6005    0.2874 C   0  0  0  0  0  0  0  0  0  0  0  0
    3.3100    2.2125    0.7299 C   0  0  0  0  0  0  0  0  0  0  0  0
    2.0388    1.6351    0.5791 C   0  0  0  0  0  0  0  0  0  0  0  0
    1.9296    0.4121   -0.0357 C   0  0  0  0  0  0  0  0  0  0  0  0
    0.6249   -0.2074   -0.2042 C   0  0  0  0  0  0  0  0  0  0  0  0
   -0.5155    0.3062    0.1898 C   0  0  0  0  0  0  0  0  0  0  0  0
   -1.7716   -0.3829   -0.0199 C   0  0  0  0  0  0  0  0  0  0  0  0
   -1.9308   -1.6042   -0.6284 C   0  0  0  0  0  0  0  0  0  0  0  0
   -3.1849   -2.1945   -0.7878 C   0  0  0  0  0  0  0  0  0  0  0  0
   -3.2705   -3.4271   -1.4104 O   0  0  0  0  0  0  0  0  0  0  0  0
   -4.3305   -1.5832   -0.3431 C   0  0  0  0  0  0  0  0  0  0  0  0
   -4.1964   -0.3564    0.2710 C   0  0  0  0  0  0  0  0  0  0  0  0
   -5.3482    0.2924    0.7356 O   0  0  0  0  0  0  0  0  0  0  0  0
   -2.9549    0.2200    0.4247 C   0  0  0  0  0  0  0  0  0  0  0  0
    3.0892   -0.2121   -0.4884 C   0  0  0  0  0  0  0  0  0  0  0  0
    4.3208    0.3738   -0.3287 C   0  0  0  0  0  0  0  0  0  0  0  0
    6.1172    2.1453    1.3721 H   0  0  0  0  0  0  0  0  0  0  0  0
    3.3776    3.1815    1.2191 H   0  0  0  0  0  0  0  0  0  0  0  0
    1.1871    2.1743    0.9529 H   0  0  0  0  0  0  0  0  0  0  0  0
    0.6465   -1.1844   -0.7082 H   0  0  0  0  0  0  0  0  0  0  0  0
   -0.5329    1.2632    0.6830 H   0  0  0  0  0  0  0  0  0  0  0  0
   -1.0520   -2.1176   -0.9923 H   0  0  0  0  0  0  0  0  0  0  0  0
   -2.4663   -3.9084   -1.7920 H   0  0  0  0  0  0  0  0  0  0  0  0
   -5.3153   -2.0027   -0.4457 H   0  0  0  0  0  0  0  0  0  0  0  0
   -5.2800    1.2417    1.0228 H   0  0  0  0  0  0  0  0  0  0  0  0
   -2.8701    1.1960    0.9158 H   0  0  0  0  0  0  0  0  0  0  0  0
    3.0090   -1.1768   -0.9740 H   0  0  0  0  0  0  0  0  0  0  0  0
    5.2367   -0.0955   -0.6741 H   0  0  0  0  0  0  0  0  0  0  0  0
  1  2  1  0
  2  3  2  0
  3  4  1  0
  4  5  2  0
  5  6  1  0
  6  7  2  0
  7  8  1  0
  8  9  2  0
  9 10  1  0
 10 11  1  0
 10 12  2  0
 12 13  1  0
 13 14  1  0
 13 15  2  0
  5 16  1  0
 16 17  2  0
 17  2  1  0
 15  8  1  0
  1 18  1  0
  3 19  1  0
  4 20  1  0
  6 21  1  0
  7 22  1  0
  9 23  1  0
 11 24  1  0
 12 25  1  0
 14 26  1  0
 15 27  1  0
 16 28  1  0
 17 29  1  0
M  END
$$$$
