
     RDKit          3D

 46 48  0  0  0  0  0  0  0  0999 V2000
   -7.6636    0.0399   -0.5309 C   0  0  0  0  0  0  0  0  0  0  0  0
   -6.5746   -0.5272    0.0959 O   0  0  0  0  0  0  0  0  0  0  0  0
   -5.4009    0.1289   -0.2521 C   0  0  1  0  0  0  0  0  0  0  0  0
   -4.7743    0.6740    0.9917 C   0  0  0  0  0  0  0  0  0  0  0  0
   -3.2971    0.3805    1.0505 C   0  0  0  0  0  0  0  0  0  0  0  0
   -2.6563    0.8145   -0.2577 C   0  0  1  0  0  0  0  0  0  0  0  0
   -1.1852    0.6187   -0.1917 C   0  0  0  0  0  0  0  0  0  0  0  0
   -0.3853    1.5799   -0.3279 O   0  0  0  0  0  0  0  0  0  0  0  0
   -0.6089   -0.6689    0.0293 N   0  0  0  0  0  0  0  0  0  0  0  0
    0.7955   -0.8642    0.0937 C   0  0  0  0  0  0  0  0  0  0  0  0
    1.5794   -1.8346    0.2685 N   0  0  0  0  0  0  0  0  0  0  0  0
    2.8755   -1.7569    0.2863 C   0  0  0  0  0  0  0  0  0  0  0  0
    3.7524   -2.9907    0.5055 C   0  0  0  0  0  0  0  0  0  0  0  0
    3.4570   -0.5395    0.1036 C   0  0  0  0  0  0  0  0  0  0  0  0
    4.7563    0.0218    0.0434 C   0  0  0  0  0  0  0  0  0  0  0  0
    4.8978    1.3889   -0.1749 C   0  0  0  0  0  0  0  0  0  0  0  0
    6.1202    2.0167   -0.2475 C   0  0  0  0  0  0  0  0  0  0  0  0
    7.2558    1.2240   -0.0918 C   0  0  0  0  0  0  0  0  0  0  0  0
    8.5316    1.8507   -0.1629 N   0  0  0  0  0  0  0  0  0  0  0  0
    7.1394   -0.0781    0.1166 N   0  0  0  0  0  0  0  0  0  0  0  0
    5.9099   -0.6771    0.1844 C   0  0  0  0  0  0  0  0  0  0  0  0
    1.9452    0.4850   -0.0969 S   0  0  0  0  0  0  0  0  0  0  0  0
   -3.2788    0.1296   -1.4418 C   0  0  0  0  0  0  0  0  0  0  0  0
   -4.4246   -0.7734   -0.9679 C   0  0  0  0  0  0  0  0  0  0  0  0
   -7.5154   -0.0345   -1.6319 H   0  0  0  0  0  0  0  0  0  0  0  0
   -8.5777   -0.5284   -0.2637 H   0  0  0  0  0  0  0  0  0  0  0  0
   -7.7420    1.0926   -0.1925 H   0  0  0  0  0  0  0  0  0  0  0  0
   -5.6500    0.9510   -0.9547 H   0  0  0  0  0  0  0  0  0  0  0  0
   -4.9468    1.7614    1.0306 H   0  0  0  0  0  0  0  0  0  0  0  0
   -5.2332    0.2245    1.9083 H   0  0  0  0  0  0  0  0  0  0  0  0
   -2.8620    1.0132    1.8389 H   0  0  0  0  0  0  0  0  0  0  0  0
   -3.0767   -0.6672    1.2810 H   0  0  0  0  0  0  0  0  0  0  0  0
   -2.8413    1.9040   -0.3433 H   0  0  0  0  0  0  0  0  0  0  0  0
   -1.2150   -1.4821    0.1463 H   0  0  0  0  0  0  0  0  0  0  0  0
    3.1064   -3.8960    0.6267 H   0  0  0  0  0  0  0  0  0  0  0  0
    4.3814   -3.2055   -0.3569 H   0  0  0  0  0  0  0  0  0  0  0  0
    4.3363   -2.9138    1.4277 H   0  0  0  0  0  0  0  0  0  0  0  0
    4.0362    2.0492   -0.3026 H   0  0  0  0  0  0  0  0  0  0  0  0
    6.2377    3.0714   -0.4158 H   0  0  0  0  0  0  0  0  0  0  0  0
    9.2873    1.4112   -0.7225 H   0  0  0  0  0  0  0  0  0  0  0  0
    8.7364    2.7408    0.3295 H   0  0  0  0  0  0  0  0  0  0  0  0
    5.9630   -1.7341    0.3572 H   0  0  0  0  0  0  0  0  0  0  0  0
   -2.5442   -0.4533   -2.0445 H   0  0  0  0  0  0  0  0  0  0  0  0
   -3.7482    0.8490   -2.1575 H   0  0  0  0  0  0  0  0  0  0  0  0
   -4.8895   -1.2327   -1.8627 H   0  0  0  0  0  0  0  0  0  0  0  0
   -4.0089   -1.5634   -0.3095 H   0  0  0  0  0  0  0  0  0  0  0  0
  1  2  1  0
  2  3  1  0
  3  4  1  0
  4  5  1  0
  5  6  1  0
  6  7  1  0
  7  8  2  0
  7  9  1  0
  9 10  1  0
 10 11  2  0
 11 12  1  0
 12 13  1  0
 12 14  2  0
 14 15  1  0
 15 16  2  0
 16 17  1  0
 17 18  2  0
 18 19  1  0
 18 20  1  0
 20 21  2  0
 14 22  1  0
  6 23  1  0
 23 24  1  0
 24  3  1  0
 22 10  1  0
 21 15  1  0
  1 25  1  0
  1 26  1  0
  1 27  1  0
  3 28  1  6
  4 29  1  0
  4 30  1  0
  5 31  1  0
  5 32  1  0
  6 33  1  6
  9 34  1  0
 13 35  1  0
 13 36  1  0
 13 37  1  0
 16 38  1  0
 17 39  1  0
 19 40  1  0
 19 41  1  0
 21 42  1  0
 23 43  1  0
 23 44  1  0
 24 45  1  0
 24 46  1  0
M  END
$$$$
