
     RDKit          3D

 61 65  0  0  0  0  0  0  0  0999 V2000
   -0.2520   -1.4425   -3.5765 O   0  0  0  0  0  0  0  0  0  0  0  0
   -1.3509   -1.7821   -3.0799 C   0  0  0  0  0  0  0  0  0  0  0  0
   -2.0253   -2.9726   -3.3755 N   0  0  0  0  0  0  0  0  0  0  0  0
   -3.2692   -3.2974   -2.7769 C   0  0  0  0  0  0  0  0  0  0  0  0
   -3.8628   -4.3839   -3.0607 O   0  0  0  0  0  0  0  0  0  0  0  0
   -3.8919   -2.3894   -1.8228 C   0  0  0  0  0  0  0  0  0  0  0  0
   -5.1006   -2.7053   -1.2412 C   0  0  0  0  0  0  0  0  0  0  0  0
   -5.6851   -1.8511   -0.3443 C   0  0  0  0  0  0  0  0  0  0  0  0
   -5.0919   -0.6689   -0.0018 C   0  0  0  0  0  0  0  0  0  0  0  0
   -5.6690    0.2697    0.9423 C   0  0  0  0  0  0  0  0  0  0  0  0
   -4.8725    1.0707    1.7351 C   0  0  0  0  0  0  0  0  0  0  0  0
   -5.4650    1.9482    2.6183 C   0  0  0  0  0  0  0  0  0  0  0  0
   -6.8419    2.0520    2.7359 C   0  0  0  0  0  0  0  0  0  0  0  0
   -7.4349    2.9354    3.6251 O   0  0  0  0  0  0  0  0  0  0  0  0
   -7.6356    1.2567    1.9488 C   0  0  0  0  0  0  0  0  0  0  0  0
   -7.0346    0.3813    1.0675 C   0  0  0  0  0  0  0  0  0  0  0  0
   -3.8712   -0.3616   -0.5963 C   0  0  0  0  0  0  0  0  0  0  0  0
   -3.2409   -1.1965   -1.5108 C   0  0  0  0  0  0  0  0  0  0  0  0
   -1.9626   -0.8422   -2.1133 C   0  0  0  0  0  0  0  0  0  0  0  0
   -1.3601    0.2827   -1.8111 C   0  0  0  0  0  0  0  0  0  0  0  0
   -0.1016    0.5644   -2.4445 N   0  0  0  0  0  0  0  0  0  0  0  0
    1.1097    0.1964   -1.8198 C   0  0  0  0  0  0  0  0  0  0  0  0
    2.3387    0.4585   -2.4046 C   0  0  0  0  0  0  0  0  0  0  0  0
    3.5375    0.1140   -1.8252 C   0  0  0  0  0  0  0  0  0  0  0  0
    3.4907   -0.5197   -0.6074 C   0  0  0  0  0  0  0  0  0  0  0  0
    4.7042   -0.9481    0.1352 C   0  0  0  0  0  0  0  0  0  0  0  0
    5.2084    0.0404    1.0353 N   0  0  0  0  0  0  0  0  0  0  0  0
    6.3652   -0.4494    1.7014 C   0  0  0  0  0  0  0  0  0  0  0  0
    6.6430    0.5008    2.8743 C   0  0  0  0  0  0  0  0  0  0  0  0
    7.0598    1.7934    2.2433 C   0  0  0  0  0  0  0  0  0  0  0  0
    6.0660    2.3453    1.2686 C   0  0  0  0  0  0  0  0  0  0  0  0
    5.3036    1.3467    0.4901 C   0  0  0  0  0  0  0  0  0  0  0  0
    2.2757   -0.7875   -0.0123 C   0  0  0  0  0  0  0  0  0  0  0  0
    1.0711   -0.4451   -0.5877 C   0  0  0  0  0  0  0  0  0  0  0  0
   -1.5914   -3.6391   -4.0609 H   0  0  0  0  0  0  0  0  0  0  0  0
   -5.5474   -3.6515   -1.5333 H   0  0  0  0  0  0  0  0  0  0  0  0
   -6.6359   -2.1226    0.0991 H   0  0  0  0  0  0  0  0  0  0  0  0
   -3.8089    1.0033    1.6570 H   0  0  0  0  0  0  0  0  0  0  0  0
   -4.8489    2.5771    3.2408 H   0  0  0  0  0  0  0  0  0  0  0  0
   -8.3005    3.4127    3.4032 H   0  0  0  0  0  0  0  0  0  0  0  0
   -8.7187    1.3126    2.0155 H   0  0  0  0  0  0  0  0  0  0  0  0
   -7.6454   -0.2676    0.4250 H   0  0  0  0  0  0  0  0  0  0  0  0
   -3.4101    0.5620   -0.3272 H   0  0  0  0  0  0  0  0  0  0  0  0
   -1.7185    1.0199   -1.1309 H   0  0  0  0  0  0  0  0  0  0  0  0
   -0.0991    1.0429   -3.3693 H   0  0  0  0  0  0  0  0  0  0  0  0
    2.3738    0.9607   -3.3693 H   0  0  0  0  0  0  0  0  0  0  0  0
    4.4868    0.3179   -2.2809 H   0  0  0  0  0  0  0  0  0  0  0  0
    4.4817   -1.9113    0.5963 H   0  0  0  0  0  0  0  0  0  0  0  0
    5.4981   -1.1300   -0.6468 H   0  0  0  0  0  0  0  0  0  0  0  0
    7.2778   -0.4791    1.1004 H   0  0  0  0  0  0  0  0  0  0  0  0
    6.1331   -1.4594    2.1001 H   0  0  0  0  0  0  0  0  0  0  0  0
    5.7581    0.6306    3.5104 H   0  0  0  0  0  0  0  0  0  0  0  0
    7.4740    0.1309    3.4891 H   0  0  0  0  0  0  0  0  0  0  0  0
    7.2580    2.5204    3.0685 H   0  0  0  0  0  0  0  0  0  0  0  0
    8.0476    1.6180    1.7564 H   0  0  0  0  0  0  0  0  0  0  0  0
    6.5992    3.0831    0.6223 H   0  0  0  0  0  0  0  0  0  0  0  0
    5.3362    2.9614    1.8605 H   0  0  0  0  0  0  0  0  0  0  0  0
    5.8120    1.2512   -0.5160 H   0  0  0  0  0  0  0  0  0  0  0  0
    4.2780    1.6997    0.2494 H   0  0  0  0  0  0  0  0  0  0  0  0
    2.2314   -1.2858    0.9459 H   0  0  0  0  0  0  0  0  0  0  0  0
    0.1249   -0.6711   -0.0908 H   0  0  0  0  0  0  0  0  0  0  0  0
  1  2  2  0
  2  3  1  0
  3  4  1  0
  4  5  2  0
  4  6  1  0
  6  7  2  0
  7  8  1  0
  8  9  2  0
  9 10  1  0
 10 11  2  0
 11 12  1  0
 12 13  2  0
 13 14  1  0
 13 15  1  0
 15 16  2  0
  9 17  1  0
 17 18  2  0
 18 19  1  0
 19 20  2  3
 20 21  1  0
 21 22  1  0
 22 23  2  0
 23 24  1  0
 24 25  2  0
 25 26  1  0
 26 27  1  0
 27 28  1  0
 28 29  1  0
 29 30  1  0
 30 31  1  0
 31 32  1  0
 25 33  1  0
 33 34  2  0
 19  2  1  0
 34 22  1  0
 18  6  1  0
 32 27  1  0
 16 10  1  0
  3 35  1  0
  7 36  1  0
  8 37  1  0
 11 38  1  0
 12 39  1  0
 14 40  1  0
 15 41  1  0
 16 42  1  0
 17 43  1  0
 20 44  1  0
 21 45  1  0
 23 46  1  0
 24 47  1  0
 26 48  1  0
 26 49  1  0
 28 50  1  0
 28 51  1  0
 29 52  1  0
 29 53  1  0
 30 54  1  0
 30 55  1  0
 31 56  1  0
 31 57  1  0
 32 58  1  0
 32 59  1  0
 33 60  1  0
 34 61  1  0
M  END
$$$$
