
     RDKit          3D

 50 54  0  0  0  0  0  0  0  0999 V2000
    0.7966   -2.9348    0.0775 O   0  0  0  0  0  0  0  0  0  0  0  0
    0.1536   -2.0133   -0.5300 C   0  0  0  0  0  0  0  0  0  0  0  0
   -1.1628   -2.3810   -1.0657 C   0  0  0  0  0  0  0  0  0  0  0  0
   -1.8888   -1.4207   -1.8064 N   0  0  0  0  0  0  0  0  0  0  0  0
   -1.5634   -0.9805   -3.1361 C   0  0  0  0  0  0  0  0  0  0  0  0
   -2.7030   -0.2499   -3.8103 C   0  0  0  0  0  0  0  0  0  0  0  0
   -4.0403   -0.7728   -3.3365 C   0  0  0  0  0  0  0  0  0  0  0  0
   -4.1284   -0.4994   -1.8778 C   0  0  0  0  0  0  0  0  0  0  0  0
   -3.0458   -0.8352   -1.1648 C   0  0  0  0  0  0  0  0  0  0  0  0
   -3.3112   -0.4994    0.2296 C   0  0  0  0  0  0  0  0  0  0  0  0
   -2.5288   -0.6683    1.2055 O   0  0  0  0  0  0  0  0  0  0  0  0
   -4.6122    0.0558    0.3083 N   0  0  0  0  0  0  0  0  0  0  0  0
   -5.3236    0.5430    1.4770 C   0  0  0  0  0  0  0  0  0  0  0  0
   -4.9081    0.0791    2.8376 C   0  0  0  0  0  0  0  0  0  0  0  0
   -4.4232    1.4083    2.4057 C   0  0  0  0  0  0  0  0  0  0  0  0
   -5.1370    0.0611   -1.0116 C   0  0  0  0  0  0  0  0  0  0  0  0
   -6.2879    0.4831   -1.3720 O   0  0  0  0  0  0  0  0  0  0  0  0
    0.7436   -0.7480   -0.6312 N   0  0  0  0  0  0  0  0  0  0  0  0
    2.0072   -0.4035   -0.1240 C   0  0  0  0  0  0  0  0  0  0  0  0
    2.9010   -1.1902    0.5260 C   0  0  0  0  0  0  0  0  0  0  0  0
    4.1402   -0.7311    0.9942 C   0  0  0  0  0  0  0  0  0  0  0  0
    4.4847    0.5747    0.7949 C   0  0  0  0  0  0  0  0  0  0  0  0
    5.7328    1.1745    1.2318 C   0  0  0  0  0  0  0  0  0  0  0  0
    6.6953    0.4479    1.8950 C   0  0  0  0  0  0  0  0  0  0  0  0
    7.8452    1.0614    2.2847 N   0  0  0  0  0  0  0  0  0  0  0  0
    8.0830    2.3630    2.0462 C   0  0  0  0  0  0  0  0  0  0  0  0
    7.1542    3.1130    1.3930 C   0  0  0  0  0  0  0  0  0  0  0  0
    7.3513    4.4200    1.1338 F   0  0  0  0  0  0  0  0  0  0  0  0
    5.9867    2.5221    0.9882 C   0  0  0  0  0  0  0  0  0  0  0  0
    3.5744    1.3497    0.1400 N   0  0  0  0  0  0  0  0  0  0  0  0
    2.4162    0.9007   -0.2920 N   0  0  0  0  0  0  0  0  0  0  0  0
   -1.0058   -3.2921   -1.7225 H   0  0  0  0  0  0  0  0  0  0  0  0
   -1.7472   -2.8205   -0.1984 H   0  0  0  0  0  0  0  0  0  0  0  0
   -1.2879   -1.8438   -3.8039 H   0  0  0  0  0  0  0  0  0  0  0  0
   -0.7094   -0.2969   -3.1256 H   0  0  0  0  0  0  0  0  0  0  0  0
   -2.6760    0.8374   -3.5112 H   0  0  0  0  0  0  0  0  0  0  0  0
   -2.5824   -0.2604   -4.8983 H   0  0  0  0  0  0  0  0  0  0  0  0
   -4.1000   -1.8878   -3.4801 H   0  0  0  0  0  0  0  0  0  0  0  0
   -4.8645   -0.3312   -3.9064 H   0  0  0  0  0  0  0  0  0  0  0  0
   -6.3405    0.9382    1.3044 H   0  0  0  0  0  0  0  0  0  0  0  0
   -4.2049   -0.7863    2.8274 H   0  0  0  0  0  0  0  0  0  0  0  0
   -5.7456   -0.0215    3.5658 H   0  0  0  0  0  0  0  0  0  0  0  0
   -3.3645    1.5072    2.1392 H   0  0  0  0  0  0  0  0  0  0  0  0
   -4.8956    2.3273    2.8170 H   0  0  0  0  0  0  0  0  0  0  0  0
    0.2205    0.0551   -1.1064 H   0  0  0  0  0  0  0  0  0  0  0  0
    2.6888   -2.2222    0.7104 H   0  0  0  0  0  0  0  0  0  0  0  0
    4.8107   -1.3942    1.5021 H   0  0  0  0  0  0  0  0  0  0  0  0
    6.5683   -0.6070    2.1197 H   0  0  0  0  0  0  0  0  0  0  0  0
    9.0244    2.7998    2.3836 H   0  0  0  0  0  0  0  0  0  0  0  0
    5.2103    3.0696    0.4629 H   0  0  0  0  0  0  0  0  0  0  0  0
  1  2  2  0
  2  3  1  0
  3  4  1  0
  4  5  1  0
  5  6  1  0
  6  7  1  0
  7  8  1  0
  8  9  2  0
  9 10  1  0
 10 11  2  0
 10 12  1  0
 12 13  1  0
 13 14  1  0
 14 15  1  0
 12 16  1  0
 16 17  2  0
  2 18  1  0
 18 19  1  0
 19 20  2  0
 20 21  1  0
 21 22  2  0
 22 23  1  0
 23 24  2  0
 24 25  1  0
 25 26  2  0
 26 27  1  0
 27 28  1  0
 27 29  2  0
 22 30  1  0
 30 31  2  0
  9  4  1  0
 15 13  1  0
 31 19  1  0
 16  8  1  0
 29 23  1  0
  3 32  1  0
  3 33  1  0
  5 34  1  0
  5 35  1  0
  6 36  1  0
  6 37  1  0
  7 38  1  0
  7 39  1  0
 13 40  1  0
 14 41  1  0
 14 42  1  0
 15 43  1  0
 15 44  1  0
 18 45  1  0
 20 46  1  0
 21 47  1  0
 24 48  1  0
 26 49  1  0
 29 50  1  0
M  END
$$$$
