
     RDKit          3D

 40 41  0  0  0  0  0  0  0  0999 V2000
   -3.7206    1.4954   -0.8199 C   0  0  0  0  0  0  0  0  0  0  0  0
   -2.6880    1.0338    0.0848 N   0  0  0  0  0  0  0  0  0  0  0  0
   -3.1603    0.2500    1.1712 C   0  0  0  0  0  0  0  0  0  0  0  0
   -2.9288   -1.2246    1.0359 C   0  0  0  0  0  0  0  0  0  0  0  0
   -2.7273   -1.6603   -0.3907 C   0  0  0  0  0  0  0  0  0  0  0  0
   -1.7021   -0.8592   -1.1279 C   0  0  0  0  0  0  0  0  0  0  0  0
   -1.5373    0.5429   -0.6056 C   0  0  0  0  0  0  0  0  0  0  0  0
   -0.3027    0.6471    0.2449 C   0  0  0  0  0  0  0  0  0  0  0  0
   -0.0420    1.0583    1.4064 O   0  0  0  0  0  0  0  0  0  0  0  0
    0.8070    0.1463   -0.4904 N   0  0  0  0  0  0  0  0  0  0  0  0
    2.1531    0.0699   -0.0422 C   0  0  0  0  0  0  0  0  0  0  0  0
    2.9656    1.1766   -0.2955 C   0  0  0  0  0  0  0  0  0  0  0  0
    2.4055    2.3649   -1.0075 C   0  0  0  0  0  0  0  0  0  0  0  0
    4.2976    1.2136    0.0969 C   0  0  0  0  0  0  0  0  0  0  0  0
    4.8096    0.1204    0.7509 C   0  0  0  0  0  0  0  0  0  0  0  0
    4.0362   -0.9942    1.0198 C   0  0  0  0  0  0  0  0  0  0  0  0
    2.7122   -1.0182    0.6240 C   0  0  0  0  0  0  0  0  0  0  0  0
    1.8253   -2.1863    0.8823 C   0  0  0  0  0  0  0  0  0  0  0  0
   -4.7086    1.2381   -0.4057 H   0  0  0  0  0  0  0  0  0  0  0  0
   -3.6199    0.9223   -1.7733 H   0  0  0  0  0  0  0  0  0  0  0  0
   -3.6191    2.5713   -1.0956 H   0  0  0  0  0  0  0  0  0  0  0  0
   -4.2459    0.4746    1.3177 H   0  0  0  0  0  0  0  0  0  0  0  0
   -2.6552    0.6386    2.0956 H   0  0  0  0  0  0  0  0  0  0  0  0
   -2.0711   -1.5757    1.6541 H   0  0  0  0  0  0  0  0  0  0  0  0
   -3.8252   -1.7688    1.4113 H   0  0  0  0  0  0  0  0  0  0  0  0
   -3.6911   -1.6777   -0.9337 H   0  0  0  0  0  0  0  0  0  0  0  0
   -2.3476   -2.7217   -0.3308 H   0  0  0  0  0  0  0  0  0  0  0  0
   -2.0094   -0.8633   -2.2078 H   0  0  0  0  0  0  0  0  0  0  0  0
   -0.7159   -1.3571   -1.1189 H   0  0  0  0  0  0  0  0  0  0  0  0
   -1.4033    1.1935   -1.4983 H   0  0  0  0  0  0  0  0  0  0  0  0
    0.9779   -0.2666   -1.4507 H   0  0  0  0  0  0  0  0  0  0  0  0
    3.0973    2.6779   -1.8036 H   0  0  0  0  0  0  0  0  0  0  0  0
    2.2725    3.2273   -0.2960 H   0  0  0  0  0  0  0  0  0  0  0  0
    1.3930    2.1100   -1.4066 H   0  0  0  0  0  0  0  0  0  0  0  0
    4.8738    2.1022   -0.1298 H   0  0  0  0  0  0  0  0  0  0  0  0
    5.8606    0.1424    1.0638 H   0  0  0  0  0  0  0  0  0  0  0  0
    4.4370   -1.8558    1.5345 H   0  0  0  0  0  0  0  0  0  0  0  0
    1.1564   -1.9506    1.7541 H   0  0  0  0  0  0  0  0  0  0  0  0
    2.4418   -3.0961    1.0813 H   0  0  0  0  0  0  0  0  0  0  0  0
    1.1990   -2.3413    0.0008 H   0  0  0  0  0  0  0  0  0  0  0  0
  1  2  1  0
  2  3  1  0
  3  4  1  0
  4  5  1  0
  5  6  1  0
  6  7  1  0
  7  8  1  0
  8  9  2  0
  8 10  1  0
 10 11  1  0
 11 12  2  0
 12 13  1  0
 12 14  1  0
 14 15  2  0
 15 16  1  0
 16 17  2  0
 17 18  1  0
  7  2  1  0
 17 11  1  0
  1 19  1  0
  1 20  1  0
  1 21  1  0
  3 22  1  0
  3 23  1  0
  4 24  1  0
  4 25  1  0
  5 26  1  0
  5 27  1  0
  6 28  1  0
  6 29  1  0
  7 30  1  0
 10 31  1  0
 13 32  1  0
 13 33  1  0
 13 34  1  0
 14 35  1  0
 15 36  1  0
 16 37  1  0
 18 38  1  0
 18 39  1  0
 18 40  1  0
M  END
$$$$
