
     RDKit          3D

 51 55  0  0  0  0  0  0  0  0999 V2000
    3.0592   -0.2792   -0.8684 O   0  0  0  0  0  0  0  0  0  0  0  0
    3.5890    0.6529   -0.2260 C   0  0  0  0  0  0  0  0  0  0  0  0
    4.9388    0.5302    0.0957 N   0  0  0  0  0  0  0  0  0  0  0  0
    5.8589   -0.4975   -0.1662 C   0  0  0  0  0  0  0  0  0  0  0  0
    7.2310   -0.2098   -0.0971 C   0  0  0  0  0  0  0  0  0  0  0  0
    8.2290   -1.1078   -0.3005 C   0  0  0  0  0  0  0  0  0  0  0  0
    7.8835   -2.4166   -0.6002 C   0  0  0  0  0  0  0  0  0  0  0  0
    8.8652   -3.3437   -0.8103 F   0  0  0  0  0  0  0  0  0  0  0  0
    6.5622   -2.7754   -0.6845 C   0  0  0  0  0  0  0  0  0  0  0  0
    5.5698   -1.8035   -0.4642 C   0  0  0  0  0  0  0  0  0  0  0  0
    4.3049   -2.2272   -0.5325 F   0  0  0  0  0  0  0  0  0  0  0  0
    2.7405    1.7796    0.1216 C   0  0  0  0  0  0  0  0  0  0  0  0
    3.1846    2.8029    0.9316 C   0  0  0  0  0  0  0  0  0  0  0  0
    2.3866    3.8841    1.2979 C   0  0  0  0  0  0  0  0  0  0  0  0
    1.0962    3.9051    0.8133 C   0  0  0  0  0  0  0  0  0  0  0  0
    0.6625    2.9096    0.0246 N   0  0  0  0  0  0  0  0  0  0  0  0
    1.4553    1.8570   -0.3268 C   0  0  0  0  0  0  0  0  0  0  0  0
    0.9054    0.8849   -1.1778 N   0  0  0  0  0  0  0  0  0  0  0  0
   -0.3442    0.2805   -0.8312 C   0  0  0  0  0  0  0  0  0  0  0  0
   -0.9815   -0.5666   -1.7100 C   0  0  0  0  0  0  0  0  0  0  0  0
   -2.2019   -1.1425   -1.3801 C   0  0  0  0  0  0  0  0  0  0  0  0
   -2.7926   -0.8736   -0.1671 C   0  0  0  0  0  0  0  0  0  0  0  0
   -4.0343   -1.4844    0.1149 O   0  0  0  0  0  0  0  0  0  0  0  0
   -5.1629   -0.6737    0.3116 C   0  0  0  0  0  0  0  0  0  0  0  0
   -5.0909    0.6951    0.1980 C   0  0  0  0  0  0  0  0  0  0  0  0
   -6.2548    1.4259    0.4093 C   0  0  0  0  0  0  0  0  0  0  0  0
   -7.3988    0.8095    0.7113 N   0  0  0  0  0  0  0  0  0  0  0  0
   -7.5139   -0.5227    0.8316 C   0  0  0  0  0  0  0  0  0  0  0  0
   -8.5319   -1.3509    1.1190 N   0  0  0  0  0  0  0  0  0  0  0  0
   -8.0926   -2.6200    1.1098 C   0  0  0  0  0  0  0  0  0  0  0  0
   -6.7398   -2.6025    0.8037 C   0  0  0  0  0  0  0  0  0  0  0  0
   -6.3561   -1.2706    0.6235 C   0  0  0  0  0  0  0  0  0  0  0  0
   -2.1874   -0.0378    0.7331 C   0  0  0  0  0  0  0  0  0  0  0  0
   -2.7519    0.2184    1.9340 F   0  0  0  0  0  0  0  0  0  0  0  0
   -0.9595    0.5269    0.3723 C   0  0  0  0  0  0  0  0  0  0  0  0
    5.3423    1.3625    0.6410 H   0  0  0  0  0  0  0  0  0  0  0  0
    7.5052    0.8005    0.1315 H   0  0  0  0  0  0  0  0  0  0  0  0
    9.2849   -0.8672   -0.2437 H   0  0  0  0  0  0  0  0  0  0  0  0
    6.3259   -3.7973   -0.9177 H   0  0  0  0  0  0  0  0  0  0  0  0
    4.1919    2.7784    1.3082 H   0  0  0  0  0  0  0  0  0  0  0  0
    2.7180    4.6842    1.9265 H   0  0  0  0  0  0  0  0  0  0  0  0
    0.4489    4.7350    1.0832 H   0  0  0  0  0  0  0  0  0  0  0  0
    1.3602    0.5846   -2.0690 H   0  0  0  0  0  0  0  0  0  0  0  0
   -0.4974   -0.7718   -2.6763 H   0  0  0  0  0  0  0  0  0  0  0  0
   -2.6703   -1.8128   -2.1183 H   0  0  0  0  0  0  0  0  0  0  0  0
   -4.1698    1.2126   -0.0563 H   0  0  0  0  0  0  0  0  0  0  0  0
   -6.2122    2.5034    0.3228 H   0  0  0  0  0  0  0  0  0  0  0  0
   -9.4976   -1.0105    1.3122 H   0  0  0  0  0  0  0  0  0  0  0  0
   -8.7008   -3.4922    1.3093 H   0  0  0  0  0  0  0  0  0  0  0  0
   -6.0562   -3.4482    0.7086 H   0  0  0  0  0  0  0  0  0  0  0  0
   -0.5006    1.1819    1.1041 H   0  0  0  0  0  0  0  0  0  0  0  0
  1  2  2  0
  2  3  1  0
  3  4  1  0
  4  5  2  0
  5  6  1  0
  6  7  2  0
  7  8  1  0
  7  9  1  0
  9 10  2  0
 10 11  1  0
  2 12  1  0
 12 13  2  0
 13 14  1  0
 14 15  2  0
 15 16  1  0
 16 17  2  0
 17 18  1  0
 18 19  1  0
 19 20  2  0
 20 21  1  0
 21 22  2  0
 22 23  1  0
 23 24  1  0
 24 25  2  0
 25 26  1  0
 26 27  2  0
 27 28  1  0
 28 29  1  0
 29 30  1  0
 30 31  2  0
 31 32  1  0
 22 33  1  0
 33 34  1  0
 33 35  2  0
 10  4  1  0
 17 12  1  0
 35 19  1  0
 32 24  1  0
 32 28  2  0
  3 36  1  0
  5 37  1  0
  6 38  1  0
  9 39  1  0
 13 40  1  0
 14 41  1  0
 15 42  1  0
 18 43  1  0
 20 44  1  0
 21 45  1  0
 25 46  1  0
 26 47  1  0
 29 48  1  0
 30 49  1  0
 31 50  1  0
 35 51  1  0
M  END
$$$$
