
     RDKit          3D

 57 62  0  0  0  0  0  0  0  0999 V2000
   -6.0953   -1.5436    2.2895 C   0  0  0  0  0  0  0  0  0  0  0  0
   -5.0565   -1.1368    1.4492 O   0  0  0  0  0  0  0  0  0  0  0  0
   -4.7392   -1.8990    0.3307 C   0  0  0  0  0  0  0  0  0  0  0  0
   -5.4221   -3.0193    0.0539 N   0  0  0  0  0  0  0  0  0  0  0  0
   -5.1333   -3.7713   -1.0208 C   0  0  0  0  0  0  0  0  0  0  0  0
   -4.1105   -3.3675   -1.8450 C   0  0  0  0  0  0  0  0  0  0  0  0
   -3.4037   -2.2103   -1.5607 C   0  0  0  0  0  0  0  0  0  0  0  0
   -3.7045   -1.4439   -0.4577 C   0  0  0  0  0  0  0  0  0  0  0  0
   -2.9964   -0.2588   -0.1480 N   0  0  0  0  0  0  0  0  0  0  0  0
   -3.4806    0.9458    0.0910 N   0  0  0  0  0  0  0  0  0  0  0  0
   -2.5172    1.8325    0.3500 C   0  0  0  0  0  0  0  0  0  0  0  0
   -2.6471    3.2795    0.6656 C   0  0  0  0  0  0  0  0  0  0  0  0
   -1.3186    1.1341    0.2691 C   0  0  0  0  0  0  0  0  0  0  0  0
   -1.6363   -0.1600   -0.0400 C   0  0  0  0  0  0  0  0  0  0  0  0
   -0.4209   -0.9515   -0.1340 C   0  0  0  0  0  0  0  0  0  0  0  0
   -0.3480   -2.2013   -0.4078 O   0  0  0  0  0  0  0  0  0  0  0  0
    0.6525   -0.0670    0.1364 N   0  0  0  0  0  0  0  0  0  0  0  0
    2.0211   -0.5074    0.1595 C   0  0  0  0  0  0  0  0  0  0  0  0
    2.7638   -0.5172   -0.9913 C   0  0  0  0  0  0  0  0  0  0  0  0
    4.1025   -0.9390   -0.9893 C   0  0  0  0  0  0  0  0  0  0  0  0
    4.9120   -0.9509   -2.2361 C   0  0  0  0  0  0  0  0  0  0  0  0
    4.6586   -1.3452    0.1975 C   0  0  0  0  0  0  0  0  0  0  0  0
    5.9032   -1.8007    0.5249 N   0  0  0  0  0  0  0  0  0  0  0  0
    5.8817   -2.0455    1.8163 N   0  0  0  0  0  0  0  0  0  0  0  0
    4.6749   -1.7652    2.3276 N   0  0  0  0  0  0  0  0  0  0  0  0
    4.3204   -1.9231    3.7107 C   0  0  0  0  0  0  0  0  0  0  0  0
    3.8859   -1.3240    1.3378 C   0  0  0  0  0  0  0  0  0  0  0  0
    2.6039   -0.9116    1.2922 N   0  0  0  0  0  0  0  0  0  0  0  0
    0.1317    1.2353    0.3772 C   0  0  0  0  0  0  0  0  0  0  0  0
    0.7069    2.3134   -0.4596 C   0  0  0  0  0  0  0  0  0  0  0  0
    1.1138    3.5171    0.1219 C   0  0  0  0  0  0  0  0  0  0  0  0
    1.6455    4.5570   -0.5837 C   0  0  0  0  0  0  0  0  0  0  0  0
    1.8024    4.4455   -1.9431 C   0  0  0  0  0  0  0  0  0  0  0  0
    2.4773    5.7342   -2.9255 Cl  0  0  0  0  0  0  0  0  0  0  0  0
    1.4073    3.2664   -2.5365 C   0  0  0  0  0  0  0  0  0  0  0  0
    0.8711    2.2208   -1.8164 C   0  0  0  0  0  0  0  0  0  0  0  0
   -6.3891   -2.5891    2.0588 H   0  0  0  0  0  0  0  0  0  0  0  0
   -5.7858   -1.4957    3.3407 H   0  0  0  0  0  0  0  0  0  0  0  0
   -6.9882   -0.9001    2.0877 H   0  0  0  0  0  0  0  0  0  0  0  0
   -5.6846   -4.6840   -1.2525 H   0  0  0  0  0  0  0  0  0  0  0  0
   -3.8582   -3.9585   -2.7197 H   0  0  0  0  0  0  0  0  0  0  0  0
   -2.5950   -1.8873   -2.2087 H   0  0  0  0  0  0  0  0  0  0  0  0
   -2.2221    3.5600    1.6283 H   0  0  0  0  0  0  0  0  0  0  0  0
   -2.2454    3.8830   -0.1934 H   0  0  0  0  0  0  0  0  0  0  0  0
   -3.7358    3.5124    0.6984 H   0  0  0  0  0  0  0  0  0  0  0  0
    2.3854   -0.2155   -1.9500 H   0  0  0  0  0  0  0  0  0  0  0  0
    4.2201   -1.1461   -3.0938 H   0  0  0  0  0  0  0  0  0  0  0  0
    5.6703   -1.7342   -2.2426 H   0  0  0  0  0  0  0  0  0  0  0  0
    5.4368    0.0206   -2.3621 H   0  0  0  0  0  0  0  0  0  0  0  0
    4.5564   -0.9453    4.2186 H   0  0  0  0  0  0  0  0  0  0  0  0
    4.9590   -2.7325    4.1499 H   0  0  0  0  0  0  0  0  0  0  0  0
    3.2643   -2.2118    3.8346 H   0  0  0  0  0  0  0  0  0  0  0  0
    0.4414    1.4860    1.4442 H   0  0  0  0  0  0  0  0  0  0  0  0
    1.0011    3.6312    1.1922 H   0  0  0  0  0  0  0  0  0  0  0  0
    1.9584    5.4901   -0.1161 H   0  0  0  0  0  0  0  0  0  0  0  0
    1.5321    3.1821   -3.6058 H   0  0  0  0  0  0  0  0  0  0  0  0
    0.5729    1.3130   -2.3145 H   0  0  0  0  0  0  0  0  0  0  0  0
  1  2  1  0
  2  3  1  0
  3  4  2  0
  4  5  1  0
  5  6  2  0
  6  7  1  0
  7  8  2  0
  8  9  1  0
  9 10  1  0
 10 11  2  0
 11 12  1  0
 11 13  1  0
 13 14  2  0
 14 15  1  0
 15 16  2  0
 15 17  1  0
 17 18  1  0
 18 19  2  0
 19 20  1  0
 20 21  1  0
 20 22  2  0
 22 23  1  0
 23 24  2  0
 24 25  1  0
 25 26  1  0
 25 27  1  0
 27 28  2  0
 17 29  1  0
 29 30  1  0
 30 31  2  0
 31 32  1  0
 32 33  2  0
 33 34  1  0
 33 35  1  0
 35 36  2  0
  8  3  1  0
 14  9  1  0
 28 18  1  0
 36 30  1  0
 29 13  1  0
 27 22  1  0
  1 37  1  0
  1 38  1  0
  1 39  1  0
  5 40  1  0
  6 41  1  0
  7 42  1  0
 12 43  1  0
 12 44  1  0
 12 45  1  0
 19 46  1  0
 21 47  1  0
 21 48  1  0
 21 49  1  0
 26 50  1  0
 26 51  1  0
 26 52  1  0
 29 53  1  0
 31 54  1  0
 32 55  1  0
 35 56  1  0
 36 57  1  0
M  END
$$$$
