
     RDKit          3D

 40 42  0  0  0  0  0  0  0  0999 V2000
   -0.0309    3.6804    0.8672 C   0  0  0  0  0  0  0  0  0  0  0  0
   -0.3422    2.3304    0.5874 O   0  0  0  0  0  0  0  0  0  0  0  0
   -0.0421    1.7121   -0.6162 C   0  0  0  0  0  0  0  0  0  0  0  0
    0.5469    2.4809   -1.4569 O   0  0  0  0  0  0  0  0  0  0  0  0
   -0.3176    0.3416   -1.0008 C   0  0  2  0  0  0  0  0  0  0  0  0
   -1.7627   -0.0795   -0.9597 C   0  0  0  0  0  0  0  0  0  0  0  0
   -2.4822    0.1850    0.3117 C   0  0  0  0  0  0  0  0  0  0  0  0
   -2.7350   -1.2104    0.9072 C   0  0  0  0  0  0  0  0  0  0  0  0
   -1.5430   -1.9476    0.2792 C   0  0  2  0  0  0  0  0  0  0  0  0
   -0.2791   -1.3288    0.8115 C   0  0  0  0  0  0  0  0  0  0  0  0
    0.4994   -0.7227   -0.3165 C   0  0  2  0  0  0  0  0  0  0  0  0
    1.8740   -0.3434    0.0039 C   0  0  0  0  0  0  0  0  0  0  0  0
    2.9445   -0.7051   -0.8058 C   0  0  0  0  0  0  0  0  0  0  0  0
    4.2536   -0.3839   -0.5449 C   0  0  0  0  0  0  0  0  0  0  0  0
    4.5493    0.3437    0.5878 C   0  0  0  0  0  0  0  0  0  0  0  0
    3.4983    0.7252    1.4264 C   0  0  0  0  0  0  0  0  0  0  0  0
    2.1903    0.3862    1.1362 C   0  0  0  0  0  0  0  0  0  0  0  0
   -1.7250   -1.5468   -1.1090 N   0  0  0  0  0  0  0  0  0  0  0  0
   -2.9319   -2.0459   -1.6820 C   0  0  0  0  0  0  0  0  0  0  0  0
    0.9797    3.9433    0.4390 H   0  0  0  0  0  0  0  0  0  0  0  0
    0.0614    3.7494    1.9876 H   0  0  0  0  0  0  0  0  0  0  0  0
   -0.7781    4.3907    0.4705 H   0  0  0  0  0  0  0  0  0  0  0  0
   -0.0450    0.2599   -2.1067 H   0  0  0  0  0  0  0  0  0  0  0  0
   -2.3466    0.3669   -1.8106 H   0  0  0  0  0  0  0  0  0  0  0  0
   -1.9085    0.7366    1.0613 H   0  0  0  0  0  0  0  0  0  0  0  0
   -3.4898    0.6385    0.1698 H   0  0  0  0  0  0  0  0  0  0  0  0
   -2.5908   -1.2050    1.9923 H   0  0  0  0  0  0  0  0  0  0  0  0
   -3.6922   -1.6251    0.5804 H   0  0  0  0  0  0  0  0  0  0  0  0
   -1.6096   -3.0283    0.4118 H   0  0  0  0  0  0  0  0  0  0  0  0
    0.3605   -2.1275    1.2601 H   0  0  0  0  0  0  0  0  0  0  0  0
   -0.4730   -0.5854    1.6067 H   0  0  0  0  0  0  0  0  0  0  0  0
    0.5796   -1.5544   -1.0908 H   0  0  0  0  0  0  0  0  0  0  0  0
    2.7505   -1.2860   -1.7188 H   0  0  0  0  0  0  0  0  0  0  0  0
    5.0740   -0.6790   -1.1947 H   0  0  0  0  0  0  0  0  0  0  0  0
    5.5475    0.6303    0.8550 H   0  0  0  0  0  0  0  0  0  0  0  0
    3.6927    1.2989    2.3272 H   0  0  0  0  0  0  0  0  0  0  0  0
    1.4346    0.7146    1.8412 H   0  0  0  0  0  0  0  0  0  0  0  0
   -3.8356   -1.4359   -1.4463 H   0  0  0  0  0  0  0  0  0  0  0  0
   -2.8229   -1.9604   -2.8026 H   0  0  0  0  0  0  0  0  0  0  0  0
   -3.0529   -3.1132   -1.4704 H   0  0  0  0  0  0  0  0  0  0  0  0
  1  2  1  0
  2  3  1  0
  3  4  2  0
  3  5  1  0
  5  6  1  0
  6  7  1  0
  7  8  1  0
  8  9  1  0
  9 10  1  0
 10 11  1  0
 11 12  1  0
 12 13  2  0
 13 14  1  0
 14 15  2  0
 15 16  1  0
 16 17  2  0
  9 18  1  0
 18 19  1  0
 11  5  1  0
 17 12  1  0
 18  6  1  0
  1 20  1  0
  1 21  1  0
  1 22  1  0
  5 23  1  6
  6 24  1  0
  7 25  1  0
  7 26  1  0
  8 27  1  0
  8 28  1  0
  9 29  1  6
 10 30  1  0
 10 31  1  0
 11 32  1  6
 13 33  1  0
 14 34  1  0
 15 35  1  0
 16 36  1  0
 17 37  1  0
 19 38  1  0
 19 39  1  0
 19 40  1  0
M  END
$$$$
