
     RDKit          3D

 40 43  0  0  0  0  0  0  0  0999 V2000
    6.3679    1.1112    2.0664 C   0  0  0  0  0  0  0  0  0  0  0  0
    5.3298    0.1957    1.5508 C   0  0  0  0  0  0  0  0  0  0  0  0
    5.1257   -1.0503    2.3289 N   0  0  0  0  0  0  0  0  0  0  0  0
    3.7750   -1.8448    1.3358 S   0  0  0  0  0  0  0  0  0  0  0  0
    3.7122   -0.5046    0.1541 C   0  0  0  0  0  0  0  0  0  0  0  0
    2.7315   -0.6051   -0.9622 C   0  0  0  0  0  0  0  0  0  0  0  0
    2.8244   -1.2848   -2.1090 N   0  0  0  0  0  0  0  0  0  0  0  0
    1.7089   -1.0845   -2.8227 N   0  0  0  0  0  0  0  0  0  0  0  0
    0.9087   -0.2663   -2.1073 C   0  0  0  0  0  0  0  0  0  0  0  0
    1.5619    0.0106   -0.9713 N   0  0  0  0  0  0  0  0  0  0  0  0
    0.9032    0.8816    0.0005 C   0  0  0  0  0  0  0  0  0  0  0  0
   -0.5452    0.3882    0.1727 C   0  0  0  0  0  0  0  0  0  0  0  0
   -1.1829    0.2249   -1.1063 N   0  0  0  0  0  0  0  0  0  0  0  0
   -2.5641   -0.0524   -1.1329 C   0  0  0  0  0  0  0  0  0  0  0  0
   -3.1402   -0.1922   -2.2372 O   0  0  0  0  0  0  0  0  0  0  0  0
   -3.3715   -0.1882    0.0791 C   0  0  0  0  0  0  0  0  0  0  0  0
   -3.7056    0.8882    0.8536 C   0  0  0  0  0  0  0  0  0  0  0  0
   -4.4765    0.7262    1.9898 C   0  0  0  0  0  0  0  0  0  0  0  0
   -4.9198   -0.5063    2.3621 C   0  0  0  0  0  0  0  0  0  0  0  0
   -5.8873   -0.6854    3.7914 Cl  0  0  0  0  0  0  0  0  0  0  0  0
   -4.5820   -1.6110    1.5755 C   0  0  0  0  0  0  0  0  0  0  0  0
   -3.8102   -1.4331    0.4429 C   0  0  0  0  0  0  0  0  0  0  0  0
   -0.4282    0.3471   -2.3104 C   0  0  2  0  0  0  0  0  0  0  0  0
   -1.0907   -0.2146   -3.5475 C   0  0  0  0  0  0  0  0  0  0  0  0
    4.5534    0.2517    0.5572 N   0  0  0  0  0  0  0  0  0  0  0  0
    6.6636    0.9166    3.0915 H   0  0  0  0  0  0  0  0  0  0  0  0
    7.2665    1.1453    1.4185 H   0  0  0  0  0  0  0  0  0  0  0  0
    5.9439    2.1384    2.0427 H   0  0  0  0  0  0  0  0  0  0  0  0
    0.8566    1.9069   -0.4038 H   0  0  0  0  0  0  0  0  0  0  0  0
    1.3674    0.8630    0.9872 H   0  0  0  0  0  0  0  0  0  0  0  0
   -0.4705   -0.5581    0.7384 H   0  0  0  0  0  0  0  0  0  0  0  0
   -1.0984    1.1352    0.7825 H   0  0  0  0  0  0  0  0  0  0  0  0
   -3.3683    1.8594    0.5765 H   0  0  0  0  0  0  0  0  0  0  0  0
   -4.7034    1.6218    2.5586 H   0  0  0  0  0  0  0  0  0  0  0  0
   -4.9557   -2.5588    1.9156 H   0  0  0  0  0  0  0  0  0  0  0  0
   -3.5870   -2.3373   -0.1191 H   0  0  0  0  0  0  0  0  0  0  0  0
   -0.2195    1.4485   -2.4381 H   0  0  0  0  0  0  0  0  0  0  0  0
   -1.4367   -1.2433   -3.3506 H   0  0  0  0  0  0  0  0  0  0  0  0
   -1.8098    0.4606   -4.0019 H   0  0  0  0  0  0  0  0  0  0  0  0
   -0.2473   -0.3000   -4.3032 H   0  0  0  0  0  0  0  0  0  0  0  0
  1  2  1  0
  2  3  2  0
  3  4  1  0
  4  5  1  0
  5  6  1  0
  6  7  2  0
  7  8  1  0
  8  9  2  0
  9 10  1  0
 10 11  1  0
 11 12  1  0
 12 13  1  0
 13 14  1  0
 14 15  2  0
 14 16  1  0
 16 17  2  0
 17 18  1  0
 18 19  2  0
 19 20  1  0
 19 21  1  0
 21 22  2  0
 13 23  1  0
 23 24  1  0
  5 25  2  0
 25  2  1  0
 10  6  1  0
 22 16  1  0
 23  9  1  0
  1 26  1  0
  1 27  1  0
  1 28  1  0
 11 29  1  0
 11 30  1  0
 12 31  1  0
 12 32  1  0
 17 33  1  0
 18 34  1  0
 21 35  1  0
 22 36  1  0
 23 37  1  6
 24 38  1  0
 24 39  1  0
 24 40  1  0
M  END
$$$$
