
     RDKit          3D

 51 52  0  0  0  0  0  0  0  0999 V2000
    5.6581    4.1585   -0.1136 N   0  0  0  0  0  0  0  0  0  0  0  0
    5.1132    2.9339    0.4022 C   0  0  0  0  0  0  0  0  0  0  0  0
    4.4085    3.0037    1.4741 N   0  0  0  0  0  0  0  0  0  0  0  0
    5.3458    1.6991   -0.2487 N   0  0  0  0  0  0  0  0  0  0  0  0
    5.5017    0.5864    0.5178 O   0  0  0  0  0  0  0  0  0  0  0  0
    4.4217   -0.2495    0.1454 C   0  0  0  0  0  0  0  0  0  0  0  0
    4.6361   -1.5544    0.8802 C   0  0  0  0  0  0  0  0  0  0  0  0
    3.5655   -2.4901    0.5594 N   0  0  0  0  0  0  0  0  0  0  0  0
    2.2298   -2.1512    0.8685 C   0  0  0  0  0  0  0  0  0  0  0  0
    1.8551   -1.0823    1.4149 O   0  0  0  0  0  0  0  0  0  0  0  0
    1.1154   -3.0795    0.5547 C   0  0  0  0  0  0  0  0  0  0  0  0
   -0.1943   -2.5323    0.9673 C   0  0  0  0  0  0  0  0  0  0  0  0
   -0.4557   -2.5873    2.3309 C   0  0  0  0  0  0  0  0  0  0  0  0
   -1.6485   -2.1080    2.8642 C   0  0  0  0  0  0  0  0  0  0  0  0
   -2.5728   -1.5676    1.9611 C   0  0  0  0  0  0  0  0  0  0  0  0
   -2.3068   -1.5161    0.6080 C   0  0  0  0  0  0  0  0  0  0  0  0
   -3.2902   -0.9537   -0.2865 N   0  0  0  0  0  0  0  0  0  0  0  0
   -4.5246   -0.4522    0.2357 C   0  0  0  0  0  0  0  0  0  0  0  0
   -5.3797    0.0542   -0.8949 C   0  0  0  0  0  0  0  0  0  0  0  0
   -5.6337   -0.9824   -1.7705 F   0  0  0  0  0  0  0  0  0  0  0  0
   -6.5963    0.5429   -0.4321 F   0  0  0  0  0  0  0  0  0  0  0  0
   -4.6161    1.1064   -1.6125 C   0  0  0  0  0  0  0  0  0  0  0  0
   -3.7889    0.9563   -2.6491 N   0  0  0  0  0  0  0  0  0  0  0  0
   -3.1848    2.0295   -3.1726 C   0  0  0  0  0  0  0  0  0  0  0  0
   -3.3172    3.3455   -2.7512 C   0  0  0  0  0  0  0  0  0  0  0  0
   -4.1721    3.5140   -1.6771 C   0  0  0  0  0  0  0  0  0  0  0  0
   -4.7950    2.3994   -1.1391 C   0  0  0  0  0  0  0  0  0  0  0  0
   -1.1091   -1.9988    0.0836 C   0  0  0  0  0  0  0  0  0  0  0  0
   -0.8213   -1.9605   -1.2391 F   0  0  0  0  0  0  0  0  0  0  0  0
    0.4915   -3.1459    3.2831 C   0  0  0  0  0  0  0  0  0  0  0  0
    1.2453   -3.6022    4.0357 N   0  0  0  0  0  0  0  0  0  0  0  0
    6.3234    4.9508   -0.0268 H   0  0  0  0  0  0  0  0  0  0  0  0
    5.7233    4.9286   -0.8114 H   0  0  0  0  0  0  0  0  0  0  0  0
    3.9734    2.1772    1.9228 H   0  0  0  0  0  0  0  0  0  0  0  0
    5.3863    1.7114   -1.3060 H   0  0  0  0  0  0  0  0  0  0  0  0
    4.4982   -0.4395   -0.9623 H   0  0  0  0  0  0  0  0  0  0  0  0
    3.4593    0.2178    0.3500 H   0  0  0  0  0  0  0  0  0  0  0  0
    4.6886   -1.3702    1.9637 H   0  0  0  0  0  0  0  0  0  0  0  0
    5.6156   -1.9385    0.5138 H   0  0  0  0  0  0  0  0  0  0  0  0
    3.7366   -3.4201    0.1023 H   0  0  0  0  0  0  0  0  0  0  0  0
    1.2523   -4.0934    0.9309 H   0  0  0  0  0  0  0  0  0  0  0  0
    1.0725   -3.1387   -0.5706 H   0  0  0  0  0  0  0  0  0  0  0  0
   -1.8627   -2.1444    3.9142 H   0  0  0  0  0  0  0  0  0  0  0  0
   -3.5088   -1.1892    2.3607 H   0  0  0  0  0  0  0  0  0  0  0  0
   -3.0851   -0.9209   -1.3059 H   0  0  0  0  0  0  0  0  0  0  0  0
   -5.0598   -1.1771    0.8811 H   0  0  0  0  0  0  0  0  0  0  0  0
   -4.3023    0.4304    0.8981 H   0  0  0  0  0  0  0  0  0  0  0  0
   -2.5245    1.8279   -4.0164 H   0  0  0  0  0  0  0  0  0  0  0  0
   -2.7868    4.1436   -3.2394 H   0  0  0  0  0  0  0  0  0  0  0  0
   -4.3295    4.5095   -1.2884 H   0  0  0  0  0  0  0  0  0  0  0  0
   -5.4504    2.6192   -0.2976 H   0  0  0  0  0  0  0  0  0  0  0  0
  1  2  1  0
  2  3  2  3
  2  4  1  0
  4  5  1  0
  5  6  1  0
  6  7  1  0
  7  8  1  0
  8  9  1  0
  9 10  2  0
  9 11  1  0
 11 12  1  0
 12 13  2  0
 13 14  1  0
 14 15  2  0
 15 16  1  0
 16 17  1  0
 17 18  1  0
 18 19  1  0
 19 20  1  0
 19 21  1  0
 19 22  1  0
 22 23  2  0
 23 24  1  0
 24 25  2  0
 25 26  1  0
 26 27  2  0
 16 28  2  0
 28 29  1  0
 13 30  1  0
 30 31  3  0
 28 12  1  0
 27 22  1  0
  1 32  1  0
  1 33  1  0
  3 34  1  0
  4 35  1  0
  6 36  1  0
  6 37  1  0
  7 38  1  0
  7 39  1  0
  8 40  1  0
 11 41  1  0
 11 42  1  0
 14 43  1  0
 15 44  1  0
 17 45  1  0
 18 46  1  0
 18 47  1  0
 24 48  1  0
 25 49  1  0
 26 50  1  0
 27 51  1  0
M  END
$$$$
