
     RDKit          3D

 42 43  0  0  0  0  0  0  0  0999 V2000
    6.5964    1.1866   -1.1336 C   0  0  0  0  0  0  0  0  0  0  0  0
    5.4894    0.3126   -0.6506 C   0  0  0  0  0  0  0  0  0  0  0  0
    4.5573   -0.1431   -1.5466 C   0  0  0  0  0  0  0  0  0  0  0  0
    3.5062   -0.9610   -1.1434 C   0  0  0  0  0  0  0  0  0  0  0  0
    3.4097   -1.3159    0.1948 C   0  0  0  0  0  0  0  0  0  0  0  0
    4.3836   -0.8247    1.0613 C   0  0  0  0  0  0  0  0  0  0  0  0
    5.4313   -0.0183    0.7006 C   0  0  0  0  0  0  0  0  0  0  0  0
    2.1351   -2.3445    0.8548 S   0  0  0  0  0  0  0  0  0  0  0  0
    2.7215   -3.0593    2.0293 O   0  0  0  0  0  0  0  0  0  0  0  0
    1.7492   -3.3906   -0.1439 O   0  0  0  0  0  0  0  0  0  0  0  0
    0.8368   -1.3589    1.3381 N   0  0  0  0  0  0  0  0  0  0  0  0
   -0.2528   -0.9828    0.5192 C   0  0  0  0  0  0  0  0  0  0  0  0
   -0.2056   -1.4418   -0.6477 O   0  0  0  0  0  0  0  0  0  0  0  0
   -1.3029   -0.1615    0.9753 N   0  0  0  0  0  0  0  0  0  0  0  0
   -2.3972    0.2129    0.1439 N   0  0  0  0  0  0  0  0  0  0  0  0
   -3.3519   -0.8542    0.3849 C   0  0  0  0  0  0  0  0  0  0  0  0
   -4.5416   -0.7804   -0.5481 C   0  0  0  0  0  0  0  0  0  0  0  0
   -5.3742    0.4011   -0.0931 C   0  0  0  0  0  0  0  0  0  0  0  0
   -4.8207    1.6124   -0.8213 C   0  0  0  0  0  0  0  0  0  0  0  0
   -3.7298    2.3072   -0.1007 C   0  0  0  0  0  0  0  0  0  0  0  0
   -2.7880    1.4791    0.6755 C   0  0  0  0  0  0  0  0  0  0  0  0
    7.1913    0.6212   -1.8836 H   0  0  0  0  0  0  0  0  0  0  0  0
    7.2562    1.4806   -0.2925 H   0  0  0  0  0  0  0  0  0  0  0  0
    6.1575    2.1039   -1.5472 H   0  0  0  0  0  0  0  0  0  0  0  0
    4.5997    0.1123   -2.5976 H   0  0  0  0  0  0  0  0  0  0  0  0
    2.7375   -1.3551   -1.7977 H   0  0  0  0  0  0  0  0  0  0  0  0
    4.3198   -1.0955    2.1146 H   0  0  0  0  0  0  0  0  0  0  0  0
    6.1549    0.3291    1.4263 H   0  0  0  0  0  0  0  0  0  0  0  0
    0.8542   -1.0009    2.3396 H   0  0  0  0  0  0  0  0  0  0  0  0
   -1.2033    0.1491    1.9869 H   0  0  0  0  0  0  0  0  0  0  0  0
   -2.8380   -1.8184    0.1600 H   0  0  0  0  0  0  0  0  0  0  0  0
   -3.6942   -0.8817    1.4222 H   0  0  0  0  0  0  0  0  0  0  0  0
   -5.0945   -1.7339   -0.4661 H   0  0  0  0  0  0  0  0  0  0  0  0
   -4.2315   -0.6037   -1.5933 H   0  0  0  0  0  0  0  0  0  0  0  0
   -6.4576    0.2630   -0.2761 H   0  0  0  0  0  0  0  0  0  0  0  0
   -5.2133    0.5727    1.0116 H   0  0  0  0  0  0  0  0  0  0  0  0
   -4.5634    1.3252   -1.8655 H   0  0  0  0  0  0  0  0  0  0  0  0
   -5.6747    2.3152   -0.9248 H   0  0  0  0  0  0  0  0  0  0  0  0
   -3.1697    2.9262   -0.8613 H   0  0  0  0  0  0  0  0  0  0  0  0
   -4.1809    3.0478    0.5968 H   0  0  0  0  0  0  0  0  0  0  0  0
   -3.1567    1.2943    1.7237 H   0  0  0  0  0  0  0  0  0  0  0  0
   -1.8453    2.0738    0.8236 H   0  0  0  0  0  0  0  0  0  0  0  0
  1  2  1  0
  2  3  2  0
  3  4  1  0
  4  5  2  0
  5  6  1  0
  6  7  2  0
  5  8  1  0
  8  9  2  0
  8 10  2  0
  8 11  1  0
 11 12  1  0
 12 13  2  0
 12 14  1  0
 14 15  1  0
 15 16  1  0
 16 17  1  0
 17 18  1  0
 18 19  1  0
 19 20  1  0
 20 21  1  0
  7  2  1  0
 21 15  1  0
  1 22  1  0
  1 23  1  0
  1 24  1  0
  3 25  1  0
  4 26  1  0
  6 27  1  0
  7 28  1  0
 11 29  1  0
 14 30  1  0
 16 31  1  0
 16 32  1  0
 17 33  1  0
 17 34  1  0
 18 35  1  0
 18 36  1  0
 19 37  1  0
 19 38  1  0
 20 39  1  0
 20 40  1  0
 21 41  1  0
 21 42  1  0
M  END
$$$$
