
     RDKit          3D

 54 57  0  0  0  0  0  0  0  0999 V2000
    0.3946    2.2786   -3.4134 C   0  0  0  0  0  0  0  0  0  0  0  0
    0.4925    1.3586   -2.3407 O   0  0  0  0  0  0  0  0  0  0  0  0
    1.6886    1.1676   -1.6614 C   0  0  0  0  0  0  0  0  0  0  0  0
    2.6645    1.8555   -2.0560 O   0  0  0  0  0  0  0  0  0  0  0  0
    1.8034    0.1905   -0.5179 C   0  0  0  0  0  0  0  0  0  0  0  0
    3.2232    0.2612   -0.0467 C   0  0  0  0  0  0  0  0  0  0  0  0
    3.6250   -1.1126    0.4566 C   0  0  0  0  0  0  0  0  0  0  0  0
    2.8880   -1.1667    1.7769 C   0  0  0  0  0  0  0  0  0  0  0  0
    2.6522    0.2685    2.1108 C   0  0  0  0  0  0  0  0  0  0  0  0
    1.1794    0.5552    1.9098 C   0  0  0  0  0  0  0  0  0  0  0  0
    0.7553    0.4680    0.4871 C   0  0  2  0  0  0  0  0  0  0  0  0
   -0.2451   -0.5223    0.3646 O   0  0  0  0  0  0  0  0  0  0  0  0
   -1.4736    0.0035   -0.0083 C   0  0  0  0  0  0  0  0  0  0  0  0
   -1.9901   -0.5462   -1.2862 C   0  0  0  0  0  0  0  0  0  0  0  0
   -1.9138   -1.8957   -1.5521 C   0  0  0  0  0  0  0  0  0  0  0  0
   -2.4075   -2.3800   -2.7516 C   0  0  0  0  0  0  0  0  0  0  0  0
   -2.9744   -1.5398   -3.6869 C   0  0  0  0  0  0  0  0  0  0  0  0
   -3.0611   -0.1865   -3.4421 C   0  0  0  0  0  0  0  0  0  0  0  0
   -2.5667    0.2823   -2.2458 C   0  0  0  0  0  0  0  0  0  0  0  0
   -2.4244   -0.2296    1.1096 C   0  0  0  0  0  0  0  0  0  0  0  0
   -2.4740   -1.4408    1.7634 C   0  0  0  0  0  0  0  0  0  0  0  0
   -3.3435   -1.6745    2.7929 C   0  0  0  0  0  0  0  0  0  0  0  0
   -4.1998   -0.6739    3.1955 C   0  0  0  0  0  0  0  0  0  0  0  0
   -4.1815    0.5554    2.5656 C   0  0  0  0  0  0  0  0  0  0  0  0
   -3.3042    0.7553    1.5446 C   0  0  0  0  0  0  0  0  0  0  0  0
    3.3516    1.0670    1.1244 N   0  0  0  0  0  0  0  0  0  0  0  0
    4.6912    1.3832    1.4846 C   0  0  0  0  0  0  0  0  0  0  0  0
   -0.3779    1.8992   -4.1140 H   0  0  0  0  0  0  0  0  0  0  0  0
    0.1596    3.3074   -3.0488 H   0  0  0  0  0  0  0  0  0  0  0  0
    1.3462    2.3540   -3.9919 H   0  0  0  0  0  0  0  0  0  0  0  0
    1.6060   -0.8130   -0.9966 H   0  0  0  0  0  0  0  0  0  0  0  0
    3.9067    0.5947   -0.8577 H   0  0  0  0  0  0  0  0  0  0  0  0
    4.7358   -1.1792    0.6156 H   0  0  0  0  0  0  0  0  0  0  0  0
    3.2682   -1.8795   -0.2537 H   0  0  0  0  0  0  0  0  0  0  0  0
    3.4608   -1.7144    2.5514 H   0  0  0  0  0  0  0  0  0  0  0  0
    1.9489   -1.7448    1.5957 H   0  0  0  0  0  0  0  0  0  0  0  0
    2.9755    0.4827    3.1334 H   0  0  0  0  0  0  0  0  0  0  0  0
    1.0219    1.5912    2.3320 H   0  0  0  0  0  0  0  0  0  0  0  0
    0.6341   -0.1370    2.5836 H   0  0  0  0  0  0  0  0  0  0  0  0
    0.2434    1.4259    0.2322 H   0  0  0  0  0  0  0  0  0  0  0  0
   -1.4245    1.1113   -0.1410 H   0  0  0  0  0  0  0  0  0  0  0  0
   -1.4866   -2.6037   -0.8738 H   0  0  0  0  0  0  0  0  0  0  0  0
   -2.3538   -3.4350   -2.9721 H   0  0  0  0  0  0  0  0  0  0  0  0
   -3.3704   -1.8834   -4.6349 H   0  0  0  0  0  0  0  0  0  0  0  0
   -3.5018    0.5144   -4.1541 H   0  0  0  0  0  0  0  0  0  0  0  0
   -2.6137    1.3308   -2.0134 H   0  0  0  0  0  0  0  0  0  0  0  0
   -1.8024   -2.2624    1.4684 H   0  0  0  0  0  0  0  0  0  0  0  0
   -3.3791   -2.6443    3.3120 H   0  0  0  0  0  0  0  0  0  0  0  0
   -4.9045   -0.8291    4.0128 H   0  0  0  0  0  0  0  0  0  0  0  0
   -4.8685    1.3046    2.9150 H   0  0  0  0  0  0  0  0  0  0  0  0
   -3.2682    1.7042    1.0354 H   0  0  0  0  0  0  0  0  0  0  0  0
    4.8745    2.4582    1.2811 H   0  0  0  0  0  0  0  0  0  0  0  0
    4.9500    1.1362    2.5332 H   0  0  0  0  0  0  0  0  0  0  0  0
    5.3700    0.8291    0.7730 H   0  0  0  0  0  0  0  0  0  0  0  0
  1  2  1  0
  2  3  1  0
  3  4  2  0
  3  5  1  0
  5  6  1  0
  6  7  1  0
  7  8  1  0
  8  9  1  0
  9 10  1  0
 10 11  1  0
 11 12  1  0
 12 13  1  0
 13 14  1  0
 14 15  2  0
 15 16  1  0
 16 17  2  0
 17 18  1  0
 18 19  2  0
 13 20  1  0
 20 21  2  0
 21 22  1  0
 22 23  2  0
 23 24  1  0
 24 25  2  0
  9 26  1  0
 26 27  1  0
 11  5  1  0
 19 14  1  0
 25 20  1  0
 26  6  1  0
  1 28  1  0
  1 29  1  0
  1 30  1  0
  5 31  1  0
  6 32  1  0
  7 33  1  0
  7 34  1  0
  8 35  1  0
  8 36  1  0
  9 37  1  0
 10 38  1  0
 10 39  1  0
 11 40  1  6
 13 41  1  0
 15 42  1  0
 16 43  1  0
 17 44  1  0
 18 45  1  0
 19 46  1  0
 21 47  1  0
 22 48  1  0
 23 49  1  0
 24 50  1  0
 25 51  1  0
 27 52  1  0
 27 53  1  0
 27 54  1  0
M  END
$$$$
