
     RDKit          3D

 33 35  0  0  0  0  0  0  0  0999 V2000
    2.9026   -2.2203    0.5751 N   0  0  0  0  0  0  0  0  0  0  0  0
    2.6830   -0.9858    1.2256 C   0  0  0  0  0  0  0  0  0  0  0  0
    2.0468    0.1211    0.6434 C   0  0  0  0  0  0  0  0  0  0  0  0
    1.6623   -0.1331   -0.6256 O   0  0  0  0  0  0  0  0  0  0  0  0
    1.0181    0.5986   -1.5890 C   0  0  0  0  0  0  0  0  0  0  0  0
   -0.3336    0.9997   -1.1360 C   0  0  0  0  0  0  0  0  0  0  0  0
   -0.7842    2.2517   -0.7328 C   0  0  0  0  0  0  0  0  0  0  0  0
   -2.0882    2.4764   -0.3502 C   0  0  0  0  0  0  0  0  0  0  0  0
   -3.0263    1.4766   -0.3430 C   0  0  0  0  0  0  0  0  0  0  0  0
   -2.6058    0.2180   -0.7400 C   0  0  0  0  0  0  0  0  0  0  0  0
   -3.5740   -0.7632   -0.7203 C   0  0  0  0  0  0  0  0  0  0  0  0
   -3.2433   -2.0405   -1.0980 C   0  0  0  0  0  0  0  0  0  0  0  0
   -1.9357   -2.3367   -1.4977 C   0  0  0  0  0  0  0  0  0  0  0  0
   -1.0139   -1.2823   -1.4888 C   0  0  0  0  0  0  0  0  0  0  0  0
   -1.3021    0.0020   -1.1204 C   0  0  0  0  0  0  0  0  0  0  0  0
    1.9532    1.2131    1.4786 C   0  0  0  0  0  0  0  0  0  0  0  0
    2.4306    1.2435    2.7698 C   0  0  0  0  0  0  0  0  0  0  0  0
    3.0481    0.1054    3.2725 C   0  0  0  0  0  0  0  0  0  0  0  0
    3.1560   -0.9688    2.4916 N   0  0  0  0  0  0  0  0  0  0  0  0
    3.1659   -2.5984   -0.3543 H   0  0  0  0  0  0  0  0  0  0  0  0
    2.8197   -3.1588    1.0153 H   0  0  0  0  0  0  0  0  0  0  0  0
    0.9895   -0.0117   -2.5185 H   0  0  0  0  0  0  0  0  0  0  0  0
    1.5827    1.5577   -1.7619 H   0  0  0  0  0  0  0  0  0  0  0  0
    0.0026    3.0121   -0.7575 H   0  0  0  0  0  0  0  0  0  0  0  0
   -2.3500    3.4889   -0.0503 H   0  0  0  0  0  0  0  0  0  0  0  0
   -4.0304    1.6649   -0.0453 H   0  0  0  0  0  0  0  0  0  0  0  0
   -4.5901   -0.6031   -0.4260 H   0  0  0  0  0  0  0  0  0  0  0  0
   -3.9777   -2.8363   -1.0952 H   0  0  0  0  0  0  0  0  0  0  0  0
   -1.6866   -3.3398   -1.7918 H   0  0  0  0  0  0  0  0  0  0  0  0
   -0.0496   -1.5910   -1.8026 H   0  0  0  0  0  0  0  0  0  0  0  0
    1.4649    2.0508    1.0038 H   0  0  0  0  0  0  0  0  0  0  0  0
    2.2741    2.1804    3.2858 H   0  0  0  0  0  0  0  0  0  0  0  0
    3.3915    0.2089    4.2837 H   0  0  0  0  0  0  0  0  0  0  0  0
  1  2  1  0
  2  3  2  0
  3  4  1  0
  4  5  1  0
  5  6  1  0
  6  7  2  0
  7  8  1  0
  8  9  2  0
  9 10  1  0
 10 11  2  0
 11 12  1  0
 12 13  2  0
 13 14  1  0
 14 15  2  0
  3 16  1  0
 16 17  2  0
 17 18  1  0
 18 19  2  0
 19  2  1  0
 15  6  1  0
 15 10  1  0
  1 20  1  0
  1 21  1  0
  5 22  1  0
  5 23  1  0
  7 24  1  0
  8 25  1  0
  9 26  1  0
 11 27  1  0
 12 28  1  0
 13 29  1  0
 14 30  1  0
 16 31  1  0
 17 32  1  0
 18 33  1  0
M  END
$$$$
