
     RDKit          3D

 54 59  0  0  0  0  0  0  0  0999 V2000
    4.9474    0.6111   -2.0005 C   0  0  0  0  0  0  0  0  0  0  0  0
    4.0624   -0.1421   -1.0679 C   0  0  0  0  0  0  0  0  0  0  0  0
    2.6879    0.0735   -1.0760 C   0  0  0  0  0  0  0  0  0  0  0  0
    1.8338   -0.6057   -0.2262 C   0  0  0  0  0  0  0  0  0  0  0  0
    0.4329   -0.3741   -0.2459 N   0  0  0  0  0  0  0  0  0  0  0  0
   -0.4995   -1.0413    0.5953 C   0  0  0  0  0  0  0  0  0  0  0  0
   -0.2364   -1.9247    1.4780 O   0  0  0  0  0  0  0  0  0  0  0  0
   -1.8460   -0.5874    0.3284 C   0  0  0  0  0  0  0  0  0  0  0  0
   -3.1798   -0.7202    0.6698 C   0  0  0  0  0  0  0  0  0  0  0  0
   -3.7548   -1.6327    1.7114 C   0  0  0  0  0  0  0  0  0  0  0  0
   -4.1296   -3.0086    1.1840 C   0  0  0  0  0  0  0  0  0  0  0  0
   -5.3043   -2.9492    2.0326 N   0  0  0  0  0  0  0  0  0  0  0  0
   -5.2509   -1.4908    1.8645 C   0  0  0  0  0  0  0  0  0  0  0  0
   -3.8397    0.1658   -0.1557 C   0  0  0  0  0  0  0  0  0  0  0  0
   -2.9690    0.8076   -0.9585 N   0  0  0  0  0  0  0  0  0  0  0  0
   -3.3254    1.8104   -1.9524 C   0  0  0  0  0  0  0  0  0  0  0  0
   -1.7452    0.3560   -0.6724 C   0  0  0  0  0  0  0  0  0  0  0  0
   -0.3063    0.5297   -1.0691 C   0  0  0  0  0  0  0  0  0  0  0  0
    0.0439    1.9410   -0.8751 C   0  0  0  0  0  0  0  0  0  0  0  0
    0.2231    2.5245    0.3610 C   0  0  0  0  0  0  0  0  0  0  0  0
    0.5486    3.8608    0.4518 C   0  0  0  0  0  0  0  0  0  0  0  0
    0.7092    4.6669   -0.6465 C   0  0  0  0  0  0  0  0  0  0  0  0
    1.1247    6.3673   -0.4912 Cl  0  0  0  0  0  0  0  0  0  0  0  0
    0.5307    4.0861   -1.8812 C   0  0  0  0  0  0  0  0  0  0  0  0
    0.2045    2.7479   -1.9807 C   0  0  0  0  0  0  0  0  0  0  0  0
    2.3921   -1.4919    0.6165 N   0  0  0  0  0  0  0  0  0  0  0  0
    3.6971   -1.7532    0.6836 C   0  0  0  0  0  0  0  0  0  0  0  0
    4.5410   -1.0699   -0.1688 C   0  0  0  0  0  0  0  0  0  0  0  0
    5.7974   -1.5050    0.0888 N   0  0  0  0  0  0  0  0  0  0  0  0
    5.7134   -2.4108    1.0543 N   0  0  0  0  0  0  0  0  0  0  0  0
    4.4519   -2.5757    1.4282 N   0  0  0  0  0  0  0  0  0  0  0  0
    3.9975   -3.4933    2.4650 C   0  0  0  0  0  0  0  0  0  0  0  0
    5.1230    1.6527   -1.6535 H   0  0  0  0  0  0  0  0  0  0  0  0
    4.5387    0.5899   -3.0345 H   0  0  0  0  0  0  0  0  0  0  0  0
    5.9352    0.1127   -2.0537 H   0  0  0  0  0  0  0  0  0  0  0  0
    2.3371    0.8044   -1.7895 H   0  0  0  0  0  0  0  0  0  0  0  0
   -3.1976   -1.6212    2.6553 H   0  0  0  0  0  0  0  0  0  0  0  0
   -4.3080   -2.9559    0.1081 H   0  0  0  0  0  0  0  0  0  0  0  0
   -3.3983   -3.7742    1.4634 H   0  0  0  0  0  0  0  0  0  0  0  0
   -5.0252   -3.1761    3.0226 H   0  0  0  0  0  0  0  0  0  0  0  0
   -5.7659   -1.1821    0.9331 H   0  0  0  0  0  0  0  0  0  0  0  0
   -5.5794   -0.9390    2.7648 H   0  0  0  0  0  0  0  0  0  0  0  0
   -4.9168    0.3165   -0.1493 H   0  0  0  0  0  0  0  0  0  0  0  0
   -2.5428    1.8743   -2.7294 H   0  0  0  0  0  0  0  0  0  0  0  0
   -4.2674    1.5074   -2.4890 H   0  0  0  0  0  0  0  0  0  0  0  0
   -3.5324    2.7589   -1.4409 H   0  0  0  0  0  0  0  0  0  0  0  0
   -0.2605    0.2914   -2.1462 H   0  0  0  0  0  0  0  0  0  0  0  0
    0.0945    1.8811    1.2260 H   0  0  0  0  0  0  0  0  0  0  0  0
    0.6901    4.3218    1.4264 H   0  0  0  0  0  0  0  0  0  0  0  0
    0.6425    4.6664   -2.7947 H   0  0  0  0  0  0  0  0  0  0  0  0
    0.0723    2.3299   -2.9887 H   0  0  0  0  0  0  0  0  0  0  0  0
    2.9124   -3.4273    2.5757 H   0  0  0  0  0  0  0  0  0  0  0  0
    4.3440   -4.5091    2.1322 H   0  0  0  0  0  0  0  0  0  0  0  0
    4.5520   -3.2948    3.4172 H   0  0  0  0  0  0  0  0  0  0  0  0
  1  2  1  0
  2  3  2  0
  3  4  1  0
  4  5  1  0
  5  6  1  0
  6  7  2  0
  6  8  1  0
  8  9  1  0
  9 10  1  0
 10 11  1  0
 11 12  1  0
 12 13  1  0
  9 14  2  0
 14 15  1  0
 15 16  1  0
 15 17  1  0
 17 18  1  0
 18 19  1  0
 19 20  2  0
 20 21  1  0
 21 22  2  0
 22 23  1  0
 22 24  1  0
 24 25  2  0
  4 26  2  0
 26 27  1  0
 27 28  2  0
 28 29  1  0
 29 30  2  0
 30 31  1  0
 31 32  1  0
 28  2  1  0
 18  5  1  0
 25 19  1  0
 31 27  1  0
 17  8  2  0
 13 10  1  0
  1 33  1  0
  1 34  1  0
  1 35  1  0
  3 36  1  0
 10 37  1  0
 11 38  1  0
 11 39  1  0
 12 40  1  0
 13 41  1  0
 13 42  1  0
 14 43  1  0
 16 44  1  0
 16 45  1  0
 16 46  1  0
 18 47  1  0
 20 48  1  0
 21 49  1  0
 24 50  1  0
 25 51  1  0
 32 52  1  0
 32 53  1  0
 32 54  1  0
M  END
$$$$
