
     RDKit          3D

 43 46  0  0  0  0  0  0  0  0999 V2000
   -0.6183    2.9015   -0.0687 C   0  0  0  0  0  0  0  0  0  0  0  0
   -0.6710    1.4798    0.3697 C   0  0  1  0  0  0  0  0  0  0  0  0
   -1.7791    0.6866   -0.2763 C   0  0  0  0  0  0  0  0  0  0  0  0
   -1.7814   -0.6456    0.4126 C   0  0  0  0  0  0  0  0  0  0  0  0
   -0.6196   -1.1733    0.9372 C   0  0  0  0  0  0  0  0  0  0  0  0
   -1.0104   -2.3614    1.4675 N   0  0  0  0  0  0  0  0  0  0  0  0
   -2.3103   -2.5156    1.2660 N   0  0  0  0  0  0  0  0  0  0  0  0
   -2.8166   -1.4793    0.6201 N   0  0  0  0  0  0  0  0  0  0  0  0
   -4.1875   -1.2781    0.2193 C   0  0  0  0  0  0  0  0  0  0  0  0
   -4.8738   -2.2647   -0.3213 N   0  0  0  0  0  0  0  0  0  0  0  0
   -6.1504   -2.0609   -0.6895 C   0  0  0  0  0  0  0  0  0  0  0  0
   -6.7770   -0.8334   -0.5176 C   0  0  0  0  0  0  0  0  0  0  0  0
   -8.0512   -0.5961   -0.8744 F   0  0  0  0  0  0  0  0  0  0  0  0
   -6.0313    0.1787    0.0512 C   0  0  0  0  0  0  0  0  0  0  0  0
   -4.7697   -0.0819    0.3964 N   0  0  0  0  0  0  0  0  0  0  0  0
    0.7027   -0.4984    0.8740 C   0  0  0  0  0  0  0  0  0  0  0  0
    0.5580    0.7518    0.1584 N   0  0  0  0  0  0  0  0  0  0  0  0
    1.5853    1.2188   -0.7022 C   0  0  0  0  0  0  0  0  0  0  0  0
    1.4972    2.2958   -1.3386 O   0  0  0  0  0  0  0  0  0  0  0  0
    2.8001    0.4315   -0.8681 C   0  0  0  0  0  0  0  0  0  0  0  0
    2.9098   -0.5409   -1.8601 C   0  0  0  0  0  0  0  0  0  0  0  0
    4.0640   -1.2792   -2.0071 C   0  0  0  0  0  0  0  0  0  0  0  0
    5.1221   -1.0458   -1.1552 C   0  0  0  0  0  0  0  0  0  0  0  0
    5.0516   -0.0909   -0.1600 C   0  0  0  0  0  0  0  0  0  0  0  0
    6.2091    0.1419    0.7475 C   0  0  0  0  0  0  0  0  0  0  0  0
    6.5927    1.4719    0.5816 F   0  0  0  0  0  0  0  0  0  0  0  0
    5.8845   -0.0898    2.0720 F   0  0  0  0  0  0  0  0  0  0  0  0
    7.2988   -0.6183    0.3816 F   0  0  0  0  0  0  0  0  0  0  0  0
    3.8903    0.6362   -0.0291 C   0  0  0  0  0  0  0  0  0  0  0  0
    3.8111    1.5874    0.9572 F   0  0  0  0  0  0  0  0  0  0  0  0
   -0.7323    3.0288   -1.1635 H   0  0  0  0  0  0  0  0  0  0  0  0
    0.2821    3.3681    0.3459 H   0  0  0  0  0  0  0  0  0  0  0  0
   -1.4871    3.4305    0.4224 H   0  0  0  0  0  0  0  0  0  0  0  0
   -0.8911    1.4764    1.4732 H   0  0  0  0  0  0  0  0  0  0  0  0
   -2.7383    1.1937   -0.1590 H   0  0  0  0  0  0  0  0  0  0  0  0
   -1.5949    0.5343   -1.3687 H   0  0  0  0  0  0  0  0  0  0  0  0
   -6.7360   -2.8408   -1.1314 H   0  0  0  0  0  0  0  0  0  0  0  0
   -6.4605    1.1791    0.2188 H   0  0  0  0  0  0  0  0  0  0  0  0
    1.4948   -1.1466    0.4636 H   0  0  0  0  0  0  0  0  0  0  0  0
    1.0539   -0.2202    1.9099 H   0  0  0  0  0  0  0  0  0  0  0  0
    2.0607   -0.6877   -2.4999 H   0  0  0  0  0  0  0  0  0  0  0  0
    4.1581   -2.0349   -2.7731 H   0  0  0  0  0  0  0  0  0  0  0  0
    6.0609   -1.6091   -1.2344 H   0  0  0  0  0  0  0  0  0  0  0  0
  1  2  1  0
  2  3  1  0
  3  4  1  0
  4  5  2  0
  5  6  1  0
  6  7  2  0
  7  8  1  0
  8  9  1  0
  9 10  2  0
 10 11  1  0
 11 12  2  0
 12 13  1  0
 12 14  1  0
 14 15  2  0
  5 16  1  0
 16 17  1  0
 17 18  1  0
 18 19  2  0
 18 20  1  0
 20 21  2  0
 21 22  1  0
 22 23  2  0
 23 24  1  0
 24 25  1  0
 25 26  1  0
 25 27  1  0
 25 28  1  0
 24 29  2  0
 29 30  1  0
 17  2  1  0
 29 20  1  0
  8  4  1  0
 15  9  1  0
  1 31  1  0
  1 32  1  0
  1 33  1  0
  2 34  1  1
  3 35  1  0
  3 36  1  0
 11 37  1  0
 14 38  1  0
 16 39  1  0
 16 40  1  0
 21 41  1  0
 22 42  1  0
 23 43  1  0
M  END
$$$$
