
     RDKit          3D

 52 55  0  0  0  0  0  0  0  0999 V2000
    7.0170    5.3383    1.9212 C   0  0  0  0  0  0  0  0  0  0  0  0
    7.6423    4.3490    1.6052 C   0  0  0  0  0  0  0  0  0  0  0  0
    8.3756    3.1940    1.2537 C   0  0  0  0  0  0  0  0  0  0  0  0
    7.7697    2.0863    1.9776 O   0  0  0  0  0  0  0  0  0  0  0  0
    6.6053    1.5516    1.4678 C   0  0  0  0  0  0  0  0  0  0  0  0
    5.9530    0.5347    2.2266 C   0  0  0  0  0  0  0  0  0  0  0  0
    4.8541    0.0567    1.6493 N   0  0  0  0  0  0  0  0  0  0  0  0
    4.2580    0.3451    0.5315 C   0  0  0  0  0  0  0  0  0  0  0  0
    3.0474    0.0211   -0.1099 C   0  0  0  0  0  0  0  0  0  0  0  0
    3.2613   -0.2296   -1.5515 F   0  0  0  0  0  0  0  0  0  0  0  0
    1.8223   -0.2407    0.1878 C   0  0  0  0  0  0  0  0  0  0  0  0
    0.8198   -0.5282   -0.8880 C   0  0  0  0  0  0  0  0  0  0  0  0
    1.0404   -0.2378   -2.2027 C   0  0  0  0  0  0  0  0  0  0  0  0
    0.0434   -0.4467   -3.1474 N   0  0  0  0  0  0  0  0  0  0  0  0
   -1.1324   -0.9177   -2.7784 C   0  0  0  0  0  0  0  0  0  0  0  0
   -2.1539   -1.1785   -3.6434 F   0  0  0  0  0  0  0  0  0  0  0  0
   -1.3977   -1.2220   -1.4361 C   0  0  0  0  0  0  0  0  0  0  0  0
   -2.8154   -1.4197   -1.0296 C   0  0  1  0  0  0  0  0  0  0  0  0
   -3.4584   -0.0532   -1.4883 C   0  0  0  0  0  0  0  0  0  0  0  0
   -3.4733   -2.4049   -1.8158 N   0  0  0  0  0  0  0  0  0  0  0  0
   -4.7093   -2.7476   -1.6575 C   0  0  0  0  0  0  0  0  0  0  0  0
   -5.3959   -3.7280   -2.4434 N   0  0  0  0  0  0  0  0  0  0  0  0
   -5.5907   -1.9433   -0.3368 S   0  0  0  0  0  0  0  0  0  0  0  0
   -4.3241   -1.6841    0.9596 C   0  0  1  0  0  0  0  0  0  0  0  0
   -4.7050   -0.6952    1.9705 C   0  0  0  0  0  0  0  0  0  0  0  0
   -4.1727   -0.6837    3.0783 O   0  0  0  0  0  0  0  0  0  0  0  0
   -5.6819    0.2290    1.6531 O   0  0  0  0  0  0  0  0  0  0  0  0
   -6.1506    1.2541    2.4624 C   0  0  0  0  0  0  0  0  0  0  0  0
   -3.3190   -2.7062    1.1685 C   0  0  0  0  0  0  0  0  0  0  0  0
   -2.9757   -1.4327    0.4032 C   0  0  1  0  0  0  0  0  0  0  0  0
   -0.4288   -1.0370   -0.4951 C   0  0  0  0  0  0  0  0  0  0  0  0
    4.9785    1.4082   -0.1992 C   0  0  0  0  0  0  0  0  0  0  0  0
    6.0721    1.9021    0.3272 N   0  0  0  0  0  0  0  0  0  0  0  0
    6.3904    6.3186    2.2551 H   0  0  0  0  0  0  0  0  0  0  0  0
    8.1700    2.9678    0.1621 H   0  0  0  0  0  0  0  0  0  0  0  0
    9.4132    3.2293    1.5592 H   0  0  0  0  0  0  0  0  0  0  0  0
    6.3700    0.2585    3.1726 H   0  0  0  0  0  0  0  0  0  0  0  0
    1.5298   -0.2523    1.2228 H   0  0  0  0  0  0  0  0  0  0  0  0
    1.9510    0.2089   -2.6148 H   0  0  0  0  0  0  0  0  0  0  0  0
   -3.3753    0.5942   -0.5600 H   0  0  0  0  0  0  0  0  0  0  0  0
   -2.9050    0.3533   -2.3470 H   0  0  0  0  0  0  0  0  0  0  0  0
   -4.5006   -0.2746   -1.6886 H   0  0  0  0  0  0  0  0  0  0  0  0
   -5.3894   -4.7116   -2.1918 H   0  0  0  0  0  0  0  0  0  0  0  0
   -5.8902   -3.3372   -3.3023 H   0  0  0  0  0  0  0  0  0  0  0  0
   -7.0647    0.9663    3.0160 H   0  0  0  0  0  0  0  0  0  0  0  0
   -5.3397    1.5867    3.1732 H   0  0  0  0  0  0  0  0  0  0  0  0
   -6.4250    2.1477    1.7888 H   0  0  0  0  0  0  0  0  0  0  0  0
   -3.3387   -3.6685    0.6590 H   0  0  0  0  0  0  0  0  0  0  0  0
   -2.8990   -2.7968    2.1925 H   0  0  0  0  0  0  0  0  0  0  0  0
   -2.3792   -0.7105    1.0664 H   0  0  0  0  0  0  0  0  0  0  0  0
   -0.5411   -1.2976    0.5466 H   0  0  0  0  0  0  0  0  0  0  0  0
    4.5477    1.6842   -1.1240 H   0  0  0  0  0  0  0  0  0  0  0  0
  1  2  3  0
  2  3  1  0
  3  4  1  0
  4  5  1  0
  5  6  2  0
  6  7  1  0
  7  8  2  0
  8  9  1  0
  9 10  1  0
  9 11  2  0
 11 12  1  0
 12 13  2  0
 13 14  1  0
 14 15  2  0
 15 16  1  0
 15 17  1  0
 17 18  1  0
 18 19  1  6
 18 20  1  0
 20 21  2  0
 21 22  1  0
 21 23  1  0
 23 24  1  0
 24 25  1  1
 25 26  2  0
 25 27  1  0
 27 28  1  0
 24 29  1  0
 29 30  1  0
 17 31  2  0
  8 32  1  0
 32 33  2  0
 33  5  1  0
 31 12  1  0
 30 18  1  0
 30 24  1  0
  1 34  1  0
  3 35  1  0
  3 36  1  0
  6 37  1  0
 11 38  1  0
 13 39  1  0
 19 40  1  0
 19 41  1  0
 19 42  1  0
 22 43  1  0
 22 44  1  0
 28 45  1  0
 28 46  1  0
 28 47  1  0
 29 48  1  0
 29 49  1  0
 30 50  1  1
 31 51  1  0
 32 52  1  0
M  END
$$$$
