
     RDKit          3D

 52 55  0  0  0  0  0  0  0  0999 V2000
   -5.0138    1.6026    1.9000 C   0  0  0  0  0  0  0  0  0  0  0  0
   -4.4434    1.1452    0.5619 C   0  0  1  0  0  0  0  0  0  0  0  0
   -3.1068    0.8119    0.7016 O   0  0  0  0  0  0  0  0  0  0  0  0
   -2.0292    1.3886    0.0992 C   0  0  0  0  0  0  0  0  0  0  0  0
   -0.8938    0.7051    0.5557 C   0  0  0  0  0  0  0  0  0  0  0  0
    0.3959    1.0367    0.1377 C   0  0  0  0  0  0  0  0  0  0  0  0
    0.5740    2.0875   -0.7692 C   0  0  0  0  0  0  0  0  0  0  0  0
   -0.5214    2.7190   -1.1861 N   0  0  0  0  0  0  0  0  0  0  0  0
   -1.7403    2.3987   -0.7853 C   0  0  0  0  0  0  0  0  0  0  0  0
   -2.9121    3.0647   -1.2232 N   0  0  0  0  0  0  0  0  0  0  0  0
    1.6376    0.3936    0.5486 C   0  0  0  0  0  0  0  0  0  0  0  0
    2.8112    0.2238   -0.1572 C   0  0  0  0  0  0  0  0  0  0  0  0
    3.6261   -0.4339    0.7002 N   0  0  0  0  0  0  0  0  0  0  0  0
    3.0232   -0.6660    1.8598 N   0  0  0  0  0  0  0  0  0  0  0  0
    1.7586   -0.1620    1.8189 C   0  0  0  0  0  0  0  0  0  0  0  0
    4.9934   -0.8479    0.4169 C   0  0  0  0  0  0  0  0  0  0  0  0
    5.6273    0.2346   -0.4236 C   0  0  0  0  0  0  0  0  0  0  0  0
    7.0158   -0.1944   -0.7778 C   0  0  0  0  0  0  0  0  0  0  0  0
    7.0686   -1.4636   -1.4299 N   0  0  0  0  0  0  0  0  0  0  0  0
    5.8253   -2.1477   -1.5762 C   0  0  0  0  0  0  0  0  0  0  0  0
    4.9753   -2.1457   -0.3279 C   0  0  0  0  0  0  0  0  0  0  0  0
   -5.2574   -0.0338    0.0765 C   0  0  0  0  0  0  0  0  0  0  0  0
   -6.3768    0.1412   -0.7265 C   0  0  0  0  0  0  0  0  0  0  0  0
   -6.8076    1.7622   -1.1538 Cl  0  0  0  0  0  0  0  0  0  0  0  0
   -7.0708   -1.0015   -1.1291 C   0  0  0  0  0  0  0  0  0  0  0  0
   -6.6687   -2.2751   -0.7485 C   0  0  0  0  0  0  0  0  0  0  0  0
   -5.5555   -2.4198    0.0478 C   0  0  0  0  0  0  0  0  0  0  0  0
   -5.2360   -3.6996    0.3704 F   0  0  0  0  0  0  0  0  0  0  0  0
   -4.8379   -1.3043    0.4692 C   0  0  0  0  0  0  0  0  0  0  0  0
   -3.4294   -1.5675    1.4827 Cl  0  0  0  0  0  0  0  0  0  0  0  0
   -5.8951    2.2300    1.7027 H   0  0  0  0  0  0  0  0  0  0  0  0
   -5.3594    0.7031    2.4839 H   0  0  0  0  0  0  0  0  0  0  0  0
   -4.2392    2.1320    2.4609 H   0  0  0  0  0  0  0  0  0  0  0  0
   -4.6124    1.9826   -0.1297 H   0  0  0  0  0  0  0  0  0  0  0  0
   -0.8041   -0.1304    1.2525 H   0  0  0  0  0  0  0  0  0  0  0  0
    1.5475    2.3905   -1.1294 H   0  0  0  0  0  0  0  0  0  0  0  0
   -3.2652    2.5005   -2.0469 H   0  0  0  0  0  0  0  0  0  0  0  0
   -3.4354    3.9175   -0.9167 H   0  0  0  0  0  0  0  0  0  0  0  0
    2.9949    0.5546   -1.1601 H   0  0  0  0  0  0  0  0  0  0  0  0
    1.0735   -0.2314    2.6517 H   0  0  0  0  0  0  0  0  0  0  0  0
    5.5693   -0.9161    1.3685 H   0  0  0  0  0  0  0  0  0  0  0  0
    5.0527    0.4167   -1.3408 H   0  0  0  0  0  0  0  0  0  0  0  0
    5.6985    1.1560    0.2001 H   0  0  0  0  0  0  0  0  0  0  0  0
    7.6299   -0.2231    0.1595 H   0  0  0  0  0  0  0  0  0  0  0  0
    7.4339    0.5629   -1.4755 H   0  0  0  0  0  0  0  0  0  0  0  0
    7.8865   -2.0424   -1.1820 H   0  0  0  0  0  0  0  0  0  0  0  0
    5.2408   -1.7964   -2.4642 H   0  0  0  0  0  0  0  0  0  0  0  0
    6.0497   -3.2149   -1.7891 H   0  0  0  0  0  0  0  0  0  0  0  0
    5.2873   -2.9662    0.3597 H   0  0  0  0  0  0  0  0  0  0  0  0
    3.9408   -2.4170   -0.6663 H   0  0  0  0  0  0  0  0  0  0  0  0
   -7.9437   -0.8545   -1.7560 H   0  0  0  0  0  0  0  0  0  0  0  0
   -7.2823   -3.1066   -1.1184 H   0  0  0  0  0  0  0  0  0  0  0  0
  1  2  1  0
  2  3  1  0
  3  4  1  0
  4  5  2  0
  5  6  1  0
  6  7  2  0
  7  8  1  0
  8  9  2  0
  9 10  1  0
  6 11  1  0
 11 12  2  0
 12 13  1  0
 13 14  1  0
 14 15  2  0
 13 16  1  0
 16 17  1  0
 17 18  1  0
 18 19  1  0
 19 20  1  0
 20 21  1  0
  2 22  1  0
 22 23  2  0
 23 24  1  0
 23 25  1  0
 25 26  2  0
 26 27  1  0
 27 28  1  0
 27 29  2  0
 29 30  1  0
  9  4  1  0
 15 11  1  0
 21 16  1  0
 29 22  1  0
  1 31  1  0
  1 32  1  0
  1 33  1  0
  2 34  1  6
  5 35  1  0
  7 36  1  0
 10 37  1  0
 10 38  1  0
 12 39  1  0
 15 40  1  0
 16 41  1  0
 17 42  1  0
 17 43  1  0
 18 44  1  0
 18 45  1  0
 19 46  1  0
 20 47  1  0
 20 48  1  0
 21 49  1  0
 21 50  1  0
 25 51  1  0
 26 52  1  0
M  END
$$$$
