
     RDKit          3D

 34 36  0  0  0  0  0  0  0  0999 V2000
   -5.9177    1.0612    0.3093 C   0  0  0  0  0  0  0  0  0  0  0  0
   -4.5226    0.5930    0.0365 C   0  0  0  0  0  0  0  0  0  0  0  0
   -3.7896    1.1667   -0.9685 C   0  0  0  0  0  0  0  0  0  0  0  0
   -2.4823    0.7590   -1.2567 C   0  0  0  0  0  0  0  0  0  0  0  0
   -1.8917   -0.2497   -0.5201 C   0  0  0  0  0  0  0  0  0  0  0  0
   -0.2492   -0.8281   -0.8126 S   0  0  0  0  0  0  0  0  0  0  0  0
    0.9734    0.0574    0.1305 C   0  0  0  0  0  0  0  0  0  0  0  0
    0.7060    1.0910    1.0068 C   0  0  0  0  0  0  0  0  0  0  0  0
    1.7334    1.7127    1.6913 C   0  0  0  0  0  0  0  0  0  0  0  0
    3.0593    1.3360    1.5347 C   0  0  0  0  0  0  0  0  0  0  0  0
    3.3089    0.2982    0.6523 C   0  0  0  0  0  0  0  0  0  0  0  0
    2.2888   -0.3281   -0.0353 C   0  0  0  0  0  0  0  0  0  0  0  0
    2.6950   -1.3424   -0.8762 C   0  0  0  0  0  0  0  0  0  0  0  0
    1.7140   -2.0468   -1.6275 N   0  0  0  0  0  0  0  0  0  0  0  0
    3.9797   -1.7074   -1.0279 N   0  0  0  0  0  0  0  0  0  0  0  0
    4.9294   -1.0479   -0.3203 C   0  0  0  0  0  0  0  0  0  0  0  0
    6.2794   -1.4960   -0.5368 N   0  0  0  0  0  0  0  0  0  0  0  0
    4.6021   -0.0494    0.5171 N   0  0  0  0  0  0  0  0  0  0  0  0
   -2.6794   -0.8035    0.4941 C   0  0  0  0  0  0  0  0  0  0  0  0
   -3.9614   -0.4210    0.7949 C   0  0  0  0  0  0  0  0  0  0  0  0
   -5.9008    1.7237    1.2002 H   0  0  0  0  0  0  0  0  0  0  0  0
   -6.5154    0.1653    0.5604 H   0  0  0  0  0  0  0  0  0  0  0  0
   -6.2985    1.6007   -0.5763 H   0  0  0  0  0  0  0  0  0  0  0  0
   -4.1749    1.9569   -1.5880 H   0  0  0  0  0  0  0  0  0  0  0  0
   -1.8757    1.1940   -2.0467 H   0  0  0  0  0  0  0  0  0  0  0  0
   -0.3269    1.3752    1.1206 H   0  0  0  0  0  0  0  0  0  0  0  0
    1.5221    2.5192    2.3747 H   0  0  0  0  0  0  0  0  0  0  0  0
    3.8446    1.8305    2.0749 H   0  0  0  0  0  0  0  0  0  0  0  0
    1.0759   -2.8544   -1.6145 H   0  0  0  0  0  0  0  0  0  0  0  0
    1.4971   -1.6505   -2.5867 H   0  0  0  0  0  0  0  0  0  0  0  0
    6.5540   -0.7762   -1.2445 H   0  0  0  0  0  0  0  0  0  0  0  0
    6.5923   -2.3436    0.0217 H   0  0  0  0  0  0  0  0  0  0  0  0
   -2.2532   -1.6107    1.1091 H   0  0  0  0  0  0  0  0  0  0  0  0
   -4.5159   -0.8852    1.5870 H   0  0  0  0  0  0  0  0  0  0  0  0
  1  2  1  0
  2  3  2  0
  3  4  1  0
  4  5  2  0
  5  6  1  0
  6  7  1  0
  7  8  2  0
  8  9  1  0
  9 10  2  0
 10 11  1  0
 11 12  2  0
 12 13  1  0
 13 14  1  0
 13 15  2  0
 15 16  1  0
 16 17  1  0
 16 18  2  0
  5 19  1  0
 19 20  2  0
 20  2  1  0
 12  7  1  0
 18 11  1  0
  1 21  1  0
  1 22  1  0
  1 23  1  0
  3 24  1  0
  4 25  1  0
  8 26  1  0
  9 27  1  0
 10 28  1  0
 14 29  1  0
 14 30  1  0
 17 31  1  0
 17 32  1  0
 19 33  1  0
 20 34  1  0
M  END
$$$$
