
     RDKit          3D

 68 71  0  0  0  0  0  0  0  0999 V2000
    4.8780    5.4313   -0.2912 C   0  0  0  0  0  0  0  0  0  0  0  0
    4.6241    4.5037   -1.0641 C   0  0  0  0  0  0  0  0  0  0  0  0
    4.3019    3.4000   -1.9664 C   0  0  0  0  0  0  0  0  0  0  0  0
    3.0315    2.8303   -1.6381 N   0  0  0  0  0  0  0  0  0  0  0  0
    2.6302    1.7493   -2.4695 C   0  0  0  0  0  0  0  0  0  0  0  0
    3.3792    0.4667   -2.3350 C   0  0  1  0  0  0  0  0  0  0  0  0
    4.7194    0.5887   -2.5947 O   0  0  0  0  0  0  0  0  0  0  0  0
    3.0662   -0.2311   -1.0165 C   0  0  2  0  0  0  0  0  0  0  0  0
    3.6963   -1.6023   -1.0640 C   0  0  0  0  0  0  0  0  0  0  0  0
    3.4338   -2.3694    0.1868 C   0  0  0  0  0  0  0  0  0  0  0  0
    4.2679   -2.3342    1.2698 C   0  0  0  0  0  0  0  0  0  0  0  0
    3.9980   -3.0594    2.4235 C   0  0  0  0  0  0  0  0  0  0  0  0
    2.8702   -3.8213    2.4642 C   0  0  0  0  0  0  0  0  0  0  0  0
    1.9996   -3.8896    1.4012 C   0  0  0  0  0  0  0  0  0  0  0  0
    2.3031   -3.1544    0.2726 C   0  0  0  0  0  0  0  0  0  0  0  0
    1.6239   -0.3242   -0.8404 N   0  0  0  0  0  0  0  0  0  0  0  0
    0.9269    0.2721    0.2194 C   0  0  0  0  0  0  0  0  0  0  0  0
    1.5938    0.9293    1.0619 O   0  0  0  0  0  0  0  0  0  0  0  0
   -0.5195    0.1541    0.3720 C   0  0  0  0  0  0  0  0  0  0  0  0
   -1.2635   -0.6160   -0.4783 C   0  0  0  0  0  0  0  0  0  0  0  0
   -2.6439   -0.7439   -0.3418 C   0  0  0  0  0  0  0  0  0  0  0  0
   -3.2584   -0.0534    0.7082 C   0  0  0  0  0  0  0  0  0  0  0  0
   -4.5721   -0.0114    1.0757 C   0  0  0  0  0  0  0  0  0  0  0  0
   -4.5930    0.8496    2.2174 C   0  0  0  0  0  0  0  0  0  0  0  0
   -3.3594    1.2586    2.4684 N   0  0  0  0  0  0  0  0  0  0  0  0
   -2.9157    2.1580    3.5398 C   0  0  0  0  0  0  0  0  0  0  0  0
   -2.9895    3.5686    2.9890 C   0  0  0  0  0  0  0  0  0  0  0  0
   -2.5019    0.7372    1.5804 C   0  0  0  0  0  0  0  0  0  0  0  0
   -1.1494    0.8201    1.3877 C   0  0  0  0  0  0  0  0  0  0  0  0
   -5.7851   -0.6365    0.5906 C   0  0  0  0  0  0  0  0  0  0  0  0
   -5.9441   -1.0241   -0.8007 C   0  0  0  0  0  0  0  0  0  0  0  0
   -4.7822   -2.2012   -1.4053 S   0  0  0  0  0  6  0  0  0  0  0  0
   -4.7915   -3.3989   -0.4885 O   0  0  0  0  0  0  0  0  0  0  0  0
   -5.1988   -2.6721   -2.7631 O   0  0  0  0  0  0  0  0  0  0  0  0
   -3.1846   -1.5689   -1.3659 N   0  0  0  0  0  0  0  0  0  0  0  0
   -2.3291   -1.8786   -2.4697 C   0  0  0  0  0  0  0  0  0  0  0  0
    5.1066    6.2376    0.3629 H   0  0  0  0  0  0  0  0  0  0  0  0
    5.1648    2.6894   -1.9073 H   0  0  0  0  0  0  0  0  0  0  0  0
    4.2723    3.8290   -2.9963 H   0  0  0  0  0  0  0  0  0  0  0  0
    3.0283    2.5168   -0.6312 H   0  0  0  0  0  0  0  0  0  0  0  0
    2.7112    2.0599   -3.5540 H   0  0  0  0  0  0  0  0  0  0  0  0
    1.5397    1.5247   -2.3484 H   0  0  0  0  0  0  0  0  0  0  0  0
    2.9810   -0.2259   -3.1497 H   0  0  0  0  0  0  0  0  0  0  0  0
    5.2728    0.3351   -1.8179 H   0  0  0  0  0  0  0  0  0  0  0  0
    3.4726    0.3222   -0.1692 H   0  0  0  0  0  0  0  0  0  0  0  0
    3.3744   -2.2153   -1.9064 H   0  0  0  0  0  0  0  0  0  0  0  0
    4.7918   -1.4660   -1.1345 H   0  0  0  0  0  0  0  0  0  0  0  0
    5.1596   -1.7194    1.2132 H   0  0  0  0  0  0  0  0  0  0  0  0
    4.6514   -3.0355    3.2774 H   0  0  0  0  0  0  0  0  0  0  0  0
    2.6643   -4.3853    3.3683 H   0  0  0  0  0  0  0  0  0  0  0  0
    1.1035   -4.5019    1.4519 H   0  0  0  0  0  0  0  0  0  0  0  0
    1.6510   -3.1821   -0.5766 H   0  0  0  0  0  0  0  0  0  0  0  0
    1.1379   -0.8873   -1.5915 H   0  0  0  0  0  0  0  0  0  0  0  0
   -0.8226   -1.1719   -1.2986 H   0  0  0  0  0  0  0  0  0  0  0  0
   -5.4995    1.0924    2.7512 H   0  0  0  0  0  0  0  0  0  0  0  0
   -1.9138    1.8559    3.8428 H   0  0  0  0  0  0  0  0  0  0  0  0
   -3.6427    2.1166    4.3956 H   0  0  0  0  0  0  0  0  0  0  0  0
   -3.8188    3.5895    2.2255 H   0  0  0  0  0  0  0  0  0  0  0  0
   -3.2185    4.3044    3.7565 H   0  0  0  0  0  0  0  0  0  0  0  0
   -2.0646    3.8496    2.4395 H   0  0  0  0  0  0  0  0  0  0  0  0
   -0.5913    1.4407    2.0792 H   0  0  0  0  0  0  0  0  0  0  0  0
   -6.0863   -1.5370    1.2305 H   0  0  0  0  0  0  0  0  0  0  0  0
   -6.6383    0.0824    0.8376 H   0  0  0  0  0  0  0  0  0  0  0  0
   -6.9659   -1.4950   -0.9265 H   0  0  0  0  0  0  0  0  0  0  0  0
   -5.9417   -0.1517   -1.4820 H   0  0  0  0  0  0  0  0  0  0  0  0
   -2.9588   -2.3055   -3.3251 H   0  0  0  0  0  0  0  0  0  0  0  0
   -1.6086   -2.7088   -2.2914 H   0  0  0  0  0  0  0  0  0  0  0  0
   -1.8743   -0.9840   -2.9611 H   0  0  0  0  0  0  0  0  0  0  0  0
  1  2  3  0
  2  3  1  0
  3  4  1  0
  4  5  1  0
  5  6  1  0
  6  7  1  0
  6  8  1  0
  8  9  1  0
  9 10  1  0
 10 11  2  0
 11 12  1  0
 12 13  2  0
 13 14  1  0
 14 15  2  0
  8 16  1  0
 16 17  1  0
 17 18  2  0
 17 19  1  0
 19 20  2  0
 20 21  1  0
 21 22  2  0
 22 23  1  0
 23 24  2  0
 24 25  1  0
 25 26  1  0
 26 27  1  0
 25 28  1  0
 28 29  2  0
 23 30  1  0
 30 31  1  0
 31 32  1  0
 32 33  2  0
 32 34  2  0
 32 35  1  0
 35 36  1  0
 15 10  1  0
 29 19  1  0
 35 21  1  0
 28 22  1  0
  1 37  1  0
  3 38  1  0
  3 39  1  0
  4 40  1  0
  5 41  1  0
  5 42  1  0
  6 43  1  6
  7 44  1  0
  8 45  1  1
  9 46  1  0
  9 47  1  0
 11 48  1  0
 12 49  1  0
 13 50  1  0
 14 51  1  0
 15 52  1  0
 16 53  1  0
 20 54  1  0
 24 55  1  0
 26 56  1  0
 26 57  1  0
 27 58  1  0
 27 59  1  0
 27 60  1  0
 29 61  1  0
 30 62  1  0
 30 63  1  0
 31 64  1  0
 31 65  1  0
 36 66  1  0
 36 67  1  0
 36 68  1  0
M  END
$$$$
