
     RDKit          3D

 42 44  0  0  0  0  0  0  0  0999 V2000
    4.2454   -0.1148    0.6895 C   0  0  0  0  0  0  0  0  0  0  0  0
    3.3326    0.5055   -0.2239 N   0  0  0  0  0  0  0  0  0  0  0  0
    2.4919    1.4558    0.4451 C   0  0  0  0  0  0  0  0  0  0  0  0
    1.5784    0.6966    1.3700 C   0  0  0  0  0  0  0  0  0  0  0  0
    0.8185   -0.2371    0.6492 N   0  0  0  0  0  0  0  0  0  0  0  0
    1.3988   -1.0122   -0.3583 C   0  0  0  0  0  0  0  0  0  0  0  0
    2.6122   -0.4460   -1.0226 C   0  0  0  0  0  0  0  0  0  0  0  0
   -0.5852   -0.2221    0.8085 C   0  0  0  0  0  0  0  0  0  0  0  0
   -1.1264    1.0617    0.2937 C   0  0  0  0  0  0  0  0  0  0  0  0
   -0.8283    1.6584   -0.9134 C   0  0  0  0  0  0  0  0  0  0  0  0
   -1.3814    2.8569   -1.3114 C   0  0  0  0  0  0  0  0  0  0  0  0
   -2.2756    3.5277   -0.5055 C   0  0  0  0  0  0  0  0  0  0  0  0
   -2.6213    2.9976    0.7090 C   0  0  0  0  0  0  0  0  0  0  0  0
   -2.0402    1.8117    1.0433 C   0  0  0  0  0  0  0  0  0  0  0  0
   -1.3143   -1.3844    0.2365 C   0  0  0  0  0  0  0  0  0  0  0  0
   -1.0340   -2.7174    0.4126 C   0  0  0  0  0  0  0  0  0  0  0  0
   -1.7996   -3.6922   -0.1927 C   0  0  0  0  0  0  0  0  0  0  0  0
   -2.8744   -3.3943   -0.9972 C   0  0  0  0  0  0  0  0  0  0  0  0
   -3.8057   -4.6815   -1.7363 Cl  0  0  0  0  0  0  0  0  0  0  0  0
   -3.1932   -2.0728   -1.2023 C   0  0  0  0  0  0  0  0  0  0  0  0
   -2.4138   -1.1131   -0.5871 C   0  0  0  0  0  0  0  0  0  0  0  0
    4.0239   -1.2017    0.6826 H   0  0  0  0  0  0  0  0  0  0  0  0
    4.1382    0.2395    1.7281 H   0  0  0  0  0  0  0  0  0  0  0  0
    5.2699    0.0581    0.3082 H   0  0  0  0  0  0  0  0  0  0  0  0
    1.9123    2.0899   -0.2257 H   0  0  0  0  0  0  0  0  0  0  0  0
    3.1797    2.0978    1.0608 H   0  0  0  0  0  0  0  0  0  0  0  0
    0.8681    1.4551    1.8167 H   0  0  0  0  0  0  0  0  0  0  0  0
    2.1281    0.2730    2.2405 H   0  0  0  0  0  0  0  0  0  0  0  0
    0.6317   -1.2870   -1.1116 H   0  0  0  0  0  0  0  0  0  0  0  0
    1.7318   -2.0009    0.0830 H   0  0  0  0  0  0  0  0  0  0  0  0
    3.3296   -1.2382   -1.3181 H   0  0  0  0  0  0  0  0  0  0  0  0
    2.3141    0.0699   -1.9582 H   0  0  0  0  0  0  0  0  0  0  0  0
   -0.7683   -0.1929    1.9362 H   0  0  0  0  0  0  0  0  0  0  0  0
   -0.1116    1.1104   -1.5472 H   0  0  0  0  0  0  0  0  0  0  0  0
   -1.0790    3.2505   -2.2936 H   0  0  0  0  0  0  0  0  0  0  0  0
   -2.6831    4.4566   -0.8513 H   0  0  0  0  0  0  0  0  0  0  0  0
   -3.3133    3.4775    1.3774 H   0  0  0  0  0  0  0  0  0  0  0  0
   -2.3221    1.3904    2.0211 H   0  0  0  0  0  0  0  0  0  0  0  0
   -0.2074   -2.9541    1.0387 H   0  0  0  0  0  0  0  0  0  0  0  0
   -1.5082   -4.7158   -0.0002 H   0  0  0  0  0  0  0  0  0  0  0  0
   -4.0267   -1.7783   -1.8242 H   0  0  0  0  0  0  0  0  0  0  0  0
   -2.6926   -0.0838   -0.7699 H   0  0  0  0  0  0  0  0  0  0  0  0
  1  2  1  0
  2  3  1  0
  3  4  1  0
  4  5  1  0
  5  6  1  0
  6  7  1  0
  5  8  1  0
  8  9  1  0
  9 10  2  0
 10 11  1  0
 11 12  2  0
 12 13  1  0
 13 14  2  0
  8 15  1  0
 15 16  2  0
 16 17  1  0
 17 18  2  0
 18 19  1  0
 18 20  1  0
 20 21  2  0
  7  2  1  0
 14  9  1  0
 21 15  1  0
  1 22  1  0
  1 23  1  0
  1 24  1  0
  3 25  1  0
  3 26  1  0
  4 27  1  0
  4 28  1  0
  6 29  1  0
  6 30  1  0
  7 31  1  0
  7 32  1  0
  8 33  1  0
 10 34  1  0
 11 35  1  0
 12 36  1  0
 13 37  1  0
 14 38  1  0
 16 39  1  0
 17 40  1  0
 20 41  1  0
 21 42  1  0
M  END
$$$$
