
     RDKit          3D

 39 40  0  0  0  0  0  0  0  0999 V2000
   -4.8609    0.8761   -0.6155 C   0  0  0  0  0  0  0  0  0  0  0  0
   -4.0074   -0.1445    0.1163 C   0  0  1  0  0  0  0  0  0  0  0  0
   -4.4068   -1.4546   -0.4220 N   0  0  0  0  0  0  0  0  0  0  0  0
   -2.5660    0.0519   -0.2174 C   0  0  1  0  0  0  0  0  0  0  0  0
   -2.0568    1.4050    0.1594 C   0  0  0  0  0  0  0  0  0  0  0  0
   -0.5967    1.5505    0.2446 C   0  0  0  0  0  0  0  0  0  0  0  0
    0.1787    0.3304    0.6247 C   0  0  2  0  0  0  0  0  0  0  0  0
    1.6003    0.4561    0.2701 C   0  0  0  0  0  0  0  0  0  0  0  0
    1.9942    1.5130   -0.2830 O   0  0  0  0  0  0  0  0  0  0  0  0
    2.4879   -0.6097    0.5580 N   0  0  0  0  0  0  0  0  0  0  0  0
    3.8500   -0.4442    0.1983 C   0  0  0  0  0  0  0  0  0  0  0  0
    4.2940   -0.8360   -1.0404 C   0  0  0  0  0  0  0  0  0  0  0  0
    5.6257   -0.6663   -1.3720 C   0  0  0  0  0  0  0  0  0  0  0  0
    6.4824   -0.1270   -0.5035 N   0  0  0  0  0  0  0  0  0  0  0  0
    6.0831    0.2699    0.7225 C   0  0  0  0  0  0  0  0  0  0  0  0
    4.7418    0.1107    1.0862 C   0  0  0  0  0  0  0  0  0  0  0  0
   -0.3701   -0.9142   -0.0669 C   0  0  0  0  0  0  0  0  0  0  0  0
   -1.7799   -1.0523    0.4800 C   0  0  0  0  0  0  0  0  0  0  0  0
   -4.2343    1.4220   -1.3526 H   0  0  0  0  0  0  0  0  0  0  0  0
   -5.2608    1.6439    0.0852 H   0  0  0  0  0  0  0  0  0  0  0  0
   -5.6925    0.4149   -1.1745 H   0  0  0  0  0  0  0  0  0  0  0  0
   -4.1871   -0.1513    1.2001 H   0  0  0  0  0  0  0  0  0  0  0  0
   -3.9622   -1.6003   -1.3619 H   0  0  0  0  0  0  0  0  0  0  0  0
   -4.2353   -2.2199    0.2379 H   0  0  0  0  0  0  0  0  0  0  0  0
   -2.4062   -0.0886   -1.3060 H   0  0  0  0  0  0  0  0  0  0  0  0
   -2.5577    1.6809    1.1329 H   0  0  0  0  0  0  0  0  0  0  0  0
   -2.4578    2.1349   -0.5799 H   0  0  0  0  0  0  0  0  0  0  0  0
   -0.1564    1.9277   -0.7252 H   0  0  0  0  0  0  0  0  0  0  0  0
   -0.3510    2.3444    0.9861 H   0  0  0  0  0  0  0  0  0  0  0  0
    0.0343    0.1599    1.7146 H   0  0  0  0  0  0  0  0  0  0  0  0
    2.1613   -1.4853    1.0163 H   0  0  0  0  0  0  0  0  0  0  0  0
    3.6253   -1.2693   -1.7492 H   0  0  0  0  0  0  0  0  0  0  0  0
    5.9300   -0.9894   -2.3581 H   0  0  0  0  0  0  0  0  0  0  0  0
    6.8055    0.7066    1.4096 H   0  0  0  0  0  0  0  0  0  0  0  0
    4.4066    0.4233    2.0636 H   0  0  0  0  0  0  0  0  0  0  0  0
   -0.4203   -0.7117   -1.1574 H   0  0  0  0  0  0  0  0  0  0  0  0
    0.2651   -1.7781    0.1862 H   0  0  0  0  0  0  0  0  0  0  0  0
   -2.2044   -2.0287    0.2550 H   0  0  0  0  0  0  0  0  0  0  0  0
   -1.7954   -0.8508    1.5864 H   0  0  0  0  0  0  0  0  0  0  0  0
  1  2  1  0
  2  3  1  0
  2  4  1  0
  4  5  1  0
  5  6  1  0
  6  7  1  0
  7  8  1  0
  8  9  2  0
  8 10  1  0
 10 11  1  0
 11 12  2  0
 12 13  1  0
 13 14  2  0
 14 15  1  0
 15 16  2  0
  7 17  1  0
 17 18  1  0
 18  4  1  0
 16 11  1  0
  1 19  1  0
  1 20  1  0
  1 21  1  0
  2 22  1  1
  3 23  1  0
  3 24  1  0
  4 25  1  6
  5 26  1  0
  5 27  1  0
  6 28  1  0
  6 29  1  0
  7 30  1  1
 10 31  1  0
 12 32  1  0
 13 33  1  0
 15 34  1  0
 16 35  1  0
 17 36  1  0
 17 37  1  0
 18 38  1  0
 18 39  1  0
M  END
$$$$
