
     RDKit          3D

 35 38  0  0  0  0  0  0  0  0999 V2000
    0.0233   -5.8532   -3.1004 N   0  0  0  0  0  0  0  0  0  0  0  0
   -0.6050   -4.9924   -2.6132 C   0  0  0  0  0  0  0  0  0  0  0  0
   -1.3537   -3.9249   -2.0200 C   0  0  0  0  0  0  0  0  0  0  0  0
   -2.6588   -4.0695   -1.6104 C   0  0  0  0  0  0  0  0  0  0  0  0
   -3.3191   -3.0015   -1.0445 C   0  0  0  0  0  0  0  0  0  0  0  0
   -2.7127   -1.7634   -0.8674 C   0  0  0  0  0  0  0  0  0  0  0  0
   -3.3926   -0.7461   -0.3041 N   0  0  0  0  0  0  0  0  0  0  0  0
   -2.7751    0.4290   -0.1447 C   0  0  0  0  0  0  0  0  0  0  0  0
   -1.5048    0.6318   -0.5255 N   0  0  0  0  0  0  0  0  0  0  0  0
   -0.7861   -0.3544   -1.0930 C   0  0  0  0  0  0  0  0  0  0  0  0
    0.5505   -0.1519   -1.5260 N   0  0  0  0  0  0  0  0  0  0  0  0
    1.2887    1.0833   -1.3839 C   0  0  0  0  0  0  0  0  0  0  0  0
    1.5555    1.5016   -0.0031 C   0  0  0  0  0  0  0  0  0  0  0  0
    2.6728    0.9750    0.6295 C   0  0  0  0  0  0  0  0  0  0  0  0
    3.0144    1.3223    1.9164 C   0  0  0  0  0  0  0  0  0  0  0  0
    2.2318    2.2263    2.6248 C   0  0  0  0  0  0  0  0  0  0  0  0
    1.1295    2.7405    1.9885 C   0  0  0  0  0  0  0  0  0  0  0  0
    0.7893    2.3828    0.6804 C   0  0  0  0  0  0  0  0  0  0  0  0
    0.4953    3.6155    2.8674 O   0  0  0  0  0  0  0  0  0  0  0  0
    1.4801    3.9672    3.8442 C   0  0  0  0  0  0  0  0  0  0  0  0
    2.2815    2.7764    3.8879 O   0  0  0  0  0  0  0  0  0  0  0  0
   -1.3947   -1.5913   -1.2738 C   0  0  0  0  0  0  0  0  0  0  0  0
   -0.7575   -2.6757   -1.8365 C   0  0  0  0  0  0  0  0  0  0  0  0
   -3.1240   -5.0333   -1.7514 H   0  0  0  0  0  0  0  0  0  0  0  0
   -4.3378   -3.1276   -0.7287 H   0  0  0  0  0  0  0  0  0  0  0  0
   -3.3044    1.2770    0.3120 H   0  0  0  0  0  0  0  0  0  0  0  0
    1.0798   -0.9274   -1.9889 H   0  0  0  0  0  0  0  0  0  0  0  0
    0.6905    1.8998   -1.8827 H   0  0  0  0  0  0  0  0  0  0  0  0
    2.2782    1.0020   -1.8963 H   0  0  0  0  0  0  0  0  0  0  0  0
    3.3069    0.2637    0.0992 H   0  0  0  0  0  0  0  0  0  0  0  0
    3.8838    0.8966    2.3721 H   0  0  0  0  0  0  0  0  0  0  0  0
   -0.0926    2.8386    0.2308 H   0  0  0  0  0  0  0  0  0  0  0  0
    0.9843    4.1458    4.8123 H   0  0  0  0  0  0  0  0  0  0  0  0
    2.1144    4.8026    3.4874 H   0  0  0  0  0  0  0  0  0  0  0  0
    0.2685   -2.5654   -2.1582 H   0  0  0  0  0  0  0  0  0  0  0  0
  1  2  3  0
  2  3  1  0
  3  4  2  0
  4  5  1  0
  5  6  2  0
  6  7  1  0
  7  8  2  0
  8  9  1  0
  9 10  2  0
 10 11  1  0
 11 12  1  0
 12 13  1  0
 13 14  2  0
 14 15  1  0
 15 16  2  0
 16 17  1  0
 17 18  2  0
 17 19  1  0
 19 20  1  0
 20 21  1  0
 10 22  1  0
 22 23  2  0
 23  3  1  0
 22  6  1  0
 18 13  1  0
 21 16  1  0
  4 24  1  0
  5 25  1  0
  8 26  1  0
 11 27  1  0
 12 28  1  0
 12 29  1  0
 14 30  1  0
 15 31  1  0
 18 32  1  0
 20 33  1  0
 20 34  1  0
 23 35  1  0
M  END
$$$$
