
     RDKit          3D

 45 49  0  0  0  0  0  0  0  0999 V2000
    7.5116   -1.7374    0.6894 N   0  0  0  0  0  0  0  0  0  0  0  0
    7.0685   -0.3887    0.3083 C   0  0  0  0  0  0  0  0  0  0  0  0
    7.6446    0.5083    1.2765 N   0  0  0  0  0  0  0  0  0  0  0  0
    5.5905   -0.3255    0.2801 C   0  0  0  0  0  0  0  0  0  0  0  0
    4.8562    0.2645   -0.7250 C   0  0  0  0  0  0  0  0  0  0  0  0
    3.4757    0.3139   -0.7344 C   0  0  0  0  0  0  0  0  0  0  0  0
    2.7486   -0.2429    0.2944 C   0  0  0  0  0  0  0  0  0  0  0  0
    3.4362   -0.8476    1.3283 C   0  0  0  0  0  0  0  0  0  0  0  0
    4.8108   -0.8634    1.2784 C   0  0  0  0  0  0  0  0  0  0  0  0
    1.4738   -0.0905    0.0961 N   0  0  0  0  0  4  0  0  0  0  0  0
    1.2884    0.5620   -1.0510 C   0  0  0  0  0  0  0  0  0  0  0  0
    2.5326    0.8059   -1.5539 N   0  0  0  0  0  0  0  0  0  0  0  0
    0.1128    0.9835   -1.7322 C   0  0  0  0  0  0  0  0  0  0  0  0
    0.1111    1.6017   -2.8288 O   0  0  0  0  0  0  0  0  0  0  0  0
   -1.2134    0.7706   -1.2795 C   0  0  0  0  0  0  0  0  0  0  0  0
   -1.6231    0.1641   -0.1804 N   0  0  0  0  0  4  0  0  0  0  0  0
    0.0349   -0.5824    1.0501 Zn  0  0  0  0  0  2  0  0  0  0  0  0
   -2.8650    0.0022    0.1769 C   0  0  0  0  0  0  0  0  0  0  0  0
   -3.4456    0.6265   -0.8978 C   0  0  0  0  0  0  0  0  0  0  0  0
   -2.4588    1.0419   -1.6905 N   0  0  0  0  0  0  0  0  0  0  0  0
   -4.8299    0.7080   -0.9642 C   0  0  0  0  0  0  0  0  0  0  0  0
   -5.5872    0.1532    0.0628 C   0  0  0  0  0  0  0  0  0  0  0  0
   -4.9385   -0.4627    1.1187 C   0  0  0  0  0  0  0  0  0  0  0  0
   -3.5482   -0.5619    1.2162 C   0  0  0  0  0  0  0  0  0  0  0  0
   -7.0673    0.2215    0.0254 C   0  0  0  0  0  0  0  0  0  0  0  0
   -7.5571    0.6088    1.3187 N   0  0  0  0  0  0  0  0  0  0  0  0
   -7.6854   -0.9928   -0.4662 N   0  0  0  0  0  0  0  0  0  0  0  0
    6.7221   -2.3467    0.9808 H   0  0  0  0  0  0  0  0  0  0  0  0
    8.1506   -2.1601    0.0070 H   0  0  0  0  0  0  0  0  0  0  0  0
    7.5116   -0.1901   -0.6667 H   0  0  0  0  0  0  0  0  0  0  0  0
    7.1650    0.4595    2.2019 H   0  0  0  0  0  0  0  0  0  0  0  0
    7.8003    1.4782    0.9266 H   0  0  0  0  0  0  0  0  0  0  0  0
    5.3800    0.7163   -1.5561 H   0  0  0  0  0  0  0  0  0  0  0  0
    2.9107   -1.2990    2.1587 H   0  0  0  0  0  0  0  0  0  0  0  0
    5.3180   -1.3556    2.1230 H   0  0  0  0  0  0  0  0  0  0  0  0
    2.8761    1.2937   -2.4387 H   0  0  0  0  0  0  0  0  0  0  0  0
   -2.7012    1.5590   -2.5941 H   0  0  0  0  0  0  0  0  0  0  0  0
   -5.3160    1.1947   -1.8001 H   0  0  0  0  0  0  0  0  0  0  0  0
   -5.5319   -0.8933    1.9162 H   0  0  0  0  0  0  0  0  0  0  0  0
   -3.0159   -1.0272    2.0115 H   0  0  0  0  0  0  0  0  0  0  0  0
   -7.3653    1.0152   -0.7113 H   0  0  0  0  0  0  0  0  0  0  0  0
   -8.1463    1.4692    1.2637 H   0  0  0  0  0  0  0  0  0  0  0  0
   -6.7644    0.8065    1.9695 H   0  0  0  0  0  0  0  0  0  0  0  0
   -7.5601   -1.8109    0.1597 H   0  0  0  0  0  0  0  0  0  0  0  0
   -7.3102   -1.1502   -1.4274 H   0  0  0  0  0  0  0  0  0  0  0  0
  1  2  1  0
  2  3  1  0
  2  4  1  0
  4  5  2  0
  5  6  1  0
  6  7  2  0
  7  8  1  0
  8  9  2  0
  7 10  1  0
 10 11  2  0
 11 12  1  0
 11 13  1  0
 13 14  2  0
 13 15  1  0
 15 16  2  0
 16 17  1  0
 16 18  1  0
 18 19  2  0
 19 20  1  0
 19 21  1  0
 21 22  2  0
 22 23  1  0
 23 24  2  0
 22 25  1  0
 25 26  1  0
 25 27  1  0
  9  4  1  0
 17 10  1  0
 24 18  1  0
 12  6  1  0
 20 15  1  0
  1 28  1  0
  1 29  1  0
  2 30  1  0
  3 31  1  0
  3 32  1  0
  5 33  1  0
  8 34  1  0
  9 35  1  0
 12 36  1  0
 20 37  1  0
 21 38  1  0
 23 39  1  0
 24 40  1  0
 25 41  1  0
 26 42  1  0
 26 43  1  0
 27 44  1  0
 27 45  1  0
M  CHG  2  10   1  16   1
M  END
$$$$
