
     RDKit          3D

 51 52  0  0  0  0  0  0  0  0999 V2000
   -7.7320    1.2762    0.5756 C   0  0  0  0  0  0  0  0  0  0  0  0
   -6.1889    1.0912    0.4359 C   0  0  0  0  0  0  0  0  0  0  0  0
   -5.9395   -0.1069    1.3918 C   0  0  0  0  0  0  0  0  0  0  0  0
   -5.9646    0.6473   -0.8500 N   0  0  0  0  0  0  0  0  0  0  0  0
   -4.8266    0.6679   -1.5990 C   0  0  0  0  0  0  0  0  0  0  0  0
   -3.6000   -0.1018   -1.3070 C   0  0  0  0  0  0  0  0  0  0  0  0
   -2.7275    0.1355   -2.4137 O   0  0  0  0  0  0  0  0  0  0  0  0
   -2.7882    0.5138   -0.1539 C   0  0  0  0  0  0  0  0  0  0  0  0
   -1.6101   -0.0511    0.0881 O   0  0  0  0  0  0  0  0  0  0  0  0
   -0.4346   -0.2592   -0.4623 C   0  0  0  0  0  0  0  0  0  0  0  0
    0.2654   -1.0033    0.5152 C   0  0  0  0  0  0  0  0  0  0  0  0
    1.5899   -1.4489    0.3423 C   0  0  0  0  0  0  0  0  0  0  0  0
    2.2436   -1.1437   -0.8465 C   0  0  0  0  0  0  0  0  0  0  0  0
    3.6330   -1.5566   -1.1374 C   0  0  0  0  0  0  0  0  0  0  0  0
    4.6443   -0.5492   -0.7038 C   0  0  0  0  0  0  0  0  0  0  0  0
    4.6247   -0.2799    0.6441 O   0  0  0  0  0  0  0  0  0  0  0  0
    5.5788    0.6605    1.0049 C   0  0  0  0  0  0  0  0  0  0  0  0
    6.9890    0.2651    0.7034 C   0  0  0  0  0  0  0  0  0  0  0  0
    7.5999   -0.9488    1.2944 C   0  0  0  0  0  0  0  0  0  0  0  0
    7.9084    0.3880    1.9217 C   0  0  0  0  0  0  0  0  0  0  0  0
    1.6046   -0.4216   -1.8278 C   0  0  0  0  0  0  0  0  0  0  0  0
    0.3171   -0.0259   -1.5801 C   0  0  0  0  0  0  0  0  0  0  0  0
   -7.9843    2.3244    0.3010 H   0  0  0  0  0  0  0  0  0  0  0  0
   -8.2687    0.5620   -0.0739 H   0  0  0  0  0  0  0  0  0  0  0  0
   -8.0468    1.0754    1.6145 H   0  0  0  0  0  0  0  0  0  0  0  0
   -5.7550    2.0029    0.8145 H   0  0  0  0  0  0  0  0  0  0  0  0
   -5.2429   -0.8352    0.8810 H   0  0  0  0  0  0  0  0  0  0  0  0
   -6.8573   -0.6773    1.5863 H   0  0  0  0  0  0  0  0  0  0  0  0
   -5.5237    0.2505    2.3316 H   0  0  0  0  0  0  0  0  0  0  0  0
   -6.7789    0.2148   -1.3454 H   0  0  0  0  0  0  0  0  0  0  0  0
   -4.4824    1.7612   -1.7044 H   0  0  0  0  0  0  0  0  0  0  0  0
   -5.1207    0.4612   -2.6913 H   0  0  0  0  0  0  0  0  0  0  0  0
   -3.6843   -1.1876   -1.2397 H   0  0  0  0  0  0  0  0  0  0  0  0
   -3.2239    0.3983   -3.2130 H   0  0  0  0  0  0  0  0  0  0  0  0
   -2.6229    1.5892   -0.5165 H   0  0  0  0  0  0  0  0  0  0  0  0
   -3.3965    0.6734    0.7599 H   0  0  0  0  0  0  0  0  0  0  0  0
   -0.0157   -1.3697    1.5208 H   0  0  0  0  0  0  0  0  0  0  0  0
    2.2205   -2.0163    1.0063 H   0  0  0  0  0  0  0  0  0  0  0  0
    3.7283   -1.7416   -2.2082 H   0  0  0  0  0  0  0  0  0  0  0  0
    3.8526   -2.5297   -0.6194 H   0  0  0  0  0  0  0  0  0  0  0  0
    4.5631    0.3649   -1.3365 H   0  0  0  0  0  0  0  0  0  0  0  0
    5.6472   -0.9809   -0.9231 H   0  0  0  0  0  0  0  0  0  0  0  0
    5.3468    1.5714    0.3843 H   0  0  0  0  0  0  0  0  0  0  0  0
    5.4148    0.9882    2.0515 H   0  0  0  0  0  0  0  0  0  0  0  0
    7.3955    0.5894   -0.2771 H   0  0  0  0  0  0  0  0  0  0  0  0
    7.0020   -1.6790    1.8666 H   0  0  0  0  0  0  0  0  0  0  0  0
    8.4570   -1.3978    0.7698 H   0  0  0  0  0  0  0  0  0  0  0  0
    7.4743    0.5661    2.9093 H   0  0  0  0  0  0  0  0  0  0  0  0
    8.8741    0.8693    1.7376 H   0  0  0  0  0  0  0  0  0  0  0  0
    2.0383   -0.1468   -2.7683 H   0  0  0  0  0  0  0  0  0  0  0  0
   -0.1973    0.5508   -2.3087 H   0  0  0  0  0  0  0  0  0  0  0  0
  1  2  1  0
  2  3  1  0
  2  4  1  0
  4  5  1  0
  5  6  1  0
  6  7  1  0
  6  8  1  0
  8  9  1  0
  9 10  1  0
 10 11  2  0
 11 12  1  0
 12 13  2  0
 13 14  1  0
 14 15  1  0
 15 16  1  0
 16 17  1  0
 17 18  1  0
 18 19  1  0
 19 20  1  0
 13 21  1  0
 21 22  2  0
 22 10  1  0
 20 18  1  0
  1 23  1  0
  1 24  1  0
  1 25  1  0
  2 26  1  0
  3 27  1  0
  3 28  1  0
  3 29  1  0
  4 30  1  0
  5 31  1  0
  5 32  1  0
  6 33  1  0
  7 34  1  0
  8 35  1  0
  8 36  1  0
 11 37  1  0
 12 38  1  0
 14 39  1  0
 14 40  1  0
 15 41  1  0
 15 42  1  0
 17 43  1  0
 17 44  1  0
 18 45  1  0
 19 46  1  0
 19 47  1  0
 20 48  1  0
 20 49  1  0
 21 50  1  0
 22 51  1  0
M  END
$$$$
