
     RDKit          3D

 48 52  0  0  0  0  0  0  0  0999 V2000
   -8.1868    0.3403    1.5785 C   0  0  0  0  0  0  0  0  0  0  0  0
   -6.9614   -0.3885    1.0680 C   0  0  0  0  0  0  0  0  0  0  0  0
   -5.9881   -0.3428    0.5078 N   0  0  0  0  0  0  0  0  0  0  0  0
   -5.0711   -1.2508    0.2190 C   0  0  0  0  0  0  0  0  0  0  0  0
   -3.8092   -0.9980   -0.5377 C   0  0  0  0  0  0  0  0  0  0  0  0
   -3.5569   -1.2509   -1.8140 N   0  0  0  0  0  0  0  0  0  0  0  0
   -2.3096   -0.8749   -2.1112 N   0  0  0  0  0  0  0  0  0  0  0  0
   -1.7520   -0.3654   -0.9885 C   0  0  0  0  0  0  0  0  0  0  0  0
   -2.6701   -0.4479   -0.0487 N   0  0  0  0  0  0  0  0  0  0  0  0
   -2.4469    0.0074    1.3226 C   0  0  0  0  0  0  0  0  0  0  0  0
   -1.6268    1.2980    1.1606 C   0  0  0  0  0  0  0  0  0  0  0  0
   -0.3649    0.8452    0.5877 N   0  0  0  0  0  0  0  0  0  0  0  0
    0.8209    1.0397    1.2877 C   0  0  0  0  0  0  0  0  0  0  0  0
    0.8186    1.6068    2.4337 O   0  0  0  0  0  0  0  0  0  0  0  0
    2.1225    0.6086    0.7499 C   0  0  0  0  0  0  0  0  0  0  0  0
    2.4652   -0.7030    0.5574 C   0  0  0  0  0  0  0  0  0  0  0  0
    3.7130   -1.0432    0.0414 C   0  0  0  0  0  0  0  0  0  0  0  0
    4.6409   -0.0810   -0.2901 C   0  0  0  0  0  0  0  0  0  0  0  0
    5.9493   -0.4184   -0.8191 C   0  0  0  0  0  0  0  0  0  0  0  0
    6.9978    0.3893   -1.2224 C   0  0  0  0  0  0  0  0  0  0  0  0
    8.1000   -0.1559   -1.6741 C   0  0  0  0  0  0  0  0  0  0  0  0
    8.2184   -1.5577   -1.7501 C   0  0  0  0  0  0  0  0  0  0  0  0
    6.5909   -2.0314   -1.1087 S   0  0  0  0  0  0  0  0  0  0  0  0
    4.2989    1.2128   -0.0973 C   0  0  0  0  0  0  0  0  0  0  0  0
    3.0733    1.5753    0.4100 C   0  0  0  0  0  0  0  0  0  0  0  0
   -0.4126    0.2050   -0.6919 C   0  0  2  0  0  0  0  0  0  0  0  0
   -0.0335    1.2413   -1.7420 C   0  0  0  0  0  0  0  0  0  0  0  0
   -5.3911   -2.5341    0.7210 C   0  0  0  0  0  0  0  0  0  0  0  0
   -6.9916   -2.2164    1.5438 S   0  0  0  0  0  0  0  0  0  0  0  0
   -8.3478    1.1331    0.8143 H   0  0  0  0  0  0  0  0  0  0  0  0
   -9.0279   -0.3275    1.7013 H   0  0  0  0  0  0  0  0  0  0  0  0
   -7.9025    0.8266    2.5403 H   0  0  0  0  0  0  0  0  0  0  0  0
   -3.3673    0.1730    1.8858 H   0  0  0  0  0  0  0  0  0  0  0  0
   -1.7824   -0.7621    1.7899 H   0  0  0  0  0  0  0  0  0  0  0  0
   -2.1327    1.8572    0.3323 H   0  0  0  0  0  0  0  0  0  0  0  0
   -1.5244    1.8509    2.0910 H   0  0  0  0  0  0  0  0  0  0  0  0
    1.7459   -1.4656    0.8260 H   0  0  0  0  0  0  0  0  0  0  0  0
    3.9439   -2.0763   -0.0951 H   0  0  0  0  0  0  0  0  0  0  0  0
    6.8357    1.4967   -1.1377 H   0  0  0  0  0  0  0  0  0  0  0  0
    8.9970    0.4315   -2.0203 H   0  0  0  0  0  0  0  0  0  0  0  0
    8.9839   -2.1777   -2.0690 H   0  0  0  0  0  0  0  0  0  0  0  0
    5.0285    1.9804   -0.3517 H   0  0  0  0  0  0  0  0  0  0  0  0
    2.7796    2.6008    0.5738 H   0  0  0  0  0  0  0  0  0  0  0  0
    0.3016   -0.6401   -0.8202 H   0  0  0  0  0  0  0  0  0  0  0  0
    0.6727    0.8119   -2.4985 H   0  0  0  0  0  0  0  0  0  0  0  0
    0.4162    2.1268   -1.2631 H   0  0  0  0  0  0  0  0  0  0  0  0
   -0.9859    1.5450   -2.2596 H   0  0  0  0  0  0  0  0  0  0  0  0
   -4.8711   -3.4863    0.6669 H   0  0  0  0  0  0  0  0  0  0  0  0
  1  2  1  0
  2  3  2  0
  3  4  1  0
  4  5  1  0
  5  6  2  0
  6  7  1  0
  7  8  2  0
  8  9  1  0
  9 10  1  0
 10 11  1  0
 11 12  1  0
 12 13  1  0
 13 14  2  0
 13 15  1  0
 15 16  2  0
 16 17  1  0
 17 18  2  0
 18 19  1  0
 19 20  2  0
 20 21  1  0
 21 22  2  0
 22 23  1  0
 18 24  1  0
 24 25  2  0
 12 26  1  0
 26 27  1  0
  4 28  2  0
 28 29  1  0
 29  2  1  0
  9  5  1  0
 25 15  1  0
 26  8  1  0
 23 19  1  0
  1 30  1  0
  1 31  1  0
  1 32  1  0
 10 33  1  0
 10 34  1  0
 11 35  1  0
 11 36  1  0
 16 37  1  0
 17 38  1  0
 20 39  1  0
 21 40  1  0
 22 41  1  0
 24 42  1  0
 25 43  1  0
 26 44  1  1
 27 45  1  0
 27 46  1  0
 27 47  1  0
 28 48  1  0
M  END
$$$$
