
     RDKit          3D

 45 49  0  0  0  0  0  0  0  0999 V2000
   -2.3325    2.4492    0.2508 N   0  0  0  0  0  0  0  0  0  0  0  0
   -1.7430    1.2425   -0.2908 C   0  0  1  0  0  0  0  0  0  0  0  0
   -0.2668    1.1435    0.0340 C   0  0  0  0  0  0  0  0  0  0  0  0
    0.2751   -0.0514   -0.6958 C   0  0  1  0  0  0  0  0  0  0  0  0
    1.2645   -0.6994    0.1138 N   0  0  0  0  0  0  0  0  0  0  0  0
    1.8598   -1.8548   -0.4725 C   0  0  0  0  0  0  0  0  0  0  0  0
    3.3325   -1.6634   -0.4232 C   0  0  0  0  0  0  0  0  0  0  0  0
    4.5023   -2.2167   -0.7018 N   0  0  0  0  0  0  0  0  0  0  0  0
    5.5026   -1.3906   -0.3547 N   0  0  0  0  0  0  0  0  0  0  0  0
    6.8024   -1.5632   -0.4649 N   0  0  0  0  0  0  0  0  0  0  0  0
    7.6206   -0.5829   -0.0438 C   0  0  0  0  0  0  0  0  0  0  0  0
    7.1021    0.5667    0.4872 C   0  0  0  0  0  0  0  0  0  0  0  0
    5.7666    0.6934    0.5777 N   0  0  0  0  0  0  0  0  0  0  0  0
    4.9347   -0.2800    0.1600 C   0  0  0  0  0  0  0  0  0  0  0  0
    3.5688   -0.4407    0.1218 C   0  0  0  0  0  0  0  0  0  0  0  0
    2.2955    0.2263    0.4542 C   0  0  0  0  0  0  0  0  0  0  0  0
   -0.8634   -0.9620   -1.0837 C   0  0  0  0  0  0  0  0  0  0  0  0
   -1.8072   -1.1251   -0.1020 O   0  0  0  0  0  0  0  0  0  0  0  0
   -2.3992    0.0238    0.3504 C   0  0  2  0  0  0  0  0  0  0  0  0
   -3.8638    0.0509    0.2441 C   0  0  0  0  0  0  0  0  0  0  0  0
   -4.6214    0.6550    1.2425 C   0  0  0  0  0  0  0  0  0  0  0  0
   -5.9980    0.7030    1.1822 C   0  0  0  0  0  0  0  0  0  0  0  0
   -6.7199    1.2937    2.1603 F   0  0  0  0  0  0  0  0  0  0  0  0
   -6.6780    0.1490    0.1209 C   0  0  0  0  0  0  0  0  0  0  0  0
   -5.9327   -0.4531   -0.8752 C   0  0  0  0  0  0  0  0  0  0  0  0
   -4.5620   -0.4950   -0.8047 C   0  0  0  0  0  0  0  0  0  0  0  0
   -3.9002   -1.0996   -1.8138 F   0  0  0  0  0  0  0  0  0  0  0  0
   -1.7551    3.2669   -0.0457 H   0  0  0  0  0  0  0  0  0  0  0  0
   -2.2597    2.3912    1.2897 H   0  0  0  0  0  0  0  0  0  0  0  0
   -1.8508    1.2524   -1.3753 H   0  0  0  0  0  0  0  0  0  0  0  0
   -0.2024    0.9944    1.1482 H   0  0  0  0  0  0  0  0  0  0  0  0
    0.2119    2.0958   -0.2728 H   0  0  0  0  0  0  0  0  0  0  0  0
    0.7931    0.3346   -1.6044 H   0  0  0  0  0  0  0  0  0  0  0  0
    1.6356   -2.7268    0.2043 H   0  0  0  0  0  0  0  0  0  0  0  0
    1.5442   -2.0574   -1.5164 H   0  0  0  0  0  0  0  0  0  0  0  0
    8.6870   -0.7668   -0.1533 H   0  0  0  0  0  0  0  0  0  0  0  0
    7.7908    1.3352    0.8162 H   0  0  0  0  0  0  0  0  0  0  0  0
    2.3269    0.4250    1.5645 H   0  0  0  0  0  0  0  0  0  0  0  0
    2.1915    1.2181   -0.0202 H   0  0  0  0  0  0  0  0  0  0  0  0
   -1.2628   -0.5797   -2.0476 H   0  0  0  0  0  0  0  0  0  0  0  0
   -0.4863   -1.9984   -1.3302 H   0  0  0  0  0  0  0  0  0  0  0  0
   -2.1406    0.1082    1.4474 H   0  0  0  0  0  0  0  0  0  0  0  0
   -4.1178    1.0983    2.0875 H   0  0  0  0  0  0  0  0  0  0  0  0
   -7.7693    0.1777    0.0564 H   0  0  0  0  0  0  0  0  0  0  0  0
   -6.4755   -0.8877   -1.7087 H   0  0  0  0  0  0  0  0  0  0  0  0
  1  2  1  0
  2  3  1  0
  3  4  1  0
  4  5  1  0
  5  6  1  0
  6  7  1  0
  7  8  2  0
  8  9  1  0
  9 10  1  0
 10 11  2  0
 11 12  1  0
 12 13  2  0
 13 14  1  0
 14 15  2  0
 15 16  1  0
  4 17  1  0
 17 18  1  0
 18 19  1  0
 19 20  1  0
 20 21  2  0
 21 22  1  0
 22 23  1  0
 22 24  2  0
 24 25  1  0
 25 26  2  0
 26 27  1  0
 19  2  1  0
 26 20  1  0
 16  5  1  0
 15  7  1  0
 14  9  1  0
  1 28  1  0
  1 29  1  0
  2 30  1  6
  3 31  1  0
  3 32  1  0
  4 33  1  6
  6 34  1  0
  6 35  1  0
 11 36  1  0
 12 37  1  0
 16 38  1  0
 16 39  1  0
 17 40  1  0
 17 41  1  0
 19 42  1  1
 21 43  1  0
 24 44  1  0
 25 45  1  0
M  END
$$$$
