
     RDKit          3D

 72 77  0  0  0  0  0  0  0  0999 V2000
   -6.2209    2.6823    0.8724 C   0  0  0  0  0  0  0  0  0  0  0  0
   -7.0740    1.5563    0.4254 C   0  0  0  0  0  0  0  0  0  0  0  0
   -8.4660    1.7000    0.4461 C   0  0  0  0  0  0  0  0  0  0  0  0
   -9.3039    0.6844    0.0311 C   0  0  0  0  0  0  0  0  0  0  0  0
  -10.7482    0.8198    0.0470 C   0  0  0  0  0  0  0  0  0  0  0  0
  -11.4484   -0.1400   -0.3419 O   0  0  0  0  0  0  0  0  0  0  0  0
  -11.3507    1.9783    0.4795 O   0  0  0  0  0  0  0  0  0  0  0  0
   -8.6947   -0.4750   -0.4033 C   0  0  0  0  0  0  0  0  0  0  0  0
   -7.3326   -0.6387   -0.4325 C   0  0  0  0  0  0  0  0  0  0  0  0
   -6.4988    0.3902   -0.0123 C   0  0  0  0  0  0  0  0  0  0  0  0
   -5.0547    0.1768   -0.0476 C   0  0  0  0  0  0  0  0  0  0  0  0
   -4.4696   -0.3228   -1.2036 C   0  0  0  0  0  0  0  0  0  0  0  0
   -3.1017   -0.5339   -1.2263 C   0  0  0  0  0  0  0  0  0  0  0  0
   -2.2977   -0.2661   -0.1422 C   0  0  0  0  0  0  0  0  0  0  0  0
   -0.9054   -0.5155   -0.2641 N   0  0  0  0  0  0  0  0  0  0  0  0
   -0.1994   -1.7335    0.0367 C   0  0  0  0  0  0  0  0  0  0  0  0
   -0.7524   -2.7646    0.4601 O   0  0  0  0  0  0  0  0  0  0  0  0
    1.2063   -1.5596   -0.2269 N   0  0  0  0  0  0  0  0  0  0  0  0
    2.0915   -2.6474   -0.4608 C   0  0  0  0  0  0  0  0  0  0  0  0
    2.3303   -3.1378   -1.7364 C   0  0  0  0  0  0  0  0  0  0  0  0
    3.1657   -4.1764   -2.0024 C   0  0  0  0  0  0  0  0  0  0  0  0
    3.7951   -4.7572   -0.9538 N   0  0  0  0  0  0  0  0  0  0  0  0
    3.5789   -4.2984    0.2927 C   0  0  0  0  0  0  0  0  0  0  0  0
    2.7386   -3.2556    0.5485 N   0  0  0  0  0  0  0  0  0  0  0  0
    1.4342   -0.1338   -0.1947 C   0  0  0  0  0  0  0  0  0  0  0  0
    2.5012    0.3393   -1.1235 C   0  0  0  0  0  0  0  0  0  0  0  0
    3.8850    0.1164   -0.6246 C   0  0  0  0  0  0  0  0  0  0  0  0
    4.0908    0.5527    0.7345 N   0  0  0  0  0  0  0  0  0  0  0  0
    5.3333   -0.0860    1.1827 C   0  0  0  0  0  0  0  0  0  0  0  0
    6.4785    0.3124    0.3619 C   0  0  0  0  0  0  0  0  0  0  0  0
    6.9475   -0.5545   -0.5506 N   0  0  0  0  0  0  0  0  0  0  0  0
    7.9817   -0.3173   -1.3647 C   0  0  0  0  0  0  0  0  0  0  0  0
    8.6218    0.9006   -1.2713 C   0  0  0  0  0  0  0  0  0  0  0  0
    8.1722    1.8199   -0.3473 C   0  0  0  0  0  0  0  0  0  0  0  0
    7.1032    1.5523    0.4816 C   0  0  0  0  0  0  0  0  0  0  0  0
    6.5970    2.5166    1.4840 C   0  0  0  0  0  0  0  0  0  0  0  0
    3.0601    0.1420    1.6331 C   0  0  0  0  0  0  0  0  0  0  0  0
    1.6737    0.4243    1.1678 C   0  0  0  0  0  0  0  0  0  0  0  0
    0.1119    0.3729   -0.7077 C   0  0  0  0  0  0  0  0  0  0  0  0
   -0.0843    1.3967   -1.4058 O   0  0  0  0  0  0  0  0  0  0  0  0
   -2.8854    0.2280    0.9979 C   0  0  0  0  0  0  0  0  0  0  0  0
   -4.2612    0.4450    1.0338 C   0  0  0  0  0  0  0  0  0  0  0  0
   -5.2255    2.6050    0.4350 H   0  0  0  0  0  0  0  0  0  0  0  0
   -6.6747    3.6405    0.5125 H   0  0  0  0  0  0  0  0  0  0  0  0
   -6.1752    2.6653    1.9803 H   0  0  0  0  0  0  0  0  0  0  0  0
   -8.9270    2.6115    0.7883 H   0  0  0  0  0  0  0  0  0  0  0  0
  -12.3738    2.1083    0.4606 H   0  0  0  0  0  0  0  0  0  0  0  0
   -9.3507   -1.2754   -0.7303 H   0  0  0  0  0  0  0  0  0  0  0  0
   -6.8564   -1.5505   -0.7744 H   0  0  0  0  0  0  0  0  0  0  0  0
   -5.1055   -0.5331   -2.0571 H   0  0  0  0  0  0  0  0  0  0  0  0
   -2.6666   -0.9254   -2.1424 H   0  0  0  0  0  0  0  0  0  0  0  0
    1.8159   -2.6572   -2.5574 H   0  0  0  0  0  0  0  0  0  0  0  0
    3.3707   -4.5795   -2.9841 H   0  0  0  0  0  0  0  0  0  0  0  0
    4.1114   -4.8041    1.0944 H   0  0  0  0  0  0  0  0  0  0  0  0
    2.3419    1.4216   -1.3103 H   0  0  0  0  0  0  0  0  0  0  0  0
    2.3850   -0.1992   -2.0870 H   0  0  0  0  0  0  0  0  0  0  0  0
    4.2067   -0.9430   -0.6900 H   0  0  0  0  0  0  0  0  0  0  0  0
    4.5910    0.6977   -1.2619 H   0  0  0  0  0  0  0  0  0  0  0  0
    5.1813   -1.1696    1.1323 H   0  0  0  0  0  0  0  0  0  0  0  0
    5.5215    0.1650    2.2678 H   0  0  0  0  0  0  0  0  0  0  0  0
    8.3302   -1.0611   -2.0984 H   0  0  0  0  0  0  0  0  0  0  0  0
    9.4720    1.1167   -1.9288 H   0  0  0  0  0  0  0  0  0  0  0  0
    8.6789    2.7842   -0.2735 H   0  0  0  0  0  0  0  0  0  0  0  0
    5.7187    3.0515    1.1027 H   0  0  0  0  0  0  0  0  0  0  0  0
    6.4534    2.0611    2.4840 H   0  0  0  0  0  0  0  0  0  0  0  0
    7.3934    3.3031    1.6332 H   0  0  0  0  0  0  0  0  0  0  0  0
    3.2218   -0.9064    1.9770 H   0  0  0  0  0  0  0  0  0  0  0  0
    3.2074    0.7506    2.5765 H   0  0  0  0  0  0  0  0  0  0  0  0
    1.5637    1.5333    1.0964 H   0  0  0  0  0  0  0  0  0  0  0  0
    0.9696    0.0219    1.9284 H   0  0  0  0  0  0  0  0  0  0  0  0
   -2.2590    0.4483    1.8751 H   0  0  0  0  0  0  0  0  0  0  0  0
   -4.6689    0.8260    1.9422 H   0  0  0  0  0  0  0  0  0  0  0  0
  1  2  1  0
  2  3  2  0
  3  4  1  0
  4  5  1  0
  5  6  2  0
  5  7  1  0
  4  8  2  0
  8  9  1  0
  9 10  2  0
 10 11  1  0
 11 12  2  0
 12 13  1  0
 13 14  2  0
 14 15  1  0
 15 16  1  0
 16 17  2  0
 16 18  1  0
 18 19  1  0
 19 20  2  0
 20 21  1  0
 21 22  2  0
 22 23  1  0
 23 24  2  0
 18 25  1  0
 25 26  1  0
 26 27  1  0
 27 28  1  0
 28 29  1  0
 29 30  1  0
 30 31  2  0
 31 32  1  0
 32 33  2  0
 33 34  1  0
 34 35  2  0
 35 36  1  0
 28 37  1  0
 37 38  1  0
 25 39  1  0
 39 40  2  0
 14 41  1  0
 41 42  2  0
 10  2  1  0
 42 11  1  0
 39 15  1  0
 24 19  1  0
 38 25  1  0
 35 30  1  0
  1 43  1  0
  1 44  1  0
  1 45  1  0
  3 46  1  0
  7 47  1  0
  8 48  1  0
  9 49  1  0
 12 50  1  0
 13 51  1  0
 20 52  1  0
 21 53  1  0
 23 54  1  0
 26 55  1  0
 26 56  1  0
 27 57  1  0
 27 58  1  0
 29 59  1  0
 29 60  1  0
 32 61  1  0
 33 62  1  0
 34 63  1  0
 36 64  1  0
 36 65  1  0
 36 66  1  0
 37 67  1  0
 37 68  1  0
 38 69  1  0
 38 70  1  0
 41 71  1  0
 42 72  1  0
M  END
$$$$
