
     RDKit          3D

 70 74  0  0  0  0  0  0  0  0999 V2000
    5.8866   -1.8128   -1.8803 C   0  0  0  0  0  0  0  0  0  0  0  0
    4.5833   -1.1123   -1.5492 C   0  0  0  0  0  0  0  0  0  0  0  0
    4.7120   -0.2264   -0.3440 C   0  0  2  0  0  0  0  0  0  0  0  0
    3.3960    0.4232   -0.0943 C   0  0  0  0  0  0  0  0  0  0  0  0
    3.2442    1.6462   -0.0480 O   0  0  0  0  0  0  0  0  0  0  0  0
    2.2815   -0.4302    0.0985 N   0  0  0  0  0  0  0  0  0  0  0  0
    0.9555   -0.0255    0.3518 C   0  0  0  0  0  0  0  0  0  0  0  0
    0.5166    1.2665    0.4661 C   0  0  0  0  0  0  0  0  0  0  0  0
   -0.8224    1.5838    0.7267 C   0  0  0  0  0  0  0  0  0  0  0  0
   -1.7433    0.5729    0.8762 C   0  0  0  0  0  0  0  0  0  0  0  0
   -1.3418   -0.7500    0.7680 C   0  0  0  0  0  0  0  0  0  0  0  0
   -2.0162   -1.9514    0.8687 C   0  0  0  0  0  0  0  0  0  0  0  0
   -3.4313   -2.1489    1.1462 C   0  0  0  0  0  0  0  0  0  0  0  0
   -3.9182   -3.4435    1.2657 C   0  0  0  0  0  0  0  0  0  0  0  0
   -5.2535   -3.6673    1.5435 C   0  0  0  0  0  0  0  0  0  0  0  0
   -6.0579   -2.6028    1.6927 N   0  0  0  0  0  0  0  0  0  0  0  0
   -5.6069   -1.3512    1.5808 C   0  0  0  0  0  0  0  0  0  0  0  0
   -6.4655   -0.2201    1.7472 N   0  0  0  0  0  0  0  0  0  0  0  0
   -7.2594    0.2554    0.6726 C   0  0  0  0  0  0  0  0  0  0  0  0
   -7.3897   -0.2277   -0.6085 C   0  0  0  0  0  0  0  0  0  0  0  0
   -8.2630    0.5272   -1.3010 N   0  0  0  0  0  0  0  0  0  0  0  0
   -8.6777    0.3422   -2.6968 C   0  0  0  0  0  0  0  0  0  0  0  0
   -8.6722    1.4684   -0.4650 N   0  0  0  0  0  0  0  0  0  0  0  0
   -8.0968    1.3476    0.7362 C   0  0  0  0  0  0  0  0  0  0  0  0
   -8.2752    2.1422    1.8601 O   0  0  0  0  0  0  0  0  0  0  0  0
   -9.1394    3.2528    1.8930 C   0  0  0  0  0  0  0  0  0  0  0  0
   -4.3057   -1.1582    1.3104 N   0  0  0  0  0  0  0  0  0  0  0  0
   -1.0715   -2.9255    0.6669 C   0  0  0  0  0  0  0  0  0  0  0  0
    0.1336   -2.3782    0.4509 N   0  0  0  0  0  0  0  0  0  0  0  0
   -0.0145   -1.0268    0.5105 C   0  0  0  0  0  0  0  0  0  0  0  0
    5.8060    0.6696   -0.4011 N   0  0  0  0  0  0  0  0  0  0  0  0
    5.8731    1.5654   -1.5027 C   0  0  0  0  0  0  0  0  0  0  0  0
    7.3498    1.9786   -1.6274 C   0  0  0  0  0  0  0  0  0  0  0  0
    8.1158    1.5544   -0.4727 N   0  0  0  0  0  0  0  0  0  0  0  0
    8.4622    0.1478   -0.5062 C   0  0  0  0  0  0  0  0  0  0  0  0
    7.4539    1.9169    0.7766 C   0  0  0  0  0  0  0  0  0  0  0  0
    6.0074    1.4391    0.8058 C   0  0  0  0  0  0  0  0  0  0  0  0
    6.5034   -1.2729   -2.6021 H   0  0  0  0  0  0  0  0  0  0  0  0
    5.6849   -2.8205   -2.3523 H   0  0  0  0  0  0  0  0  0  0  0  0
    6.3836   -2.0537   -0.9225 H   0  0  0  0  0  0  0  0  0  0  0  0
    3.8686   -1.9228   -1.3049 H   0  0  0  0  0  0  0  0  0  0  0  0
    4.1690   -0.5787   -2.4309 H   0  0  0  0  0  0  0  0  0  0  0  0
    4.8844   -0.9052    0.5375 H   0  0  0  0  0  0  0  0  0  0  0  0
    2.4663   -1.4828    0.0517 H   0  0  0  0  0  0  0  0  0  0  0  0
    1.1854    2.0764    0.3608 H   0  0  0  0  0  0  0  0  0  0  0  0
   -1.1080    2.6190    0.8067 H   0  0  0  0  0  0  0  0  0  0  0  0
   -2.7818    0.7930    1.0787 H   0  0  0  0  0  0  0  0  0  0  0  0
   -3.2632   -4.2760    1.1440 H   0  0  0  0  0  0  0  0  0  0  0  0
   -5.6628   -4.6625    1.6423 H   0  0  0  0  0  0  0  0  0  0  0  0
   -6.5037    0.2597    2.6780 H   0  0  0  0  0  0  0  0  0  0  0  0
   -6.8694   -1.0872   -1.0062 H   0  0  0  0  0  0  0  0  0  0  0  0
   -9.5852    0.9665   -2.8416 H   0  0  0  0  0  0  0  0  0  0  0  0
   -7.8708    0.5846   -3.3895 H   0  0  0  0  0  0  0  0  0  0  0  0
   -9.0338   -0.7094   -2.7574 H   0  0  0  0  0  0  0  0  0  0  0  0
   -8.7516    4.0366    2.6012 H   0  0  0  0  0  0  0  0  0  0  0  0
  -10.1783    2.9927    2.1264 H   0  0  0  0  0  0  0  0  0  0  0  0
   -9.0972    3.7208    0.8698 H   0  0  0  0  0  0  0  0  0  0  0  0
   -1.2620   -3.9824    0.6778 H   0  0  0  0  0  0  0  0  0  0  0  0
    1.0155   -2.9010    0.2705 H   0  0  0  0  0  0  0  0  0  0  0  0
    5.6156    1.1084   -2.4790 H   0  0  0  0  0  0  0  0  0  0  0  0
    5.3118    2.4920   -1.3141 H   0  0  0  0  0  0  0  0  0  0  0  0
    7.8346    1.4939   -2.5055 H   0  0  0  0  0  0  0  0  0  0  0  0
    7.4612    3.0567   -1.7428 H   0  0  0  0  0  0  0  0  0  0  0  0
    8.4082   -0.2967   -1.5152 H   0  0  0  0  0  0  0  0  0  0  0  0
    7.8752   -0.4451    0.2452 H   0  0  0  0  0  0  0  0  0  0  0  0
    9.5408    0.0730   -0.1896 H   0  0  0  0  0  0  0  0  0  0  0  0
    8.0400    1.4752    1.6019 H   0  0  0  0  0  0  0  0  0  0  0  0
    7.5431    3.0142    0.8715 H   0  0  0  0  0  0  0  0  0  0  0  0
    5.3831    2.3803    0.7641 H   0  0  0  0  0  0  0  0  0  0  0  0
    5.8376    0.8540    1.7073 H   0  0  0  0  0  0  0  0  0  0  0  0
  1  2  1  0
  2  3  1  0
  3  4  1  0
  4  5  2  0
  4  6  1  0
  6  7  1  0
  7  8  2  0
  8  9  1  0
  9 10  2  0
 10 11  1  0
 11 12  1  0
 12 13  1  0
 13 14  2  0
 14 15  1  0
 15 16  2  0
 16 17  1  0
 17 18  1  0
 18 19  1  0
 19 20  2  0
 20 21  1  0
 21 22  1  0
 21 23  1  0
 23 24  2  0
 24 25  1  0
 25 26  1  0
 17 27  2  0
 12 28  2  0
 28 29  1  0
 29 30  1  0
  3 31  1  0
 31 32  1  0
 32 33  1  0
 33 34  1  0
 34 35  1  0
 34 36  1  0
 36 37  1  0
 30  7  1  0
 37 31  1  0
 30 11  2  0
 27 13  1  0
 24 19  1  0
  1 38  1  0
  1 39  1  0
  1 40  1  0
  2 41  1  0
  2 42  1  0
  3 43  1  1
  6 44  1  0
  8 45  1  0
  9 46  1  0
 10 47  1  0
 14 48  1  0
 15 49  1  0
 18 50  1  0
 20 51  1  0
 22 52  1  0
 22 53  1  0
 22 54  1  0
 26 55  1  0
 26 56  1  0
 26 57  1  0
 28 58  1  0
 29 59  1  0
 32 60  1  0
 32 61  1  0
 33 62  1  0
 33 63  1  0
 35 64  1  0
 35 65  1  0
 35 66  1  0
 36 67  1  0
 36 68  1  0
 37 69  1  0
 37 70  1  0
M  END
$$$$
