
     RDKit          3D

 53 57  0  0  0  0  0  0  0  0999 V2000
    0.3932    0.1526   -0.8585 C   0  0  2  0  0  0  0  0  0  0  0  0
   -0.2767    1.4277   -1.3159 C   0  0  0  0  0  0  0  0  0  0  0  0
   -1.4262    1.7315   -0.4473 C   0  0  0  0  0  0  0  0  0  0  0  0
   -1.9753    0.7274    0.3161 C   0  0  0  0  0  0  0  0  0  0  0  0
   -3.0438    1.0479    1.1168 C   0  0  0  0  0  0  0  0  0  0  0  0
   -3.5608    2.3338    1.1637 C   0  0  0  0  0  0  0  0  0  0  0  0
   -4.6332    2.7520    1.9382 O   0  0  0  0  0  0  0  0  0  0  0  0
   -2.9711    3.3094    0.3740 C   0  0  0  0  0  0  0  0  0  0  0  0
   -1.8992    3.0332   -0.4427 C   0  0  0  0  0  0  0  0  0  0  0  0
   -1.5130   -0.6855    0.3469 C   0  0  1  0  0  0  0  0  0  0  0  0
   -2.6471   -1.6289    0.2453 C   0  0  0  0  0  0  0  0  0  0  0  0
   -2.2862   -2.9791   -0.3192 C   0  0  0  0  0  0  0  0  0  0  0  0
   -1.6549   -2.8974   -1.6874 C   0  0  0  0  0  0  0  0  0  0  0  0
   -1.1711   -1.4809   -2.0151 C   0  0  0  0  0  0  0  0  0  0  0  0
   -0.5297   -1.0059   -0.7660 C   0  0  1  0  0  0  0  0  0  0  0  0
    0.2487   -2.0896   -0.2889 O   0  0  0  0  0  0  0  0  0  0  0  0
   -0.7013   -0.8355    1.6100 C   0  0  0  0  0  0  0  0  0  0  0  0
    0.5610   -0.0664    1.5790 C   0  0  0  0  0  0  0  0  0  0  0  0
    1.1218    0.2625    0.3362 N   0  0  0  0  0  0  0  0  0  0  0  0
    2.3227    0.9871    0.3337 C   0  0  0  0  0  0  0  0  0  0  0  0
    3.4610    0.1197    0.8217 C   0  0  0  0  0  0  0  0  0  0  0  0
    4.7972    0.8465    0.8647 C   0  0  0  0  0  0  0  0  0  0  0  0
    4.9940    0.4678   -0.5866 C   0  0  0  0  0  0  0  0  0  0  0  0
    4.0787   -0.7169   -0.3214 C   0  0  0  0  0  0  0  0  0  0  0  0
    1.1293   -0.0891   -1.6793 H   0  0  0  0  0  0  0  0  0  0  0  0
    0.4823    2.2376   -1.2678 H   0  0  0  0  0  0  0  0  0  0  0  0
   -0.5714    1.2766   -2.3724 H   0  0  0  0  0  0  0  0  0  0  0  0
   -3.5699    0.3574    1.7655 H   0  0  0  0  0  0  0  0  0  0  0  0
   -5.4424    3.1455    1.4554 H   0  0  0  0  0  0  0  0  0  0  0  0
   -3.3231    4.3384    0.3552 H   0  0  0  0  0  0  0  0  0  0  0  0
   -1.4357    3.8004   -1.0640 H   0  0  0  0  0  0  0  0  0  0  0  0
   -3.1779   -1.8154    1.2009 H   0  0  0  0  0  0  0  0  0  0  0  0
   -3.4201   -1.2013   -0.4309 H   0  0  0  0  0  0  0  0  0  0  0  0
   -1.6825   -3.5302    0.4215 H   0  0  0  0  0  0  0  0  0  0  0  0
   -3.2267   -3.5563   -0.4239 H   0  0  0  0  0  0  0  0  0  0  0  0
   -2.2228   -3.3561   -2.4920 H   0  0  0  0  0  0  0  0  0  0  0  0
   -0.7055   -3.4859   -1.6098 H   0  0  0  0  0  0  0  0  0  0  0  0
   -2.0346   -0.9211   -2.3812 H   0  0  0  0  0  0  0  0  0  0  0  0
   -0.3570   -1.5927   -2.7804 H   0  0  0  0  0  0  0  0  0  0  0  0
    1.0957   -2.0775   -0.8039 H   0  0  0  0  0  0  0  0  0  0  0  0
   -0.5299   -1.9007    1.8673 H   0  0  0  0  0  0  0  0  0  0  0  0
   -1.3338   -0.4262    2.4435 H   0  0  0  0  0  0  0  0  0  0  0  0
    1.3128   -0.6825    2.1641 H   0  0  0  0  0  0  0  0  0  0  0  0
    0.5014    0.8652    2.2276 H   0  0  0  0  0  0  0  0  0  0  0  0
    2.6066    1.3183   -0.7105 H   0  0  0  0  0  0  0  0  0  0  0  0
    2.2966    1.9224    0.9283 H   0  0  0  0  0  0  0  0  0  0  0  0
    3.2335   -0.4762    1.7113 H   0  0  0  0  0  0  0  0  0  0  0  0
    5.5074    0.3151    1.5326 H   0  0  0  0  0  0  0  0  0  0  0  0
    4.7030    1.9280    1.0775 H   0  0  0  0  0  0  0  0  0  0  0  0
    4.5326    1.1529   -1.3043 H   0  0  0  0  0  0  0  0  0  0  0  0
    6.0247    0.1352   -0.8343 H   0  0  0  0  0  0  0  0  0  0  0  0
    3.3426   -0.9004   -1.1007 H   0  0  0  0  0  0  0  0  0  0  0  0
    4.5762   -1.5946    0.1076 H   0  0  0  0  0  0  0  0  0  0  0  0
  1  2  1  0
  2  3  1  0
  3  4  2  0
  4  5  1  0
  5  6  2  0
  6  7  1  0
  6  8  1  0
  8  9  2  0
  4 10  1  0
 10 11  1  1
 11 12  1  0
 12 13  1  0
 13 14  1  0
 14 15  1  0
 15 16  1  1
 10 17  1  0
 17 18  1  0
 18 19  1  0
 19 20  1  0
 20 21  1  0
 21 22  1  0
 22 23  1  0
 23 24  1  0
 15  1  1  0
 24 21  1  0
 19  1  1  0
  9  3  1  0
 15 10  1  0
  1 25  1  6
  2 26  1  0
  2 27  1  0
  5 28  1  0
  7 29  1  0
  8 30  1  0
  9 31  1  0
 11 32  1  0
 11 33  1  0
 12 34  1  0
 12 35  1  0
 13 36  1  0
 13 37  1  0
 14 38  1  0
 14 39  1  0
 16 40  1  0
 17 41  1  0
 17 42  1  0
 18 43  1  0
 18 44  1  0
 20 45  1  0
 20 46  1  0
 21 47  1  0
 22 48  1  0
 22 49  1  0
 23 50  1  0
 23 51  1  0
 24 52  1  0
 24 53  1  0
M  END
$$$$
