
     RDKit          3D

 99101  0  0  0  0  0  0  0  0999 V2000
   -4.4506   -4.8451    0.5592 C   0  0  0  0  0  0  0  0  0  0  0  0
   -4.6328   -3.3991    0.0844 C   0  0  0  0  0  0  0  0  0  0  0  0
   -3.3515   -2.9208   -0.5896 C   0  0  2  0  0  0  0  0  0  0  0  0
   -2.2134   -2.9841    0.4097 C   0  0  0  0  0  0  0  0  0  0  0  0
   -3.4617   -1.6947   -1.3867 C   0  0  2  0  0  0  0  0  0  0  0  0
   -2.2211   -1.2895   -2.0497 N   0  0  0  0  0  0  0  0  0  0  0  0
   -1.1401   -0.6084   -1.4711 C   0  0  0  0  0  0  0  0  0  0  0  0
   -1.1569   -0.3032   -0.2436 O   0  0  0  0  0  0  0  0  0  0  0  0
    0.0571   -0.2220   -2.3034 C   0  0  2  0  0  0  0  0  0  0  0  0
    0.6525   -1.3009   -3.1099 C   0  0  0  0  0  0  0  0  0  0  0  0
    1.1794   -2.4833   -2.3380 C   0  0  0  0  0  0  0  0  0  0  0  0
    1.8005   -3.4873   -3.2662 C   0  0  0  0  0  0  0  0  0  0  0  0
    2.4091   -4.6642   -2.8160 N   0  0  0  0  0  0  0  0  0  0  0  0
    1.7639   -3.2440   -4.5112 O   0  0  0  0  0  0  0  0  0  0  0  0
    1.0176    0.4882   -1.4748 N   0  0  0  0  0  0  0  0  0  0  0  0
    1.2120    1.8789   -1.5317 C   0  0  0  0  0  0  0  0  0  0  0  0
    0.4877    2.5194   -2.3715 O   0  0  0  0  0  0  0  0  0  0  0  0
    2.1871    2.6354   -0.6879 C   0  0  2  0  0  0  0  0  0  0  0  0
    2.9311    3.6857   -1.4291 C   0  0  0  0  0  0  0  0  0  0  0  0
    3.7442    3.2510   -2.5699 C   0  0  0  0  0  0  0  0  0  0  0  0
    3.3256    3.2806   -3.9075 C   0  0  0  0  0  0  0  0  0  0  0  0
    4.2956    2.8009   -4.6931 N   0  0  0  0  0  0  0  0  0  0  0  0
    5.3348    2.4561   -3.9415 C   0  0  0  0  0  0  0  0  0  0  0  0
    6.5691    1.9337   -4.2687 C   0  0  0  0  0  0  0  0  0  0  0  0
    7.4908    1.6798   -3.2788 C   0  0  0  0  0  0  0  0  0  0  0  0
    7.1899    1.9433   -1.9548 C   0  0  0  0  0  0  0  0  0  0  0  0
    5.9650    2.4588   -1.6507 C   0  0  0  0  0  0  0  0  0  0  0  0
    5.0142    2.7267   -2.6234 C   0  0  0  0  0  0  0  0  0  0  0  0
    3.0095    1.7844    0.1060 N   0  0  0  0  0  0  0  0  0  0  0  0
    2.7516    1.5903    1.5091 C   0  0  0  0  0  0  0  0  0  0  0  0
    1.7800    2.1780    2.0289 O   0  0  0  0  0  0  0  0  0  0  0  0
    3.5427    0.7706    2.3124 O   0  0  0  0  0  0  0  0  0  0  0  0
    3.1900    0.6257    3.6989 C   0  0  0  0  0  0  0  0  0  0  0  0
    4.1892   -0.2682    4.3231 C   0  0  0  0  0  0  0  0  0  0  0  0
    4.0240   -1.6358    4.2750 C   0  0  0  0  0  0  0  0  0  0  0  0
    4.9013   -2.5307    4.8430 C   0  0  0  0  0  0  0  0  0  0  0  0
    5.9975   -1.9813    5.4890 C   0  0  0  0  0  0  0  0  0  0  0  0
    6.2115   -0.6309    5.5675 C   0  0  0  0  0  0  0  0  0  0  0  0
    5.2889    0.2326    4.9729 C   0  0  0  0  0  0  0  0  0  0  0  0
   -4.0026   -0.4756   -0.7598 C   0  0  0  0  0  0  0  0  0  0  0  0
   -3.3465    0.6381   -0.7747 O   0  0  0  0  0  0  0  0  0  0  0  0
   -5.2469   -0.3451   -0.0916 N   0  0  0  0  0  0  0  0  0  0  0  0
   -5.6813    0.9286    0.5109 C   0  0  2  0  0  0  0  0  0  0  0  0
   -6.1100    0.7428    1.9026 C   0  0  0  0  0  0  0  0  0  0  0  0
   -5.5469    1.4607    2.8628 C   0  0  0  0  0  0  0  0  0  0  0  0
   -4.2987    2.6518    2.6161 S   0  0  0  0  0  6  0  0  0  0  0  0
   -4.0356    3.6034    4.1200 C   0  0  0  0  0  0  0  0  0  0  0  0
   -4.6579    3.6623    1.5608 O   0  0  0  0  0  0  0  0  0  0  0  0
   -3.0195    1.9888    2.2133 O   0  0  0  0  0  0  0  0  0  0  0  0
   -6.9228    1.3452   -0.2876 C   0  0  0  0  0  0  0  0  0  0  0  0
   -8.0068    0.3417   -0.2010 C   0  0  0  0  0  0  0  0  0  0  0  0
   -8.0142   -0.7150   -0.9044 O   0  0  0  0  0  0  0  0  0  0  0  0
   -9.0649    0.5208    0.6611 O   0  0  0  0  0  0  0  0  0  0  0  0
   -4.0064   -4.8472    1.5716 H   0  0  0  0  0  0  0  0  0  0  0  0
   -5.5117   -5.2139    0.6876 H   0  0  0  0  0  0  0  0  0  0  0  0
   -3.9677   -5.4847   -0.1761 H   0  0  0  0  0  0  0  0  0  0  0  0
   -5.4903   -3.3080   -0.5784 H   0  0  0  0  0  0  0  0  0  0  0  0
   -4.8068   -2.8259    1.0094 H   0  0  0  0  0  0  0  0  0  0  0  0
   -3.1317   -3.7649   -1.3335 H   0  0  0  0  0  0  0  0  0  0  0  0
   -2.2673   -4.0018    0.9252 H   0  0  0  0  0  0  0  0  0  0  0  0
   -1.2155   -2.9761   -0.0443 H   0  0  0  0  0  0  0  0  0  0  0  0
   -2.2679   -2.2509    1.2129 H   0  0  0  0  0  0  0  0  0  0  0  0
   -4.1456   -1.9706   -2.2787 H   0  0  0  0  0  0  0  0  0  0  0  0
   -2.0819   -1.5179   -3.0901 H   0  0  0  0  0  0  0  0  0  0  0  0
   -0.3579    0.5573   -3.0003 H   0  0  0  0  0  0  0  0  0  0  0  0
   -0.1268   -1.7461   -3.8078 H   0  0  0  0  0  0  0  0  0  0  0  0
    1.4046   -0.8895   -3.8130 H   0  0  0  0  0  0  0  0  0  0  0  0
    0.4100   -2.9727   -1.7364 H   0  0  0  0  0  0  0  0  0  0  0  0
    1.9913   -2.1400   -1.6736 H   0  0  0  0  0  0  0  0  0  0  0  0
    3.1808   -4.6288   -2.1279 H   0  0  0  0  0  0  0  0  0  0  0  0
    2.0904   -5.5812   -3.1695 H   0  0  0  0  0  0  0  0  0  0  0  0
    1.5868   -0.0733   -0.8037 H   0  0  0  0  0  0  0  0  0  0  0  0
    1.5595    3.2214    0.0925 H   0  0  0  0  0  0  0  0  0  0  0  0
    2.2287    4.5046   -1.8025 H   0  0  0  0  0  0  0  0  0  0  0  0
    3.5892    4.2842   -0.7146 H   0  0  0  0  0  0  0  0  0  0  0  0
    2.3602    3.6410   -4.2069 H   0  0  0  0  0  0  0  0  0  0  0  0
    4.2384    2.7155   -5.7184 H   0  0  0  0  0  0  0  0  0  0  0  0
    6.8370    1.7144   -5.3077 H   0  0  0  0  0  0  0  0  0  0  0  0
    8.4852    1.2654   -3.4745 H   0  0  0  0  0  0  0  0  0  0  0  0
    7.9193    1.7450   -1.1792 H   0  0  0  0  0  0  0  0  0  0  0  0
    5.7137    2.6730   -0.6016 H   0  0  0  0  0  0  0  0  0  0  0  0
    3.8349    1.2362   -0.2400 H   0  0  0  0  0  0  0  0  0  0  0  0
    3.1854    1.6472    4.1147 H   0  0  0  0  0  0  0  0  0  0  0  0
    2.1630    0.1719    3.6786 H   0  0  0  0  0  0  0  0  0  0  0  0
    3.1507   -2.0259    3.7636 H   0  0  0  0  0  0  0  0  0  0  0  0
    4.7505   -3.5842    4.7888 H   0  0  0  0  0  0  0  0  0  0  0  0
    6.7258   -2.6406    5.9582 H   0  0  0  0  0  0  0  0  0  0  0  0
    7.0964   -0.2490    6.0908 H   0  0  0  0  0  0  0  0  0  0  0  0
    5.4382    1.3002    5.0249 H   0  0  0  0  0  0  0  0  0  0  0  0
   -5.9062   -1.1238   -0.0158 H   0  0  0  0  0  0  0  0  0  0  0  0
   -4.8884    1.6797    0.3926 H   0  0  0  0  0  0  0  0  0  0  0  0
   -6.8855    0.0316    2.1873 H   0  0  0  0  0  0  0  0  0  0  0  0
   -5.8738    1.3119    3.9083 H   0  0  0  0  0  0  0  0  0  0  0  0
   -3.5463    2.9869    4.8784 H   0  0  0  0  0  0  0  0  0  0  0  0
   -3.4472    4.4974    3.8146 H   0  0  0  0  0  0  0  0  0  0  0  0
   -5.0444    3.9748    4.4051 H   0  0  0  0  0  0  0  0  0  0  0  0
   -6.5788    1.4400   -1.3509 H   0  0  0  0  0  0  0  0  0  0  0  0
   -7.3274    2.3086    0.0869 H   0  0  0  0  0  0  0  0  0  0  0  0
   -9.9953    0.1335    0.5144 H   0  0  0  0  0  0  0  0  0  0  0  0
  1  2  1  0
  2  3  1  0
  3  4  1  0
  3  5  1  0
  5  6  1  0
  6  7  1  0
  7  8  2  0
  7  9  1  0
  9 10  1  0
 10 11  1  0
 11 12  1  0
 12 13  1  0
 12 14  2  0
  9 15  1  0
 15 16  1  0
 16 17  2  0
 16 18  1  0
 18 19  1  0
 19 20  1  0
 20 21  2  0
 21 22  1  0
 22 23  1  0
 23 24  2  0
 24 25  1  0
 25 26  2  0
 26 27  1  0
 27 28  2  0
 18 29  1  0
 29 30  1  0
 30 31  2  0
 30 32  1  0
 32 33  1  0
 33 34  1  0
 34 35  2  0
 35 36  1  0
 36 37  2  0
 37 38  1  0
 38 39  2  0
  5 40  1  0
 40 41  2  0
 40 42  1  0
 42 43  1  0
 43 44  1  0
 44 45  2  3
 45 46  1  0
 46 47  1  0
 46 48  2  0
 46 49  2  0
 43 50  1  0
 50 51  1  0
 51 52  2  0
 51 53  1  0
 28 20  1  0
 39 34  1  0
 28 23  1  0
  1 54  1  0
  1 55  1  0
  1 56  1  0
  2 57  1  0
  2 58  1  0
  3 59  1  6
  4 60  1  0
  4 61  1  0
  4 62  1  0
  5 63  1  6
  6 64  1  0
  9 65  1  6
 10 66  1  0
 10 67  1  0
 11 68  1  0
 11 69  1  0
 13 70  1  0
 13 71  1  0
 15 72  1  0
 18 73  1  1
 19 74  1  0
 19 75  1  0
 21 76  1  0
 22 77  1  0
 24 78  1  0
 25 79  1  0
 26 80  1  0
 27 81  1  0
 29 82  1  0
 33 83  1  0
 33 84  1  0
 35 85  1  0
 36 86  1  0
 37 87  1  0
 38 88  1  0
 39 89  1  0
 42 90  1  0
 43 91  1  1
 44 92  1  0
 45 93  1  0
 47 94  1  0
 47 95  1  0
 47 96  1  0
 50 97  1  0
 50 98  1  0
 53 99  1  0
M  END
$$$$
