
     RDKit          3D

 56 59  0  0  0  0  0  0  0  0999 V2000
   -6.9186    2.4230    1.8799 C   0  0  0  0  0  0  0  0  0  0  0  0
   -6.0085    1.5941    1.1119 N   0  0  0  0  0  0  0  0  0  0  0  0
   -5.0798    2.1740    0.1865 C   0  0  0  0  0  0  0  0  0  0  0  0
   -4.7956    3.4114    0.0933 N   0  0  0  0  0  0  0  0  0  0  0  0
   -3.8394    3.6818   -0.9180 C   0  0  0  0  0  0  0  0  0  0  0  0
   -3.3682    2.3341   -1.3902 C   0  0  0  0  0  0  0  0  0  0  0  0
   -4.3272    1.4665   -0.7744 N   0  0  0  0  0  0  0  0  0  0  0  0
   -4.4920    0.0463   -1.1061 C   0  0  0  0  0  0  0  0  0  0  0  0
   -3.2011   -0.6038   -0.8198 C   0  0  0  0  0  0  0  0  0  0  0  0
   -2.2446   -0.6847   -1.8062 C   0  0  0  0  0  0  0  0  0  0  0  0
   -1.0166   -1.2939   -1.5616 C   0  0  0  0  0  0  0  0  0  0  0  0
   -0.7109   -1.8359   -0.3341 C   0  0  0  0  0  0  0  0  0  0  0  0
    0.5569   -2.4795   -0.0387 C   0  0  0  0  0  0  0  0  0  0  0  0
    0.7408   -2.9437    1.1143 O   0  0  0  0  0  0  0  0  0  0  0  0
    1.6051   -2.6229   -0.9586 N   0  0  0  0  0  0  0  0  0  0  0  0
    2.8681   -3.2658   -0.6593 C   0  0  0  0  0  0  0  0  0  0  0  0
    3.0121   -4.6047   -0.8658 C   0  0  0  0  0  0  0  0  0  0  0  0
    4.1860   -5.2410   -0.5950 C   0  0  0  0  0  0  0  0  0  0  0  0
    5.2700   -4.5482   -0.1017 C   0  0  0  0  0  0  0  0  0  0  0  0
    6.7959   -5.3363    0.2575 Cl  0  0  0  0  0  0  0  0  0  0  0  0
    5.1097   -3.1771    0.1055 C   0  0  0  0  0  0  0  0  0  0  0  0
    3.9264   -2.5337   -0.1670 C   0  0  0  0  0  0  0  0  0  0  0  0
    3.7317   -1.0810    0.0440 C   0  0  0  0  0  0  0  0  0  0  0  0
    2.6077   -0.6148   -0.2426 O   0  0  0  0  0  0  0  0  0  0  0  0
    4.7471   -0.2508    0.5407 N   0  0  0  0  0  0  0  0  0  0  0  0
    4.6145    1.1363    0.7599 C   0  0  0  0  0  0  0  0  0  0  0  0
    3.5126    1.9092    0.5389 C   0  0  0  0  0  0  0  0  0  0  0  0
    3.5021    3.2967    0.7987 C   0  0  0  0  0  0  0  0  0  0  0  0
    4.6235    3.9224    1.2917 C   0  0  0  0  0  0  0  0  0  0  0  0
    4.7145    5.6314    1.6463 Cl  0  0  0  0  0  0  0  0  0  0  0  0
    5.7188    3.1128    1.5034 C   0  0  0  0  0  0  0  0  0  0  0  0
    5.7083    1.7980    1.2504 N   0  0  0  0  0  0  0  0  0  0  0  0
   -1.6745   -1.7489    0.6431 C   0  0  0  0  0  0  0  0  0  0  0  0
   -2.9095   -1.1409    0.4114 C   0  0  0  0  0  0  0  0  0  0  0  0
   -7.9343    2.3136    1.4557 H   0  0  0  0  0  0  0  0  0  0  0  0
   -6.9602    2.0982    2.9370 H   0  0  0  0  0  0  0  0  0  0  0  0
   -6.6040    3.4866    1.7864 H   0  0  0  0  0  0  0  0  0  0  0  0
   -6.0655    0.5626    1.2676 H   0  0  0  0  0  0  0  0  0  0  0  0
   -2.9975    4.2624   -0.4385 H   0  0  0  0  0  0  0  0  0  0  0  0
   -4.2387    4.2351   -1.7914 H   0  0  0  0  0  0  0  0  0  0  0  0
   -2.3422    2.1829   -1.0597 H   0  0  0  0  0  0  0  0  0  0  0  0
   -3.3787    2.2724   -2.5016 H   0  0  0  0  0  0  0  0  0  0  0  0
   -4.6715    0.0249   -2.2099 H   0  0  0  0  0  0  0  0  0  0  0  0
   -5.3334   -0.3927   -0.5354 H   0  0  0  0  0  0  0  0  0  0  0  0
   -2.4738   -0.2638   -2.7699 H   0  0  0  0  0  0  0  0  0  0  0  0
   -0.2703   -1.3559   -2.3348 H   0  0  0  0  0  0  0  0  0  0  0  0
    1.5043   -2.2572   -1.9235 H   0  0  0  0  0  0  0  0  0  0  0  0
    2.1830   -5.1690   -1.2496 H   0  0  0  0  0  0  0  0  0  0  0  0
    4.2944   -6.3263   -0.7652 H   0  0  0  0  0  0  0  0  0  0  0  0
    5.9578   -2.6312    0.4922 H   0  0  0  0  0  0  0  0  0  0  0  0
    5.6894   -0.7133    0.7674 H   0  0  0  0  0  0  0  0  0  0  0  0
    2.6202    1.4642    0.1567 H   0  0  0  0  0  0  0  0  0  0  0  0
    2.6158    3.8821    0.6141 H   0  0  0  0  0  0  0  0  0  0  0  0
    6.6136    3.6155    1.8974 H   0  0  0  0  0  0  0  0  0  0  0  0
   -1.5070   -2.1479    1.6209 H   0  0  0  0  0  0  0  0  0  0  0  0
   -3.6667   -1.0736    1.1825 H   0  0  0  0  0  0  0  0  0  0  0  0
  1  2  1  0
  2  3  1  0
  3  4  2  0
  4  5  1  0
  5  6  1  0
  6  7  1  0
  7  8  1  0
  8  9  1  0
  9 10  2  0
 10 11  1  0
 11 12  2  0
 12 13  1  0
 13 14  2  0
 13 15  1  0
 15 16  1  0
 16 17  2  0
 17 18  1  0
 18 19  2  0
 19 20  1  0
 19 21  1  0
 21 22  2  0
 22 23  1  0
 23 24  2  0
 23 25  1  0
 25 26  1  0
 26 27  2  0
 27 28  1  0
 28 29  2  0
 29 30  1  0
 29 31  1  0
 31 32  2  0
 12 33  1  0
 33 34  2  0
  7  3  1  0
 34  9  1  0
 22 16  1  0
 32 26  1  0
  1 35  1  0
  1 36  1  0
  1 37  1  0
  2 38  1  0
  5 39  1  0
  5 40  1  0
  6 41  1  0
  6 42  1  0
  8 43  1  0
  8 44  1  0
 10 45  1  0
 11 46  1  0
 15 47  1  0
 17 48  1  0
 18 49  1  0
 21 50  1  0
 25 51  1  0
 27 52  1  0
 28 53  1  0
 31 54  1  0
 33 55  1  0
 34 56  1  0
M  END
$$$$
