
     RDKit          3D

 63 66  0  0  0  0  0  0  0  0999 V2000
   -0.3937   -1.0501   -0.5928 C   0  0  2  0  0  0  0  0  0  0  0  0
    0.3636   -2.3060   -0.4595 C   0  0  0  0  0  0  0  0  0  0  0  0
    1.7693   -1.8298   -0.8533 C   0  0  0  0  0  0  0  0  0  0  0  0
    1.7598   -0.3172   -0.6633 C   0  0  2  0  0  0  0  0  0  0  0  0
    2.9776    0.1977   -0.0266 C   0  0  0  0  0  0  0  0  0  0  0  0
    2.8661    0.8078    1.0614 O   0  0  0  0  0  0  0  0  0  0  0  0
    4.2077   -0.0390   -0.7031 N   0  0  0  0  0  0  0  0  0  0  0  0
    5.4253    0.4591   -0.0956 C   0  0  0  0  0  0  0  0  0  0  0  0
    5.3714    1.9665    0.0629 C   0  0  0  0  0  0  0  0  0  0  0  0
    6.6068    0.1358   -0.9691 C   0  0  0  0  0  0  0  0  0  0  0  0
    5.6317   -0.1781    1.2509 C   0  0  0  0  0  0  0  0  0  0  0  0
    0.5181   -0.1029    0.1609 C   0  0  2  0  0  0  0  0  0  0  0  0
    0.8217   -0.5829    1.5516 C   0  0  0  0  0  0  0  0  0  0  0  0
   -0.0603    1.2608    0.0795 C   0  0  0  0  0  0  0  0  0  0  0  0
   -1.3434    1.4408   -0.6181 C   0  0  0  0  0  0  0  0  0  0  0  0
   -2.3321    0.3338   -0.5899 C   0  0  1  0  0  0  0  0  0  0  0  0
   -1.7439   -0.9548    0.0108 C   0  0  1  0  0  0  0  0  0  0  0  0
   -2.6740   -2.0644   -0.3505 C   0  0  0  0  0  0  0  0  0  0  0  0
   -3.9769   -1.8122    0.4257 C   0  0  0  0  0  0  0  0  0  0  0  0
   -4.5579   -0.5153   -0.0864 C   0  0  1  0  0  0  0  0  0  0  0  0
   -5.7975   -0.1959    0.5598 N   0  0  0  0  0  0  0  0  0  0  0  0
   -6.4816    0.9606    0.0239 C   0  0  0  0  0  0  0  0  0  0  0  0
   -7.7382    1.1018   -0.0112 O   0  0  0  0  0  0  0  0  0  0  0  0
   -5.5937    2.0214   -0.5055 C   0  0  0  0  0  0  0  0  0  0  0  0
   -4.2609    1.8463   -0.4521 C   0  0  0  0  0  0  0  0  0  0  0  0
   -3.6076    0.6445    0.1120 C   0  0  2  0  0  0  0  0  0  0  0  0
   -3.3976    0.9415    1.5868 C   0  0  0  0  0  0  0  0  0  0  0  0
   -0.4199   -0.7274   -1.6480 H   0  0  0  0  0  0  0  0  0  0  0  0
   -0.0153   -3.0460   -1.1879 H   0  0  0  0  0  0  0  0  0  0  0  0
    0.4489   -2.6787    0.5642 H   0  0  0  0  0  0  0  0  0  0  0  0
    1.8172   -1.9859   -1.9647 H   0  0  0  0  0  0  0  0  0  0  0  0
    2.5642   -2.3401   -0.3118 H   0  0  0  0  0  0  0  0  0  0  0  0
    1.6111    0.2321   -1.6162 H   0  0  0  0  0  0  0  0  0  0  0  0
    4.2367   -0.5613   -1.6200 H   0  0  0  0  0  0  0  0  0  0  0  0
    5.0181    2.4459   -0.8610 H   0  0  0  0  0  0  0  0  0  0  0  0
    4.7224    2.2679    0.9156 H   0  0  0  0  0  0  0  0  0  0  0  0
    6.4103    2.2675    0.3384 H   0  0  0  0  0  0  0  0  0  0  0  0
    6.8615   -0.9307   -0.9821 H   0  0  0  0  0  0  0  0  0  0  0  0
    7.4930    0.6770   -0.5262 H   0  0  0  0  0  0  0  0  0  0  0  0
    6.4632    0.5808   -1.9767 H   0  0  0  0  0  0  0  0  0  0  0  0
    4.9645   -1.0652    1.3395 H   0  0  0  0  0  0  0  0  0  0  0  0
    5.3404    0.5348    2.0632 H   0  0  0  0  0  0  0  0  0  0  0  0
    6.7047   -0.4654    1.3989 H   0  0  0  0  0  0  0  0  0  0  0  0
    1.7616   -1.1810    1.6003 H   0  0  0  0  0  0  0  0  0  0  0  0
    0.0442   -1.2414    1.9705 H   0  0  0  0  0  0  0  0  0  0  0  0
    0.8677    0.3041    2.2173 H   0  0  0  0  0  0  0  0  0  0  0  0
    0.7169    1.9157   -0.3996 H   0  0  0  0  0  0  0  0  0  0  0  0
   -0.1279    1.6500    1.1226 H   0  0  0  0  0  0  0  0  0  0  0  0
   -1.1354    1.7793   -1.6761 H   0  0  0  0  0  0  0  0  0  0  0  0
   -1.8363    2.3487   -0.1701 H   0  0  0  0  0  0  0  0  0  0  0  0
   -2.5952    0.0622   -1.6340 H   0  0  0  0  0  0  0  0  0  0  0  0
   -1.7814   -0.8207    1.0937 H   0  0  0  0  0  0  0  0  0  0  0  0
   -2.2372   -3.0279   -0.0120 H   0  0  0  0  0  0  0  0  0  0  0  0
   -2.8678   -2.0401   -1.4261 H   0  0  0  0  0  0  0  0  0  0  0  0
   -3.7741   -1.8229    1.4975 H   0  0  0  0  0  0  0  0  0  0  0  0
   -4.6654   -2.6198    0.0883 H   0  0  0  0  0  0  0  0  0  0  0  0
   -4.7320   -0.6409   -1.1624 H   0  0  0  0  0  0  0  0  0  0  0  0
   -6.3106   -0.6615    1.3691 H   0  0  0  0  0  0  0  0  0  0  0  0
   -6.0512    2.9113   -0.9221 H   0  0  0  0  0  0  0  0  0  0  0  0
   -3.7206    2.6846   -0.8688 H   0  0  0  0  0  0  0  0  0  0  0  0
   -3.8805    0.1052    2.1532 H   0  0  0  0  0  0  0  0  0  0  0  0
   -3.9227    1.8581    1.9260 H   0  0  0  0  0  0  0  0  0  0  0  0
   -2.3333    1.0617    1.8629 H   0  0  0  0  0  0  0  0  0  0  0  0
  1  2  1  0
  2  3  1  0
  3  4  1  0
  4  5  1  0
  5  6  2  0
  5  7  1  0
  7  8  1  0
  8  9  1  0
  8 10  1  0
  8 11  1  0
  4 12  1  0
 12 13  1  1
 12 14  1  0
 14 15  1  0
 15 16  1  0
 16 17  1  0
 17 18  1  0
 18 19  1  0
 19 20  1  0
 20 21  1  0
 21 22  1  0
 22 23  2  0
 22 24  1  0
 24 25  2  0
 25 26  1  0
 26 27  1  1
 12  1  1  0
 26 16  1  0
 17  1  1  0
 26 20  1  0
  1 28  1  6
  2 29  1  0
  2 30  1  0
  3 31  1  0
  3 32  1  0
  4 33  1  6
  7 34  1  0
  9 35  1  0
  9 36  1  0
  9 37  1  0
 10 38  1  0
 10 39  1  0
 10 40  1  0
 11 41  1  0
 11 42  1  0
 11 43  1  0
 13 44  1  0
 13 45  1  0
 13 46  1  0
 14 47  1  0
 14 48  1  0
 15 49  1  0
 15 50  1  0
 16 51  1  6
 17 52  1  1
 18 53  1  0
 18 54  1  0
 19 55  1  0
 19 56  1  0
 20 57  1  6
 21 58  1  0
 24 59  1  0
 25 60  1  0
 27 61  1  0
 27 62  1  0
 27 63  1  0
M  END
$$$$
