
     RDKit          3D

 73 78  0  0  0  0  0  0  0  0999 V2000
   -6.4244    2.8871   -1.3899 C   0  0  0  0  0  0  0  0  0  0  0  0
   -6.6844    2.5492   -0.0260 N   0  0  0  0  0  0  0  0  0  0  0  0
   -8.0472    2.8302    0.4572 C   0  0  0  0  0  0  0  0  0  0  0  0
   -5.7674    1.9715    0.8361 C   0  0  0  0  0  0  0  0  0  0  0  0
   -6.1429    1.7422    2.0365 O   0  0  0  0  0  0  0  0  0  0  0  0
   -4.4107    1.6252    0.4157 C   0  0  0  0  0  0  0  0  0  0  0  0
   -3.3922    2.5509    0.1639 C   0  0  0  0  0  0  0  0  0  0  0  0
   -2.2432    1.8853   -0.1414 C   0  0  0  0  0  0  0  0  0  0  0  0
   -0.9503    2.3260   -0.4316 C   0  0  0  0  0  0  0  0  0  0  0  0
    0.0060    1.4152   -0.6560 N   0  0  0  0  0  0  0  0  0  0  0  0
   -0.2512    0.0967   -0.6095 C   0  0  0  0  0  0  0  0  0  0  0  0
    0.8194   -0.8649   -0.7579 N   0  0  0  0  0  0  0  0  0  0  0  0
    2.1221   -0.5022   -0.3405 C   0  0  0  0  0  0  0  0  0  0  0  0
    3.1728   -1.3807   -0.4024 C   0  0  0  0  0  0  0  0  0  0  0  0
    4.4372   -1.0243    0.0885 C   0  0  0  0  0  0  0  0  0  0  0  0
    4.6499    0.2112    0.6405 C   0  0  0  0  0  0  0  0  0  0  0  0
    5.8808    0.6736    1.2375 C   0  0  0  0  0  0  0  0  0  0  0  0
    5.7511    1.1219    2.4377 O   0  0  0  0  0  0  0  0  0  0  0  0
    7.1592    0.6808    0.6558 N   0  0  0  0  0  0  0  0  0  0  0  0
    8.3592    1.1589    1.3293 C   0  0  0  0  0  0  0  0  0  0  0  0
    9.4814    0.8140    0.3665 C   0  0  0  0  0  0  0  0  0  0  0  0
    9.5774   -0.6666    0.2751 C   0  0  0  0  0  0  0  0  0  0  0  0
    8.3198   -1.0674   -0.4685 C   0  0  0  0  0  0  0  0  0  0  0  0
    7.5396    0.2342   -0.6320 C   0  0  0  0  0  0  0  0  0  0  0  0
    8.7385    1.1519   -0.9420 C   0  0  0  0  0  0  0  0  0  0  0  0
    9.4571    0.6969   -2.0230 O   0  0  0  0  0  0  0  0  0  0  0  0
    3.5459    1.0734    0.6765 C   0  0  0  0  0  0  0  0  0  0  0  0
    2.3549    0.7176    0.2068 N   0  0  0  0  0  0  0  0  0  0  0  0
   -1.4948   -0.3035   -0.3327 N   0  0  0  0  0  0  0  0  0  0  0  0
   -2.5201    0.5399   -0.0915 C   0  0  0  0  0  0  0  0  0  0  0  0
   -3.8340    0.4146    0.2466 N   0  0  0  0  0  0  0  0  0  0  0  0
   -4.4464   -0.8782    0.4163 C   0  0  0  0  0  0  0  0  0  0  0  0
   -3.8794   -1.9827   -0.4242 C   0  0  0  0  0  0  0  0  0  0  0  0
   -3.5921   -3.1475    0.5478 C   0  0  0  0  0  0  0  0  0  0  0  0
   -4.8756   -3.4208    1.3117 C   0  0  0  0  0  0  0  0  0  0  0  0
   -5.9888   -3.4652    0.3266 C   0  0  0  0  0  0  0  0  0  0  0  0
   -6.5332   -2.1844   -0.1621 C   0  0  0  0  0  0  0  0  0  0  0  0
   -5.9400   -0.9132    0.4043 C   0  0  0  0  0  0  0  0  0  0  0  0
   -7.2704    2.5393   -2.0440 H   0  0  0  0  0  0  0  0  0  0  0  0
   -5.4806    2.4286   -1.7099 H   0  0  0  0  0  0  0  0  0  0  0  0
   -6.3838    3.9986   -1.4695 H   0  0  0  0  0  0  0  0  0  0  0  0
   -8.5087    3.6905   -0.0646 H   0  0  0  0  0  0  0  0  0  0  0  0
   -8.0389    3.0552    1.5460 H   0  0  0  0  0  0  0  0  0  0  0  0
   -8.7197    1.9559    0.2275 H   0  0  0  0  0  0  0  0  0  0  0  0
   -3.5463    3.6300    0.2162 H   0  0  0  0  0  0  0  0  0  0  0  0
   -0.8095    3.3909   -0.4532 H   0  0  0  0  0  0  0  0  0  0  0  0
    0.6158   -1.7745   -1.1605 H   0  0  0  0  0  0  0  0  0  0  0  0
    3.0616   -2.3609   -0.8240 H   0  0  0  0  0  0  0  0  0  0  0  0
    5.2836   -1.7121    0.0478 H   0  0  0  0  0  0  0  0  0  0  0  0
    8.4967    0.4860    2.2254 H   0  0  0  0  0  0  0  0  0  0  0  0
    8.3266    2.2011    1.6280 H   0  0  0  0  0  0  0  0  0  0  0  0
   10.3947    1.3579    0.5055 H   0  0  0  0  0  0  0  0  0  0  0  0
   10.5117   -0.9562   -0.2573 H   0  0  0  0  0  0  0  0  0  0  0  0
    9.6191   -1.1493    1.2788 H   0  0  0  0  0  0  0  0  0  0  0  0
    8.6301   -1.4114   -1.4613 H   0  0  0  0  0  0  0  0  0  0  0  0
    7.7855   -1.8064    0.1397 H   0  0  0  0  0  0  0  0  0  0  0  0
    6.8013    0.2334   -1.4073 H   0  0  0  0  0  0  0  0  0  0  0  0
    8.4528    2.2081   -0.9895 H   0  0  0  0  0  0  0  0  0  0  0  0
   10.3641    1.1015   -1.9752 H   0  0  0  0  0  0  0  0  0  0  0  0
    3.6539    2.0653    1.0953 H   0  0  0  0  0  0  0  0  0  0  0  0
   -4.1662   -1.1337    1.5044 H   0  0  0  0  0  0  0  0  0  0  0  0
   -2.9879   -1.7909   -0.9695 H   0  0  0  0  0  0  0  0  0  0  0  0
   -4.6321   -2.3547   -1.1769 H   0  0  0  0  0  0  0  0  0  0  0  0
   -3.2923   -4.0221   -0.0086 H   0  0  0  0  0  0  0  0  0  0  0  0
   -2.8766   -2.7460    1.2839 H   0  0  0  0  0  0  0  0  0  0  0  0
   -4.7640   -4.4789    1.6998 H   0  0  0  0  0  0  0  0  0  0  0  0
   -5.0299   -2.7958    2.1846 H   0  0  0  0  0  0  0  0  0  0  0  0
   -5.6140   -4.0493   -0.5545 H   0  0  0  0  0  0  0  0  0  0  0  0
   -6.7921   -4.1454    0.7566 H   0  0  0  0  0  0  0  0  0  0  0  0
   -7.6304   -2.1493    0.1491 H   0  0  0  0  0  0  0  0  0  0  0  0
   -6.6364   -2.1317   -1.2907 H   0  0  0  0  0  0  0  0  0  0  0  0
   -6.3862   -0.8342    1.4336 H   0  0  0  0  0  0  0  0  0  0  0  0
   -6.3854   -0.1058   -0.2065 H   0  0  0  0  0  0  0  0  0  0  0  0
  1  2  1  0
  2  3  1  0
  2  4  1  0
  4  5  2  0
  4  6  1  0
  6  7  2  0
  7  8  1  0
  8  9  2  0
  9 10  1  0
 10 11  2  0
 11 12  1  0
 12 13  1  0
 13 14  2  0
 14 15  1  0
 15 16  2  0
 16 17  1  0
 17 18  2  0
 17 19  1  0
 19 20  1  0
 20 21  1  0
 21 22  1  0
 22 23  1  0
 23 24  1  0
 24 25  1  0
 25 26  1  0
 16 27  1  0
 27 28  2  0
 11 29  1  0
 29 30  2  0
 30 31  1  0
 31 32  1  0
 32 33  1  0
 33 34  1  0
 34 35  1  0
 35 36  1  0
 36 37  1  0
 37 38  1  0
 31  6  1  0
 38 32  1  0
 30  8  1  0
 28 13  1  0
 24 19  1  0
 25 21  1  0
  1 39  1  0
  1 40  1  0
  1 41  1  0
  3 42  1  0
  3 43  1  0
  3 44  1  0
  7 45  1  0
  9 46  1  0
 12 47  1  0
 14 48  1  0
 15 49  1  0
 20 50  1  0
 20 51  1  0
 21 52  1  0
 22 53  1  0
 22 54  1  0
 23 55  1  0
 23 56  1  0
 24 57  1  0
 25 58  1  0
 26 59  1  0
 27 60  1  0
 32 61  1  0
 33 62  1  0
 33 63  1  0
 34 64  1  0
 34 65  1  0
 35 66  1  0
 35 67  1  0
 36 68  1  0
 36 69  1  0
 37 70  1  0
 37 71  1  0
 38 72  1  0
 38 73  1  0
M  END
$$$$
