
     RDKit          3D

 49 50  0  0  0  0  0  0  0  0999 V2000
   -4.8143   -2.0268    0.8739 C   0  0  0  0  0  0  0  0  0  0  0  0
   -4.2957   -1.6569   -0.4876 C   0  0  0  0  0  0  0  0  0  0  0  0
   -3.4555   -0.3977   -0.4694 C   0  0  0  0  0  0  0  0  0  0  0  0
   -2.2565   -0.5755    0.4279 C   0  0  0  0  0  0  0  0  0  0  0  0
   -1.4222    0.5960    0.4795 N   0  0  0  0  0  0  0  0  0  0  0  0
   -1.9709    1.7095    1.1163 C   0  0  0  0  0  0  0  0  0  0  0  0
   -2.0039    3.0031    0.3827 C   0  0  0  0  0  0  0  0  0  0  0  0
   -0.5732    3.2054   -0.1301 C   0  0  0  0  0  0  0  0  0  0  0  0
   -0.3955    2.1332   -1.1743 C   0  0  0  0  0  0  0  0  0  0  0  0
   -0.5839    0.7499   -0.6539 C   0  0  1  0  0  0  0  0  0  0  0  0
    0.7431    0.1720   -0.3093 C   0  0  0  0  0  0  0  0  0  0  0  0
    0.6392   -0.2392    0.8862 O   0  0  0  0  0  0  0  0  0  0  0  0
    1.9268    0.0569   -1.0749 N   0  0  0  0  0  0  0  0  0  0  0  0
    2.9937   -0.5673   -0.3715 C   0  0  0  0  0  0  0  0  0  0  0  0
    3.8822    0.1929    0.3700 C   0  0  0  0  0  0  0  0  0  0  0  0
    3.7019    1.6875    0.4230 C   0  0  0  0  0  0  0  0  0  0  0  0
    4.9346   -0.4151    1.0642 C   0  0  0  0  0  0  0  0  0  0  0  0
    5.0557   -1.7847    0.9853 C   0  0  0  0  0  0  0  0  0  0  0  0
    4.1735   -2.5582    0.2465 C   0  0  0  0  0  0  0  0  0  0  0  0
    3.1457   -1.9364   -0.4274 C   0  0  0  0  0  0  0  0  0  0  0  0
    2.2233   -2.8149   -1.2059 C   0  0  0  0  0  0  0  0  0  0  0  0
   -4.1481   -2.6984    1.4392 H   0  0  0  0  0  0  0  0  0  0  0  0
   -5.0699   -1.1231    1.4896 H   0  0  0  0  0  0  0  0  0  0  0  0
   -5.7742   -2.5792    0.7352 H   0  0  0  0  0  0  0  0  0  0  0  0
   -5.0821   -1.5940   -1.2507 H   0  0  0  0  0  0  0  0  0  0  0  0
   -3.6126   -2.4873   -0.8111 H   0  0  0  0  0  0  0  0  0  0  0  0
   -3.1957   -0.1552   -1.4986 H   0  0  0  0  0  0  0  0  0  0  0  0
   -4.0947    0.3910   -0.0012 H   0  0  0  0  0  0  0  0  0  0  0  0
   -1.6422   -1.4149    0.0425 H   0  0  0  0  0  0  0  0  0  0  0  0
   -2.5397   -0.8214    1.4601 H   0  0  0  0  0  0  0  0  0  0  0  0
   -3.0222    1.5337    1.4889 H   0  0  0  0  0  0  0  0  0  0  0  0
   -1.4000    1.8955    2.0661 H   0  0  0  0  0  0  0  0  0  0  0  0
   -2.2902    3.8029    1.0911 H   0  0  0  0  0  0  0  0  0  0  0  0
   -2.6360    3.0078   -0.5304 H   0  0  0  0  0  0  0  0  0  0  0  0
    0.1249    3.1098    0.7026 H   0  0  0  0  0  0  0  0  0  0  0  0
   -0.5300    4.1896   -0.5942 H   0  0  0  0  0  0  0  0  0  0  0  0
   -1.0914    2.3685   -2.0052 H   0  0  0  0  0  0  0  0  0  0  0  0
    0.6262    2.2610   -1.5842 H   0  0  0  0  0  0  0  0  0  0  0  0
   -0.9977    0.1284   -1.4751 H   0  0  0  0  0  0  0  0  0  0  0  0
    1.7722    0.4692   -2.0443 H   0  0  0  0  0  0  0  0  0  0  0  0
    4.4580    2.1012    1.1116 H   0  0  0  0  0  0  0  0  0  0  0  0
    2.7136    1.9995    0.7449 H   0  0  0  0  0  0  0  0  0  0  0  0
    3.8359    2.0528   -0.6348 H   0  0  0  0  0  0  0  0  0  0  0  0
    5.6366    0.1700    1.6490 H   0  0  0  0  0  0  0  0  0  0  0  0
    5.8807   -2.2473    1.5341 H   0  0  0  0  0  0  0  0  0  0  0  0
    4.3179   -3.6484    0.2210 H   0  0  0  0  0  0  0  0  0  0  0  0
    1.7290   -2.2818   -2.0439 H   0  0  0  0  0  0  0  0  0  0  0  0
    2.8715   -3.5940   -1.6917 H   0  0  0  0  0  0  0  0  0  0  0  0
    1.5119   -3.3693   -0.5617 H   0  0  0  0  0  0  0  0  0  0  0  0
  1  2  1  0
  2  3  1  0
  3  4  1  0
  4  5  1  0
  5  6  1  0
  6  7  1  0
  7  8  1  0
  8  9  1  0
  9 10  1  0
 10 11  1  0
 11 12  2  0
 11 13  1  0
 13 14  1  0
 14 15  2  0
 15 16  1  0
 15 17  1  0
 17 18  2  0
 18 19  1  0
 19 20  2  0
 20 21  1  0
 10  5  1  0
 20 14  1  0
  1 22  1  0
  1 23  1  0
  1 24  1  0
  2 25  1  0
  2 26  1  0
  3 27  1  0
  3 28  1  0
  4 29  1  0
  4 30  1  0
  6 31  1  0
  6 32  1  0
  7 33  1  0
  7 34  1  0
  8 35  1  0
  8 36  1  0
  9 37  1  0
  9 38  1  0
 10 39  1  6
 13 40  1  0
 16 41  1  0
 16 42  1  0
 16 43  1  0
 17 44  1  0
 18 45  1  0
 19 46  1  0
 21 47  1  0
 21 48  1  0
 21 49  1  0
M  END
$$$$
