
     RDKit          3D

 36 38  0  0  0  0  0  0  0  0999 V2000
   -5.5761    0.7917   -1.5381 C   0  0  0  0  0  0  0  0  0  0  0  0
   -4.7081   -0.0482   -0.8302 O   0  0  0  0  0  0  0  0  0  0  0  0
   -3.3451    0.1323   -0.7323 C   0  0  0  0  0  0  0  0  0  0  0  0
   -2.7318    1.1937   -1.3496 C   0  0  0  0  0  0  0  0  0  0  0  0
   -1.3508    1.3011   -1.1978 C   0  0  0  0  0  0  0  0  0  0  0  0
   -0.7342    2.3287   -1.7906 N   0  0  0  0  0  0  0  0  0  0  0  0
    0.5828    2.4794   -1.6774 C   0  0  0  0  0  0  0  0  0  0  0  0
    1.2684    1.5856   -0.9621 N   0  0  0  0  0  0  0  0  0  0  0  0
    0.7668    0.5197   -0.3248 C   0  0  0  0  0  0  0  0  0  0  0  0
    1.5519   -0.3798    0.4228 N   0  0  0  0  0  0  0  0  0  0  0  0
    2.9367   -0.1293    0.6295 C   0  0  0  0  0  0  0  0  0  0  0  0
    3.5630    1.0831    0.5909 C   0  0  0  0  0  0  0  0  0  0  0  0
    4.9479    1.1966    0.8001 C   0  0  0  0  0  0  0  0  0  0  0  0
    5.7336    0.0959    1.0533 C   0  0  0  0  0  0  0  0  0  0  0  0
    5.1108   -1.1328    1.0953 C   0  0  0  0  0  0  0  0  0  0  0  0
    6.1788   -2.6880    1.4498 Br  0  0  0  0  0  0  0  0  0  0  0  0
    3.7555   -1.2362    0.8889 C   0  0  0  0  0  0  0  0  0  0  0  0
   -0.6097    0.3746   -0.4518 C   0  0  0  0  0  0  0  0  0  0  0  0
   -1.2605   -0.6611    0.1417 C   0  0  0  0  0  0  0  0  0  0  0  0
   -2.6409   -0.7962    0.0090 C   0  0  0  0  0  0  0  0  0  0  0  0
   -3.2663   -1.8639    0.6285 O   0  0  0  0  0  0  0  0  0  0  0  0
   -2.4915   -2.7767    1.3679 C   0  0  0  0  0  0  0  0  0  0  0  0
   -6.6349    0.4784   -1.3324 H   0  0  0  0  0  0  0  0  0  0  0  0
   -5.4172    1.8305   -1.1815 H   0  0  0  0  0  0  0  0  0  0  0  0
   -5.4594    0.7595   -2.6297 H   0  0  0  0  0  0  0  0  0  0  0  0
   -3.3020    1.9056   -1.9226 H   0  0  0  0  0  0  0  0  0  0  0  0
    1.0868    3.3318   -2.1707 H   0  0  0  0  0  0  0  0  0  0  0  0
    1.1248   -1.2529    0.8352 H   0  0  0  0  0  0  0  0  0  0  0  0
    2.9849    1.9913    0.4084 H   0  0  0  0  0  0  0  0  0  0  0  0
    5.3717    2.1807    0.7534 H   0  0  0  0  0  0  0  0  0  0  0  0
    6.8096    0.1814    1.2160 H   0  0  0  0  0  0  0  0  0  0  0  0
    3.3077   -2.2042    0.9283 H   0  0  0  0  0  0  0  0  0  0  0  0
   -0.7254   -1.4039    0.7335 H   0  0  0  0  0  0  0  0  0  0  0  0
   -1.9519   -2.2998    2.2084 H   0  0  0  0  0  0  0  0  0  0  0  0
   -1.7569   -3.2709    0.6740 H   0  0  0  0  0  0  0  0  0  0  0  0
   -3.1190   -3.5975    1.7671 H   0  0  0  0  0  0  0  0  0  0  0  0
  1  2  1  0
  2  3  1  0
  3  4  2  0
  4  5  1  0
  5  6  2  0
  6  7  1  0
  7  8  2  0
  8  9  1  0
  9 10  1  0
 10 11  1  0
 11 12  2  0
 12 13  1  0
 13 14  2  0
 14 15  1  0
 15 16  1  0
 15 17  2  0
  9 18  2  0
 18 19  1  0
 19 20  2  0
 20 21  1  0
 21 22  1  0
 20  3  1  0
 18  5  1  0
 17 11  1  0
  1 23  1  0
  1 24  1  0
  1 25  1  0
  4 26  1  0
  7 27  1  0
 10 28  1  0
 12 29  1  0
 13 30  1  0
 14 31  1  0
 17 32  1  0
 19 33  1  0
 22 34  1  0
 22 35  1  0
 22 36  1  0
M  END
$$$$
