
     RDKit          3D

 67 71  0  0  0  0  0  0  0  0999 V2000
    1.4861    2.5370   -3.2923 C   0  0  0  0  0  0  0  0  0  0  0  0
    2.5088    1.8976   -2.4627 C   0  0  0  0  0  0  0  0  0  0  0  0
    3.8147    2.3449   -2.5954 C   0  0  0  0  0  0  0  0  0  0  0  0
    4.8071    1.7714   -1.8233 C   0  0  0  0  0  0  0  0  0  0  0  0
    4.5182    0.7718   -0.9334 C   0  0  0  0  0  0  0  0  0  0  0  0
    5.5563    0.1439   -0.0816 C   0  0  0  0  0  0  0  0  0  0  0  0
    5.2285   -0.8603    0.6242 O   0  0  0  0  0  0  0  0  0  0  0  0
    6.8822    0.6066   -0.0177 N   0  0  0  0  0  0  0  0  0  0  0  0
    7.9304    0.0657    0.7611 C   0  0  0  0  0  0  0  0  0  0  0  0
    9.1657    0.7239    0.7267 C   0  0  0  0  0  0  0  0  0  0  0  0
   10.2564    0.2765    1.4408 C   0  0  0  0  0  0  0  0  0  0  0  0
   10.1786   -0.8494    2.2279 C   0  0  0  0  0  0  0  0  0  0  0  0
    8.9708   -1.5102    2.2741 C   0  0  0  0  0  0  0  0  0  0  0  0
    8.8778   -2.7284    3.1163 C   0  0  0  0  0  0  0  0  0  0  0  0
    9.4687   -3.8177    2.4937 F   0  0  0  0  0  0  0  0  0  0  0  0
    9.4060   -2.5590    4.3595 F   0  0  0  0  0  0  0  0  0  0  0  0
    7.5202   -3.0163    3.2732 F   0  0  0  0  0  0  0  0  0  0  0  0
    7.8805   -1.0435    1.5462 C   0  0  0  0  0  0  0  0  0  0  0  0
    3.1996    0.3378   -0.8167 C   0  0  0  0  0  0  0  0  0  0  0  0
    2.1792    0.8986   -1.5826 C   0  0  0  0  0  0  0  0  0  0  0  0
    0.7999    0.4684   -1.4845 C   0  0  0  0  0  0  0  0  0  0  0  0
    0.0039    0.1456   -2.5515 C   0  0  0  0  0  0  0  0  0  0  0  0
   -1.3102   -0.2368   -2.3714 C   0  0  0  0  0  0  0  0  0  0  0  0
   -1.8717   -0.3095   -1.1252 C   0  0  0  0  0  0  0  0  0  0  0  0
   -3.1452   -0.6708   -0.9248 N   0  0  0  0  0  0  0  0  0  0  0  0
   -3.6678   -0.7261    0.3091 C   0  0  0  0  0  0  0  0  0  0  0  0
   -5.0473   -1.1101    0.4933 N   0  0  0  0  0  0  0  0  0  0  0  0
   -5.8408   -1.4374   -0.6442 C   0  0  0  0  0  0  0  0  0  0  0  0
   -7.2927   -1.5893   -0.3044 C   0  0  0  0  0  0  0  0  0  0  0  0
   -7.9650   -0.4422    0.1646 N   0  0  0  0  0  0  0  0  0  0  0  0
   -9.3776   -0.8140    0.3400 C   0  0  0  0  0  0  0  0  0  0  0  0
  -10.2352    0.4515    0.2775 C   0  0  0  0  0  0  0  0  0  0  0  0
   -9.3728    1.5238    0.5377 O   0  0  0  0  0  0  0  0  0  0  0  0
   -8.6763    1.2097    1.7034 C   0  0  0  0  0  0  0  0  0  0  0  0
   -7.5532    0.1953    1.3611 C   0  0  0  0  0  0  0  0  0  0  0  0
   -2.9038   -0.4149    1.3613 N   0  0  0  0  0  0  0  0  0  0  0  0
   -1.6255   -0.0461    1.2352 C   0  0  0  0  0  0  0  0  0  0  0  0
   -1.0763    0.0152   -0.0254 C   0  0  0  0  0  0  0  0  0  0  0  0
    0.2361    0.3952   -0.2264 C   0  0  0  0  0  0  0  0  0  0  0  0
    1.5542    2.1233   -4.3395 H   0  0  0  0  0  0  0  0  0  0  0  0
    0.4667    2.5160   -2.8977 H   0  0  0  0  0  0  0  0  0  0  0  0
    1.7404    3.6299   -3.4473 H   0  0  0  0  0  0  0  0  0  0  0  0
    4.0815    3.1238   -3.2793 H   0  0  0  0  0  0  0  0  0  0  0  0
    5.8132    2.1467   -1.9596 H   0  0  0  0  0  0  0  0  0  0  0  0
    7.0724    1.4604   -0.6397 H   0  0  0  0  0  0  0  0  0  0  0  0
    9.2393    1.6175    0.1061 H   0  0  0  0  0  0  0  0  0  0  0  0
   11.2058    0.7916    1.4084 H   0  0  0  0  0  0  0  0  0  0  0  0
   11.0474   -1.2095    2.7999 H   0  0  0  0  0  0  0  0  0  0  0  0
    6.9863   -1.6233    1.6415 H   0  0  0  0  0  0  0  0  0  0  0  0
    2.9526   -0.4564   -0.1139 H   0  0  0  0  0  0  0  0  0  0  0  0
    0.4179    0.1897   -3.5462 H   0  0  0  0  0  0  0  0  0  0  0  0
   -1.9173   -0.4881   -3.2504 H   0  0  0  0  0  0  0  0  0  0  0  0
   -5.4094   -1.1563    1.4520 H   0  0  0  0  0  0  0  0  0  0  0  0
   -5.4725   -2.3573   -1.1677 H   0  0  0  0  0  0  0  0  0  0  0  0
   -5.7266   -0.6380   -1.4290 H   0  0  0  0  0  0  0  0  0  0  0  0
   -7.3641   -2.4589    0.4177 H   0  0  0  0  0  0  0  0  0  0  0  0
   -7.8051   -1.9643   -1.2494 H   0  0  0  0  0  0  0  0  0  0  0  0
   -9.4926   -1.2904    1.3226 H   0  0  0  0  0  0  0  0  0  0  0  0
   -9.6815   -1.5332   -0.4356 H   0  0  0  0  0  0  0  0  0  0  0  0
  -10.7031    0.5307   -0.7230 H   0  0  0  0  0  0  0  0  0  0  0  0
  -11.0221    0.4394    1.0457 H   0  0  0  0  0  0  0  0  0  0  0  0
   -9.3538    0.7584    2.4835 H   0  0  0  0  0  0  0  0  0  0  0  0
   -8.2436    2.1065    2.1651 H   0  0  0  0  0  0  0  0  0  0  0  0
   -7.4664   -0.5016    2.2464 H   0  0  0  0  0  0  0  0  0  0  0  0
   -6.6373    0.8043    1.2952 H   0  0  0  0  0  0  0  0  0  0  0  0
   -1.0354    0.1973    2.0938 H   0  0  0  0  0  0  0  0  0  0  0  0
    0.8391    0.6433    0.6368 H   0  0  0  0  0  0  0  0  0  0  0  0
  1  2  1  0
  2  3  2  0
  3  4  1  0
  4  5  2  0
  5  6  1  0
  6  7  2  0
  6  8  1  0
  8  9  1  0
  9 10  2  0
 10 11  1  0
 11 12  2  0
 12 13  1  0
 13 14  1  0
 14 15  1  0
 14 16  1  0
 14 17  1  0
 13 18  2  0
  5 19  1  0
 19 20  2  0
 20 21  1  0
 21 22  2  0
 22 23  1  0
 23 24  2  0
 24 25  1  0
 25 26  2  0
 26 27  1  0
 27 28  1  0
 28 29  1  0
 29 30  1  0
 30 31  1  0
 31 32  1  0
 32 33  1  0
 33 34  1  0
 34 35  1  0
 26 36  1  0
 36 37  2  0
 37 38  1  0
 38 39  2  0
 20  2  1  0
 39 21  1  0
 18  9  1  0
 38 24  1  0
 35 30  1  0
  1 40  1  0
  1 41  1  0
  1 42  1  0
  3 43  1  0
  4 44  1  0
  8 45  1  0
 10 46  1  0
 11 47  1  0
 12 48  1  0
 18 49  1  0
 19 50  1  0
 22 51  1  0
 23 52  1  0
 27 53  1  0
 28 54  1  0
 28 55  1  0
 29 56  1  0
 29 57  1  0
 31 58  1  0
 31 59  1  0
 32 60  1  0
 32 61  1  0
 34 62  1  0
 34 63  1  0
 35 64  1  0
 35 65  1  0
 37 66  1  0
 39 67  1  0
M  END
$$$$
