
     RDKit          3D

 45 48  0  0  0  0  0  0  0  0999 V2000
    6.9154   -2.3301    0.3506 C   0  0  0  0  0  0  0  0  0  0  0  0
    5.4917   -1.8910    0.2268 C   0  0  0  0  0  0  0  0  0  0  0  0
    4.3298   -2.6341    0.1524 C   0  0  0  0  0  0  0  0  0  0  0  0
    3.1806   -1.9541    0.0463 C   0  0  0  0  0  0  0  0  0  0  0  0
    3.1889   -0.6268    0.0165 C   0  0  0  0  0  0  0  0  0  0  0  0
    2.0876    0.3588   -0.0928 C   0  0  0  0  0  0  0  0  0  0  0  0
    2.3850    1.7041   -0.1002 C   0  0  0  0  0  0  0  0  0  0  0  0
    1.3784    2.6445   -0.2010 C   0  0  0  0  0  0  0  0  0  0  0  0
    1.3951    3.9704   -0.2301 N   0  0  0  0  0  0  0  0  0  0  0  0
    0.1442    4.3865   -0.3382 N   0  0  0  0  0  0  0  0  0  0  0  0
   -0.2253    5.7864   -0.3994 C   0  0  0  0  0  0  0  0  0  0  0  0
   -0.6943    3.3375   -0.3802 C   0  0  0  0  0  0  0  0  0  0  0  0
    0.0675    2.1760   -0.2936 C   0  0  0  0  0  0  0  0  0  0  0  0
   -0.2166    0.8266   -0.2850 C   0  0  0  0  0  0  0  0  0  0  0  0
   -1.5332    0.4003   -0.3790 O   0  0  0  0  0  0  0  0  0  0  0  0
   -1.9316   -0.9338   -0.3798 C   0  0  2  0  0  0  0  0  0  0  0  0
   -2.7382   -1.2665   -1.6316 C   0  0  0  0  0  0  0  0  0  0  0  0
   -2.8295   -1.1569    0.8333 C   0  0  1  0  0  0  0  0  0  0  0  0
   -4.0226   -0.2516    0.7280 C   0  0  0  0  0  0  0  0  0  0  0  0
   -5.1744   -1.1064    0.6721 N   0  0  0  0  0  0  0  0  0  0  0  0
   -4.7995   -2.4776    0.5653 C   0  0  0  0  0  0  0  0  0  0  0  0
   -5.5297   -3.4505    0.3000 O   0  0  0  0  0  0  0  0  0  0  0  0
   -3.3372   -2.5762    0.8307 C   0  0  0  0  0  0  0  0  0  0  0  0
    0.8134   -0.0412   -0.1840 N   0  0  0  0  0  0  0  0  0  0  0  0
    4.8995   -0.2270    0.1420 S   0  0  0  0  0  0  0  0  0  0  0  0
    6.9599   -3.2603    0.9790 H   0  0  0  0  0  0  0  0  0  0  0  0
    7.3756   -2.4550   -0.6277 H   0  0  0  0  0  0  0  0  0  0  0  0
    7.5156   -1.5487    0.8990 H   0  0  0  0  0  0  0  0  0  0  0  0
    4.4307   -3.7400    0.1857 H   0  0  0  0  0  0  0  0  0  0  0  0
    2.2018   -2.4978   -0.0183 H   0  0  0  0  0  0  0  0  0  0  0  0
    3.4291    1.9722   -0.0241 H   0  0  0  0  0  0  0  0  0  0  0  0
   -0.4951    6.0254   -1.4486 H   0  0  0  0  0  0  0  0  0  0  0  0
    0.5892    6.4351   -0.0754 H   0  0  0  0  0  0  0  0  0  0  0  0
   -1.0755    5.9368    0.2985 H   0  0  0  0  0  0  0  0  0  0  0  0
   -1.7808    3.3323   -0.4657 H   0  0  0  0  0  0  0  0  0  0  0  0
   -1.0881   -1.6366   -0.2972 H   0  0  0  0  0  0  0  0  0  0  0  0
   -3.8173   -1.2057   -1.4699 H   0  0  0  0  0  0  0  0  0  0  0  0
   -2.5090   -2.3257   -1.9145 H   0  0  0  0  0  0  0  0  0  0  0  0
   -2.4660   -0.6063   -2.4771 H   0  0  0  0  0  0  0  0  0  0  0  0
   -2.2190   -0.9330    1.7422 H   0  0  0  0  0  0  0  0  0  0  0  0
   -4.1245    0.4338    1.6010 H   0  0  0  0  0  0  0  0  0  0  0  0
   -3.9944    0.3750   -0.1917 H   0  0  0  0  0  0  0  0  0  0  0  0
   -6.1547   -0.7951    0.7032 H   0  0  0  0  0  0  0  0  0  0  0  0
   -2.8317   -3.1855    0.0511 H   0  0  0  0  0  0  0  0  0  0  0  0
   -3.1907   -2.9884    1.8476 H   0  0  0  0  0  0  0  0  0  0  0  0
  1  2  1  0
  2  3  2  0
  3  4  1  0
  4  5  2  0
  5  6  1  0
  6  7  2  0
  7  8  1  0
  8  9  2  0
  9 10  1  0
 10 11  1  0
 10 12  1  0
 12 13  2  0
 13 14  1  0
 14 15  1  0
 15 16  1  0
 16 17  1  0
 16 18  1  0
 18 19  1  0
 19 20  1  0
 20 21  1  0
 21 22  2  0
 21 23  1  0
 14 24  2  0
  5 25  1  0
 25  2  1  0
 24  6  1  0
 13  8  1  0
 23 18  1  0
  1 26  1  0
  1 27  1  0
  1 28  1  0
  3 29  1  0
  4 30  1  0
  7 31  1  0
 11 32  1  0
 11 33  1  0
 11 34  1  0
 12 35  1  0
 16 36  1  1
 17 37  1  0
 17 38  1  0
 17 39  1  0
 18 40  1  1
 19 41  1  0
 19 42  1  0
 20 43  1  0
 23 44  1  0
 23 45  1  0
M  END
$$$$
