
     RDKit          3D

 48 50  0  0  0  0  0  0  0  0999 V2000
   -5.9398    0.1682    1.7476 N   0  0  0  0  0  0  0  0  0  0  0  0
   -6.6027   -0.3122    0.5873 C   0  0  0  0  0  0  0  0  0  0  0  0
   -7.9889   -0.2643    0.5830 C   0  0  0  0  0  0  0  0  0  0  0  0
   -8.6414   -0.7254   -0.5318 C   0  0  0  0  0  0  0  0  0  0  0  0
   -7.9623   -1.2329   -1.6435 C   0  0  0  0  0  0  0  0  0  0  0  0
   -6.5785   -1.2547   -1.5795 C   0  0  0  0  0  0  0  0  0  0  0  0
   -5.8902   -0.8017   -0.4802 C   0  0  0  0  0  0  0  0  0  0  0  0
   -4.4485   -0.8478   -0.4673 N   0  0  0  0  0  0  0  0  0  0  0  0
   -3.7659    0.2788   -0.9600 C   0  0  0  0  0  0  0  0  0  0  0  0
   -4.4308    1.2816   -1.3923 O   0  0  0  0  0  0  0  0  0  0  0  0
   -2.3173    0.3202   -0.9851 C   0  0  0  0  0  0  0  0  0  0  0  0
   -1.6514    1.4473   -1.4779 C   0  0  0  0  0  0  0  0  0  0  0  0
   -0.2817    1.5169   -1.5149 C   0  0  0  0  0  0  0  0  0  0  0  0
    0.4934    0.4674   -1.0629 C   0  0  0  0  0  0  0  0  0  0  0  0
    1.9498    0.5439   -1.1033 C   0  0  0  0  0  0  0  0  0  0  0  0
    2.5405    1.0947    0.0778 N   0  0  0  0  0  0  0  0  0  0  0  0
    3.9705    1.2135    0.1389 C   0  0  0  0  0  0  0  0  0  0  0  0
    4.6920    0.8431   -0.8218 O   0  0  0  0  0  0  0  0  0  0  0  0
    4.6114    1.7339    1.2426 O   0  0  0  0  0  0  0  0  0  0  0  0
    5.9711    1.9096    1.4473 C   0  0  0  0  0  0  0  0  0  0  0  0
    6.7950    0.6883    1.4040 C   0  0  0  0  0  0  0  0  0  0  0  0
    7.4452    0.2192    0.2883 C   0  0  0  0  0  0  0  0  0  0  0  0
    8.2005   -0.9464    0.3077 C   0  0  0  0  0  0  0  0  0  0  0  0
    8.3154   -1.6713    1.4728 C   0  0  0  0  0  0  0  0  0  0  0  0
    7.6784   -1.2102    2.5642 N   0  0  0  0  0  0  0  0  0  0  0  0
    6.9433   -0.0839    2.5619 C   0  0  0  0  0  0  0  0  0  0  0  0
   -0.1690   -0.6378   -0.5796 C   0  0  0  0  0  0  0  0  0  0  0  0
   -1.5609   -0.7304   -0.5325 C   0  0  0  0  0  0  0  0  0  0  0  0
   -5.9871    1.1676    2.0601 H   0  0  0  0  0  0  0  0  0  0  0  0
   -5.3727   -0.4831    2.3339 H   0  0  0  0  0  0  0  0  0  0  0  0
   -8.5796    0.1124    1.4011 H   0  0  0  0  0  0  0  0  0  0  0  0
   -9.7326   -0.7237   -0.6180 H   0  0  0  0  0  0  0  0  0  0  0  0
   -8.4941   -1.5906   -2.5106 H   0  0  0  0  0  0  0  0  0  0  0  0
   -6.0482   -1.6452   -2.4343 H   0  0  0  0  0  0  0  0  0  0  0  0
   -3.9708   -1.7135   -0.0935 H   0  0  0  0  0  0  0  0  0  0  0  0
   -2.2611    2.2619   -1.8288 H   0  0  0  0  0  0  0  0  0  0  0  0
    0.2001    2.4083   -1.9045 H   0  0  0  0  0  0  0  0  0  0  0  0
    2.2304    1.2138   -1.9557 H   0  0  0  0  0  0  0  0  0  0  0  0
    2.3764   -0.4687   -1.2577 H   0  0  0  0  0  0  0  0  0  0  0  0
    1.9647    1.4085    0.8864 H   0  0  0  0  0  0  0  0  0  0  0  0
    6.0915    2.4139    2.4539 H   0  0  0  0  0  0  0  0  0  0  0  0
    6.4192    2.6744    0.7434 H   0  0  0  0  0  0  0  0  0  0  0  0
    7.3863    0.7606   -0.6370 H   0  0  0  0  0  0  0  0  0  0  0  0
    8.7170   -1.3263   -0.5645 H   0  0  0  0  0  0  0  0  0  0  0  0
    8.9039   -2.5966    1.5243 H   0  0  0  0  0  0  0  0  0  0  0  0
    6.4462    0.2573    3.4533 H   0  0  0  0  0  0  0  0  0  0  0  0
    0.3661   -1.5101   -0.2033 H   0  0  0  0  0  0  0  0  0  0  0  0
   -2.0325   -1.6302   -0.1394 H   0  0  0  0  0  0  0  0  0  0  0  0
  1  2  1  0
  2  3  2  0
  3  4  1  0
  4  5  2  0
  5  6  1  0
  6  7  2  0
  7  8  1  0
  8  9  1  0
  9 10  2  0
  9 11  1  0
 11 12  2  0
 12 13  1  0
 13 14  2  0
 14 15  1  0
 15 16  1  0
 16 17  1  0
 17 18  2  0
 17 19  1  0
 19 20  1  0
 20 21  1  0
 21 22  2  0
 22 23  1  0
 23 24  2  0
 24 25  1  0
 25 26  2  0
 14 27  1  0
 27 28  2  0
  7  2  1  0
 28 11  1  0
 26 21  1  0
  1 29  1  0
  1 30  1  0
  3 31  1  0
  4 32  1  0
  5 33  1  0
  6 34  1  0
  8 35  1  0
 12 36  1  0
 13 37  1  0
 15 38  1  0
 15 39  1  0
 16 40  1  0
 20 41  1  0
 20 42  1  0
 22 43  1  0
 23 44  1  0
 24 45  1  0
 26 46  1  0
 27 47  1  0
 28 48  1  0
M  END
$$$$
