
     RDKit          3D

 41 43  0  0  0  0  0  0  0  0999 V2000
   -5.6790   -0.3794    2.9448 N   0  0  0  0  0  0  0  0  0  0  0  0
   -4.6707   -0.9122    2.0949 C   0  0  0  0  0  0  0  0  0  0  0  0
   -4.4635   -2.2435    2.2785 N   0  0  0  0  0  0  0  0  0  0  0  0
   -3.5103   -2.8293    1.4990 C   0  0  0  0  0  0  0  0  0  0  0  0
   -2.8000   -2.1402    0.5882 N   0  0  0  0  0  0  0  0  0  0  0  0
   -2.9795   -0.8260    0.3819 C   0  0  0  0  0  0  0  0  0  0  0  0
   -3.9411   -0.2320    1.1673 C   0  0  0  0  0  0  0  0  0  0  0  0
   -3.9960    1.0491    0.8465 N   0  0  0  0  0  0  0  0  0  0  0  0
   -3.0867    1.2606   -0.1228 C   0  0  0  0  0  0  0  0  0  0  0  0
   -2.4477    0.1319   -0.4296 N   0  0  0  0  0  0  0  0  0  0  0  0
   -1.4012   -0.2246   -1.3694 C   0  0  2  0  0  0  0  0  0  0  0  0
   -0.1933   -0.5287   -0.7374 O   0  0  0  0  0  0  0  0  0  0  0  0
    0.7270    0.4163   -1.0963 C   0  0  2  0  0  0  0  0  0  0  0  0
    1.7517    0.7013   -0.0316 C   0  0  0  0  0  0  0  0  0  0  0  0
    2.4269   -0.4770    0.2356 O   0  0  0  0  0  0  0  0  0  0  0  0
    3.6132   -0.3050    1.4175 P   0  0  0  0  0  0  0  0  0  0  0  0
    4.5252    1.0974    1.2311 O   0  0  0  0  0  0  0  0  0  0  0  0
    3.0714   -0.3303    2.8107 O   0  0  0  0  0  0  0  0  0  0  0  0
    4.6563   -1.6518    1.2553 O   0  0  0  0  0  0  0  0  0  0  0  0
    5.9752   -1.3146    0.3020 S   0  0  0  0  0  0  0  0  0  0  0  0
    6.6171    0.2181    0.6385 O   0  0  0  0  0  0  0  0  0  0  0  0
    7.0074   -2.3842    0.5528 O   0  0  0  0  0  0  0  0  0  0  0  0
    5.6455   -1.3971   -1.1650 O   0  0  0  0  0  0  0  0  0  0  0  0
   -0.0792    1.6580   -1.4521 C   0  0  1  0  0  0  0  0  0  0  0  0
    0.6646    2.5523   -2.2050 O   0  0  0  0  0  0  0  0  0  0  0  0
   -1.1167    0.9323   -2.2897 C   0  0  1  0  0  0  0  0  0  0  0  0
   -0.3968    0.4510   -3.4057 O   0  0  0  0  0  0  0  0  0  0  0  0
   -6.7039   -0.4790    2.7287 H   0  0  0  0  0  0  0  0  0  0  0  0
   -5.8230    0.1474    3.8256 H   0  0  0  0  0  0  0  0  0  0  0  0
   -3.3444   -3.9031    1.6483 H   0  0  0  0  0  0  0  0  0  0  0  0
   -2.8548    2.1820   -0.6244 H   0  0  0  0  0  0  0  0  0  0  0  0
   -1.6949   -1.1426   -1.9557 H   0  0  0  0  0  0  0  0  0  0  0  0
    1.2020    0.0921   -2.0455 H   0  0  0  0  0  0  0  0  0  0  0  0
    2.3932    1.5593   -0.2760 H   0  0  0  0  0  0  0  0  0  0  0  0
    1.2055    0.9616    0.9105 H   0  0  0  0  0  0  0  0  0  0  0  0
    4.5745    1.3799    0.2660 H   0  0  0  0  0  0  0  0  0  0  0  0
    7.1643    0.4976   -0.1593 H   0  0  0  0  0  0  0  0  0  0  0  0
   -0.4595    2.0743   -0.5191 H   0  0  0  0  0  0  0  0  0  0  0  0
    0.8393    3.3457   -1.6139 H   0  0  0  0  0  0  0  0  0  0  0  0
   -1.9682    1.5264   -2.5583 H   0  0  0  0  0  0  0  0  0  0  0  0
   -0.4499   -0.5340   -3.4362 H   0  0  0  0  0  0  0  0  0  0  0  0
  1  2  1  0
  2  3  2  0
  3  4  1  0
  4  5  2  0
  5  6  1  0
  6  7  2  0
  7  8  1  0
  8  9  2  0
  9 10  1  0
 10 11  1  0
 11 12  1  0
 12 13  1  0
 13 14  1  0
 14 15  1  0
 15 16  1  0
 16 17  1  0
 16 18  2  0
 16 19  1  0
 19 20  1  0
 20 21  1  0
 20 22  2  0
 20 23  2  0
 13 24  1  0
 24 25  1  0
 24 26  1  0
 26 27  1  0
  7  2  1  0
 26 11  1  0
 10  6  1  0
  1 28  1  0
  1 29  1  0
  4 30  1  0
  9 31  1  0
 11 32  1  6
 13 33  1  6
 14 34  1  0
 14 35  1  0
 17 36  1  0
 21 37  1  0
 24 38  1  1
 25 39  1  0
 26 40  1  6
 27 41  1  0
M  END
$$$$
