
     RDKit          3D

 70 74  0  0  0  0  0  0  0  0999 V2000
   -7.5626   -3.6836   -1.5400 C   0  0  0  0  0  0  0  0  0  0  0  0
   -6.8789   -2.6495   -0.6834 C   0  0  0  0  0  0  0  0  0  0  0  0
   -5.6348   -2.8863   -0.1464 C   0  0  0  0  0  0  0  0  0  0  0  0
   -5.0648   -1.8958    0.6294 C   0  0  0  0  0  0  0  0  0  0  0  0
   -3.6868   -2.1781    1.1974 C   0  0  0  0  0  0  0  0  0  0  0  0
   -2.7397   -1.6054    0.5237 O   0  0  0  0  0  0  0  0  0  0  0  0
   -1.8835   -0.8839   -0.1015 C   0  0  0  0  0  0  0  0  0  0  0  0
   -0.7909   -1.4846   -0.7809 C   0  0  0  0  0  0  0  0  0  0  0  0
    0.1345   -0.7577   -1.4521 C   0  0  0  0  0  0  0  0  0  0  0  0
    0.0295    0.6162   -1.4888 C   0  0  0  0  0  0  0  0  0  0  0  0
    1.1502    1.6192   -2.3064 S   0  0  0  0  0  6  0  0  0  0  0  0
    2.0312    0.6643   -3.1653 O   0  0  0  0  0  0  0  0  0  0  0  0
    0.4113    2.4090   -3.4113 O   0  0  0  0  0  0  0  0  0  0  0  0
    2.2268    2.6394   -1.4626 C   0  0  0  0  0  0  0  0  0  0  0  0
    3.2719    2.2394   -0.5279 C   0  0  0  0  0  0  0  0  0  0  0  0
    3.0855    1.5881    0.7715 C   0  0  0  0  0  0  0  0  0  0  0  0
    2.4288    0.2704    0.9041 C   0  0  0  0  0  0  0  0  0  0  0  0
    3.1350   -0.7938    0.0890 C   0  0  0  0  0  0  0  0  0  0  0  0
    4.5762   -0.9216    0.5531 C   0  0  0  0  0  0  0  0  0  0  0  0
    5.2667    0.3509    0.8651 C   0  0  0  0  0  0  0  0  0  0  0  0
    4.4927    1.4566    1.4600 C   0  0  0  0  0  0  0  0  0  0  0  0
    5.2700   -1.5507   -0.5012 O   0  0  0  0  0  0  0  0  0  0  0  0
    6.3648   -2.1691    0.0947 C   0  0  0  0  0  0  0  0  0  0  0  0
    5.8307   -2.5374    1.4547 C   0  0  0  0  0  0  0  0  0  0  0  0
    4.6663   -1.8051    1.6270 O   0  0  0  0  0  0  0  0  0  0  0  0
    4.2591    3.3514   -0.3855 N   0  0  0  0  0  0  0  0  0  0  0  0
    5.4595    3.2238   -0.9118 O   0  0  0  0  0  0  0  0  0  0  0  0
    3.8550    4.4951    0.3083 C   0  0  0  0  0  0  0  0  0  0  0  0
    2.7054    4.6396    0.8194 O   0  0  0  0  0  0  0  0  0  0  0  0
   -1.0348    1.2492   -0.8307 C   0  0  0  0  0  0  0  0  0  0  0  0
   -1.9550    0.5019   -0.1615 C   0  0  0  0  0  0  0  0  0  0  0  0
   -5.7296   -0.7239    0.8470 C   0  0  0  0  0  0  0  0  0  0  0  0
   -5.1757    0.2642    1.6215 C   0  0  0  0  0  0  0  0  0  0  0  0
   -5.8755    1.4208    1.8206 C   0  0  0  0  0  0  0  0  0  0  0  0
   -7.1251    1.6218    1.2634 C   0  0  0  0  0  0  0  0  0  0  0  0
   -7.6488    0.6189    0.4977 C   0  0  0  0  0  0  0  0  0  0  0  0
   -6.9798   -0.5629    0.2703 C   0  0  0  0  0  0  0  0  0  0  0  0
   -7.5481   -1.5022   -0.4804 N   0  0  0  0  0  0  0  0  0  0  0  0
   -8.5870   -3.8538   -1.1626 H   0  0  0  0  0  0  0  0  0  0  0  0
   -7.6485   -3.2771   -2.5627 H   0  0  0  0  0  0  0  0  0  0  0  0
   -6.9501   -4.6056   -1.5359 H   0  0  0  0  0  0  0  0  0  0  0  0
   -5.1601   -3.8336   -0.3546 H   0  0  0  0  0  0  0  0  0  0  0  0
   -3.5520   -3.3091    1.2211 H   0  0  0  0  0  0  0  0  0  0  0  0
   -3.6989   -1.8281    2.2807 H   0  0  0  0  0  0  0  0  0  0  0  0
   -0.6908   -2.5693   -0.7636 H   0  0  0  0  0  0  0  0  0  0  0  0
    0.9467   -1.2274   -1.9554 H   0  0  0  0  0  0  0  0  0  0  0  0
    1.5585    3.3991   -0.8487 H   0  0  0  0  0  0  0  0  0  0  0  0
    2.6922    3.4027   -2.2230 H   0  0  0  0  0  0  0  0  0  0  0  0
    3.8751    1.4241   -1.1392 H   0  0  0  0  0  0  0  0  0  0  0  0
    2.5556    2.3017    1.4685 H   0  0  0  0  0  0  0  0  0  0  0  0
    2.5399   -0.0962    2.0058 H   0  0  0  0  0  0  0  0  0  0  0  0
    1.3786    0.2882    0.7624 H   0  0  0  0  0  0  0  0  0  0  0  0
    2.6402   -1.7587    0.3136 H   0  0  0  0  0  0  0  0  0  0  0  0
    3.1013   -0.6313   -0.9846 H   0  0  0  0  0  0  0  0  0  0  0  0
    5.8941    0.6727   -0.0223 H   0  0  0  0  0  0  0  0  0  0  0  0
    6.0710    0.0900    1.6234 H   0  0  0  0  0  0  0  0  0  0  0  0
    4.2883    1.2939    2.5240 H   0  0  0  0  0  0  0  0  0  0  0  0
    4.9684    2.4212    1.3146 H   0  0  0  0  0  0  0  0  0  0  0  0
    7.1976   -1.4387    0.1537 H   0  0  0  0  0  0  0  0  0  0  0  0
    6.7238   -3.0422   -0.4656 H   0  0  0  0  0  0  0  0  0  0  0  0
    6.6200   -2.2460    2.1989 H   0  0  0  0  0  0  0  0  0  0  0  0
    5.6801   -3.6292    1.5799 H   0  0  0  0  0  0  0  0  0  0  0  0
    5.4105    3.0626   -1.9045 H   0  0  0  0  0  0  0  0  0  0  0  0
    4.5492    5.3197    0.4287 H   0  0  0  0  0  0  0  0  0  0  0  0
   -1.1233    2.3337   -0.8560 H   0  0  0  0  0  0  0  0  0  0  0  0
   -2.7634    1.0523    0.3344 H   0  0  0  0  0  0  0  0  0  0  0  0
   -4.1948    0.1199    2.0640 H   0  0  0  0  0  0  0  0  0  0  0  0
   -5.4262    2.1994    2.4376 H   0  0  0  0  0  0  0  0  0  0  0  0
   -7.6032    2.5627    1.4732 H   0  0  0  0  0  0  0  0  0  0  0  0
   -8.6296    0.7539    0.0492 H   0  0  0  0  0  0  0  0  0  0  0  0
  1  2  1  0
  2  3  2  0
  3  4  1  0
  4  5  1  0
  5  6  1  0
  6  7  1  0
  7  8  2  0
  8  9  1  0
  9 10  2  0
 10 11  1  0
 11 12  2  0
 11 13  2  0
 11 14  1  0
 14 15  1  0
 15 16  1  0
 16 17  1  0
 17 18  1  0
 18 19  1  0
 19 20  1  0
 20 21  1  0
 19 22  1  0
 22 23  1  0
 23 24  1  0
 24 25  1  0
 15 26  1  0
 26 27  1  0
 26 28  1  0
 28 29  2  0
 10 30  1  0
 30 31  2  0
  4 32  2  0
 32 33  1  0
 33 34  2  0
 34 35  1  0
 35 36  2  0
 36 37  1  0
 37 38  2  0
 38  2  1  0
 31  7  1  0
 37 32  1  0
 21 16  1  0
 25 19  1  0
  1 39  1  0
  1 40  1  0
  1 41  1  0
  3 42  1  0
  5 43  1  0
  5 44  1  0
  8 45  1  0
  9 46  1  0
 14 47  1  0
 14 48  1  0
 15 49  1  0
 16 50  1  0
 17 51  1  0
 17 52  1  0
 18 53  1  0
 18 54  1  0
 20 55  1  0
 20 56  1  0
 21 57  1  0
 21 58  1  0
 23 59  1  0
 23 60  1  0
 24 61  1  0
 24 62  1  0
 27 63  1  0
 28 64  1  0
 30 65  1  0
 31 66  1  0
 33 67  1  0
 34 68  1  0
 35 69  1  0
 36 70  1  0
M  END
$$$$
