
     RDKit          3D

 53 55  0  0  0  0  0  0  0  0999 V2000
    7.9611    4.9703    2.2792 C   0  0  0  0  0  0  0  0  0  0  0  0
    7.8393    3.4365    1.9436 C   0  0  0  0  0  0  0  0  0  0  0  0
    7.7703    2.4620    1.7146 C   0  0  0  0  0  0  0  0  0  0  0  0
    7.6381    0.9645    1.3689 C   0  0  0  0  0  0  0  0  0  0  0  0
    6.3519    0.7185    0.9285 O   0  0  0  0  0  0  0  0  0  0  0  0
    5.3014    0.6496    0.3084 C   0  0  0  0  0  0  0  0  0  0  0  0
    4.6593    0.8669   -0.8027 C   0  0  0  0  0  0  0  0  0  0  0  0
    3.3080    0.6269   -1.1327 C   0  0  0  0  0  0  0  0  0  0  0  0
    2.5351    0.0984   -0.1482 C   0  0  0  0  0  0  0  0  0  0  0  0
    1.1926   -0.4766   -0.4442 C   0  0  0  0  0  0  0  0  0  0  0  0
    0.3912    0.0657   -1.2079 O   0  0  0  0  0  0  0  0  0  0  0  0
    0.7601   -1.7579    0.1432 N   0  0  0  0  0  0  0  0  0  0  0  0
   -0.5385   -2.2190   -0.3937 C   0  0  0  0  0  0  0  0  0  0  0  0
   -0.3903   -3.2657   -1.3737 C   0  0  0  0  0  0  0  0  0  0  0  0
   -1.4426   -3.5471   -2.2668 C   0  0  0  0  0  0  0  0  0  0  0  0
   -1.2884   -4.5306   -3.1583 F   0  0  0  0  0  0  0  0  0  0  0  0
   -2.5969   -2.7617   -2.1298 C   0  0  0  0  0  0  0  0  0  0  0  0
   -3.5455   -2.8919   -3.1129 F   0  0  0  0  0  0  0  0  0  0  0  0
   -2.7533   -1.7706   -1.1983 C   0  0  0  0  0  0  0  0  0  0  0  0
   -3.9655   -1.0512   -0.9573 C   0  0  2  0  0  0  0  0  0  0  0  0
   -4.7371   -0.9339   -2.3927 C   0  0  0  0  0  0  0  0  0  0  0  0
   -3.8437    0.3607   -0.5769 C   0  0  0  0  0  0  0  0  0  0  0  0
   -4.8259    0.7100    0.5532 C   0  0  1  0  0  0  0  0  0  0  0  0
   -4.9920    2.1424    0.9224 C   0  0  0  0  0  0  0  0  0  0  0  0
   -5.9768    2.3012    1.8635 F   0  0  0  0  0  0  0  0  0  0  0  0
   -5.0463    3.0575   -0.0459 F   0  0  0  0  0  0  0  0  0  0  0  0
   -3.7675    2.4414    1.7124 F   0  0  0  0  0  0  0  0  0  0  0  0
   -6.0603    0.0608    0.3384 O   0  0  0  0  0  0  0  0  0  0  0  0
   -5.9860   -1.3261    0.3006 C   0  0  0  0  0  0  0  0  0  0  0  0
   -6.9182   -2.2310    0.8886 N   0  0  0  0  0  0  0  0  0  0  0  0
   -4.9772   -1.8633   -0.3213 N   0  0  0  0  0  0  0  0  0  0  0  0
   -1.6747   -1.5303   -0.3315 C   0  0  0  0  0  0  0  0  0  0  0  0
    3.1090   -0.1620    1.0693 N   0  0  0  0  0  0  0  0  0  0  0  0
    4.2425    0.0057    1.4293 C   0  0  0  0  0  0  0  0  0  0  0  0
    7.9618    5.4951    1.3387 H   0  0  0  0  0  0  0  0  0  0  0  0
    8.7909    5.1479    2.9340 H   0  0  0  0  0  0  0  0  0  0  0  0
    6.9697    5.2758    2.7881 H   0  0  0  0  0  0  0  0  0  0  0  0
    8.4008    0.4952    0.7886 H   0  0  0  0  0  0  0  0  0  0  0  0
    7.6587    0.4395    2.4468 H   0  0  0  0  0  0  0  0  0  0  0  0
    5.2414    1.4316   -1.6179 H   0  0  0  0  0  0  0  0  0  0  0  0
    2.9724    0.8100   -2.1533 H   0  0  0  0  0  0  0  0  0  0  0  0
    1.2525   -2.1936    0.8461 H   0  0  0  0  0  0  0  0  0  0  0  0
    0.4995   -3.8362   -1.4487 H   0  0  0  0  0  0  0  0  0  0  0  0
   -5.4682   -0.1303   -2.2578 H   0  0  0  0  0  0  0  0  0  0  0  0
   -4.0190   -0.8158   -3.1883 H   0  0  0  0  0  0  0  0  0  0  0  0
   -5.3376   -1.8643   -2.4642 H   0  0  0  0  0  0  0  0  0  0  0  0
   -2.8581    0.6463   -0.2435 H   0  0  0  0  0  0  0  0  0  0  0  0
   -4.1338    1.0999   -1.4551 H   0  0  0  0  0  0  0  0  0  0  0  0
   -4.3123    0.2354    1.4959 H   0  0  0  0  0  0  0  0  0  0  0  0
   -6.7225   -2.6878    1.8010 H   0  0  0  0  0  0  0  0  0  0  0  0
   -7.7959   -2.3740    0.3417 H   0  0  0  0  0  0  0  0  0  0  0  0
   -1.7560   -0.7859    0.4218 H   0  0  0  0  0  0  0  0  0  0  0  0
    4.9227   -0.0090    2.3024 H   0  0  0  0  0  0  0  0  0  0  0  0
  1  2  1  0
  2  3  3  0
  3  4  1  0
  4  5  1  0
  5  6  1  0
  6  7  2  0
  7  8  1  0
  8  9  2  0
  9 10  1  0
 10 11  2  0
 10 12  1  0
 12 13  1  0
 13 14  2  0
 14 15  1  0
 15 16  1  0
 15 17  2  0
 17 18  1  0
 17 19  1  0
 19 20  1  0
 20 21  1  6
 20 22  1  0
 22 23  1  0
 23 24  1  0
 24 25  1  0
 24 26  1  0
 24 27  1  0
 23 28  1  0
 28 29  1  0
 29 30  1  0
 29 31  2  0
 19 32  2  0
  9 33  1  0
 33 34  2  0
 34  6  1  0
 32 13  1  0
 31 20  1  0
  1 35  1  0
  1 36  1  0
  1 37  1  0
  4 38  1  0
  4 39  1  0
  7 40  1  0
  8 41  1  0
 12 42  1  0
 14 43  1  0
 21 44  1  0
 21 45  1  0
 21 46  1  0
 22 47  1  0
 22 48  1  0
 23 49  1  1
 30 50  1  0
 30 51  1  0
 32 52  1  0
 34 53  1  0
M  END
$$$$
