
     RDKit          3D

 24 24  0  0  0  0  0  0  0  0999 V2000
   -3.3626   -0.5317    0.2235 O   0  0  0  0  0  0  0  0  0  0  0  0
   -2.4810    0.4268   -0.2735 C   0  0  0  0  0  0  0  0  0  0  0  0
   -1.0851    0.0070    0.1099 C   0  0  1  0  0  0  0  0  0  0  0  0
   -0.7432   -1.2527   -0.4221 N   0  0  0  0  0  0  0  0  0  0  0  0
    0.6032   -1.5647   -0.6277 C   0  0  0  0  0  0  0  0  0  0  0  0
    1.6395   -0.6977   -0.0431 C   0  0  2  0  0  0  0  0  0  0  0  0
    2.2717   -1.3318    1.0535 O   0  0  0  0  0  0  0  0  0  0  0  0
    1.2004    0.6425    0.4290 C   0  0  1  0  0  0  0  0  0  0  0  0
    2.1645    1.6152    0.4039 O   0  0  0  0  0  0  0  0  0  0  0  0
   -0.0560    1.0272   -0.3354 C   0  0  2  0  0  0  0  0  0  0  0  0
   -0.4191    2.3100    0.0444 O   0  0  0  0  0  0  0  0  0  0  0  0
   -2.9159   -1.1368    0.8554 H   0  0  0  0  0  0  0  0  0  0  0  0
   -2.5753    0.5050   -1.3765 H   0  0  0  0  0  0  0  0  0  0  0  0
   -2.6936    1.4001    0.2339 H   0  0  0  0  0  0  0  0  0  0  0  0
   -1.0344   -0.0452    1.2218 H   0  0  0  0  0  0  0  0  0  0  0  0
   -1.3677   -2.0304   -0.1791 H   0  0  0  0  0  0  0  0  0  0  0  0
    0.7828   -2.6193   -0.2586 H   0  0  0  0  0  0  0  0  0  0  0  0
    0.7846   -1.6494   -1.7415 H   0  0  0  0  0  0  0  0  0  0  0  0
    2.4835   -0.5245   -0.7758 H   0  0  0  0  0  0  0  0  0  0  0  0
    2.8212   -0.6038    1.4806 H   0  0  0  0  0  0  0  0  0  0  0  0
    0.8698    0.5379    1.5023 H   0  0  0  0  0  0  0  0  0  0  0  0
    2.6124    1.7369   -0.4547 H   0  0  0  0  0  0  0  0  0  0  0  0
    0.1129    0.9825   -1.4388 H   0  0  0  0  0  0  0  0  0  0  0  0
    0.3872    2.7968    0.3685 H   0  0  0  0  0  0  0  0  0  0  0  0
  1  2  1  0
  2  3  1  0
  3  4  1  0
  4  5  1  0
  5  6  1  0
  6  7  1  0
  6  8  1  0
  8  9  1  0
  8 10  1  0
 10 11  1  0
 10  3  1  0
  1 12  1  0
  2 13  1  0
  2 14  1  0
  3 15  1  1
  4 16  1  0
  5 17  1  0
  5 18  1  0
  6 19  1  6
  7 20  1  0
  8 21  1  1
  9 22  1  0
 10 23  1  6
 11 24  1  0
M  END
$$$$
