
     RDKit          3D

 38 41  0  0  0  0  0  0  0  0999 V2000
   -0.3828   -1.0200   -0.8494 O   0  0  0  0  0  0  0  0  0  0  0  0
   -0.3379    0.1445   -1.3132 C   0  0  0  0  0  0  0  0  0  0  0  0
    0.9871    0.8011   -1.5315 C   0  0  0  0  0  0  0  0  0  0  0  0
    2.0779   -0.0312   -1.1626 N   0  0  0  0  0  0  0  0  0  0  0  0
    2.6463   -0.8295   -2.0866 C   0  0  0  0  0  0  0  0  0  0  0  0
    2.1749   -0.7956   -3.2504 O   0  0  0  0  0  0  0  0  0  0  0  0
    3.7150   -1.6642   -1.7764 C   0  0  0  0  0  0  0  0  0  0  0  0
    4.2132   -1.6848   -0.4993 C   0  0  0  0  0  0  0  0  0  0  0  0
    3.6255   -0.8624    0.4482 C   0  0  0  0  0  0  0  0  0  0  0  0
    4.0940   -0.8605    1.7347 C   0  0  0  0  0  0  0  0  0  0  0  0
    3.5677   -0.0806    2.7387 C   0  0  0  0  0  0  0  0  0  0  0  0
    4.0700   -0.1139    4.0063 F   0  0  0  0  0  0  0  0  0  0  0  0
    2.5128    0.7285    2.3908 C   0  0  0  0  0  0  0  0  0  0  0  0
    1.9245    1.5295    3.2928 F   0  0  0  0  0  0  0  0  0  0  0  0
    2.0178    0.7428    1.0825 C   0  0  0  0  0  0  0  0  0  0  0  0
    2.5541   -0.0419    0.0879 C   0  0  0  0  0  0  0  0  0  0  0  0
   -1.5596    0.7937   -1.6133 N   0  0  0  0  0  0  0  0  0  0  0  0
   -2.7634    0.1071   -1.3790 C   0  0  0  0  0  0  0  0  0  0  0  0
   -3.5521   -0.9476   -2.6611 S   0  0  0  0  0  0  0  0  0  0  0  0
   -4.9670   -1.4110   -1.5704 C   0  0  0  0  0  0  0  0  0  0  0  0
   -4.7039   -0.7487   -0.4055 C   0  0  0  0  0  0  0  0  0  0  0  0
   -6.0313   -1.0109    1.0274 Br  0  0  0  0  0  0  0  0  0  0  0  0
   -3.6027    0.0139   -0.3007 C   0  0  0  0  0  0  0  0  0  0  0  0
   -3.2256    0.7805    0.9352 C   0  0  0  0  0  0  0  0  0  0  0  0
   -2.1056    1.5508    1.0293 N   0  0  0  0  0  0  0  0  0  0  0  0
   -2.0238    2.1077    2.2244 N   0  0  0  0  0  0  0  0  0  0  0  0
   -3.0923    1.7081    2.9303 C   0  0  0  0  0  0  0  0  0  0  0  0
   -3.8215    0.8834    2.1019 N   0  0  0  0  0  0  0  0  0  0  0  0
    1.0344    1.0623   -2.6453 H   0  0  0  0  0  0  0  0  0  0  0  0
    0.9624    1.7755   -1.0190 H   0  0  0  0  0  0  0  0  0  0  0  0
    4.1638   -2.3022   -2.5298 H   0  0  0  0  0  0  0  0  0  0  0  0
    5.0440   -2.3158   -0.2047 H   0  0  0  0  0  0  0  0  0  0  0  0
    4.9266   -1.5074    1.9839 H   0  0  0  0  0  0  0  0  0  0  0  0
    1.1952    1.3839    0.8684 H   0  0  0  0  0  0  0  0  0  0  0  0
   -1.5367    1.7624   -1.9996 H   0  0  0  0  0  0  0  0  0  0  0  0
   -5.7372   -2.0501   -1.8948 H   0  0  0  0  0  0  0  0  0  0  0  0
   -3.3663    1.9579    3.9474 H   0  0  0  0  0  0  0  0  0  0  0  0
   -4.6977    0.4447    2.4174 H   0  0  0  0  0  0  0  0  0  0  0  0
  1  2  2  0
  2  3  1  0
  3  4  1  0
  4  5  1  0
  5  6  2  0
  5  7  1  0
  7  8  2  0
  8  9  1  0
  9 10  2  0
 10 11  1  0
 11 12  1  0
 11 13  2  0
 13 14  1  0
 13 15  1  0
 15 16  2  0
  2 17  1  0
 17 18  1  0
 18 19  1  0
 19 20  1  0
 20 21  2  0
 21 22  1  0
 21 23  1  0
 23 24  1  0
 24 25  2  0
 25 26  1  0
 26 27  2  0
 27 28  1  0
 16  4  1  0
 23 18  2  0
 28 24  1  0
 16  9  1  0
  3 29  1  0
  3 30  1  0
  7 31  1  0
  8 32  1  0
 10 33  1  0
 15 34  1  0
 17 35  1  0
 20 36  1  0
 27 37  1  0
 28 38  1  0
M  END
$$$$
