
     RDKit          3D

 79 85  0  0  0  0  0  0  0  0999 V2000
   -6.9696    4.6192   -0.0537 C   0  0  0  0  0  0  0  0  0  0  0  0
   -6.5237    3.1923    0.0233 C   0  0  0  0  0  0  0  0  0  0  0  0
   -7.0565    2.3210    0.9384 C   0  0  0  0  0  0  0  0  0  0  0  0
   -6.6334    1.0087    0.9957 C   0  0  0  0  0  0  0  0  0  0  0  0
   -5.6560    0.5240    0.1319 C   0  0  0  0  0  0  0  0  0  0  0  0
   -5.2350   -0.8306    0.2104 N   0  0  0  0  0  0  0  0  0  0  0  0
   -5.8233   -1.8645   -0.3700 N   0  0  0  0  0  0  0  0  0  0  0  0
   -5.1730   -3.0086   -0.0908 C   0  0  0  0  0  0  0  0  0  0  0  0
   -5.5173   -4.3941   -0.5553 C   0  0  0  0  0  0  0  0  0  0  0  0
   -4.4873   -5.3444    0.0286 C   0  0  0  0  0  0  0  0  0  0  0  0
   -6.8833   -4.7550   -0.0206 C   0  0  0  0  0  0  0  0  0  0  0  0
   -5.4497   -4.4997   -2.0542 C   0  0  0  0  0  0  0  0  0  0  0  0
   -4.1131   -2.6261    0.7201 C   0  0  0  0  0  0  0  0  0  0  0  0
   -4.1572   -1.2606    0.9051 C   0  0  0  0  0  0  0  0  0  0  0  0
   -3.2305   -0.5115    1.6809 N   0  0  0  0  0  0  0  0  0  0  0  0
   -2.0574   -0.0117    1.0497 C   0  0  0  0  0  0  0  0  0  0  0  0
   -1.8888   -0.2575   -0.1622 O   0  0  0  0  0  0  0  0  0  0  0  0
   -1.0976    0.7464    1.7669 N   0  0  0  0  0  0  0  0  0  0  0  0
    0.0838    1.2531    1.1650 C   0  0  0  0  0  0  0  0  0  0  0  0
    1.2677    0.5807    1.1291 C   0  0  0  0  0  0  0  0  0  0  0  0
    2.3925    1.1371    0.5156 C   0  0  0  0  0  0  0  0  0  0  0  0
    2.3885    2.3749   -0.0833 C   0  0  0  0  0  0  0  0  0  0  0  0
    3.4504    2.9520   -0.6876 O   0  0  0  0  0  0  0  0  0  0  0  0
    4.7075    2.4623   -0.8277 C   0  0  0  0  0  0  0  0  0  0  0  0
    5.6267    3.2742   -1.5102 C   0  0  0  0  0  0  0  0  0  0  0  0
    6.9198    2.8751   -1.7060 C   0  0  0  0  0  0  0  0  0  0  0  0
    7.2849    1.6761   -1.2226 N   0  0  0  0  0  0  0  0  0  0  0  0
    6.4529    0.8662   -0.5676 C   0  0  0  0  0  0  0  0  0  0  0  0
    6.8875   -0.3817   -0.0800 N   0  0  0  0  0  0  0  0  0  0  0  0
    8.1553   -0.9709   -0.2262 C   0  0  0  0  0  0  0  0  0  0  0  0
    9.1618   -0.5305   -1.0237 C   0  0  0  0  0  0  0  0  0  0  0  0
   10.3754   -1.1677   -1.0885 N   0  0  0  0  0  0  0  0  0  0  0  0
   10.6537   -2.2636   -0.3748 C   0  0  0  0  0  0  0  0  0  0  0  0
   11.7551   -3.0617   -0.2646 N   0  0  0  0  0  0  0  0  0  0  0  0
   11.4658   -4.0099    0.5950 N   0  0  0  0  0  0  0  0  0  0  0  0
   10.2174   -3.8743    1.0603 C   0  0  0  0  0  0  0  0  0  0  0  0
    9.6669   -2.7526    0.4505 C   0  0  0  0  0  0  0  0  0  0  0  0
    8.4435   -2.1238    0.5264 C   0  0  0  0  0  0  0  0  0  0  0  0
    5.1913    1.3000   -0.3986 N   0  0  0  0  0  0  0  0  0  0  0  0
    1.1483    3.0574   -0.0350 C   0  0  0  0  0  0  0  0  0  0  0  0
    1.1161    4.3169   -0.6362 C   0  0  0  0  0  0  0  0  0  0  0  0
   -0.0713    5.0217   -0.6154 C   0  0  0  0  0  0  0  0  0  0  0  0
   -1.1834    4.4640   -0.0049 C   0  0  0  0  0  0  0  0  0  0  0  0
   -1.1130    3.2306    0.5720 C   0  0  0  0  0  0  0  0  0  0  0  0
    0.0568    2.4956    0.5711 C   0  0  0  0  0  0  0  0  0  0  0  0
   -5.1340    1.4105   -0.7776 C   0  0  0  0  0  0  0  0  0  0  0  0
   -5.5552    2.7327   -0.8409 C   0  0  0  0  0  0  0  0  0  0  0  0
   -6.4204    5.2214    0.6982 H   0  0  0  0  0  0  0  0  0  0  0  0
   -8.0629    4.6506    0.0717 H   0  0  0  0  0  0  0  0  0  0  0  0
   -6.7429    5.0539   -1.0481 H   0  0  0  0  0  0  0  0  0  0  0  0
   -7.8281    2.7010    1.6216 H   0  0  0  0  0  0  0  0  0  0  0  0
   -7.0472    0.3209    1.7108 H   0  0  0  0  0  0  0  0  0  0  0  0
   -4.8207   -6.3812   -0.1828 H   0  0  0  0  0  0  0  0  0  0  0  0
   -3.4993   -5.2048   -0.4338 H   0  0  0  0  0  0  0  0  0  0  0  0
   -4.3823   -5.1629    1.1326 H   0  0  0  0  0  0  0  0  0  0  0  0
   -6.8512   -5.8327    0.2306 H   0  0  0  0  0  0  0  0  0  0  0  0
   -7.6711   -4.5573   -0.7769 H   0  0  0  0  0  0  0  0  0  0  0  0
   -7.0622   -4.2004    0.9063 H   0  0  0  0  0  0  0  0  0  0  0  0
   -6.3851   -5.0243   -2.3894 H   0  0  0  0  0  0  0  0  0  0  0  0
   -5.3261   -3.5202   -2.5612 H   0  0  0  0  0  0  0  0  0  0  0  0
   -4.6135   -5.1387   -2.3759 H   0  0  0  0  0  0  0  0  0  0  0  0
   -3.3964   -3.3336    1.1154 H   0  0  0  0  0  0  0  0  0  0  0  0
   -3.4286   -0.3404    2.6935 H   0  0  0  0  0  0  0  0  0  0  0  0
   -1.2686    0.9394    2.7825 H   0  0  0  0  0  0  0  0  0  0  0  0
    1.3145   -0.3926    1.5863 H   0  0  0  0  0  0  0  0  0  0  0  0
    3.3002    0.5304    0.5325 H   0  0  0  0  0  0  0  0  0  0  0  0
    5.2731    4.2380   -1.8810 H   0  0  0  0  0  0  0  0  0  0  0  0
    7.6518    3.4737   -2.2256 H   0  0  0  0  0  0  0  0  0  0  0  0
    6.1238   -0.9166    0.4637 H   0  0  0  0  0  0  0  0  0  0  0  0
    9.0046    0.3487   -1.6372 H   0  0  0  0  0  0  0  0  0  0  0  0
   12.6507   -2.8912   -0.8039 H   0  0  0  0  0  0  0  0  0  0  0  0
    9.6755   -4.4910    1.7809 H   0  0  0  0  0  0  0  0  0  0  0  0
    7.6813   -2.5134    1.1730 H   0  0  0  0  0  0  0  0  0  0  0  0
    2.0015    4.7249   -1.1048 H   0  0  0  0  0  0  0  0  0  0  0  0
   -0.1077    5.9961   -1.0774 H   0  0  0  0  0  0  0  0  0  0  0  0
   -2.1399    5.0027    0.0266 H   0  0  0  0  0  0  0  0  0  0  0  0
   -1.9692    2.7912    1.0463 H   0  0  0  0  0  0  0  0  0  0  0  0
   -4.3852    1.0853   -1.4574 H   0  0  0  0  0  0  0  0  0  0  0  0
   -5.1283    3.4315   -1.5744 H   0  0  0  0  0  0  0  0  0  0  0  0
  1  2  1  0
  2  3  2  0
  3  4  1  0
  4  5  2  0
  5  6  1  0
  6  7  1  0
  7  8  2  0
  8  9  1  0
  9 10  1  0
  9 11  1  0
  9 12  1  0
  8 13  1  0
 13 14  2  0
 14 15  1  0
 15 16  1  0
 16 17  2  0
 16 18  1  0
 18 19  1  0
 19 20  2  0
 20 21  1  0
 21 22  2  0
 22 23  1  0
 23 24  1  0
 24 25  2  0
 25 26  1  0
 26 27  2  0
 27 28  1  0
 28 29  1  0
 29 30  1  0
 30 31  2  0
 31 32  1  0
 32 33  2  0
 33 34  1  0
 34 35  1  0
 35 36  2  0
 36 37  1  0
 37 38  2  0
 28 39  2  0
 22 40  1  0
 40 41  2  0
 41 42  1  0
 42 43  2  0
 43 44  1  0
 44 45  2  0
  5 46  1  0
 46 47  2  0
 47  2  1  0
 14  6  1  0
 45 19  1  0
 39 24  1  0
 45 40  1  0
 38 30  1  0
 37 33  1  0
  1 48  1  0
  1 49  1  0
  1 50  1  0
  3 51  1  0
  4 52  1  0
 10 53  1  0
 10 54  1  0
 10 55  1  0
 11 56  1  0
 11 57  1  0
 11 58  1  0
 12 59  1  0
 12 60  1  0
 12 61  1  0
 13 62  1  0
 15 63  1  0
 18 64  1  0
 20 65  1  0
 21 66  1  0
 25 67  1  0
 26 68  1  0
 29 69  1  0
 31 70  1  0
 34 71  1  0
 36 72  1  0
 38 73  1  0
 41 74  1  0
 42 75  1  0
 43 76  1  0
 44 77  1  0
 46 78  1  0
 47 79  1  0
M  END
$$$$
