
     RDKit          3D

 82 85  0  0  0  0  0  0  0  0999 V2000
   -7.8379   -1.3971    1.7327 C   0  0  0  0  0  0  0  0  0  0  0  0
   -7.5131   -2.3615    0.7983 O   0  0  0  0  0  0  0  0  0  0  0  0
   -6.3006   -2.5843    0.1975 C   0  0  0  0  0  0  0  0  0  0  0  0
   -6.1598   -3.6067   -0.7310 C   0  0  0  0  0  0  0  0  0  0  0  0
   -4.9391   -3.8633   -1.3659 C   0  0  0  0  0  0  0  0  0  0  0  0
   -4.8612   -4.8958   -2.2764 O   0  0  0  0  0  0  0  0  0  0  0  0
   -3.7026   -5.2824   -2.9672 C   0  0  0  0  0  0  0  0  0  0  0  0
   -3.8970   -3.0527   -1.0230 C   0  0  0  0  0  0  0  0  0  0  0  0
   -4.0061   -2.0020   -0.0813 C   0  0  0  0  0  0  0  0  0  0  0  0
   -2.8416   -1.1733    0.1761 C   0  0  0  0  0  0  0  0  0  0  0  0
   -1.5737   -1.6975   -0.0259 C   0  0  0  0  0  0  0  0  0  0  0  0
   -0.4171   -0.9231    0.1249 C   0  0  0  0  0  0  0  0  0  0  0  0
    0.8396   -1.4334   -0.0731 C   0  0  0  0  0  0  0  0  0  0  0  0
    1.9464   -0.6834    0.0740 N   0  0  0  0  0  0  0  0  0  0  0  0
    1.9154    0.6089    0.4215 C   0  0  0  0  0  0  0  0  0  0  0  0
    3.0631    1.4170    0.6340 N   0  0  0  0  0  0  0  0  0  0  0  0
    4.1425    0.9048    1.4352 C   0  0  0  0  0  0  0  0  0  0  0  0
    4.9390   -0.1099    0.7019 C   0  0  0  0  0  0  0  0  0  0  0  0
    5.6188    0.5437   -0.4858 C   0  0  0  0  0  0  0  0  0  0  0  0
    6.5685    1.6386   -0.0193 C   0  0  0  0  0  0  0  0  0  0  0  0
    7.6125    0.9704    0.8703 C   0  0  0  0  0  0  0  0  0  0  0  0
    8.3115   -0.0026    0.0554 N   0  0  0  0  0  0  0  0  0  0  0  0
    9.1187    0.6961   -0.8884 C   0  0  0  0  0  0  0  0  0  0  0  0
   10.4220    0.0656   -1.2397 C   0  0  0  0  0  0  0  0  0  0  0  0
   10.9997   -0.6690   -0.2298 O   0  0  0  0  0  0  0  0  0  0  0  0
   10.0923   -1.6835    0.1275 C   0  0  0  0  0  0  0  0  0  0  0  0
    8.9477   -0.9944    0.8451 C   0  0  0  0  0  0  0  0  0  0  0  0
    0.6375    1.1461    0.6257 C   0  0  0  0  0  0  0  0  0  0  0  0
   -0.5144    0.4004    0.4831 C   0  0  0  0  0  0  0  0  0  0  0  0
   -1.7285    0.8888    0.6754 N   0  0  0  0  0  0  0  0  0  0  0  0
   -2.8824    0.1486    0.5357 C   0  0  0  0  0  0  0  0  0  0  0  0
   -4.0395    0.8714    0.8733 N   0  0  0  0  0  0  0  0  0  0  0  0
   -4.7738    1.6228   -0.0497 C   0  0  0  0  0  0  0  0  0  0  0  0
   -4.5081    1.6816   -1.2812 O   0  0  0  0  0  0  0  0  0  0  0  0
   -5.8856    2.3634    0.4735 N   0  0  0  0  0  0  0  0  0  0  0  0
   -6.6512    3.1811   -0.4384 C   0  0  0  0  0  0  0  0  0  0  0  0
   -7.7613    3.8417    0.3914 C   0  0  0  0  0  0  0  0  0  0  0  0
   -7.2920    2.3990   -1.5567 C   0  0  0  0  0  0  0  0  0  0  0  0
   -5.7307    4.2472   -1.0009 C   0  0  0  0  0  0  0  0  0  0  0  0
   -5.2063   -1.7791    0.5199 C   0  0  0  0  0  0  0  0  0  0  0  0
   -8.0363   -0.4386    1.1801 H   0  0  0  0  0  0  0  0  0  0  0  0
   -6.9968   -1.2116    2.4062 H   0  0  0  0  0  0  0  0  0  0  0  0
   -8.7848   -1.6207    2.2855 H   0  0  0  0  0  0  0  0  0  0  0  0
   -6.9818   -4.2369   -0.9907 H   0  0  0  0  0  0  0  0  0  0  0  0
   -3.2385   -6.1423   -2.4037 H   0  0  0  0  0  0  0  0  0  0  0  0
   -2.9210   -4.5049   -3.0298 H   0  0  0  0  0  0  0  0  0  0  0  0
   -3.9692   -5.6304   -4.0013 H   0  0  0  0  0  0  0  0  0  0  0  0
   -2.9369   -3.2140   -1.4988 H   0  0  0  0  0  0  0  0  0  0  0  0
   -1.4731   -2.7352   -0.2990 H   0  0  0  0  0  0  0  0  0  0  0  0
    0.9372   -2.4713   -0.3549 H   0  0  0  0  0  0  0  0  0  0  0  0
    3.1034    2.3574    0.2099 H   0  0  0  0  0  0  0  0  0  0  0  0
    3.7500    0.3907    2.3659 H   0  0  0  0  0  0  0  0  0  0  0  0
    4.7666    1.7349    1.8552 H   0  0  0  0  0  0  0  0  0  0  0  0
    4.2338   -0.8538    0.2552 H   0  0  0  0  0  0  0  0  0  0  0  0
    5.6462   -0.6668    1.3323 H   0  0  0  0  0  0  0  0  0  0  0  0
    4.8903    0.9473   -1.1839 H   0  0  0  0  0  0  0  0  0  0  0  0
    6.2106   -0.2509   -0.9782 H   0  0  0  0  0  0  0  0  0  0  0  0
    6.0630    2.4750    0.4622 H   0  0  0  0  0  0  0  0  0  0  0  0
    7.0793    2.0418   -0.9387 H   0  0  0  0  0  0  0  0  0  0  0  0
    7.1503    0.5730    1.7706 H   0  0  0  0  0  0  0  0  0  0  0  0
    8.3428    1.7956    1.1533 H   0  0  0  0  0  0  0  0  0  0  0  0
    8.5337    0.7988   -1.8377 H   0  0  0  0  0  0  0  0  0  0  0  0
    9.2830    1.7699   -0.5596 H   0  0  0  0  0  0  0  0  0  0  0  0
   11.1532    0.9001   -1.4593 H   0  0  0  0  0  0  0  0  0  0  0  0
   10.3327   -0.4943   -2.1915 H   0  0  0  0  0  0  0  0  0  0  0  0
    9.7357   -2.2201   -0.7565 H   0  0  0  0  0  0  0  0  0  0  0  0
   10.5462   -2.3971    0.8187 H   0  0  0  0  0  0  0  0  0  0  0  0
    8.1844   -1.8097    1.0277 H   0  0  0  0  0  0  0  0  0  0  0  0
    9.2855   -0.6711    1.8502 H   0  0  0  0  0  0  0  0  0  0  0  0
    0.5729    2.1674    0.8980 H   0  0  0  0  0  0  0  0  0  0  0  0
   -4.2938    0.8416    1.9124 H   0  0  0  0  0  0  0  0  0  0  0  0
   -6.1138    2.2922    1.4920 H   0  0  0  0  0  0  0  0  0  0  0  0
   -8.5385    4.1333   -0.3131 H   0  0  0  0  0  0  0  0  0  0  0  0
   -7.2812    4.7006    0.9098 H   0  0  0  0  0  0  0  0  0  0  0  0
   -8.0638    3.1030    1.1541 H   0  0  0  0  0  0  0  0  0  0  0  0
   -6.7912    2.5492   -2.5360 H   0  0  0  0  0  0  0  0  0  0  0  0
   -8.3449    2.7329   -1.7149 H   0  0  0  0  0  0  0  0  0  0  0  0
   -7.2630    1.3322   -1.2661 H   0  0  0  0  0  0  0  0  0  0  0  0
   -5.7334    4.1840   -2.1024 H   0  0  0  0  0  0  0  0  0  0  0  0
   -6.1349    5.2290   -0.6828 H   0  0  0  0  0  0  0  0  0  0  0  0
   -4.6830    4.0932   -0.6535 H   0  0  0  0  0  0  0  0  0  0  0  0
   -5.3724   -1.0154    1.2414 H   0  0  0  0  0  0  0  0  0  0  0  0
  1  2  1  0
  2  3  1  0
  3  4  2  0
  4  5  1  0
  5  6  1  0
  6  7  1  0
  5  8  2  0
  8  9  1  0
  9 10  1  0
 10 11  2  0
 11 12  1  0
 12 13  2  0
 13 14  1  0
 14 15  2  0
 15 16  1  0
 16 17  1  0
 17 18  1  0
 18 19  1  0
 19 20  1  0
 20 21  1  0
 21 22  1  0
 22 23  1  0
 23 24  1  0
 24 25  1  0
 25 26  1  0
 26 27  1  0
 15 28  1  0
 28 29  2  0
 29 30  1  0
 30 31  2  0
 31 32  1  0
 32 33  1  0
 33 34  2  0
 33 35  1  0
 35 36  1  0
 36 37  1  0
 36 38  1  0
 36 39  1  0
  9 40  2  0
 40  3  1  0
 31 10  1  0
 29 12  1  0
 27 22  1  0
  1 41  1  0
  1 42  1  0
  1 43  1  0
  4 44  1  0
  7 45  1  0
  7 46  1  0
  7 47  1  0
  8 48  1  0
 11 49  1  0
 13 50  1  0
 16 51  1  0
 17 52  1  0
 17 53  1  0
 18 54  1  0
 18 55  1  0
 19 56  1  0
 19 57  1  0
 20 58  1  0
 20 59  1  0
 21 60  1  0
 21 61  1  0
 23 62  1  0
 23 63  1  0
 24 64  1  0
 24 65  1  0
 26 66  1  0
 26 67  1  0
 27 68  1  0
 27 69  1  0
 28 70  1  0
 32 71  1  0
 35 72  1  0
 37 73  1  0
 37 74  1  0
 37 75  1  0
 38 76  1  0
 38 77  1  0
 38 78  1  0
 39 79  1  0
 39 80  1  0
 39 81  1  0
 40 82  1  0
M  END
$$$$
