
     RDKit          3D

 66 65  0  0  0  0  0  0  0  0999 V2000
    4.1234    1.9864   -1.3747 C   0  0  0  0  0  0  0  0  0  0  0  0
    3.6323    1.0950   -0.4133 N   0  0  0  0  0  0  0  0  0  0  0  0
    4.0921   -0.2202   -0.3366 C   0  0  0  0  0  0  0  0  0  0  0  0
    5.5268   -0.4112    0.1021 C   0  0  0  0  0  0  0  0  0  0  0  0
    5.8048   -1.7937    0.1192 O   0  0  0  0  0  0  0  0  0  0  0  0
    7.3967   -2.0938    0.5352 P   0  0  1  0  0  5  0  0  0  0  0  0
    7.8863   -1.1025    1.8061 O   0  0  0  0  0  0  0  0  0  0  0  0
    7.5157   -3.5464    0.9664 O   0  0  0  0  0  0  0  0  0  0  0  0
    8.4239   -1.8828   -0.8174 O   0  0  0  0  0  0  0  0  0  0  0  0
    9.8962   -1.3059   -0.1870 P   0  0  0  0  0  0  0  0  0  0  0  0
    9.7740    0.3680    0.0573 O   0  0  0  0  0  0  0  0  0  0  0  0
   11.1441   -1.5578   -1.3133 O   0  0  0  0  0  0  0  0  0  0  0  0
   10.1664   -2.0536    1.0968 O   0  0  0  0  0  0  0  0  0  0  0  0
    3.0804    1.7308    0.7223 C   0  0  0  0  0  0  0  0  0  0  0  0
    1.7957    2.4247    0.2318 C   0  0  0  0  0  0  0  0  0  0  0  0
    0.9624    1.2817   -0.3014 C   0  0  0  0  0  0  0  0  0  0  0  0
   -0.2343    0.7748   -0.0095 C   0  0  0  0  0  0  0  0  0  0  0  0
   -0.8856    1.5177    1.0973 C   0  0  0  0  0  0  0  0  0  0  0  0
   -0.6706   -0.3867   -0.7804 C   0  0  0  0  0  0  0  0  0  0  0  0
   -1.9075   -0.2403   -1.5893 C   0  0  0  0  0  0  0  0  0  0  0  0
   -3.1214    0.1009   -0.8114 C   0  0  0  0  0  0  0  0  0  0  0  0
   -4.3261   -0.4515   -0.5439 C   0  0  0  0  0  0  0  0  0  0  0  0
   -4.4713   -1.7535   -1.2091 C   0  0  0  0  0  0  0  0  0  0  0  0
   -5.2152    0.3287    0.3473 C   0  0  0  0  0  0  0  0  0  0  0  0
   -6.4939    0.7423   -0.2781 C   0  0  0  0  0  0  0  0  0  0  0  0
   -7.2884   -0.4263   -0.6954 C   0  0  0  0  0  0  0  0  0  0  0  0
   -8.4860   -0.6281   -0.1438 C   0  0  0  0  0  0  0  0  0  0  0  0
   -9.0217    0.3095    0.8801 C   0  0  0  0  0  0  0  0  0  0  0  0
   -9.3799   -1.7920   -0.4997 C   0  0  0  0  0  0  0  0  0  0  0  0
    3.3186    2.1130   -2.1589 H   0  0  0  0  0  0  0  0  0  0  0  0
    4.2641    3.0214   -0.9754 H   0  0  0  0  0  0  0  0  0  0  0  0
    5.0671    1.6466   -1.8517 H   0  0  0  0  0  0  0  0  0  0  0  0
    4.0121   -0.6804   -1.3574 H   0  0  0  0  0  0  0  0  0  0  0  0
    3.3971   -0.8322    0.2997 H   0  0  0  0  0  0  0  0  0  0  0  0
    5.7343    0.0738    1.0601 H   0  0  0  0  0  0  0  0  0  0  0  0
    6.1432    0.0559   -0.6962 H   0  0  0  0  0  0  0  0  0  0  0  0
    7.6591   -1.5406    2.6530 H   0  0  0  0  0  0  0  0  0  0  0  0
    8.9419    0.7019   -0.3544 H   0  0  0  0  0  0  0  0  0  0  0  0
   10.9313   -0.9942   -2.0951 H   0  0  0  0  0  0  0  0  0  0  0  0
    3.7566    2.4590    1.2130 H   0  0  0  0  0  0  0  0  0  0  0  0
    2.7182    0.9594    1.4418 H   0  0  0  0  0  0  0  0  0  0  0  0
    2.0681    3.1328   -0.5774 H   0  0  0  0  0  0  0  0  0  0  0  0
    1.3427    2.9317    1.0808 H   0  0  0  0  0  0  0  0  0  0  0  0
    1.5583    0.8241   -1.1155 H   0  0  0  0  0  0  0  0  0  0  0  0
   -1.6446    0.9185    1.6270 H   0  0  0  0  0  0  0  0  0  0  0  0
   -1.3000    2.4893    0.7382 H   0  0  0  0  0  0  0  0  0  0  0  0
   -0.1507    1.8053    1.8809 H   0  0  0  0  0  0  0  0  0  0  0  0
   -0.8733   -1.2036   -0.0256 H   0  0  0  0  0  0  0  0  0  0  0  0
    0.1351   -0.8181   -1.4162 H   0  0  0  0  0  0  0  0  0  0  0  0
   -2.0914   -1.1950   -2.1519 H   0  0  0  0  0  0  0  0  0  0  0  0
   -1.7672    0.5194   -2.4050 H   0  0  0  0  0  0  0  0  0  0  0  0
   -2.8759    1.0870   -0.3821 H   0  0  0  0  0  0  0  0  0  0  0  0
   -3.5019   -2.3055   -1.2780 H   0  0  0  0  0  0  0  0  0  0  0  0
   -4.8387   -1.6302   -2.2381 H   0  0  0  0  0  0  0  0  0  0  0  0
   -5.1957   -2.3957   -0.6591 H   0  0  0  0  0  0  0  0  0  0  0  0
   -5.3892   -0.3530    1.2423 H   0  0  0  0  0  0  0  0  0  0  0  0
   -4.6609    1.1860    0.8101 H   0  0  0  0  0  0  0  0  0  0  0  0
   -6.2515    1.4162   -1.1350 H   0  0  0  0  0  0  0  0  0  0  0  0
   -7.0585    1.3243    0.5110 H   0  0  0  0  0  0  0  0  0  0  0  0
   -7.0274   -1.1701   -1.4279 H   0  0  0  0  0  0  0  0  0  0  0  0
   -9.0815    1.3253    0.4309 H   0  0  0  0  0  0  0  0  0  0  0  0
  -10.0440    0.0556    1.1926 H   0  0  0  0  0  0  0  0  0  0  0  0
   -8.3040    0.2865    1.7413 H   0  0  0  0  0  0  0  0  0  0  0  0
   -9.9821   -2.0740    0.4099 H   0  0  0  0  0  0  0  0  0  0  0  0
  -10.0029   -1.5138   -1.3507 H   0  0  0  0  0  0  0  0  0  0  0  0
   -8.7254   -2.6407   -0.8031 H   0  0  0  0  0  0  0  0  0  0  0  0
  1  2  1  0
  2  3  1  0
  3  4  1  0
  4  5  1  0
  6  5  1  6
  6  7  1  0
  6  8  2  0
  6  9  1  0
  9 10  1  0
 10 11  1  0
 10 12  1  0
 10 13  2  0
  2 14  1  0
 14 15  1  0
 15 16  1  0
 16 17  2  0
 17 18  1  0
 17 19  1  0
 19 20  1  0
 20 21  1  0
 21 22  2  0
 22 23  1  0
 22 24  1  0
 24 25  1  0
 25 26  1  0
 26 27  2  3
 27 28  1  0
 27 29  1  0
  1 30  1  0
  1 31  1  0
  1 32  1  0
  3 33  1  0
  3 34  1  0
  4 35  1  0
  4 36  1  0
  7 37  1  0
 11 38  1  0
 12 39  1  0
 14 40  1  0
 14 41  1  0
 15 42  1  0
 15 43  1  0
 16 44  1  0
 18 45  1  0
 18 46  1  0
 18 47  1  0
 19 48  1  0
 19 49  1  0
 20 50  1  0
 20 51  1  0
 21 52  1  0
 23 53  1  0
 23 54  1  0
 23 55  1  0
 24 56  1  0
 24 57  1  0
 25 58  1  0
 25 59  1  0
 26 60  1  0
 28 61  1  0
 28 62  1  0
 28 63  1  0
 29 64  1  0
 29 65  1  0
 29 66  1  0
M  END
$$$$
