
     RDKit          3D

 51 54  0  0  0  0  0  0  0  0999 V2000
    3.5505   -1.8504   -1.3492 C   0  0  0  0  0  0  0  0  0  0  0  0
    4.0327   -1.1741   -0.1607 N   0  0  0  0  0  0  0  0  0  0  0  0
    4.5691   -2.0080    0.9103 C   0  0  0  0  0  0  0  0  0  0  0  0
    4.0497    0.2318    0.0148 C   0  0  0  0  0  0  0  0  0  0  0  0
    5.3348    0.8019    0.1447 C   0  0  0  0  0  0  0  0  0  0  0  0
    5.4754    2.1574    0.2655 C   0  0  0  0  0  0  0  0  0  0  0  0
    6.7730    2.7754    0.4002 C   0  0  0  0  0  0  0  0  0  0  0  0
    7.8186    3.2863    0.5155 N   0  0  0  0  0  0  0  0  0  0  0  0
    4.3571    2.9712    0.2605 C   0  0  0  0  0  0  0  0  0  0  0  0
    3.1583    2.3916    0.1365 N   0  0  0  0  0  0  0  0  0  0  0  0
    2.9778    1.0500    0.0153 C   0  0  0  0  0  0  0  0  0  0  0  0
    1.6165    0.5678   -0.0401 C   0  0  0  0  0  0  0  0  0  0  0  0
    0.7795    1.4198   -0.5028 O   0  0  0  0  0  0  0  0  0  0  0  0
    1.1419   -0.6962    0.3548 N   0  0  0  0  0  0  0  0  0  0  0  0
   -0.1906   -1.1378    0.2758 C   0  0  0  0  0  0  0  0  0  0  0  0
   -0.4487   -2.4500    0.7307 C   0  0  0  0  0  0  0  0  0  0  0  0
   -1.7246   -2.9636    0.6900 C   0  0  0  0  0  0  0  0  0  0  0  0
   -2.7753   -2.1791    0.1936 C   0  0  0  0  0  0  0  0  0  0  0  0
   -3.9833   -2.7898    0.2318 F   0  0  0  0  0  0  0  0  0  0  0  0
   -2.5536   -0.9090   -0.2530 C   0  0  0  0  0  0  0  0  0  0  0  0
   -3.6619   -0.1036   -0.7947 C   0  0  1  0  0  0  0  0  0  0  0  0
   -4.2529   -0.7678   -2.0018 C   0  0  0  0  0  0  0  0  0  0  0  0
   -3.2994   -0.9431   -3.0098 F   0  0  0  0  0  0  0  0  0  0  0  0
   -4.9523   -1.9107   -1.7868 F   0  0  0  0  0  0  0  0  0  0  0  0
   -4.6482   -0.0051    0.2454 N   0  0  0  0  0  0  0  0  0  0  0  0
   -4.7484    0.9377    1.1038 C   0  0  0  0  0  0  0  0  0  0  0  0
   -5.7870    0.8645    2.0569 N   0  0  0  0  0  0  0  0  0  0  0  0
   -3.8199    1.9632    1.0262 O   0  0  0  0  0  0  0  0  0  0  0  0
   -3.2133    2.3049   -0.1875 C   0  0  2  0  0  0  0  0  0  0  0  0
   -4.1701    2.3656   -1.3987 C   0  0  0  0  0  0  0  0  0  0  0  0
   -3.1704    1.2802   -1.2131 C   0  0  2  0  0  0  0  0  0  0  0  0
   -1.2455   -0.4173   -0.1974 C   0  0  0  0  0  0  0  0  0  0  0  0
    4.4041   -2.1432   -2.0119 H   0  0  0  0  0  0  0  0  0  0  0  0
    3.0176   -2.8058   -1.0896 H   0  0  0  0  0  0  0  0  0  0  0  0
    2.8819   -1.2018   -1.9581 H   0  0  0  0  0  0  0  0  0  0  0  0
    3.9907   -1.8647    1.8464 H   0  0  0  0  0  0  0  0  0  0  0  0
    4.5472   -3.0827    0.6500 H   0  0  0  0  0  0  0  0  0  0  0  0
    5.6458   -1.7377    1.0384 H   0  0  0  0  0  0  0  0  0  0  0  0
    6.2165    0.1687    0.1493 H   0  0  0  0  0  0  0  0  0  0  0  0
    4.5053    4.0354    0.3570 H   0  0  0  0  0  0  0  0  0  0  0  0
    1.8616   -1.3676    0.7807 H   0  0  0  0  0  0  0  0  0  0  0  0
    0.3555   -3.0621    1.1149 H   0  0  0  0  0  0  0  0  0  0  0  0
   -1.9344   -3.9647    1.0346 H   0  0  0  0  0  0  0  0  0  0  0  0
   -4.9937   -0.0521   -2.5117 H   0  0  0  0  0  0  0  0  0  0  0  0
   -6.7599    0.7215    1.7433 H   0  0  0  0  0  0  0  0  0  0  0  0
   -5.5634    0.9548    3.0605 H   0  0  0  0  0  0  0  0  0  0  0  0
   -2.4520    3.1038   -0.1510 H   0  0  0  0  0  0  0  0  0  0  0  0
   -3.9919    3.1777   -2.1332 H   0  0  0  0  0  0  0  0  0  0  0  0
   -5.2393    2.2080   -1.1850 H   0  0  0  0  0  0  0  0  0  0  0  0
   -2.3679    1.2769   -1.9724 H   0  0  0  0  0  0  0  0  0  0  0  0
   -1.1132    0.5718   -0.5508 H   0  0  0  0  0  0  0  0  0  0  0  0
  1  2  1  0
  2  3  1  0
  2  4  1  0
  4  5  2  0
  5  6  1  0
  6  7  1  0
  7  8  3  0
  6  9  2  0
  9 10  1  0
 10 11  2  0
 11 12  1  0
 12 13  2  0
 12 14  1  0
 14 15  1  0
 15 16  2  0
 16 17  1  0
 17 18  2  0
 18 19  1  0
 18 20  1  0
 20 21  1  0
 21 22  1  6
 22 23  1  0
 22 24  1  0
 21 25  1  0
 25 26  2  0
 26 27  1  0
 26 28  1  0
 28 29  1  0
 29 30  1  0
 30 31  1  0
 20 32  2  0
 11  4  1  0
 32 15  1  0
 31 21  1  0
 31 29  1  0
  1 33  1  0
  1 34  1  0
  1 35  1  0
  3 36  1  0
  3 37  1  0
  3 38  1  0
  5 39  1  0
  9 40  1  0
 14 41  1  0
 16 42  1  0
 17 43  1  0
 22 44  1  0
 27 45  1  0
 27 46  1  0
 29 47  1  1
 30 48  1  0
 30 49  1  0
 31 50  1  6
 32 51  1  0
M  END
$$$$
