
     RDKit          3D

 55 56  0  0  0  0  0  0  0  0999 V2000
    2.8304    0.0354    0.3624 C   0  0  1  0  0  0  0  0  0  0  0  0
    2.1471    1.1707   -0.2228 N   0  0  0  0  0  0  0  0  0  0  0  0
    4.0797    0.4701    1.1079 C   0  0  0  0  0  0  0  0  0  0  0  0
    5.0360    1.1581    0.1799 C   0  0  0  0  0  0  0  0  0  0  0  0
    5.0528    2.5227   -0.0737 C   0  0  0  0  0  0  0  0  0  0  0  0
    5.9899    3.0411   -0.9558 C   0  0  0  0  0  0  0  0  0  0  0  0
    6.9194    2.2392   -1.5997 C   0  0  0  0  0  0  0  0  0  0  0  0
    6.9086    0.8894   -1.3538 C   0  0  0  0  0  0  0  0  0  0  0  0
    5.9724    0.3840   -0.4748 C   0  0  0  0  0  0  0  0  0  0  0  0
    1.9408   -0.6560    1.3712 C   0  0  2  0  0  0  0  0  0  0  0  0
    2.6336   -1.7493    1.9178 O   0  0  0  0  0  0  0  0  0  0  0  0
    0.6678   -1.1791    0.7007 C   0  0  0  0  0  0  0  0  0  0  0  0
   -0.1101   -1.8261    1.7034 N   0  0  0  0  0  0  0  0  0  0  0  0
   -1.5857   -2.4961    1.2018 S   0  0  0  0  0  0  0  0  0  0  0  0
   -2.2102   -3.1360    2.4380 O   0  0  0  0  0  0  0  0  0  0  0  0
   -1.3921   -3.6424    0.2222 O   0  0  0  0  0  0  0  0  0  0  0  0
   -2.7356   -1.3858    0.5622 C   0  0  0  0  0  0  0  0  0  0  0  0
   -3.6079   -0.7416    1.4469 C   0  0  0  0  0  0  0  0  0  0  0  0
   -3.5068   -1.0328    2.9092 C   0  0  0  0  0  0  0  0  0  0  0  0
   -4.5458    0.1494    0.9663 C   0  0  0  0  0  0  0  0  0  0  0  0
   -4.6834    0.4545   -0.3619 C   0  0  0  0  0  0  0  0  0  0  0  0
   -5.6142    1.3444   -0.8781 O   0  0  0  0  0  0  0  0  0  0  0  0
   -6.5370    2.0417   -0.0542 C   0  0  0  0  0  0  0  0  0  0  0  0
   -3.8126   -0.1938   -1.2085 C   0  0  0  0  0  0  0  0  0  0  0  0
   -3.9256    0.1077   -2.6722 C   0  0  0  0  0  0  0  0  0  0  0  0
   -2.8519   -1.0979   -0.7799 C   0  0  0  0  0  0  0  0  0  0  0  0
   -1.9886   -1.7276   -1.8066 C   0  0  0  0  0  0  0  0  0  0  0  0
    3.0856   -0.7207   -0.4162 H   0  0  0  0  0  0  0  0  0  0  0  0
    2.7910    1.7373   -0.7886 H   0  0  0  0  0  0  0  0  0  0  0  0
    1.4307    0.7877   -0.8968 H   0  0  0  0  0  0  0  0  0  0  0  0
    3.7728    1.2114    1.8546 H   0  0  0  0  0  0  0  0  0  0  0  0
    4.5827   -0.4059    1.5194 H   0  0  0  0  0  0  0  0  0  0  0  0
    4.3133    3.1239    0.4451 H   0  0  0  0  0  0  0  0  0  0  0  0
    5.9436    4.1094   -1.1042 H   0  0  0  0  0  0  0  0  0  0  0  0
    7.6453    2.6775   -2.2894 H   0  0  0  0  0  0  0  0  0  0  0  0
    7.6147    0.2359   -1.8352 H   0  0  0  0  0  0  0  0  0  0  0  0
    6.0039   -0.6937   -0.3124 H   0  0  0  0  0  0  0  0  0  0  0  0
    1.6525    0.0333    2.1817 H   0  0  0  0  0  0  0  0  0  0  0  0
    2.7068   -2.4471    1.2092 H   0  0  0  0  0  0  0  0  0  0  0  0
    0.9777   -1.8700   -0.1156 H   0  0  0  0  0  0  0  0  0  0  0  0
    0.1507   -0.3211    0.2639 H   0  0  0  0  0  0  0  0  0  0  0  0
   -0.0601   -1.4570    2.6535 H   0  0  0  0  0  0  0  0  0  0  0  0
   -4.0306   -0.1826    3.4370 H   0  0  0  0  0  0  0  0  0  0  0  0
   -2.4675   -0.9768    3.2912 H   0  0  0  0  0  0  0  0  0  0  0  0
   -4.0612   -1.9372    3.2095 H   0  0  0  0  0  0  0  0  0  0  0  0
   -5.2036    0.6287    1.6794 H   0  0  0  0  0  0  0  0  0  0  0  0
   -6.1244    2.9214    0.4409 H   0  0  0  0  0  0  0  0  0  0  0  0
   -7.4579    2.3114   -0.6155 H   0  0  0  0  0  0  0  0  0  0  0  0
   -6.8787    1.3295    0.7482 H   0  0  0  0  0  0  0  0  0  0  0  0
   -3.8829   -0.8482   -3.2190 H   0  0  0  0  0  0  0  0  0  0  0  0
   -3.1806    0.8422   -2.9975 H   0  0  0  0  0  0  0  0  0  0  0  0
   -4.9322    0.5448   -2.8978 H   0  0  0  0  0  0  0  0  0  0  0  0
   -2.5103   -2.6654   -2.1619 H   0  0  0  0  0  0  0  0  0  0  0  0
   -1.9260   -1.0545   -2.6860 H   0  0  0  0  0  0  0  0  0  0  0  0
   -1.0267   -2.0584   -1.4311 H   0  0  0  0  0  0  0  0  0  0  0  0
  1  2  1  0
  1  3  1  0
  3  4  1  0
  4  5  2  0
  5  6  1  0
  6  7  2  0
  7  8  1  0
  8  9  2  0
  1 10  1  0
 10 11  1  0
 10 12  1  0
 12 13  1  0
 13 14  1  0
 14 15  2  0
 14 16  2  0
 14 17  1  0
 17 18  2  0
 18 19  1  0
 18 20  1  0
 20 21  2  0
 21 22  1  0
 22 23  1  0
 21 24  1  0
 24 25  1  0
 24 26  2  0
 26 27  1  0
  9  4  1  0
 26 17  1  0
  1 28  1  6
  2 29  1  0
  2 30  1  0
  3 31  1  0
  3 32  1  0
  5 33  1  0
  6 34  1  0
  7 35  1  0
  8 36  1  0
  9 37  1  0
 10 38  1  1
 11 39  1  0
 12 40  1  0
 12 41  1  0
 13 42  1  0
 19 43  1  0
 19 44  1  0
 19 45  1  0
 20 46  1  0
 23 47  1  0
 23 48  1  0
 23 49  1  0
 25 50  1  0
 25 51  1  0
 25 52  1  0
 27 53  1  0
 27 54  1  0
 27 55  1  0
M  END
$$$$
