
     RDKit          3D

 32 34  0  0  0  0  0  0  0  0999 V2000
    4.4379    1.2024    1.6468 C   0  0  0  0  0  0  0  0  0  0  0  0
    3.4328    0.5531    0.7278 C   0  0  0  0  0  0  0  0  0  0  0  0
    3.6642   -0.4802   -0.1462 C   0  0  0  0  0  0  0  0  0  0  0  0
    2.4663   -0.7494   -0.7731 C   0  0  0  0  0  0  0  0  0  0  0  0
    2.2481   -1.8019   -1.8063 C   0  0  0  0  0  0  0  0  0  0  0  0
    1.4830    0.1233   -0.2846 C   0  0  0  0  0  0  0  0  0  0  0  0
    0.1181    0.1479   -0.7517 C   0  0  0  0  0  0  0  0  0  0  0  0
   -0.8947    0.0555    0.0684 C   0  0  0  0  0  0  0  0  0  0  0  0
   -0.8484   -0.0866    1.5114 C   0  0  0  0  0  0  0  0  0  0  0  0
    0.1822   -0.1759    2.2338 O   0  0  0  0  0  0  0  0  0  0  0  0
   -2.2146   -0.1130    1.9931 N   0  0  0  0  0  0  0  0  0  0  0  0
   -3.0805    0.0099    0.8668 C   0  0  0  0  0  0  0  0  0  0  0  0
   -4.4579    0.0447    0.7261 C   0  0  0  0  0  0  0  0  0  0  0  0
   -5.0617    0.1742   -0.5084 C   0  0  0  0  0  0  0  0  0  0  0  0
   -4.2989    0.2731   -1.6387 C   0  0  0  0  0  0  0  0  0  0  0  0
   -2.9349    0.2422   -1.5393 C   0  0  0  0  0  0  0  0  0  0  0  0
   -2.3334    0.1111   -0.2877 C   0  0  0  0  0  0  0  0  0  0  0  0
    2.1334    0.8781    0.6129 N   0  0  0  0  0  0  0  0  0  0  0  0
    4.2496    0.9245    2.7052 H   0  0  0  0  0  0  0  0  0  0  0  0
    4.3077    2.2942    1.4964 H   0  0  0  0  0  0  0  0  0  0  0  0
    5.4515    0.9394    1.3077 H   0  0  0  0  0  0  0  0  0  0  0  0
    4.6392   -0.9475   -0.2654 H   0  0  0  0  0  0  0  0  0  0  0  0
    2.9048   -2.6709   -1.5819 H   0  0  0  0  0  0  0  0  0  0  0  0
    2.4424   -1.3986   -2.8292 H   0  0  0  0  0  0  0  0  0  0  0  0
    1.1717   -2.1030   -1.7820 H   0  0  0  0  0  0  0  0  0  0  0  0
   -0.1340    0.2441   -1.8230 H   0  0  0  0  0  0  0  0  0  0  0  0
   -2.4835   -0.2066    2.9947 H   0  0  0  0  0  0  0  0  0  0  0  0
   -5.0795   -0.0327    1.5976 H   0  0  0  0  0  0  0  0  0  0  0  0
   -6.1533    0.1986   -0.5944 H   0  0  0  0  0  0  0  0  0  0  0  0
   -4.7583    0.3755   -2.6170 H   0  0  0  0  0  0  0  0  0  0  0  0
   -2.2977    0.3186   -2.4194 H   0  0  0  0  0  0  0  0  0  0  0  0
    1.6984    1.6558    1.1593 H   0  0  0  0  0  0  0  0  0  0  0  0
  1  2  1  0
  2  3  2  0
  3  4  1  0
  4  5  1  0
  4  6  2  0
  6  7  1  0
  7  8  2  0
  8  9  1  0
  9 10  2  0
  9 11  1  0
 11 12  1  0
 12 13  2  0
 13 14  1  0
 14 15  2  0
 15 16  1  0
 16 17  2  0
  6 18  1  0
 18  2  1  0
 17  8  1  0
 17 12  1  0
  1 19  1  0
  1 20  1  0
  1 21  1  0
  3 22  1  0
  5 23  1  0
  5 24  1  0
  5 25  1  0
  7 26  1  0
 11 27  1  0
 13 28  1  0
 14 29  1  0
 15 30  1  0
 16 31  1  0
 18 32  1  0
M  END
$$$$
