
     RDKit          3D

 57 59  0  0  0  0  0  0  0  0999 V2000
   11.3852    1.2818   -0.2389 C   0  0  0  0  0  0  0  0  0  0  0  0
   10.3490    1.0494   -1.1722 O   0  0  0  0  0  0  0  0  0  0  0  0
    9.0581    0.7692   -0.7701 C   0  0  0  0  0  0  0  0  0  0  0  0
    8.0517    0.5426   -1.6710 C   0  0  0  0  0  0  0  0  0  0  0  0
    6.7827    0.2678   -1.1847 C   0  0  0  0  0  0  0  0  0  0  0  0
    6.5123    0.2176    0.1670 C   0  0  0  0  0  0  0  0  0  0  0  0
    5.1485   -0.0794    0.6764 C   0  0  0  0  0  0  0  0  0  0  0  0
    4.2980   -0.2570   -0.4230 O   0  0  0  0  0  0  0  0  0  0  0  0
    2.9325   -0.5547   -0.2564 C   0  0  0  0  0  0  0  0  0  0  0  0
    2.3840   -0.6822    1.0015 C   0  0  0  0  0  0  0  0  0  0  0  0
    1.0636   -0.9701    1.1501 N   0  0  0  0  0  0  0  0  0  0  0  0
    0.2700   -1.1355    0.1234 N   0  0  0  0  0  0  0  0  0  0  0  0
   -1.1698   -1.4489    0.3401 C   0  0  0  0  0  0  0  0  0  0  0  0
   -1.9324   -0.2101    0.4255 C   0  0  0  0  0  0  0  0  0  0  0  0
   -1.2917    0.9069    0.3939 O   0  0  0  0  0  0  0  0  0  0  0  0
   -3.3586   -0.0987    0.5459 C   0  0  0  0  0  0  0  0  0  0  0  0
   -3.8927    1.2082    0.6936 C   0  0  0  0  0  0  0  0  0  0  0  0
   -5.2329    1.4523    0.8433 C   0  0  0  0  0  0  0  0  0  0  0  0
   -6.1212    0.4081    0.8547 C   0  0  0  0  0  0  0  0  0  0  0  0
   -7.5782    0.6850    1.0188 C   0  0  0  0  0  0  0  0  0  0  0  0
   -8.2576    0.8821   -0.2255 N   0  0  0  0  0  0  0  0  0  0  0  0
   -7.7152    1.9914   -0.9536 C   0  0  0  0  0  0  0  0  0  0  0  0
   -8.3877   -0.3200   -0.9974 C   0  0  0  0  0  0  0  0  0  0  0  0
   -5.6199   -0.8510    0.7131 C   0  0  0  0  0  0  0  0  0  0  0  0
   -4.2587   -1.1352    0.5581 C   0  0  0  0  0  0  0  0  0  0  0  0
   -3.8431   -2.5560    0.3862 C   0  0  0  0  0  0  0  0  0  0  0  0
    0.7521   -1.0225   -1.1157 C   0  0  0  0  0  0  0  0  0  0  0  0
    0.0163   -1.1755   -2.1402 O   0  0  0  0  0  0  0  0  0  0  0  0
    2.1046   -0.7272   -1.3415 C   0  0  0  0  0  0  0  0  0  0  0  0
    7.5521    0.4511    0.9904 N   0  0  0  0  0  0  0  0  0  0  0  0
    8.7928    0.7204    0.5996 C   0  0  0  0  0  0  0  0  0  0  0  0
   11.0844    2.0778    0.4658 H   0  0  0  0  0  0  0  0  0  0  0  0
   11.5598    0.3214    0.3057 H   0  0  0  0  0  0  0  0  0  0  0  0
   12.3311    1.5119   -0.7690 H   0  0  0  0  0  0  0  0  0  0  0  0
    8.2210    0.5726   -2.7422 H   0  0  0  0  0  0  0  0  0  0  0  0
    5.9612    0.0828   -1.8939 H   0  0  0  0  0  0  0  0  0  0  0  0
    4.8114    0.7762    1.2953 H   0  0  0  0  0  0  0  0  0  0  0  0
    5.1502   -0.9753    1.3448 H   0  0  0  0  0  0  0  0  0  0  0  0
    3.0216   -0.5495    1.8673 H   0  0  0  0  0  0  0  0  0  0  0  0
   -1.2001   -1.9245    1.3658 H   0  0  0  0  0  0  0  0  0  0  0  0
   -1.4725   -2.1938   -0.3922 H   0  0  0  0  0  0  0  0  0  0  0  0
   -3.2255    2.0533    0.6897 H   0  0  0  0  0  0  0  0  0  0  0  0
   -5.5996    2.4758    0.9542 H   0  0  0  0  0  0  0  0  0  0  0  0
   -7.6976    1.5941    1.6337 H   0  0  0  0  0  0  0  0  0  0  0  0
   -8.0151   -0.1844    1.5560 H   0  0  0  0  0  0  0  0  0  0  0  0
   -8.4064    2.3240   -1.7744 H   0  0  0  0  0  0  0  0  0  0  0  0
   -7.6273    2.8469   -0.2728 H   0  0  0  0  0  0  0  0  0  0  0  0
   -6.6917    1.7893   -1.3504 H   0  0  0  0  0  0  0  0  0  0  0  0
   -8.9947   -0.0950   -1.8949 H   0  0  0  0  0  0  0  0  0  0  0  0
   -8.9159   -1.0675   -0.3564 H   0  0  0  0  0  0  0  0  0  0  0  0
   -7.4012   -0.7341   -1.3160 H   0  0  0  0  0  0  0  0  0  0  0  0
   -6.3078   -1.7006    0.7180 H   0  0  0  0  0  0  0  0  0  0  0  0
   -3.1141   -2.9246    1.1070 H   0  0  0  0  0  0  0  0  0  0  0  0
   -3.6143   -2.7531   -0.6821 H   0  0  0  0  0  0  0  0  0  0  0  0
   -4.7662   -3.2057    0.6423 H   0  0  0  0  0  0  0  0  0  0  0  0
    2.4998   -0.6347   -2.3367 H   0  0  0  0  0  0  0  0  0  0  0  0
    9.6156    0.9064    1.2908 H   0  0  0  0  0  0  0  0  0  0  0  0
  1  2  1  0
  2  3  1  0
  3  4  2  0
  4  5  1  0
  5  6  2  0
  6  7  1  0
  7  8  1  0
  8  9  1  0
  9 10  1  0
 10 11  2  0
 11 12  1  0
 12 13  1  0
 13 14  1  0
 14 15  2  0
 14 16  1  0
 16 17  2  0
 17 18  1  0
 18 19  2  0
 19 20  1  0
 20 21  1  0
 21 22  1  0
 21 23  1  0
 19 24  1  0
 24 25  2  0
 25 26  1  0
 12 27  1  0
 27 28  2  0
 27 29  1  0
  6 30  1  0
 30 31  2  0
 31  3  1  0
 29  9  2  0
 25 16  1  0
  1 32  1  0
  1 33  1  0
  1 34  1  0
  4 35  1  0
  5 36  1  0
  7 37  1  0
  7 38  1  0
 10 39  1  0
 13 40  1  0
 13 41  1  0
 17 42  1  0
 18 43  1  0
 20 44  1  0
 20 45  1  0
 22 46  1  0
 22 47  1  0
 22 48  1  0
 23 49  1  0
 23 50  1  0
 23 51  1  0
 24 52  1  0
 26 53  1  0
 26 54  1  0
 26 55  1  0
 29 56  1  0
 31 57  1  0
M  END
$$$$
