
     RDKit          3D

 42 45  0  0  0  0  0  0  0  0999 V2000
   -2.0983    2.8959    0.1498 N   0  0  0  0  0  0  0  0  0  0  0  0
   -2.4289    1.5269   -0.0383 C   0  0  0  0  0  0  0  0  0  0  0  0
   -2.2779    0.6564    0.8814 N   0  0  0  0  0  0  0  0  0  0  0  0
   -2.5897   -0.7674    0.7710 C   0  0  2  0  0  0  0  0  0  0  0  0
   -3.0798   -1.1522    2.1533 C   0  0  0  0  0  0  0  0  0  0  0  0
   -4.2024   -0.4103    2.5053 F   0  0  0  0  0  0  0  0  0  0  0  0
   -1.3373   -1.4739    0.5129 C   0  0  0  0  0  0  0  0  0  0  0  0
   -0.1643   -0.6834    0.4016 C   0  0  0  0  0  0  0  0  0  0  0  0
    1.0493   -1.2665    0.1477 C   0  0  0  0  0  0  0  0  0  0  0  0
    2.2278   -0.4269    0.0403 N   0  0  0  0  0  0  0  0  0  0  0  0
    2.6299    0.1102   -1.1825 C   0  0  0  0  0  0  0  0  0  0  0  0
    1.8575   -0.2023   -2.1699 O   0  0  0  0  0  0  0  0  0  0  0  0
    3.7763    0.9403   -1.3911 C   0  0  0  0  0  0  0  0  0  0  0  0
    3.7860    1.6347   -2.5734 N   0  0  0  0  0  0  0  0  0  0  0  0
    4.7788    2.4344   -2.9404 C   0  0  0  0  0  0  0  0  0  0  0  0
    5.8536    2.5917   -2.1217 C   0  0  0  0  0  0  0  0  0  0  0  0
    7.1839    3.6467   -2.5832 Cl  0  0  0  0  0  0  0  0  0  0  0  0
    5.9200    1.9310   -0.9218 C   0  0  0  0  0  0  0  0  0  0  0  0
    4.8438    1.0947   -0.5778 C   0  0  0  0  0  0  0  0  0  0  0  0
    4.9376    0.2090    0.9288 Cl  0  0  0  0  0  0  0  0  0  0  0  0
    1.1537   -2.6242   -0.0037 C   0  0  0  0  0  0  0  0  0  0  0  0
    0.0021   -3.4086    0.1049 C   0  0  0  0  0  0  0  0  0  0  0  0
   -1.2428   -2.8267    0.3640 C   0  0  0  0  0  0  0  0  0  0  0  0
   -2.6674   -3.8122    0.5128 Cl  0  0  0  0  0  0  0  0  0  0  0  0
   -3.7006   -1.0130   -0.1955 C   0  0  1  0  0  0  0  0  0  0  0  0
   -4.8716   -0.0230   -0.0441 C   0  0  0  0  0  0  0  0  0  0  0  0
   -3.9006    0.0157   -1.2327 C   0  0  1  0  0  0  0  0  0  0  0  0
   -2.9469    1.0273   -1.2478 O   0  0  0  0  0  0  0  0  0  0  0  0
   -2.7516    3.6588   -0.0922 H   0  0  0  0  0  0  0  0  0  0  0  0
   -1.1731    3.1372    0.5422 H   0  0  0  0  0  0  0  0  0  0  0  0
   -3.3717   -2.1991    2.2656 H   0  0  0  0  0  0  0  0  0  0  0  0
   -2.3209   -0.9352    2.9347 H   0  0  0  0  0  0  0  0  0  0  0  0
   -0.1848    0.3860    0.5109 H   0  0  0  0  0  0  0  0  0  0  0  0
    2.7161   -0.2499    0.9243 H   0  0  0  0  0  0  0  0  0  0  0  0
    4.7401    2.9686   -3.8961 H   0  0  0  0  0  0  0  0  0  0  0  0
    6.7450    2.0303   -0.2567 H   0  0  0  0  0  0  0  0  0  0  0  0
    2.0931   -3.1199   -0.2049 H   0  0  0  0  0  0  0  0  0  0  0  0
    0.0151   -4.4783   -0.0032 H   0  0  0  0  0  0  0  0  0  0  0  0
   -4.0775   -2.0245   -0.2749 H   0  0  0  0  0  0  0  0  0  0  0  0
   -4.7660    0.8161    0.6540 H   0  0  0  0  0  0  0  0  0  0  0  0
   -5.8777   -0.3242   -0.3259 H   0  0  0  0  0  0  0  0  0  0  0  0
   -4.2777   -0.2903   -2.2265 H   0  0  0  0  0  0  0  0  0  0  0  0
  1  2  1  0
  2  3  2  0
  3  4  1  0
  4  5  1  1
  5  6  1  0
  4  7  1  0
  7  8  2  0
  8  9  1  0
  9 10  1  0
 10 11  1  0
 11 12  2  0
 11 13  1  0
 13 14  2  0
 14 15  1  0
 15 16  2  0
 16 17  1  0
 16 18  1  0
 18 19  2  0
 19 20  1  0
  9 21  2  0
 21 22  1  0
 22 23  2  0
 23 24  1  0
  4 25  1  0
 25 26  1  0
 26 27  1  0
 27 28  1  0
 28  2  1  0
 23  7  1  0
 27 25  1  0
 19 13  1  0
  1 29  1  0
  1 30  1  0
  5 31  1  0
  5 32  1  0
  8 33  1  0
 10 34  1  0
 15 35  1  0
 18 36  1  0
 21 37  1  0
 22 38  1  0
 25 39  1  6
 26 40  1  0
 26 41  1  0
 27 42  1  6
M  END
$$$$
