
     RDKit          3D

 63 65  0  0  0  0  0  0  0  0999 V2000
   -5.2462   -2.4104    0.3184 O   0  0  0  0  0  0  0  0  0  0  0  0
   -4.5119   -2.0425   -0.8123 C   0  0  0  0  0  0  0  0  0  0  0  0
   -4.6004   -0.5543   -1.0212 C   0  0  1  0  0  0  0  0  0  0  0  0
   -6.0826   -0.2035   -1.1717 C   0  0  1  0  0  0  0  0  0  0  0  0
   -6.8164   -1.3266   -1.5332 O   0  0  0  0  0  0  0  0  0  0  0  0
   -6.5423    0.3887    0.1438 C   0  0  2  0  0  0  0  0  0  0  0  0
   -7.9022    0.4577    0.2735 O   0  0  0  0  0  0  0  0  0  0  0  0
   -5.8724    1.7400    0.2913 C   0  0  1  0  0  0  0  0  0  0  0  0
   -6.1632    2.2142    1.5658 O   0  0  0  0  0  0  0  0  0  0  0  0
   -4.3514    1.5362    0.1046 C   0  0  0  0  0  0  0  0  0  0  0  0
   -4.0925    0.1367    0.1104 N   0  0  0  0  0  0  0  0  0  0  0  0
   -3.0946   -0.4057    0.8839 C   0  0  0  0  0  0  0  0  0  0  0  0
   -1.6432   -0.1872    0.5379 C   0  0  0  0  0  0  0  0  0  0  0  0
   -1.2348    1.2378    0.5267 C   0  0  0  0  0  0  0  0  0  0  0  0
    0.2031    1.4406    0.1916 C   0  0  0  0  0  0  0  0  0  0  0  0
    1.1316    0.7942    1.1598 C   0  0  0  0  0  0  0  0  0  0  0  0
    1.0496   -0.5659    1.1558 O   0  0  0  0  0  0  0  0  0  0  0  0
    1.4679   -1.2043    0.0035 C   0  0  0  0  0  0  0  0  0  0  0  0
    2.9298   -0.8856   -0.1461 C   0  0  0  0  0  0  0  0  0  0  0  0
    3.3908    0.1746   -0.8704 C   0  0  0  0  0  0  0  0  0  0  0  0
    4.7480    0.3897   -0.9444 C   0  0  0  0  0  0  0  0  0  0  0  0
    5.6558   -0.4382   -0.3057 C   0  0  0  0  0  0  0  0  0  0  0  0
    7.0864   -0.2018   -0.3921 C   0  0  0  0  0  0  0  0  0  0  0  0
    7.9923   -1.2315   -0.3481 C   0  0  0  0  0  0  0  0  0  0  0  0
    9.3602   -1.0195   -0.4314 C   0  0  0  0  0  0  0  0  0  0  0  0
    9.8029    0.2679   -0.5615 C   0  0  0  0  0  0  0  0  0  0  0  0
    8.9347    1.3338   -0.6104 C   0  0  0  0  0  0  0  0  0  0  0  0
    7.5718    1.0854   -0.5243 C   0  0  0  0  0  0  0  0  0  0  0  0
    5.1731   -1.4995    0.4181 C   0  0  0  0  0  0  0  0  0  0  0  0
    3.8062   -1.7419    0.5109 C   0  0  0  0  0  0  0  0  0  0  0  0
   -6.0277   -2.9538    0.0366 H   0  0  0  0  0  0  0  0  0  0  0  0
   -4.8748   -2.6020   -1.7144 H   0  0  0  0  0  0  0  0  0  0  0  0
   -3.4775   -2.3970   -0.6671 H   0  0  0  0  0  0  0  0  0  0  0  0
   -4.0852   -0.2614   -1.9735 H   0  0  0  0  0  0  0  0  0  0  0  0
   -6.2307    0.5792   -1.9508 H   0  0  0  0  0  0  0  0  0  0  0  0
   -7.7697   -1.1631   -1.3787 H   0  0  0  0  0  0  0  0  0  0  0  0
   -6.0650   -0.2589    0.9377 H   0  0  0  0  0  0  0  0  0  0  0  0
   -8.1528    1.4027    0.4888 H   0  0  0  0  0  0  0  0  0  0  0  0
   -6.2940    2.3949   -0.4854 H   0  0  0  0  0  0  0  0  0  0  0  0
   -6.9750    2.7823    1.5413 H   0  0  0  0  0  0  0  0  0  0  0  0
   -3.9013    2.0123    0.9708 H   0  0  0  0  0  0  0  0  0  0  0  0
   -4.1067    2.0744   -0.8253 H   0  0  0  0  0  0  0  0  0  0  0  0
   -3.2538   -1.4980    1.0821 H   0  0  0  0  0  0  0  0  0  0  0  0
   -3.1896    0.0300    1.9428 H   0  0  0  0  0  0  0  0  0  0  0  0
   -1.0967   -0.6983    1.3899 H   0  0  0  0  0  0  0  0  0  0  0  0
   -1.3519   -0.7444   -0.3752 H   0  0  0  0  0  0  0  0  0  0  0  0
   -1.8826    1.8448   -0.1919 H   0  0  0  0  0  0  0  0  0  0  0  0
   -1.4785    1.7361    1.5162 H   0  0  0  0  0  0  0  0  0  0  0  0
    0.4446    1.0027   -0.8297 H   0  0  0  0  0  0  0  0  0  0  0  0
    0.4481    2.5284    0.0433 H   0  0  0  0  0  0  0  0  0  0  0  0
    2.1851    1.1642    1.0314 H   0  0  0  0  0  0  0  0  0  0  0  0
    0.8283    1.1782    2.1883 H   0  0  0  0  0  0  0  0  0  0  0  0
    0.9170   -0.9581   -0.9063 H   0  0  0  0  0  0  0  0  0  0  0  0
    1.3553   -2.3058    0.2154 H   0  0  0  0  0  0  0  0  0  0  0  0
    2.7271    0.8375   -1.3815 H   0  0  0  0  0  0  0  0  0  0  0  0
    5.1756    1.2148   -1.5042 H   0  0  0  0  0  0  0  0  0  0  0  0
    7.6259   -2.2360   -0.2454 H   0  0  0  0  0  0  0  0  0  0  0  0
    9.9953   -1.8760   -0.3890 H   0  0  0  0  0  0  0  0  0  0  0  0
   10.8666    0.4276   -0.6257 H   0  0  0  0  0  0  0  0  0  0  0  0
    9.3202    2.3331   -0.7140 H   0  0  0  0  0  0  0  0  0  0  0  0
    6.8588    1.8880   -0.5585 H   0  0  0  0  0  0  0  0  0  0  0  0
    5.8535   -2.1723    0.9337 H   0  0  0  0  0  0  0  0  0  0  0  0
    3.4618   -2.5848    1.0878 H   0  0  0  0  0  0  0  0  0  0  0  0
  1  2  1  0
  2  3  1  0
  3  4  1  0
  4  5  1  0
  4  6  1  0
  6  7  1  0
  6  8  1  0
  8  9  1  0
  8 10  1  0
 10 11  1  0
 11 12  1  0
 12 13  1  0
 13 14  1  0
 14 15  1  0
 15 16  1  0
 16 17  1  0
 17 18  1  0
 18 19  1  0
 19 20  2  0
 20 21  1  0
 21 22  2  0
 22 23  1  0
 23 24  2  0
 24 25  1  0
 25 26  2  0
 26 27  1  0
 27 28  2  0
 22 29  1  0
 29 30  2  0
 11  3  1  0
 30 19  1  0
 28 23  1  0
  1 31  1  0
  2 32  1  0
  2 33  1  0
  3 34  1  6
  4 35  1  6
  5 36  1  0
  6 37  1  1
  7 38  1  0
  8 39  1  6
  9 40  1  0
 10 41  1  0
 10 42  1  0
 12 43  1  0
 12 44  1  0
 13 45  1  0
 13 46  1  0
 14 47  1  0
 14 48  1  0
 15 49  1  0
 15 50  1  0
 16 51  1  0
 16 52  1  0
 18 53  1  0
 18 54  1  0
 20 55  1  0
 21 56  1  0
 24 57  1  0
 25 58  1  0
 26 59  1  0
 27 60  1  0
 28 61  1  0
 29 62  1  0
 30 63  1  0
M  END
$$$$
