
     RDKit          3D

 64 66  0  0  0  0  0  0  0  0999 V2000
    8.8347   -0.2431    1.1779 C   0  0  0  0  0  0  0  0  0  0  0  0
    7.6331   -0.6962    1.4828 C   0  0  0  0  0  0  0  0  0  0  0  0
    6.6743   -1.0454    0.4281 C   0  0  0  0  0  0  0  0  0  0  0  0
    7.0351   -0.8932   -0.7612 O   0  0  0  0  0  0  0  0  0  0  0  0
    5.3687   -1.5433    0.6643 N   0  0  0  0  0  0  0  0  0  0  0  0
    4.4887   -1.8632   -0.4368 C   0  0  0  0  0  0  0  0  0  0  0  0
    4.4879   -3.1294   -1.0054 C   0  0  0  0  0  0  0  0  0  0  0  0
    3.6255   -3.3965   -2.0644 C   0  0  0  0  0  0  0  0  0  0  0  0
    2.7753   -2.4211   -2.5540 C   0  0  0  0  0  0  0  0  0  0  0  0
    2.7658   -1.1612   -1.9999 C   0  0  0  0  0  0  0  0  0  0  0  0
    3.6270   -0.9243   -0.9548 C   0  0  0  0  0  0  0  0  0  0  0  0
    3.6140    0.3517   -0.3576 N   0  0  0  0  0  0  0  0  0  0  0  0
    2.7272    1.4059   -0.7978 C   0  0  0  0  0  0  0  0  0  0  0  0
    1.3660    1.2832   -0.6097 C   0  0  0  0  0  0  0  0  0  0  0  0
    0.5141    2.2817   -0.9963 C   0  0  0  0  0  0  0  0  0  0  0  0
   -0.8853    2.2162   -0.8640 N   0  0  0  0  0  0  0  0  0  0  0  0
   -1.6302    3.4722   -1.0863 C   0  0  0  0  0  0  0  0  0  0  0  0
   -1.7135    4.1466    0.2731 C   0  0  0  0  0  0  0  0  0  0  0  0
   -0.4277    4.4048    0.7593 O   0  0  0  0  0  0  0  0  0  0  0  0
   -0.5008    5.0351    2.0178 C   0  0  0  0  0  0  0  0  0  0  0  0
   -1.6574    1.0895   -0.5383 C   0  0  0  0  0  0  0  0  0  0  0  0
   -1.1113   -0.0447   -0.4528 O   0  0  0  0  0  0  0  0  0  0  0  0
   -3.0417    1.1384   -0.2887 N   0  0  0  0  0  0  0  0  0  0  0  0
   -3.7948   -0.0503    0.0347 C   0  0  0  0  0  0  0  0  0  0  0  0
   -3.8506   -0.5172    1.3309 C   0  0  0  0  0  0  0  0  0  0  0  0
   -2.9542    0.3542    2.5786 Cl  0  0  0  0  0  0  0  0  0  0  0  0
   -4.5857   -1.6507    1.6748 C   0  0  0  0  0  0  0  0  0  0  0  0
   -4.5682   -2.0283    3.0055 O   0  0  0  0  0  0  0  0  0  0  0  0
   -5.2979   -3.1700    3.3920 C   0  0  0  0  0  0  0  0  0  0  0  0
   -5.2618   -2.2971    0.6735 C   0  0  0  0  0  0  0  0  0  0  0  0
   -5.2485   -1.8821   -0.6460 C   0  0  0  0  0  0  0  0  0  0  0  0
   -5.9328   -2.5342   -1.6621 O   0  0  0  0  0  0  0  0  0  0  0  0
   -6.6812   -3.6813   -1.3129 C   0  0  0  0  0  0  0  0  0  0  0  0
   -4.4986   -0.7447   -0.9375 C   0  0  0  0  0  0  0  0  0  0  0  0
   -4.4737   -0.2136   -2.6039 Cl  0  0  0  0  0  0  0  0  0  0  0  0
    1.0929    3.3779   -1.5665 N   0  0  0  0  0  0  0  0  0  0  0  0
    2.3962    3.5242   -1.7607 C   0  0  0  0  0  0  0  0  0  0  0  0
    3.2019    2.5161   -1.3650 N   0  0  0  0  0  0  0  0  0  0  0  0
    9.1624   -0.1089    0.1679 H   0  0  0  0  0  0  0  0  0  0  0  0
    9.5152    0.0028    1.9798 H   0  0  0  0  0  0  0  0  0  0  0  0
    7.3171   -0.8218    2.4997 H   0  0  0  0  0  0  0  0  0  0  0  0
    5.0671   -1.6686    1.6529 H   0  0  0  0  0  0  0  0  0  0  0  0
    5.1714   -3.8614   -0.5894 H   0  0  0  0  0  0  0  0  0  0  0  0
    3.6788   -4.3993   -2.4563 H   0  0  0  0  0  0  0  0  0  0  0  0
    2.1325   -2.6853   -3.3731 H   0  0  0  0  0  0  0  0  0  0  0  0
    2.0950   -0.4054   -2.3911 H   0  0  0  0  0  0  0  0  0  0  0  0
    4.2418    0.6266    0.4423 H   0  0  0  0  0  0  0  0  0  0  0  0
    1.0299    0.3797   -0.1460 H   0  0  0  0  0  0  0  0  0  0  0  0
   -1.0423    4.1054   -1.7820 H   0  0  0  0  0  0  0  0  0  0  0  0
   -2.6026    3.3123   -1.5396 H   0  0  0  0  0  0  0  0  0  0  0  0
   -2.3278    5.0539    0.2733 H   0  0  0  0  0  0  0  0  0  0  0  0
   -2.1760    3.4579    1.0231 H   0  0  0  0  0  0  0  0  0  0  0  0
   -1.0301    4.3997    2.7580 H   0  0  0  0  0  0  0  0  0  0  0  0
    0.5392    5.1546    2.3611 H   0  0  0  0  0  0  0  0  0  0  0  0
   -1.0006    6.0318    1.9325 H   0  0  0  0  0  0  0  0  0  0  0  0
   -3.5565    2.0375   -0.3295 H   0  0  0  0  0  0  0  0  0  0  0  0
   -6.3759   -2.8742    3.3802 H   0  0  0  0  0  0  0  0  0  0  0  0
   -5.1769   -4.0075    2.6830 H   0  0  0  0  0  0  0  0  0  0  0  0
   -5.0574   -3.4772    4.4371 H   0  0  0  0  0  0  0  0  0  0  0  0
   -5.8250   -3.1680    0.9487 H   0  0  0  0  0  0  0  0  0  0  0  0
   -7.3385   -4.0108   -2.1558 H   0  0  0  0  0  0  0  0  0  0  0  0
   -7.3104   -3.4320   -0.4092 H   0  0  0  0  0  0  0  0  0  0  0  0
   -6.0326   -4.5301   -1.0207 H   0  0  0  0  0  0  0  0  0  0  0  0
    2.7900    4.4214   -2.2178 H   0  0  0  0  0  0  0  0  0  0  0  0
  1  2  2  3
  2  3  1  0
  3  4  2  0
  3  5  1  0
  5  6  1  0
  6  7  2  0
  7  8  1  0
  8  9  2  0
  9 10  1  0
 10 11  2  0
 11 12  1  0
 12 13  1  0
 13 14  2  0
 14 15  1  0
 15 16  1  0
 16 17  1  0
 17 18  1  0
 18 19  1  0
 19 20  1  0
 16 21  1  0
 21 22  2  0
 21 23  1  0
 23 24  1  0
 24 25  2  0
 25 26  1  0
 25 27  1  0
 27 28  1  0
 28 29  1  0
 27 30  2  0
 30 31  1  0
 31 32  1  0
 32 33  1  0
 31 34  2  0
 34 35  1  0
 15 36  2  0
 36 37  1  0
 37 38  2  0
 11  6  1  0
 38 13  1  0
 34 24  1  0
  1 39  1  0
  1 40  1  0
  2 41  1  0
  5 42  1  0
  7 43  1  0
  8 44  1  0
  9 45  1  0
 10 46  1  0
 12 47  1  0
 14 48  1  0
 17 49  1  0
 17 50  1  0
 18 51  1  0
 18 52  1  0
 20 53  1  0
 20 54  1  0
 20 55  1  0
 23 56  1  0
 29 57  1  0
 29 58  1  0
 29 59  1  0
 30 60  1  0
 33 61  1  0
 33 62  1  0
 33 63  1  0
 37 64  1  0
M  END
$$$$
