
     RDKit          3D

 58 60  0  0  0  0  0  0  0  0999 V2000
    4.5006    1.3114    0.5481 C   0  0  0  0  0  0  0  0  0  0  0  0
    4.5365    0.6284   -0.6993 N   0  0  0  0  0  0  0  0  0  0  0  0
    5.7681    0.6637   -1.4108 C   0  0  0  0  0  0  0  0  0  0  0  0
    6.9212    0.0904   -0.7338 C   0  0  0  0  0  0  0  0  0  0  0  0
    7.2229   -1.2377   -0.8876 C   0  0  0  0  0  0  0  0  0  0  0  0
    8.2925   -1.8183   -0.2749 C   0  0  0  0  0  0  0  0  0  0  0  0
    9.1038   -1.0508    0.5287 C   0  0  0  0  0  0  0  0  0  0  0  0
    8.8229    0.2867    0.7003 C   0  0  0  0  0  0  0  0  0  0  0  0
    7.7247    0.8602    0.0648 C   0  0  0  0  0  0  0  0  0  0  0  0
    3.7919   -0.5858   -0.7802 C   0  0  0  0  0  0  0  0  0  0  0  0
    2.3599   -0.2822   -0.5234 C   0  0  0  0  0  0  0  0  0  0  0  0
    1.7719   -0.2979    0.7168 C   0  0  0  0  0  0  0  0  0  0  0  0
    0.4124    0.0027    0.8629 C   0  0  0  0  0  0  0  0  0  0  0  0
   -0.3815    0.3220   -0.2144 C   0  0  0  0  0  0  0  0  0  0  0  0
   -1.8287    0.6393   -0.0351 C   0  0  0  0  0  0  0  0  0  0  0  0
   -2.6043   -0.5371   -0.1332 O   0  0  0  0  0  0  0  0  0  0  0  0
   -3.9869   -0.4107    0.0105 C   0  0  0  0  0  0  0  0  0  0  0  0
   -4.8181   -1.5131   -0.0714 C   0  0  0  0  0  0  0  0  0  0  0  0
   -6.1867   -1.4212    0.0659 C   0  0  0  0  0  0  0  0  0  0  0  0
   -6.7953   -0.1966    0.2957 C   0  0  0  0  0  0  0  0  0  0  0  0
   -8.1560   -0.0953    0.4333 C   0  0  0  0  0  0  0  0  0  0  0  0
   -9.0482   -1.2789    0.3453 C   0  0  0  0  0  0  0  0  0  0  0  0
   -8.9560   -2.0125    1.5351 O   0  0  0  0  0  0  0  0  0  0  0  0
   -8.7091    1.1468    0.6605 C   0  0  0  0  0  0  0  0  0  0  0  0
   -7.8204    2.2167    0.7326 C   0  0  0  0  0  0  0  0  0  0  0  0
   -8.2962    3.3750    0.9409 O   0  0  0  0  0  0  0  0  0  0  0  0
   -6.5355    2.0652    0.5947 O   0  0  0  0  0  0  0  0  0  0  0  0
   -5.9539    0.9017    0.3761 C   0  0  0  0  0  0  0  0  0  0  0  0
   -4.5856    0.8109    0.2391 C   0  0  0  0  0  0  0  0  0  0  0  0
    0.2070    0.3385   -1.4628 C   0  0  0  0  0  0  0  0  0  0  0  0
    1.5451    0.0426   -1.6060 C   0  0  0  0  0  0  0  0  0  0  0  0
    0.6862    0.0000    0.0000 Cl  0  0  0  0  0  0  0  0  0  0  0  0
    4.9709    2.3094    0.4017 H   0  0  0  0  0  0  0  0  0  0  0  0
    4.9454    0.7562    1.3977 H   0  0  0  0  0  0  0  0  0  0  0  0
    3.4429    1.5080    0.8180 H   0  0  0  0  0  0  0  0  0  0  0  0
    5.5801    0.2119   -2.4196 H   0  0  0  0  0  0  0  0  0  0  0  0
    5.9938    1.7402   -1.6305 H   0  0  0  0  0  0  0  0  0  0  0  0
    6.5975   -1.8552   -1.5139 H   0  0  0  0  0  0  0  0  0  0  0  0
    8.5361   -2.8670   -0.3924 H   0  0  0  0  0  0  0  0  0  0  0  0
    9.9546   -1.5187    1.0140 H   0  0  0  0  0  0  0  0  0  0  0  0
    9.4735    0.8808    1.3384 H   0  0  0  0  0  0  0  0  0  0  0  0
    7.5475    1.9291    0.2362 H   0  0  0  0  0  0  0  0  0  0  0  0
    3.8777   -0.9591   -1.8315 H   0  0  0  0  0  0  0  0  0  0  0  0
    4.1765   -1.3792   -0.0986 H   0  0  0  0  0  0  0  0  0  0  0  0
    2.3899   -0.5475    1.5631 H   0  0  0  0  0  0  0  0  0  0  0  0
   -0.0344   -0.0128    1.8353 H   0  0  0  0  0  0  0  0  0  0  0  0
   -2.0929    1.3345   -0.8650 H   0  0  0  0  0  0  0  0  0  0  0  0
   -2.0146    1.1400    0.9449 H   0  0  0  0  0  0  0  0  0  0  0  0
   -4.3982   -2.5080   -0.2514 H   0  0  0  0  0  0  0  0  0  0  0  0
   -6.8388   -2.2912    0.0013 H   0  0  0  0  0  0  0  0  0  0  0  0
   -8.7889   -1.9610   -0.4813 H   0  0  0  0  0  0  0  0  0  0  0  0
  -10.1087   -0.9768    0.2525 H   0  0  0  0  0  0  0  0  0  0  0  0
   -9.3932   -1.5026    2.2808 H   0  0  0  0  0  0  0  0  0  0  0  0
   -9.7693    1.2826    0.7756 H   0  0  0  0  0  0  0  0  0  0  0  0
   -3.9381    1.6703    0.3030 H   0  0  0  0  0  0  0  0  0  0  0  0
   -0.4237    0.5915   -2.3106 H   0  0  0  0  0  0  0  0  0  0  0  0
    1.9957    0.0607   -2.6069 H   0  0  0  0  0  0  0  0  0  0  0  0
   -0.6862    0.0000    0.0000 H   0  0  0  0  0  0  0  0  0  0  0  0
  1  2  1  0
  2  3  1  0
  3  4  1  0
  4  5  2  0
  5  6  1  0
  6  7  2  0
  7  8  1  0
  8  9  2  0
  2 10  1  0
 10 11  1  0
 11 12  2  0
 12 13  1  0
 13 14  2  0
 14 15  1  0
 15 16  1  0
 16 17  1  0
 17 18  2  0
 18 19  1  0
 19 20  2  0
 20 21  1  0
 21 22  1  0
 22 23  1  0
 21 24  2  0
 24 25  1  0
 25 26  2  0
 25 27  1  0
 27 28  1  0
 28 29  2  0
 14 30  1  0
 30 31  2  0
  9  4  1  0
 31 11  1  0
 29 17  1  0
 28 20  1  0
  1 33  1  0
  1 34  1  0
  1 35  1  0
  3 36  1  0
  3 37  1  0
  5 38  1  0
  6 39  1  0
  7 40  1  0
  8 41  1  0
  9 42  1  0
 10 43  1  0
 10 44  1  0
 12 45  1  0
 13 46  1  0
 15 47  1  0
 15 48  1  0
 18 49  1  0
 19 50  1  0
 22 51  1  0
 22 52  1  0
 23 53  1  0
 24 54  1  0
 29 55  1  0
 30 56  1  0
 31 57  1  0
 32 58  1  0
M  END
$$$$
