
     RDKit          3D

 41 45  0  0  0  0  0  0  0  0999 V2000
    1.1406   -2.1793    4.1618 N   0  0  0  0  0  0  0  0  0  0  0  0
    0.1025   -2.0370    3.6265 C   0  0  0  0  0  0  0  0  0  0  0  0
   -1.1602   -1.8480    2.9953 C   0  0  0  0  0  0  0  0  0  0  0  0
   -2.3169   -2.5354    3.3161 C   0  0  0  0  0  0  0  0  0  0  0  0
   -3.2795   -2.0601    2.4864 N   0  0  0  0  0  0  0  0  0  0  0  0
   -2.7207   -1.1223    1.6976 C   0  0  0  0  0  0  0  0  0  0  0  0
   -3.3127   -0.3659    0.7014 C   0  0  0  0  0  0  0  0  0  0  0  0
   -2.4890    0.5305    0.0462 C   0  0  0  0  0  0  0  0  0  0  0  0
   -1.1528    0.6772    0.3537 C   0  0  0  0  0  0  0  0  0  0  0  0
   -0.3396    1.6431   -0.3739 C   0  0  0  0  0  0  0  0  0  0  0  0
    0.7769    1.2989   -1.1424 C   0  0  0  0  0  0  0  0  0  0  0  0
    1.2646   -0.0727   -1.3207 C   0  0  0  0  0  0  0  0  0  0  0  0
    0.5158   -1.0233   -1.9860 C   0  0  0  0  0  0  0  0  0  0  0  0
    0.9720   -2.3141   -2.1539 C   0  0  0  0  0  0  0  0  0  0  0  0
    2.2018   -2.6936   -1.6565 C   0  0  0  0  0  0  0  0  0  0  0  0
    2.9759   -1.7660   -0.9856 C   0  0  0  0  0  0  0  0  0  0  0  0
    2.4896   -0.4822   -0.8348 C   0  0  0  0  0  0  0  0  0  0  0  0
    4.1558   -2.4109   -0.5943 O   0  0  0  0  0  0  0  0  0  0  0  0
    4.0792   -3.7769   -0.8805 C   0  0  0  0  0  0  0  0  0  0  0  0
    2.9150   -3.8834   -1.6657 O   0  0  0  0  0  0  0  0  0  0  0  0
    1.2636    2.4451   -1.6515 N   0  0  0  0  0  0  0  0  0  0  0  0
    0.5150    3.4669   -1.2425 C   0  0  0  0  0  0  0  0  0  0  0  0
   -0.4756    2.9784   -0.4542 N   0  0  0  0  0  0  0  0  0  0  0  0
   -1.5075    3.7674    0.1953 C   0  0  0  0  0  0  0  0  0  0  0  0
   -0.9792    4.1830    1.5749 C   0  0  0  0  0  0  0  0  0  0  0  0
   -0.6867    3.0797    2.3464 F   0  0  0  0  0  0  0  0  0  0  0  0
    0.1508    4.9575    1.3226 F   0  0  0  0  0  0  0  0  0  0  0  0
   -0.6638   -0.0939    1.3303 N   0  0  0  0  0  0  0  0  0  0  0  0
   -1.4154   -0.9675    1.9860 N   0  0  0  0  0  0  0  0  0  0  0  0
   -2.4712   -3.3033    4.0655 H   0  0  0  0  0  0  0  0  0  0  0  0
   -4.3566   -0.4555    0.4338 H   0  0  0  0  0  0  0  0  0  0  0  0
   -2.9751    1.1156   -0.7366 H   0  0  0  0  0  0  0  0  0  0  0  0
   -0.4581   -0.6916   -2.3717 H   0  0  0  0  0  0  0  0  0  0  0  0
    0.3649   -3.0546   -2.6840 H   0  0  0  0  0  0  0  0  0  0  0  0
    3.0770    0.2693   -0.3112 H   0  0  0  0  0  0  0  0  0  0  0  0
    3.9791   -4.3166    0.0993 H   0  0  0  0  0  0  0  0  0  0  0  0
    4.9906   -4.1452   -1.4097 H   0  0  0  0  0  0  0  0  0  0  0  0
    0.6954    4.5036   -1.5142 H   0  0  0  0  0  0  0  0  0  0  0  0
   -2.4046    3.1403    0.4128 H   0  0  0  0  0  0  0  0  0  0  0  0
   -1.7472    4.6804   -0.3540 H   0  0  0  0  0  0  0  0  0  0  0  0
   -1.7138    4.8624    2.0410 H   0  0  0  0  0  0  0  0  0  0  0  0
  1  2  3  0
  2  3  1  0
  3  4  2  0
  4  5  1  0
  5  6  2  0
  6  7  1  0
  7  8  2  0
  8  9  1  0
  9 10  1  0
 10 11  2  0
 11 12  1  0
 12 13  2  0
 13 14  1  0
 14 15  2  0
 15 16  1  0
 16 17  2  0
 16 18  1  0
 18 19  1  0
 19 20  1  0
 11 21  1  0
 21 22  2  0
 22 23  1  0
 23 24  1  0
 24 25  1  0
 25 26  1  0
 25 27  1  0
  9 28  2  0
 28 29  1  0
 29  3  1  0
 29  6  1  0
 23 10  1  0
 17 12  1  0
 20 15  1  0
  4 30  1  0
  7 31  1  0
  8 32  1  0
 13 33  1  0
 14 34  1  0
 17 35  1  0
 19 36  1  0
 19 37  1  0
 22 38  1  0
 24 39  1  0
 24 40  1  0
 25 41  1  0
M  END
$$$$
