
     RDKit          3D

 60 63  0  0  0  0  0  0  0  0999 V2000
    0.6614    0.4406   -0.8599 C   0  0  2  0  0  0  0  0  0  0  0  0
    2.0352   -0.1453   -0.6488 C   0  0  0  0  0  0  0  0  0  0  0  0
    2.9142    0.6305    0.2367 C   0  0  0  0  0  0  0  0  0  0  0  0
    2.7096    1.7298    1.0289 C   0  0  0  0  0  0  0  0  0  0  0  0
    3.6865    2.3120    1.8035 C   0  0  0  0  0  0  0  0  0  0  0  0
    3.3197    3.4167    2.5470 O   0  0  0  0  0  0  0  0  0  0  0  0
    4.9460    1.7944    1.8107 C   0  0  0  0  0  0  0  0  0  0  0  0
    5.2026    0.6810    1.0241 C   0  0  0  0  0  0  0  0  0  0  0  0
    4.2085    0.0936    0.2399 C   0  0  0  0  0  0  0  0  0  0  0  0
    4.6852   -1.0435   -0.4925 N   0  0  0  0  0  0  0  0  0  0  0  0
    4.3516   -2.4385   -0.5417 C   0  0  0  0  0  0  0  0  0  0  0  0
    5.7660   -0.7883   -1.4276 C   0  0  0  0  0  0  0  0  0  0  0  0
    1.3471    2.2429    0.9747 C   0  0  0  0  0  0  0  0  0  0  0  0
    0.9917    3.2357    1.6341 O   0  0  0  0  0  0  0  0  0  0  0  0
    0.4355    1.5183    0.1016 C   0  0  0  0  0  0  0  0  0  0  0  0
   -0.8635    1.7994    0.0786 C   0  0  0  0  0  0  0  0  0  0  0  0
   -1.2504    2.8309    0.9616 O   0  0  0  0  0  0  0  0  0  0  0  0
   -1.8893    1.1245   -0.7825 C   0  0  2  0  0  0  0  0  0  0  0  0
   -1.6048    1.6126   -2.0904 O   0  0  0  0  0  0  0  0  0  0  0  0
   -3.2080    1.6564   -0.3749 C   0  0  0  0  0  0  0  0  0  0  0  0
   -3.2024    2.9215   -0.3557 O   0  0  0  0  0  0  0  0  0  0  0  0
   -4.3563    0.8409   -0.0411 C   0  0  0  0  0  0  0  0  0  0  0  0
   -5.6514    1.4184    0.0660 C   0  0  0  0  0  0  0  0  0  0  0  0
   -5.8443    2.7925   -0.1493 N   0  0  0  0  0  0  0  0  0  0  0  0
   -6.7356    0.8423    0.3461 O   0  0  0  0  0  0  0  0  0  0  0  0
   -3.9895   -0.4041    0.1233 C   0  0  0  0  0  0  0  0  0  0  0  0
   -5.1415   -1.1544    0.4455 O   0  0  0  0  0  0  0  0  0  0  0  0
   -2.6635   -1.1096    0.0340 C   0  0  1  0  0  0  0  0  0  0  0  0
   -2.8825   -2.4920   -0.3223 N   0  0  0  0  0  0  0  0  0  0  0  0
   -3.7359   -3.1542    0.6811 C   0  0  0  0  0  0  0  0  0  0  0  0
   -1.7179   -3.3119   -0.4036 C   0  0  0  0  0  0  0  0  0  0  0  0
   -1.7577   -0.3456   -0.8613 C   0  0  2  0  0  0  0  0  0  0  0  0
   -0.3234   -0.7019   -0.5691 C   0  0  0  0  0  0  0  0  0  0  0  0
    0.5250    0.7889   -1.9090 H   0  0  0  0  0  0  0  0  0  0  0  0
    1.9129   -1.1423   -0.1625 H   0  0  0  0  0  0  0  0  0  0  0  0
    2.4947   -0.2505   -1.6613 H   0  0  0  0  0  0  0  0  0  0  0  0
    2.8030    3.3676    3.4145 H   0  0  0  0  0  0  0  0  0  0  0  0
    5.7307    2.2443    2.4181 H   0  0  0  0  0  0  0  0  0  0  0  0
    6.2288    0.3164    1.0746 H   0  0  0  0  0  0  0  0  0  0  0  0
    5.2570   -3.0806   -0.4260 H   0  0  0  0  0  0  0  0  0  0  0  0
    3.6392   -2.7577    0.2363 H   0  0  0  0  0  0  0  0  0  0  0  0
    3.8743   -2.6679   -1.5153 H   0  0  0  0  0  0  0  0  0  0  0  0
    6.7029   -1.2792   -1.0719 H   0  0  0  0  0  0  0  0  0  0  0  0
    5.9815    0.2877   -1.5705 H   0  0  0  0  0  0  0  0  0  0  0  0
    5.4803   -1.1605   -2.4465 H   0  0  0  0  0  0  0  0  0  0  0  0
   -1.1224    3.8128    0.7400 H   0  0  0  0  0  0  0  0  0  0  0  0
   -1.9901    2.5185   -2.0957 H   0  0  0  0  0  0  0  0  0  0  0  0
   -6.0467    3.5536   -0.8461 H   0  0  0  0  0  0  0  0  0  0  0  0
   -5.7278    3.1764    0.8208 H   0  0  0  0  0  0  0  0  0  0  0  0
   -5.8410   -1.3619   -0.2458 H   0  0  0  0  0  0  0  0  0  0  0  0
   -2.1994   -1.1152    1.0549 H   0  0  0  0  0  0  0  0  0  0  0  0
   -3.2950   -4.1472    0.9966 H   0  0  0  0  0  0  0  0  0  0  0  0
   -4.7261   -3.4208    0.2872 H   0  0  0  0  0  0  0  0  0  0  0  0
   -3.7216   -2.5592    1.6053 H   0  0  0  0  0  0  0  0  0  0  0  0
   -1.3763   -3.3658   -1.4765 H   0  0  0  0  0  0  0  0  0  0  0  0
   -0.8990   -3.1006    0.2715 H   0  0  0  0  0  0  0  0  0  0  0  0
   -1.9816   -4.4037   -0.1741 H   0  0  0  0  0  0  0  0  0  0  0  0
   -1.9397   -0.7327   -1.9150 H   0  0  0  0  0  0  0  0  0  0  0  0
    0.0269   -1.5214   -1.1973 H   0  0  0  0  0  0  0  0  0  0  0  0
   -0.2334   -0.8449    0.5227 H   0  0  0  0  0  0  0  0  0  0  0  0
  1  2  1  0
  2  3  1  0
  3  4  2  0
  4  5  1  0
  5  6  1  0
  5  7  2  0
  7  8  1  0
  8  9  2  0
  9 10  1  0
 10 11  1  0
 10 12  1  0
  4 13  1  0
 13 14  2  0
 13 15  1  0
 15 16  2  0
 16 17  1  0
 16 18  1  0
 18 19  1  6
 18 20  1  0
 20 21  2  0
 20 22  1  0
 22 23  1  0
 23 24  1  0
 23 25  2  0
 22 26  2  0
 26 27  1  0
 26 28  1  0
 28 29  1  0
 29 30  1  0
 29 31  1  0
 28 32  1  0
 32 33  1  0
 15  1  1  0
 32 18  1  0
 33  1  1  0
  9  3  1  0
  1 34  1  6
  2 35  1  0
  2 36  1  0
  6 37  1  0
  7 38  1  0
  8 39  1  0
 11 40  1  0
 11 41  1  0
 11 42  1  0
 12 43  1  0
 12 44  1  0
 12 45  1  0
 17 46  1  0
 19 47  1  0
 24 48  1  0
 24 49  1  0
 27 50  1  0
 28 51  1  1
 30 52  1  0
 30 53  1  0
 30 54  1  0
 31 55  1  0
 31 56  1  0
 31 57  1  0
 32 58  1  6
 33 59  1  0
 33 60  1  0
M  END
$$$$
