
     RDKit          3D

 42 44  0  0  0  0  0  0  0  0999 V2000
   -2.1480   -1.6706   -1.5566 O   0  0  0  0  0  0  0  0  0  0  0  0
   -2.4048   -0.5995   -0.9268 C   0  0  0  0  0  0  0  0  0  0  0  0
   -1.3915    0.4390   -0.7675 C   0  0  0  0  0  0  0  0  0  0  0  0
   -0.4600    0.1904    0.4296 C   0  0  0  0  0  0  0  0  0  0  0  0
    0.4919    1.3172    0.4457 C   0  0  0  0  0  0  0  0  0  0  0  0
    1.9002    1.0186    0.8843 C   0  0  0  0  0  0  0  0  0  0  0  0
    2.3165   -0.2120    0.4114 N   0  0  0  0  0  0  0  0  0  0  0  0
    3.3808   -0.4109   -0.4527 C   0  0  0  0  0  0  0  0  0  0  0  0
    4.7333   -0.1656    0.1443 C   0  0  0  0  0  0  0  0  0  0  0  0
    5.2299    1.0801    0.6997 C   0  0  0  0  0  0  0  0  0  0  0  0
    5.7232    0.6168   -0.6784 C   0  0  0  0  0  0  0  0  0  0  0  0
    1.5138   -1.3436    0.7523 C   0  0  0  0  0  0  0  0  0  0  0  0
    0.0689   -1.1900    0.3946 C   0  0  0  0  0  0  0  0  0  0  0  0
   -3.7424   -0.4642   -0.3824 C   0  0  0  0  0  0  0  0  0  0  0  0
   -4.1155    0.6503    0.3357 C   0  0  0  0  0  0  0  0  0  0  0  0
   -5.3790    0.7935    0.8459 C   0  0  0  0  0  0  0  0  0  0  0  0
   -6.3403   -0.1746    0.6632 C   0  0  0  0  0  0  0  0  0  0  0  0
   -7.6104   -0.0541    1.1597 F   0  0  0  0  0  0  0  0  0  0  0  0
   -5.9862   -1.2986   -0.0535 C   0  0  0  0  0  0  0  0  0  0  0  0
   -4.7123   -1.4358   -0.5639 C   0  0  0  0  0  0  0  0  0  0  0  0
   -1.8068    1.4709   -0.7197 H   0  0  0  0  0  0  0  0  0  0  0  0
   -0.6869    0.4540   -1.6503 H   0  0  0  0  0  0  0  0  0  0  0  0
   -1.1609    0.3270    1.3116 H   0  0  0  0  0  0  0  0  0  0  0  0
    0.1338    2.1378    1.1396 H   0  0  0  0  0  0  0  0  0  0  0  0
    0.5239    1.8376   -0.5465 H   0  0  0  0  0  0  0  0  0  0  0  0
    1.9963    1.1753    1.9903 H   0  0  0  0  0  0  0  0  0  0  0  0
    2.5219    1.8448    0.4460 H   0  0  0  0  0  0  0  0  0  0  0  0
    3.3787   -1.4886   -0.8115 H   0  0  0  0  0  0  0  0  0  0  0  0
    3.2721    0.1520   -1.4237 H   0  0  0  0  0  0  0  0  0  0  0  0
    5.1904   -1.1027    0.5909 H   0  0  0  0  0  0  0  0  0  0  0  0
    4.7823    2.0702    0.6607 H   0  0  0  0  0  0  0  0  0  0  0  0
    6.0151    1.0143    1.5172 H   0  0  0  0  0  0  0  0  0  0  0  0
    6.7799    0.3263   -0.7381 H   0  0  0  0  0  0  0  0  0  0  0  0
    5.2884    1.1121   -1.5712 H   0  0  0  0  0  0  0  0  0  0  0  0
    1.6039   -1.4850    1.8482 H   0  0  0  0  0  0  0  0  0  0  0  0
    1.9575   -2.2408    0.2822 H   0  0  0  0  0  0  0  0  0  0  0  0
   -0.0432   -1.6117   -0.6403 H   0  0  0  0  0  0  0  0  0  0  0  0
   -0.5672   -1.8315    1.0355 H   0  0  0  0  0  0  0  0  0  0  0  0
   -3.4194    1.4529    0.5228 H   0  0  0  0  0  0  0  0  0  0  0  0
   -5.6409    1.6842    1.4075 H   0  0  0  0  0  0  0  0  0  0  0  0
   -6.7550   -2.0601   -0.1945 H   0  0  0  0  0  0  0  0  0  0  0  0
   -4.4319   -2.3257   -1.1348 H   0  0  0  0  0  0  0  0  0  0  0  0
  1  2  2  0
  2  3  1  0
  3  4  1  0
  4  5  1  0
  5  6  1  0
  6  7  1  0
  7  8  1  0
  8  9  1  0
  9 10  1  0
 10 11  1  0
  7 12  1  0
 12 13  1  0
  2 14  1  0
 14 15  2  0
 15 16  1  0
 16 17  2  0
 17 18  1  0
 17 19  1  0
 19 20  2  0
 13  4  1  0
 20 14  1  0
 11  9  1  0
  3 21  1  0
  3 22  1  0
  4 23  1  0
  5 24  1  0
  5 25  1  0
  6 26  1  0
  6 27  1  0
  8 28  1  0
  8 29  1  0
  9 30  1  0
 10 31  1  0
 10 32  1  0
 11 33  1  0
 11 34  1  0
 12 35  1  0
 12 36  1  0
 13 37  1  0
 13 38  1  0
 15 39  1  0
 16 40  1  0
 19 41  1  0
 20 42  1  0
M  END
$$$$
