
     RDKit          3D

 61 65  0  0  0  0  0  0  0  0999 V2000
   -4.0841    1.2665    1.4368 C   0  0  0  0  0  0  0  0  0  0  0  0
   -3.3833    0.8595    0.1377 C   0  0  1  0  0  0  0  0  0  0  0  0
   -3.3814   -0.5259    0.1026 O   0  0  0  0  0  0  0  0  0  0  0  0
   -2.2860   -1.3463    0.1084 C   0  0  0  0  0  0  0  0  0  0  0  0
   -0.9912   -0.8909    0.1502 C   0  0  0  0  0  0  0  0  0  0  0  0
    0.0587   -1.7940    0.1527 C   0  0  0  0  0  0  0  0  0  0  0  0
    1.4410   -1.3197    0.1969 C   0  0  0  0  0  0  0  0  0  0  0  0
    2.5546   -1.9074    0.7569 C   0  0  0  0  0  0  0  0  0  0  0  0
    3.6283   -1.0902    0.5493 N   0  0  0  0  0  0  0  0  0  0  0  0
    3.2033   -0.0309   -0.1155 N   0  0  0  0  0  0  0  0  0  0  0  0
    4.0748    1.0606   -0.5151 C   0  0  0  0  0  0  0  0  0  0  0  0
    4.2931    1.9184    0.7076 C   0  0  0  0  0  0  0  0  0  0  0  0
    5.4249    2.8964    0.5454 C   0  0  0  0  0  0  0  0  0  0  0  0
    6.6258    2.2937    0.0305 N   0  0  0  0  0  0  0  0  0  0  0  0
    7.3331    1.4964    0.9892 C   0  0  0  0  0  0  0  0  0  0  0  0
    6.3585    1.6187   -1.2042 C   0  0  0  0  0  0  0  0  0  0  0  0
    5.3958    0.4608   -0.9760 C   0  0  0  0  0  0  0  0  0  0  0  0
    1.8852   -0.1326   -0.3477 C   0  0  0  0  0  0  0  0  0  0  0  0
   -0.1733   -3.1509    0.1138 C   0  0  0  0  0  0  0  0  0  0  0  0
   -1.4483   -3.6158    0.0723 C   0  0  0  0  0  0  0  0  0  0  0  0
   -1.9483   -4.8650    0.0298 N   0  0  0  0  0  0  0  0  0  0  0  0
   -3.2689   -4.7963    0.0004 N   0  0  0  0  0  0  0  0  0  0  0  0
   -4.1432   -5.9545   -0.0485 C   0  0  0  0  0  0  0  0  0  0  0  0
   -3.6351   -3.5116    0.0234 C   0  0  0  0  0  0  0  0  0  0  0  0
   -2.4964   -2.7273    0.0694 C   0  0  0  0  0  0  0  0  0  0  0  0
   -4.0906    1.4749   -1.0552 C   0  0  1  0  0  0  0  0  0  0  0  0
   -5.5187    1.0614   -1.1853 C   0  0  0  0  0  0  0  0  0  0  0  0
   -6.3166    2.2768   -1.0349 N   0  0  0  0  0  0  0  0  0  0  0  0
   -5.4925    3.3501   -0.6237 C   0  0  0  0  0  0  0  0  0  0  0  0
   -5.8800    4.4098   -0.1131 O   0  0  0  0  0  0  0  0  0  0  0  0
   -4.0845    2.9769   -0.9144 C   0  0  0  0  0  0  0  0  0  0  0  0
   -5.1503    0.9240    1.4169 H   0  0  0  0  0  0  0  0  0  0  0  0
   -3.5912    0.6730    2.2525 H   0  0  0  0  0  0  0  0  0  0  0  0
   -3.9911    2.3431    1.6332 H   0  0  0  0  0  0  0  0  0  0  0  0
   -2.3772    1.2870    0.1826 H   0  0  0  0  0  0  0  0  0  0  0  0
   -0.7515    0.1603    0.1818 H   0  0  0  0  0  0  0  0  0  0  0  0
    2.5735   -2.8515    1.2709 H   0  0  0  0  0  0  0  0  0  0  0  0
    3.6555    1.6189   -1.3553 H   0  0  0  0  0  0  0  0  0  0  0  0
    3.3646    2.4876    0.8938 H   0  0  0  0  0  0  0  0  0  0  0  0
    4.4724    1.2385    1.5629 H   0  0  0  0  0  0  0  0  0  0  0  0
    5.1056    3.6947   -0.1392 H   0  0  0  0  0  0  0  0  0  0  0  0
    5.6466    3.3165    1.5450 H   0  0  0  0  0  0  0  0  0  0  0  0
    8.3242    1.9897    1.2082 H   0  0  0  0  0  0  0  0  0  0  0  0
    7.5413    0.4711    0.6494 H   0  0  0  0  0  0  0  0  0  0  0  0
    6.7689    1.4574    1.9392 H   0  0  0  0  0  0  0  0  0  0  0  0
    7.3099    1.2541   -1.6664 H   0  0  0  0  0  0  0  0  0  0  0  0
    5.8775    2.3434   -1.8900 H   0  0  0  0  0  0  0  0  0  0  0  0
    5.8166   -0.2100   -0.2006 H   0  0  0  0  0  0  0  0  0  0  0  0
    5.2472   -0.0849   -1.9112 H   0  0  0  0  0  0  0  0  0  0  0  0
    1.2519    0.5804   -0.8708 H   0  0  0  0  0  0  0  0  0  0  0  0
    0.6657   -3.8544    0.1163 H   0  0  0  0  0  0  0  0  0  0  0  0
   -5.0987   -5.7142    0.4754 H   0  0  0  0  0  0  0  0  0  0  0  0
   -3.6863   -6.7950    0.5242 H   0  0  0  0  0  0  0  0  0  0  0  0
   -4.3528   -6.2797   -1.0714 H   0  0  0  0  0  0  0  0  0  0  0  0
   -4.6460   -3.1064    0.0095 H   0  0  0  0  0  0  0  0  0  0  0  0
   -3.5294    1.1922   -1.9519 H   0  0  0  0  0  0  0  0  0  0  0  0
   -5.8221    0.3399   -0.4173 H   0  0  0  0  0  0  0  0  0  0  0  0
   -5.7401    0.6893   -2.2132 H   0  0  0  0  0  0  0  0  0  0  0  0
   -7.3350    2.2985   -1.2152 H   0  0  0  0  0  0  0  0  0  0  0  0
   -3.4324    3.2770   -0.0922 H   0  0  0  0  0  0  0  0  0  0  0  0
   -3.7718    3.4977   -1.8456 H   0  0  0  0  0  0  0  0  0  0  0  0
  1  2  1  0
  2  3  1  0
  3  4  1  0
  4  5  2  0
  5  6  1  0
  6  7  1  0
  7  8  1  0
  8  9  2  0
  9 10  1  0
 10 11  1  0
 11 12  1  0
 12 13  1  0
 13 14  1  0
 14 15  1  0
 14 16  1  0
 16 17  1  0
 10 18  1  0
  6 19  2  0
 19 20  1  0
 20 21  2  0
 21 22  1  0
 22 23  1  0
 22 24  1  0
 24 25  2  0
  2 26  1  0
 26 27  1  0
 27 28  1  0
 28 29  1  0
 29 30  2  0
 29 31  1  0
 25  4  1  0
 31 26  1  0
 18  7  2  0
 25 20  1  0
 17 11  1  0
  1 32  1  0
  1 33  1  0
  1 34  1  0
  2 35  1  1
  5 36  1  0
  8 37  1  0
 11 38  1  0
 12 39  1  0
 12 40  1  0
 13 41  1  0
 13 42  1  0
 15 43  1  0
 15 44  1  0
 15 45  1  0
 16 46  1  0
 16 47  1  0
 17 48  1  0
 17 49  1  0
 18 50  1  0
 19 51  1  0
 23 52  1  0
 23 53  1  0
 23 54  1  0
 24 55  1  0
 26 56  1  6
 27 57  1  0
 27 58  1  0
 28 59  1  0
 31 60  1  0
 31 61  1  0
M  END
$$$$
