
     RDKit          3D

 75 78  0  0  0  0  0  0  0  0999 V2000
    1.9303   -0.6466   -0.3132 C   0  0  1  0  0  0  0  0  0  0  0  0
    2.1323    0.0748   -1.6594 C   0  0  0  0  0  0  0  0  0  0  0  0
    0.8156    0.7498   -1.9782 C   0  0  0  0  0  0  0  0  0  0  0  0
   -0.0157    0.4621   -0.7534 C   0  0  1  0  0  0  0  0  0  0  0  0
   -1.4735    0.5767   -0.9584 C   0  0  2  0  0  0  0  0  0  0  0  0
   -1.8257    2.0522   -0.9141 C   0  0  2  0  0  0  0  0  0  0  0  0
   -0.7524    2.8205   -0.4351 O   0  0  0  0  0  0  0  0  0  0  0  0
   -3.0277    2.3655   -0.0874 C   0  0  0  0  0  0  0  0  0  0  0  0
   -4.1401    1.3581   -0.2581 C   0  0  2  0  0  0  0  0  0  0  0  0
   -5.2024    1.7307    0.7575 C   0  0  0  0  0  0  0  0  0  0  0  0
   -6.3715    0.7991    0.7280 C   0  0  2  0  0  0  0  0  0  0  0  0
   -7.2825    1.2529    1.6912 O   0  0  0  0  0  0  0  0  0  0  0  0
   -5.8922   -0.5859    1.0469 C   0  0  0  0  0  0  0  0  0  0  0  0
   -4.3890   -0.7078    1.1202 C   0  0  0  0  0  0  0  0  0  0  0  0
   -3.7048   -0.0581   -0.0684 C   0  0  1  0  0  0  0  0  0  0  0  0
   -4.0477   -0.9232   -1.2824 C   0  0  0  0  0  0  0  0  0  0  0  0
   -2.2185   -0.0792    0.1733 C   0  0  1  0  0  0  0  0  0  0  0  0
   -1.7217   -1.4694    0.4649 C   0  0  0  0  0  0  0  0  0  0  0  0
   -0.2290   -1.3525    0.8168 C   0  0  2  0  0  0  0  0  0  0  0  0
   -0.1761   -0.3962    1.8260 O   0  0  0  0  0  0  0  0  0  0  0  0
    0.4658   -0.9587   -0.4339 C   0  0  2  0  0  0  0  0  0  0  0  0
    0.1265   -1.9236   -1.5306 C   0  0  0  0  0  0  0  0  0  0  0  0
    2.8381   -1.8107   -0.1792 C   0  0  2  0  0  0  0  0  0  0  0  0
    2.6604   -2.5159    1.1223 C   0  0  0  0  0  0  0  0  0  0  0  0
    4.2629   -1.2770   -0.2002 C   0  0  0  0  0  0  0  0  0  0  0  0
    4.5515   -0.3154    0.9048 C   0  0  0  0  0  0  0  0  0  0  0  0
    5.9862    0.1025    0.7286 C   0  0  0  0  0  0  0  0  0  0  0  0
    6.2640   -0.5796   -0.2967 O   0  0  0  0  0  0  0  0  0  0  0  0
    6.6537    1.0206    1.5868 N   0  0  0  0  0  0  0  0  0  0  0  0
    8.0319    1.1811    1.1046 C   0  0  0  0  0  0  0  0  0  0  0  0
    7.9084    1.7025   -0.2779 C   0  0  0  0  0  0  0  0  0  0  0  0
    9.1923    1.8670   -0.7663 O   0  0  0  0  0  1  0  0  0  0  0  0
    6.9740    2.0116   -1.0634 O   0  0  0  0  0  0  0  0  0  0  0  0
    2.0508    0.1062    0.4624 H   0  0  0  0  0  0  0  0  0  0  0  0
    2.9380    0.8278   -1.5856 H   0  0  0  0  0  0  0  0  0  0  0  0
    2.4078   -0.6708   -2.4168 H   0  0  0  0  0  0  0  0  0  0  0  0
    0.3487    0.2672   -2.8466 H   0  0  0  0  0  0  0  0  0  0  0  0
    0.9331    1.8269   -2.1751 H   0  0  0  0  0  0  0  0  0  0  0  0
    0.3806    1.0926    0.0681 H   0  0  0  0  0  0  0  0  0  0  0  0
   -1.7511    0.1973   -1.9535 H   0  0  0  0  0  0  0  0  0  0  0  0
   -2.0130    2.4394   -1.9484 H   0  0  0  0  0  0  0  0  0  0  0  0
   -0.9301    3.0406    0.5125 H   0  0  0  0  0  0  0  0  0  0  0  0
   -2.8107    2.5835    0.9852 H   0  0  0  0  0  0  0  0  0  0  0  0
   -3.4537    3.3397   -0.4654 H   0  0  0  0  0  0  0  0  0  0  0  0
   -4.5834    1.5059   -1.2633 H   0  0  0  0  0  0  0  0  0  0  0  0
   -5.5306    2.7743    0.4876 H   0  0  0  0  0  0  0  0  0  0  0  0
   -4.7268    1.7936    1.7457 H   0  0  0  0  0  0  0  0  0  0  0  0
   -6.8223    0.8486   -0.2877 H   0  0  0  0  0  0  0  0  0  0  0  0
   -7.9761    1.7749    1.2217 H   0  0  0  0  0  0  0  0  0  0  0  0
   -6.2736   -0.9010    2.0573 H   0  0  0  0  0  0  0  0  0  0  0  0
   -6.2654   -1.3042    0.2806 H   0  0  0  0  0  0  0  0  0  0  0  0
   -4.1921   -1.8137    1.0055 H   0  0  0  0  0  0  0  0  0  0  0  0
   -3.9747   -0.3043    2.0601 H   0  0  0  0  0  0  0  0  0  0  0  0
   -4.6218   -1.8296   -1.0113 H   0  0  0  0  0  0  0  0  0  0  0  0
   -3.1483   -1.2824   -1.8082 H   0  0  0  0  0  0  0  0  0  0  0  0
   -4.7219   -0.3159   -1.9060 H   0  0  0  0  0  0  0  0  0  0  0  0
   -2.0250    0.5235    1.0922 H   0  0  0  0  0  0  0  0  0  0  0  0
   -2.1937   -1.8053    1.4142 H   0  0  0  0  0  0  0  0  0  0  0  0
   -1.8810   -2.1255   -0.3928 H   0  0  0  0  0  0  0  0  0  0  0  0
    0.0195   -2.3815    1.1914 H   0  0  0  0  0  0  0  0  0  0  0  0
    0.7020   -0.0087    1.9877 H   0  0  0  0  0  0  0  0  0  0  0  0
    0.9577   -2.0933   -2.2295 H   0  0  0  0  0  0  0  0  0  0  0  0
   -0.0307   -2.9182   -1.0251 H   0  0  0  0  0  0  0  0  0  0  0  0
   -0.7612   -1.6348   -2.1339 H   0  0  0  0  0  0  0  0  0  0  0  0
    2.7339   -2.4796   -1.0570 H   0  0  0  0  0  0  0  0  0  0  0  0
    3.6543   -2.8355    1.5648 H   0  0  0  0  0  0  0  0  0  0  0  0
    2.1208   -3.4956    1.0210 H   0  0  0  0  0  0  0  0  0  0  0  0
    2.2365   -1.8513    1.8908 H   0  0  0  0  0  0  0  0  0  0  0  0
    4.4582   -0.7181   -1.1595 H   0  0  0  0  0  0  0  0  0  0  0  0
    4.9237   -2.1404   -0.0784 H   0  0  0  0  0  0  0  0  0  0  0  0
    3.9790    0.6255    0.8783 H   0  0  0  0  0  0  0  0  0  0  0  0
    4.4295   -0.7433    1.9134 H   0  0  0  0  0  0  0  0  0  0  0  0
    6.0324    1.3671    2.3483 H   0  0  0  0  0  0  0  0  0  0  0  0
    8.4862    1.9621    1.7306 H   0  0  0  0  0  0  0  0  0  0  0  0
    8.5712    0.2283    1.1077 H   0  0  0  0  0  0  0  0  0  0  0  0
  1  2  1  0
  2  3  1  0
  3  4  1  0
  4  5  1  0
  5  6  1  0
  6  7  1  0
  6  8  1  0
  8  9  1  0
  9 10  1  0
 10 11  1  0
 11 12  1  0
 11 13  1  0
 13 14  1  0
 14 15  1  0
 15 16  1  6
 15 17  1  0
 17 18  1  0
 18 19  1  0
 19 20  1  0
 19 21  1  0
 21 22  1  6
  1 23  1  0
 23 24  1  0
 23 25  1  0
 25 26  1  0
 26 27  1  0
 27 28  2  0
 27 29  1  0
 29 30  1  0
 30 31  1  0
 31 32  1  0
 31 33  2  0
 21  1  1  0
 21  4  1  0
 17  5  1  0
 15  9  1  0
  1 34  1  1
  2 35  1  0
  2 36  1  0
  3 37  1  0
  3 38  1  0
  4 39  1  1
  5 40  1  6
  6 41  1  6
  7 42  1  0
  8 43  1  0
  8 44  1  0
  9 45  1  6
 10 46  1  0
 10 47  1  0
 11 48  1  6
 12 49  1  0
 13 50  1  0
 13 51  1  0
 14 52  1  0
 14 53  1  0
 16 54  1  0
 16 55  1  0
 16 56  1  0
 17 57  1  1
 18 58  1  0
 18 59  1  0
 19 60  1  1
 20 61  1  0
 22 62  1  0
 22 63  1  0
 22 64  1  0
 23 65  1  6
 24 66  1  0
 24 67  1  0
 24 68  1  0
 25 69  1  0
 25 70  1  0
 26 71  1  0
 26 72  1  0
 29 73  1  0
 30 74  1  0
 30 75  1  0
M  CHG  1  32  -1
M  END
$$$$
