
     RDKit          3D

 68 72  0  0  0  0  0  0  0  0999 V2000
   -2.8371    5.9813    1.1334 C   0  0  0  0  0  0  0  0  0  0  0  0
   -1.9745    5.2928    0.0909 C   0  0  0  0  0  0  0  0  0  0  0  0
   -2.2536    3.8285    0.1593 C   0  0  0  0  0  0  0  0  0  0  0  0
   -1.4412    3.0090   -0.8386 C   0  0  0  0  0  0  0  0  0  0  0  0
   -1.8228    1.5886   -0.6586 C   0  0  0  0  0  0  0  0  0  0  0  0
   -2.7527    0.9565   -1.4553 N   0  0  0  0  0  0  0  0  0  0  0  0
   -2.9605   -0.2558   -1.0473 N   0  0  0  0  0  0  0  0  0  0  0  0
   -3.8642   -1.2090   -1.6428 C   0  0  0  0  0  0  0  0  0  0  0  0
   -3.4845   -1.9751   -2.7233 C   0  0  0  0  0  0  0  0  0  0  0  0
   -4.3761   -2.8908   -3.2798 C   0  0  0  0  0  0  0  0  0  0  0  0
   -5.6486   -3.0572   -2.7746 C   0  0  0  0  0  0  0  0  0  0  0  0
   -6.0274   -2.2908   -1.6944 C   0  0  0  0  0  0  0  0  0  0  0  0
   -7.6462   -2.5165   -1.0688 Cl  0  0  0  0  0  0  0  0  0  0  0  0
   -5.1338   -1.3809   -1.1451 C   0  0  0  0  0  0  0  0  0  0  0  0
   -5.6472   -0.4298    0.2204 Cl  0  0  0  0  0  0  0  0  0  0  0  0
   -2.1797   -0.4675    0.0262 C   0  0  0  0  0  0  0  0  0  0  0  0
   -2.1717   -1.7362    0.7403 C   0  0  0  0  0  0  0  0  0  0  0  0
   -1.4391   -1.9243    1.7428 O   0  0  0  0  0  0  0  0  0  0  0  0
   -2.9727   -2.8049    0.3508 O   0  0  0  0  0  0  0  0  0  0  0  0
   -2.9175   -4.0097    1.0833 C   0  0  0  0  0  0  0  0  0  0  0  0
   -3.2942   -3.7766    2.5172 C   0  0  0  0  0  0  0  0  0  0  0  0
   -1.4493    0.6689    0.2980 C   0  0  0  0  0  0  0  0  0  0  0  0
   -0.4319    0.8251    1.3362 C   0  0  0  0  0  0  0  0  0  0  0  0
    0.9344    0.4343    0.9791 C   0  0  0  0  0  0  0  0  0  0  0  0
    1.5370   -0.5895    1.7239 C   0  0  0  0  0  0  0  0  0  0  0  0
    2.8038   -1.0660    1.4710 C   0  0  0  0  0  0  0  0  0  0  0  0
    3.5682   -0.5490    0.4466 C   0  0  0  0  0  0  0  0  0  0  0  0
    4.9045   -1.0489    0.1475 C   0  0  0  0  0  0  0  0  0  0  0  0
    5.0811   -2.3518   -0.3384 C   0  0  0  0  0  0  0  0  0  0  0  0
    6.3187   -2.8671   -0.6449 C   0  0  0  0  0  0  0  0  0  0  0  0
    7.4466   -2.0926   -0.4767 C   0  0  0  0  0  0  0  0  0  0  0  0
    7.2861   -0.8124   -0.0003 C   0  0  0  0  0  0  0  0  0  0  0  0
    6.0243   -0.2835    0.3138 C   0  0  0  0  0  0  0  0  0  0  0  0
    5.9072    1.0747    0.8342 C   0  0  0  0  0  0  0  0  0  0  0  0
    4.8498    1.7450    1.2432 N   0  0  0  0  0  0  0  0  0  0  0  0
    5.2183    2.9441    1.6429 N   0  0  0  0  0  0  0  0  0  0  0  0
    6.5318    3.0573    1.4929 N   0  0  0  0  0  0  0  0  0  0  0  0
    6.9597    1.9063    0.9944 N   0  0  0  0  0  0  0  0  0  0  0  0
    2.9983    0.4560   -0.2968 C   0  0  0  0  0  0  0  0  0  0  0  0
    1.7085    0.9313   -0.0297 C   0  0  0  0  0  0  0  0  0  0  0  0
   -3.0625    7.0255    0.8587 H   0  0  0  0  0  0  0  0  0  0  0  0
   -2.2992    5.9146    2.1245 H   0  0  0  0  0  0  0  0  0  0  0  0
   -3.8033    5.4572    1.2636 H   0  0  0  0  0  0  0  0  0  0  0  0
   -2.2896    5.6363   -0.9345 H   0  0  0  0  0  0  0  0  0  0  0  0
   -0.9113    5.5633    0.1652 H   0  0  0  0  0  0  0  0  0  0  0  0
   -3.3237    3.6683   -0.1607 H   0  0  0  0  0  0  0  0  0  0  0  0
   -2.1606    3.3754    1.1475 H   0  0  0  0  0  0  0  0  0  0  0  0
   -1.6491    3.3168   -1.8858 H   0  0  0  0  0  0  0  0  0  0  0  0
   -0.3747    3.1490   -0.6661 H   0  0  0  0  0  0  0  0  0  0  0  0
   -2.4910   -1.8337   -3.1043 H   0  0  0  0  0  0  0  0  0  0  0  0
   -4.0680   -3.4796   -4.1188 H   0  0  0  0  0  0  0  0  0  0  0  0
   -6.3025   -3.7801   -3.2415 H   0  0  0  0  0  0  0  0  0  0  0  0
   -3.6317   -4.7004    0.5762 H   0  0  0  0  0  0  0  0  0  0  0  0
   -1.8797   -4.4034    1.0339 H   0  0  0  0  0  0  0  0  0  0  0  0
   -3.3867   -2.7084    2.7546 H   0  0  0  0  0  0  0  0  0  0  0  0
   -4.2802   -4.2451    2.7263 H   0  0  0  0  0  0  0  0  0  0  0  0
   -2.5568   -4.3091    3.1674 H   0  0  0  0  0  0  0  0  0  0  0  0
   -0.3929    1.8846    1.6965 H   0  0  0  0  0  0  0  0  0  0  0  0
   -0.7600    0.2544    2.2432 H   0  0  0  0  0  0  0  0  0  0  0  0
    0.9525   -1.0027    2.5450 H   0  0  0  0  0  0  0  0  0  0  0  0
    3.2558   -1.8568    2.0542 H   0  0  0  0  0  0  0  0  0  0  0  0
    4.1716   -2.9190   -0.4539 H   0  0  0  0  0  0  0  0  0  0  0  0
    6.4262   -3.8941   -1.0241 H   0  0  0  0  0  0  0  0  0  0  0  0
    8.4138   -2.5118   -0.7228 H   0  0  0  0  0  0  0  0  0  0  0  0
    8.1640   -0.2009    0.1336 H   0  0  0  0  0  0  0  0  0  0  0  0
    7.9825    1.7104    0.7693 H   0  0  0  0  0  0  0  0  0  0  0  0
    3.5939    0.8649   -1.1010 H   0  0  0  0  0  0  0  0  0  0  0  0
    1.3113    1.7102   -0.6427 H   0  0  0  0  0  0  0  0  0  0  0  0
  1  2  1  0
  2  3  1  0
  3  4  1  0
  4  5  1  0
  5  6  2  0
  6  7  1  0
  7  8  1  0
  8  9  2  0
  9 10  1  0
 10 11  2  0
 11 12  1  0
 12 13  1  0
 12 14  2  0
 14 15  1  0
  7 16  1  0
 16 17  1  0
 17 18  2  0
 17 19  1  0
 19 20  1  0
 20 21  1  0
 16 22  2  0
 22 23  1  0
 23 24  1  0
 24 25  2  0
 25 26  1  0
 26 27  2  0
 27 28  1  0
 28 29  2  0
 29 30  1  0
 30 31  2  0
 31 32  1  0
 32 33  2  0
 33 34  1  0
 34 35  2  0
 35 36  1  0
 36 37  2  0
 37 38  1  0
 27 39  1  0
 39 40  2  0
 22  5  1  0
 40 24  1  0
 14  8  1  0
 33 28  1  0
 38 34  1  0
  1 41  1  0
  1 42  1  0
  1 43  1  0
  2 44  1  0
  2 45  1  0
  3 46  1  0
  3 47  1  0
  4 48  1  0
  4 49  1  0
  9 50  1  0
 10 51  1  0
 11 52  1  0
 20 53  1  0
 20 54  1  0
 21 55  1  0
 21 56  1  0
 21 57  1  0
 23 58  1  0
 23 59  1  0
 25 60  1  0
 26 61  1  0
 29 62  1  0
 30 63  1  0
 31 64  1  0
 32 65  1  0
 38 66  1  0
 39 67  1  0
 40 68  1  0
M  END
$$$$
