
     RDKit          3D

 69 72  0  0  0  0  0  0  0  0999 V2000
    6.0507    1.7337    3.2578 C   0  0  0  0  0  0  0  0  0  0  0  0
    5.1881    1.0461    2.2208 C   0  0  0  0  0  0  0  0  0  0  0  0
    4.3530    1.7640    1.3933 C   0  0  0  0  0  0  0  0  0  0  0  0
    3.5664    1.1001    0.4418 C   0  0  0  0  0  0  0  0  0  0  0  0
    3.6011   -0.2671    0.3068 C   0  0  0  0  0  0  0  0  0  0  0  0
    2.8141   -0.9652   -0.6588 C   0  0  0  0  0  0  0  0  0  0  0  0
    3.3939   -1.5137   -1.6597 O   0  0  0  0  0  0  0  0  0  0  0  0
    1.3643   -1.1370   -0.6356 N   0  0  0  0  0  0  0  0  0  0  0  0
    0.8818   -1.9228   -1.7259 C   0  0  0  0  0  0  0  0  0  0  0  0
    0.5076   -1.2161   -2.9749 C   0  0  0  0  0  0  0  0  0  0  0  0
   -0.0072   -2.3047   -3.9297 C   0  0  0  0  0  0  0  0  0  0  0  0
   -0.4318   -1.7424   -5.1805 N   0  0  0  0  0  0  0  0  0  0  0  0
    0.6181   -0.5422    0.4275 C   0  0  0  0  0  0  0  0  0  0  0  0
   -0.2189    0.6183    0.1735 C   0  0  0  0  0  0  0  0  0  0  0  0
    0.3128    1.8745    0.4727 N   0  0  0  0  0  0  0  0  0  0  0  0
   -0.2554    2.9864    0.2452 C   0  0  0  0  0  0  0  0  0  0  0  0
    0.1771    4.7432    0.5048 S   0  0  0  0  0  0  0  0  0  0  0  0
   -1.3657    5.4371   -0.2033 N   0  0  0  0  0  0  0  0  0  0  0  0
   -2.0373    4.2928   -0.5560 C   0  0  0  0  0  0  0  0  0  0  0  0
   -3.4087    4.5421   -1.2066 C   0  0  0  0  0  0  0  0  0  0  0  0
   -1.5169    3.0973   -0.3475 C   0  0  0  0  0  0  0  0  0  0  0  0
   -2.0594    1.8342   -0.6483 C   0  0  0  0  0  0  0  0  0  0  0  0
   -3.1922    1.8002   -1.1844 O   0  0  0  0  0  0  0  0  0  0  0  0
   -1.4208    0.6496   -0.3887 N   0  0  0  0  0  0  0  0  0  0  0  0
   -2.0967   -0.5002   -0.8516 C   0  0  0  0  0  0  0  0  0  0  0  0
   -3.3715   -0.8642   -0.1932 C   0  0  0  0  0  0  0  0  0  0  0  0
   -4.5926   -0.5772   -0.8516 C   0  0  0  0  0  0  0  0  0  0  0  0
   -5.8255   -0.8595   -0.3695 C   0  0  0  0  0  0  0  0  0  0  0  0
   -5.9174   -1.4782    0.8580 C   0  0  0  0  0  0  0  0  0  0  0  0
   -4.7917   -1.7892    1.5520 C   0  0  0  0  0  0  0  0  0  0  0  0
   -3.5439   -1.4765    1.0116 C   0  0  0  0  0  0  0  0  0  0  0  0
    0.1478   -1.4786    1.5255 C   0  0  0  0  0  0  0  0  0  0  0  0
   -0.5583   -0.6320    2.6052 C   0  0  0  0  0  0  0  0  0  0  0  0
    1.3294   -2.0927    2.2772 C   0  0  0  0  0  0  0  0  0  0  0  0
    4.4579   -0.9544    1.1629 C   0  0  0  0  0  0  0  0  0  0  0  0
    5.2291   -0.2987    2.0950 C   0  0  0  0  0  0  0  0  0  0  0  0
    5.5227    2.6519    3.5543 H   0  0  0  0  0  0  0  0  0  0  0  0
    7.0359    1.9213    2.7933 H   0  0  0  0  0  0  0  0  0  0  0  0
    6.2423    1.0364    4.1059 H   0  0  0  0  0  0  0  0  0  0  0  0
    4.3211    2.8302    1.4968 H   0  0  0  0  0  0  0  0  0  0  0  0
    2.9312    1.6826   -0.2087 H   0  0  0  0  0  0  0  0  0  0  0  0
    1.8083   -2.5611   -2.0556 H   0  0  0  0  0  0  0  0  0  0  0  0
    0.1001   -2.6609   -1.4612 H   0  0  0  0  0  0  0  0  0  0  0  0
    1.4753   -0.8828   -3.4801 H   0  0  0  0  0  0  0  0  0  0  0  0
   -0.1909   -0.3858   -2.9066 H   0  0  0  0  0  0  0  0  0  0  0  0
   -0.8613   -2.7724   -3.4029 H   0  0  0  0  0  0  0  0  0  0  0  0
    0.8071   -3.0358   -4.0256 H   0  0  0  0  0  0  0  0  0  0  0  0
   -0.2782   -2.4692   -5.9163 H   0  0  0  0  0  0  0  0  0  0  0  0
    0.0954   -0.8555   -5.3560 H   0  0  0  0  0  0  0  0  0  0  0  0
    1.5029   -0.0436    1.0483 H   0  0  0  0  0  0  0  0  0  0  0  0
   -3.3062    4.3011   -2.2661 H   0  0  0  0  0  0  0  0  0  0  0  0
   -4.0831    3.8725   -0.6361 H   0  0  0  0  0  0  0  0  0  0  0  0
   -3.7186    5.5663   -1.0725 H   0  0  0  0  0  0  0  0  0  0  0  0
   -1.5019   -1.4269   -0.7472 H   0  0  0  0  0  0  0  0  0  0  0  0
   -2.3497   -0.3473   -1.9461 H   0  0  0  0  0  0  0  0  0  0  0  0
   -4.5369   -0.1433   -1.8332 H   0  0  0  0  0  0  0  0  0  0  0  0
   -6.7136   -0.6089   -0.9363 H   0  0  0  0  0  0  0  0  0  0  0  0
   -6.9304   -1.6881    1.2062 H   0  0  0  0  0  0  0  0  0  0  0  0
   -4.8935   -2.2727    2.5070 H   0  0  0  0  0  0  0  0  0  0  0  0
   -2.7021   -1.7833    1.5843 H   0  0  0  0  0  0  0  0  0  0  0  0
   -0.4498   -2.3226    1.1913 H   0  0  0  0  0  0  0  0  0  0  0  0
   -1.3155    0.0058    2.1194 H   0  0  0  0  0  0  0  0  0  0  0  0
   -0.8747   -1.2111    3.4646 H   0  0  0  0  0  0  0  0  0  0  0  0
    0.1912    0.1151    3.0174 H   0  0  0  0  0  0  0  0  0  0  0  0
    1.9813   -1.1954    2.5307 H   0  0  0  0  0  0  0  0  0  0  0  0
    1.9340   -2.7513    1.6590 H   0  0  0  0  0  0  0  0  0  0  0  0
    0.9952   -2.5869    3.1964 H   0  0  0  0  0  0  0  0  0  0  0  0
    4.4854   -2.0221    1.0536 H   0  0  0  0  0  0  0  0  0  0  0  0
    5.8955   -0.8629    2.7559 H   0  0  0  0  0  0  0  0  0  0  0  0
  1  2  1  0
  2  3  2  0
  3  4  1  0
  4  5  2  0
  5  6  1  0
  6  7  2  0
  6  8  1  0
  8  9  1  0
  9 10  1  0
 10 11  1  0
 11 12  1  0
  8 13  1  0
 13 14  1  0
 14 15  2  0
 15 16  1  0
 16 17  1  0
 17 18  1  0
 18 19  2  0
 19 20  1  0
 19 21  1  0
 21 22  1  0
 22 23  2  0
 22 24  1  0
 24 25  1  0
 25 26  1  0
 26 27  2  0
 27 28  1  0
 28 29  2  0
 29 30  1  0
 30 31  2  0
 13 32  1  0
 32 33  1  0
 32 34  1  0
  5 35  1  0
 35 36  2  0
 36  2  1  0
 24 14  1  0
 31 26  1  0
 21 16  2  0
  1 37  1  0
  1 38  1  0
  1 39  1  0
  3 40  1  0
  4 41  1  0
  9 42  1  0
  9 43  1  0
 10 44  1  0
 10 45  1  0
 11 46  1  0
 11 47  1  0
 12 48  1  0
 12 49  1  0
 13 50  1  0
 20 51  1  0
 20 52  1  0
 20 53  1  0
 25 54  1  0
 25 55  1  0
 27 56  1  0
 28 57  1  0
 29 58  1  0
 30 59  1  0
 31 60  1  0
 32 61  1  0
 33 62  1  0
 33 63  1  0
 33 64  1  0
 34 65  1  0
 34 66  1  0
 34 67  1  0
 35 68  1  0
 36 69  1  0
M  END
$$$$
