
     RDKit          3D

 62 65  0  0  0  0  0  0  0  0999 V2000
    8.0813   -1.6228   -1.1100 C   0  0  0  0  0  0  0  0  0  0  0  0
    7.6798   -0.1914   -0.8429 C   0  0  0  0  0  0  0  0  0  0  0  0
    8.6041    0.7370   -1.5910 C   0  0  0  0  0  0  0  0  0  0  0  0
    7.7916    0.0835    0.5909 C   0  0  0  0  0  0  0  0  0  0  0  0
    7.8880    0.3005    1.7316 N   0  0  0  0  0  0  0  0  0  0  0  0
    6.2737   -0.0381   -1.2389 C   0  0  0  0  0  0  0  0  0  0  0  0
    5.6119    0.2993   -2.3651 C   0  0  0  0  0  0  0  0  0  0  0  0
    4.3037    0.3219   -2.3104 N   0  0  0  0  0  0  0  0  0  0  0  0
    3.6163    0.0751   -1.3656 C   0  0  0  0  0  0  0  0  0  0  0  0
    2.2284    0.0074   -0.9894 N   0  0  0  0  0  0  0  0  0  0  0  0
    1.2786    0.3188   -2.0334 C   0  0  0  0  0  0  0  0  0  0  0  0
    0.2664    1.2710   -1.4296 C   0  0  0  0  0  0  0  0  0  0  0  0
   -0.3286    0.5226   -0.3061 N   0  0  0  0  0  0  0  0  0  0  0  0
   -1.6824    0.1556   -0.3882 C   0  0  0  0  0  0  0  0  0  0  0  0
   -2.3354    0.5088   -1.4028 O   0  0  0  0  0  0  0  0  0  0  0  0
   -2.2977   -0.6166    0.6894 C   0  0  2  0  0  0  0  0  0  0  0  0
   -1.7948   -2.0660    0.6991 C   0  0  0  0  0  0  0  0  0  0  0  0
   -2.1582   -2.7073    2.0042 C   0  0  0  0  0  0  0  0  0  0  0  0
   -3.6442   -2.5953    2.2860 C   0  0  0  0  0  0  0  0  0  0  0  0
   -4.1515   -1.2042    2.1388 C   0  0  0  0  0  0  0  0  0  0  0  0
   -3.7742   -0.6577    0.7447 C   0  0  1  0  0  0  0  0  0  0  0  0
   -4.4382    0.6531    0.5405 C   0  0  0  0  0  0  0  0  0  0  0  0
   -3.7345    1.6734    0.4063 O   0  0  0  0  0  0  0  0  0  0  0  0
   -5.8440    0.8066    0.4895 N   0  0  0  0  0  0  0  0  0  0  0  0
   -6.4988    2.0856    0.2894 C   0  0  0  0  0  0  0  0  0  0  0  0
   -6.2187    2.8239   -0.9401 C   0  0  0  0  0  0  0  0  0  0  0  0
   -5.9921    3.4344   -1.9211 N   0  0  0  0  0  0  0  0  0  0  0  0
   -7.9712    2.1480    0.7571 C   0  0  0  0  0  0  0  0  0  0  0  0
   -6.9243    2.9161    1.4428 C   0  0  0  0  0  0  0  0  0  0  0  0
    0.5620    0.2511    0.7938 C   0  0  0  0  0  0  0  0  0  0  0  0
    1.8607   -0.3512    0.3490 C   0  0  0  0  0  0  0  0  0  0  0  0
    4.9323   -0.3191   -0.1054 S   0  0  0  0  0  0  0  0  0  0  0  0
    7.7168   -2.2265   -0.2375 H   0  0  0  0  0  0  0  0  0  0  0  0
    9.1882   -1.6443   -1.1877 H   0  0  0  0  0  0  0  0  0  0  0  0
    7.6649   -2.0263   -2.0356 H   0  0  0  0  0  0  0  0  0  0  0  0
    9.5244    0.2218   -1.8916 H   0  0  0  0  0  0  0  0  0  0  0  0
    8.8133    1.6482   -0.9769 H   0  0  0  0  0  0  0  0  0  0  0  0
    8.0658    1.0837   -2.4897 H   0  0  0  0  0  0  0  0  0  0  0  0
    6.1569    0.5470   -3.2982 H   0  0  0  0  0  0  0  0  0  0  0  0
    1.7409    0.7854   -2.9095 H   0  0  0  0  0  0  0  0  0  0  0  0
    0.7520   -0.6171   -2.3861 H   0  0  0  0  0  0  0  0  0  0  0  0
    0.8451    2.1287   -1.0185 H   0  0  0  0  0  0  0  0  0  0  0  0
   -0.5110    1.5876   -2.1456 H   0  0  0  0  0  0  0  0  0  0  0  0
   -1.9445   -0.1638    1.6575 H   0  0  0  0  0  0  0  0  0  0  0  0
   -2.3535   -2.6120   -0.1255 H   0  0  0  0  0  0  0  0  0  0  0  0
   -0.7408   -2.1754    0.4900 H   0  0  0  0  0  0  0  0  0  0  0  0
   -1.5449   -2.3172    2.8158 H   0  0  0  0  0  0  0  0  0  0  0  0
   -1.9464   -3.8020    1.9025 H   0  0  0  0  0  0  0  0  0  0  0  0
   -4.2372   -3.2820    1.6840 H   0  0  0  0  0  0  0  0  0  0  0  0
   -3.7741   -2.8988    3.3549 H   0  0  0  0  0  0  0  0  0  0  0  0
   -3.7299   -0.4884    2.8695 H   0  0  0  0  0  0  0  0  0  0  0  0
   -5.2383   -1.1900    2.2139 H   0  0  0  0  0  0  0  0  0  0  0  0
   -4.1349   -1.4317    0.0337 H   0  0  0  0  0  0  0  0  0  0  0  0
   -6.4294   -0.0679    0.6051 H   0  0  0  0  0  0  0  0  0  0  0  0
   -8.6929    2.6018    0.0649 H   0  0  0  0  0  0  0  0  0  0  0  0
   -8.3366    1.2389    1.3022 H   0  0  0  0  0  0  0  0  0  0  0  0
   -6.5519    2.6178    2.4256 H   0  0  0  0  0  0  0  0  0  0  0  0
   -6.9680    4.0243    1.3060 H   0  0  0  0  0  0  0  0  0  0  0  0
    0.8153    1.2628    1.2313 H   0  0  0  0  0  0  0  0  0  0  0  0
    0.1427   -0.3252    1.6223 H   0  0  0  0  0  0  0  0  0  0  0  0
    1.8271   -1.4637    0.3977 H   0  0  0  0  0  0  0  0  0  0  0  0
    2.6911   -0.0392    1.0204 H   0  0  0  0  0  0  0  0  0  0  0  0
  1  2  1  0
  2  3  1  0
  2  4  1  0
  4  5  3  0
  2  6  1  0
  6  7  2  0
  7  8  1  0
  8  9  2  0
  9 10  1  0
 10 11  1  0
 11 12  1  0
 12 13  1  0
 13 14  1  0
 14 15  2  0
 14 16  1  0
 16 17  1  0
 17 18  1  0
 18 19  1  0
 19 20  1  0
 20 21  1  0
 21 22  1  0
 22 23  2  0
 22 24  1  0
 24 25  1  0
 25 26  1  0
 26 27  3  0
 25 28  1  0
 28 29  1  0
 13 30  1  0
 30 31  1  0
  9 32  1  0
 32  6  1  0
 31 10  1  0
 21 16  1  0
 29 25  1  0
  1 33  1  0
  1 34  1  0
  1 35  1  0
  3 36  1  0
  3 37  1  0
  3 38  1  0
  7 39  1  0
 11 40  1  0
 11 41  1  0
 12 42  1  0
 12 43  1  0
 16 44  1  1
 17 45  1  0
 17 46  1  0
 18 47  1  0
 18 48  1  0
 19 49  1  0
 19 50  1  0
 20 51  1  0
 20 52  1  0
 21 53  1  6
 24 54  1  0
 28 55  1  0
 28 56  1  0
 29 57  1  0
 29 58  1  0
 30 59  1  0
 30 60  1  0
 31 61  1  0
 31 62  1  0
M  END
$$$$
