
     RDKit          3D

 47 50  0  0  0  0  0  0  0  0999 V2000
    9.0207   -1.0247   -0.3044 C   0  0  0  0  0  0  0  0  0  0  0  0
    7.5579   -0.7477   -0.2558 C   0  0  0  0  0  0  0  0  0  0  0  0
    7.0162    0.4145   -0.7590 C   0  0  0  0  0  0  0  0  0  0  0  0
    5.6584    0.6367   -0.6968 C   0  0  0  0  0  0  0  0  0  0  0  0
    4.7831   -0.2672   -0.1416 C   0  0  0  0  0  0  0  0  0  0  0  0
    3.3389   -0.0137   -0.0846 C   0  0  0  0  0  0  0  0  0  0  0  0
    2.4515   -1.0338   -0.1437 C   0  0  0  0  0  0  0  0  0  0  0  0
    1.0680   -0.8080   -0.0907 C   0  0  0  0  0  0  0  0  0  0  0  0
    0.5546    0.4538    0.0230 C   0  0  0  0  0  0  0  0  0  0  0  0
   -0.8132    0.7838    0.0843 N   0  0  0  0  0  0  0  0  0  0  0  0
   -1.9192   -0.0638    0.0475 C   0  0  0  0  0  0  0  0  0  0  0  0
   -1.7124   -1.2897   -0.0530 O   0  0  0  0  0  0  0  0  0  0  0  0
   -3.3356    0.3769    0.1186 C   0  0  0  0  0  0  0  0  0  0  0  0
   -4.2586   -0.5451    0.0714 C   0  0  0  0  0  0  0  0  0  0  0  0
   -3.8812   -1.9005   -0.0434 O   0  0  0  0  0  0  0  0  0  0  0  0
   -5.6745   -0.2834    0.1289 C   0  0  0  0  0  0  0  0  0  0  0  0
   -6.5683   -1.3543    0.0682 C   0  0  0  0  0  0  0  0  0  0  0  0
   -7.9253   -1.1533    0.1185 C   0  0  0  0  0  0  0  0  0  0  0  0
   -8.4665    0.1095    0.2307 C   0  0  0  0  0  0  0  0  0  0  0  0
   -7.5609    1.1561    0.2892 C   0  0  0  0  0  0  0  0  0  0  0  0
   -6.2333    0.9602    0.2401 C   0  0  0  0  0  0  0  0  0  0  0  0
   -5.1953    2.3527    0.3234 S   0  0  0  0  0  6  0  0  0  0  0  0
   -5.3375    3.0759    1.6339 O   0  0  0  0  0  0  0  0  0  0  0  0
   -5.5016    3.2643   -0.8350 O   0  0  0  0  0  0  0  0  0  0  0  0
   -3.5907    1.7616    0.2317 N   0  0  0  0  0  0  0  0  0  0  0  0
    1.4950    1.4895    0.0820 C   0  0  0  0  0  0  0  0  0  0  0  0
    2.8527    1.2688    0.0301 C   0  0  0  0  0  0  0  0  0  0  0  0
    5.3248   -1.4350    0.3644 C   0  0  0  0  0  0  0  0  0  0  0  0
    6.6900   -1.6614    0.3033 C   0  0  0  0  0  0  0  0  0  0  0  0
    9.3122   -1.5390    0.6210 H   0  0  0  0  0  0  0  0  0  0  0  0
    9.5416   -0.0605   -0.4217 H   0  0  0  0  0  0  0  0  0  0  0  0
    9.2886   -1.6500   -1.1810 H   0  0  0  0  0  0  0  0  0  0  0  0
    7.6518    1.1694   -1.2106 H   0  0  0  0  0  0  0  0  0  0  0  0
    5.2747    1.5596   -1.1022 H   0  0  0  0  0  0  0  0  0  0  0  0
    2.7673   -2.0506   -0.2329 H   0  0  0  0  0  0  0  0  0  0  0  0
    0.4046   -1.6489   -0.1412 H   0  0  0  0  0  0  0  0  0  0  0  0
   -1.0403    1.8205    0.1707 H   0  0  0  0  0  0  0  0  0  0  0  0
   -4.2800   -2.4656   -0.7793 H   0  0  0  0  0  0  0  0  0  0  0  0
   -6.2294   -2.3825   -0.0205 H   0  0  0  0  0  0  0  0  0  0  0  0
   -8.5948   -2.0086    0.0689 H   0  0  0  0  0  0  0  0  0  0  0  0
   -9.5297    0.2997    0.2726 H   0  0  0  0  0  0  0  0  0  0  0  0
   -7.9654    2.1527    0.3771 H   0  0  0  0  0  0  0  0  0  0  0  0
   -2.8373    2.4542    0.2625 H   0  0  0  0  0  0  0  0  0  0  0  0
    1.1248    2.4940    0.1716 H   0  0  0  0  0  0  0  0  0  0  0  0
    3.5757    2.0750    0.0762 H   0  0  0  0  0  0  0  0  0  0  0  0
    4.6384   -2.1484    0.8020 H   0  0  0  0  0  0  0  0  0  0  0  0
    7.0596   -2.5936    0.7151 H   0  0  0  0  0  0  0  0  0  0  0  0
  1  2  1  0
  2  3  2  0
  3  4  1  0
  4  5  2  0
  5  6  1  0
  6  7  2  0
  7  8  1  0
  8  9  2  0
  9 10  1  0
 10 11  1  0
 11 12  2  0
 11 13  1  0
 13 14  2  0
 14 15  1  0
 14 16  1  0
 16 17  2  0
 17 18  1  0
 18 19  2  0
 19 20  1  0
 20 21  2  0
 21 22  1  0
 22 23  2  0
 22 24  2  0
 22 25  1  0
  9 26  1  0
 26 27  2  0
  5 28  1  0
 28 29  2  0
 29  2  1  0
 27  6  1  0
 25 13  1  0
 21 16  1  0
  1 30  1  0
  1 31  1  0
  1 32  1  0
  3 33  1  0
  4 34  1  0
  7 35  1  0
  8 36  1  0
 10 37  1  0
 15 38  1  0
 17 39  1  0
 18 40  1  0
 19 41  1  0
 20 42  1  0
 25 43  1  0
 26 44  1  0
 27 45  1  0
 28 46  1  0
 29 47  1  0
M  END
$$$$
