
     RDKit          3D

 44 46  0  0  0  0  0  0  0  0999 V2000
    5.8216    0.5622   -1.2946 O   0  0  0  0  0  0  0  0  0  0  0  0
    5.2815    0.9178   -0.1920 C   0  0  0  0  0  0  0  0  0  0  0  0
    3.8194    1.1453   -0.1000 C   0  0  0  0  0  0  0  0  0  0  0  0
    3.0602    0.8578   -1.3549 C   0  0  0  0  0  0  0  0  0  0  0  0
    3.1263   -0.5376   -1.8366 C   0  0  0  0  0  0  0  0  0  0  0  0
    2.6954   -1.6469   -0.9797 C   0  0  0  0  0  0  0  0  0  0  0  0
    1.3076   -1.7404   -0.4838 C   0  0  0  0  0  0  0  0  0  0  0  0
    0.8431   -0.6634    0.4159 C   0  0  0  0  0  0  0  0  0  0  0  0
   -0.5476   -0.8887    0.8508 N   0  0  0  0  0  0  0  0  0  0  0  0
   -1.6921   -0.4846    0.2929 C   0  0  0  0  0  0  0  0  0  0  0  0
   -2.7405   -0.9485    1.0704 C   0  0  0  0  0  0  0  0  0  0  0  0
   -4.1724   -0.7580    0.8596 C   0  0  0  0  0  0  0  0  0  0  0  0
   -5.0569   -1.7607    0.9824 N   0  0  0  0  0  0  0  0  0  0  0  0
   -6.3798   -1.5903    0.7889 C   0  0  0  0  0  0  0  0  0  0  0  0
   -6.8384   -0.3623    0.4580 N   0  0  0  0  0  0  0  0  0  0  0  0
   -6.0260    0.6998    0.3134 C   0  0  0  0  0  0  0  0  0  0  0  0
   -6.2587    1.9856   -0.0041 N   0  0  0  0  0  0  0  0  0  0  0  0
   -5.0778    2.6282   -0.0108 C   0  0  0  0  0  0  0  0  0  0  0  0
   -4.0720    1.7122    0.3138 C   0  0  0  0  0  0  0  0  0  0  0  0
   -4.6684    0.4900    0.5197 C   0  0  0  0  0  0  0  0  0  0  0  0
   -2.1512   -1.6363    2.0988 C   0  0  0  0  0  0  0  0  0  0  0  0
   -0.8386   -1.5760    1.9295 N   0  0  0  0  0  0  0  0  0  0  0  0
    6.0931    1.0974    0.9608 N   0  0  0  0  0  0  0  0  0  0  0  0
    7.4195    0.9044    0.9301 O   0  0  0  0  0  0  0  0  0  0  0  0
    3.7085    2.2484    0.1257 H   0  0  0  0  0  0  0  0  0  0  0  0
    3.3942    0.6351    0.7993 H   0  0  0  0  0  0  0  0  0  0  0  0
    2.0965    1.3837   -1.4572 H   0  0  0  0  0  0  0  0  0  0  0  0
    3.6870    1.4465   -2.1603 H   0  0  0  0  0  0  0  0  0  0  0  0
    4.1789   -0.7463   -2.1556 H   0  0  0  0  0  0  0  0  0  0  0  0
    2.5375   -0.6403   -2.8079 H   0  0  0  0  0  0  0  0  0  0  0  0
    2.9613   -2.6063   -1.5335 H   0  0  0  0  0  0  0  0  0  0  0  0
    3.4446   -1.7056   -0.1041 H   0  0  0  0  0  0  0  0  0  0  0  0
    1.1547   -2.7601   -0.0495 H   0  0  0  0  0  0  0  0  0  0  0  0
    0.6116   -1.7594   -1.3897 H   0  0  0  0  0  0  0  0  0  0  0  0
    0.8640    0.3545    0.0618 H   0  0  0  0  0  0  0  0  0  0  0  0
    1.4726   -0.6807    1.3486 H   0  0  0  0  0  0  0  0  0  0  0  0
   -1.7815    0.0988   -0.6033 H   0  0  0  0  0  0  0  0  0  0  0  0
   -7.0401   -2.4424    0.9040 H   0  0  0  0  0  0  0  0  0  0  0  0
   -7.1631    2.4607   -0.2173 H   0  0  0  0  0  0  0  0  0  0  0  0
   -4.8523    3.6654   -0.2184 H   0  0  0  0  0  0  0  0  0  0  0  0
   -3.0201    1.8941    0.3961 H   0  0  0  0  0  0  0  0  0  0  0  0
   -2.6651   -2.1323    2.8949 H   0  0  0  0  0  0  0  0  0  0  0  0
    5.6412    1.3847    1.8433 H   0  0  0  0  0  0  0  0  0  0  0  0
    7.8224    1.4946    0.2278 H   0  0  0  0  0  0  0  0  0  0  0  0
  1  2  2  0
  2  3  1  0
  3  4  1  0
  4  5  1  0
  5  6  1  0
  6  7  1  0
  7  8  1  0
  8  9  1  0
  9 10  1  0
 10 11  2  0
 11 12  1  0
 12 13  2  0
 13 14  1  0
 14 15  2  0
 15 16  1  0
 16 17  1  0
 17 18  1  0
 18 19  2  0
 19 20  1  0
 11 21  1  0
 21 22  2  0
  2 23  1  0
 23 24  1  0
 22  9  1  0
 20 12  1  0
 20 16  2  0
  3 25  1  0
  3 26  1  0
  4 27  1  0
  4 28  1  0
  5 29  1  0
  5 30  1  0
  6 31  1  0
  6 32  1  0
  7 33  1  0
  7 34  1  0
  8 35  1  0
  8 36  1  0
 10 37  1  0
 14 38  1  0
 17 39  1  0
 18 40  1  0
 19 41  1  0
 21 42  1  0
 23 43  1  0
 24 44  1  0
M  END
$$$$
