
     RDKit          3D

 42 42  0  0  0  0  0  0  0  0999 V2000
    5.1083    1.6416    0.6810 C   0  0  0  0  0  0  0  0  0  0  0  0
    4.0863    1.1170   -0.3066 C   0  0  0  0  0  0  0  0  0  0  0  0
    3.4504   -0.0387    0.2076 N   0  0  0  0  0  0  0  0  0  0  0  0
    4.1702   -1.2107    0.3512 C   0  0  0  0  0  0  0  0  0  0  0  0
    4.6061   -1.8846   -0.9304 C   0  0  0  0  0  0  0  0  0  0  0  0
    2.0911    0.0536    0.5284 C   0  0  0  0  0  0  0  0  0  0  0  0
    1.1726    0.2203   -0.6784 C   0  0  0  0  0  0  0  0  0  0  0  0
   -0.1724    0.3320   -0.2421 N   0  0  0  0  0  0  0  0  0  0  0  0
   -1.2408   -0.1213   -0.7563 C   0  0  0  0  0  0  0  0  0  0  0  0
   -1.2957   -0.8636   -1.9213 O   0  0  0  0  0  0  0  0  0  0  0  0
   -2.4783    0.2062   -0.0071 C   0  0  0  0  0  0  0  0  0  0  0  0
   -3.7369   -0.2042   -0.4136 C   0  0  0  0  0  0  0  0  0  0  0  0
   -3.7124   -0.9357   -1.5764 O   0  0  0  0  0  0  0  0  0  0  0  0
   -4.8968   -1.4377   -2.1431 C   0  0  0  0  0  0  0  0  0  0  0  0
   -4.8123    0.1638    0.3748 C   0  0  0  0  0  0  0  0  0  0  0  0
   -4.6555    0.9094    1.5225 C   0  0  0  0  0  0  0  0  0  0  0  0
   -5.8001    1.2515    2.2836 N   0  0  0  0  0  0  0  0  0  0  0  0
   -3.4161    1.3221    1.9385 C   0  0  0  0  0  0  0  0  0  0  0  0
   -3.2252    2.3558    3.5350 Br  0  0  0  0  0  0  0  0  0  0  0  0
   -2.3082    0.9650    1.1604 C   0  0  0  0  0  0  0  0  0  0  0  0
    5.5370    2.5578    0.2029 H   0  0  0  0  0  0  0  0  0  0  0  0
    4.5605    2.0497    1.5705 H   0  0  0  0  0  0  0  0  0  0  0  0
    5.8395    0.8903    0.9626 H   0  0  0  0  0  0  0  0  0  0  0  0
    3.2841    1.9183   -0.3355 H   0  0  0  0  0  0  0  0  0  0  0  0
    4.4528    1.0547   -1.3336 H   0  0  0  0  0  0  0  0  0  0  0  0
    3.6015   -1.9570    0.9393 H   0  0  0  0  0  0  0  0  0  0  0  0
    5.0949   -1.0040    0.9685 H   0  0  0  0  0  0  0  0  0  0  0  0
    3.7365   -2.2466   -1.5118 H   0  0  0  0  0  0  0  0  0  0  0  0
    5.1870   -2.7881   -0.6314 H   0  0  0  0  0  0  0  0  0  0  0  0
    5.3001   -1.2572   -1.5327 H   0  0  0  0  0  0  0  0  0  0  0  0
    1.7884   -0.8861    1.0596 H   0  0  0  0  0  0  0  0  0  0  0  0
    1.8930    0.8810    1.2221 H   0  0  0  0  0  0  0  0  0  0  0  0
    1.4890    1.1347   -1.2139 H   0  0  0  0  0  0  0  0  0  0  0  0
    1.3590   -0.6168   -1.3824 H   0  0  0  0  0  0  0  0  0  0  0  0
   -0.4509   -1.3517   -2.2699 H   0  0  0  0  0  0  0  0  0  0  0  0
   -5.8154   -0.9875   -1.7231 H   0  0  0  0  0  0  0  0  0  0  0  0
   -5.0190   -2.5445   -1.9884 H   0  0  0  0  0  0  0  0  0  0  0  0
   -4.9282   -1.2157   -3.2497 H   0  0  0  0  0  0  0  0  0  0  0  0
   -5.7866   -0.1498    0.0667 H   0  0  0  0  0  0  0  0  0  0  0  0
   -6.1232    1.1645    3.2715 H   0  0  0  0  0  0  0  0  0  0  0  0
   -6.5563    1.7294    1.7445 H   0  0  0  0  0  0  0  0  0  0  0  0
   -1.3780    1.3310    1.5565 H   0  0  0  0  0  0  0  0  0  0  0  0
  1  2  1  0
  2  3  1  0
  3  4  1  0
  4  5  1  0
  3  6  1  0
  6  7  1  0
  7  8  1  0
  8  9  2  3
  9 10  1  0
  9 11  1  0
 11 12  2  0
 12 13  1  0
 13 14  1  0
 12 15  1  0
 15 16  2  0
 16 17  1  0
 16 18  1  0
 18 19  1  0
 18 20  2  0
 20 11  1  0
  1 21  1  0
  1 22  1  0
  1 23  1  0
  2 24  1  0
  2 25  1  0
  4 26  1  0
  4 27  1  0
  5 28  1  0
  5 29  1  0
  5 30  1  0
  6 31  1  0
  6 32  1  0
  7 33  1  0
  7 34  1  0
 10 35  1  0
 14 36  1  0
 14 37  1  0
 14 38  1  0
 15 39  1  0
 17 40  1  0
 17 41  1  0
 20 42  1  0
M  END
$$$$
