
     RDKit          3D

 69 72  0  0  0  0  0  0  0  0999 V2000
   -6.0878    0.3700   -1.1501 C   0  0  0  0  0  0  0  0  0  0  0  0
   -5.3817    1.5345   -0.9003 O   0  0  0  0  0  0  0  0  0  0  0  0
   -4.6209    1.4554    0.2779 C   0  0  2  0  0  0  0  0  0  0  0  0
   -5.1400    2.5693    1.1944 C   0  0  0  0  0  0  0  0  0  0  0  0
   -4.3846    3.7165    1.0297 O   0  0  0  0  0  0  0  0  0  0  0  0
   -4.1711    4.0282   -0.3078 C   0  0  0  0  0  0  0  0  0  0  0  0
   -3.2318    3.0227   -0.9544 C   0  0  0  0  0  0  0  0  0  0  0  0
   -3.1928    1.7904   -0.0344 C   0  0  2  0  0  0  0  0  0  0  0  0
   -2.4699    0.7852   -0.7262 N   0  0  0  0  0  0  0  0  0  0  0  0
   -2.3590   -0.4767   -0.0497 C   0  0  2  0  0  0  0  0  0  0  0  0
   -1.6865   -0.4256    1.2670 C   0  0  0  0  0  0  0  0  0  0  0  0
   -0.2610   -0.8039    0.9038 C   0  0  0  0  0  0  0  0  0  0  0  0
   -0.3534   -1.8905   -0.0678 C   0  0  1  0  0  0  0  0  0  0  0  0
    0.7756   -1.8086   -1.0430 C   0  0  0  0  0  0  0  0  0  0  0  0
    0.4634   -1.9418   -2.3074 O   0  0  0  0  0  0  0  0  0  0  0  0
    2.1285   -1.6084   -0.8211 N   0  0  0  0  0  0  0  0  0  0  0  0
    3.0334   -1.6110   -1.9757 C   0  0  0  0  0  0  0  0  0  0  0  0
    4.0185   -0.4735   -1.9127 C   0  0  0  0  0  0  0  0  0  0  0  0
    4.5249   -0.2874   -0.5850 N   0  0  0  0  0  0  0  0  0  0  0  0
    5.3062    0.8457   -0.1693 C   0  0  0  0  0  0  0  0  0  0  0  0
    5.8585    1.3381    0.7225 N   0  0  0  0  0  0  0  0  0  0  0  0
    6.5344    2.4571    0.8161 C   0  0  0  0  0  0  0  0  0  0  0  0
    7.2172    2.9798    2.0849 C   0  0  0  0  0  0  0  0  0  0  0  0
    8.3518    3.6433    1.6916 F   0  0  0  0  0  0  0  0  0  0  0  0
    7.6083    1.9333    2.8887 F   0  0  0  0  0  0  0  0  0  0  0  0
    6.3613    3.8540    2.7014 F   0  0  0  0  0  0  0  0  0  0  0  0
    6.5848    3.1724   -0.3973 C   0  0  0  0  0  0  0  0  0  0  0  0
    5.6641    2.1554   -1.5052 S   0  0  0  0  0  0  0  0  0  0  0  0
    4.2247   -1.3027    0.3873 C   0  0  0  0  0  0  0  0  0  0  0  0
    2.6873   -1.3703    0.4675 C   0  0  0  0  0  0  0  0  0  0  0  0
   -0.5869   -3.2788    0.3691 C   0  0  0  0  0  0  0  0  0  0  0  0
   -1.8603   -3.5378    1.1298 C   0  0  0  0  0  0  0  0  0  0  0  0
    0.4864   -3.9970    1.0814 C   0  0  0  0  0  0  0  0  0  0  0  0
   -1.5731   -1.4341   -0.9036 C   0  0  0  0  0  0  0  0  0  0  0  0
   -5.4021   -0.4881   -1.2592 H   0  0  0  0  0  0  0  0  0  0  0  0
   -6.6149    0.4936   -2.0982 H   0  0  0  0  0  0  0  0  0  0  0  0
   -6.8648    0.1840   -0.3716 H   0  0  0  0  0  0  0  0  0  0  0  0
   -4.7840    0.4699    0.7081 H   0  0  0  0  0  0  0  0  0  0  0  0
   -6.2167    2.7168    1.1004 H   0  0  0  0  0  0  0  0  0  0  0  0
   -4.9635    2.2093    2.2492 H   0  0  0  0  0  0  0  0  0  0  0  0
   -3.6821    5.0222   -0.3341 H   0  0  0  0  0  0  0  0  0  0  0  0
   -5.1231    4.1292   -0.8674 H   0  0  0  0  0  0  0  0  0  0  0  0
   -2.2013    3.4422   -0.9914 H   0  0  0  0  0  0  0  0  0  0  0  0
   -3.6089    2.7567   -1.9539 H   0  0  0  0  0  0  0  0  0  0  0  0
   -2.6434    2.1690    0.8776 H   0  0  0  0  0  0  0  0  0  0  0  0
   -2.8796    0.6386   -1.6580 H   0  0  0  0  0  0  0  0  0  0  0  0
   -3.4114   -0.8724    0.0244 H   0  0  0  0  0  0  0  0  0  0  0  0
   -2.1398   -1.0971    2.0204 H   0  0  0  0  0  0  0  0  0  0  0  0
   -1.7041    0.5758    1.7530 H   0  0  0  0  0  0  0  0  0  0  0  0
    0.3719   -0.9192    1.7859 H   0  0  0  0  0  0  0  0  0  0  0  0
    0.1230    0.1097    0.3558 H   0  0  0  0  0  0  0  0  0  0  0  0
    2.5077   -1.5669   -2.9293 H   0  0  0  0  0  0  0  0  0  0  0  0
    3.5991   -2.5595   -1.9269 H   0  0  0  0  0  0  0  0  0  0  0  0
    3.5994    0.4553   -2.3509 H   0  0  0  0  0  0  0  0  0  0  0  0
    4.8855   -0.7587   -2.5580 H   0  0  0  0  0  0  0  0  0  0  0  0
    7.0872    4.1469   -0.6033 H   0  0  0  0  0  0  0  0  0  0  0  0
    4.5770   -1.0868    1.3981 H   0  0  0  0  0  0  0  0  0  0  0  0
    4.5496   -2.3184    0.0617 H   0  0  0  0  0  0  0  0  0  0  0  0
    2.4138   -0.2973    0.7256 H   0  0  0  0  0  0  0  0  0  0  0  0
    2.3806   -2.0132    1.2846 H   0  0  0  0  0  0  0  0  0  0  0  0
   -0.7353   -3.8658   -0.6038 H   0  0  0  0  0  0  0  0  0  0  0  0
   -2.7471   -3.0386    0.7775 H   0  0  0  0  0  0  0  0  0  0  0  0
   -1.6763   -3.4219    2.2170 H   0  0  0  0  0  0  0  0  0  0  0  0
   -2.0806   -4.6459    1.0237 H   0  0  0  0  0  0  0  0  0  0  0  0
    0.7456   -3.5957    2.0783 H   0  0  0  0  0  0  0  0  0  0  0  0
    1.4408   -4.0862    0.5261 H   0  0  0  0  0  0  0  0  0  0  0  0
    0.1462   -5.0445    1.2573 H   0  0  0  0  0  0  0  0  0  0  0  0
   -1.2532   -0.9318   -1.8367 H   0  0  0  0  0  0  0  0  0  0  0  0
   -2.1640   -2.3140   -1.2316 H   0  0  0  0  0  0  0  0  0  0  0  0
  1  2  1  0
  2  3  1  0
  3  4  1  0
  4  5  1  0
  5  6  1  0
  6  7  1  0
  7  8  1  0
  8  9  1  0
  9 10  1  0
 10 11  1  0
 11 12  1  0
 12 13  1  0
 13 14  1  0
 14 15  2  0
 14 16  1  0
 16 17  1  0
 17 18  1  0
 18 19  1  0
 19 20  1  0
 20 21  2  0
 21 22  1  0
 22 23  1  0
 23 24  1  0
 23 25  1  0
 23 26  1  0
 22 27  2  0
 27 28  1  0
 19 29  1  0
 29 30  1  0
 13 31  1  1
 31 32  1  0
 31 33  1  0
 13 34  1  0
  8  3  1  0
 34 10  1  0
 30 16  1  0
 28 20  1  0
  1 35  1  0
  1 36  1  0
  1 37  1  0
  3 38  1  1
  4 39  1  0
  4 40  1  0
  6 41  1  0
  6 42  1  0
  7 43  1  0
  7 44  1  0
  8 45  1  1
  9 46  1  0
 10 47  1  1
 11 48  1  0
 11 49  1  0
 12 50  1  0
 12 51  1  0
 17 52  1  0
 17 53  1  0
 18 54  1  0
 18 55  1  0
 27 56  1  0
 29 57  1  0
 29 58  1  0
 30 59  1  0
 30 60  1  0
 31 61  1  0
 32 62  1  0
 32 63  1  0
 32 64  1  0
 33 65  1  0
 33 66  1  0
 33 67  1  0
 34 68  1  0
 34 69  1  0
M  END
$$$$
