
     RDKit          3D

 42 44  0  0  0  0  0  0  0  0999 V2000
    2.8207    0.4790   -2.5570 C   0  0  0  0  0  0  0  0  0  0  0  0
    2.0482    0.5088   -1.2488 C   0  0  0  0  0  0  0  0  0  0  0  0
    2.9271    0.3979   -0.0564 C   0  0  0  0  0  0  0  0  0  0  0  0
    3.4400    1.5331    0.5333 C   0  0  0  0  0  0  0  0  0  0  0  0
    4.2695    1.4570    1.6562 C   0  0  0  0  0  0  0  0  0  0  0  0
    4.5980    0.2448    2.2055 C   0  0  0  0  0  0  0  0  0  0  0  0
    4.0923   -0.8941    1.6259 C   0  0  0  0  0  0  0  0  0  0  0  0
    3.2744   -0.8103    0.5180 C   0  0  0  0  0  0  0  0  0  0  0  0
    1.0292    1.6062   -1.1748 C   0  0  0  0  0  0  0  0  0  0  0  0
    0.6240    0.1765   -1.1924 C   0  0  0  0  0  0  0  0  0  0  0  0
    0.0188   -0.4418   -0.0544 N   0  0  0  0  0  0  0  0  0  0  0  0
   -1.3917   -0.6810   -0.2086 C   0  0  0  0  0  0  0  0  0  0  0  0
   -1.9480   -1.3350    1.0372 C   0  0  0  0  0  0  0  0  0  0  0  0
   -3.3553   -1.7623    0.7436 C   0  0  0  0  0  0  0  0  0  0  0  0
   -4.2397   -0.6708    0.2514 C   0  0  0  0  0  0  0  0  0  0  0  0
   -4.7015    0.0901    1.4086 N   0  0  0  0  0  0  0  0  0  0  0  0
   -3.6032    0.2141   -0.7843 C   0  0  0  0  0  0  0  0  0  0  0  0
   -2.1784    0.5690   -0.4660 C   0  0  0  0  0  0  0  0  0  0  0  0
    2.1743    0.3459   -3.4323 H   0  0  0  0  0  0  0  0  0  0  0  0
    3.6345   -0.2701   -2.4883 H   0  0  0  0  0  0  0  0  0  0  0  0
    3.3329    1.4682   -2.6935 H   0  0  0  0  0  0  0  0  0  0  0  0
    3.2398    2.5316    0.1753 H   0  0  0  0  0  0  0  0  0  0  0  0
    4.6650    2.3676    2.1077 H   0  0  0  0  0  0  0  0  0  0  0  0
    5.2429    0.2332    3.0742 H   0  0  0  0  0  0  0  0  0  0  0  0
    4.3477   -1.8434    2.0536 H   0  0  0  0  0  0  0  0  0  0  0  0
    2.8842   -1.7236    0.0738 H   0  0  0  0  0  0  0  0  0  0  0  0
    0.8629    2.1250   -0.1967 H   0  0  0  0  0  0  0  0  0  0  0  0
    0.8299    2.2578   -2.0434 H   0  0  0  0  0  0  0  0  0  0  0  0
    0.1609   -0.1474   -2.1703 H   0  0  0  0  0  0  0  0  0  0  0  0
    0.4721   -1.3853    0.0664 H   0  0  0  0  0  0  0  0  0  0  0  0
   -1.6041   -1.3830   -1.0525 H   0  0  0  0  0  0  0  0  0  0  0  0
   -1.3698   -2.2404    1.3065 H   0  0  0  0  0  0  0  0  0  0  0  0
   -1.8797   -0.5851    1.8497 H   0  0  0  0  0  0  0  0  0  0  0  0
   -3.7868   -2.1488    1.6996 H   0  0  0  0  0  0  0  0  0  0  0  0
   -3.3029   -2.6429    0.0682 H   0  0  0  0  0  0  0  0  0  0  0  0
   -5.1464   -1.1187   -0.2062 H   0  0  0  0  0  0  0  0  0  0  0  0
   -5.1903   -0.6035    2.0305 H   0  0  0  0  0  0  0  0  0  0  0  0
   -5.4457    0.7732    1.1228 H   0  0  0  0  0  0  0  0  0  0  0  0
   -4.1792    1.1632   -0.8184 H   0  0  0  0  0  0  0  0  0  0  0  0
   -3.7089   -0.2395   -1.8036 H   0  0  0  0  0  0  0  0  0  0  0  0
   -1.7698    1.1153   -1.3406 H   0  0  0  0  0  0  0  0  0  0  0  0
   -2.1881    1.2696    0.3808 H   0  0  0  0  0  0  0  0  0  0  0  0
  1  2  1  0
  2  3  1  0
  3  4  2  0
  4  5  1  0
  5  6  2  0
  6  7  1  0
  7  8  2  0
  2  9  1  0
  9 10  1  0
 10 11  1  0
 11 12  1  0
 12 13  1  0
 13 14  1  0
 14 15  1  0
 15 16  1  0
 15 17  1  0
 17 18  1  0
 10  2  1  0
 18 12  1  0
  8  3  1  0
  1 19  1  0
  1 20  1  0
  1 21  1  0
  4 22  1  0
  5 23  1  0
  6 24  1  0
  7 25  1  0
  8 26  1  0
  9 27  1  0
  9 28  1  0
 10 29  1  0
 11 30  1  0
 12 31  1  0
 13 32  1  0
 13 33  1  0
 14 34  1  0
 14 35  1  0
 15 36  1  0
 16 37  1  0
 16 38  1  0
 17 39  1  0
 17 40  1  0
 18 41  1  0
 18 42  1  0
M  END
$$$$
