
     RDKit          3D

 36 39  0  0  0  0  0  0  0  0999 V2000
   -5.4624    2.3487    0.4211 C   0  0  0  0  0  0  0  0  0  0  0  0
   -4.6226    1.1638    0.8307 C   0  0  0  0  0  0  0  0  0  0  0  0
   -5.0744    0.2910    1.7899 C   0  0  0  0  0  0  0  0  0  0  0  0
   -3.7757   -0.8738    1.9008 S   0  0  0  0  0  0  0  0  0  0  0  0
   -2.7262   -0.0068    0.5785 C   0  0  0  0  0  0  0  0  0  0  0  0
   -1.4246   -0.5715    0.2129 C   0  0  0  0  0  0  0  0  0  0  0  0
   -0.2571   -0.1491    0.7702 N   0  0  0  0  0  0  0  0  0  0  0  0
    0.9195   -0.6869    0.4093 C   0  0  0  0  0  0  0  0  0  0  0  0
    2.1678   -0.3022    0.9586 N   0  0  0  0  0  0  0  0  0  0  0  0
    2.7882    0.9314    0.7342 C   0  0  0  0  0  0  0  0  0  0  0  0
    2.1101    1.9570    0.1222 C   0  0  0  0  0  0  0  0  0  0  0  0
    2.7070    3.1946   -0.1091 C   0  0  0  0  0  0  0  0  0  0  0  0
    3.9788    3.4081    0.2708 N   0  0  0  0  0  0  0  0  0  0  0  0
    4.6752    2.4253    0.8743 C   0  0  0  0  0  0  0  0  0  0  0  0
    4.0958    1.1795    1.1141 C   0  0  0  0  0  0  0  0  0  0  0  0
    0.9061   -1.6802   -0.5427 C   0  0  0  0  0  0  0  0  0  0  0  0
    2.0918   -2.2765   -0.9478 C   0  0  0  0  0  0  0  0  0  0  0  0
    2.1335   -3.2791   -1.8919 C   0  0  0  0  0  0  0  0  0  0  0  0
    0.9493   -3.7067   -2.4564 C   0  0  0  0  0  0  0  0  0  0  0  0
   -0.2314   -3.1241   -2.0633 C   0  0  0  0  0  0  0  0  0  0  0  0
   -0.2776   -2.1214   -1.1194 C   0  0  0  0  0  0  0  0  0  0  0  0
   -1.4370   -1.5438   -0.7191 N   0  0  0  0  0  0  0  0  0  0  0  0
   -3.4542    0.8949    0.3224 N   0  0  0  0  0  0  0  0  0  0  0  0
   -6.5411    2.0742    0.3717 H   0  0  0  0  0  0  0  0  0  0  0  0
   -5.1811    2.7499   -0.5555 H   0  0  0  0  0  0  0  0  0  0  0  0
   -5.3722    3.1109    1.2069 H   0  0  0  0  0  0  0  0  0  0  0  0
   -6.0110    0.3076    2.3513 H   0  0  0  0  0  0  0  0  0  0  0  0
    2.6557   -0.9977    1.5763 H   0  0  0  0  0  0  0  0  0  0  0  0
    1.0699    1.8656   -0.2182 H   0  0  0  0  0  0  0  0  0  0  0  0
    2.1781    4.0028   -0.5859 H   0  0  0  0  0  0  0  0  0  0  0  0
    5.7133    2.5972    1.1862 H   0  0  0  0  0  0  0  0  0  0  0  0
    4.7127    0.4463    1.5989 H   0  0  0  0  0  0  0  0  0  0  0  0
    3.0244   -1.9458   -0.5075 H   0  0  0  0  0  0  0  0  0  0  0  0
    3.1090   -3.7093   -2.1670 H   0  0  0  0  0  0  0  0  0  0  0  0
    1.0289   -4.4978   -3.1952 H   0  0  0  0  0  0  0  0  0  0  0  0
   -1.1662   -3.4762   -2.5224 H   0  0  0  0  0  0  0  0  0  0  0  0
  1  2  1  0
  2  3  2  0
  3  4  1  0
  4  5  1  0
  5  6  1  0
  6  7  2  0
  7  8  1  0
  8  9  1  0
  9 10  1  0
 10 11  2  0
 11 12  1  0
 12 13  2  0
 13 14  1  0
 14 15  2  0
  8 16  2  0
 16 17  1  0
 17 18  2  0
 18 19  1  0
 19 20  2  0
 20 21  1  0
 21 22  2  0
  5 23  2  0
 23  2  1  0
 22  6  1  0
 15 10  1  0
 21 16  1  0
  1 24  1  0
  1 25  1  0
  1 26  1  0
  3 27  1  0
  9 28  1  0
 11 29  1  0
 12 30  1  0
 14 31  1  0
 15 32  1  0
 17 33  1  0
 18 34  1  0
 19 35  1  0
 20 36  1  0
M  END
$$$$
