
     RDKit          3D

 62 67  0  0  0  0  0  0  0  0999 V2000
   -7.2367    0.1657   -1.1443 C   0  0  0  0  0  0  0  0  0  0  0  0
   -7.4482    0.8197    0.0967 N   0  0  0  0  0  0  0  0  0  0  0  0
   -8.4812    0.2066    0.8573 C   0  0  0  0  0  0  0  0  0  0  0  0
   -6.3251    1.3038    0.8004 C   0  0  0  0  0  0  0  0  0  0  0  0
   -5.3851    0.3121    1.3758 C   0  0  1  0  0  0  0  0  0  0  0  0
   -4.6829   -0.6429    0.4733 C   0  0  0  0  0  0  0  0  0  0  0  0
   -3.4100   -0.3045    1.2063 C   0  0  1  0  0  0  0  0  0  0  0  0
   -2.1669   -0.2192    0.4646 C   0  0  0  0  0  0  0  0  0  0  0  0
   -1.0381   -0.9237    0.7808 N   0  0  0  0  0  0  0  0  0  0  0  0
   -0.0441   -0.6475   -0.0683 C   0  0  0  0  0  0  0  0  0  0  0  0
    1.2792   -1.2479   -0.0050 C   0  0  0  0  0  0  0  0  0  0  0  0
    1.4217   -2.6203    0.0318 C   0  0  0  0  0  0  0  0  0  0  0  0
    2.6501   -3.2390    0.1269 C   0  0  0  0  0  0  0  0  0  0  0  0
    3.7996   -2.4708    0.1894 C   0  0  0  0  0  0  0  0  0  0  0  0
    5.0520   -3.0142    0.2865 C   0  0  0  0  0  0  0  0  0  0  0  0
    6.1381   -2.1500    0.3449 C   0  0  0  0  0  0  0  0  0  0  0  0
    5.9940   -0.7948    0.3091 C   0  0  0  0  0  0  0  0  0  0  0  0
    7.1080    0.1454    0.3720 C   0  0  0  0  0  0  0  0  0  0  0  0
    6.8058    1.5072    0.3286 C   0  0  0  0  0  0  0  0  0  0  0  0
    7.8346    2.4297    0.3881 C   0  0  0  0  0  0  0  0  0  0  0  0
    9.1474    2.0279    0.4890 C   0  0  0  0  0  0  0  0  0  0  0  0
    9.4545    0.6960    0.5322 C   0  0  0  0  0  0  0  0  0  0  0  0
    8.4142   -0.2362    0.4721 C   0  0  0  0  0  0  0  0  0  0  0  0
    4.7245   -0.3311    0.2123 N   0  0  0  0  0  0  0  0  0  0  0  0
    3.6638   -1.1135    0.1540 C   0  0  0  0  0  0  0  0  0  0  0  0
    2.4188   -0.4821    0.0577 C   0  0  0  0  0  0  0  0  0  0  0  0
   -0.5496    0.2622   -0.9606 C   0  0  0  0  0  0  0  0  0  0  0  0
   -0.0062    0.8999   -2.0577 C   0  0  0  0  0  0  0  0  0  0  0  0
    1.3328    0.6088   -2.4134 N   0  0  0  0  0  0  0  0  0  0  0  0
   -0.7680    1.7541   -2.7617 N   0  0  0  0  0  0  0  0  0  0  0  0
   -2.0389    1.9965   -2.4206 C   0  0  0  0  0  0  0  0  0  0  0  0
   -2.6109    1.3668   -1.3215 C   0  0  0  0  0  0  0  0  0  0  0  0
   -1.8533    0.5126   -0.6159 N   0  0  0  0  0  0  0  0  0  0  0  0
   -4.0385    0.9454    1.7421 C   0  0  0  0  0  0  0  0  0  0  0  0
   -6.9721   -0.9012   -1.0815 H   0  0  0  0  0  0  0  0  0  0  0  0
   -8.1432    0.2938   -1.8092 H   0  0  0  0  0  0  0  0  0  0  0  0
   -6.4304    0.6927   -1.7048 H   0  0  0  0  0  0  0  0  0  0  0  0
   -9.3506    0.9284    0.8732 H   0  0  0  0  0  0  0  0  0  0  0  0
   -8.2293    0.0547    1.9260 H   0  0  0  0  0  0  0  0  0  0  0  0
   -8.8721   -0.6994    0.3681 H   0  0  0  0  0  0  0  0  0  0  0  0
   -6.7186    1.9561    1.6367 H   0  0  0  0  0  0  0  0  0  0  0  0
   -5.7234    1.9453    0.0901 H   0  0  0  0  0  0  0  0  0  0  0  0
   -5.7545   -0.2014    2.3165 H   0  0  0  0  0  0  0  0  0  0  0  0
   -4.6861   -0.4913   -0.5982 H   0  0  0  0  0  0  0  0  0  0  0  0
   -5.0597   -1.6949    0.6625 H   0  0  0  0  0  0  0  0  0  0  0  0
   -3.3367   -1.0342    2.0740 H   0  0  0  0  0  0  0  0  0  0  0  0
    0.5457   -3.2633   -0.0147 H   0  0  0  0  0  0  0  0  0  0  0  0
    2.7589   -4.3136    0.1553 H   0  0  0  0  0  0  0  0  0  0  0  0
    5.1574   -4.0782    0.3139 H   0  0  0  0  0  0  0  0  0  0  0  0
    7.1268   -2.6005    0.4217 H   0  0  0  0  0  0  0  0  0  0  0  0
    5.7753    1.8252    0.2492 H   0  0  0  0  0  0  0  0  0  0  0  0
    7.6079    3.4808    0.3552 H   0  0  0  0  0  0  0  0  0  0  0  0
    9.9380    2.7572    0.5345 H   0  0  0  0  0  0  0  0  0  0  0  0
   10.4639    0.3189    0.6110 H   0  0  0  0  0  0  0  0  0  0  0  0
    8.6367   -1.2996    0.5048 H   0  0  0  0  0  0  0  0  0  0  0  0
    2.4028    0.6158    0.0552 H   0  0  0  0  0  0  0  0  0  0  0  0
    1.5872   -0.3508   -2.7800 H   0  0  0  0  0  0  0  0  0  0  0  0
    2.1171    1.2925   -2.3393 H   0  0  0  0  0  0  0  0  0  0  0  0
   -2.6381    2.6899   -3.0009 H   0  0  0  0  0  0  0  0  0  0  0  0
   -3.6508    1.5712   -1.0504 H   0  0  0  0  0  0  0  0  0  0  0  0
   -3.8099    1.8992    1.2765 H   0  0  0  0  0  0  0  0  0  0  0  0
   -3.8980    1.0842    2.8581 H   0  0  0  0  0  0  0  0  0  0  0  0
  1  2  1  0
  2  3  1  0
  2  4  1  0
  4  5  1  0
  5  6  1  0
  6  7  1  0
  7  8  1  0
  8  9  2  0
  9 10  1  0
 10 11  1  0
 11 12  2  0
 12 13  1  0
 13 14  2  0
 14 15  1  0
 15 16  2  0
 16 17  1  0
 17 18  1  0
 18 19  2  0
 19 20  1  0
 20 21  2  0
 21 22  1  0
 22 23  2  0
 17 24  2  0
 24 25  1  0
 25 26  2  0
 10 27  2  0
 27 28  1  0
 28 29  1  0
 28 30  2  0
 30 31  1  0
 31 32  2  0
 32 33  1  0
  7 34  1  0
 34  5  1  0
 33  8  1  0
 26 11  1  0
 33 27  1  0
 25 14  1  0
 23 18  1  0
  1 35  1  0
  1 36  1  0
  1 37  1  0
  3 38  1  0
  3 39  1  0
  3 40  1  0
  4 41  1  0
  4 42  1  0
  5 43  1  1
  6 44  1  0
  6 45  1  0
  7 46  1  1
 12 47  1  0
 13 48  1  0
 15 49  1  0
 16 50  1  0
 19 51  1  0
 20 52  1  0
 21 53  1  0
 22 54  1  0
 23 55  1  0
 26 56  1  0
 29 57  1  0
 29 58  1  0
 31 59  1  0
 32 60  1  0
 34 61  1  0
 34 62  1  0
M  END
$$$$
