
     RDKit          3D

 46 47  0  0  0  0  0  0  0  0999 V2000
    2.5264    1.1993   -1.2333 O   0  0  0  0  0  0  0  0  0  0  0  0
    1.8205    1.7596   -0.3642 C   0  0  0  0  0  0  0  0  0  0  0  0
    0.6298    1.1685    0.2653 C   0  0  0  0  0  0  0  0  0  0  0  0
    0.4885   -0.3049    0.0745 C   0  0  1  0  0  0  0  0  0  0  0  0
    1.4991   -1.1929    0.6629 C   0  0  0  0  0  0  0  0  0  0  0  0
    2.8941   -1.1243    0.3328 C   0  0  0  0  0  0  0  0  0  0  0  0
    3.7562   -0.3606    1.1325 C   0  0  0  0  0  0  0  0  0  0  0  0
    5.1054   -0.2732    0.8752 C   0  0  0  0  0  0  0  0  0  0  0  0
    5.6661   -0.9416   -0.1917 C   0  0  0  0  0  0  0  0  0  0  0  0
    4.8528   -1.6944   -0.9903 C   0  0  0  0  0  0  0  0  0  0  0  0
    3.5102   -1.7809   -0.7335 C   0  0  0  0  0  0  0  0  0  0  0  0
   -0.8490   -0.7049    0.6411 C   0  0  0  0  0  0  0  0  0  0  0  0
   -0.8310   -1.3094    1.7786 O   0  0  0  0  0  0  0  0  0  0  0  0
   -2.0911   -0.4832    0.0525 N   0  0  0  0  0  0  0  0  0  0  0  0
   -2.2311    0.1204   -1.2507 C   0  0  0  0  0  0  0  0  0  0  0  0
   -3.1095    1.3537   -1.1939 C   0  0  0  0  0  0  0  0  0  0  0  0
   -4.4444    0.8790   -0.6063 C   0  0  0  0  0  0  0  0  0  0  0  0
   -4.1765    0.3896    0.7808 C   0  0  0  0  0  0  0  0  0  0  0  0
   -3.2993   -0.8583    0.8007 C   0  0  1  0  0  0  0  0  0  0  0  0
   -3.9454   -2.0405    0.2338 C   0  0  0  0  0  0  0  0  0  0  0  0
   -3.4961   -2.6575   -0.7898 O   0  0  0  0  0  0  0  0  0  0  0  0
   -5.1033   -2.5662    0.7870 O   0  0  0  0  0  0  0  0  0  0  0  0
    2.2218    3.0838    0.0362 N   0  0  0  0  0  0  0  0  0  0  0  0
    3.3007    3.6827   -0.4997 O   0  0  0  0  0  0  0  0  0  0  0  0
    0.6313    1.4141    1.3767 H   0  0  0  0  0  0  0  0  0  0  0  0
   -0.2524    1.6833   -0.1823 H   0  0  0  0  0  0  0  0  0  0  0  0
    0.4011   -0.4399   -1.0468 H   0  0  0  0  0  0  0  0  0  0  0  0
    1.4263   -1.1107    1.8063 H   0  0  0  0  0  0  0  0  0  0  0  0
    1.1911   -2.2915    0.5224 H   0  0  0  0  0  0  0  0  0  0  0  0
    3.3378    0.1741    1.9777 H   0  0  0  0  0  0  0  0  0  0  0  0
    5.7831    0.3175    1.4908 H   0  0  0  0  0  0  0  0  0  0  0  0
    6.7471   -0.8517   -0.3709 H   0  0  0  0  0  0  0  0  0  0  0  0
    5.3054   -2.2264   -1.8412 H   0  0  0  0  0  0  0  0  0  0  0  0
    2.8914   -2.3803   -1.3773 H   0  0  0  0  0  0  0  0  0  0  0  0
   -2.7392   -0.6170   -1.9462 H   0  0  0  0  0  0  0  0  0  0  0  0
   -1.2935    0.3621   -1.7160 H   0  0  0  0  0  0  0  0  0  0  0  0
   -3.3023    1.7206   -2.2046 H   0  0  0  0  0  0  0  0  0  0  0  0
   -2.6828    2.0928   -0.5007 H   0  0  0  0  0  0  0  0  0  0  0  0
   -5.0979    1.7481   -0.5581 H   0  0  0  0  0  0  0  0  0  0  0  0
   -4.8276    0.0991   -1.2863 H   0  0  0  0  0  0  0  0  0  0  0  0
   -3.5902    1.1751    1.3062 H   0  0  0  0  0  0  0  0  0  0  0  0
   -5.1006    0.2382    1.3771 H   0  0  0  0  0  0  0  0  0  0  0  0
   -3.0114   -1.0273    1.8515 H   0  0  0  0  0  0  0  0  0  0  0  0
   -5.2654   -3.5812    0.8573 H   0  0  0  0  0  0  0  0  0  0  0  0
    1.6746    3.6039    0.7565 H   0  0  0  0  0  0  0  0  0  0  0  0
    3.0794    4.5537   -0.8923 H   0  0  0  0  0  0  0  0  0  0  0  0
  1  2  2  0
  2  3  1  0
  3  4  1  0
  4  5  1  0
  5  6  1  0
  6  7  2  0
  7  8  1  0
  8  9  2  0
  9 10  1  0
 10 11  2  0
  4 12  1  0
 12 13  2  0
 12 14  1  0
 14 15  1  0
 15 16  1  0
 16 17  1  0
 17 18  1  0
 18 19  1  0
 19 20  1  0
 20 21  2  0
 20 22  1  0
  2 23  1  0
 23 24  1  0
 11  6  1  0
 19 14  1  0
  3 25  1  0
  3 26  1  0
  4 27  1  6
  5 28  1  0
  5 29  1  0
  7 30  1  0
  8 31  1  0
  9 32  1  0
 10 33  1  0
 11 34  1  0
 15 35  1  0
 15 36  1  0
 16 37  1  0
 16 38  1  0
 17 39  1  0
 17 40  1  0
 18 41  1  0
 18 42  1  0
 19 43  1  1
 22 44  1  0
 23 45  1  0
 24 46  1  0
M  END
$$$$
