
     RDKit          3D

 44 45  0  0  0  0  0  0  0  0999 V2000
   -0.4086    0.1044    2.2996 O   0  0  0  0  0  0  0  0  0  0  0  0
   -1.0771   -0.2527    1.1402 C   0  0  1  0  0  0  0  0  0  0  0  0
   -2.5975   -0.2310    1.3229 C   0  0  1  0  0  0  0  0  0  0  0  0
   -2.8235    0.6508    2.3935 O   0  0  0  0  0  0  0  0  0  0  0  0
   -3.0387    0.4526    0.0449 C   0  0  1  0  0  0  0  0  0  0  0  0
   -1.9361    0.3479   -0.8310 O   0  0  0  0  0  0  0  0  0  0  0  0
   -0.9281    0.7958    0.0504 C   0  0  2  0  0  0  0  0  0  0  0  0
    0.4225    0.8022   -0.5750 C   0  0  0  0  0  0  0  0  0  0  0  0
    1.3616    1.2460    0.3269 O   0  0  0  0  0  0  0  0  0  0  0  0
    2.9192    1.2960   -0.2649 P   0  0  0  0  0  0  0  0  0  0  0  0
    3.3256    2.7654   -0.9666 O   0  0  0  0  0  0  0  0  0  0  0  0
    3.8471    1.1107    0.9386 O   0  0  0  0  0  0  0  0  0  0  0  0
    3.2138    0.0645   -1.3968 O   0  0  0  0  0  0  0  0  0  0  0  0
    4.8533    0.1779   -1.8595 P   0  0  0  0  0  0  0  0  0  0  0  0
    5.6991    1.2467   -0.8317 O   0  0  0  0  0  0  0  0  0  0  0  0
    4.9977    0.6913   -3.2750 O   0  0  0  0  0  0  0  0  0  0  0  0
    5.5173   -1.3594   -1.6895 O   0  0  0  0  0  0  0  0  0  0  0  0
    6.2661   -1.5659   -0.1885 P   0  0  0  0  0  0  0  0  0  0  0  0
    7.4030   -2.8163   -0.3544 O   0  0  0  0  0  0  0  0  0  0  0  0
    6.9895   -0.1510    0.3648 O   0  0  0  0  0  0  0  0  0  0  0  0
    5.2546   -2.0408    0.8581 O   0  0  0  0  0  0  0  0  0  0  0  0
   -4.2215   -0.1730   -0.4597 N   0  0  0  0  0  0  0  0  0  0  0  0
   -5.3664    0.2922    0.0948 C   0  0  0  0  0  0  0  0  0  0  0  0
   -6.6223   -0.1703   -0.2446 C   0  0  0  0  0  0  0  0  0  0  0  0
   -6.6872   -1.1627   -1.2056 C   0  0  0  0  0  0  0  0  0  0  0  0
   -7.8105   -1.6157   -1.5475 O   0  0  0  0  0  0  0  0  0  0  0  0
   -5.5352   -1.6022   -1.7358 N   0  0  0  0  0  0  0  0  0  0  0  0
   -4.3203   -1.1384   -1.3914 C   0  0  0  0  0  0  0  0  0  0  0  0
   -3.2354   -1.5311   -1.8701 O   0  0  0  0  0  0  0  0  0  0  0  0
   -0.1252   -0.7393    2.7463 H   0  0  0  0  0  0  0  0  0  0  0  0
   -0.7195   -1.2226    0.7560 H   0  0  0  0  0  0  0  0  0  0  0  0
   -3.0264   -1.2218    1.4759 H   0  0  0  0  0  0  0  0  0  0  0  0
   -2.9316    1.5857    2.0622 H   0  0  0  0  0  0  0  0  0  0  0  0
   -3.2123    1.5478    0.2378 H   0  0  0  0  0  0  0  0  0  0  0  0
   -1.2808    1.7751    0.4058 H   0  0  0  0  0  0  0  0  0  0  0  0
    0.3799    1.3852   -1.5049 H   0  0  0  0  0  0  0  0  0  0  0  0
    0.6717   -0.2498   -0.8334 H   0  0  0  0  0  0  0  0  0  0  0  0
    2.8198    3.5423   -0.6246 H   0  0  0  0  0  0  0  0  0  0  0  0
    5.6011    2.1569   -1.2288 H   0  0  0  0  0  0  0  0  0  0  0  0
    6.8994   -3.5638   -0.7701 H   0  0  0  0  0  0  0  0  0  0  0  0
    7.9508   -0.1599    0.1392 H   0  0  0  0  0  0  0  0  0  0  0  0
   -5.3957    1.0786    0.8634 H   0  0  0  0  0  0  0  0  0  0  0  0
   -7.5324    0.2045    0.2011 H   0  0  0  0  0  0  0  0  0  0  0  0
   -5.5609   -2.3528   -2.4647 H   0  0  0  0  0  0  0  0  0  0  0  0
  1  2  1  0
  2  3  1  0
  3  4  1  0
  3  5  1  0
  5  6  1  0
  6  7  1  0
  7  8  1  0
  8  9  1  0
  9 10  1  0
 10 11  1  0
 10 12  2  0
 10 13  1  0
 13 14  1  0
 14 15  1  0
 14 16  2  0
 14 17  1  0
 17 18  1  0
 18 19  1  0
 18 20  1  0
 18 21  2  0
  5 22  1  0
 22 23  1  0
 23 24  2  0
 24 25  1  0
 25 26  2  0
 25 27  1  0
 27 28  1  0
 28 29  2  0
  7  2  1  0
 28 22  1  0
  1 30  1  0
  2 31  1  6
  3 32  1  1
  4 33  1  0
  5 34  1  1
  7 35  1  1
  8 36  1  0
  8 37  1  0
 11 38  1  0
 15 39  1  0
 19 40  1  0
 20 41  1  0
 23 42  1  0
 24 43  1  0
 27 44  1  0
M  END
$$$$
