
     RDKit          3D

 60 63  0  0  0  0  0  0  0  0999 V2000
    5.8973    1.6075    2.5724 C   0  0  0  0  0  0  0  0  0  0  0  0
    4.8583    1.8766    1.5441 C   0  0  0  0  0  0  0  0  0  0  0  0
    5.0127    2.7833    0.6870 O   0  0  0  0  0  0  0  0  0  0  0  0
    3.6777    1.0919    1.5387 N   0  0  0  0  0  0  0  0  0  0  0  0
    2.5939    1.2440    0.5979 C   0  0  0  0  0  0  0  0  0  0  0  0
    3.0153    1.0149   -0.8448 C   0  0  0  0  0  0  0  0  0  0  0  0
    3.5489   -0.3173   -1.0703 C   0  0  0  0  0  0  0  0  0  0  0  0
    4.9274   -0.4856   -1.1641 C   0  0  0  0  0  0  0  0  0  0  0  0
    5.5243   -1.7108   -1.3401 C   0  0  0  0  0  0  0  0  0  0  0  0
    4.7159   -2.8332   -1.4285 C   0  0  0  0  0  0  0  0  0  0  0  0
    3.3536   -2.6766   -1.3377 C   0  0  0  0  0  0  0  0  0  0  0  0
    2.7546   -1.4194   -1.1585 C   0  0  0  0  0  0  0  0  0  0  0  0
    1.3088   -1.2878   -1.1028 C   0  0  0  0  0  0  0  0  0  0  0  0
    0.5462   -0.5635   -1.9738 C   0  0  0  0  0  0  0  0  0  0  0  0
   -0.8199   -0.4637   -1.8423 C   0  0  0  0  0  0  0  0  0  0  0  0
   -1.5301   -1.0943   -0.8115 C   0  0  0  0  0  0  0  0  0  0  0  0
   -3.0015   -0.9649   -0.6635 C   0  0  1  0  0  0  0  0  0  0  0  0
   -3.7474   -2.2024   -1.0496 C   0  0  0  0  0  0  0  0  0  0  0  0
   -4.6148   -2.7499   -0.0782 N   0  0  0  0  0  0  0  0  0  0  0  0
   -5.3938   -1.8696    0.6981 C   0  0  0  0  0  0  0  0  0  0  0  0
   -4.9383   -0.4952    0.8578 C   0  0  0  0  0  0  0  0  0  0  0  0
   -3.4722   -0.2309    0.5363 C   0  0  2  0  0  0  0  0  0  0  0  0
   -3.3453    1.2266    0.5084 C   0  0  0  0  0  0  0  0  0  0  0  0
   -3.8503    2.0684   -0.4470 C   0  0  0  0  0  0  0  0  0  0  0  0
   -3.6834    3.4348   -0.3936 C   0  0  0  0  0  0  0  0  0  0  0  0
   -2.9880    4.0337    0.6416 C   0  0  0  0  0  0  0  0  0  0  0  0
   -2.8062    5.3709    0.7243 F   0  0  0  0  0  0  0  0  0  0  0  0
   -2.4706    3.2123    1.6139 C   0  0  0  0  0  0  0  0  0  0  0  0
   -1.7815    3.7959    2.6404 F   0  0  0  0  0  0  0  0  0  0  0  0
   -2.6551    1.8499    1.5313 C   0  0  0  0  0  0  0  0  0  0  0  0
   -0.7549   -1.8264    0.0649 C   0  0  0  0  0  0  0  0  0  0  0  0
   -1.5572   -2.6661    1.3585 Cl  0  0  0  0  0  0  0  0  0  0  0  0
    0.6190   -1.9262   -0.0668 C   0  0  0  0  0  0  0  0  0  0  0  0
    6.6565    0.9299    2.1069 H   0  0  0  0  0  0  0  0  0  0  0  0
    5.4791    1.1222    3.4749 H   0  0  0  0  0  0  0  0  0  0  0  0
    6.3766    2.5814    2.8764 H   0  0  0  0  0  0  0  0  0  0  0  0
    3.5787    0.3384    2.2758 H   0  0  0  0  0  0  0  0  0  0  0  0
    1.6941    0.6940    0.8818 H   0  0  0  0  0  0  0  0  0  0  0  0
    2.3062    2.3352    0.6453 H   0  0  0  0  0  0  0  0  0  0  0  0
    2.1887    1.3522   -1.4590 H   0  0  0  0  0  0  0  0  0  0  0  0
    3.8506    1.7625   -1.0180 H   0  0  0  0  0  0  0  0  0  0  0  0
    5.6056    0.3676   -1.1000 H   0  0  0  0  0  0  0  0  0  0  0  0
    6.6098   -1.8054   -1.4097 H   0  0  0  0  0  0  0  0  0  0  0  0
    5.2006   -3.7898   -1.5664 H   0  0  0  0  0  0  0  0  0  0  0  0
    2.6986   -3.5274   -1.4023 H   0  0  0  0  0  0  0  0  0  0  0  0
    1.0032   -0.0628   -2.8085 H   0  0  0  0  0  0  0  0  0  0  0  0
   -1.4273    0.1047   -2.5236 H   0  0  0  0  0  0  0  0  0  0  0  0
   -3.2937   -0.2561   -1.5196 H   0  0  0  0  0  0  0  0  0  0  0  0
   -4.3062   -2.1513   -2.0074 H   0  0  0  0  0  0  0  0  0  0  0  0
   -2.9539   -2.9875   -1.2517 H   0  0  0  0  0  0  0  0  0  0  0  0
   -5.1565   -3.5150   -0.4822 H   0  0  0  0  0  0  0  0  0  0  0  0
   -5.5481   -2.3573    1.7080 H   0  0  0  0  0  0  0  0  0  0  0  0
   -6.4405   -1.8715    0.2682 H   0  0  0  0  0  0  0  0  0  0  0  0
   -5.1427   -0.1594    1.9014 H   0  0  0  0  0  0  0  0  0  0  0  0
   -5.5323    0.1719    0.1664 H   0  0  0  0  0  0  0  0  0  0  0  0
   -2.9174   -0.6071    1.4085 H   0  0  0  0  0  0  0  0  0  0  0  0
   -4.3883    1.6400   -1.2524 H   0  0  0  0  0  0  0  0  0  0  0  0
   -4.0919    4.1007   -1.1642 H   0  0  0  0  0  0  0  0  0  0  0  0
   -2.2089    1.2748    2.3497 H   0  0  0  0  0  0  0  0  0  0  0  0
    1.2163   -2.5120    0.6402 H   0  0  0  0  0  0  0  0  0  0  0  0
  1  2  1  0
  2  3  2  0
  2  4  1  0
  4  5  1  0
  5  6  1  0
  6  7  1  0
  7  8  2  0
  8  9  1  0
  9 10  2  0
 10 11  1  0
 11 12  2  0
 12 13  1  0
 13 14  2  0
 14 15  1  0
 15 16  2  0
 16 17  1  0
 17 18  1  0
 18 19  1  0
 19 20  1  0
 20 21  1  0
 21 22  1  0
 22 23  1  0
 23 24  2  0
 24 25  1  0
 25 26  2  0
 26 27  1  0
 26 28  1  0
 28 29  1  0
 28 30  2  0
 16 31  1  0
 31 32  1  0
 31 33  2  0
 12  7  1  0
 33 13  1  0
 22 17  1  0
 30 23  1  0
  1 34  1  0
  1 35  1  0
  1 36  1  0
  4 37  1  0
  5 38  1  0
  5 39  1  0
  6 40  1  0
  6 41  1  0
  8 42  1  0
  9 43  1  0
 10 44  1  0
 11 45  1  0
 14 46  1  0
 15 47  1  0
 17 48  1  6
 18 49  1  0
 18 50  1  0
 19 51  1  0
 20 52  1  0
 20 53  1  0
 21 54  1  0
 21 55  1  0
 22 56  1  1
 24 57  1  0
 25 58  1  0
 30 59  1  0
 33 60  1  0
M  END
$$$$
