
     RDKit          3D

 41 43  0  0  0  0  0  0  0  0999 V2000
   -2.5742    1.4887   -1.8839 C   0  0  0  0  0  0  0  0  0  0  0  0
   -1.9144    0.8870   -0.7910 O   0  0  0  0  0  0  0  0  0  0  0  0
   -2.5375   -0.1683   -0.1441 C   0  0  0  0  0  0  0  0  0  0  0  0
   -3.7891   -0.6086   -0.5827 C   0  0  0  0  0  0  0  0  0  0  0  0
   -4.4536   -1.6507    0.0198 C   0  0  0  0  0  0  0  0  0  0  0  0
   -3.8668   -2.2766    1.0853 C   0  0  0  0  0  0  0  0  0  0  0  0
   -2.6135   -1.8446    1.5337 C   0  0  0  0  0  0  0  0  0  0  0  0
   -1.9616   -0.8022    0.9222 C   0  0  0  0  0  0  0  0  0  0  0  0
   -0.6534   -0.3760    1.4248 C   0  0  0  0  0  0  0  0  0  0  0  0
    0.4215   -1.0599    0.6304 C   0  0  0  0  0  0  0  0  0  0  0  0
    1.3870    0.0135    0.3395 C   0  0  0  0  0  0  0  0  0  0  0  0
    2.7076   -0.2373   -0.2833 C   0  0  0  0  0  0  0  0  0  0  0  0
    3.0663   -1.5209   -0.6115 C   0  0  0  0  0  0  0  0  0  0  0  0
    4.2917   -1.8060   -1.1962 C   0  0  0  0  0  0  0  0  0  0  0  0
    5.1618   -0.7728   -1.4498 C   0  0  0  0  0  0  0  0  0  0  0  0
    6.4008   -1.0653   -2.0415 O   0  0  0  0  0  0  0  0  0  0  0  0
    4.8399    0.5420   -1.1339 C   0  0  0  0  0  0  0  0  0  0  0  0
    3.6107    0.7613   -0.5561 C   0  0  0  0  0  0  0  0  0  0  0  0
    0.8935    1.1189    0.7046 N   0  0  0  0  0  0  0  0  0  0  0  0
   -0.3770    1.0112    1.2588 N   0  0  0  0  0  0  0  0  0  0  0  0
   -1.2432    2.0788    1.6031 C   0  0  0  0  0  0  0  0  0  0  0  0
   -0.8414    3.4851    1.3819 C   0  0  0  0  0  0  0  0  0  0  0  0
   -2.3679    1.8601    2.1018 O   0  0  0  0  0  0  0  0  0  0  0  0
   -1.9355    2.2469   -2.3722 H   0  0  0  0  0  0  0  0  0  0  0  0
   -2.8838    0.7378   -2.6564 H   0  0  0  0  0  0  0  0  0  0  0  0
   -3.5337    1.9471   -1.5257 H   0  0  0  0  0  0  0  0  0  0  0  0
   -4.2646   -0.1218   -1.4251 H   0  0  0  0  0  0  0  0  0  0  0  0
   -5.4381   -1.9547   -0.3690 H   0  0  0  0  0  0  0  0  0  0  0  0
   -4.3953   -3.0924    1.5508 H   0  0  0  0  0  0  0  0  0  0  0  0
   -2.2018   -2.3779    2.3787 H   0  0  0  0  0  0  0  0  0  0  0  0
   -0.4984   -0.6993    2.4964 H   0  0  0  0  0  0  0  0  0  0  0  0
    0.8810   -1.9036    1.1905 H   0  0  0  0  0  0  0  0  0  0  0  0
    0.0435   -1.4098   -0.3682 H   0  0  0  0  0  0  0  0  0  0  0  0
    2.3742   -2.3547   -0.4114 H   0  0  0  0  0  0  0  0  0  0  0  0
    4.5197   -2.8328   -1.4325 H   0  0  0  0  0  0  0  0  0  0  0  0
    6.9822   -1.8061   -1.6779 H   0  0  0  0  0  0  0  0  0  0  0  0
    5.5493    1.3203   -1.3489 H   0  0  0  0  0  0  0  0  0  0  0  0
    3.3383    1.7729   -0.3020 H   0  0  0  0  0  0  0  0  0  0  0  0
   -0.9591    3.7168    0.2987 H   0  0  0  0  0  0  0  0  0  0  0  0
   -1.4043    4.1751    2.0358 H   0  0  0  0  0  0  0  0  0  0  0  0
    0.2392    3.5787    1.6066 H   0  0  0  0  0  0  0  0  0  0  0  0
  1  2  1  0
  2  3  1  0
  3  4  2  0
  4  5  1  0
  5  6  2  0
  6  7  1  0
  7  8  2  0
  8  9  1  0
  9 10  1  0
 10 11  1  0
 11 12  1  0
 12 13  2  0
 13 14  1  0
 14 15  2  0
 15 16  1  0
 15 17  1  0
 17 18  2  0
 11 19  2  0
 19 20  1  0
 20 21  1  0
 21 22  1  0
 21 23  2  0
  8  3  1  0
 20  9  1  0
 18 12  1  0
  1 24  1  0
  1 25  1  0
  1 26  1  0
  4 27  1  0
  5 28  1  0
  6 29  1  0
  7 30  1  0
  9 31  1  0
 10 32  1  0
 10 33  1  0
 13 34  1  0
 14 35  1  0
 16 36  1  0
 17 37  1  0
 18 38  1  0
 22 39  1  0
 22 40  1  0
 22 41  1  0
M  END
$$$$
