
     RDKit          3D

 22 23  0  0  0  0  0  0  0  0999 V2000
   -0.8106    0.6651   -0.7106 C   0  0  1  0  0  0  0  0  0  0  0  0
   -0.2074    1.6734    0.0016 O   0  0  0  0  0  0  0  0  0  0  0  0
    0.6575    1.0677    0.9167 C   0  0  0  0  0  0  0  0  0  0  0  0
    1.3139    0.0496   -0.0279 C   0  0  1  0  0  0  0  0  0  0  0  0
    2.1674   -0.8152    0.6602 O   0  0  0  0  0  0  0  0  0  0  0  0
    3.5164   -0.8193    0.3066 N   0  0  0  0  0  4  0  0  0  0  0  0
    4.0709    0.3399   -0.2104 O   0  0  0  0  0  1  0  0  0  0  0  0
    4.3694   -1.7224    0.3715 O   0  0  0  0  0  0  0  0  0  0  0  0
    0.0861   -0.5743   -0.6068 C   0  0  1  0  0  0  0  0  0  0  0  0
   -0.5814   -1.4092    0.2671 O   0  0  0  0  0  0  0  0  0  0  0  0
   -1.9447   -1.2474   -0.0252 C   0  0  0  0  0  0  0  0  0  0  0  0
   -2.0647    0.2620    0.0331 C   0  0  2  0  0  0  0  0  0  0  0  0
   -3.1814    0.7407   -0.6099 O   0  0  0  0  0  0  0  0  0  0  0  0
   -0.9889    0.8994   -1.7672 H   0  0  0  0  0  0  0  0  0  0  0  0
    1.4216    1.7515    1.2856 H   0  0  0  0  0  0  0  0  0  0  0  0
    0.0539    0.5605    1.6943 H   0  0  0  0  0  0  0  0  0  0  0  0
    1.8023    0.6570   -0.7997 H   0  0  0  0  0  0  0  0  0  0  0  0
    0.2274   -1.0476   -1.5956 H   0  0  0  0  0  0  0  0  0  0  0  0
   -2.2219   -1.6097   -1.0292 H   0  0  0  0  0  0  0  0  0  0  0  0
   -2.5529   -1.7105    0.7759 H   0  0  0  0  0  0  0  0  0  0  0  0
   -2.0452    0.5606    1.1004 H   0  0  0  0  0  0  0  0  0  0  0  0
   -3.0879    1.7282   -0.6346 H   0  0  0  0  0  0  0  0  0  0  0  0
  1  2  1  0
  2  3  1  0
  3  4  1  0
  4  5  1  0
  5  6  1  0
  6  7  1  0
  6  8  2  0
  4  9  1  0
  9 10  1  0
 10 11  1  0
 11 12  1  0
 12 13  1  0
  9  1  1  0
 12  1  1  0
  1 14  1  6
  3 15  1  0
  3 16  1  0
  4 17  1  6
  9 18  1  6
 11 19  1  0
 11 20  1  0
 12 21  1  1
 13 22  1  0
M  CHG  2   6   1   7  -1
M  END
$$$$
