
     RDKit          3D

 28 30  0  0  0  0  0  0  0  0999 V2000
    4.3239   -2.4577    0.2926 F   0  0  0  0  0  0  0  0  0  0  0  0
    3.3464   -1.5099    0.2721 C   0  0  0  0  0  0  0  0  0  0  0  0
    3.1712   -0.6577    1.3194 C   0  0  0  0  0  0  0  0  0  0  0  0
    2.1596    0.2973    1.2586 C   0  0  0  0  0  0  0  0  0  0  0  0
    1.3377    0.3754    0.1343 C   0  0  0  0  0  0  0  0  0  0  0  0
    1.5152   -0.4908   -0.9313 C   0  0  0  0  0  0  0  0  0  0  0  0
    2.5300   -1.4411   -0.8585 C   0  0  0  0  0  0  0  0  0  0  0  0
    0.3395    1.4331    0.2516 C   0  0  0  0  0  0  0  0  0  0  0  0
    0.5231    2.7910    0.3910 C   0  0  0  0  0  0  0  0  0  0  0  0
   -0.6742    3.3935    0.4625 N   0  0  0  0  0  0  0  0  0  0  0  0
   -1.6336    2.4642    0.3733 N   0  0  0  0  0  0  0  0  0  0  0  0
   -1.0218    1.2500    0.2428 C   0  0  0  0  0  0  0  0  0  0  0  0
   -1.7986    0.0424    0.1235 C   0  0  0  0  0  0  0  0  0  0  0  0
   -2.6415   -0.0494   -0.9668 C   0  0  0  0  0  0  0  0  0  0  0  0
   -3.4235   -1.1654   -1.1653 C   0  0  0  0  0  0  0  0  0  0  0  0
   -4.2541   -1.2367   -2.2549 F   0  0  0  0  0  0  0  0  0  0  0  0
   -3.3658   -2.1924   -0.2755 N   0  0  0  0  0  0  0  0  0  0  0  0
   -2.5516   -2.1140    0.7858 C   0  0  0  0  0  0  0  0  0  0  0  0
   -1.7593   -1.0169    1.0134 C   0  0  0  0  0  0  0  0  0  0  0  0
    3.8277   -0.7461    2.1776 H   0  0  0  0  0  0  0  0  0  0  0  0
    2.0880    0.9336    2.1305 H   0  0  0  0  0  0  0  0  0  0  0  0
    0.8362   -0.3495   -1.7420 H   0  0  0  0  0  0  0  0  0  0  0  0
    2.6320   -2.1018   -1.7219 H   0  0  0  0  0  0  0  0  0  0  0  0
    1.5158    3.2200    0.4281 H   0  0  0  0  0  0  0  0  0  0  0  0
   -0.7118    4.4423    0.5715 H   0  0  0  0  0  0  0  0  0  0  0  0
   -2.7020    0.7686   -1.6956 H   0  0  0  0  0  0  0  0  0  0  0  0
   -2.5229   -2.9566    1.4900 H   0  0  0  0  0  0  0  0  0  0  0  0
   -1.0856   -0.9254    1.8705 H   0  0  0  0  0  0  0  0  0  0  0  0
  1  2  1  0
  2  3  2  0
  3  4  1  0
  4  5  2  0
  5  6  1  0
  6  7  2  0
  5  8  1  0
  8  9  2  0
  9 10  1  0
 10 11  1  0
 11 12  2  0
 12 13  1  0
 13 14  2  0
 14 15  1  0
 15 16  1  0
 15 17  2  0
 17 18  1  0
 18 19  2  0
  7  2  1  0
 12  8  1  0
 19 13  1  0
  3 20  1  0
  4 21  1  0
  6 22  1  0
  7 23  1  0
  9 24  1  0
 10 25  1  0
 14 26  1  0
 18 27  1  0
 19 28  1  0
M  END
$$$$
