
     RDKit          3D

 35 37  0  0  0  0  0  0  0  0999 V2000
    4.4538    1.6331    0.1475 C   0  0  0  0  0  0  0  0  0  0  0  0
    3.3763    0.5975    0.0599 C   0  0  0  0  0  0  0  0  0  0  0  0
    3.6965   -0.7235    0.0265 C   0  0  0  0  0  0  0  0  0  0  0  0
    2.7275   -1.6720   -0.0530 C   0  0  0  0  0  0  0  0  0  0  0  0
    1.3870   -1.2889   -0.1010 C   0  0  0  0  0  0  0  0  0  0  0  0
    1.0328    0.0364   -0.0690 C   0  0  0  0  0  0  0  0  0  0  0  0
   -0.2521    0.4943   -0.1117 O   0  0  0  0  0  0  0  0  0  0  0  0
   -1.4430   -0.2217   -0.1929 C   0  0  1  0  0  0  0  0  0  0  0  0
   -2.1665   -0.0902    1.1678 C   0  0  0  0  0  0  0  0  0  0  0  0
   -3.3232   -1.2208    1.1288 C   0  0  0  0  0  0  0  0  0  0  0  0
   -3.3592   -1.2665   -0.2782 N   0  0  0  0  0  0  0  0  0  0  0  0
   -3.7502    0.0435   -0.8943 C   0  0  0  0  0  0  0  0  0  0  0  0
   -2.2693    0.1508   -1.3993 C   0  0  2  0  0  0  0  0  0  0  0  0
   -2.3314   -1.0174   -2.2693 O   0  0  0  0  0  0  0  0  0  0  0  0
   -3.0070   -1.9737   -1.4096 C   0  0  0  0  0  0  0  0  0  0  0  0
   -3.2283   -3.1847   -1.6285 O   0  0  0  0  0  0  0  0  0  0  0  0
    2.0651    0.9828    0.0133 C   0  0  0  0  0  0  0  0  0  0  0  0
    1.7279    2.4265    0.0505 C   0  0  0  0  0  0  0  0  0  0  0  0
    4.5741    1.9439    1.1911 H   0  0  0  0  0  0  0  0  0  0  0  0
    4.1995    2.5317   -0.4538 H   0  0  0  0  0  0  0  0  0  0  0  0
    5.4176    1.1924   -0.1889 H   0  0  0  0  0  0  0  0  0  0  0  0
    4.7515   -1.0280    0.0642 H   0  0  0  0  0  0  0  0  0  0  0  0
    2.9667   -2.7341   -0.0806 H   0  0  0  0  0  0  0  0  0  0  0  0
    0.6191   -2.0583   -0.1646 H   0  0  0  0  0  0  0  0  0  0  0  0
   -1.1888   -1.3121   -0.2210 H   0  0  0  0  0  0  0  0  0  0  0  0
   -1.4945   -0.3650    1.9525 H   0  0  0  0  0  0  0  0  0  0  0  0
   -2.6253    0.8699    1.3218 H   0  0  0  0  0  0  0  0  0  0  0  0
   -2.9495   -2.0854    1.6659 H   0  0  0  0  0  0  0  0  0  0  0  0
   -4.1786   -0.7967    1.6499 H   0  0  0  0  0  0  0  0  0  0  0  0
   -3.9912    0.8011   -0.1780 H   0  0  0  0  0  0  0  0  0  0  0  0
   -4.3545   -0.0816   -1.7676 H   0  0  0  0  0  0  0  0  0  0  0  0
   -2.0567    1.0630   -1.8926 H   0  0  0  0  0  0  0  0  0  0  0  0
    2.1867    2.8783    0.9446 H   0  0  0  0  0  0  0  0  0  0  0  0
    0.6340    2.5640    0.0100 H   0  0  0  0  0  0  0  0  0  0  0  0
    2.1531    2.9112   -0.8702 H   0  0  0  0  0  0  0  0  0  0  0  0
  1  2  1  0
  2  3  2  0
  3  4  1  0
  4  5  2  0
  5  6  1  0
  6  7  1  0
  7  8  1  0
  8  9  1  0
  9 10  1  0
 10 11  1  0
 11 12  1  0
 12 13  1  0
 13 14  1  0
 14 15  1  0
 15 16  2  0
  6 17  2  0
 17 18  1  0
 17  2  1  0
 13  8  1  0
 15 11  1  0
  1 19  1  0
  1 20  1  0
  1 21  1  0
  3 22  1  0
  4 23  1  0
  5 24  1  0
  8 25  1  6
  9 26  1  0
  9 27  1  0
 10 28  1  0
 10 29  1  0
 12 30  1  0
 12 31  1  0
 13 32  1  6
 18 33  1  0
 18 34  1  0
 18 35  1  0
M  END
$$$$
