
     RDKit          3D

 55 57  0  0  0  0  0  0  0  0999 V2000
   -3.3972   -0.6513    2.7074 C   0  0  0  0  0  0  0  0  0  0  0  0
   -3.7713   -0.6934    1.2520 C   0  0  0  0  0  0  0  0  0  0  0  0
   -4.5109   -1.9910    1.0193 C   0  0  0  0  0  0  0  0  0  0  0  0
   -4.6021    0.5094    0.9260 C   0  0  0  0  0  0  0  0  0  0  0  0
   -4.7266    0.7630   -0.5547 C   0  0  0  0  0  0  0  0  0  0  0  0
   -3.4008    1.0639   -1.2075 C   0  0  0  0  0  0  0  0  0  0  0  0
   -2.9077    2.4578   -0.8602 C   0  0  0  0  0  0  0  0  0  0  0  0
   -3.6066    1.0110   -2.7071 C   0  0  0  0  0  0  0  0  0  0  0  0
   -2.3768    0.0978   -0.7586 C   0  0  0  0  0  0  0  0  0  0  0  0
   -2.5743   -0.6874    0.3639 C   0  0  0  0  0  0  0  0  0  0  0  0
   -1.5661   -1.5636    0.7125 C   0  0  0  0  0  0  0  0  0  0  0  0
   -0.3772   -1.6808   -0.0163 C   0  0  0  0  0  0  0  0  0  0  0  0
   -0.1866   -0.8984   -1.1302 C   0  0  0  0  0  0  0  0  0  0  0  0
   -1.1935   -0.0287   -1.4717 C   0  0  0  0  0  0  0  0  0  0  0  0
    1.0482   -0.9949   -1.9186 C   0  0  2  0  0  0  0  0  0  0  0  0
    1.3797   -2.3428   -2.1250 O   0  0  0  0  0  0  0  0  0  0  0  0
    2.1219   -0.2740   -1.1858 C   0  0  0  0  0  0  0  0  0  0  0  0
    1.9837    0.9633   -0.9136 O   0  0  0  0  0  0  0  0  0  0  0  0
    3.3022   -0.9076   -0.7732 N   0  0  0  0  0  0  0  0  0  0  0  0
    4.4044   -0.3562   -0.0729 C   0  0  0  0  0  0  0  0  0  0  0  0
    4.6262   -0.2700    1.2863 C   0  0  0  0  0  0  0  0  0  0  0  0
    3.6271   -0.7978    2.0339 F   0  0  0  0  0  0  0  0  0  0  0  0
    5.7617    0.3026    1.7855 C   0  0  0  0  0  0  0  0  0  0  0  0
    6.7130    0.8080    0.9331 C   0  0  0  0  0  0  0  0  0  0  0  0
    6.5525    0.7533   -0.4308 C   0  0  0  0  0  0  0  0  0  0  0  0
    5.3891    0.1661   -0.9134 C   0  0  0  0  0  0  0  0  0  0  0  0
    7.9179    1.4158    1.4501 C   0  0  0  0  0  0  0  0  0  0  0  0
    8.2302    1.5489    2.7888 O   0  0  0  0  0  0  0  0  0  0  0  0
    8.8220    1.8951    0.6948 O   0  0  0  0  0  0  0  0  0  0  0  0
   -2.5415    0.0065    2.9351 H   0  0  0  0  0  0  0  0  0  0  0  0
   -4.2642   -0.2615    3.2987 H   0  0  0  0  0  0  0  0  0  0  0  0
   -3.2105   -1.6749    3.1227 H   0  0  0  0  0  0  0  0  0  0  0  0
   -4.9818   -2.0728    0.0288 H   0  0  0  0  0  0  0  0  0  0  0  0
   -3.7777   -2.8172    1.1619 H   0  0  0  0  0  0  0  0  0  0  0  0
   -5.2887   -2.1415    1.7946 H   0  0  0  0  0  0  0  0  0  0  0  0
   -4.1226    1.3951    1.3934 H   0  0  0  0  0  0  0  0  0  0  0  0
   -5.6392    0.3779    1.3052 H   0  0  0  0  0  0  0  0  0  0  0  0
   -5.1444   -0.1333   -1.0385 H   0  0  0  0  0  0  0  0  0  0  0  0
   -5.4391    1.5813   -0.6866 H   0  0  0  0  0  0  0  0  0  0  0  0
   -3.5280    3.2479   -1.3137 H   0  0  0  0  0  0  0  0  0  0  0  0
   -2.8097    2.5770    0.2395 H   0  0  0  0  0  0  0  0  0  0  0  0
   -1.8850    2.5410   -1.2783 H   0  0  0  0  0  0  0  0  0  0  0  0
   -4.6309    1.4158   -2.9113 H   0  0  0  0  0  0  0  0  0  0  0  0
   -2.8837    1.6478   -3.2559 H   0  0  0  0  0  0  0  0  0  0  0  0
   -3.6126   -0.0453   -2.9983 H   0  0  0  0  0  0  0  0  0  0  0  0
   -1.6508   -2.2079    1.5767 H   0  0  0  0  0  0  0  0  0  0  0  0
    0.3779   -2.3858    0.3054 H   0  0  0  0  0  0  0  0  0  0  0  0
   -1.0367    0.5819   -2.3470 H   0  0  0  0  0  0  0  0  0  0  0  0
    0.9306   -0.5323   -2.9268 H   0  0  0  0  0  0  0  0  0  0  0  0
    1.6407   -2.7352   -1.2581 H   0  0  0  0  0  0  0  0  0  0  0  0
    3.4839   -1.9136   -0.9600 H   0  0  0  0  0  0  0  0  0  0  0  0
    5.8844    0.3435    2.8691 H   0  0  0  0  0  0  0  0  0  0  0  0
    7.3040    1.1524   -1.0963 H   0  0  0  0  0  0  0  0  0  0  0  0
    5.3139    0.1498   -2.0105 H   0  0  0  0  0  0  0  0  0  0  0  0
    8.8296    2.2855    3.1364 H   0  0  0  0  0  0  0  0  0  0  0  0
  1  2  1  0
  2  3  1  0
  2  4  1  0
  4  5  1  0
  5  6  1  0
  6  7  1  0
  6  8  1  0
  6  9  1  0
  9 10  2  0
 10 11  1  0
 11 12  2  0
 12 13  1  0
 13 14  2  0
 13 15  1  0
 15 16  1  0
 15 17  1  0
 17 18  2  0
 17 19  1  0
 19 20  1  0
 20 21  2  0
 21 22  1  0
 21 23  1  0
 23 24  2  0
 24 25  1  0
 25 26  2  0
 24 27  1  0
 27 28  1  0
 27 29  2  0
 10  2  1  0
 26 20  1  0
 14  9  1  0
  1 30  1  0
  1 31  1  0
  1 32  1  0
  3 33  1  0
  3 34  1  0
  3 35  1  0
  4 36  1  0
  4 37  1  0
  5 38  1  0
  5 39  1  0
  7 40  1  0
  7 41  1  0
  7 42  1  0
  8 43  1  0
  8 44  1  0
  8 45  1  0
 11 46  1  0
 12 47  1  0
 14 48  1  0
 15 49  1  6
 16 50  1  0
 19 51  1  0
 23 52  1  0
 25 53  1  0
 26 54  1  0
 28 55  1  0
M  END
$$$$
