
     RDKit          3D

 83 87  0  0  0  0  0  0  0  0999 V2000
    2.1907   -0.1481    2.4808 C   0  0  0  0  0  0  0  0  0  0  0  0
    3.3571   -0.5959    1.8301 O   0  0  0  0  0  0  0  0  0  0  0  0
    3.2798   -1.2354    0.6157 C   0  0  0  0  0  0  0  0  0  0  0  0
    4.4182   -1.6966   -0.0644 C   0  0  0  0  0  0  0  0  0  0  0  0
    5.5495   -1.4269    0.6196 O   0  0  0  0  0  0  0  0  0  0  0  0
    6.8626   -1.6838    0.2789 C   0  0  0  0  0  0  0  0  0  0  0  0
    7.2666   -0.9165   -0.9523 C   0  0  0  0  0  0  0  0  0  0  0  0
    7.0868    0.5625   -0.5995 C   0  0  0  0  0  0  0  0  0  0  0  0
    7.9584    0.8352    0.5313 N   0  0  0  0  0  0  0  0  0  0  0  0
    9.3592    0.7536    0.1411 C   0  0  0  0  0  0  0  0  0  0  0  0
   10.1845    1.7530    0.8982 C   0  0  0  0  0  0  0  0  0  0  0  0
    9.7206    1.8988    2.3328 C   0  0  0  0  0  0  0  0  0  0  0  0
    8.2779    2.3331    2.3693 C   0  0  0  0  0  0  0  0  0  0  0  0
    7.6588    2.1742    1.0105 C   0  0  0  0  0  0  0  0  0  0  0  0
    4.1395   -2.3026   -1.2466 C   0  0  0  0  0  0  0  0  0  0  0  0
    2.9061   -2.4990   -1.8180 C   0  0  0  0  0  0  0  0  0  0  0  0
    2.7918   -3.1180   -3.0050 N   0  0  0  0  0  0  0  0  0  0  0  0
    1.5287   -3.2638   -3.4911 C   0  0  0  0  0  0  0  0  0  0  0  0
    0.4712   -2.8030   -2.7976 N   0  0  0  0  0  0  0  0  0  0  0  0
    0.5660   -2.1836   -1.6131 C   0  0  0  0  0  0  0  0  0  0  0  0
   -0.6338   -1.7576   -0.9822 N   0  0  0  0  0  0  0  0  0  0  0  0
   -1.1919   -2.2241    0.2703 C   0  0  0  0  0  0  0  0  0  0  0  0
   -1.9175   -1.0599    0.9615 C   0  0  0  0  0  0  0  0  0  0  0  0
   -2.8924   -0.6085   -0.0130 N   0  0  0  0  0  0  0  0  0  0  0  0
   -2.5631   -0.2644   -1.3583 C   0  0  0  0  0  0  0  0  0  0  0  0
   -1.2255   -0.7472   -1.8169 C   0  0  0  0  0  0  0  0  0  0  0  0
   -4.2197   -0.5303    0.4636 C   0  0  0  0  0  0  0  0  0  0  0  0
   -4.5407   -0.8249    1.6421 O   0  0  0  0  0  0  0  0  0  0  0  0
   -5.2358   -0.0998   -0.4304 N   0  0  0  0  0  0  0  0  0  0  0  0
   -6.6374    0.1208   -0.3981 C   0  0  0  0  0  0  0  0  0  0  0  0
   -7.0629    1.3820   -0.0409 C   0  0  0  0  0  0  0  0  0  0  0  0
   -8.3969    1.7232    0.0252 C   0  0  0  0  0  0  0  0  0  0  0  0
   -9.3355    0.7581   -0.2798 C   0  0  0  0  0  0  0  0  0  0  0  0
  -10.7049    0.8364   -0.2918 O   0  0  0  0  0  0  0  0  0  0  0  0
  -11.4980    1.9405    0.0106 C   0  0  0  0  0  0  0  0  0  0  0  0
  -12.3148    2.4382   -1.1642 C   0  0  0  0  0  0  0  0  0  0  0  0
  -12.4141    1.6988    1.1948 C   0  0  0  0  0  0  0  0  0  0  0  0
   -8.9091   -0.5245   -0.6431 C   0  0  0  0  0  0  0  0  0  0  0  0
   -7.5615   -0.8591   -0.7070 C   0  0  0  0  0  0  0  0  0  0  0  0
    1.8284   -2.0248   -1.1040 C   0  0  0  0  0  0  0  0  0  0  0  0
    1.9942   -1.3934    0.1084 C   0  0  0  0  0  0  0  0  0  0  0  0
    1.6059    0.5850    1.8811 H   0  0  0  0  0  0  0  0  0  0  0  0
    1.5130   -1.0029    2.7127 H   0  0  0  0  0  0  0  0  0  0  0  0
    2.5318    0.3698    3.4079 H   0  0  0  0  0  0  0  0  0  0  0  0
    7.0108   -2.7930    0.0709 H   0  0  0  0  0  0  0  0  0  0  0  0
    7.5547   -1.4140    1.1297 H   0  0  0  0  0  0  0  0  0  0  0  0
    6.6573   -1.1754   -1.8164 H   0  0  0  0  0  0  0  0  0  0  0  0
    8.3594   -1.1234   -1.1350 H   0  0  0  0  0  0  0  0  0  0  0  0
    7.2799    1.2265   -1.4511 H   0  0  0  0  0  0  0  0  0  0  0  0
    6.0361    0.6493   -0.2551 H   0  0  0  0  0  0  0  0  0  0  0  0
    9.4452    0.9811   -0.9542 H   0  0  0  0  0  0  0  0  0  0  0  0
    9.6891   -0.2974    0.3061 H   0  0  0  0  0  0  0  0  0  0  0  0
   11.2450    1.4397    0.9087 H   0  0  0  0  0  0  0  0  0  0  0  0
   10.0600    2.7495    0.4222 H   0  0  0  0  0  0  0  0  0  0  0  0
    9.9300    0.9868    2.9247 H   0  0  0  0  0  0  0  0  0  0  0  0
   10.3354    2.7111    2.7863 H   0  0  0  0  0  0  0  0  0  0  0  0
    7.6574    1.7618    3.0925 H   0  0  0  0  0  0  0  0  0  0  0  0
    8.1948    3.4182    2.6421 H   0  0  0  0  0  0  0  0  0  0  0  0
    6.5591    2.2350    1.1248 H   0  0  0  0  0  0  0  0  0  0  0  0
    8.0319    2.9220    0.2805 H   0  0  0  0  0  0  0  0  0  0  0  0
    4.9745   -2.6888   -1.7915 H   0  0  0  0  0  0  0  0  0  0  0  0
    1.3412   -3.7490   -4.4400 H   0  0  0  0  0  0  0  0  0  0  0  0
   -0.4939   -2.7472    0.9178 H   0  0  0  0  0  0  0  0  0  0  0  0
   -2.0364   -2.9120   -0.0371 H   0  0  0  0  0  0  0  0  0  0  0  0
   -2.3556   -1.4762    1.8746 H   0  0  0  0  0  0  0  0  0  0  0  0
   -1.1550   -0.2765    1.1883 H   0  0  0  0  0  0  0  0  0  0  0  0
   -2.6243    0.8333   -1.5549 H   0  0  0  0  0  0  0  0  0  0  0  0
   -3.3507   -0.7603   -2.0056 H   0  0  0  0  0  0  0  0  0  0  0  0
   -1.3236   -1.1164   -2.8743 H   0  0  0  0  0  0  0  0  0  0  0  0
   -0.5165    0.1193   -1.7940 H   0  0  0  0  0  0  0  0  0  0  0  0
   -5.0799    0.1689   -1.4303 H   0  0  0  0  0  0  0  0  0  0  0  0
   -6.3367    2.1689    0.2072 H   0  0  0  0  0  0  0  0  0  0  0  0
   -8.8087    2.6660    0.2888 H   0  0  0  0  0  0  0  0  0  0  0  0
  -10.8344    2.7862    0.2891 H   0  0  0  0  0  0  0  0  0  0  0  0
  -13.4017    2.2836   -0.9510 H   0  0  0  0  0  0  0  0  0  0  0  0
  -12.0929    1.8515   -2.0802 H   0  0  0  0  0  0  0  0  0  0  0  0
  -12.2216    3.5402   -1.3159 H   0  0  0  0  0  0  0  0  0  0  0  0
  -12.0232    2.1991    2.1089 H   0  0  0  0  0  0  0  0  0  0  0  0
  -13.4251    2.1013    1.0467 H   0  0  0  0  0  0  0  0  0  0  0  0
  -12.4441    0.6028    1.4553 H   0  0  0  0  0  0  0  0  0  0  0  0
   -9.5494   -1.3695   -0.9053 H   0  0  0  0  0  0  0  0  0  0  0  0
   -7.1983   -1.8339   -0.9819 H   0  0  0  0  0  0  0  0  0  0  0  0
    1.1185   -1.0376    0.6231 H   0  0  0  0  0  0  0  0  0  0  0  0
  1  2  1  0
  2  3  1  0
  3  4  2  0
  4  5  1  0
  5  6  1  0
  6  7  1  0
  7  8  1  0
  8  9  1  0
  9 10  1  0
 10 11  1  0
 11 12  1  0
 12 13  1  0
 13 14  1  0
  4 15  1  0
 15 16  2  0
 16 17  1  0
 17 18  2  0
 18 19  1  0
 19 20  2  0
 20 21  1  0
 21 22  1  0
 22 23  1  0
 23 24  1  0
 24 25  1  0
 25 26  1  0
 24 27  1  0
 27 28  2  0
 27 29  1  0
 29 30  1  0
 30 31  2  0
 31 32  1  0
 32 33  2  0
 33 34  1  0
 34 35  1  0
 35 36  1  0
 35 37  1  0
 33 38  1  0
 38 39  2  0
 20 40  1  0
 40 41  2  0
 41  3  1  0
 14  9  1  0
 40 16  1  0
 26 21  1  0
 39 30  1  0
  1 42  1  0
  1 43  1  0
  1 44  1  0
  6 45  1  0
  6 46  1  0
  7 47  1  0
  7 48  1  0
  8 49  1  0
  8 50  1  0
 10 51  1  0
 10 52  1  0
 11 53  1  0
 11 54  1  0
 12 55  1  0
 12 56  1  0
 13 57  1  0
 13 58  1  0
 14 59  1  0
 14 60  1  0
 15 61  1  0
 18 62  1  0
 22 63  1  0
 22 64  1  0
 23 65  1  0
 23 66  1  0
 25 67  1  0
 25 68  1  0
 26 69  1  0
 26 70  1  0
 29 71  1  0
 31 72  1  0
 32 73  1  0
 35 74  1  0
 36 75  1  0
 36 76  1  0
 36 77  1  0
 37 78  1  0
 37 79  1  0
 37 80  1  0
 38 81  1  0
 39 82  1  0
 41 83  1  0
M  END
$$$$
