
     RDKit          3D

 76 80  0  0  0  0  0  0  0  0999 V2000
   -9.3387   -2.8910   -2.4481 C   0  0  0  0  0  0  0  0  0  0  0  0
   -9.4675   -3.2272   -0.9738 C   0  0  0  0  0  0  0  0  0  0  0  0
   -8.3500   -2.6453   -0.3089 O   0  0  0  0  0  0  0  0  0  0  0  0
   -8.1262   -1.2726   -0.3504 C   0  0  0  0  0  0  0  0  0  0  0  0
   -8.9089   -0.3710   -1.0009 N   0  0  0  0  0  0  0  0  0  0  0  0
   -8.4340    0.8487   -0.8523 N   0  0  0  0  0  0  0  0  0  0  0  0
   -9.0220    2.0585   -1.4082 C   0  0  0  0  0  0  0  0  0  0  0  0
   -7.3063    0.7894   -0.0876 C   0  0  0  0  0  0  0  0  0  0  0  0
   -7.1234   -0.5335    0.2199 C   0  0  0  0  0  0  0  0  0  0  0  0
   -6.0808   -1.0686    1.0183 N   0  0  0  0  0  0  0  0  0  0  0  0
   -5.0814   -0.1994    1.5521 C   0  0  0  0  0  0  0  0  0  0  0  0
   -5.3859    0.6342    2.5848 N   0  0  0  0  0  0  0  0  0  0  0  0
   -4.4909    1.4638    3.1357 C   0  0  0  0  0  0  0  0  0  0  0  0
   -3.1991    1.4973    2.6596 C   0  0  0  0  0  0  0  0  0  0  0  0
   -2.1584    2.3886    3.2199 C   0  0  0  0  0  0  0  0  0  0  0  0
   -2.8675    0.6490    1.6009 C   0  0  0  0  0  0  0  0  0  0  0  0
   -1.4892    0.6986    1.1398 C   0  0  0  0  0  0  0  0  0  0  0  0
   -0.7758    1.8017    0.6931 C   0  0  0  0  0  0  0  0  0  0  0  0
    0.4760    1.4003    0.3761 N   0  0  0  0  0  0  0  0  0  0  0  0
    0.6259    0.0825    0.5916 C   0  0  0  0  0  0  0  0  0  0  0  0
    1.6722   -0.7885    0.4415 C   0  0  0  0  0  0  0  0  0  0  0  0
    2.9573   -0.3699   -0.0375 N   0  0  0  0  0  0  0  0  0  0  0  0
    3.9324    0.1316    0.8732 C   0  0  0  0  0  0  0  0  0  0  0  0
    3.5528    0.1679    2.0942 O   0  0  0  0  0  0  0  0  0  0  0  0
    5.2895    0.5892    0.4863 C   0  0  1  0  0  0  0  0  0  0  0  0
    6.3041    0.2235    1.5529 C   0  0  0  0  0  0  0  0  0  0  0  0
    5.6836    0.3063   -0.8369 N   0  0  0  0  0  0  0  0  0  0  0  0
    5.8847   -1.0558   -1.2078 C   0  0  0  0  0  0  0  0  0  0  0  0
    7.3687   -1.2836   -1.4749 C   0  0  0  0  0  0  0  0  0  0  0  0
    8.1949   -0.4129   -0.7014 N   0  0  0  0  0  0  0  0  0  0  0  0
    9.5757   -0.7964   -0.8511 C   0  0  0  0  0  0  0  0  0  0  0  0
    8.0218    0.9539   -1.1604 C   0  0  0  0  0  0  0  0  0  0  0  0
    6.5595    1.2352   -1.4711 C   0  0  1  0  0  0  0  0  0  0  0  0
    6.3442    1.2695   -2.9814 C   0  0  0  0  0  0  0  0  0  0  0  0
    1.4787   -2.1082    0.7710 C   0  0  0  0  0  0  0  0  0  0  0  0
    0.2671   -2.5793    1.2477 C   0  0  0  0  0  0  0  0  0  0  0  0
   -0.7640   -1.6772    1.3886 C   0  0  0  0  0  0  0  0  0  0  0  0
   -0.6043   -0.3614    1.0698 C   0  0  0  0  0  0  0  0  0  0  0  0
   -3.8175   -0.1563    1.0976 N   0  0  0  0  0  0  0  0  0  0  0  0
   -9.8815   -3.6933   -3.0002 H   0  0  0  0  0  0  0  0  0  0  0  0
   -9.8247   -1.9051   -2.5939 H   0  0  0  0  0  0  0  0  0  0  0  0
   -8.2908   -2.8838   -2.7645 H   0  0  0  0  0  0  0  0  0  0  0  0
   -9.4290   -4.3106   -0.7991 H   0  0  0  0  0  0  0  0  0  0  0  0
  -10.4010   -2.7826   -0.5478 H   0  0  0  0  0  0  0  0  0  0  0  0
   -8.9561    2.8755   -0.6310 H   0  0  0  0  0  0  0  0  0  0  0  0
   -8.4692    2.4170   -2.2857 H   0  0  0  0  0  0  0  0  0  0  0  0
  -10.0928    1.8414   -1.6480 H   0  0  0  0  0  0  0  0  0  0  0  0
   -6.7237    1.6584    0.1839 H   0  0  0  0  0  0  0  0  0  0  0  0
   -6.0118   -2.0960    1.2370 H   0  0  0  0  0  0  0  0  0  0  0  0
   -4.7401    2.1297    3.9614 H   0  0  0  0  0  0  0  0  0  0  0  0
   -2.3589    2.5899    4.3098 H   0  0  0  0  0  0  0  0  0  0  0  0
   -2.1027    3.3772    2.7446 H   0  0  0  0  0  0  0  0  0  0  0  0
   -1.1454    1.9254    3.1708 H   0  0  0  0  0  0  0  0  0  0  0  0
   -1.1642    2.8057    0.6158 H   0  0  0  0  0  0  0  0  0  0  0  0
    1.2449    2.0045    0.0107 H   0  0  0  0  0  0  0  0  0  0  0  0
    3.2304   -0.4096   -1.0320 H   0  0  0  0  0  0  0  0  0  0  0  0
    5.2339    1.7207    0.5515 H   0  0  0  0  0  0  0  0  0  0  0  0
    7.2048    0.8651    1.5524 H   0  0  0  0  0  0  0  0  0  0  0  0
    5.7862    0.4768    2.5304 H   0  0  0  0  0  0  0  0  0  0  0  0
    6.6196   -0.8138    1.5472 H   0  0  0  0  0  0  0  0  0  0  0  0
    5.3724   -1.2293   -2.1768 H   0  0  0  0  0  0  0  0  0  0  0  0
    5.5476   -1.7990   -0.4949 H   0  0  0  0  0  0  0  0  0  0  0  0
    7.6030   -2.3316   -1.1884 H   0  0  0  0  0  0  0  0  0  0  0  0
    7.5884   -1.2070   -2.5614 H   0  0  0  0  0  0  0  0  0  0  0  0
    9.7879   -1.1079   -1.8900 H   0  0  0  0  0  0  0  0  0  0  0  0
    9.7850   -1.6261   -0.1307 H   0  0  0  0  0  0  0  0  0  0  0  0
   10.2328    0.0501   -0.5770 H   0  0  0  0  0  0  0  0  0  0  0  0
    8.5853    1.1145   -2.1011 H   0  0  0  0  0  0  0  0  0  0  0  0
    8.3822    1.6354   -0.3774 H   0  0  0  0  0  0  0  0  0  0  0  0
    6.3394    2.2483   -1.0892 H   0  0  0  0  0  0  0  0  0  0  0  0
    7.3617    1.3617   -3.4428 H   0  0  0  0  0  0  0  0  0  0  0  0
    5.7745    2.1458   -3.3211 H   0  0  0  0  0  0  0  0  0  0  0  0
    5.8087    0.3766   -3.3459 H   0  0  0  0  0  0  0  0  0  0  0  0
    2.3129   -2.8048    0.6486 H   0  0  0  0  0  0  0  0  0  0  0  0
    0.1084   -3.6016    1.5047 H   0  0  0  0  0  0  0  0  0  0  0  0
   -1.7154   -2.0660    1.7679 H   0  0  0  0  0  0  0  0  0  0  0  0
  1  2  1  0
  2  3  1  0
  3  4  1  0
  4  5  2  0
  5  6  1  0
  6  7  1  0
  6  8  1  0
  8  9  2  0
  9 10  1  0
 10 11  1  0
 11 12  2  0
 12 13  1  0
 13 14  2  0
 14 15  1  0
 14 16  1  0
 16 17  1  0
 17 18  2  0
 18 19  1  0
 19 20  1  0
 20 21  2  0
 21 22  1  0
 22 23  1  0
 23 24  2  0
 23 25  1  0
 25 26  1  0
 25 27  1  0
 27 28  1  0
 28 29  1  0
 29 30  1  0
 30 31  1  0
 30 32  1  0
 32 33  1  0
 33 34  1  0
 21 35  1  0
 35 36  2  0
 36 37  1  0
 37 38  2  0
 16 39  2  0
  9  4  1  0
 39 11  1  0
 38 17  1  0
 38 20  1  0
 33 27  1  0
  1 40  1  0
  1 41  1  0
  1 42  1  0
  2 43  1  0
  2 44  1  0
  7 45  1  0
  7 46  1  0
  7 47  1  0
  8 48  1  0
 10 49  1  0
 13 50  1  0
 15 51  1  0
 15 52  1  0
 15 53  1  0
 18 54  1  0
 19 55  1  0
 22 56  1  0
 25 57  1  6
 26 58  1  0
 26 59  1  0
 26 60  1  0
 28 61  1  0
 28 62  1  0
 29 63  1  0
 29 64  1  0
 31 65  1  0
 31 66  1  0
 31 67  1  0
 32 68  1  0
 32 69  1  0
 33 70  1  1
 34 71  1  0
 34 72  1  0
 34 73  1  0
 35 74  1  0
 36 75  1  0
 37 76  1  0
M  END
$$$$
