
     RDKit          3D

 50 53  0  0  0  0  0  0  0  0999 V2000
    1.5056   -1.0687   -0.3937 C   0  0  0  0  0  0  0  0  0  0  0  0
    1.7289    0.3291   -0.0831 N   0  0  0  0  0  0  0  0  0  0  0  0
    0.7428    1.2141   -0.6384 C   0  0  2  0  0  0  0  0  0  0  0  0
    0.0281    2.0202    0.4250 C   0  0  0  0  0  0  0  0  0  0  0  0
   -0.8873    1.1513    1.2571 C   0  0  0  0  0  0  0  0  0  0  0  0
   -1.9078    0.5559    0.3461 C   0  0  0  0  0  0  0  0  0  0  0  0
   -1.5661    0.2931   -0.9394 C   0  0  0  0  0  0  0  0  0  0  0  0
   -2.6817   -0.2494   -1.5722 C   0  0  0  0  0  0  0  0  0  0  0  0
   -2.9383   -0.7002   -2.8447 C   0  0  0  0  0  0  0  0  0  0  0  0
   -4.1627   -1.2003   -3.2122 C   0  0  0  0  0  0  0  0  0  0  0  0
   -5.1713   -1.2532   -2.2741 C   0  0  0  0  0  0  0  0  0  0  0  0
   -4.8977   -0.7990   -1.0086 C   0  0  0  0  0  0  0  0  0  0  0  0
   -3.6705   -0.3051   -0.6659 N   0  0  0  0  0  0  0  0  0  0  0  0
   -3.2288    0.1776    0.5091 C   0  0  0  0  0  0  0  0  0  0  0  0
   -4.0055    0.2870    1.7520 C   0  0  0  0  0  0  0  0  0  0  0  0
   -4.4317    1.6863    2.0281 C   0  0  0  0  0  0  0  0  0  0  0  0
   -4.1280    2.6160    1.2479 O   0  0  0  0  0  0  0  0  0  0  0  0
   -5.1690    1.9290    3.1656 O   0  0  0  0  0  0  0  0  0  0  0  0
   -0.2392    0.5483   -1.5323 C   0  0  0  0  0  0  0  0  0  0  0  0
    3.3251    0.7225   -0.5438 S   0  0  0  0  0  6  0  0  0  0  0  0
    3.5601    2.2041   -0.4308 O   0  0  0  0  0  0  0  0  0  0  0  0
    3.4570    0.3862   -2.0200 O   0  0  0  0  0  0  0  0  0  0  0  0
    4.5359   -0.1717    0.2928 C   0  0  0  0  0  0  0  0  0  0  0  0
    5.0384    0.3295    1.4722 C   0  0  0  0  0  0  0  0  0  0  0  0
    6.0163   -0.3789    2.1590 C   0  0  0  0  0  0  0  0  0  0  0  0
    6.5007   -1.5883    1.6792 C   0  0  0  0  0  0  0  0  0  0  0  0
    7.4476   -2.2876    2.3308 F   0  0  0  0  0  0  0  0  0  0  0  0
    5.9803   -2.0644    0.4989 C   0  0  0  0  0  0  0  0  0  0  0  0
    5.0165   -1.3619   -0.1738 C   0  0  0  0  0  0  0  0  0  0  0  0
    1.9225   -1.3551   -1.3732 H   0  0  0  0  0  0  0  0  0  0  0  0
    2.0859   -1.6469    0.3840 H   0  0  0  0  0  0  0  0  0  0  0  0
    0.4547   -1.3727   -0.2417 H   0  0  0  0  0  0  0  0  0  0  0  0
    1.3183    1.9604   -1.2537 H   0  0  0  0  0  0  0  0  0  0  0  0
    0.7330    2.5052    1.1043 H   0  0  0  0  0  0  0  0  0  0  0  0
   -0.5578    2.8097   -0.0777 H   0  0  0  0  0  0  0  0  0  0  0  0
   -0.2986    0.4055    1.7960 H   0  0  0  0  0  0  0  0  0  0  0  0
   -1.4372    1.8137    1.9520 H   0  0  0  0  0  0  0  0  0  0  0  0
   -2.1355   -0.6556   -3.5835 H   0  0  0  0  0  0  0  0  0  0  0  0
   -4.4012   -1.5628   -4.2003 H   0  0  0  0  0  0  0  0  0  0  0  0
   -6.1506   -1.6506   -2.5593 H   0  0  0  0  0  0  0  0  0  0  0  0
   -5.6757   -0.8338   -0.2638 H   0  0  0  0  0  0  0  0  0  0  0  0
   -4.9191   -0.3360    1.6641 H   0  0  0  0  0  0  0  0  0  0  0  0
   -3.4273   -0.1046    2.6257 H   0  0  0  0  0  0  0  0  0  0  0  0
   -5.1778    2.8727    3.5785 H   0  0  0  0  0  0  0  0  0  0  0  0
    0.1655   -0.3750   -1.9941 H   0  0  0  0  0  0  0  0  0  0  0  0
   -0.4386    1.2368   -2.4052 H   0  0  0  0  0  0  0  0  0  0  0  0
    4.7145    1.2631    1.9124 H   0  0  0  0  0  0  0  0  0  0  0  0
    6.4420   -0.0270    3.0892 H   0  0  0  0  0  0  0  0  0  0  0  0
    6.3542   -3.0223    0.1051 H   0  0  0  0  0  0  0  0  0  0  0  0
    4.6307   -1.7578   -1.0896 H   0  0  0  0  0  0  0  0  0  0  0  0
  1  2  1  0
  2  3  1  0
  3  4  1  0
  4  5  1  0
  5  6  1  0
  6  7  1  0
  7  8  2  0
  8  9  1  0
  9 10  2  0
 10 11  1  0
 11 12  2  0
 12 13  1  0
 13 14  1  0
 14 15  1  0
 15 16  1  0
 16 17  2  0
 16 18  1  0
  7 19  1  0
  2 20  1  0
 20 21  2  0
 20 22  2  0
 20 23  1  0
 23 24  2  0
 24 25  1  0
 25 26  2  0
 26 27  1  0
 26 28  1  0
 28 29  2  0
 19  3  1  0
 29 23  1  0
 14  6  2  0
 13  8  1  0
  1 30  1  0
  1 31  1  0
  1 32  1  0
  3 33  1  6
  4 34  1  0
  4 35  1  0
  5 36  1  0
  5 37  1  0
  9 38  1  0
 10 39  1  0
 11 40  1  0
 12 41  1  0
 15 42  1  0
 15 43  1  0
 18 44  1  0
 19 45  1  0
 19 46  1  0
 24 47  1  0
 25 48  1  0
 28 49  1  0
 29 50  1  0
M  END
$$$$
