
     RDKit          3D

 56 60  0  0  0  0  0  0  0  0999 V2000
   -0.5783    3.2915    0.5785 C   0  0  0  0  0  0  0  0  0  0  0  0
   -0.7158    1.7903    0.1946 C   0  0  2  0  0  0  0  0  0  0  0  0
    0.4277    1.1623    0.9348 C   0  0  0  0  0  0  0  0  0  0  0  0
    1.4952    0.7117    0.1989 C   0  0  0  0  0  0  0  0  0  0  0  0
    2.6036    0.1241    0.8077 C   0  0  0  0  0  0  0  0  0  0  0  0
    3.7500   -0.3750    0.0526 C   0  0  0  0  0  0  0  0  0  0  0  0
    4.9845   -0.1714    0.4636 C   0  0  0  0  0  0  0  0  0  0  0  0
    5.1089    0.5324    1.6319 F   0  0  0  0  0  0  0  0  0  0  0  0
    6.1645   -0.6418   -0.2423 C   0  0  0  0  0  0  0  0  0  0  0  0
    6.1036   -1.3371   -1.3969 C   0  0  0  0  0  0  0  0  0  0  0  0
    7.2049   -1.7742   -2.0579 N   0  0  0  0  0  0  0  0  0  0  0  0
    8.4036   -1.5020   -1.5388 C   0  0  0  0  0  0  0  0  0  0  0  0
    9.5541   -1.9646   -2.2557 C   0  0  0  0  0  0  0  0  0  0  0  0
   10.4813   -2.3527   -2.8423 N   0  0  0  0  0  0  0  0  0  0  0  0
    8.4812   -0.7918   -0.3574 C   0  0  0  0  0  0  0  0  0  0  0  0
    7.3793   -0.3704    0.2775 N   0  0  0  0  0  0  0  0  0  0  0  0
    2.5653    0.0233    2.1732 C   0  0  0  0  0  0  0  0  0  0  0  0
    1.4774    0.4826    2.9274 C   0  0  0  0  0  0  0  0  0  0  0  0
    0.3927    1.0595    2.3048 C   0  0  0  0  0  0  0  0  0  0  0  0
   -0.6838    1.5137    3.0310 F   0  0  0  0  0  0  0  0  0  0  0  0
   -0.4325    1.7719   -1.2119 N   0  0  0  0  0  0  0  0  0  0  0  0
   -0.7537    0.8574   -2.0348 C   0  0  0  0  0  0  0  0  0  0  0  0
   -0.4589    0.8679   -3.4125 N   0  0  0  0  0  0  0  0  0  0  0  0
   -1.6635   -0.5361   -1.3662 S   0  0  0  0  0  0  0  0  0  0  0  0
   -2.6826    0.1924   -0.0357 C   0  0  1  0  0  0  0  0  0  0  0  0
   -4.1074    0.3453   -0.4165 C   0  0  0  0  0  0  0  0  0  0  0  0
   -4.3889    1.4395   -1.0059 O   0  0  0  0  0  0  0  0  0  0  0  0
   -5.1139   -0.5973   -0.1775 N   0  0  0  0  0  0  0  0  0  0  0  0
   -6.5115   -0.4581   -0.5402 C   0  0  0  0  0  0  0  0  0  0  0  0
   -7.2238   -0.9349    0.7144 C   0  0  0  0  0  0  0  0  0  0  0  0
   -6.2708   -1.9493    1.2923 C   0  0  1  0  0  0  0  0  0  0  0  0
   -6.8359   -3.2119    1.2849 F   0  0  0  0  0  0  0  0  0  0  0  0
   -5.0075   -1.8906    0.4646 C   0  0  0  0  0  0  0  0  0  0  0  0
   -2.2258    0.0144    1.3376 C   0  0  0  0  0  0  0  0  0  0  0  0
   -2.0311    1.3069    0.6428 C   0  0  1  0  0  0  0  0  0  0  0  0
   -1.4166    3.7993    0.0466 H   0  0  0  0  0  0  0  0  0  0  0  0
   -0.6327    3.4035    1.6661 H   0  0  0  0  0  0  0  0  0  0  0  0
    0.3724    3.6948    0.1871 H   0  0  0  0  0  0  0  0  0  0  0  0
    1.5345    0.7854   -0.8831 H   0  0  0  0  0  0  0  0  0  0  0  0
    3.5849   -0.9363   -0.8870 H   0  0  0  0  0  0  0  0  0  0  0  0
    5.1565   -1.5972   -1.8762 H   0  0  0  0  0  0  0  0  0  0  0  0
    9.4928   -0.5993    0.0226 H   0  0  0  0  0  0  0  0  0  0  0  0
    3.3998   -0.4347    2.7112 H   0  0  0  0  0  0  0  0  0  0  0  0
    1.4915    0.3812    4.0092 H   0  0  0  0  0  0  0  0  0  0  0  0
    0.5526    0.7077   -3.6849 H   0  0  0  0  0  0  0  0  0  0  0  0
   -1.1239    1.0157   -4.1901 H   0  0  0  0  0  0  0  0  0  0  0  0
   -6.7571    0.5857   -0.7988 H   0  0  0  0  0  0  0  0  0  0  0  0
   -6.7951   -1.0996   -1.4064 H   0  0  0  0  0  0  0  0  0  0  0  0
   -8.2002   -1.3465    0.4259 H   0  0  0  0  0  0  0  0  0  0  0  0
   -7.3121   -0.0304    1.3837 H   0  0  0  0  0  0  0  0  0  0  0  0
   -5.9904   -1.6684    2.3429 H   0  0  0  0  0  0  0  0  0  0  0  0
   -5.0247   -2.7224   -0.2880 H   0  0  0  0  0  0  0  0  0  0  0  0
   -4.0953   -1.9227    1.0943 H   0  0  0  0  0  0  0  0  0  0  0  0
   -1.3949   -0.7019    1.4989 H   0  0  0  0  0  0  0  0  0  0  0  0
   -2.9969   -0.0595    2.1310 H   0  0  0  0  0  0  0  0  0  0  0  0
   -2.7371    2.1180    0.9989 H   0  0  0  0  0  0  0  0  0  0  0  0
  2  1  1  1
  2  3  1  0
  3  4  2  0
  4  5  1  0
  5  6  1  0
  6  7  2  0
  7  8  1  0
  7  9  1  0
  9 10  2  0
 10 11  1  0
 11 12  2  0
 12 13  1  0
 13 14  3  0
 12 15  1  0
 15 16  2  0
  5 17  2  0
 17 18  1  0
 18 19  2  0
 19 20  1  0
  2 21  1  0
 21 22  2  0
 22 23  1  0
 22 24  1  0
 24 25  1  0
 25 26  1  1
 26 27  2  0
 26 28  1  0
 28 29  1  0
 29 30  1  0
 30 31  1  0
 31 32  1  0
 31 33  1  0
 25 34  1  0
 34 35  1  0
 35  2  1  0
 19  3  1  0
 35 25  1  0
 16  9  1  0
 33 28  1  0
  1 36  1  0
  1 37  1  0
  1 38  1  0
  4 39  1  0
  6 40  1  0
 10 41  1  0
 15 42  1  0
 17 43  1  0
 18 44  1  0
 23 45  1  0
 23 46  1  0
 29 47  1  0
 29 48  1  0
 30 49  1  0
 30 50  1  0
 31 51  1  1
 33 52  1  0
 33 53  1  0
 34 54  1  0
 34 55  1  0
 35 56  1  1
M  END
$$$$
