
     RDKit          3D

 28 27  0  0  0  0  0  0  0  0999 V2000
    4.7611   -0.4988    0.6272 N   0  0  0  0  0  0  0  0  0  0  0  0
    3.8210    0.5332    0.9444 C   0  0  0  0  0  0  0  0  0  0  0  0
    3.7957    1.5762    1.6934 N   0  0  0  0  0  0  0  0  0  0  0  0
    2.5842    0.3065    0.2295 N   0  0  0  0  0  0  0  0  0  0  0  0
    1.6035    1.3026   -0.1433 C   0  0  0  0  0  0  0  0  0  0  0  0
    0.3909    0.6859   -0.8617 C   0  0  0  0  0  0  0  0  0  0  0  0
   -0.2861   -0.5243    0.2920 S   0  0  0  0  0  0  0  0  0  0  0  0
   -1.7517   -1.3835   -0.2969 C   0  0  1  0  0  0  0  0  0  0  0  0
   -2.6756   -1.4529    0.9093 C   0  0  0  0  0  0  0  0  0  0  0  0
   -2.9608   -0.0691    1.3365 C   0  0  0  0  0  0  0  0  0  0  0  0
   -2.7312    0.6235    2.5417 O   0  0  0  0  0  0  0  0  0  0  0  0
   -3.5152    0.4492    0.3041 O   0  0  0  0  0  0  0  0  0  0  0  0
   -2.4680   -0.6587   -1.3738 C   0  0  0  0  0  0  0  0  0  0  0  0
   -3.6341   -1.2230   -1.8279 O   0  0  0  0  0  0  0  0  0  0  0  0
   -2.1412    0.4294   -1.9395 O   0  0  0  0  0  0  0  0  0  0  0  0
    4.5549   -1.4990    0.7959 H   0  0  0  0  0  0  0  0  0  0  0  0
    5.6893   -0.3409    0.2216 H   0  0  0  0  0  0  0  0  0  0  0  0
    3.0035    2.2182    1.7951 H   0  0  0  0  0  0  0  0  0  0  0  0
    2.3110   -0.6639   -0.0825 H   0  0  0  0  0  0  0  0  0  0  0  0
    2.1093    1.9898   -0.8765 H   0  0  0  0  0  0  0  0  0  0  0  0
    1.3442    1.9208    0.7071 H   0  0  0  0  0  0  0  0  0  0  0  0
    0.7649    0.2690   -1.7905 H   0  0  0  0  0  0  0  0  0  0  0  0
   -0.3312    1.5026   -1.0297 H   0  0  0  0  0  0  0  0  0  0  0  0
   -1.5503   -2.4046   -0.6483 H   0  0  0  0  0  0  0  0  0  0  0  0
   -3.5844   -2.0364    0.6962 H   0  0  0  0  0  0  0  0  0  0  0  0
   -2.0485   -1.9186    1.7133 H   0  0  0  0  0  0  0  0  0  0  0  0
   -2.8803    1.6077    2.5659 H   0  0  0  0  0  0  0  0  0  0  0  0
   -4.1751   -0.7407   -2.5251 H   0  0  0  0  0  0  0  0  0  0  0  0
  1  2  1  0
  2  3  2  3
  2  4  1  0
  4  5  1  0
  5  6  1  0
  6  7  1  0
  7  8  1  0
  8  9  1  0
  9 10  1  0
 10 11  1  0
 10 12  2  0
  8 13  1  0
 13 14  1  0
 13 15  2  0
  1 16  1  0
  1 17  1  0
  3 18  1  0
  4 19  1  0
  5 20  1  0
  5 21  1  0
  6 22  1  0
  6 23  1  0
  8 24  1  6
  9 25  1  0
  9 26  1  0
 11 27  1  0
 14 28  1  0
M  END
$$$$
