
     RDKit          3D

 31 34  0  0  0  0  0  0  0  0999 V2000
    5.1278   -1.5253    1.0915 F   0  0  0  0  0  0  0  0  0  0  0  0
    4.2281   -0.7125    0.4802 C   0  0  0  0  0  0  0  0  0  0  0  0
    4.7107    0.4594   -0.0648 C   0  0  0  0  0  0  0  0  0  0  0  0
    3.8264    1.2691   -0.6720 N   0  0  0  0  0  0  0  0  0  0  0  0
    2.4975    0.9736   -0.7631 C   0  0  0  0  0  0  0  0  0  0  0  0
    1.9826   -0.1679   -0.2398 C   0  0  0  0  0  0  0  0  0  0  0  0
    0.5645   -0.5311   -0.2845 C   0  0  0  0  0  0  0  0  0  0  0  0
    0.1295   -1.6874   -0.8452 N   0  0  0  0  0  0  0  0  0  0  0  0
   -1.1890   -1.7288   -0.6811 C   0  0  0  0  0  0  0  0  0  0  0  0
   -2.1328   -2.6914   -1.0668 C   0  0  0  0  0  0  0  0  0  0  0  0
   -3.4600   -2.5011   -0.7772 C   0  0  0  0  0  0  0  0  0  0  0  0
   -4.4077   -3.4099   -1.1334 F   0  0  0  0  0  0  0  0  0  0  0  0
   -3.9008   -1.3806   -0.1110 C   0  0  0  0  0  0  0  0  0  0  0  0
   -5.5709   -1.0657    0.2941 Cl  0  0  0  0  0  0  0  0  0  0  0  0
   -2.9221   -0.4588    0.2478 C   0  0  0  0  0  0  0  0  0  0  0  0
   -1.6104   -0.6495   -0.0399 N   0  0  0  0  0  0  0  0  0  0  0  0
   -0.4930    0.1320    0.2239 C   0  0  0  0  0  0  0  0  0  0  0  0
   -0.6710    1.3834    0.9567 C   0  0  0  0  0  0  0  0  0  0  0  0
   -1.1336    2.5302    0.0081 C   0  0  0  0  0  0  0  0  0  0  0  0
    0.0620    2.6246    0.9287 C   0  0  0  0  0  0  0  0  0  0  0  0
    2.8849   -1.0279    0.3976 C   0  0  0  0  0  0  0  0  0  0  0  0
    5.7701    0.7202   -0.0059 H   0  0  0  0  0  0  0  0  0  0  0  0
    1.8534    1.6779   -1.2881 H   0  0  0  0  0  0  0  0  0  0  0  0
   -1.7951   -3.5692   -1.5876 H   0  0  0  0  0  0  0  0  0  0  0  0
   -3.2622    0.4115    0.7648 H   0  0  0  0  0  0  0  0  0  0  0  0
   -1.3672    1.2392    1.8521 H   0  0  0  0  0  0  0  0  0  0  0  0
   -0.9613    2.4097   -1.0677 H   0  0  0  0  0  0  0  0  0  0  0  0
   -2.0900    3.0005    0.2545 H   0  0  0  0  0  0  0  0  0  0  0  0
    1.0158    2.8845    0.5001 H   0  0  0  0  0  0  0  0  0  0  0  0
   -0.1929    3.3386    1.8024 H   0  0  0  0  0  0  0  0  0  0  0  0
    2.5069   -1.9474    0.8254 H   0  0  0  0  0  0  0  0  0  0  0  0
  1  2  1  0
  2  3  2  0
  3  4  1  0
  4  5  2  0
  5  6  1  0
  6  7  1  0
  7  8  1  0
  8  9  2  0
  9 10  1  0
 10 11  2  0
 11 12  1  0
 11 13  1  0
 13 14  1  0
 13 15  2  0
 15 16  1  0
 16 17  1  0
 17 18  1  0
 18 19  1  0
 19 20  1  0
  6 21  2  0
 21  2  1  0
 17  7  2  0
 20 18  1  0
 16  9  1  0
  3 22  1  0
  5 23  1  0
 10 24  1  0
 15 25  1  0
 18 26  1  0
 19 27  1  0
 19 28  1  0
 20 29  1  0
 20 30  1  0
 21 31  1  0
M  END
$$$$
