
     RDKit          3D

 32 34  0  0  0  0  0  0  0  0999 V2000
    2.9872    0.0204   -1.2111 C   0  0  0  0  0  0  0  0  0  0  0  0
    3.7988   -0.1633   -0.0296 N   0  0  0  0  0  0  0  0  0  0  0  0
    4.3700    0.7278    0.7980 C   0  0  0  0  0  0  0  0  0  0  0  0
    5.0656    0.0586    1.8111 C   0  0  0  0  0  0  0  0  0  0  0  0
    4.8847   -1.2503    1.5513 N   0  0  0  0  0  0  0  0  0  0  0  0
    4.1237   -1.3761    0.4456 C   0  0  0  0  0  0  0  0  0  0  0  0
    1.5416    0.0917   -0.8848 C   0  0  0  0  0  0  0  0  0  0  0  0
    0.7472   -1.0347   -0.8617 C   0  0  0  0  0  0  0  0  0  0  0  0
   -0.6135   -0.9913   -0.5600 C   0  0  0  0  0  0  0  0  0  0  0  0
   -1.2227    0.2344   -0.2649 C   0  0  0  0  0  0  0  0  0  0  0  0
   -0.4499    1.3683   -0.2820 C   0  0  0  0  0  0  0  0  0  0  0  0
    0.9025    1.2777   -0.5879 C   0  0  0  0  0  0  0  0  0  0  0  0
   -2.6490    0.2145    0.0351 C   0  0  0  0  0  0  0  0  0  0  0  0
   -3.3698   -0.7553   -0.6313 C   0  0  0  0  0  0  0  0  0  0  0  0
   -4.7451   -0.9141   -0.4585 C   0  0  0  0  0  0  0  0  0  0  0  0
   -5.4166   -0.0766    0.4073 C   0  0  0  0  0  0  0  0  0  0  0  0
   -4.7012    0.9090    1.0887 C   0  0  0  0  0  0  0  0  0  0  0  0
   -3.3224    1.0476    0.8975 C   0  0  0  0  0  0  0  0  0  0  0  0
    3.1220   -0.8534   -1.9122 H   0  0  0  0  0  0  0  0  0  0  0  0
    3.3228    0.8987   -1.8106 H   0  0  0  0  0  0  0  0  0  0  0  0
    4.2932    1.7999    0.6825 H   0  0  0  0  0  0  0  0  0  0  0  0
    5.6344    0.4788    2.6364 H   0  0  0  0  0  0  0  0  0  0  0  0
    3.8260   -2.3413    0.0155 H   0  0  0  0  0  0  0  0  0  0  0  0
    1.1764   -1.9976   -1.0819 H   0  0  0  0  0  0  0  0  0  0  0  0
   -1.1558   -1.9273   -0.5639 H   0  0  0  0  0  0  0  0  0  0  0  0
   -0.9318    2.3121   -0.0511 H   0  0  0  0  0  0  0  0  0  0  0  0
    1.4602    2.1981   -0.5866 H   0  0  0  0  0  0  0  0  0  0  0  0
   -2.9708   -1.4866   -1.3476 H   0  0  0  0  0  0  0  0  0  0  0  0
   -5.3270   -1.6838   -0.9859 H   0  0  0  0  0  0  0  0  0  0  0  0
   -6.4820   -0.1591    0.5752 H   0  0  0  0  0  0  0  0  0  0  0  0
   -5.1750    1.5895    1.7766 H   0  0  0  0  0  0  0  0  0  0  0  0
   -2.7237    1.7835    1.3904 H   0  0  0  0  0  0  0  0  0  0  0  0
  1  2  1  0
  2  3  1  0
  3  4  2  0
  4  5  1  0
  5  6  2  0
  1  7  1  0
  7  8  2  0
  8  9  1  0
  9 10  2  0
 10 11  1  0
 11 12  2  0
 10 13  1  0
 13 14  2  0
 14 15  1  0
 15 16  2  0
 16 17  1  0
 17 18  2  0
  6  2  1  0
 12  7  1  0
 18 13  1  0
  1 19  1  0
  1 20  1  0
  3 21  1  0
  4 22  1  0
  6 23  1  0
  8 24  1  0
  9 25  1  0
 11 26  1  0
 12 27  1  0
 14 28  1  0
 15 29  1  0
 16 30  1  0
 17 31  1  0
 18 32  1  0
M  END
$$$$
