
     RDKit          3D

 52 54  0  0  0  0  0  0  0  0999 V2000
   -2.8943   -1.2199   -0.5260 C   0  0  0  0  0  0  0  0  0  0  0  0
   -1.7536   -2.0718   -0.2018 C   0  0  0  0  0  0  0  0  0  0  0  0
   -1.5405   -3.2098   -0.9838 C   0  0  0  0  0  0  0  0  0  0  0  0
   -0.4905   -4.0350   -0.7403 C   0  0  0  0  0  0  0  0  0  0  0  0
    0.3835   -3.7482    0.2962 C   0  0  0  0  0  0  0  0  0  0  0  0
    1.4170   -4.5656    0.5323 F   0  0  0  0  0  0  0  0  0  0  0  0
    0.1417   -2.6013    1.0602 C   0  0  0  0  0  0  0  0  0  0  0  0
   -0.8972   -1.7632    0.8378 C   0  0  0  0  0  0  0  0  0  0  0  0
   -1.1916   -0.5910    1.6462 C   0  0  0  0  0  0  0  0  0  0  0  0
   -0.9326    0.6934    0.9408 N   0  0  0  0  0  0  0  0  0  0  0  0
   -1.6035    1.8204    1.4453 C   0  0  0  0  0  0  0  0  0  0  0  0
   -2.2815    1.7171    2.6816 C   0  0  0  0  0  0  0  0  0  0  0  0
   -3.0163    2.7675    3.1679 C   0  0  0  0  0  0  0  0  0  0  0  0
   -3.1438    3.9653    2.5070 C   0  0  0  0  0  0  0  0  0  0  0  0
   -3.9469    5.0425    3.0538 C   0  0  0  0  0  0  0  0  0  0  0  0
   -4.5790    5.8863    3.5043 N   0  0  0  0  0  0  0  0  0  0  0  0
   -2.4975    4.0853    1.3125 C   0  0  0  0  0  0  0  0  0  0  0  0
   -2.6221    5.5947    0.4026 Cl  0  0  0  0  0  0  0  0  0  0  0  0
   -1.7477    3.0295    0.8040 C   0  0  0  0  0  0  0  0  0  0  0  0
   -0.0055    0.6060   -0.0659 C   0  0  1  0  0  0  0  0  0  0  0  0
    0.3572    1.6514   -1.0399 C   0  0  0  0  0  0  0  0  0  0  0  0
    1.5889    0.9319   -1.6862 C   0  0  0  0  0  0  0  0  0  0  0  0
    2.0800    0.0202   -0.6950 N   0  0  0  0  0  0  0  0  0  0  0  0
    2.9617   -1.0779   -0.7695 C   0  0  0  0  0  0  0  0  0  0  0  0
    3.2612   -1.7505    0.2608 O   0  0  0  0  0  0  0  0  0  0  0  0
    3.6154   -1.5559   -2.0058 C   0  0  2  0  0  0  0  0  0  0  0  0
    5.1133   -1.4995   -1.7828 C   0  0  0  0  0  0  0  0  0  0  0  0
    3.3102   -0.8412   -3.1241 O   0  0  0  0  0  0  0  0  0  0  0  0
    1.4549    0.4557    0.5287 C   0  0  0  0  0  0  0  0  0  0  0  0
   -2.5928   -0.6074   -1.4166 H   0  0  0  0  0  0  0  0  0  0  0  0
   -3.7447   -1.8479   -0.9258 H   0  0  0  0  0  0  0  0  0  0  0  0
   -3.3195   -0.6221    0.2732 H   0  0  0  0  0  0  0  0  0  0  0  0
   -2.2289   -3.4247   -1.7880 H   0  0  0  0  0  0  0  0  0  0  0  0
   -0.3327   -4.9262   -1.3595 H   0  0  0  0  0  0  0  0  0  0  0  0
    0.8668   -2.4361    1.8588 H   0  0  0  0  0  0  0  0  0  0  0  0
   -0.5699   -0.6564    2.5698 H   0  0  0  0  0  0  0  0  0  0  0  0
   -2.2492   -0.5376    1.9708 H   0  0  0  0  0  0  0  0  0  0  0  0
   -2.2445    0.8428    3.2926 H   0  0  0  0  0  0  0  0  0  0  0  0
   -3.5424    2.6805    4.1304 H   0  0  0  0  0  0  0  0  0  0  0  0
   -1.2980    3.1997   -0.1510 H   0  0  0  0  0  0  0  0  0  0  0  0
   -0.0874   -0.3716   -0.6452 H   0  0  0  0  0  0  0  0  0  0  0  0
    0.7523    2.6016   -0.6315 H   0  0  0  0  0  0  0  0  0  0  0  0
   -0.3836    1.8087   -1.8115 H   0  0  0  0  0  0  0  0  0  0  0  0
    1.2909    0.4767   -2.6335 H   0  0  0  0  0  0  0  0  0  0  0  0
    2.3364    1.7228   -1.8501 H   0  0  0  0  0  0  0  0  0  0  0  0
    3.3429   -2.6390   -2.1116 H   0  0  0  0  0  0  0  0  0  0  0  0
    5.4515   -2.3305   -1.1206 H   0  0  0  0  0  0  0  0  0  0  0  0
    5.3232   -0.5116   -1.2912 H   0  0  0  0  0  0  0  0  0  0  0  0
    5.6144   -1.4899   -2.7553 H   0  0  0  0  0  0  0  0  0  0  0  0
    3.7697    0.0323   -3.1096 H   0  0  0  0  0  0  0  0  0  0  0  0
    1.4826   -0.1931    1.3726 H   0  0  0  0  0  0  0  0  0  0  0  0
    1.8221    1.4926    0.7296 H   0  0  0  0  0  0  0  0  0  0  0  0
  1  2  1  0
  2  3  2  0
  3  4  1  0
  4  5  2  0
  5  6  1  0
  5  7  1  0
  7  8  2  0
  8  9  1  0
  9 10  1  0
 10 11  1  0
 11 12  2  0
 12 13  1  0
 13 14  2  0
 14 15  1  0
 15 16  3  0
 14 17  1  0
 17 18  1  0
 17 19  2  0
 10 20  1  0
 20 21  1  0
 21 22  1  0
 22 23  1  0
 23 24  1  0
 24 25  2  0
 24 26  1  0
 26 27  1  0
 26 28  1  0
 23 29  1  0
  8  2  1  0
 19 11  1  0
 29 20  1  0
  1 30  1  0
  1 31  1  0
  1 32  1  0
  3 33  1  0
  4 34  1  0
  7 35  1  0
  9 36  1  0
  9 37  1  0
 12 38  1  0
 13 39  1  0
 19 40  1  0
 20 41  1  6
 21 42  1  0
 21 43  1  0
 22 44  1  0
 22 45  1  0
 26 46  1  6
 27 47  1  0
 27 48  1  0
 27 49  1  0
 28 50  1  0
 29 51  1  0
 29 52  1  0
M  END
$$$$
