
     RDKit          3D

 18 19  0  0  0  0  0  0  0  0999 V2000
   -1.4255   -2.5676   -0.0739 O   0  0  0  0  0  0  0  0  0  0  0  0
   -1.2454   -1.1881   -0.0670 C   0  0  0  0  0  0  0  0  0  0  0  0
   -2.3434   -0.3522   -0.0926 C   0  0  0  0  0  0  0  0  0  0  0  0
   -2.2102    1.0284   -0.0869 C   0  0  0  0  0  0  0  0  0  0  0  0
   -0.9232    1.5246   -0.0543 C   0  0  0  0  0  0  0  0  0  0  0  0
   -0.7326    3.2654   -0.0465 Cl  0  0  0  0  0  0  0  0  0  0  0  0
    0.1827    0.6922   -0.0285 C   0  0  0  0  0  0  0  0  0  0  0  0
    1.4694    1.1960    0.0041 C   0  0  0  0  0  0  0  0  0  0  0  0
    2.5625    0.3485    0.0296 C   0  0  0  0  0  0  0  0  0  0  0  0
    2.3851   -1.0217    0.0228 C   0  0  0  0  0  0  0  0  0  0  0  0
    1.1207   -1.4785   -0.0092 N   0  0  0  0  0  0  0  0  0  0  0  0
    0.0387   -0.6786   -0.0344 C   0  0  0  0  0  0  0  0  0  0  0  0
   -0.8249   -3.1003    0.5555 H   0  0  0  0  0  0  0  0  0  0  0  0
   -3.3576   -0.7270   -0.1183 H   0  0  0  0  0  0  0  0  0  0  0  0
   -3.0787    1.6723   -0.1071 H   0  0  0  0  0  0  0  0  0  0  0  0
    1.5609    2.2766    0.0083 H   0  0  0  0  0  0  0  0  0  0  0  0
    3.5663    0.7788    0.0551 H   0  0  0  0  0  0  0  0  0  0  0  0
    3.2552   -1.6688    0.0431 H   0  0  0  0  0  0  0  0  0  0  0  0
  1  2  1  0
  2  3  2  0
  3  4  1  0
  4  5  2  0
  5  6  1  0
  5  7  1  0
  7  8  2  0
  8  9  1  0
  9 10  2  0
 10 11  1  0
 11 12  2  0
 12  2  1  0
 12  7  1  0
  1 13  1  0
  3 14  1  0
  4 15  1  0
  8 16  1  0
  9 17  1  0
 10 18  1  0
M  END
$$$$
