
     RDKit          3D

 37 39  0  0  0  0  0  0  0  0999 V2000
    6.4291    0.0159    0.3244 O   0  0  0  0  0  0  0  0  0  0  0  0
    5.5668   -1.0898    0.3153 C   0  0  0  0  0  0  0  0  0  0  0  0
    6.2641   -2.1415    0.3597 O   0  0  0  0  0  0  0  0  0  0  0  0
    4.0833   -1.1694    0.2651 C   0  0  0  0  0  0  0  0  0  0  0  0
    3.5041    0.2321    0.2055 C   0  0  0  0  0  0  0  0  0  0  0  0
    2.0084    0.1754    0.1617 C   0  0  0  0  0  0  0  0  0  0  0  0
    1.1901    1.2547    0.1029 N   0  0  0  0  0  0  0  0  0  0  0  0
   -0.0897    0.7811    0.0800 C   0  0  0  0  0  0  0  0  0  0  0  0
   -0.0118   -0.5705    0.1252 C   0  0  0  0  0  0  0  0  0  0  0  0
    1.2723   -0.8901    0.1736 O   0  0  0  0  0  0  0  0  0  0  0  0
   -1.1976   -1.4055    0.1161 C   0  0  0  0  0  0  0  0  0  0  0  0
   -1.2343   -2.2189   -1.0195 C   0  0  0  0  0  0  0  0  0  0  0  0
   -2.2922   -3.1041   -1.2244 C   0  0  0  0  0  0  0  0  0  0  0  0
   -3.3300   -3.2067   -0.3213 C   0  0  0  0  0  0  0  0  0  0  0  0
   -3.2660   -2.3893    0.7928 C   0  0  0  0  0  0  0  0  0  0  0  0
   -2.2339   -1.5082    1.0179 C   0  0  0  0  0  0  0  0  0  0  0  0
   -1.1506    1.7770    0.0251 C   0  0  0  0  0  0  0  0  0  0  0  0
   -1.3674    2.5280   -1.1231 C   0  0  0  0  0  0  0  0  0  0  0  0
   -2.3513    3.4898   -1.2362 C   0  0  0  0  0  0  0  0  0  0  0  0
   -3.1642    3.7166   -0.1465 C   0  0  0  0  0  0  0  0  0  0  0  0
   -3.0098    3.0099    1.0293 C   0  0  0  0  0  0  0  0  0  0  0  0
   -2.0085    2.0687    1.0663 C   0  0  0  0  0  0  0  0  0  0  0  0
    7.1321    0.0373   -0.4011 H   0  0  0  0  0  0  0  0  0  0  0  0
    3.8477   -1.6608   -0.7204 H   0  0  0  0  0  0  0  0  0  0  0  0
    3.6260   -1.7269    1.0777 H   0  0  0  0  0  0  0  0  0  0  0  0
    3.8738    0.7231   -0.7173 H   0  0  0  0  0  0  0  0  0  0  0  0
    3.8264    0.8401    1.0638 H   0  0  0  0  0  0  0  0  0  0  0  0
   -0.5094   -2.2624   -1.8152 H   0  0  0  0  0  0  0  0  0  0  0  0
   -2.3696   -3.7553   -2.0844 H   0  0  0  0  0  0  0  0  0  0  0  0
   -4.1668   -3.8841   -0.4506 H   0  0  0  0  0  0  0  0  0  0  0  0
   -4.0430   -2.4103    1.5483 H   0  0  0  0  0  0  0  0  0  0  0  0
   -2.1126   -0.8431    1.8576 H   0  0  0  0  0  0  0  0  0  0  0  0
   -0.7211    2.3455   -1.9856 H   0  0  0  0  0  0  0  0  0  0  0  0
   -2.5068    4.0661   -2.1392 H   0  0  0  0  0  0  0  0  0  0  0  0
   -3.9495    4.4713   -0.2092 H   0  0  0  0  0  0  0  0  0  0  0  0
   -3.6405    3.1750    1.8988 H   0  0  0  0  0  0  0  0  0  0  0  0
   -1.8977    1.5295    1.9868 H   0  0  0  0  0  0  0  0  0  0  0  0
  1  2  1  0
  2  3  2  0
  2  4  1  0
  4  5  1  0
  5  6  1  0
  6  7  2  0
  7  8  1  0
  8  9  2  0
  9 10  1  0
  9 11  1  0
 11 12  2  0
 12 13  1  0
 13 14  2  0
 14 15  1  0
 15 16  2  0
  8 17  1  0
 17 18  2  0
 18 19  1  0
 19 20  2  0
 20 21  1  0
 21 22  2  0
 10  6  1  0
 16 11  1  0
 22 17  1  0
  1 23  1  0
  4 24  1  0
  4 25  1  0
  5 26  1  0
  5 27  1  0
 12 28  1  0
 13 29  1  0
 14 30  1  0
 15 31  1  0
 16 32  1  0
 18 33  1  0
 19 34  1  0
 20 35  1  0
 21 36  1  0
 22 37  1  0
M  END
$$$$
