
     RDKit          3D

 58 62  0  0  0  0  0  0  0  0999 V2000
    2.0348   -3.8556    0.4331 C   0  0  0  0  0  0  0  0  0  0  0  0
    0.8633   -3.2302   -0.0549 O   0  0  0  0  0  0  0  0  0  0  0  0
    0.9793   -1.9127   -0.4904 C   0  0  0  0  0  0  0  0  0  0  0  0
    2.1725   -1.2264   -0.4580 C   0  0  0  0  0  0  0  0  0  0  0  0
    2.3501    0.0748   -0.8739 C   0  0  0  0  0  0  0  0  0  0  0  0
    3.5640    0.7477   -0.8263 C   0  0  0  0  0  0  0  0  0  0  0  0
    4.7060    0.0653   -0.3629 N   0  0  0  0  0  0  0  0  0  0  0  0
    5.9908    0.6431   -0.1073 C   0  0  0  0  0  0  0  0  0  0  0  0
    6.2992    1.9617   -0.2511 C   0  0  0  0  0  0  0  0  0  0  0  0
    7.5936    2.4478    0.0154 C   0  0  0  0  0  0  0  0  0  0  0  0
    7.9323    4.1603   -0.1877 Cl  0  0  0  0  0  0  0  0  0  0  0  0
    8.6022    1.6174    0.4315 C   0  0  0  0  0  0  0  0  0  0  0  0
   10.2022    2.2541    0.7559 Cl  0  0  0  0  0  0  0  0  0  0  0  0
    8.2959    0.2850    0.5783 C   0  0  0  0  0  0  0  0  0  0  0  0
    7.0307   -0.1954    0.3187 C   0  0  0  0  0  0  0  0  0  0  0  0
    6.7362   -1.5141    0.4671 F   0  0  0  0  0  0  0  0  0  0  0  0
    3.6166    2.0233   -1.2554 N   0  0  0  0  0  0  0  0  0  0  0  0
    2.5389    2.6556   -1.7234 C   0  0  0  0  0  0  0  0  0  0  0  0
    1.3426    2.0059   -1.7756 N   0  0  0  0  0  0  0  0  0  0  0  0
    1.2243    0.7400   -1.3649 C   0  0  0  0  0  0  0  0  0  0  0  0
    0.0094    0.0672   -1.4076 C   0  0  0  0  0  0  0  0  0  0  0  0
   -0.1415   -1.2327   -0.9855 C   0  0  0  0  0  0  0  0  0  0  0  0
   -1.3029   -1.9401   -1.0005 O   0  0  0  0  0  0  0  0  0  0  0  0
   -2.5884   -1.6661   -1.3609 C   0  0  0  0  0  0  0  0  0  0  0  0
   -3.2126   -0.6024   -0.4915 C   0  0  1  0  0  0  0  0  0  0  0  0
   -4.6426   -0.3180   -0.9235 C   0  0  0  0  0  0  0  0  0  0  0  0
   -5.5295   -0.7631    0.2038 C   0  0  2  0  0  0  0  0  0  0  0  0
   -6.6080    0.2473    0.5374 C   0  0  0  0  0  0  0  0  0  0  0  0
   -6.0475    1.1823    1.4763 N   0  0  0  0  0  0  0  0  0  0  0  0
   -6.2033    2.5091    0.9218 C   0  0  0  0  0  0  0  0  0  0  0  0
   -4.6249    0.8959    1.5768 C   0  0  0  0  0  0  0  0  0  0  0  0
   -4.6048   -0.5931    1.4181 C   0  0  2  0  0  0  0  0  0  0  0  0
   -3.3182   -1.1642    0.9373 C   0  0  0  0  0  0  0  0  0  0  0  0
    2.5021   -3.2648    1.2600 H   0  0  0  0  0  0  0  0  0  0  0  0
    2.7942   -3.8307   -0.3982 H   0  0  0  0  0  0  0  0  0  0  0  0
    1.8254   -4.8937    0.7639 H   0  0  0  0  0  0  0  0  0  0  0  0
    3.0148   -1.7945   -0.0589 H   0  0  0  0  0  0  0  0  0  0  0  0
    4.6015   -0.9846   -0.1997 H   0  0  0  0  0  0  0  0  0  0  0  0
    5.5637    2.6732   -0.5677 H   0  0  0  0  0  0  0  0  0  0  0  0
    9.0828   -0.3844    0.9054 H   0  0  0  0  0  0  0  0  0  0  0  0
    2.6394    3.6779   -2.0535 H   0  0  0  0  0  0  0  0  0  0  0  0
   -0.8060    0.6462   -1.8171 H   0  0  0  0  0  0  0  0  0  0  0  0
   -3.2059   -2.6151   -1.3288 H   0  0  0  0  0  0  0  0  0  0  0  0
   -2.6951   -1.3461   -2.4360 H   0  0  0  0  0  0  0  0  0  0  0  0
   -2.6177    0.3145   -0.4892 H   0  0  0  0  0  0  0  0  0  0  0  0
   -4.8546   -0.8923   -1.8427 H   0  0  0  0  0  0  0  0  0  0  0  0
   -4.7437    0.7875   -1.1009 H   0  0  0  0  0  0  0  0  0  0  0  0
   -5.8958   -1.7857    0.1105 H   0  0  0  0  0  0  0  0  0  0  0  0
   -7.0042    0.7151   -0.3657 H   0  0  0  0  0  0  0  0  0  0  0  0
   -7.4014   -0.3247    1.0853 H   0  0  0  0  0  0  0  0  0  0  0  0
   -6.2585    3.2677    1.7165 H   0  0  0  0  0  0  0  0  0  0  0  0
   -5.3882    2.7781    0.2313 H   0  0  0  0  0  0  0  0  0  0  0  0
   -7.1786    2.4995    0.3687 H   0  0  0  0  0  0  0  0  0  0  0  0
   -4.2112    1.1977    2.5571 H   0  0  0  0  0  0  0  0  0  0  0  0
   -4.1109    1.3976    0.7499 H   0  0  0  0  0  0  0  0  0  0  0  0
   -5.0312   -1.0906    2.3072 H   0  0  0  0  0  0  0  0  0  0  0  0
   -3.4442   -2.2505    0.8250 H   0  0  0  0  0  0  0  0  0  0  0  0
   -2.4370   -0.8672    1.5345 H   0  0  0  0  0  0  0  0  0  0  0  0
  1  2  1  0
  2  3  1  0
  3  4  2  0
  4  5  1  0
  5  6  2  0
  6  7  1  0
  7  8  1  0
  8  9  2  0
  9 10  1  0
 10 11  1  0
 10 12  2  0
 12 13  1  0
 12 14  1  0
 14 15  2  0
 15 16  1  0
  6 17  1  0
 17 18  2  0
 18 19  1  0
 19 20  2  0
 20 21  1  0
 21 22  2  0
 22 23  1  0
 23 24  1  0
 24 25  1  0
 25 26  1  0
 26 27  1  0
 27 28  1  0
 28 29  1  0
 29 30  1  0
 29 31  1  0
 31 32  1  0
 32 33  1  0
 22  3  1  0
 33 25  1  0
 20  5  1  0
 32 27  1  0
 15  8  1  0
  1 34  1  0
  1 35  1  0
  1 36  1  0
  4 37  1  0
  7 38  1  0
  9 39  1  0
 14 40  1  0
 18 41  1  0
 21 42  1  0
 24 43  1  0
 24 44  1  0
 25 45  1  1
 26 46  1  0
 26 47  1  0
 27 48  1  6
 28 49  1  0
 28 50  1  0
 30 51  1  0
 30 52  1  0
 30 53  1  0
 31 54  1  0
 31 55  1  0
 32 56  1  1
 33 57  1  0
 33 58  1  0
M  END
$$$$
