
     RDKit          3D

 31 32  0  0  0  0  0  0  0  0999 V2000
   -5.2901    0.1044    0.7551 C   0  0  0  0  0  0  0  0  0  0  0  0
   -3.8460    0.4290    0.7804 C   0  0  0  0  0  0  0  0  0  0  0  0
   -3.4328    1.4202    1.4253 O   0  0  0  0  0  0  0  0  0  0  0  0
   -2.9055   -0.4100    0.0513 C   0  0  0  0  0  0  0  0  0  0  0  0
   -3.3720   -1.5038   -0.6589 C   0  0  0  0  0  0  0  0  0  0  0  0
   -2.4778   -2.2760   -1.3340 C   0  0  0  0  0  0  0  0  0  0  0  0
   -1.1125   -1.9990   -1.3313 C   0  0  0  0  0  0  0  0  0  0  0  0
   -0.6424   -0.9137   -0.6277 C   0  0  0  0  0  0  0  0  0  0  0  0
    0.7355   -0.6388   -0.6282 O   0  0  0  0  0  0  0  0  0  0  0  0
    1.1574    0.4799    0.1060 C   0  0  0  0  0  0  0  0  0  0  0  0
    2.6101    0.6954    0.0527 C   0  0  0  0  0  0  0  0  0  0  0  0
    3.1906    1.4795   -0.9284 C   0  0  0  0  0  0  0  0  0  0  0  0
    4.5540    1.6967   -0.9990 C   0  0  0  0  0  0  0  0  0  0  0  0
    5.3914    1.1197   -0.0655 C   0  0  0  0  0  0  0  0  0  0  0  0
    7.1309    1.3940   -0.1516 Cl  0  0  0  0  0  0  0  0  0  0  0  0
    4.8428    0.3260    0.9342 C   0  0  0  0  0  0  0  0  0  0  0  0
    3.4782    0.1291    0.9767 C   0  0  0  0  0  0  0  0  0  0  0  0
   -1.5523   -0.1418    0.0495 C   0  0  0  0  0  0  0  0  0  0  0  0
   -5.9045    0.9439    1.1335 H   0  0  0  0  0  0  0  0  0  0  0  0
   -5.5939   -0.0801   -0.2943 H   0  0  0  0  0  0  0  0  0  0  0  0
   -5.4920   -0.8234    1.3650 H   0  0  0  0  0  0  0  0  0  0  0  0
   -4.4274   -1.7218   -0.6637 H   0  0  0  0  0  0  0  0  0  0  0  0
   -2.8349   -3.1264   -1.8870 H   0  0  0  0  0  0  0  0  0  0  0  0
   -0.4595   -2.6553   -1.8899 H   0  0  0  0  0  0  0  0  0  0  0  0
    0.6055    1.3662   -0.2919 H   0  0  0  0  0  0  0  0  0  0  0  0
    0.8147    0.3413    1.1645 H   0  0  0  0  0  0  0  0  0  0  0  0
    2.5079    1.9289   -1.6605 H   0  0  0  0  0  0  0  0  0  0  0  0
    4.9902    2.3228   -1.7870 H   0  0  0  0  0  0  0  0  0  0  0  0
    5.5216   -0.1143    1.6532 H   0  0  0  0  0  0  0  0  0  0  0  0
    3.0335   -0.4890    1.7522 H   0  0  0  0  0  0  0  0  0  0  0  0
   -1.2208    0.7163    0.6116 H   0  0  0  0  0  0  0  0  0  0  0  0
  1  2  1  0
  2  3  2  0
  2  4  1  0
  4  5  2  0
  5  6  1  0
  6  7  2  0
  7  8  1  0
  8  9  1  0
  9 10  1  0
 10 11  1  0
 11 12  2  0
 12 13  1  0
 13 14  2  0
 14 15  1  0
 14 16  1  0
 16 17  2  0
  8 18  2  0
 18  4  1  0
 17 11  1  0
  1 19  1  0
  1 20  1  0
  1 21  1  0
  5 22  1  0
  6 23  1  0
  7 24  1  0
 10 25  1  0
 10 26  1  0
 12 27  1  0
 13 28  1  0
 16 29  1  0
 17 30  1  0
 18 31  1  0
M  END
$$$$
