
     RDKit          3D

 48 49  0  0  0  0  0  0  0  0999 V2000
   -3.8513    0.4961   -2.3115 C   0  0  0  0  0  0  0  0  0  0  0  0
   -3.2366    0.4718   -1.0411 O   0  0  0  0  0  0  0  0  0  0  0  0
   -1.8624    0.5822   -0.9706 C   0  0  0  0  0  0  0  0  0  0  0  0
   -1.1185    0.7179   -2.1493 C   0  0  0  0  0  0  0  0  0  0  0  0
    0.2505    0.8307   -2.1035 C   0  0  0  0  0  0  0  0  0  0  0  0
    0.8683    0.8078   -0.8743 C   0  0  0  0  0  0  0  0  0  0  0  0
    2.3192    0.9249   -0.7652 C   0  0  0  0  0  0  0  0  0  0  0  0
    3.4980    1.0358   -0.6820 C   0  0  0  0  0  0  0  0  0  0  0  0
    4.9789    1.1950   -0.5605 C   0  0  0  0  0  0  0  0  0  0  0  0
    5.3621    1.1323    0.8739 C   0  0  0  0  0  0  0  0  0  0  0  0
    5.0340   -0.1545    1.5229 C   0  0  0  0  0  0  0  0  0  0  0  0
    5.6899   -1.3825    1.0371 C   0  0  0  0  0  0  0  0  0  0  0  0
    5.4527   -1.8254   -0.3278 C   0  0  0  0  0  0  0  0  0  0  0  0
    4.3230   -2.0057   -0.8502 O   0  0  0  0  0  0  0  0  0  0  0  0
    6.5273   -2.1012   -1.2167 O   0  0  0  0  0  0  0  0  0  0  0  0
    0.1237    0.6737    0.2782 C   0  0  0  0  0  0  0  0  0  0  0  0
   -1.2545    0.5579    0.2562 C   0  0  0  0  0  0  0  0  0  0  0  0
   -2.0155    0.4016    1.4857 C   0  0  0  0  0  0  0  0  0  0  0  0
   -3.4437    0.1343    1.3633 C   0  0  0  0  0  0  0  0  0  0  0  0
   -4.3505    1.1526    1.5982 C   0  0  0  0  0  0  0  0  0  0  0  0
   -5.6709    0.9319    1.5028 N   0  0  0  0  0  0  0  0  0  0  0  0
   -6.1703   -0.2791    1.1772 C   0  0  0  0  0  0  0  0  0  0  0  0
   -7.5867   -0.5167    1.0773 N   0  0  0  0  0  0  0  0  0  0  0  0
   -5.2851   -1.2614    0.9507 N   0  0  0  0  0  0  0  0  0  0  0  0
   -3.9608   -1.1044    1.0297 C   0  0  0  0  0  0  0  0  0  0  0  0
   -3.0359   -2.1498    0.7865 N   0  0  0  0  0  0  0  0  0  0  0  0
   -3.5149    1.4342   -2.8103 H   0  0  0  0  0  0  0  0  0  0  0  0
   -4.9362    0.3980   -2.2711 H   0  0  0  0  0  0  0  0  0  0  0  0
   -3.3926   -0.3503   -2.9044 H   0  0  0  0  0  0  0  0  0  0  0  0
   -1.5939    0.7376   -3.1184 H   0  0  0  0  0  0  0  0  0  0  0  0
    0.8134    0.9339   -3.0290 H   0  0  0  0  0  0  0  0  0  0  0  0
    5.2340    2.2345   -0.9310 H   0  0  0  0  0  0  0  0  0  0  0  0
    5.4239    0.4321   -1.2133 H   0  0  0  0  0  0  0  0  0  0  0  0
    6.4071    1.4771    1.0620 H   0  0  0  0  0  0  0  0  0  0  0  0
    4.7330    1.9314    1.3881 H   0  0  0  0  0  0  0  0  0  0  0  0
    3.9023   -0.2930    1.4494 H   0  0  0  0  0  0  0  0  0  0  0  0
    5.1806   -0.0883    2.6392 H   0  0  0  0  0  0  0  0  0  0  0  0
    6.7950   -1.3703    1.2845 H   0  0  0  0  0  0  0  0  0  0  0  0
    5.3158   -2.2280    1.7041 H   0  0  0  0  0  0  0  0  0  0  0  0
    6.4316   -1.8582   -2.1916 H   0  0  0  0  0  0  0  0  0  0  0  0
    0.6444    0.6608    1.2330 H   0  0  0  0  0  0  0  0  0  0  0  0
   -1.8905    1.2817    2.1913 H   0  0  0  0  0  0  0  0  0  0  0  0
   -1.5861   -0.4490    2.1173 H   0  0  0  0  0  0  0  0  0  0  0  0
   -3.9821    2.1562    1.8679 H   0  0  0  0  0  0  0  0  0  0  0  0
   -7.9980   -0.6292    0.1482 H   0  0  0  0  0  0  0  0  0  0  0  0
   -8.1781   -0.5735    1.9245 H   0  0  0  0  0  0  0  0  0  0  0  0
   -3.2532   -2.8596    0.0585 H   0  0  0  0  0  0  0  0  0  0  0  0
   -2.1402   -2.2439    1.3060 H   0  0  0  0  0  0  0  0  0  0  0  0
  1  2  1  0
  2  3  1  0
  3  4  2  0
  4  5  1  0
  5  6  2  0
  6  7  1  0
  7  8  3  0
  8  9  1  0
  9 10  1  0
 10 11  1  0
 11 12  1  0
 12 13  1  0
 13 14  2  0
 13 15  1  0
  6 16  1  0
 16 17  2  0
 17 18  1  0
 18 19  1  0
 19 20  2  0
 20 21  1  0
 21 22  2  0
 22 23  1  0
 22 24  1  0
 24 25  2  0
 25 26  1  0
 17  3  1  0
 25 19  1  0
  1 27  1  0
  1 28  1  0
  1 29  1  0
  4 30  1  0
  5 31  1  0
  9 32  1  0
  9 33  1  0
 10 34  1  0
 10 35  1  0
 11 36  1  0
 11 37  1  0
 12 38  1  0
 12 39  1  0
 15 40  1  0
 16 41  1  0
 18 42  1  0
 18 43  1  0
 20 44  1  0
 23 45  1  0
 23 46  1  0
 26 47  1  0
 26 48  1  0
M  END
$$$$
