
     RDKit          3D

 41 43  0  0  0  0  0  0  0  0999 V2000
   -2.5741   -2.2585    1.9628 N   0  0  0  0  0  0  0  0  0  0  0  0
   -1.5112   -1.4419    1.3925 C   0  0  0  0  0  0  0  0  0  0  0  0
   -0.4568   -2.3125    1.2208 N   0  0  0  0  0  0  0  0  0  0  0  0
    0.5624   -1.5750    0.6828 C   0  0  0  0  0  0  0  0  0  0  0  0
    1.8441   -1.9929    0.2680 N   0  0  0  0  0  0  0  0  0  0  0  0
    3.0733   -1.3877    0.0240 C   0  0  0  0  0  0  0  0  0  0  0  0
    3.4106   -0.1952    0.6324 C   0  0  0  0  0  0  0  0  0  0  0  0
    4.6238    0.4290    0.4366 C   0  0  0  0  0  0  0  0  0  0  0  0
    5.5370   -0.1756   -0.4097 C   0  0  0  0  0  0  0  0  0  0  0  0
    5.2055   -1.3558   -1.0158 C   0  0  0  0  0  0  0  0  0  0  0  0
    3.9952   -1.9729   -0.8162 C   0  0  0  0  0  0  0  0  0  0  0  0
    7.0982    0.5634   -0.6433 S   0  0  0  0  0  0  0  0  0  0  0  0
    6.9250    1.8516   -1.7758 N   0  0  0  0  0  0  0  0  0  0  0  0
    7.6333    1.1399    0.6329 O   0  0  0  0  0  0  0  0  0  0  0  0
    8.0748   -0.4112   -1.2542 O   0  0  0  0  0  0  0  0  0  0  0  0
    0.1281   -0.3016    0.5387 N   0  0  0  0  0  0  0  0  0  0  0  0
   -1.1399   -0.1965    0.9636 N   0  0  0  0  0  0  0  0  0  0  0  0
   -2.3865    0.4950    1.1962 C   0  0  0  0  0  0  0  0  0  0  0  0
   -2.7514    1.2644    2.5867 S   0  0  0  0  0  0  0  0  0  0  0  0
   -3.3060    0.4619    0.0921 N   0  0  0  0  0  0  0  0  0  0  0  0
   -4.6181    1.0190   -0.0697 C   0  0  0  0  0  0  0  0  0  0  0  0
   -5.5366    0.1846   -0.7214 C   0  0  0  0  0  0  0  0  0  0  0  0
   -5.1611   -1.0702   -1.1465 F   0  0  0  0  0  0  0  0  0  0  0  0
   -6.8597    0.5746   -0.9684 C   0  0  0  0  0  0  0  0  0  0  0  0
   -7.2367    1.8270   -0.5437 C   0  0  0  0  0  0  0  0  0  0  0  0
   -6.3345    2.6375    0.0926 C   0  0  0  0  0  0  0  0  0  0  0  0
   -5.0205    2.2660    0.3449 C   0  0  0  0  0  0  0  0  0  0  0  0
   -4.1143    3.0535    0.9642 F   0  0  0  0  0  0  0  0  0  0  0  0
   -3.1138   -2.9170    1.3372 H   0  0  0  0  0  0  0  0  0  0  0  0
   -2.6926   -2.0793    3.0026 H   0  0  0  0  0  0  0  0  0  0  0  0
    1.8407   -3.0429    0.1035 H   0  0  0  0  0  0  0  0  0  0  0  0
    2.7480    0.3310    1.3057 H   0  0  0  0  0  0  0  0  0  0  0  0
    4.9112    1.3803    0.9102 H   0  0  0  0  0  0  0  0  0  0  0  0
    5.9744   -1.7735   -1.6726 H   0  0  0  0  0  0  0  0  0  0  0  0
    3.7814   -2.9163   -1.3223 H   0  0  0  0  0  0  0  0  0  0  0  0
    6.7467    2.7390   -1.2256 H   0  0  0  0  0  0  0  0  0  0  0  0
    6.1096    1.6356   -2.3842 H   0  0  0  0  0  0  0  0  0  0  0  0
   -2.9922   -0.0511   -0.7879 H   0  0  0  0  0  0  0  0  0  0  0  0
   -7.4946   -0.1307   -1.4708 H   0  0  0  0  0  0  0  0  0  0  0  0
   -8.2629    2.0926   -0.7475 H   0  0  0  0  0  0  0  0  0  0  0  0
   -6.6595    3.6122    0.4151 H   0  0  0  0  0  0  0  0  0  0  0  0
  1  2  1  0
  2  3  2  0
  3  4  1  0
  4  5  1  0
  5  6  1  0
  6  7  2  0
  7  8  1  0
  8  9  2  0
  9 10  1  0
 10 11  2  0
  9 12  1  0
 12 13  1  0
 12 14  2  0
 12 15  2  0
  4 16  2  0
 16 17  1  0
 17 18  1  0
 18 19  2  0
 18 20  1  0
 20 21  1  0
 21 22  2  0
 22 23  1  0
 22 24  1  0
 24 25  2  0
 25 26  1  0
 26 27  2  0
 27 28  1  0
 17  2  1  0
 27 21  1  0
 11  6  1  0
  1 29  1  0
  1 30  1  0
  5 31  1  0
  7 32  1  0
  8 33  1  0
 10 34  1  0
 11 35  1  0
 13 36  1  0
 13 37  1  0
 20 38  1  0
 24 39  1  0
 25 40  1  0
 26 41  1  0
M  END
$$$$
