
     RDKit          3D

 61 64  0  0  0  0  0  0  0  0999 V2000
   -6.2661    2.1215   -0.0523 O   0  0  0  0  0  0  0  0  0  0  0  0
   -6.4444    0.9961   -0.8189 C   0  0  0  0  0  0  0  0  0  0  0  0
   -5.8828   -0.2647   -0.1871 C   0  0  0  0  0  0  0  0  0  0  0  0
   -6.4920   -0.5944    1.1300 C   0  0  0  0  0  0  0  0  0  0  0  0
   -7.0376   -1.8995    1.1474 O   0  0  0  0  0  0  0  0  0  0  0  0
   -5.5840   -0.4941    2.3089 C   0  0  0  0  0  0  0  0  0  0  0  0
   -5.0094   -1.7180    2.6560 O   0  0  0  0  0  0  0  0  0  0  0  0
   -4.4548    0.4879    2.1283 C   0  0  0  0  0  0  0  0  0  0  0  0
   -3.5941    0.2988    3.2352 O   0  0  0  0  0  0  0  0  0  0  0  0
   -3.7188    0.1221    0.9021 C   0  0  0  0  0  0  0  0  0  0  0  0
   -2.4082    0.0589    0.6071 N   0  0  0  0  0  0  0  0  0  0  0  0
   -2.2675   -0.3337   -0.6607 C   0  0  0  0  0  0  0  0  0  0  0  0
   -1.0201   -0.5523   -1.4491 C   0  0  0  0  0  0  0  0  0  0  0  0
   -0.6775    0.7628   -2.1158 C   0  0  0  0  0  0  0  0  0  0  0  0
    0.5790    0.6616   -2.9487 C   0  0  0  0  0  0  0  0  0  0  0  0
    1.7110    0.2653   -2.0476 C   0  0  0  0  0  0  0  0  0  0  0  0
    2.4812    1.2048   -1.4087 C   0  0  0  0  0  0  0  0  0  0  0  0
    3.5388    0.9022   -0.5652 C   0  0  0  0  0  0  0  0  0  0  0  0
    3.8374   -0.4084   -0.3536 C   0  0  0  0  0  0  0  0  0  0  0  0
    4.9498   -0.8547    0.5102 C   0  0  0  0  0  0  0  0  0  0  0  0
    5.0883   -0.1375    1.7967 C   0  0  0  0  0  0  0  0  0  0  0  0
    6.1031    0.9404    1.8805 C   0  0  0  0  0  0  0  0  0  0  0  0
    7.3369    0.6594    1.0976 C   0  0  0  0  0  0  0  0  0  0  0  0
    6.9381    0.3162   -0.3371 C   0  0  0  0  0  0  0  0  0  0  0  0
    6.2123   -0.9787   -0.2934 C   0  0  0  0  0  0  0  0  0  0  0  0
    3.0767   -1.3918   -0.9856 C   0  0  0  0  0  0  0  0  0  0  0  0
    2.0257   -1.0574   -1.8229 C   0  0  0  0  0  0  0  0  0  0  0  0
   -3.5301   -0.5143   -1.1505 C   0  0  0  0  0  0  0  0  0  0  0  0
   -4.4355   -0.2362   -0.1956 N   0  0  0  0  0  0  0  0  0  0  0  0
   -6.0001    2.8776   -0.6639 H   0  0  0  0  0  0  0  0  0  0  0  0
   -5.9385    1.0832   -1.8186 H   0  0  0  0  0  0  0  0  0  0  0  0
   -7.5224    0.8770   -1.0488 H   0  0  0  0  0  0  0  0  0  0  0  0
   -6.1720   -1.0947   -0.8975 H   0  0  0  0  0  0  0  0  0  0  0  0
   -7.3908    0.0755    1.2509 H   0  0  0  0  0  0  0  0  0  0  0  0
   -6.8428   -2.3112    0.2666 H   0  0  0  0  0  0  0  0  0  0  0  0
   -6.1826   -0.1744    3.1893 H   0  0  0  0  0  0  0  0  0  0  0  0
   -4.4012   -2.0403    1.9418 H   0  0  0  0  0  0  0  0  0  0  0  0
   -4.7645    1.5388    2.1737 H   0  0  0  0  0  0  0  0  0  0  0  0
   -4.0552   -0.1001    3.9949 H   0  0  0  0  0  0  0  0  0  0  0  0
   -0.2378   -0.9098   -0.7809 H   0  0  0  0  0  0  0  0  0  0  0  0
   -1.2124   -1.3154   -2.2065 H   0  0  0  0  0  0  0  0  0  0  0  0
   -1.5314    1.0869   -2.7432 H   0  0  0  0  0  0  0  0  0  0  0  0
   -0.5358    1.5334   -1.3309 H   0  0  0  0  0  0  0  0  0  0  0  0
    0.7938    1.6419   -3.3789 H   0  0  0  0  0  0  0  0  0  0  0  0
    0.4765   -0.0793   -3.7475 H   0  0  0  0  0  0  0  0  0  0  0  0
    2.2713    2.2504   -1.5550 H   0  0  0  0  0  0  0  0  0  0  0  0
    4.1139    1.6669   -0.0785 H   0  0  0  0  0  0  0  0  0  0  0  0
    4.6963   -1.9403    0.7764 H   0  0  0  0  0  0  0  0  0  0  0  0
    4.0824    0.2250    2.1097 H   0  0  0  0  0  0  0  0  0  0  0  0
    5.3655   -0.8961    2.5925 H   0  0  0  0  0  0  0  0  0  0  0  0
    6.4125    1.0428    2.9599 H   0  0  0  0  0  0  0  0  0  0  0  0
    5.7565    1.9580    1.6079 H   0  0  0  0  0  0  0  0  0  0  0  0
    7.9234   -0.1665    1.5378 H   0  0  0  0  0  0  0  0  0  0  0  0
    7.9385    1.5987    1.0207 H   0  0  0  0  0  0  0  0  0  0  0  0
    6.3002    1.1000   -0.7424 H   0  0  0  0  0  0  0  0  0  0  0  0
    7.8748    0.2589   -0.9586 H   0  0  0  0  0  0  0  0  0  0  0  0
    6.8706   -1.7788    0.1397 H   0  0  0  0  0  0  0  0  0  0  0  0
    5.9156   -1.2722   -1.3242 H   0  0  0  0  0  0  0  0  0  0  0  0
    3.2884   -2.4419   -0.8379 H   0  0  0  0  0  0  0  0  0  0  0  0
    1.4480   -1.8252   -2.3034 H   0  0  0  0  0  0  0  0  0  0  0  0
   -3.7960   -0.8310   -2.1462 H   0  0  0  0  0  0  0  0  0  0  0  0
  1  2  1  0
  2  3  1  0
  3  4  1  0
  4  5  1  0
  4  6  1  0
  6  7  1  0
  6  8  1  0
  8  9  1  0
  8 10  1  0
 10 11  2  0
 11 12  1  0
 12 13  1  0
 13 14  1  0
 14 15  1  0
 15 16  1  0
 16 17  2  0
 17 18  1  0
 18 19  2  0
 19 20  1  0
 20 21  1  0
 21 22  1  0
 22 23  1  0
 23 24  1  0
 24 25  1  0
 19 26  1  0
 26 27  2  0
 12 28  2  0
 28 29  1  0
 29  3  1  0
 29 10  1  0
 27 16  1  0
 25 20  1  0
  1 30  1  0
  2 31  1  0
  2 32  1  0
  3 33  1  0
  4 34  1  0
  5 35  1  0
  6 36  1  0
  7 37  1  0
  8 38  1  0
  9 39  1  0
 13 40  1  0
 13 41  1  0
 14 42  1  0
 14 43  1  0
 15 44  1  0
 15 45  1  0
 17 46  1  0
 18 47  1  0
 20 48  1  0
 21 49  1  0
 21 50  1  0
 22 51  1  0
 22 52  1  0
 23 53  1  0
 23 54  1  0
 24 55  1  0
 24 56  1  0
 25 57  1  0
 25 58  1  0
 26 59  1  0
 27 60  1  0
 28 61  1  0
M  END
$$$$
