
     RDKit          3D

 41 44  0  0  0  0  0  0  0  0999 V2000
    6.0557   -0.4107    2.2393 C   0  0  0  0  0  0  0  0  0  0  0  0
    5.4544   -0.8365    1.0597 O   0  0  0  0  0  0  0  0  0  0  0  0
    4.2809   -0.2739    0.5864 C   0  0  0  0  0  0  0  0  0  0  0  0
    3.6703    0.7322    1.2798 C   0  0  0  0  0  0  0  0  0  0  0  0
    2.4820    1.2939    0.7837 C   0  0  0  0  0  0  0  0  0  0  0  0
    1.9254    0.8365   -0.3999 C   0  0  0  0  0  0  0  0  0  0  0  0
    0.7171    1.4333   -0.9437 N   0  0  0  0  0  0  0  0  0  0  0  0
    0.2255    0.8351   -2.1321 C   0  0  0  0  0  0  0  0  0  0  0  0
    0.8407    0.8809   -3.3547 N   0  0  0  0  0  0  0  0  0  0  0  0
    0.1078    0.2360   -4.2389 N   0  0  0  0  0  0  0  0  0  0  0  0
   -0.9858   -0.2317   -3.5984 C   0  0  0  0  0  0  0  0  0  0  0  0
   -2.0076   -0.9280   -4.0702 N   0  0  0  0  0  0  0  0  0  0  0  0
   -3.0100   -1.2839   -3.2413 C   0  0  0  0  0  0  0  0  0  0  0  0
   -2.9547   -0.9286   -1.9570 N   0  0  0  0  0  0  0  0  0  0  0  0
   -1.9749   -0.2312   -1.3816 C   0  0  0  0  0  0  0  0  0  0  0  0
   -1.9316    0.1431   -0.0342 N   0  0  0  0  0  0  0  0  0  0  0  0
   -2.9960   -0.0733    0.8566 C   0  0  0  0  0  0  0  0  0  0  0  0
   -2.9686    0.5986    2.0911 C   0  0  0  0  0  0  0  0  0  0  0  0
   -3.9404    0.4717    3.0455 C   0  0  0  0  0  0  0  0  0  0  0  0
   -5.0250   -0.3465    2.8360 C   0  0  0  0  0  0  0  0  0  0  0  0
   -5.0845   -1.0154    1.6491 C   0  0  0  0  0  0  0  0  0  0  0  0
   -6.4403   -2.0682    1.3230 Cl  0  0  0  0  0  0  0  0  0  0  0  0
   -4.0826   -0.8860    0.6605 C   0  0  0  0  0  0  0  0  0  0  0  0
   -0.9381    0.1330   -2.2599 C   0  0  0  0  0  0  0  0  0  0  0  0
    2.5652   -0.1824   -1.0788 C   0  0  0  0  0  0  0  0  0  0  0  0
    3.7328   -0.7391   -0.5981 C   0  0  0  0  0  0  0  0  0  0  0  0
    7.1131   -0.8138    2.2467 H   0  0  0  0  0  0  0  0  0  0  0  0
    6.0649    0.6890    2.3677 H   0  0  0  0  0  0  0  0  0  0  0  0
    5.4992   -0.8431    3.0924 H   0  0  0  0  0  0  0  0  0  0  0  0
    4.0663    1.1262    2.2134 H   0  0  0  0  0  0  0  0  0  0  0  0
    1.9662    2.0901    1.3010 H   0  0  0  0  0  0  0  0  0  0  0  0
    0.3243    2.2395   -0.4446 H   0  0  0  0  0  0  0  0  0  0  0  0
    1.7462    1.3599   -3.5091 H   0  0  0  0  0  0  0  0  0  0  0  0
   -3.8263   -1.8476   -3.6468 H   0  0  0  0  0  0  0  0  0  0  0  0
   -1.0587    0.5941    0.3496 H   0  0  0  0  0  0  0  0  0  0  0  0
   -2.1205    1.2546    2.2762 H   0  0  0  0  0  0  0  0  0  0  0  0
   -3.8986    0.9995    3.9887 H   0  0  0  0  0  0  0  0  0  0  0  0
   -5.8197   -0.4668    3.5828 H   0  0  0  0  0  0  0  0  0  0  0  0
   -4.1914   -1.4495   -0.2512 H   0  0  0  0  0  0  0  0  0  0  0  0
    2.1440   -0.5533   -2.0089 H   0  0  0  0  0  0  0  0  0  0  0  0
    4.2730   -1.5378   -1.0979 H   0  0  0  0  0  0  0  0  0  0  0  0
  1  2  1  0
  2  3  1  0
  3  4  2  0
  4  5  1  0
  5  6  2  0
  6  7  1  0
  7  8  1  0
  8  9  1  0
  9 10  1  0
 10 11  2  0
 11 12  1  0
 12 13  2  0
 13 14  1  0
 14 15  2  0
 15 16  1  0
 16 17  1  0
 17 18  2  0
 18 19  1  0
 19 20  2  0
 20 21  1  0
 21 22  1  0
 21 23  2  0
 15 24  1  0
  6 25  1  0
 25 26  2  0
 26  3  1  0
 24  8  2  0
 24 11  1  0
 23 17  1  0
  1 27  1  0
  1 28  1  0
  1 29  1  0
  4 30  1  0
  5 31  1  0
  7 32  1  0
  9 33  1  0
 13 34  1  0
 16 35  1  0
 18 36  1  0
 19 37  1  0
 20 38  1  0
 23 39  1  0
 25 40  1  0
 26 41  1  0
M  END
$$$$
