
     RDKit          3D

 26 28  0  0  0  0  0  0  0  0999 V2000
   -4.2682   -0.1976   -0.3098 C   0  0  0  0  0  0  0  0  0  0  0  0
   -3.3844    0.9938   -0.1016 C   0  0  0  0  0  0  0  0  0  0  0  0
   -1.9964    0.5537   -0.1917 N   0  0  0  0  0  0  0  0  0  0  0  0
   -0.6511    0.7706   -0.7501 C   0  0  0  0  0  0  0  0  0  0  0  0
    0.1448    0.4523    0.4792 C   0  0  1  0  0  0  0  0  0  0  0  0
   -0.5771   -0.6912    0.9884 N   0  0  0  0  0  0  0  0  0  0  0  0
   -1.7819   -0.6125    0.5981 C   0  0  0  0  0  0  0  0  0  0  0  0
   -3.3827   -1.4656    0.6838 S   0  0  0  0  0  0  0  0  0  0  0  0
    1.5383    0.0574    0.2085 C   0  0  0  0  0  0  0  0  0  0  0  0
    2.3056    0.3381   -0.8867 C   0  0  0  0  0  0  0  0  0  0  0  0
    3.6119   -0.1223   -0.9692 C   0  0  0  0  0  0  0  0  0  0  0  0
    4.1902   -0.8738    0.0343 C   0  0  0  0  0  0  0  0  0  0  0  0
    3.3990   -1.1555    1.1489 C   0  0  0  0  0  0  0  0  0  0  0  0
    2.0862   -0.7016    1.2486 C   0  0  0  0  0  0  0  0  0  0  0  0
   -4.4146   -0.4964   -1.3435 H   0  0  0  0  0  0  0  0  0  0  0  0
   -5.2118    0.0048    0.2611 H   0  0  0  0  0  0  0  0  0  0  0  0
   -3.5529    1.6832   -0.9632 H   0  0  0  0  0  0  0  0  0  0  0  0
   -3.6130    1.5566    0.8018 H   0  0  0  0  0  0  0  0  0  0  0  0
   -0.5221    1.8094   -1.1008 H   0  0  0  0  0  0  0  0  0  0  0  0
   -0.4927    0.0532   -1.5727 H   0  0  0  0  0  0  0  0  0  0  0  0
    0.0621    1.3151    1.1685 H   0  0  0  0  0  0  0  0  0  0  0  0
    1.7898    0.9234   -1.6204 H   0  0  0  0  0  0  0  0  0  0  0  0
    4.1167    0.1598   -1.8747 H   0  0  0  0  0  0  0  0  0  0  0  0
    5.1997   -1.2098   -0.0669 H   0  0  0  0  0  0  0  0  0  0  0  0
    3.8408   -1.7506    1.9556 H   0  0  0  0  0  0  0  0  0  0  0  0
    1.5639   -0.9878    2.1747 H   0  0  0  0  0  0  0  0  0  0  0  0
  1  2  1  0
  2  3  1  0
  3  4  1  0
  4  5  1  0
  5  6  1  0
  6  7  2  0
  7  8  1  0
  5  9  1  0
  9 10  2  0
 10 11  1  0
 11 12  2  0
 12 13  1  0
 13 14  2  0
  8  1  1  0
 14  9  1  0
  7  3  1  0
  1 15  1  0
  1 16  1  0
  2 17  1  0
  2 18  1  0
  4 19  1  0
  4 20  1  0
  5 21  1  1
 10 22  1  0
 11 23  1  0
 12 24  1  0
 13 25  1  0
 14 26  1  0
M  END
$$$$
