
     RDKit          3D

 64 67  0  0  0  0  0  0  0  0999 V2000
   -6.3400   -0.9462    0.6855 C   0  0  0  0  0  0  0  0  0  0  0  0
   -5.6167    0.0125    0.8566 C   0  0  0  0  0  0  0  0  0  0  0  0
   -4.7716    1.1286    1.0344 C   0  0  0  0  0  0  0  0  0  0  0  0
   -4.2793    1.1685    2.5090 C   0  0  0  0  0  0  0  0  0  0  0  0
   -5.7695    2.3666    1.0895 C   0  0  0  0  0  0  0  0  0  0  0  0
   -3.7781    1.5283    0.0835 C   0  0  0  0  0  0  0  0  0  0  0  0
   -2.6158    0.7364   -0.3579 C   0  0  2  0  0  0  0  0  0  0  0  0
   -2.8506   -0.5507   -1.0096 C   0  0  0  0  0  0  0  0  0  0  0  0
   -2.8335   -1.7743   -0.4042 C   0  0  0  0  0  0  0  0  0  0  0  0
   -3.0546   -2.9134   -1.1474 C   0  0  0  0  0  0  0  0  0  0  0  0
   -3.2941   -2.8693   -2.5006 C   0  0  0  0  0  0  0  0  0  0  0  0
   -3.3144   -1.6508   -3.1358 C   0  0  0  0  0  0  0  0  0  0  0  0
   -3.0918   -0.5182   -2.3689 C   0  0  0  0  0  0  0  0  0  0  0  0
   -1.6504    0.5152    0.7822 C   0  0  0  0  0  0  0  0  0  0  0  0
   -0.2356    0.2286    0.3043 C   0  0  0  0  0  0  0  0  0  0  0  0
    0.1928    1.5103   -0.2882 N   0  0  0  0  0  0  0  0  0  0  0  0
    1.3511    2.1976    0.2090 C   0  0  1  0  0  0  0  0  0  0  0  0
    1.1203    2.5883    1.6734 C   0  0  0  0  0  0  0  0  0  0  0  0
    2.5154    1.2870    0.2026 C   0  0  0  0  0  0  0  0  0  0  0  0
    3.4546    1.2286    1.2408 C   0  0  0  0  0  0  0  0  0  0  0  0
    4.5061    0.3348    1.1735 C   0  0  0  0  0  0  0  0  0  0  0  0
    4.6800   -0.5153    0.1213 C   0  0  0  0  0  0  0  0  0  0  0  0
    5.7805   -1.4766    0.0132 C   0  0  0  0  0  0  0  0  0  0  0  0
    5.5917   -2.6625   -0.6503 C   0  0  0  0  0  0  0  0  0  0  0  0
    6.6342   -3.5539   -0.7519 C   0  0  0  0  0  0  0  0  0  0  0  0
    7.8645   -3.2574   -0.1891 C   0  0  0  0  0  0  0  0  0  0  0  0
    8.8545   -4.0667   -0.2688 O   0  0  0  0  0  0  0  0  0  0  0  0
    7.9939   -2.0857    0.4477 N   0  0  0  0  0  0  0  0  0  0  0  0
    7.0023   -1.2005    0.5633 C   0  0  0  0  0  0  0  0  0  0  0  0
    3.7634   -0.4791   -0.9251 C   0  0  0  0  0  0  0  0  0  0  0  0
    2.7248    0.4178   -0.8369 C   0  0  0  0  0  0  0  0  0  0  0  0
   -0.6443    1.9501   -1.3448 C   0  0  0  0  0  0  0  0  0  0  0  0
   -0.1659    2.6186   -2.2777 O   0  0  0  0  0  0  0  0  0  0  0  0
   -1.9536    1.6199   -1.2986 O   0  0  0  0  0  0  0  0  0  0  0  0
   -6.9942   -1.8225    0.5430 H   0  0  0  0  0  0  0  0  0  0  0  0
   -3.6668    2.0863    2.5901 H   0  0  0  0  0  0  0  0  0  0  0  0
   -5.2170    1.2945    3.1354 H   0  0  0  0  0  0  0  0  0  0  0  0
   -3.7486    0.2702    2.7958 H   0  0  0  0  0  0  0  0  0  0  0  0
   -5.2251    3.1680    1.5857 H   0  0  0  0  0  0  0  0  0  0  0  0
   -6.1148    2.5753    0.0648 H   0  0  0  0  0  0  0  0  0  0  0  0
   -6.5768    2.0045    1.7503 H   0  0  0  0  0  0  0  0  0  0  0  0
   -3.3258    2.5109    0.4825 H   0  0  0  0  0  0  0  0  0  0  0  0
   -4.3290    1.9590   -0.8335 H   0  0  0  0  0  0  0  0  0  0  0  0
   -2.6507   -1.8927    0.6353 H   0  0  0  0  0  0  0  0  0  0  0  0
   -3.0485   -3.9127   -0.6649 H   0  0  0  0  0  0  0  0  0  0  0  0
   -3.4684   -3.7676   -3.0821 H   0  0  0  0  0  0  0  0  0  0  0  0
   -3.4982   -1.6006   -4.2063 H   0  0  0  0  0  0  0  0  0  0  0  0
   -3.1249    0.4101   -2.9402 H   0  0  0  0  0  0  0  0  0  0  0  0
   -1.9230   -0.2614    1.4826 H   0  0  0  0  0  0  0  0  0  0  0  0
   -1.5933    1.4717    1.3979 H   0  0  0  0  0  0  0  0  0  0  0  0
   -0.2428   -0.5888   -0.4118 H   0  0  0  0  0  0  0  0  0  0  0  0
    0.3875    0.0581    1.1891 H   0  0  0  0  0  0  0  0  0  0  0  0
    1.5111    3.1116   -0.3768 H   0  0  0  0  0  0  0  0  0  0  0  0
    1.9018    3.3665    1.8902 H   0  0  0  0  0  0  0  0  0  0  0  0
    0.1487    3.0626    1.8305 H   0  0  0  0  0  0  0  0  0  0  0  0
    1.2864    1.6818    2.2736 H   0  0  0  0  0  0  0  0  0  0  0  0
    3.2950    1.9111    2.0613 H   0  0  0  0  0  0  0  0  0  0  0  0
    5.2097    0.3158    1.9826 H   0  0  0  0  0  0  0  0  0  0  0  0
    4.6331   -2.9301   -1.1083 H   0  0  0  0  0  0  0  0  0  0  0  0
    6.5378   -4.5103   -1.2697 H   0  0  0  0  0  0  0  0  0  0  0  0
    8.9552   -1.9106    0.8575 H   0  0  0  0  0  0  0  0  0  0  0  0
    7.2060   -0.2770    1.0944 H   0  0  0  0  0  0  0  0  0  0  0  0
    3.9040   -1.1464   -1.7503 H   0  0  0  0  0  0  0  0  0  0  0  0
    2.0012    0.4456   -1.6523 H   0  0  0  0  0  0  0  0  0  0  0  0
  1  2  3  0
  2  3  1  0
  3  4  1  0
  3  5  1  0
  3  6  1  0
  7  6  1  1
  7  8  1  0
  8  9  2  0
  9 10  1  0
 10 11  2  0
 11 12  1  0
 12 13  2  0
  7 14  1  0
 14 15  1  0
 15 16  1  0
 16 17  1  0
 17 18  1  0
 17 19  1  0
 19 20  2  0
 20 21  1  0
 21 22  2  0
 22 23  1  0
 23 24  1  0
 24 25  2  0
 25 26  1  0
 26 27  2  0
 26 28  1  0
 28 29  1  0
 22 30  1  0
 30 31  2  0
 16 32  1  0
 32 33  2  0
 32 34  1  0
 34  7  1  0
 13  8  1  0
 31 19  1  0
 29 23  2  0
  1 35  1  0
  4 36  1  0
  4 37  1  0
  4 38  1  0
  5 39  1  0
  5 40  1  0
  5 41  1  0
  6 42  1  0
  6 43  1  0
  9 44  1  0
 10 45  1  0
 11 46  1  0
 12 47  1  0
 13 48  1  0
 14 49  1  0
 14 50  1  0
 15 51  1  0
 15 52  1  0
 17 53  1  6
 18 54  1  0
 18 55  1  0
 18 56  1  0
 20 57  1  0
 21 58  1  0
 24 59  1  0
 25 60  1  0
 28 61  1  0
 29 62  1  0
 30 63  1  0
 31 64  1  0
M  END
$$$$
