
     RDKit          3D

 24 25  0  0  0  0  0  0  0  0999 V2000
   -2.7968    2.5584   -0.5757 O   0  0  0  0  0  0  0  0  0  0  0  0
   -2.7312    1.9149    0.6423 C   0  0  0  0  0  0  0  0  0  0  0  0
   -3.4876    2.2255    1.5843 O   0  0  0  0  0  0  0  0  0  0  0  0
   -1.7682    0.8065    0.9459 C   0  0  0  0  0  0  0  0  0  0  0  0
   -1.0067    0.5871   -0.1986 O   0  0  0  0  0  0  0  0  0  0  0  0
    0.0035   -0.3617   -0.3368 C   0  0  0  0  0  0  0  0  0  0  0  0
   -0.4183   -1.5732   -0.8001 C   0  0  0  0  0  0  0  0  0  0  0  0
    1.1377   -2.5439   -0.8526 S   0  0  0  0  0  0  0  0  0  0  0  0
    2.1788   -1.2299   -0.2521 C   0  0  0  0  0  0  0  0  0  0  0  0
    3.5051   -1.2386   -0.0319 N   0  0  0  0  0  0  0  0  0  0  0  0
    4.1315   -0.1423    0.4283 C   0  0  0  0  0  0  0  0  0  0  0  0
    3.2899    0.9307    0.6341 C   0  0  0  0  0  0  0  0  0  0  0  0
    1.9320    0.9630    0.4163 C   0  0  0  0  0  0  0  0  0  0  0  0
    1.3353   -0.1897   -0.0572 C   0  0  0  0  0  0  0  0  0  0  0  0
   -1.6529   -2.1467   -1.1989 C   0  0  0  0  0  0  0  0  0  0  0  0
   -1.7690   -3.4428   -1.6323 O   0  0  0  0  0  0  0  0  0  0  0  0
   -2.6696   -1.4149   -1.1437 O   0  0  0  0  0  0  0  0  0  0  0  0
   -3.4702    3.3157   -0.7322 H   0  0  0  0  0  0  0  0  0  0  0  0
   -2.3720   -0.0700    1.2194 H   0  0  0  0  0  0  0  0  0  0  0  0
   -1.1156    1.1432    1.7955 H   0  0  0  0  0  0  0  0  0  0  0  0
    5.1901   -0.0855    0.6246 H   0  0  0  0  0  0  0  0  0  0  0  0
    3.7590    1.8552    1.0123 H   0  0  0  0  0  0  0  0  0  0  0  0
    1.3905    1.8981    0.6279 H   0  0  0  0  0  0  0  0  0  0  0  0
   -2.5951   -3.7591   -2.1189 H   0  0  0  0  0  0  0  0  0  0  0  0
  1  2  1  0
  2  3  2  0
  2  4  1  0
  4  5  1  0
  5  6  1  0
  6  7  2  0
  7  8  1  0
  8  9  1  0
  9 10  2  0
 10 11  1  0
 11 12  2  0
 12 13  1  0
 13 14  2  0
  7 15  1  0
 15 16  1  0
 15 17  2  0
 14  6  1  0
 14  9  1  0
  1 18  1  0
  4 19  1  0
  4 20  1  0
 11 21  1  0
 12 22  1  0
 13 23  1  0
 16 24  1  0
M  END
$$$$
