
     RDKit          3D

 27 27  0  0  0  0  0  0  0  0999 V2000
    1.1939   -0.9683    0.2195 C   0  0  2  0  0  0  0  0  0  0  0  0
   -0.0444   -1.3904   -0.5279 C   0  0  0  0  0  0  0  0  0  0  0  0
   -1.1878   -0.4984   -0.2902 C   0  0  0  0  0  0  0  0  0  0  0  0
   -1.4495    0.6216   -1.0817 C   0  0  0  0  0  0  0  0  0  0  0  0
   -2.5189    1.4722   -0.8746 C   0  0  0  0  0  0  0  0  0  0  0  0
   -3.3617    1.1828    0.1752 C   0  0  0  0  0  0  0  0  0  0  0  0
   -3.1257    0.0918    0.9639 C   0  0  0  0  0  0  0  0  0  0  0  0
   -2.0638   -0.7571    0.7621 C   0  0  0  0  0  0  0  0  0  0  0  0
    1.6666    0.3465   -0.1201 N   0  0  0  0  0  0  0  0  0  0  0  0
    1.8818    1.3458    0.8508 C   0  0  0  0  0  0  0  0  0  0  0  0
    2.3490    2.6353    0.4876 N   0  0  0  0  0  0  0  0  0  0  0  0
    1.7153    1.2788    2.0833 O   0  0  0  0  0  0  0  0  0  0  0  0
    2.2925   -1.9131   -0.1829 C   0  0  0  0  0  0  0  0  0  0  0  0
    2.1786   -3.3044    0.0028 O   0  0  0  0  0  0  0  0  0  0  0  0
    3.3639   -1.5597   -0.6987 O   0  0  0  0  0  0  0  0  0  0  0  0
    1.0154   -1.1288    1.2915 H   0  0  0  0  0  0  0  0  0  0  0  0
   -0.2620   -2.4278   -0.2373 H   0  0  0  0  0  0  0  0  0  0  0  0
    0.1696   -1.4209   -1.6213 H   0  0  0  0  0  0  0  0  0  0  0  0
   -0.7890    0.8509   -1.9068 H   0  0  0  0  0  0  0  0  0  0  0  0
   -2.6710    2.3314   -1.5269 H   0  0  0  0  0  0  0  0  0  0  0  0
   -4.1994    1.8543    0.3328 H   0  0  0  0  0  0  0  0  0  0  0  0
   -3.8278   -0.0749    1.7697 H   0  0  0  0  0  0  0  0  0  0  0  0
   -1.8785   -1.6217    1.3886 H   0  0  0  0  0  0  0  0  0  0  0  0
    1.8409    0.5135   -1.1383 H   0  0  0  0  0  0  0  0  0  0  0  0
    2.9490    2.8985   -0.3195 H   0  0  0  0  0  0  0  0  0  0  0  0
    2.1953    3.5425    0.9325 H   0  0  0  0  0  0  0  0  0  0  0  0
    2.5676   -3.9002   -0.7342 H   0  0  0  0  0  0  0  0  0  0  0  0
  1  2  1  0
  2  3  1  0
  3  4  2  0
  4  5  1  0
  5  6  2  0
  6  7  1  0
  7  8  2  0
  1  9  1  0
  9 10  1  0
 10 11  1  0
 10 12  2  0
  1 13  1  0
 13 14  1  0
 13 15  2  0
  8  3  1  0
  1 16  1  1
  2 17  1  0
  2 18  1  0
  4 19  1  0
  5 20  1  0
  6 21  1  0
  7 22  1  0
  8 23  1  0
  9 24  1  0
 11 25  1  0
 11 26  1  0
 14 27  1  0
M  END
$$$$
