
     RDKit          3D

 59 62  0  0  0  0  0  0  0  0999 V2000
   -1.1023   -3.1311    2.4351 C   0  0  0  0  0  0  0  0  0  0  0  0
   -1.3779   -1.7510    1.9813 C   0  0  0  0  0  0  0  0  0  0  0  0
   -0.3971   -0.8400    2.0522 N   0  0  0  0  0  0  0  0  0  0  0  0
   -0.5841    0.4279    1.6540 C   0  0  0  0  0  0  0  0  0  0  0  0
    0.4202    1.4120    1.7287 N   0  0  0  0  0  0  0  0  0  0  0  0
    1.4228    1.5677    0.6506 C   0  0  0  0  0  0  0  0  0  0  0  0
    1.6926    2.0453   -0.3264 N   0  0  0  0  0  0  0  0  0  0  0  0
    2.7726    1.9605   -1.0782 C   0  0  0  0  0  0  0  0  0  0  0  0
    3.7319    1.1622   -0.6016 C   0  0  0  0  0  0  0  0  0  0  0  0
    5.0691    0.7783   -1.0814 C   0  0  0  0  0  0  0  0  0  0  0  0
    5.5262    1.2243   -2.1611 O   0  0  0  0  0  0  0  0  0  0  0  0
    5.8731   -0.1095   -0.3263 N   0  0  0  0  0  0  0  0  0  0  0  0
    7.1716   -0.5192   -0.7306 C   0  0  0  0  0  0  0  0  0  0  0  0
    8.3220    0.1675   -0.3827 C   0  0  0  0  0  0  0  0  0  0  0  0
    8.1392    1.3843    0.4470 C   0  0  0  0  0  0  0  0  0  0  0  0
    9.5720   -0.2286   -0.7682 C   0  0  0  0  0  0  0  0  0  0  0  0
    9.7228   -1.3647   -1.5422 C   0  0  0  0  0  0  0  0  0  0  0  0
    8.6067   -2.0706   -1.9059 C   0  0  0  0  0  0  0  0  0  0  0  0
    7.3387   -1.6551   -1.5057 C   0  0  0  0  0  0  0  0  0  0  0  0
    5.9328   -2.5783   -1.9840 Cl  0  0  0  0  0  0  0  0  0  0  0  0
    3.0246    0.5422    0.9584 S   0  0  0  0  0  0  0  0  0  0  0  0
   -1.8411    0.7538    1.1644 C   0  0  0  0  0  0  0  0  0  0  0  0
   -2.8752   -0.1531    1.0757 C   0  0  0  0  0  0  0  0  0  0  0  0
   -4.1569    0.1793    0.5793 N   0  0  0  0  0  0  0  0  0  0  0  0
   -5.1916   -0.8584    0.6564 C   0  0  0  0  0  0  0  0  0  0  0  0
   -6.4798   -0.1180    0.9908 C   0  0  0  0  0  0  0  0  0  0  0  0
   -6.7654    0.7708   -0.0588 N   0  0  0  0  0  0  0  0  0  0  0  0
   -7.2466    0.3001   -1.2923 C   0  0  0  0  0  0  0  0  0  0  0  0
   -8.6363   -0.2355   -1.2459 C   0  0  0  0  0  0  0  0  0  0  0  0
   -8.7072   -1.3101   -0.3819 O   0  0  0  0  0  0  0  0  0  0  0  0
   -5.8081    1.8398   -0.2249 C   0  0  0  0  0  0  0  0  0  0  0  0
   -4.3923    1.4790    0.0364 C   0  0  0  0  0  0  0  0  0  0  0  0
   -2.5849   -1.4188    1.5065 N   0  0  0  0  0  0  0  0  0  0  0  0
   -0.9374   -3.8294    1.5876 H   0  0  0  0  0  0  0  0  0  0  0  0
   -0.1646   -3.1584    3.0347 H   0  0  0  0  0  0  0  0  0  0  0  0
   -1.9318   -3.5329    3.0242 H   0  0  0  0  0  0  0  0  0  0  0  0
    0.4898    2.0607    2.5436 H   0  0  0  0  0  0  0  0  0  0  0  0
    2.8742    2.5106   -2.0284 H   0  0  0  0  0  0  0  0  0  0  0  0
    5.4625   -0.4705    0.5789 H   0  0  0  0  0  0  0  0  0  0  0  0
    9.1050    1.6211    0.9314 H   0  0  0  0  0  0  0  0  0  0  0  0
    7.7775    2.2111   -0.1987 H   0  0  0  0  0  0  0  0  0  0  0  0
    7.3827    1.2251    1.2522 H   0  0  0  0  0  0  0  0  0  0  0  0
   10.4719    0.3246   -0.4864 H   0  0  0  0  0  0  0  0  0  0  0  0
   10.7146   -1.6417   -1.8232 H   0  0  0  0  0  0  0  0  0  0  0  0
    8.6772   -2.9609   -2.5047 H   0  0  0  0  0  0  0  0  0  0  0  0
   -2.0197    1.7679    0.8368 H   0  0  0  0  0  0  0  0  0  0  0  0
   -5.0047   -1.5744    1.4738 H   0  0  0  0  0  0  0  0  0  0  0  0
   -5.2976   -1.3977   -0.2841 H   0  0  0  0  0  0  0  0  0  0  0  0
   -6.2389    0.5226    1.9000 H   0  0  0  0  0  0  0  0  0  0  0  0
   -7.2971   -0.7709    1.2466 H   0  0  0  0  0  0  0  0  0  0  0  0
   -7.2900    1.1989   -1.9873 H   0  0  0  0  0  0  0  0  0  0  0  0
   -6.5453   -0.3834   -1.8324 H   0  0  0  0  0  0  0  0  0  0  0  0
   -9.0051   -0.5483   -2.2664 H   0  0  0  0  0  0  0  0  0  0  0  0
   -9.3567    0.5354   -0.8485 H   0  0  0  0  0  0  0  0  0  0  0  0
   -8.1100   -2.0454   -0.6655 H   0  0  0  0  0  0  0  0  0  0  0  0
   -5.9617    2.2403   -1.2739 H   0  0  0  0  0  0  0  0  0  0  0  0
   -6.1591    2.6675    0.4367 H   0  0  0  0  0  0  0  0  0  0  0  0
   -3.9705    2.2638    0.7067 H   0  0  0  0  0  0  0  0  0  0  0  0
   -3.8570    1.5115   -0.9589 H   0  0  0  0  0  0  0  0  0  0  0  0
  1  2  1  0
  2  3  2  0
  3  4  1  0
  4  5  1  0
  5  6  1  0
  6  7  2  0
  7  8  1  0
  8  9  2  0
  9 10  1  0
 10 11  2  0
 10 12  1  0
 12 13  1  0
 13 14  2  0
 14 15  1  0
 14 16  1  0
 16 17  2  0
 17 18  1  0
 18 19  2  0
 19 20  1  0
  9 21  1  0
  4 22  2  0
 22 23  1  0
 23 24  1  0
 24 25  1  0
 25 26  1  0
 26 27  1  0
 27 28  1  0
 28 29  1  0
 29 30  1  0
 27 31  1  0
 31 32  1  0
 23 33  2  0
 33  2  1  0
 21  6  1  0
 32 24  1  0
 19 13  1  0
  1 34  1  0
  1 35  1  0
  1 36  1  0
  5 37  1  0
  8 38  1  0
 12 39  1  0
 15 40  1  0
 15 41  1  0
 15 42  1  0
 16 43  1  0
 17 44  1  0
 18 45  1  0
 22 46  1  0
 25 47  1  0
 25 48  1  0
 26 49  1  0
 26 50  1  0
 28 51  1  0
 28 52  1  0
 29 53  1  0
 29 54  1  0
 30 55  1  0
 31 56  1  0
 31 57  1  0
 32 58  1  0
 32 59  1  0
M  END
$$$$
