
     RDKit          3D

 75 78  0  0  0  0  0  0  0  0999 V2000
   10.0587    1.8742   -2.6142 C   0  0  0  0  0  0  0  0  0  0  0  0
    8.9047    1.3399   -1.8571 C   0  0  0  0  0  0  0  0  0  0  0  0
    7.7953    0.8891   -2.5362 C   0  0  0  0  0  0  0  0  0  0  0  0
    6.7043    0.3869   -1.8622 C   0  0  0  0  0  0  0  0  0  0  0  0
    6.6723    0.3135   -0.4892 C   0  0  0  0  0  0  0  0  0  0  0  0
    5.2599   -0.3367    0.3734 S   0  0  0  0  0  6  0  0  0  0  0  0
    4.6312   -1.2925   -0.6361 O   0  0  0  0  0  0  0  0  0  0  0  0
    5.7016   -1.0950    1.5730 O   0  0  0  0  0  0  0  0  0  0  0  0
    4.1393    0.9037    0.6880 N   0  0  0  0  0  0  0  0  0  0  0  0
    4.8124    1.8837    1.5325 C   0  0  0  0  0  0  0  0  0  0  0  0
    3.8765    2.8679    2.1576 C   0  0  0  0  0  0  0  0  0  0  0  0
    2.6735    2.9275    1.3562 N   0  0  0  0  0  0  0  0  0  0  0  0
    1.9910    1.6895    1.1350 C   0  0  0  0  0  0  0  0  0  0  0  0
    0.7950    1.6276    0.8450 O   0  0  0  0  0  0  0  0  0  0  0  0
    2.8968    0.4788    1.2922 C   0  0  1  0  0  0  0  0  0  0  0  0
    2.2449   -0.6762    0.6302 C   0  0  0  0  0  0  0  0  0  0  0  0
    0.9707   -1.0397    1.3380 C   0  0  0  0  0  0  0  0  0  0  0  0
    0.7268   -0.4273    2.4092 O   0  0  0  0  0  0  0  0  0  0  0  0
    0.0914   -2.0157    0.8288 N   0  0  0  0  0  0  0  0  0  0  0  0
   -1.1349   -2.3915    1.4776 C   0  0  2  0  0  0  0  0  0  0  0  0
   -1.2663   -3.8583    1.7063 C   0  0  0  0  0  0  0  0  0  0  0  0
   -2.4704   -4.1404    2.5657 C   0  0  0  0  0  0  0  0  0  0  0  0
   -3.6401   -3.2569    2.3514 C   0  0  0  0  0  0  0  0  0  0  0  0
   -3.5578   -2.3969    1.1543 C   0  0  0  0  0  0  0  0  0  0  0  0
   -4.7222   -2.0141    0.4630 C   0  0  0  0  0  0  0  0  0  0  0  0
   -4.6491   -1.2048   -0.6486 C   0  0  0  0  0  0  0  0  0  0  0  0
   -5.8717   -0.7713   -1.4080 C   0  0  0  0  0  0  0  0  0  0  0  0
   -6.3300    0.4549   -0.8513 N   0  0  0  0  0  0  0  0  0  0  0  0
   -7.4696    1.0577   -1.4417 C   0  0  0  0  0  0  0  0  0  0  0  0
   -8.7061    0.2233   -1.4291 C   0  0  0  0  0  0  0  0  0  0  0  0
   -7.7861    2.3140   -0.6172 C   0  0  0  0  0  0  0  0  0  0  0  0
   -7.2438    1.5655   -2.8554 C   0  0  0  0  0  0  0  0  0  0  0  0
   -3.3844   -0.7859   -1.0539 C   0  0  0  0  0  0  0  0  0  0  0  0
   -2.2388   -1.1429   -0.4013 C   0  0  0  0  0  0  0  0  0  0  0  0
   -2.3355   -1.9629    0.7213 C   0  0  0  0  0  0  0  0  0  0  0  0
    7.7888    0.7674    0.1926 C   0  0  0  0  0  0  0  0  0  0  0  0
    8.8902    1.2733   -0.4801 C   0  0  0  0  0  0  0  0  0  0  0  0
   10.9173    2.0262   -1.8990 H   0  0  0  0  0  0  0  0  0  0  0  0
   10.3881    1.1242   -3.3501 H   0  0  0  0  0  0  0  0  0  0  0  0
    9.8022    2.7980   -3.1624 H   0  0  0  0  0  0  0  0  0  0  0  0
    7.7863    0.9321   -3.6170 H   0  0  0  0  0  0  0  0  0  0  0  0
    5.8556    0.0456   -2.4503 H   0  0  0  0  0  0  0  0  0  0  0  0
    5.5985    2.4058    0.9649 H   0  0  0  0  0  0  0  0  0  0  0  0
    5.3531    1.3631    2.3731 H   0  0  0  0  0  0  0  0  0  0  0  0
    3.6496    2.6406    3.2245 H   0  0  0  0  0  0  0  0  0  0  0  0
    4.3436    3.8854    2.0794 H   0  0  0  0  0  0  0  0  0  0  0  0
    2.2911    3.8056    0.9437 H   0  0  0  0  0  0  0  0  0  0  0  0
    3.0988    0.2598    2.3562 H   0  0  0  0  0  0  0  0  0  0  0  0
    2.1006   -0.5204   -0.4451 H   0  0  0  0  0  0  0  0  0  0  0  0
    2.8862   -1.5996    0.7566 H   0  0  0  0  0  0  0  0  0  0  0  0
    0.3530   -2.4854   -0.0652 H   0  0  0  0  0  0  0  0  0  0  0  0
   -1.2209   -1.8741    2.4639 H   0  0  0  0  0  0  0  0  0  0  0  0
   -1.4249   -4.4253    0.7496 H   0  0  0  0  0  0  0  0  0  0  0  0
   -0.3599   -4.3024    2.1850 H   0  0  0  0  0  0  0  0  0  0  0  0
   -2.1340   -4.0078    3.6335 H   0  0  0  0  0  0  0  0  0  0  0  0
   -2.8074   -5.2152    2.4467 H   0  0  0  0  0  0  0  0  0  0  0  0
   -3.8288   -2.5755    3.2236 H   0  0  0  0  0  0  0  0  0  0  0  0
   -4.5732   -3.8652    2.2587 H   0  0  0  0  0  0  0  0  0  0  0  0
   -5.6630   -2.3677    0.8233 H   0  0  0  0  0  0  0  0  0  0  0  0
   -6.5780   -1.5964   -1.3839 H   0  0  0  0  0  0  0  0  0  0  0  0
   -5.5675   -0.6391   -2.4831 H   0  0  0  0  0  0  0  0  0  0  0  0
   -5.5506    1.1486   -0.8483 H   0  0  0  0  0  0  0  0  0  0  0  0
   -8.8162   -0.4099   -0.5204 H   0  0  0  0  0  0  0  0  0  0  0  0
   -9.5851    0.9117   -1.4172 H   0  0  0  0  0  0  0  0  0  0  0  0
   -8.8385   -0.3694   -2.3761 H   0  0  0  0  0  0  0  0  0  0  0  0
   -7.4854    2.0905    0.4453 H   0  0  0  0  0  0  0  0  0  0  0  0
   -7.1561    3.1457   -0.9580 H   0  0  0  0  0  0  0  0  0  0  0  0
   -8.8650    2.5297   -0.6202 H   0  0  0  0  0  0  0  0  0  0  0  0
   -6.8687    2.6172   -2.8425 H   0  0  0  0  0  0  0  0  0  0  0  0
   -6.6505    0.8984   -3.4811 H   0  0  0  0  0  0  0  0  0  0  0  0
   -8.2627    1.6329   -3.3204 H   0  0  0  0  0  0  0  0  0  0  0  0
   -3.3082   -0.1429   -1.9319 H   0  0  0  0  0  0  0  0  0  0  0  0
   -1.2440   -0.8421   -0.6796 H   0  0  0  0  0  0  0  0  0  0  0  0
    7.7798    0.7182    1.2601 H   0  0  0  0  0  0  0  0  0  0  0  0
    9.7661    1.6284    0.0541 H   0  0  0  0  0  0  0  0  0  0  0  0
  1  2  1  0
  2  3  2  0
  3  4  1  0
  4  5  2  0
  5  6  1  0
  6  7  2  0
  6  8  2  0
  6  9  1  0
  9 10  1  0
 10 11  1  0
 11 12  1  0
 12 13  1  0
 13 14  2  0
 13 15  1  0
 15 16  1  0
 16 17  1  0
 17 18  2  0
 17 19  1  0
 19 20  1  0
 20 21  1  0
 21 22  1  0
 22 23  1  0
 23 24  1  0
 24 25  2  0
 25 26  1  0
 26 27  1  0
 27 28  1  0
 28 29  1  0
 29 30  1  0
 29 31  1  0
 29 32  1  0
 26 33  2  0
 33 34  1  0
 34 35  2  0
  5 36  1  0
 36 37  2  0
 37  2  1  0
 15  9  1  0
 35 20  1  0
 35 24  1  0
  1 38  1  0
  1 39  1  0
  1 40  1  0
  3 41  1  0
  4 42  1  0
 10 43  1  0
 10 44  1  0
 11 45  1  0
 11 46  1  0
 12 47  1  0
 15 48  1  1
 16 49  1  0
 16 50  1  0
 19 51  1  0
 20 52  1  1
 21 53  1  0
 21 54  1  0
 22 55  1  0
 22 56  1  0
 23 57  1  0
 23 58  1  0
 25 59  1  0
 27 60  1  0
 27 61  1  0
 28 62  1  0
 30 63  1  0
 30 64  1  0
 30 65  1  0
 31 66  1  0
 31 67  1  0
 31 68  1  0
 32 69  1  0
 32 70  1  0
 32 71  1  0
 33 72  1  0
 34 73  1  0
 36 74  1  0
 37 75  1  0
M  END
$$$$
