
     RDKit          3D

 51 54  0  0  0  0  0  0  0  0999 V2000
   -4.6688   -5.2226   -1.2013 C   0  0  0  0  0  0  0  0  0  0  0  0
   -3.6983   -4.0858   -1.0722 C   0  0  0  0  0  0  0  0  0  0  0  0
   -2.3723   -4.0310   -1.3706 C   0  0  0  0  0  0  0  0  0  0  0  0
   -1.7563   -2.9029   -1.1599 N   0  0  0  0  0  0  0  0  0  0  0  0
   -2.2775   -1.8691   -0.7082 C   0  0  0  0  0  0  0  0  0  0  0  0
   -1.9104   -0.5165   -0.3671 C   0  0  0  0  0  0  0  0  0  0  0  0
   -2.8137    0.3856    0.1338 C   0  0  0  0  0  0  0  0  0  0  0  0
   -2.4505    1.6843    0.4588 C   0  0  0  0  0  0  0  0  0  0  0  0
   -3.3115    2.6365    0.9656 O   0  0  0  0  0  0  0  0  0  0  0  0
   -4.6473    2.3848    1.2041 C   0  0  0  0  0  0  0  0  0  0  0  0
   -5.6077    3.4857    0.7629 C   0  0  0  0  0  0  0  0  0  0  0  0
   -6.3562    3.1935    1.9109 O   0  0  0  0  0  0  0  0  0  0  0  0
   -5.1101    2.9900    2.5444 C   0  0  0  0  0  0  0  0  0  0  0  0
   -1.1362    2.0460    0.2604 C   0  0  0  0  0  0  0  0  0  0  0  0
   -0.2186    1.1715   -0.2353 C   0  0  0  0  0  0  0  0  0  0  0  0
    1.1479    1.6348   -0.4140 C   0  0  0  0  0  0  0  0  0  0  0  0
    1.4609    2.8312   -0.1092 O   0  0  0  0  0  0  0  0  0  0  0  0
    2.1879    0.8400   -0.9138 N   0  0  0  0  0  0  0  0  0  0  0  0
    3.5484    1.3109   -1.0886 C   0  0  2  0  0  0  0  0  0  0  0  0
    4.0075    1.1834   -2.5214 C   0  0  0  0  0  0  0  0  0  0  0  0
    4.4481    0.5083   -0.2443 C   0  0  0  0  0  0  0  0  0  0  0  0
    4.3218   -0.8531   -0.2054 C   0  0  0  0  0  0  0  0  0  0  0  0
    5.1582   -1.5864    0.5781 N   0  0  0  0  0  0  0  0  0  0  0  0
    6.1141   -1.0057    1.3221 C   0  0  0  0  0  0  0  0  0  0  0  0
    7.0334   -1.8280    2.1851 C   0  0  0  0  0  0  0  0  0  0  0  0
    8.1912   -1.1051    2.3113 F   0  0  0  0  0  0  0  0  0  0  0  0
    6.3980   -2.0186    3.3974 F   0  0  0  0  0  0  0  0  0  0  0  0
    7.2280   -3.0285    1.5473 F   0  0  0  0  0  0  0  0  0  0  0  0
    6.2222    0.3315    1.2705 N   0  0  0  0  0  0  0  0  0  0  0  0
    5.4157    1.1173    0.5066 C   0  0  0  0  0  0  0  0  0  0  0  0
   -0.6140   -0.1118   -0.5477 C   0  0  0  0  0  0  0  0  0  0  0  0
   -4.0221   -2.4677   -0.4825 S   0  0  0  0  0  0  0  0  0  0  0  0
   -5.6524   -4.8479   -1.5722 H   0  0  0  0  0  0  0  0  0  0  0  0
   -4.7769   -5.7103   -0.2141 H   0  0  0  0  0  0  0  0  0  0  0  0
   -4.2367   -5.9143   -1.9313 H   0  0  0  0  0  0  0  0  0  0  0  0
   -1.8411   -4.9250   -1.7802 H   0  0  0  0  0  0  0  0  0  0  0  0
   -3.8291    0.0688    0.2754 H   0  0  0  0  0  0  0  0  0  0  0  0
   -5.0783    1.4074    0.9973 H   0  0  0  0  0  0  0  0  0  0  0  0
   -6.1225    3.2790   -0.1896 H   0  0  0  0  0  0  0  0  0  0  0  0
   -5.1581    4.4924    0.8735 H   0  0  0  0  0  0  0  0  0  0  0  0
   -5.1285    2.2845    3.3742 H   0  0  0  0  0  0  0  0  0  0  0  0
   -4.6345    3.9634    2.6950 H   0  0  0  0  0  0  0  0  0  0  0  0
   -0.8334    3.0560    0.5082 H   0  0  0  0  0  0  0  0  0  0  0  0
    2.0121   -0.1371   -1.1818 H   0  0  0  0  0  0  0  0  0  0  0  0
    3.5916    2.3569   -0.7674 H   0  0  0  0  0  0  0  0  0  0  0  0
    5.0921    1.4348   -2.5340 H   0  0  0  0  0  0  0  0  0  0  0  0
    3.9076    0.1517   -2.8749 H   0  0  0  0  0  0  0  0  0  0  0  0
    3.5203    1.9277   -3.1877 H   0  0  0  0  0  0  0  0  0  0  0  0
    3.5645   -1.3994   -0.7858 H   0  0  0  0  0  0  0  0  0  0  0  0
    5.5648    2.2001    0.5168 H   0  0  0  0  0  0  0  0  0  0  0  0
    0.1268   -0.7910   -0.9393 H   0  0  0  0  0  0  0  0  0  0  0  0
  1  2  1  0
  2  3  2  0
  3  4  1  0
  4  5  2  0
  5  6  1  0
  6  7  2  0
  7  8  1  0
  8  9  1  0
  9 10  1  0
 10 11  1  0
 11 12  1  0
 12 13  1  0
  8 14  2  0
 14 15  1  0
 15 16  1  0
 16 17  2  0
 16 18  1  0
 18 19  1  0
 19 20  1  0
 19 21  1  0
 21 22  2  0
 22 23  1  0
 23 24  2  0
 24 25  1  0
 25 26  1  0
 25 27  1  0
 25 28  1  0
 24 29  1  0
 29 30  2  0
 15 31  2  0
  5 32  1  0
 32  2  1  0
 31  6  1  0
 13 10  1  0
 30 21  1  0
  1 33  1  0
  1 34  1  0
  1 35  1  0
  3 36  1  0
  7 37  1  0
 10 38  1  0
 11 39  1  0
 11 40  1  0
 13 41  1  0
 13 42  1  0
 14 43  1  0
 18 44  1  0
 19 45  1  1
 20 46  1  0
 20 47  1  0
 20 48  1  0
 22 49  1  0
 30 50  1  0
 31 51  1  0
M  END
$$$$
