
     RDKit          3D

 50 53  0  0  0  0  0  0  0  0999 V2000
   -3.5099   -1.2712   -1.9751 O   0  0  0  0  0  0  0  0  0  0  0  0
   -3.3034   -0.8522   -0.8074 C   0  0  0  0  0  0  0  0  0  0  0  0
   -2.1838   -1.3784    0.0149 C   0  0  2  0  0  0  0  0  0  0  0  0
   -1.1765   -0.2895    0.3515 C   0  0  0  0  0  0  0  0  0  0  0  0
    0.0424   -0.6664   -0.4594 C   0  0  2  0  0  0  0  0  0  0  0  0
    0.7039    0.5009   -1.0093 N   0  0  0  0  0  0  0  0  0  0  0  0
    1.1006    1.3267    0.1169 C   0  0  0  0  0  0  0  0  0  0  0  0
    2.2784    0.7176    0.8710 C   0  0  0  0  0  0  0  0  0  0  0  0
    3.3857    0.6861   -0.0609 N   0  0  0  0  0  0  0  0  0  0  0  0
    4.6817    0.4302    0.4386 C   0  0  0  0  0  0  0  0  0  0  0  0
    4.9028    0.2196    1.7368 N   0  0  0  0  0  0  0  0  0  0  0  0
    6.1578   -0.0229    2.1816 C   0  0  0  0  0  0  0  0  0  0  0  0
    7.2181   -0.0548    1.2999 C   0  0  0  0  0  0  0  0  0  0  0  0
    6.9627    0.1660   -0.0365 C   0  0  0  0  0  0  0  0  0  0  0  0
    5.7131    0.4001   -0.4265 N   0  0  0  0  0  0  0  0  0  0  0  0
    3.0889    0.9212   -1.4578 C   0  0  0  0  0  0  0  0  0  0  0  0
    1.8441    0.1142   -1.7944 C   0  0  0  0  0  0  0  0  0  0  0  0
   -0.5568   -1.5450   -1.5337 C   0  0  0  0  0  0  0  0  0  0  0  0
   -1.4554   -2.3751   -0.7384 N   0  0  0  0  0  0  0  0  0  0  0  0
   -4.1717    0.1501   -0.2754 N   0  0  0  0  0  0  0  0  0  0  0  0
   -4.0853    0.7481    1.0453 C   0  0  0  0  0  0  0  0  0  0  0  0
   -5.5330    0.7487    1.4877 C   0  0  0  0  0  0  0  0  0  0  0  0
   -6.2534    1.1430    0.2247 C   0  0  0  0  0  0  0  0  0  0  0  0
   -7.4535    0.4327    0.0879 F   0  0  0  0  0  0  0  0  0  0  0  0
   -6.4854    2.4985    0.1392 F   0  0  0  0  0  0  0  0  0  0  0  0
   -5.3032    0.7805   -0.9127 C   0  0  0  0  0  0  0  0  0  0  0  0
   -2.5720   -1.8125    0.9743 H   0  0  0  0  0  0  0  0  0  0  0  0
   -1.5719    0.6975    0.0781 H   0  0  0  0  0  0  0  0  0  0  0  0
   -0.9171   -0.2931    1.4277 H   0  0  0  0  0  0  0  0  0  0  0  0
    0.7245   -1.2876    0.1292 H   0  0  0  0  0  0  0  0  0  0  0  0
    1.4147    2.3470   -0.1927 H   0  0  0  0  0  0  0  0  0  0  0  0
    0.2808    1.4115    0.8573 H   0  0  0  0  0  0  0  0  0  0  0  0
    2.0498   -0.2636    1.2940 H   0  0  0  0  0  0  0  0  0  0  0  0
    2.5144    1.4304    1.6866 H   0  0  0  0  0  0  0  0  0  0  0  0
    6.3429   -0.1926    3.2211 H   0  0  0  0  0  0  0  0  0  0  0  0
    8.2051   -0.2497    1.6801 H   0  0  0  0  0  0  0  0  0  0  0  0
    7.7911    0.1436   -0.7441 H   0  0  0  0  0  0  0  0  0  0  0  0
    3.9109    0.5446   -2.0707 H   0  0  0  0  0  0  0  0  0  0  0  0
    2.9159    1.9966   -1.6736 H   0  0  0  0  0  0  0  0  0  0  0  0
    1.6153    0.2347   -2.8919 H   0  0  0  0  0  0  0  0  0  0  0  0
    2.0718   -0.9522   -1.5639 H   0  0  0  0  0  0  0  0  0  0  0  0
   -1.1976   -0.9643   -2.2337 H   0  0  0  0  0  0  0  0  0  0  0  0
    0.2045   -2.1490   -2.0620 H   0  0  0  0  0  0  0  0  0  0  0  0
   -0.8506   -2.8953   -0.0494 H   0  0  0  0  0  0  0  0  0  0  0  0
   -3.4285    0.1828    1.7290 H   0  0  0  0  0  0  0  0  0  0  0  0
   -3.7563    1.8092    0.9145 H   0  0  0  0  0  0  0  0  0  0  0  0
   -5.8116   -0.3034    1.7106 H   0  0  0  0  0  0  0  0  0  0  0  0
   -5.7299    1.4363    2.3184 H   0  0  0  0  0  0  0  0  0  0  0  0
   -5.0204    1.6651   -1.5120 H   0  0  0  0  0  0  0  0  0  0  0  0
   -5.7947    0.0037   -1.5355 H   0  0  0  0  0  0  0  0  0  0  0  0
  1  2  2  0
  2  3  1  0
  3  4  1  0
  4  5  1  0
  5  6  1  0
  6  7  1  0
  7  8  1  0
  8  9  1  0
  9 10  1  0
 10 11  2  0
 11 12  1  0
 12 13  2  0
 13 14  1  0
 14 15  2  0
  9 16  1  0
 16 17  1  0
  5 18  1  0
 18 19  1  0
  2 20  1  0
 20 21  1  0
 21 22  1  0
 22 23  1  0
 23 24  1  0
 23 25  1  0
 23 26  1  0
 19  3  1  0
 26 20  1  0
 17  6  1  0
 15 10  1  0
  3 27  1  1
  4 28  1  0
  4 29  1  0
  5 30  1  1
  7 31  1  0
  7 32  1  0
  8 33  1  0
  8 34  1  0
 12 35  1  0
 13 36  1  0
 14 37  1  0
 16 38  1  0
 16 39  1  0
 17 40  1  0
 17 41  1  0
 18 42  1  0
 18 43  1  0
 19 44  1  0
 21 45  1  0
 21 46  1  0
 22 47  1  0
 22 48  1  0
 26 49  1  0
 26 50  1  0
M  END
$$$$
