
     RDKit          3D

 51 56  0  0  0  0  0  0  0  0999 V2000
   -6.6060   -2.0058    2.1935 C   0  0  0  0  0  0  0  0  0  0  0  0
   -5.5355   -1.1525    2.3059 C   0  0  0  0  0  0  0  0  0  0  0  0
   -5.1780   -0.3149    1.2744 C   0  0  0  0  0  0  0  0  0  0  0  0
   -4.0391    0.5978    1.3845 C   0  0  0  0  0  0  0  0  0  0  0  0
   -4.0807    1.8932    1.8537 C   0  0  0  0  0  0  0  0  0  0  0  0
   -2.8297    2.3836    1.7921 N   0  0  0  0  0  0  0  0  0  0  0  0
   -1.9971    1.4878    1.3159 N   0  0  0  0  0  0  0  0  0  0  0  0
   -0.6608    1.5299    1.0786 C   0  0  0  0  0  0  0  0  0  0  0  0
   -0.0002    0.4501    0.5693 C   0  0  0  0  0  0  0  0  0  0  0  0
    1.4268    0.4007    0.2823 C   0  0  0  0  0  0  0  0  0  0  0  0
    2.1974    1.5085    0.5313 C   0  0  0  0  0  0  0  0  0  0  0  0
    3.5452    1.4501    0.2561 C   0  0  0  0  0  0  0  0  0  0  0  0
    4.1025    0.2988   -0.2592 C   0  0  0  0  0  0  0  0  0  0  0  0
    5.4800    0.3115   -0.5147 O   0  0  0  0  0  0  0  0  0  0  0  0
    6.2298   -0.7418   -1.0314 C   0  0  1  0  0  0  0  0  0  0  0  0
    7.0816   -0.2747   -2.2266 C   0  0  0  0  0  0  0  0  0  0  0  0
    8.0354    0.6746   -1.5062 C   0  0  0  0  0  0  0  0  0  0  0  0
    8.3300    0.0493   -0.2492 N   0  0  0  0  0  0  0  0  0  0  0  0
    7.3691   -0.9860   -0.0246 C   0  0  0  0  0  0  0  0  0  0  0  0
    3.3000   -0.7923   -0.4962 C   0  0  0  0  0  0  0  0  0  0  0  0
    1.9829   -0.7398   -0.2288 N   0  0  0  0  0  0  0  0  0  0  0  0
   -0.7628   -0.6906    0.3071 C   0  0  0  0  0  0  0  0  0  0  0  0
   -2.0786   -0.6858    0.5572 N   0  0  0  0  0  0  0  0  0  0  0  0
   -2.7155    0.3769    1.0559 C   0  0  0  0  0  0  0  0  0  0  0  0
   -5.9373   -0.3588    0.1089 C   0  0  0  0  0  0  0  0  0  0  0  0
   -5.6024    0.4728   -0.9483 C   0  0  0  0  0  0  0  0  0  0  0  0
   -6.3612    0.4196   -2.0951 C   0  0  0  0  0  0  0  0  0  0  0  0
   -7.4315   -0.4246   -2.2247 C   0  0  0  0  0  0  0  0  0  0  0  0
   -7.7469   -1.2264   -1.1932 N   0  0  0  0  0  0  0  0  0  0  0  0
   -7.0179   -1.2004   -0.0429 C   0  0  0  0  0  0  0  0  0  0  0  0
   -7.3299   -2.0164    1.0218 C   0  0  0  0  0  0  0  0  0  0  0  0
   -6.8968   -2.6783    3.0155 H   0  0  0  0  0  0  0  0  0  0  0  0
   -4.9626   -1.1346    3.2149 H   0  0  0  0  0  0  0  0  0  0  0  0
   -4.9551    2.4287    2.2095 H   0  0  0  0  0  0  0  0  0  0  0  0
   -0.1169    2.4319    1.2971 H   0  0  0  0  0  0  0  0  0  0  0  0
    1.8099    2.4455    0.9382 H   0  0  0  0  0  0  0  0  0  0  0  0
    4.1781    2.3362    0.4521 H   0  0  0  0  0  0  0  0  0  0  0  0
    5.7020   -1.6629   -1.2599 H   0  0  0  0  0  0  0  0  0  0  0  0
    6.4818    0.2195   -2.9843 H   0  0  0  0  0  0  0  0  0  0  0  0
    7.6689   -1.1304   -2.5558 H   0  0  0  0  0  0  0  0  0  0  0  0
    7.4453    1.5975   -1.2926 H   0  0  0  0  0  0  0  0  0  0  0  0
    8.9309    0.8838   -2.1208 H   0  0  0  0  0  0  0  0  0  0  0  0
    8.3306    0.7058    0.5629 H   0  0  0  0  0  0  0  0  0  0  0  0
    6.9683   -0.9997    1.0092 H   0  0  0  0  0  0  0  0  0  0  0  0
    7.8181   -1.9565   -0.3207 H   0  0  0  0  0  0  0  0  0  0  0  0
    3.7444   -1.7152   -0.9087 H   0  0  0  0  0  0  0  0  0  0  0  0
   -0.2856   -1.5889   -0.1029 H   0  0  0  0  0  0  0  0  0  0  0  0
   -4.7486    1.1558   -0.8631 H   0  0  0  0  0  0  0  0  0  0  0  0
   -6.1001    1.0770   -2.9367 H   0  0  0  0  0  0  0  0  0  0  0  0
   -7.9966   -0.4223   -3.1598 H   0  0  0  0  0  0  0  0  0  0  0  0
   -8.1853   -2.6876    0.9112 H   0  0  0  0  0  0  0  0  0  0  0  0
  1  2  2  0
  2  3  1  0
  3  4  1  0
  4  5  1  0
  5  6  2  0
  6  7  1  0
  7  8  1  0
  8  9  2  0
  9 10  1  0
 10 11  2  0
 11 12  1  0
 12 13  2  0
 13 14  1  0
 14 15  1  0
 15 16  1  0
 16 17  1  0
 17 18  1  0
 18 19  1  0
 13 20  1  0
 20 21  2  0
  9 22  1  0
 22 23  2  0
 23 24  1  0
  3 25  2  0
 25 26  1  0
 26 27  2  0
 27 28  1  0
 28 29  2  0
 29 30  1  0
 30 31  2  0
 31  1  1  0
 24  4  2  0
 30 25  1  0
 24  7  1  0
 21 10  1  0
 19 15  1  0
  1 32  1  0
  2 33  1  0
  5 34  1  0
  8 35  1  0
 11 36  1  0
 12 37  1  0
 15 38  1  6
 16 39  1  0
 16 40  1  0
 17 41  1  0
 17 42  1  0
 18 43  1  0
 19 44  1  0
 19 45  1  0
 20 46  1  0
 22 47  1  0
 26 48  1  0
 27 49  1  0
 28 50  1  0
 31 51  1  0
M  END
$$$$
