
     RDKit          3D

 56 58  0  0  0  0  0  0  0  0999 V2000
   -3.2589    1.8734   -2.6752 C   0  0  0  0  0  0  0  0  0  0  0  0
   -2.8312    1.4785   -1.2916 C   0  0  0  0  0  0  0  0  0  0  0  0
   -3.7666    0.4623   -0.6725 C   0  0  0  0  0  0  0  0  0  0  0  0
   -5.1780    1.0033   -0.5635 C   0  0  0  0  0  0  0  0  0  0  0  0
   -6.0469   -0.0347    0.0489 C   0  0  0  0  0  0  0  0  0  0  0  0
   -6.7131   -0.9632   -0.7324 C   0  0  0  0  0  0  0  0  0  0  0  0
   -7.5284   -1.9422   -0.2056 C   0  0  0  0  0  0  0  0  0  0  0  0
   -7.6807   -1.9902    1.1642 C   0  0  0  0  0  0  0  0  0  0  0  0
   -8.4989   -2.9648    1.7666 O   0  0  0  0  0  0  0  0  0  0  0  0
   -7.0162   -1.0641    1.9430 C   0  0  0  0  0  0  0  0  0  0  0  0
   -6.2001   -0.0836    1.4197 C   0  0  0  0  0  0  0  0  0  0  0  0
   -1.5076    1.0477   -1.2012 O   0  0  0  0  0  0  0  0  0  0  0  0
   -0.5247    1.6735   -0.4581 C   0  0  0  0  0  0  0  0  0  0  0  0
   -0.8436    2.6969    0.1775 O   0  0  0  0  0  0  0  0  0  0  0  0
    0.8217    1.1142   -0.4526 C   0  0  0  0  0  0  0  0  0  0  0  0
    1.1210   -0.0230   -1.1753 C   0  0  0  0  0  0  0  0  0  0  0  0
    2.3786   -0.5768   -1.1917 C   0  0  0  0  0  0  0  0  0  0  0  0
    2.6319   -1.7250   -1.9362 O   0  0  0  0  0  0  0  0  0  0  0  0
    3.4292   -0.0044   -0.4653 C   0  0  0  0  0  0  0  0  0  0  0  0
    4.7563   -0.5471   -0.5905 C   0  0  0  0  0  0  0  0  0  0  0  0
    4.9651   -1.1957   -1.6940 O   0  0  0  0  0  0  0  0  0  0  0  0
    5.8802   -0.4715    0.3070 C   0  0  0  0  0  0  0  0  0  0  0  0
    7.1581   -0.2967   -0.2853 C   0  0  0  0  0  0  0  0  0  0  0  0
    7.2087   -0.1878   -1.6832 O   0  0  0  0  0  0  0  0  0  0  0  0
    8.2855   -0.2377    0.4775 C   0  0  0  0  0  0  0  0  0  0  0  0
    8.2087   -0.3469    1.8431 C   0  0  0  0  0  0  0  0  0  0  0  0
    6.9983   -0.5203    2.4566 C   0  0  0  0  0  0  0  0  0  0  0  0
    5.8325   -0.5851    1.6682 C   0  0  0  0  0  0  0  0  0  0  0  0
    4.5991   -1.0031    2.3707 C   0  0  0  0  0  0  0  0  0  0  0  0
    4.6202   -0.9677    3.6371 O   0  0  0  0  0  0  0  0  0  0  0  0
    3.4442   -1.4318    1.7824 O   0  0  0  0  0  0  0  0  0  0  0  0
    3.1412    1.1404    0.2642 C   0  0  0  0  0  0  0  0  0  0  0  0
    4.1649    1.7303    0.9858 O   0  0  0  0  0  0  0  0  0  0  0  0
    1.8588    1.6710    0.2575 C   0  0  0  0  0  0  0  0  0  0  0  0
   -3.2133    1.0394   -3.3979 H   0  0  0  0  0  0  0  0  0  0  0  0
   -2.5566    2.6666   -3.0192 H   0  0  0  0  0  0  0  0  0  0  0  0
   -4.2522    2.3432   -2.6197 H   0  0  0  0  0  0  0  0  0  0  0  0
   -2.9168    2.4028   -0.6567 H   0  0  0  0  0  0  0  0  0  0  0  0
   -3.4282    0.2157    0.3538 H   0  0  0  0  0  0  0  0  0  0  0  0
   -3.7362   -0.4686   -1.2740 H   0  0  0  0  0  0  0  0  0  0  0  0
   -5.1783    1.8674    0.1313 H   0  0  0  0  0  0  0  0  0  0  0  0
   -5.6118    1.2609   -1.5372 H   0  0  0  0  0  0  0  0  0  0  0  0
   -6.5561   -0.8780   -1.8075 H   0  0  0  0  0  0  0  0  0  0  0  0
   -8.0269   -2.6439   -0.8553 H   0  0  0  0  0  0  0  0  0  0  0  0
   -9.2225   -3.3849    1.1633 H   0  0  0  0  0  0  0  0  0  0  0  0
   -7.1627   -1.1350    3.0269 H   0  0  0  0  0  0  0  0  0  0  0  0
   -5.6893    0.6341    2.0737 H   0  0  0  0  0  0  0  0  0  0  0  0
    0.3513   -0.5097   -1.7556 H   0  0  0  0  0  0  0  0  0  0  0  0
    2.6964   -1.6988   -2.9500 H   0  0  0  0  0  0  0  0  0  0  0  0
    6.6048    0.4729   -2.1526 H   0  0  0  0  0  0  0  0  0  0  0  0
    9.2342   -0.1033   -0.0243 H   0  0  0  0  0  0  0  0  0  0  0  0
    9.1030   -0.2996    2.4810 H   0  0  0  0  0  0  0  0  0  0  0  0
    6.9325   -0.6073    3.5423 H   0  0  0  0  0  0  0  0  0  0  0  0
    3.0233   -2.3003    2.1426 H   0  0  0  0  0  0  0  0  0  0  0  0
    4.0141    1.8460    1.9814 H   0  0  0  0  0  0  0  0  0  0  0  0
    1.6820    2.5523    0.8341 H   0  0  0  0  0  0  0  0  0  0  0  0
  1  2  1  0
  2  3  1  0
  3  4  1  0
  4  5  1  0
  5  6  2  0
  6  7  1  0
  7  8  2  0
  8  9  1  0
  8 10  1  0
 10 11  2  0
  2 12  1  0
 12 13  1  0
 13 14  2  0
 13 15  1  0
 15 16  2  0
 16 17  1  0
 17 18  1  0
 17 19  2  0
 19 20  1  0
 20 21  2  0
 20 22  1  0
 22 23  2  0
 23 24  1  0
 23 25  1  0
 25 26  2  0
 26 27  1  0
 27 28  2  0
 28 29  1  0
 29 30  2  0
 29 31  1  0
 19 32  1  0
 32 33  1  0
 32 34  2  0
 11  5  1  0
 34 15  1  0
 28 22  1  0
  1 35  1  0
  1 36  1  0
  1 37  1  0
  2 38  1  0
  3 39  1  0
  3 40  1  0
  4 41  1  0
  4 42  1  0
  6 43  1  0
  7 44  1  0
  9 45  1  0
 10 46  1  0
 11 47  1  0
 16 48  1  0
 18 49  1  0
 24 50  1  0
 25 51  1  0
 26 52  1  0
 27 53  1  0
 31 54  1  0
 33 55  1  0
 34 56  1  0
M  END
$$$$
