
     RDKit          3D

 39 43  0  0  0  0  0  0  0  0999 V2000
    2.6002   -3.0839   -0.5834 N   0  0  0  0  0  0  0  0  0  0  0  0
    3.1332   -2.1372   -0.1828 C   0  0  0  0  0  0  0  0  0  0  0  0
    3.8249   -0.9597    0.3171 C   0  0  0  0  0  0  0  0  0  0  0  0
    5.1695   -0.9860    0.5821 C   0  0  0  0  0  0  0  0  0  0  0  0
    5.8605    0.1076    1.0548 C   0  0  0  0  0  0  0  0  0  0  0  0
    5.1470    1.2638    1.2620 C   0  0  0  0  0  0  0  0  0  0  0  0
    3.7799    1.2846    0.9913 C   0  0  0  0  0  0  0  0  0  0  0  0
    3.1059    2.5259    1.2674 C   0  0  0  0  0  0  0  0  0  0  0  0
    2.5753    3.5461    1.4921 N   0  0  0  0  0  0  0  0  0  0  0  0
    3.0920    0.2094    0.5237 C   0  0  0  0  0  0  0  0  0  0  0  0
    1.6480    0.1745    0.2374 C   0  0  0  0  0  0  0  0  0  0  0  0
    0.9689   -0.9792   -0.0567 N   0  0  0  0  0  0  0  0  0  0  0  0
   -0.3302   -0.7126   -0.2441 C   0  0  0  0  0  0  0  0  0  0  0  0
   -1.4390   -1.4781   -0.5543 C   0  0  0  0  0  0  0  0  0  0  0  0
   -1.2479   -2.8375   -0.7267 C   0  0  0  0  0  0  0  0  0  0  0  0
   -2.3443   -3.6220   -1.0377 C   0  0  0  0  0  0  0  0  0  0  0  0
   -3.6072   -3.0717   -1.1757 C   0  0  0  0  0  0  0  0  0  0  0  0
   -3.7823   -1.6964   -0.9980 C   0  0  0  0  0  0  0  0  0  0  0  0
   -2.6902   -0.9177   -0.6886 C   0  0  0  0  0  0  0  0  0  0  0  0
   -2.8481    0.4390   -0.5108 C   0  0  0  0  0  0  0  0  0  0  0  0
   -4.0821    1.0321   -0.6374 C   0  0  0  0  0  0  0  0  0  0  0  0
   -4.2396    2.4121   -0.4561 C   0  0  0  0  0  0  0  0  0  0  0  0
   -5.8057    3.1724   -0.6154 Cl  0  0  0  0  0  0  0  0  0  0  0  0
   -3.1525    3.1992   -0.1465 C   0  0  0  0  0  0  0  0  0  0  0  0
   -1.9173    2.5897   -0.0222 C   0  0  0  0  0  0  0  0  0  0  0  0
   -1.7451    1.2391   -0.1964 C   0  0  0  0  0  0  0  0  0  0  0  0
   -0.5174    0.6364   -0.0726 C   0  0  0  0  0  0  0  0  0  0  0  0
    0.7305    1.1283    0.2204 N   0  0  0  0  0  0  0  0  0  0  0  0
    5.7194   -1.9125    0.4121 H   0  0  0  0  0  0  0  0  0  0  0  0
    6.9186    0.1093    1.2698 H   0  0  0  0  0  0  0  0  0  0  0  0
    5.6361    2.1596    1.6336 H   0  0  0  0  0  0  0  0  0  0  0  0
   -0.2575   -3.2441   -0.6147 H   0  0  0  0  0  0  0  0  0  0  0  0
   -2.2160   -4.6934   -1.1775 H   0  0  0  0  0  0  0  0  0  0  0  0
   -4.4409   -3.7076   -1.4181 H   0  0  0  0  0  0  0  0  0  0  0  0
   -4.7878   -1.3485   -1.1214 H   0  0  0  0  0  0  0  0  0  0  0  0
   -4.9910    0.5153   -0.8749 H   0  0  0  0  0  0  0  0  0  0  0  0
   -3.2319    4.2639    0.0007 H   0  0  0  0  0  0  0  0  0  0  0  0
   -1.0831    3.2322    0.2211 H   0  0  0  0  0  0  0  0  0  0  0  0
    0.8474    2.1479    0.3826 H   0  0  0  0  0  0  0  0  0  0  0  0
  1  2  3  0
  2  3  1  0
  3  4  2  0
  4  5  1  0
  5  6  2  0
  6  7  1  0
  7  8  1  0
  8  9  3  0
  7 10  2  0
 10 11  1  0
 11 12  2  0
 12 13  1  0
 13 14  2  0
 14 15  1  0
 15 16  2  0
 16 17  1  0
 17 18  2  0
 18 19  1  0
 19 20  2  0
 20 21  1  0
 21 22  2  0
 22 23  1  0
 22 24  1  0
 24 25  2  0
 25 26  1  0
 26 27  2  0
 27 28  1  0
 10  3  1  0
 28 11  1  0
 27 13  1  0
 19 14  1  0
 26 20  1  0
  4 29  1  0
  5 30  1  0
  6 31  1  0
 15 32  1  0
 16 33  1  0
 17 34  1  0
 18 35  1  0
 21 36  1  0
 24 37  1  0
 25 38  1  0
 28 39  1  0
M  END
$$$$
