
     RDKit          3D

 53 58  0  0  0  0  0  0  0  0999 V2000
   -3.7447    1.6117    1.9533 C   0  0  0  0  0  0  0  0  0  0  0  0
   -3.3111    0.4292    1.1259 C   0  0  0  0  0  0  0  0  0  0  0  0
   -4.0603   -0.4890    0.5350 N   0  0  0  0  0  0  0  0  0  0  0  0
   -3.3229   -1.3759   -0.1045 N   0  0  0  0  0  0  0  0  0  0  0  0
   -3.7437   -2.5210   -0.8661 C   0  0  0  0  0  0  0  0  0  0  0  0
   -4.3256   -2.2281   -2.2175 C   0  0  0  0  0  0  0  0  0  0  0  0
   -5.3127   -3.1933   -1.9755 O   0  0  0  0  0  0  0  0  0  0  0  0
   -5.1793   -2.9390   -0.6063 C   0  0  0  0  0  0  0  0  0  0  0  0
   -2.0344   -1.0066    0.0873 C   0  0  0  0  0  0  0  0  0  0  0  0
   -1.9922    0.1322    0.8609 C   0  0  0  0  0  0  0  0  0  0  0  0
   -0.5823    0.5613    1.0657 C   0  0  0  0  0  0  0  0  0  0  0  0
   -0.3768    1.9223    0.4635 C   0  0  0  0  0  0  0  0  0  0  0  0
   -0.2776    2.0597   -0.9246 C   0  0  0  0  0  0  0  0  0  0  0  0
   -0.1010    3.3062   -1.4987 C   0  0  0  0  0  0  0  0  0  0  0  0
   -0.0181    4.4466   -0.7185 C   0  0  0  0  0  0  0  0  0  0  0  0
    0.2050    6.0187   -1.4504 Cl  0  0  0  0  0  0  0  0  0  0  0  0
   -0.1153    4.3174    0.6508 C   0  0  0  0  0  0  0  0  0  0  0  0
   -0.2920    3.0598    1.2051 C   0  0  0  0  0  0  0  0  0  0  0  0
    0.2406   -0.4468    0.4014 N   0  0  0  0  0  0  0  0  0  0  0  0
    1.6762   -0.4592    0.3873 C   0  0  0  0  0  0  0  0  0  0  0  0
    2.3811    0.5073    1.0923 C   0  0  0  0  0  0  0  0  0  0  0  0
    3.7794    0.4792    1.0574 C   0  0  0  0  0  0  0  0  0  0  0  0
    4.5497    1.4931    1.7963 C   0  0  0  0  0  0  0  0  0  0  0  0
    4.4544   -0.4802    0.3439 C   0  0  0  0  0  0  0  0  0  0  0  0
    5.7607   -0.7079    0.1630 N   0  0  0  0  0  0  0  0  0  0  0  0
    5.9178   -1.7811   -0.6290 N   0  0  0  0  0  0  0  0  0  0  0  0
    4.6714   -2.1887   -0.9166 C   0  0  0  0  0  0  0  0  0  0  0  0
    4.3456   -3.3714   -1.7843 C   0  0  0  0  0  0  0  0  0  0  0  0
    3.7529   -1.4031   -0.3287 N   0  0  0  0  0  0  0  0  0  0  0  0
    2.3839   -1.3839   -0.3009 C   0  0  0  0  0  0  0  0  0  0  0  0
   -0.6619   -1.3553   -0.1927 C   0  0  0  0  0  0  0  0  0  0  0  0
   -0.3401   -2.3523   -0.8843 O   0  0  0  0  0  0  0  0  0  0  0  0
   -4.1793    2.4056    1.3306 H   0  0  0  0  0  0  0  0  0  0  0  0
   -4.5570    1.2273    2.6324 H   0  0  0  0  0  0  0  0  0  0  0  0
   -2.9369    1.9477    2.6201 H   0  0  0  0  0  0  0  0  0  0  0  0
   -3.0240   -3.3552   -0.9168 H   0  0  0  0  0  0  0  0  0  0  0  0
   -3.7231   -2.5422   -3.0916 H   0  0  0  0  0  0  0  0  0  0  0  0
   -4.7456   -1.2106   -2.3531 H   0  0  0  0  0  0  0  0  0  0  0  0
   -5.2525   -3.8513    0.0393 H   0  0  0  0  0  0  0  0  0  0  0  0
   -5.7730   -2.0769   -0.2704 H   0  0  0  0  0  0  0  0  0  0  0  0
   -0.3084    0.6218    2.1299 H   0  0  0  0  0  0  0  0  0  0  0  0
   -0.3424    1.1775   -1.5161 H   0  0  0  0  0  0  0  0  0  0  0  0
   -0.0281    3.3746   -2.5793 H   0  0  0  0  0  0  0  0  0  0  0  0
   -0.0489    5.2152    1.2444 H   0  0  0  0  0  0  0  0  0  0  0  0
   -0.3619    3.0142    2.2796 H   0  0  0  0  0  0  0  0  0  0  0  0
    1.8749    1.2676    1.6638 H   0  0  0  0  0  0  0  0  0  0  0  0
    5.3328    0.9706    2.3969 H   0  0  0  0  0  0  0  0  0  0  0  0
    5.1012    2.1056    1.0557 H   0  0  0  0  0  0  0  0  0  0  0  0
    3.9049    2.1135    2.4545 H   0  0  0  0  0  0  0  0  0  0  0  0
    4.3902   -4.3095   -1.1895 H   0  0  0  0  0  0  0  0  0  0  0  0
    3.3550   -3.2275   -2.2501 H   0  0  0  0  0  0  0  0  0  0  0  0
    5.0956   -3.3717   -2.6035 H   0  0  0  0  0  0  0  0  0  0  0  0
    1.9001   -2.1585   -0.8673 H   0  0  0  0  0  0  0  0  0  0  0  0
  1  2  1  0
  2  3  2  0
  3  4  1  0
  4  5  1  0
  5  6  1  0
  6  7  1  0
  7  8  1  0
  4  9  1  0
  9 10  2  0
 10 11  1  0
 11 12  1  0
 12 13  2  0
 13 14  1  0
 14 15  2  0
 15 16  1  0
 15 17  1  0
 17 18  2  0
 11 19  1  0
 19 20  1  0
 20 21  1  0
 21 22  2  0
 22 23  1  0
 22 24  1  0
 24 25  2  0
 25 26  1  0
 26 27  2  0
 27 28  1  0
 27 29  1  0
 29 30  1  0
 19 31  1  0
 31 32  2  0
 10  2  1  0
 18 12  1  0
 30 20  2  0
  8  5  1  0
 31  9  1  0
 29 24  1  0
  1 33  1  0
  1 34  1  0
  1 35  1  0
  5 36  1  0
  6 37  1  0
  6 38  1  0
  8 39  1  0
  8 40  1  0
 11 41  1  0
 13 42  1  0
 14 43  1  0
 17 44  1  0
 18 45  1  0
 21 46  1  0
 23 47  1  0
 23 48  1  0
 23 49  1  0
 28 50  1  0
 28 51  1  0
 28 52  1  0
 30 53  1  0
M  END
$$$$
