
     RDKit          3D

 47 50  0  0  0  0  0  0  0  0999 V2000
   -3.1503   -1.6075   -0.7872 C   0  0  1  0  0  0  0  0  0  0  0  0
   -4.6350   -1.3898   -0.9809 C   0  0  0  0  0  0  0  0  0  0  0  0
   -5.3308   -2.4845   -0.4372 O   0  0  0  0  0  0  0  0  0  0  0  0
   -2.3747   -0.5793   -1.2921 O   0  0  0  0  0  0  0  0  0  0  0  0
   -1.1871   -0.5530   -0.6067 C   0  0  1  0  0  0  0  0  0  0  0  0
   -0.8255    0.7753   -0.1592 N   0  0  0  0  0  0  0  0  0  0  0  0
    0.4398    1.1632    0.1352 C   0  0  0  0  0  0  0  0  0  0  0  0
    1.6428    0.3951    0.0757 N   0  0  0  0  0  0  0  0  0  0  0  0
    2.9753    0.8962    0.4135 C   0  0  0  0  0  0  0  0  0  0  0  0
    4.0094   -0.1761    0.2395 C   0  0  0  0  0  0  0  0  0  0  0  0
    4.5912   -0.2522   -1.0153 C   0  0  0  0  0  0  0  0  0  0  0  0
    5.5534   -1.2024   -1.2813 C   0  0  0  0  0  0  0  0  0  0  0  0
    5.9312   -2.0700   -0.3006 C   0  0  0  0  0  0  0  0  0  0  0  0
    7.1502   -3.3193   -0.5380 Cl  0  0  0  0  0  0  0  0  0  0  0  0
    5.3451   -1.9865    0.9484 C   0  0  0  0  0  0  0  0  0  0  0  0
    5.8087   -3.0944    2.2467 Cl  0  0  0  0  0  0  0  0  0  0  0  0
    4.3666   -1.0373    1.2566 C   0  0  0  0  0  0  0  0  0  0  0  0
    0.4566    2.4545    0.5229 N   0  0  0  0  0  0  0  0  0  0  0  0
   -0.8025    2.9258    0.4858 C   0  0  0  0  0  0  0  0  0  0  0  0
   -1.4473    4.1340    0.7554 C   0  0  0  0  0  0  0  0  0  0  0  0
   -0.5857    5.1936    1.1932 N   0  0  0  0  0  0  0  0  0  0  0  0
   -2.7805    4.2364    0.5977 N   0  0  0  0  0  0  0  0  0  0  0  0
   -3.5147    3.1935    0.1829 C   0  0  0  0  0  0  0  0  0  0  0  0
   -2.9062    2.0086   -0.0849 N   0  0  0  0  0  0  0  0  0  0  0  0
   -1.5707    1.8739    0.0634 C   0  0  0  0  0  0  0  0  0  0  0  0
   -1.2808   -1.5317    0.5401 C   0  0  2  0  0  0  0  0  0  0  0  0
   -0.9099   -2.8062    0.0905 O   0  0  0  0  0  0  0  0  0  0  0  0
   -2.8061   -1.6090    0.6883 C   0  0  2  0  0  0  0  0  0  0  0  0
   -3.1999   -2.7728    1.3350 O   0  0  0  0  0  0  0  0  0  0  0  0
   -2.8197   -2.5729   -1.2198 H   0  0  0  0  0  0  0  0  0  0  0  0
   -4.9631   -0.5187   -0.3794 H   0  0  0  0  0  0  0  0  0  0  0  0
   -4.9096   -1.2948   -2.0399 H   0  0  0  0  0  0  0  0  0  0  0  0
   -4.8750   -3.3420   -0.6302 H   0  0  0  0  0  0  0  0  0  0  0  0
   -0.4119   -0.9699   -1.3141 H   0  0  0  0  0  0  0  0  0  0  0  0
    1.5634   -0.6067   -0.2345 H   0  0  0  0  0  0  0  0  0  0  0  0
    3.2200    1.8086   -0.1686 H   0  0  0  0  0  0  0  0  0  0  0  0
    3.0406    1.2035    1.4815 H   0  0  0  0  0  0  0  0  0  0  0  0
    4.3035    0.4365   -1.8237 H   0  0  0  0  0  0  0  0  0  0  0  0
    6.0342   -1.2889   -2.2666 H   0  0  0  0  0  0  0  0  0  0  0  0
    3.8953   -0.9520    2.2213 H   0  0  0  0  0  0  0  0  0  0  0  0
   -0.0436    5.0814    2.0864 H   0  0  0  0  0  0  0  0  0  0  0  0
   -0.5753    6.0228    0.5509 H   0  0  0  0  0  0  0  0  0  0  0  0
   -4.5853    3.3694    0.0843 H   0  0  0  0  0  0  0  0  0  0  0  0
   -0.7942   -1.2185    1.4575 H   0  0  0  0  0  0  0  0  0  0  0  0
   -0.3452   -2.7064   -0.7156 H   0  0  0  0  0  0  0  0  0  0  0  0
   -3.2080   -0.7017    1.1896 H   0  0  0  0  0  0  0  0  0  0  0  0
   -3.4889   -2.5280    2.2560 H   0  0  0  0  0  0  0  0  0  0  0  0
  1  2  1  0
  2  3  1  0
  1  4  1  0
  4  5  1  0
  5  6  1  0
  6  7  1  0
  7  8  1  0
  8  9  1  0
  9 10  1  0
 10 11  2  0
 11 12  1  0
 12 13  2  0
 13 14  1  0
 13 15  1  0
 15 16  1  0
 15 17  2  0
  7 18  2  0
 18 19  1  0
 19 20  2  0
 20 21  1  0
 20 22  1  0
 22 23  2  0
 23 24  1  0
 24 25  2  0
  5 26  1  0
 26 27  1  0
 26 28  1  0
 28 29  1  0
 28  1  1  0
 25  6  1  0
 17 10  1  0
 25 19  1  0
  1 30  1  6
  2 31  1  0
  2 32  1  0
  3 33  1  0
  5 34  1  6
  8 35  1  0
  9 36  1  0
  9 37  1  0
 11 38  1  0
 12 39  1  0
 17 40  1  0
 21 41  1  0
 21 42  1  0
 23 43  1  0
 26 44  1  1
 27 45  1  0
 28 46  1  1
 29 47  1  0
M  END
$$$$
