
     RDKit          3D

 49 53  0  0  0  0  0  0  0  0999 V2000
   -7.9782    0.2894    0.5383 C   0  0  0  0  0  0  0  0  0  0  0  0
   -6.7952   -0.5204    1.0501 C   0  0  0  0  0  0  0  0  0  0  0  0
   -7.3980   -1.7707    1.6950 C   0  0  0  0  0  0  0  0  0  0  0  0
   -5.9642   -0.8203   -0.0008 O   0  0  0  0  0  0  0  0  0  0  0  0
   -4.6328   -0.5085   -0.0755 C   0  0  0  0  0  0  0  0  0  0  0  0
   -3.9387    0.1428    0.8808 C   0  0  0  0  0  0  0  0  0  0  0  0
   -2.5758    0.4124    0.7037 C   0  0  0  0  0  0  0  0  0  0  0  0
   -1.8751    0.0437   -0.4209 C   0  0  0  0  0  0  0  0  0  0  0  0
   -0.4610    0.3233   -0.6008 C   0  0  0  0  0  0  0  0  0  0  0  0
    0.3653    0.3513    0.5140 C   0  0  0  0  0  0  0  0  0  0  0  0
    1.6764    0.6073    0.3537 N   0  0  0  0  0  0  0  0  0  0  0  0
    2.2325    0.8406   -0.8516 C   0  0  0  0  0  0  0  0  0  0  0  0
    3.5278    1.1218   -1.2732 C   0  0  0  0  0  0  0  0  0  0  0  0
    4.6684    1.2305   -0.3763 C   0  0  0  0  0  0  0  0  0  0  0  0
    5.0012    2.4489    0.1757 C   0  0  0  0  0  0  0  0  0  0  0  0
    6.0918    2.5531    1.0323 C   0  0  0  0  0  0  0  0  0  0  0  0
    6.8166    1.4561    1.3163 N   0  0  0  0  0  0  0  0  0  0  0  0
    6.5362    0.2619    0.8103 C   0  0  0  0  0  0  0  0  0  0  0  0
    7.3096   -0.8291    1.1331 C   0  0  0  0  0  0  0  0  0  0  0  0
    6.9726   -2.0450    0.5789 C   0  0  0  0  0  0  0  0  0  0  0  0
    5.8973   -2.1533   -0.2675 C   0  0  0  0  0  0  0  0  0  0  0  0
    5.1078   -1.0752   -0.6058 C   0  0  0  0  0  0  0  0  0  0  0  0
    5.4511    0.1437   -0.0459 C   0  0  0  0  0  0  0  0  0  0  0  0
    3.4787    1.2631   -2.6445 C   0  0  0  0  0  0  0  0  0  0  0  0
    2.2075    1.0728   -3.0130 N   0  0  0  0  0  0  0  0  0  0  0  0
    1.4509    0.8184   -1.9443 N   0  0  0  0  0  0  0  0  0  0  0  0
    0.1235    0.5637   -1.8232 C   0  0  0  0  0  0  0  0  0  0  0  0
   -2.6085   -0.6220   -1.3856 C   0  0  0  0  0  0  0  0  0  0  0  0
   -3.9330   -0.8936   -1.2328 C   0  0  0  0  0  0  0  0  0  0  0  0
   -7.6976    1.3566    0.4643 H   0  0  0  0  0  0  0  0  0  0  0  0
   -8.2460   -0.1345   -0.4540 H   0  0  0  0  0  0  0  0  0  0  0  0
   -8.8147    0.2142    1.2664 H   0  0  0  0  0  0  0  0  0  0  0  0
   -6.2972    0.0200    1.8456 H   0  0  0  0  0  0  0  0  0  0  0  0
   -8.2689   -2.0508    1.0775 H   0  0  0  0  0  0  0  0  0  0  0  0
   -6.6833   -2.6100    1.6959 H   0  0  0  0  0  0  0  0  0  0  0  0
   -7.7716   -1.5478    2.7113 H   0  0  0  0  0  0  0  0  0  0  0  0
   -4.4242    0.4727    1.8109 H   0  0  0  0  0  0  0  0  0  0  0  0
   -2.0923    0.9319    1.5044 H   0  0  0  0  0  0  0  0  0  0  0  0
   -0.0870    0.1634    1.4819 H   0  0  0  0  0  0  0  0  0  0  0  0
    4.4243    3.3288   -0.0478 H   0  0  0  0  0  0  0  0  0  0  0  0
    6.3984    3.4801    1.4928 H   0  0  0  0  0  0  0  0  0  0  0  0
    8.1624   -0.7758    1.7965 H   0  0  0  0  0  0  0  0  0  0  0  0
    7.5320   -2.9540    0.7836 H   0  0  0  0  0  0  0  0  0  0  0  0
    5.6382   -3.1109   -0.7004 H   0  0  0  0  0  0  0  0  0  0  0  0
    4.2541   -1.1502   -1.2752 H   0  0  0  0  0  0  0  0  0  0  0  0
    4.3619    1.4902   -3.2494 H   0  0  0  0  0  0  0  0  0  0  0  0
   -0.5048    0.5442   -2.6872 H   0  0  0  0  0  0  0  0  0  0  0  0
   -2.1444   -0.9600   -2.3214 H   0  0  0  0  0  0  0  0  0  0  0  0
   -4.4939   -1.4144   -1.9940 H   0  0  0  0  0  0  0  0  0  0  0  0
  1  2  1  0
  2  3  1  0
  2  4  1  0
  4  5  1  0
  5  6  2  0
  6  7  1  0
  7  8  2  0
  8  9  1  0
  9 10  1  0
 10 11  2  0
 11 12  1  0
 12 13  2  0
 13 14  1  0
 14 15  2  0
 15 16  1  0
 16 17  2  0
 17 18  1  0
 18 19  2  0
 19 20  1  0
 20 21  2  0
 21 22  1  0
 22 23  2  0
 13 24  1  0
 24 25  2  0
 25 26  1  0
 26 27  1  0
  8 28  1  0
 28 29  2  0
 29  5  1  0
 27  9  2  0
 26 12  1  0
 23 14  1  0
 23 18  1  0
  1 30  1  0
  1 31  1  0
  1 32  1  0
  2 33  1  0
  3 34  1  0
  3 35  1  0
  3 36  1  0
  6 37  1  0
  7 38  1  0
 10 39  1  0
 15 40  1  0
 16 41  1  0
 19 42  1  0
 20 43  1  0
 21 44  1  0
 22 45  1  0
 24 46  1  0
 27 47  1  0
 28 48  1  0
 29 49  1  0
M  END
$$$$
