
     RDKit          3D

 46 50  0  0  0  0  0  0  0  0999 V2000
    6.7702   -0.5697   -3.8021 N   0  0  0  0  0  0  0  0  0  0  0  0
    6.0304   -0.6531   -2.9653 C   0  0  0  0  0  0  0  0  0  0  0  0
    5.0588   -0.7370   -1.8648 C   0  0  0  0  0  0  0  0  0  0  0  0
    4.7263    0.4118   -1.1951 C   0  0  0  0  0  0  0  0  0  0  0  0
    3.8623    0.3628   -0.1718 N   0  0  0  0  0  0  0  0  0  0  0  0
    3.3271   -0.8149    0.1891 C   0  0  0  0  0  0  0  0  0  0  0  0
    2.4297   -0.8958    1.2658 C   0  0  0  0  0  0  0  0  0  0  0  0
    2.0989    0.3116    1.9377 N   0  0  0  0  0  0  0  0  0  0  0  0
    0.8941    1.0141    1.7013 C   0  0  0  0  0  0  0  0  0  0  0  0
    0.7187    2.2712    2.2342 C   0  0  0  0  0  0  0  0  0  0  0  0
   -0.4751    2.9140    1.9880 C   0  0  0  0  0  0  0  0  0  0  0  0
   -1.4640    2.3056    1.2260 C   0  0  0  0  0  0  0  0  0  0  0  0
   -2.9658    3.1401    0.9319 Cl  0  0  0  0  0  0  0  0  0  0  0  0
   -1.2841    1.0246    0.6846 C   0  0  0  0  0  0  0  0  0  0  0  0
   -2.4021    0.4505   -0.0943 C   0  0  1  0  0  0  0  0  0  0  0  0
   -2.0986   -0.9765   -0.5241 C   0  0  0  0  0  0  0  0  0  0  0  0
   -1.0090   -1.0939   -1.3283 F   0  0  0  0  0  0  0  0  0  0  0  0
   -3.5331    0.3844    0.7943 N   0  0  0  0  0  0  0  0  0  0  0  0
   -4.7239    0.2730    0.3433 C   0  0  0  0  0  0  0  0  0  0  0  0
   -5.8368    0.2074    1.2201 N   0  0  0  0  0  0  0  0  0  0  0  0
   -4.8534    0.2209   -1.0607 O   0  0  0  0  0  0  0  0  0  0  0  0
   -4.1010    1.1606   -1.8299 C   0  0  2  0  0  0  0  0  0  0  0  0
   -2.9083    0.6610   -2.6277 C   0  0  0  0  0  0  0  0  0  0  0  0
   -2.7356    1.3067   -1.3003 C   0  0  2  0  0  0  0  0  0  0  0  0
   -0.0959    0.3992    0.9363 C   0  0  0  0  0  0  0  0  0  0  0  0
    1.8966   -2.0423    1.6501 N   0  0  0  0  0  0  0  0  0  0  0  0
    2.2218   -3.1905    0.9858 C   0  0  0  0  0  0  0  0  0  0  0  0
    3.0968   -3.1664   -0.0767 C   0  0  0  0  0  0  0  0  0  0  0  0
    3.4018   -4.3255   -0.7196 F   0  0  0  0  0  0  0  0  0  0  0  0
    3.6501   -1.9916   -0.4778 C   0  0  0  0  0  0  0  0  0  0  0  0
    4.5412   -1.9680   -1.5392 C   0  0  0  0  0  0  0  0  0  0  0  0
    5.1831    1.3644   -1.5167 H   0  0  0  0  0  0  0  0  0  0  0  0
    2.7719    0.6934    2.6287 H   0  0  0  0  0  0  0  0  0  0  0  0
    1.5321    2.6806    2.8164 H   0  0  0  0  0  0  0  0  0  0  0  0
   -0.6249    3.9002    2.4020 H   0  0  0  0  0  0  0  0  0  0  0  0
   -1.9733   -1.5580    0.4418 H   0  0  0  0  0  0  0  0  0  0  0  0
   -2.9861   -1.4113   -0.9994 H   0  0  0  0  0  0  0  0  0  0  0  0
   -6.7243   -0.2244    0.9176 H   0  0  0  0  0  0  0  0  0  0  0  0
   -5.7501    0.5996    2.1706 H   0  0  0  0  0  0  0  0  0  0  0  0
   -4.6158    2.0667   -2.2294 H   0  0  0  0  0  0  0  0  0  0  0  0
   -2.8801   -0.4255   -2.7721 H   0  0  0  0  0  0  0  0  0  0  0  0
   -2.6456    1.2214   -3.5377 H   0  0  0  0  0  0  0  0  0  0  0  0
   -2.1859    2.2699   -1.3296 H   0  0  0  0  0  0  0  0  0  0  0  0
    0.0707   -0.5967    0.5345 H   0  0  0  0  0  0  0  0  0  0  0  0
    1.7734   -4.1121    1.3191 H   0  0  0  0  0  0  0  0  0  0  0  0
    4.8167   -2.8626   -2.0826 H   0  0  0  0  0  0  0  0  0  0  0  0
  1  2  3  0
  2  3  1  0
  3  4  2  0
  4  5  1  0
  5  6  2  0
  6  7  1  0
  7  8  1  0
  8  9  1  0
  9 10  2  0
 10 11  1  0
 11 12  2  0
 12 13  1  0
 12 14  1  0
 14 15  1  0
 15 16  1  6
 16 17  1  0
 15 18  1  0
 18 19  2  0
 19 20  1  0
 19 21  1  0
 21 22  1  0
 22 23  1  0
 23 24  1  0
 14 25  2  0
  7 26  2  0
 26 27  1  0
 27 28  2  0
 28 29  1  0
 28 30  1  0
 30 31  2  0
 31  3  1  0
 30  6  1  0
 25  9  1  0
 24 15  1  0
 24 22  1  0
  4 32  1  0
  8 33  1  0
 10 34  1  0
 11 35  1  0
 16 36  1  0
 16 37  1  0
 20 38  1  0
 20 39  1  0
 22 40  1  6
 23 41  1  0
 23 42  1  0
 24 43  1  6
 25 44  1  0
 27 45  1  0
 31 46  1  0
M  END
$$$$
