
     RDKit          3D

 17 16  0  0  0  0  0  0  0  0999 V2000
   -1.5077   -1.1325   -0.8059 C   0  0  0  0  0  0  0  0  0  0  0  0
   -0.5934   -0.1883   -0.0267 C   0  0  1  0  0  0  0  0  0  0  0  0
    0.4412    0.1244   -0.8750 O   0  0  0  0  0  0  0  0  0  0  0  0
    1.9654   -0.1742   -0.2918 P   0  0  0  0  0  0  0  0  0  0  0  0
    2.7174    1.3167    0.0093 O   0  0  0  0  0  0  0  0  0  0  0  0
    2.0768   -1.1325    1.0569 O   0  0  0  0  0  0  0  0  0  0  0  0
    2.7575   -0.8620   -1.3829 O   0  0  0  0  0  0  0  0  0  0  0  0
   -1.3810    1.0697    0.1760 C   0  0  0  0  0  0  0  0  0  0  0  0
   -2.5222    1.1831    0.9760 O   0  0  0  0  0  0  0  0  0  0  0  0
   -1.1619    2.2195   -0.3246 O   0  0  0  0  0  0  0  0  0  0  0  0
   -1.8857   -0.5405   -1.6642 H   0  0  0  0  0  0  0  0  0  0  0  0
   -2.3211   -1.5005   -0.1611 H   0  0  0  0  0  0  0  0  0  0  0  0
   -0.8272   -1.9455   -1.1636 H   0  0  0  0  0  0  0  0  0  0  0  0
   -0.3289   -0.5992    0.9418 H   0  0  0  0  0  0  0  0  0  0  0  0
    3.7102    1.1853    0.0452 H   0  0  0  0  0  0  0  0  0  0  0  0
    1.4895   -0.9383    1.8066 H   0  0  0  0  0  0  0  0  0  0  0  0
   -2.6289    1.9149    1.6840 H   0  0  0  0  0  0  0  0  0  0  0  0
  1  2  1  0
  2  3  1  0
  3  4  1  0
  4  5  1  0
  4  6  1  0
  4  7  2  0
  2  8  1  0
  8  9  1  0
  8 10  2  0
  1 11  1  0
  1 12  1  0
  1 13  1  0
  2 14  1  1
  5 15  1  0
  6 16  1  0
  9 17  1  0
M  END
$$$$
