
     RDKit          3D

 43 46  0  0  0  0  0  0  0  0999 V2000
    3.0544    2.9767    2.2786 C   0  0  0  0  0  0  0  0  0  0  0  0
    4.1049    1.8929    2.3479 C   0  0  0  0  0  0  0  0  0  0  0  0
    4.0038    0.9760    1.2821 O   0  0  0  0  0  0  0  0  0  0  0  0
    2.8433    0.2340    1.0956 C   0  0  0  0  0  0  0  0  0  0  0  0
    1.9136    0.4267    1.9158 O   0  0  0  0  0  0  0  0  0  0  0  0
    2.7169   -0.7273   -0.0090 C   0  0  0  0  0  0  0  0  0  0  0  0
    3.6112   -1.0147   -0.9234 O   0  0  0  0  0  0  0  0  0  0  0  0
    3.1552   -1.9218   -1.7547 C   0  0  0  0  0  0  0  0  0  0  0  0
    3.7219   -2.5254   -2.8534 C   0  0  0  0  0  0  0  0  0  0  0  0
    2.9867   -3.4414   -3.5206 N   0  0  0  0  0  0  0  0  0  0  0  0
    1.7488   -3.7821   -3.1644 C   0  0  0  0  0  0  0  0  0  0  0  0
    1.1745   -3.1824   -2.0658 C   0  0  0  0  0  0  0  0  0  0  0  0
    1.8722   -2.2436   -1.3469 C   0  0  0  0  0  0  0  0  0  0  0  0
    1.5806   -1.4792   -0.2227 C   0  0  0  0  0  0  0  0  0  0  0  0
    0.3593   -1.5147    0.4990 N   0  0  0  0  0  0  0  0  0  0  0  0
   -0.7395   -0.6604    0.1772 C   0  0  0  0  0  0  0  0  0  0  0  0
   -0.6776    0.2488   -0.8541 C   0  0  0  0  0  0  0  0  0  0  0  0
   -1.7584    1.0795   -1.1599 C   0  0  0  0  0  0  0  0  0  0  0  0
   -2.9254    0.9947   -0.4139 C   0  0  0  0  0  0  0  0  0  0  0  0
   -2.9963    0.0961    0.6105 C   0  0  0  0  0  0  0  0  0  0  0  0
   -1.9065   -0.7269    0.9030 C   0  0  0  0  0  0  0  0  0  0  0  0
   -4.3361    0.2132    1.2233 C   0  0  0  0  0  0  0  0  0  0  0  0
   -4.7657    1.6078    0.8922 C   0  0  0  0  0  0  0  0  0  0  0  0
   -4.2101    1.7559   -0.5208 C   0  0  0  0  0  0  0  0  0  0  0  0
   -5.1394    1.1013   -1.3996 N   0  0  0  0  0  0  0  0  0  0  0  0
   -6.3071    1.3379   -1.1876 O   0  0  0  0  0  0  0  0  0  0  0  0
    2.0833    2.6475    2.7466 H   0  0  0  0  0  0  0  0  0  0  0  0
    2.9060    3.3803    1.2670 H   0  0  0  0  0  0  0  0  0  0  0  0
    3.4106    3.8144    2.9140 H   0  0  0  0  0  0  0  0  0  0  0  0
    5.0892    2.3992    2.2397 H   0  0  0  0  0  0  0  0  0  0  0  0
    4.0045    1.4010    3.3400 H   0  0  0  0  0  0  0  0  0  0  0  0
    4.7262   -2.2897   -3.1925 H   0  0  0  0  0  0  0  0  0  0  0  0
    1.1531   -4.5233   -3.7039 H   0  0  0  0  0  0  0  0  0  0  0  0
    0.1728   -3.4132   -1.7223 H   0  0  0  0  0  0  0  0  0  0  0  0
    0.2574   -2.1852    1.2907 H   0  0  0  0  0  0  0  0  0  0  0  0
    0.2470    0.2908   -1.4175 H   0  0  0  0  0  0  0  0  0  0  0  0
   -1.6334    1.7681   -1.9847 H   0  0  0  0  0  0  0  0  0  0  0  0
   -2.0004   -1.4196    1.7148 H   0  0  0  0  0  0  0  0  0  0  0  0
   -5.0017   -0.5047    0.6996 H   0  0  0  0  0  0  0  0  0  0  0  0
   -4.2861    0.0209    2.3144 H   0  0  0  0  0  0  0  0  0  0  0  0
   -5.8727    1.7433    0.8924 H   0  0  0  0  0  0  0  0  0  0  0  0
   -4.2855    2.3425    1.5673 H   0  0  0  0  0  0  0  0  0  0  0  0
   -4.0556    2.8060   -0.7941 H   0  0  0  0  0  0  0  0  0  0  0  0
  1  2  1  0
  2  3  1  0
  3  4  1  0
  4  5  2  0
  4  6  1  0
  6  7  1  0
  7  8  1  0
  8  9  2  0
  9 10  1  0
 10 11  2  0
 11 12  1  0
 12 13  2  0
 13 14  1  0
 14 15  1  0
 15 16  1  0
 16 17  2  0
 17 18  1  0
 18 19  2  0
 19 20  1  0
 20 21  2  0
 20 22  1  0
 22 23  1  0
 23 24  1  0
 24 25  1  0
 25 26  2  0
 14  6  2  0
 21 16  1  0
 13  8  1  0
 24 19  1  0
  1 27  1  0
  1 28  1  0
  1 29  1  0
  2 30  1  0
  2 31  1  0
  9 32  1  0
 11 33  1  0
 12 34  1  0
 15 35  1  0
 17 36  1  0
 18 37  1  0
 21 38  1  0
 22 39  1  0
 22 40  1  0
 23 41  1  0
 23 42  1  0
 24 43  1  0
M  END
$$$$
