
     RDKit          3D

 37 39  0  0  0  0  0  0  0  0999 V2000
   -3.5828   -0.6484   -0.7640 C   0  0  0  0  0  0  0  0  0  0  0  0
   -2.7646   -0.6066    0.5153 C   0  0  0  0  0  0  0  0  0  0  0  0
   -2.7199   -2.0019    1.0713 C   0  0  0  0  0  0  0  0  0  0  0  0
   -3.4409    0.3693    1.4450 C   0  0  0  0  0  0  0  0  0  0  0  0
   -1.4194   -0.1733    0.1752 N   0  0  0  0  0  0  0  0  0  0  0  0
   -0.3147   -0.6279    0.7296 N   0  0  0  0  0  0  0  0  0  0  0  0
    0.7617   -0.0070    0.1768 C   0  0  0  0  0  0  0  0  0  0  0  0
    2.1525   -0.2482    0.5067 C   0  0  0  0  0  0  0  0  0  0  0  0
    3.0616    0.7079    0.8631 C   0  0  0  0  0  0  0  0  0  0  0  0
    4.3690    0.3342    1.1215 C   0  0  0  0  0  0  0  0  0  0  0  0
    4.7795   -0.9789    1.0300 C   0  0  0  0  0  0  0  0  0  0  0  0
    6.4542   -1.4221    1.3660 Cl  0  0  0  0  0  0  0  0  0  0  0  0
    3.8605   -1.9320    0.6727 C   0  0  0  0  0  0  0  0  0  0  0  0
    2.5769   -1.5804    0.4163 C   0  0  0  0  0  0  0  0  0  0  0  0
    0.2632    0.8576   -0.7533 C   0  0  0  0  0  0  0  0  0  0  0  0
    0.8286    1.7533   -1.6473 C   0  0  0  0  0  0  0  0  0  0  0  0
    2.2529    1.8450   -1.6728 N   0  0  0  0  0  0  0  0  0  0  0  0
    0.0514    2.4672   -2.4535 N   0  0  0  0  0  0  0  0  0  0  0  0
   -1.2741    2.3411   -2.4242 C   0  0  0  0  0  0  0  0  0  0  0  0
   -1.8926    1.4972   -1.5909 N   0  0  0  0  0  0  0  0  0  0  0  0
   -1.1404    0.7578   -0.7603 C   0  0  0  0  0  0  0  0  0  0  0  0
   -3.9177    0.4138   -0.9421 H   0  0  0  0  0  0  0  0  0  0  0  0
   -2.9989   -1.0363   -1.6113 H   0  0  0  0  0  0  0  0  0  0  0  0
   -4.5102   -1.2246   -0.5742 H   0  0  0  0  0  0  0  0  0  0  0  0
   -2.1605   -2.6263    0.3435 H   0  0  0  0  0  0  0  0  0  0  0  0
   -3.7651   -2.3641    1.1564 H   0  0  0  0  0  0  0  0  0  0  0  0
   -2.2201   -2.0548    2.0454 H   0  0  0  0  0  0  0  0  0  0  0  0
   -3.0069    0.3742    2.4554 H   0  0  0  0  0  0  0  0  0  0  0  0
   -4.5267    0.1823    1.4201 H   0  0  0  0  0  0  0  0  0  0  0  0
   -3.2819    1.3876    0.9931 H   0  0  0  0  0  0  0  0  0  0  0  0
    2.7405    1.7466    0.9595 H   0  0  0  0  0  0  0  0  0  0  0  0
    5.1051    1.0737    1.4043 H   0  0  0  0  0  0  0  0  0  0  0  0
    4.1862   -2.9810    0.5994 H   0  0  0  0  0  0  0  0  0  0  0  0
    1.8670   -2.3522    0.1352 H   0  0  0  0  0  0  0  0  0  0  0  0
    2.8886    1.1378   -2.0783 H   0  0  0  0  0  0  0  0  0  0  0  0
    2.6750    2.6958   -1.2465 H   0  0  0  0  0  0  0  0  0  0  0  0
   -1.9370    2.9234   -3.0832 H   0  0  0  0  0  0  0  0  0  0  0  0
  1  2  1  0
  2  3  1  0
  2  4  1  0
  2  5  1  0
  5  6  1  0
  6  7  2  0
  7  8  1  0
  8  9  2  0
  9 10  1  0
 10 11  2  0
 11 12  1  0
 11 13  1  0
 13 14  2  0
  7 15  1  0
 15 16  2  0
 16 17  1  0
 16 18  1  0
 18 19  2  0
 19 20  1  0
 20 21  2  0
 21  5  1  0
 14  8  1  0
 21 15  1  0
  1 22  1  0
  1 23  1  0
  1 24  1  0
  3 25  1  0
  3 26  1  0
  3 27  1  0
  4 28  1  0
  4 29  1  0
  4 30  1  0
  9 31  1  0
 10 32  1  0
 13 33  1  0
 14 34  1  0
 17 35  1  0
 17 36  1  0
 19 37  1  0
M  END
$$$$
