
     RDKit          3D

 56 58  0  0  0  0  0  0  0  0999 V2000
    1.0677    0.1067    0.0089 C   0  0  0  0  0  0  0  0  0  0  0  0
   -0.5923   -0.5219    0.0574 S   0  0  0  0  0  0  0  0  0  0  0  0
   -1.6993    0.7399   -0.1022 O   0  0  0  0  0  0  0  0  0  0  0  0
   -0.8345   -1.4497   -1.1087 O   0  0  0  0  0  0  0  0  0  0  0  0
   -0.8753   -1.2632    1.3111 O   0  0  0  0  0  0  0  0  0  0  0  0
    7.7885   -1.3724    0.0377 N   0  0  0  0  0  0  0  0  0  0  0  0
    6.5090   -0.9570    0.5053 C   0  0  0  0  0  0  0  0  0  0  0  0
    5.7343   -0.2056   -0.3532 C   0  0  0  0  0  0  0  0  0  0  0  0
    5.8907    0.2658   -1.5951 N   0  0  0  0  0  0  0  0  0  0  0  0
    4.7630    0.9513   -1.9083 C   0  0  0  0  0  0  0  0  0  0  0  0
    3.8533    0.9430   -0.8876 N   0  0  0  0  0  0  0  0  0  0  0  0
    2.5683    1.5993   -0.9845 C   0  0  0  0  0  0  0  0  0  0  0  0
    1.4951    0.7560   -1.5603 C   0  0  0  0  0  0  0  0  0  0  0  0
    1.1143   -0.3766   -0.9644 O   0  0  0  0  0  0  0  0  0  0  0  0
    0.5875   -0.4024    0.2775 C   0  0  0  0  0  0  0  0  0  0  0  0
   -0.9373    0.5024    0.5360 P   0  0  1  0  0  5  0  0  0  0  0  0
   -1.0622    0.7530    2.0356 O   0  0  0  0  0  0  0  0  0  0  0  0
   -1.0726    1.9308   -0.3078 O   0  0  0  0  0  0  0  0  0  0  0  0
   -2.1666    1.8835   -1.1384 C   0  0  0  0  0  0  0  0  0  0  0  0
   -3.4690    1.5728   -0.4738 C   0  0  0  0  0  0  0  0  0  0  0  0
   -3.4234    0.3843    0.4277 C   0  0  2  0  0  0  0  0  0  0  0  0
   -2.3222   -0.4225    0.1332 O   0  0  0  0  0  0  0  0  0  0  0  0
   -4.6693   -0.3921    0.5062 C   0  0  0  0  0  0  0  0  0  0  0  0
   -4.4729   -1.5716    1.2335 C   0  0  0  0  0  0  0  0  0  0  0  0
   -5.5106   -2.4719    1.4442 C   0  0  0  0  0  0  0  0  0  0  0  0
   -5.3174   -3.9595    2.3458 Cl  0  0  0  0  0  0  0  0  0  0  0  0
   -6.7636   -2.2228    0.9390 C   0  0  0  0  0  0  0  0  0  0  0  0
   -6.9459   -1.0636    0.2273 C   0  0  0  0  0  0  0  0  0  0  0  0
   -5.9324   -0.1564    0.0058 C   0  0  0  0  0  0  0  0  0  0  0  0
    4.4886    0.2214    0.0500 C   0  0  0  0  0  0  0  0  0  0  0  0
    4.0664   -0.1067    1.2670 N   0  0  0  0  0  0  0  0  0  0  0  0
    4.8051   -0.8375    2.1187 C   0  0  0  0  0  0  0  0  0  0  0  0
    6.0300   -1.2675    1.7447 N   0  0  0  0  0  0  0  0  0  0  0  0
    1.3678    0.1573   -1.0561 H   0  0  0  0  0  0  0  0  0  0  0  0
    1.7665   -0.5124    0.6184 H   0  0  0  0  0  0  0  0  0  0  0  0
    1.0607    1.1240    0.4209 H   0  0  0  0  0  0  0  0  0  0  0  0
   -1.2612    1.6192   -0.1499 H   0  0  0  0  0  0  0  0  0  0  0  0
    8.4282   -0.7459    0.6051 H   0  0  0  0  0  0  0  0  0  0  0  0
    8.1645   -2.0635   -0.6464 H   0  0  0  0  0  0  0  0  0  0  0  0
    4.7075    1.4171   -2.9036 H   0  0  0  0  0  0  0  0  0  0  0  0
    2.7033    2.4729   -1.6613 H   0  0  0  0  0  0  0  0  0  0  0  0
    2.3178    2.0531   -0.0024 H   0  0  0  0  0  0  0  0  0  0  0  0
    0.5922    1.3732   -1.8221 H   0  0  0  0  0  0  0  0  0  0  0  0
    1.8728    0.4619   -2.5951 H   0  0  0  0  0  0  0  0  0  0  0  0
    1.3213   -0.2402    1.1234 H   0  0  0  0  0  0  0  0  0  0  0  0
    0.3068   -1.4909    0.4563 H   0  0  0  0  0  0  0  0  0  0  0  0
   -1.9702    1.1923   -1.9989 H   0  0  0  0  0  0  0  0  0  0  0  0
   -2.2718    2.9077   -1.5813 H   0  0  0  0  0  0  0  0  0  0  0  0
   -4.2023    1.3809   -1.2990 H   0  0  0  0  0  0  0  0  0  0  0  0
   -3.8263    2.4736    0.0340 H   0  0  0  0  0  0  0  0  0  0  0  0
   -3.2306    0.7668    1.4680 H   0  0  0  0  0  0  0  0  0  0  0  0
   -3.5337   -1.9096    1.6983 H   0  0  0  0  0  0  0  0  0  0  0  0
   -7.6184   -2.8886    1.0694 H   0  0  0  0  0  0  0  0  0  0  0  0
   -7.8878   -0.7897   -0.2017 H   0  0  0  0  0  0  0  0  0  0  0  0
   -5.9803    0.7739   -0.5359 H   0  0  0  0  0  0  0  0  0  0  0  0
    4.4782   -1.1224    3.1314 H   0  0  0  0  0  0  0  0  0  0  0  0
  1  2  1  0
  2  3  1  0
  2  4  2  0
  2  5  2  0
  6  7  1  0
  7  8  2  0
  8  9  1  0
  9 10  2  0
 10 11  1  0
 11 12  1  0
 12 13  1  0
 13 14  1  0
 14 15  1  0
 16 15  1  1
 16 17  2  0
 16 18  1  0
 18 19  1  0
 19 20  1  0
 20 21  1  0
 21 22  1  0
 21 23  1  0
 23 24  2  0
 24 25  1  0
 25 26  1  0
 25 27  2  0
 27 28  1  0
 28 29  2  0
 11 30  1  0
 30 31  2  0
 31 32  1  0
 32 33  2  0
 33  7  1  0
 30  8  1  0
 22 16  1  0
 29 23  1  0
  1 34  1  0
  1 35  1  0
  1 36  1  0
  3 37  1  0
  6 38  1  0
  6 39  1  0
 10 40  1  0
 12 41  1  0
 12 42  1  0
 13 43  1  0
 13 44  1  0
 15 45  1  0
 15 46  1  0
 19 47  1  0
 19 48  1  0
 20 49  1  0
 20 50  1  0
 21 51  1  1
 24 52  1  0
 27 53  1  0
 28 54  1  0
 29 55  1  0
 32 56  1  0
M  END
$$$$
