
     RDKit          3D

 55 59  0  0  0  0  0  0  0  0999 V2000
    4.2545   -4.7788   -0.1573 C   0  0  0  0  0  0  0  0  0  0  0  0
    3.1120   -3.8865   -0.2940 N   0  0  0  0  0  0  0  0  0  0  0  0
    3.0802   -2.5915   -0.5875 C   0  0  0  0  0  0  0  0  0  0  0  0
    1.7621   -2.1413   -0.6144 C   0  0  0  0  0  0  0  0  0  0  0  0
    1.2913   -0.8084   -0.9160 C   0  0  0  0  0  0  0  0  0  0  0  0
    1.9017    0.2444   -0.3895 C   0  0  0  0  0  0  0  0  0  0  0  0
    2.9941    0.2360    0.4616 O   0  0  0  0  0  0  0  0  0  0  0  0
    3.3505    1.5513    0.8026 C   0  0  0  0  0  0  0  0  0  0  0  0
    4.3301    2.1158    1.5941 C   0  0  0  0  0  0  0  0  0  0  0  0
    4.4734    3.4740    1.7716 C   0  0  0  0  0  0  0  0  0  0  0  0
    3.6087    4.3357    1.1387 C   0  0  0  0  0  0  0  0  0  0  0  0
    2.6045    3.8019    0.3295 C   0  0  0  0  0  0  0  0  0  0  0  0
    1.7251    4.6606   -0.3147 O   0  0  0  0  0  0  0  0  0  0  0  0
    2.4943    2.4371    0.1776 C   0  0  0  0  0  0  0  0  0  0  0  0
    1.5532    1.6422   -0.5941 C   0  0  0  0  0  0  0  0  0  0  0  0
    0.5917    2.0479   -1.3242 O   0  0  0  0  0  0  0  0  0  0  0  0
    0.9938   -3.2395   -0.3168 C   0  0  0  0  0  0  0  0  0  0  0  0
   -0.3681   -3.4428   -0.1962 C   0  0  0  0  0  0  0  0  0  0  0  0
   -1.2694   -2.2950   -0.3122 C   0  0  0  0  0  0  0  0  0  0  0  0
   -1.1651   -1.2368    0.5769 C   0  0  0  0  0  0  0  0  0  0  0  0
   -1.9999   -0.1373    0.4945 C   0  0  0  0  0  0  0  0  0  0  0  0
   -2.9762   -0.0336   -0.4705 C   0  0  0  0  0  0  0  0  0  0  0  0
   -3.8747    1.1171   -0.5706 C   0  0  0  0  0  0  0  0  0  0  0  0
   -4.7098    1.1588   -1.5077 O   0  0  0  0  0  0  0  0  0  0  0  0
   -3.8646    2.2041    0.3359 N   0  0  0  0  0  0  0  0  0  0  0  0
   -4.7945    3.3286    0.1781 C   0  0  0  0  0  0  0  0  0  0  0  0
   -4.5486    4.3180    1.2872 C   0  0  0  0  0  0  0  0  0  0  0  0
   -5.4242    5.3933    1.1537 O   0  0  0  0  0  0  0  0  0  0  0  0
   -3.0773   -1.0933   -1.3574 C   0  0  0  0  0  0  0  0  0  0  0  0
   -2.2461   -2.1903   -1.2771 C   0  0  0  0  0  0  0  0  0  0  0  0
   -0.8650   -4.6972    0.1073 C   0  0  0  0  0  0  0  0  0  0  0  0
    0.0108   -5.7324    0.2893 C   0  0  0  0  0  0  0  0  0  0  0  0
    1.3237   -5.5328    0.1755 N   0  0  0  0  0  0  0  0  0  0  0  0
    1.8397   -4.3449   -0.1153 C   0  0  0  0  0  0  0  0  0  0  0  0
    4.1534   -5.2234    0.8710 H   0  0  0  0  0  0  0  0  0  0  0  0
    4.1244   -5.6567   -0.8496 H   0  0  0  0  0  0  0  0  0  0  0  0
    5.2058   -4.2735   -0.3198 H   0  0  0  0  0  0  0  0  0  0  0  0
    3.9144   -1.9543   -0.7803 H   0  0  0  0  0  0  0  0  0  0  0  0
    0.4519   -0.5939   -1.5898 H   0  0  0  0  0  0  0  0  0  0  0  0
    5.0357    1.4697    2.1138 H   0  0  0  0  0  0  0  0  0  0  0  0
    5.2504    3.9040    2.3995 H   0  0  0  0  0  0  0  0  0  0  0  0
    3.6691    5.4111    1.2383 H   0  0  0  0  0  0  0  0  0  0  0  0
    0.7278    4.4970   -0.1164 H   0  0  0  0  0  0  0  0  0  0  0  0
   -0.3953   -1.3085    1.3542 H   0  0  0  0  0  0  0  0  0  0  0  0
   -1.8794    0.6704    1.2162 H   0  0  0  0  0  0  0  0  0  0  0  0
   -3.1950    2.1974    1.1132 H   0  0  0  0  0  0  0  0  0  0  0  0
   -5.8415    2.9830    0.2382 H   0  0  0  0  0  0  0  0  0  0  0  0
   -4.6660    3.7890   -0.8300 H   0  0  0  0  0  0  0  0  0  0  0  0
   -3.5062    4.6613    1.2357 H   0  0  0  0  0  0  0  0  0  0  0  0
   -4.7239    3.7700    2.2524 H   0  0  0  0  0  0  0  0  0  0  0  0
   -5.9470    5.3039    0.3293 H   0  0  0  0  0  0  0  0  0  0  0  0
   -3.8527   -1.0013   -2.1161 H   0  0  0  0  0  0  0  0  0  0  0  0
   -2.3335   -3.0124   -1.9754 H   0  0  0  0  0  0  0  0  0  0  0  0
   -1.9388   -4.7840    0.1840 H   0  0  0  0  0  0  0  0  0  0  0  0
   -0.3657   -6.7335    0.5309 H   0  0  0  0  0  0  0  0  0  0  0  0
  1  2  1  0
  2  3  1  0
  3  4  2  0
  4  5  1  0
  5  6  2  0
  6  7  1  0
  7  8  1  0
  8  9  2  0
  9 10  1  0
 10 11  2  0
 11 12  1  0
 12 13  1  0
 12 14  2  0
 14 15  1  0
 15 16  2  0
  4 17  1  0
 17 18  2  0
 18 19  1  0
 19 20  2  0
 20 21  1  0
 21 22  2  0
 22 23  1  0
 23 24  2  0
 23 25  1  0
 25 26  1  0
 26 27  1  0
 27 28  1  0
 22 29  1  0
 29 30  2  0
 18 31  1  0
 31 32  2  0
 32 33  1  0
 33 34  2  0
 34  2  1  0
 15  6  1  0
 34 17  1  0
 14  8  1  0
 30 19  1  0
  1 35  1  0
  1 36  1  0
  1 37  1  0
  3 38  1  0
  5 39  1  0
  9 40  1  0
 10 41  1  0
 11 42  1  0
 13 43  1  0
 20 44  1  0
 21 45  1  0
 25 46  1  0
 26 47  1  0
 26 48  1  0
 27 49  1  0
 27 50  1  0
 28 51  1  0
 29 52  1  0
 30 53  1  0
 31 54  1  0
 32 55  1  0
M  END
$$$$
