
     RDKit          3D

 65 67  0  0  0  0  0  0  0  0999 V2000
    4.0455    3.0519    2.6832 C   0  0  0  0  0  0  0  0  0  0  0  0
    3.4783    1.7734    2.1205 C   0  0  0  0  0  0  0  0  0  0  0  0
    3.7838    1.6448    0.6415 C   0  0  2  0  0  0  0  0  0  0  0  0
    3.1850    2.8008   -0.1244 C   0  0  0  0  0  0  0  0  0  0  0  0
    3.3813    0.3284    0.1071 C   0  0  0  0  0  0  0  0  0  0  0  0
    4.2364   -0.4340   -0.4093 O   0  0  0  0  0  0  0  0  0  0  0  0
    2.0739   -0.1422    0.1373 O   0  0  0  0  0  0  0  0  0  0  0  0
    1.6865   -1.4004   -0.3729 C   0  0  1  0  0  0  0  0  0  0  0  0
    1.2009   -2.3477    0.6994 C   0  0  0  0  0  0  0  0  0  0  0  0
    1.4189   -3.7718    0.1472 C   0  0  1  0  0  0  0  0  0  0  0  0
    0.9619   -4.7973    1.1507 C   0  0  0  0  0  0  0  0  0  0  0  0
    0.6053   -3.8183   -1.1117 C   0  0  0  0  0  0  0  0  0  0  0  0
    0.3179   -2.7657   -1.8174 C   0  0  0  0  0  0  0  0  0  0  0  0
   -0.4852   -2.8539   -3.0463 C   0  0  0  0  0  0  0  0  0  0  0  0
   -1.1257   -1.7665   -3.4192 C   0  0  0  0  0  0  0  0  0  0  0  0
   -1.1223   -0.4615   -2.7300 C   0  0  2  0  0  0  0  0  0  0  0  0
   -0.3154    0.4913   -3.5739 C   0  0  0  0  0  0  0  0  0  0  0  0
   -0.5449   -0.6208   -1.3228 C   0  0  2  0  0  0  0  0  0  0  0  0
   -0.4709    0.6764   -0.6012 C   0  0  0  0  0  0  0  0  0  0  0  0
   -1.8162    1.3213   -0.4519 C   0  0  0  0  0  0  0  0  0  0  0  0
   -2.8190    0.5175    0.3033 C   0  0  0  0  0  0  0  0  0  0  0  0
   -4.1330    1.3087    0.3701 C   0  0  0  0  0  0  0  0  0  0  0  0
   -4.0273    2.3496    1.4649 C   0  0  1  0  0  0  0  0  0  0  0  0
   -5.0028    3.3307    1.3071 O   0  0  0  0  0  0  0  0  0  0  0  0
   -4.2301    1.5941    2.7851 C   0  0  0  0  0  0  0  0  0  0  0  0
   -3.3358    0.4090    2.7145 C   0  0  0  0  0  0  0  0  0  0  0  0
   -3.4436   -0.4473    3.6256 O   0  0  0  0  0  0  0  0  0  0  0  0
   -2.4380    0.3069    1.6607 O   0  0  0  0  0  0  0  0  0  0  0  0
    0.7368   -1.3611   -1.4970 C   0  0  1  0  0  0  0  0  0  0  0  0
    3.2873    3.6552    3.2239 H   0  0  0  0  0  0  0  0  0  0  0  0
    4.8995    2.8526    3.3858 H   0  0  0  0  0  0  0  0  0  0  0  0
    4.4511    3.7104    1.8861 H   0  0  0  0  0  0  0  0  0  0  0  0
    3.9997    0.9177    2.6241 H   0  0  0  0  0  0  0  0  0  0  0  0
    2.3936    1.6544    2.3351 H   0  0  0  0  0  0  0  0  0  0  0  0
    4.8836    1.7353    0.5443 H   0  0  0  0  0  0  0  0  0  0  0  0
    2.3418    3.1945    0.5043 H   0  0  0  0  0  0  0  0  0  0  0  0
    2.8662    2.5448   -1.1347 H   0  0  0  0  0  0  0  0  0  0  0  0
    3.9050    3.6446   -0.2002 H   0  0  0  0  0  0  0  0  0  0  0  0
    2.6173   -1.9095   -0.7862 H   0  0  0  0  0  0  0  0  0  0  0  0
    1.7878   -2.1869    1.6071 H   0  0  0  0  0  0  0  0  0  0  0  0
    0.1143   -2.2716    0.8803 H   0  0  0  0  0  0  0  0  0  0  0  0
    2.4743   -3.9139   -0.1491 H   0  0  0  0  0  0  0  0  0  0  0  0
    0.6648   -5.7095    0.5899 H   0  0  0  0  0  0  0  0  0  0  0  0
    1.8115   -5.0588    1.8155 H   0  0  0  0  0  0  0  0  0  0  0  0
    0.0995   -4.3764    1.7031 H   0  0  0  0  0  0  0  0  0  0  0  0
    0.2507   -4.7858   -1.4294 H   0  0  0  0  0  0  0  0  0  0  0  0
   -0.5172   -3.8037   -3.5846 H   0  0  0  0  0  0  0  0  0  0  0  0
   -1.7267   -1.8235   -4.3343 H   0  0  0  0  0  0  0  0  0  0  0  0
   -2.1835   -0.1293   -2.6822 H   0  0  0  0  0  0  0  0  0  0  0  0
    0.1220   -0.0004   -4.4765 H   0  0  0  0  0  0  0  0  0  0  0  0
    0.5117    0.9020   -2.9925 H   0  0  0  0  0  0  0  0  0  0  0  0
   -0.9843    1.2966   -3.9929 H   0  0  0  0  0  0  0  0  0  0  0  0
   -1.2662   -1.2860   -0.7862 H   0  0  0  0  0  0  0  0  0  0  0  0
    0.2270    1.3893   -1.0378 H   0  0  0  0  0  0  0  0  0  0  0  0
   -0.1201    0.4869    0.4570 H   0  0  0  0  0  0  0  0  0  0  0  0
   -1.6655    2.2736    0.0999 H   0  0  0  0  0  0  0  0  0  0  0  0
   -2.2697    1.6039   -1.4244 H   0  0  0  0  0  0  0  0  0  0  0  0
   -3.0076   -0.4906   -0.1161 H   0  0  0  0  0  0  0  0  0  0  0  0
   -4.3817    1.7513   -0.6154 H   0  0  0  0  0  0  0  0  0  0  0  0
   -4.9102    0.5594    0.6716 H   0  0  0  0  0  0  0  0  0  0  0  0
   -3.0156    2.7945    1.5374 H   0  0  0  0  0  0  0  0  0  0  0  0
   -5.3896    3.2178    0.4069 H   0  0  0  0  0  0  0  0  0  0  0  0
   -5.3044    1.3184    2.8125 H   0  0  0  0  0  0  0  0  0  0  0  0
   -3.9853    2.2494    3.6454 H   0  0  0  0  0  0  0  0  0  0  0  0
    1.2163   -0.9230   -2.4274 H   0  0  0  0  0  0  0  0  0  0  0  0
  1  2  1  0
  2  3  1  0
  3  4  1  0
  3  5  1  0
  5  6  2  0
  5  7  1  0
  7  8  1  0
  8  9  1  0
  9 10  1  0
 10 11  1  0
 10 12  1  0
 12 13  2  0
 13 14  1  0
 14 15  2  0
 15 16  1  0
 16 17  1  0
 16 18  1  0
 18 19  1  0
 19 20  1  0
 20 21  1  0
 21 22  1  0
 22 23  1  0
 23 24  1  0
 23 25  1  0
 25 26  1  0
 26 27  2  0
 26 28  1  0
 18 29  1  0
 29  8  1  0
 29 13  1  0
 28 21  1  0
  1 30  1  0
  1 31  1  0
  1 32  1  0
  2 33  1  0
  2 34  1  0
  3 35  1  1
  4 36  1  0
  4 37  1  0
  4 38  1  0
  8 39  1  6
  9 40  1  0
  9 41  1  0
 10 42  1  6
 11 43  1  0
 11 44  1  0
 11 45  1  0
 12 46  1  0
 14 47  1  0
 15 48  1  0
 16 49  1  1
 17 50  1  0
 17 51  1  0
 17 52  1  0
 18 53  1  1
 19 54  1  0
 19 55  1  0
 20 56  1  0
 20 57  1  0
 21 58  1  0
 22 59  1  0
 22 60  1  0
 23 61  1  1
 24 62  1  0
 25 63  1  0
 25 64  1  0
 29 65  1  6
M  END
$$$$
