
     RDKit          3D

 54 56  0  0  0  0  0  0  0  0999 V2000
    7.2717    0.7859   -0.8815 C   0  0  0  0  0  0  0  0  0  0  0  0
    7.0360   -0.4367   -0.0575 C   0  0  0  0  0  0  0  0  0  0  0  0
    5.8334   -1.2294   -0.5292 C   0  0  0  0  0  0  0  0  0  0  0  0
    4.5575   -0.4195   -0.4705 C   0  0  0  0  0  0  0  0  0  0  0  0
    3.4413   -1.3116   -0.9614 C   0  0  0  0  0  0  0  0  0  0  0  0
    2.1005   -0.6250   -0.9555 C   0  0  0  0  0  0  0  0  0  0  0  0
    1.6446   -0.0857    0.7161 S   0  0  0  0  0  0  0  0  0  0  0  0
    0.0631    0.7050    0.6217 C   0  0  0  0  0  0  0  0  0  0  0  0
   -0.2480    1.9887    0.4045 N   0  0  0  0  0  0  0  0  0  0  0  0
   -1.5785    2.1592    0.4122 C   0  0  0  0  0  0  0  0  0  0  0  0
   -2.3452    3.4039    0.2148 C   0  0  0  0  0  0  0  0  0  0  0  0
   -2.8625    3.6997   -1.0321 C   0  0  0  0  0  0  0  0  0  0  0  0
   -3.5805    4.8245   -1.3004 C   0  0  0  0  0  0  0  0  0  0  0  0
   -3.8091    5.7228   -0.2801 C   0  0  0  0  0  0  0  0  0  0  0  0
   -4.7285    7.1593   -0.6314 Cl  0  0  0  0  0  0  0  0  0  0  0  0
   -3.2985    5.4448    0.9792 C   0  0  0  0  0  0  0  0  0  0  0  0
   -2.5715    4.2931    1.2246 C   0  0  0  0  0  0  0  0  0  0  0  0
   -2.0736    0.9366    0.6415 N   0  0  0  0  0  0  0  0  0  0  0  0
   -1.1223    0.0282    0.7744 N   0  0  0  0  0  0  0  0  0  0  0  0
   -1.2604   -1.3504    1.0211 C   0  0  0  0  0  0  0  0  0  0  0  0
   -0.1962   -2.0569    1.1081 O   0  0  0  0  0  0  0  0  0  0  0  0
   -2.4683   -2.0065    1.1773 N   0  0  0  0  0  0  0  0  0  0  0  0
   -2.4854   -3.4782    1.4246 C   0  0  0  0  0  0  0  0  0  0  0  0
   -3.0703   -4.0505    0.1367 C   0  0  0  0  0  0  0  0  0  0  0  0
   -4.4196   -3.4476   -0.0735 C   0  0  0  0  0  0  0  0  0  0  0  0
   -4.3996   -1.9356   -0.1881 C   0  0  0  0  0  0  0  0  0  0  0  0
   -3.7808   -1.4202    1.1284 C   0  0  0  0  0  0  0  0  0  0  0  0
    6.6461    0.8434   -1.7864 H   0  0  0  0  0  0  0  0  0  0  0  0
    8.3346    0.8293   -1.2143 H   0  0  0  0  0  0  0  0  0  0  0  0
    7.1097    1.7332   -0.3036 H   0  0  0  0  0  0  0  0  0  0  0  0
    7.9111   -1.1150   -0.1538 H   0  0  0  0  0  0  0  0  0  0  0  0
    6.8599   -0.1696    1.0052 H   0  0  0  0  0  0  0  0  0  0  0  0
    5.9608   -1.5574   -1.5862 H   0  0  0  0  0  0  0  0  0  0  0  0
    5.7072   -2.1458    0.0794 H   0  0  0  0  0  0  0  0  0  0  0  0
    4.3877   -0.1873    0.6119 H   0  0  0  0  0  0  0  0  0  0  0  0
    4.6344    0.4884   -1.0844 H   0  0  0  0  0  0  0  0  0  0  0  0
    3.6503   -1.6418   -1.9975 H   0  0  0  0  0  0  0  0  0  0  0  0
    3.3863   -2.2170   -0.3222 H   0  0  0  0  0  0  0  0  0  0  0  0
    1.3665   -1.3417   -1.3664 H   0  0  0  0  0  0  0  0  0  0  0  0
    2.1624    0.2814   -1.6188 H   0  0  0  0  0  0  0  0  0  0  0  0
   -2.6736    2.9838   -1.8210 H   0  0  0  0  0  0  0  0  0  0  0  0
   -3.9438    4.9680   -2.3071 H   0  0  0  0  0  0  0  0  0  0  0  0
   -3.4901    6.1635    1.7646 H   0  0  0  0  0  0  0  0  0  0  0  0
   -2.1857    4.1062    2.2236 H   0  0  0  0  0  0  0  0  0  0  0  0
   -1.4585   -3.8244    1.6093 H   0  0  0  0  0  0  0  0  0  0  0  0
   -3.1028   -3.6987    2.3026 H   0  0  0  0  0  0  0  0  0  0  0  0
   -3.1786   -5.1299    0.2225 H   0  0  0  0  0  0  0  0  0  0  0  0
   -2.3540   -3.7817   -0.6644 H   0  0  0  0  0  0  0  0  0  0  0  0
   -4.8957   -3.8600   -0.9857 H   0  0  0  0  0  0  0  0  0  0  0  0
   -5.0283   -3.6698    0.8464 H   0  0  0  0  0  0  0  0  0  0  0  0
   -5.4549   -1.6027   -0.2465 H   0  0  0  0  0  0  0  0  0  0  0  0
   -3.7669   -1.5694   -0.9982 H   0  0  0  0  0  0  0  0  0  0  0  0
   -4.4209   -1.8471    1.9716 H   0  0  0  0  0  0  0  0  0  0  0  0
   -3.8124   -0.3355    1.1951 H   0  0  0  0  0  0  0  0  0  0  0  0
  1  2  1  0
  2  3  1  0
  3  4  1  0
  4  5  1  0
  5  6  1  0
  6  7  1  0
  7  8  1  0
  8  9  2  0
  9 10  1  0
 10 11  1  0
 11 12  2  0
 12 13  1  0
 13 14  2  0
 14 15  1  0
 14 16  1  0
 16 17  2  0
 10 18  2  0
 18 19  1  0
 19 20  1  0
 20 21  2  0
 20 22  1  0
 22 23  1  0
 23 24  1  0
 24 25  1  0
 25 26  1  0
 26 27  1  0
 19  8  1  0
 27 22  1  0
 17 11  1  0
  1 28  1  0
  1 29  1  0
  1 30  1  0
  2 31  1  0
  2 32  1  0
  3 33  1  0
  3 34  1  0
  4 35  1  0
  4 36  1  0
  5 37  1  0
  5 38  1  0
  6 39  1  0
  6 40  1  0
 12 41  1  0
 13 42  1  0
 16 43  1  0
 17 44  1  0
 23 45  1  0
 23 46  1  0
 24 47  1  0
 24 48  1  0
 25 49  1  0
 25 50  1  0
 26 51  1  0
 26 52  1  0
 27 53  1  0
 27 54  1  0
M  END
$$$$
