
     RDKit          3D

 51 54  0  0  0  0  0  0  0  0999 V2000
   -5.6235   -2.2016    3.7187 C   0  0  0  0  0  0  0  0  0  0  0  0
   -4.4919   -1.8592    2.8763 C   0  0  0  0  0  0  0  0  0  0  0  0
   -3.3193   -2.4785    2.5314 C   0  0  0  0  0  0  0  0  0  0  0  0
   -2.5269   -1.8438    1.7276 N   0  0  0  0  0  0  0  0  0  0  0  0
   -2.6380   -0.8009    1.2271 C   0  0  0  0  0  0  0  0  0  0  0  0
   -1.9832    0.1678    0.3222 C   0  0  0  0  0  0  0  0  0  0  0  0
   -2.5304    1.3680   -0.0098 C   0  0  0  0  0  0  0  0  0  0  0  0
   -1.9010    2.2538   -0.8554 C   0  0  0  0  0  0  0  0  0  0  0  0
   -2.3985    3.4741   -1.2270 O   0  0  0  0  0  0  0  0  0  0  0  0
   -3.6045    4.0375   -0.8309 C   0  0  0  0  0  0  0  0  0  0  0  0
   -4.3863    4.7648   -1.9008 C   0  0  0  0  0  0  0  0  0  0  0  0
   -4.4492    5.9314   -1.1425 O   0  0  0  0  0  0  0  0  0  0  0  0
   -3.3761    5.4930   -0.4063 C   0  0  0  0  0  0  0  0  0  0  0  0
   -0.6800    1.8699   -1.3573 C   0  0  0  0  0  0  0  0  0  0  0  0
   -0.0591    0.6622   -1.0641 C   0  0  0  0  0  0  0  0  0  0  0  0
    1.2340    0.3197   -1.6306 C   0  0  0  0  0  0  0  0  0  0  0  0
    1.7880    1.1442   -2.4013 O   0  0  0  0  0  0  0  0  0  0  0  0
    1.8940   -0.8902   -1.3571 N   0  0  0  0  0  0  0  0  0  0  0  0
    3.1936   -1.2322   -1.9278 C   0  0  2  0  0  0  0  0  0  0  0  0
    3.0393   -2.4637   -2.8004 C   0  0  0  0  0  0  0  0  0  0  0  0
    4.1938   -1.5313   -0.8637 C   0  0  0  0  0  0  0  0  0  0  0  0
    5.4720   -1.0251   -0.9028 C   0  0  0  0  0  0  0  0  0  0  0  0
    6.3697   -1.3074    0.0744 N   0  0  0  0  0  0  0  0  0  0  0  0
    6.0211   -2.0949    1.1081 C   0  0  0  0  0  0  0  0  0  0  0  0
    7.0043   -2.4155    2.1964 C   0  0  0  0  0  0  0  0  0  0  0  0
    7.1019   -3.7582    2.4285 F   0  0  0  0  0  0  0  0  0  0  0  0
    6.5816   -1.7669    3.3366 F   0  0  0  0  0  0  0  0  0  0  0  0
    8.2630   -1.9727    1.7859 F   0  0  0  0  0  0  0  0  0  0  0  0
    4.7761   -2.5909    1.1508 N   0  0  0  0  0  0  0  0  0  0  0  0
    3.8519   -2.3364    0.2017 C   0  0  0  0  0  0  0  0  0  0  0  0
   -0.7485   -0.1723   -0.2114 C   0  0  0  0  0  0  0  0  0  0  0  0
   -4.3117   -0.2938    1.9235 S   0  0  0  0  0  0  0  0  0  0  0  0
   -5.3295   -2.5376    4.7452 H   0  0  0  0  0  0  0  0  0  0  0  0
   -6.2910   -1.3384    3.8660 H   0  0  0  0  0  0  0  0  0  0  0  0
   -6.2414   -3.0121    3.2678 H   0  0  0  0  0  0  0  0  0  0  0  0
   -3.0865   -3.4828    2.9405 H   0  0  0  0  0  0  0  0  0  0  0  0
   -3.4948    1.6700    0.3873 H   0  0  0  0  0  0  0  0  0  0  0  0
   -4.2524    3.4834   -0.1553 H   0  0  0  0  0  0  0  0  0  0  0  0
   -5.4284    4.3584   -2.0043 H   0  0  0  0  0  0  0  0  0  0  0  0
   -3.9062    4.8493   -2.8761 H   0  0  0  0  0  0  0  0  0  0  0  0
   -2.4249    5.9179   -0.7846 H   0  0  0  0  0  0  0  0  0  0  0  0
   -3.4353    5.6423    0.6897 H   0  0  0  0  0  0  0  0  0  0  0  0
   -0.1277    2.5242   -2.0327 H   0  0  0  0  0  0  0  0  0  0  0  0
    1.4401   -1.5777   -0.7190 H   0  0  0  0  0  0  0  0  0  0  0  0
    3.5670   -0.4226   -2.5875 H   0  0  0  0  0  0  0  0  0  0  0  0
    2.7690   -2.1567   -3.8256 H   0  0  0  0  0  0  0  0  0  0  0  0
    2.2552   -3.0879   -2.3308 H   0  0  0  0  0  0  0  0  0  0  0  0
    4.0059   -3.0055   -2.8738 H   0  0  0  0  0  0  0  0  0  0  0  0
    5.7230   -0.3899   -1.7546 H   0  0  0  0  0  0  0  0  0  0  0  0
    2.8427   -2.7498    0.2544 H   0  0  0  0  0  0  0  0  0  0  0  0
   -0.3412   -1.1356    0.0735 H   0  0  0  0  0  0  0  0  0  0  0  0
  1  2  1  0
  2  3  2  0
  3  4  1  0
  4  5  2  0
  5  6  1  0
  6  7  2  0
  7  8  1  0
  8  9  1  0
  9 10  1  0
 10 11  1  0
 11 12  1  0
 12 13  1  0
  8 14  2  0
 14 15  1  0
 15 16  1  0
 16 17  2  0
 16 18  1  0
 18 19  1  0
 19 20  1  0
 19 21  1  0
 21 22  2  0
 22 23  1  0
 23 24  2  0
 24 25  1  0
 25 26  1  0
 25 27  1  0
 25 28  1  0
 24 29  1  0
 29 30  2  0
 15 31  2  0
  5 32  1  0
 32  2  1  0
 31  6  1  0
 13 10  1  0
 30 21  1  0
  1 33  1  0
  1 34  1  0
  1 35  1  0
  3 36  1  0
  7 37  1  0
 10 38  1  0
 11 39  1  0
 11 40  1  0
 13 41  1  0
 13 42  1  0
 14 43  1  0
 18 44  1  0
 19 45  1  6
 20 46  1  0
 20 47  1  0
 20 48  1  0
 22 49  1  0
 30 50  1  0
 31 51  1  0
M  END
$$$$
