
     RDKit          3D

 55 58  0  0  0  0  0  0  0  0999 V2000
    4.3090    0.6200    0.4423 C   0  0  2  0  0  0  0  0  0  0  0  0
    4.0772   -0.8408    0.2630 C   0  0  0  0  0  0  0  0  0  0  0  0
    2.6842   -1.2659    0.1347 C   0  0  0  0  0  0  0  0  0  0  0  0
    1.8886   -1.6632    1.2002 C   0  0  0  0  0  0  0  0  0  0  0  0
    0.5617   -2.0420    0.9563 C   0  0  0  0  0  0  0  0  0  0  0  0
    0.0030   -2.0352   -0.3310 C   0  0  0  0  0  0  0  0  0  0  0  0
   -1.2861   -2.4488   -0.2542 O   0  0  0  0  0  0  0  0  0  0  0  0
   -2.2670   -2.6116   -1.1946 C   0  0  0  0  0  0  0  0  0  0  0  0
   -2.6823   -1.3513   -1.8918 C   0  0  0  0  0  0  0  0  0  0  0  0
   -3.2207   -0.4176   -0.9231 N   0  0  0  0  0  0  0  0  0  0  0  0
   -2.7666    0.5833   -0.1843 C   0  0  0  0  0  0  0  0  0  0  0  0
   -3.7138    1.1395    0.6217 C   0  0  0  0  0  0  0  0  0  0  0  0
   -3.4131    2.1894    1.4473 C   0  0  0  0  0  0  0  0  0  0  0  0
   -2.1358    2.7367    1.5038 C   0  0  0  0  0  0  0  0  0  0  0  0
   -1.1997    2.1456    0.6699 C   0  0  0  0  0  0  0  0  0  0  0  0
   -1.5013    1.0900   -0.1605 C   0  0  0  0  0  0  0  0  0  0  0  0
   -4.8687    0.4405    0.3808 C   0  0  0  0  0  0  0  0  0  0  0  0
   -4.5355   -0.4938   -0.5589 C   0  0  0  0  0  0  0  0  0  0  0  0
   -5.5903   -1.3238   -0.9497 C   0  0  0  0  0  0  0  0  0  0  0  0
   -6.8568   -1.2343   -0.4538 C   0  0  0  0  0  0  0  0  0  0  0  0
   -7.1356   -0.2716    0.4933 C   0  0  0  0  0  0  0  0  0  0  0  0
   -6.1277    0.5661    0.9063 C   0  0  0  0  0  0  0  0  0  0  0  0
    0.8329   -1.6336   -1.3552 C   0  0  0  0  0  0  0  0  0  0  0  0
    2.1342   -1.2599   -1.1304 C   0  0  0  0  0  0  0  0  0  0  0  0
    5.6995    0.8688    0.5541 O   0  0  0  0  0  0  0  0  0  0  0  0
    6.0992    1.7638   -0.4576 C   0  0  0  0  0  0  0  0  0  0  0  0
    7.5771    1.9940   -0.2952 C   0  0  0  0  0  0  0  0  0  0  0  0
    3.6776    1.0670    1.7063 C   0  0  0  0  0  0  0  0  0  0  0  0
    4.2258    1.6095    2.8607 O   0  0  0  0  0  0  0  0  0  0  0  0
    2.4435    1.0581    2.0413 O   0  0  0  0  0  0  0  0  0  0  0  0
    3.9952    1.2277   -0.4244 H   0  0  0  0  0  0  0  0  0  0  0  0
    4.6234   -1.1476   -0.6695 H   0  0  0  0  0  0  0  0  0  0  0  0
    4.5666   -1.4522    1.0711 H   0  0  0  0  0  0  0  0  0  0  0  0
    2.3539   -1.6587    2.1609 H   0  0  0  0  0  0  0  0  0  0  0  0
    0.0751   -2.3263    1.9041 H   0  0  0  0  0  0  0  0  0  0  0  0
   -3.1535   -3.1044   -0.6918 H   0  0  0  0  0  0  0  0  0  0  0  0
   -1.9365   -3.3924   -1.9482 H   0  0  0  0  0  0  0  0  0  0  0  0
   -1.8849   -0.8888   -2.4821 H   0  0  0  0  0  0  0  0  0  0  0  0
   -3.4974   -1.6388   -2.6232 H   0  0  0  0  0  0  0  0  0  0  0  0
   -4.1870    2.6012    2.0687 H   0  0  0  0  0  0  0  0  0  0  0  0
   -1.9292    3.5659    2.1664 H   0  0  0  0  0  0  0  0  0  0  0  0
   -0.1980    2.5630    0.7037 H   0  0  0  0  0  0  0  0  0  0  0  0
   -0.7238    0.6987   -0.7779 H   0  0  0  0  0  0  0  0  0  0  0  0
   -5.4278   -2.0960   -1.6893 H   0  0  0  0  0  0  0  0  0  0  0  0
   -7.6519   -1.8975   -0.7817 H   0  0  0  0  0  0  0  0  0  0  0  0
   -8.1344   -0.1694    0.9125 H   0  0  0  0  0  0  0  0  0  0  0  0
   -6.3209    1.3382    1.6559 H   0  0  0  0  0  0  0  0  0  0  0  0
    0.3349   -1.6614   -2.3011 H   0  0  0  0  0  0  0  0  0  0  0  0
    2.6891   -0.9637   -2.0114 H   0  0  0  0  0  0  0  0  0  0  0  0
    5.4984    2.7018   -0.4068 H   0  0  0  0  0  0  0  0  0  0  0  0
    5.8607    1.3290   -1.4703 H   0  0  0  0  0  0  0  0  0  0  0  0
    7.7787    3.0873   -0.1273 H   0  0  0  0  0  0  0  0  0  0  0  0
    8.0355    1.3922    0.5257 H   0  0  0  0  0  0  0  0  0  0  0  0
    8.1345    1.7414   -1.2391 H   0  0  0  0  0  0  0  0  0  0  0  0
    4.1867    1.1718    3.7723 H   0  0  0  0  0  0  0  0  0  0  0  0
  1  2  1  0
  2  3  1  0
  3  4  2  0
  4  5  1  0
  5  6  2  0
  6  7  1  0
  7  8  1  0
  8  9  1  0
  9 10  1  0
 10 11  1  0
 11 12  1  0
 12 13  2  0
 13 14  1  0
 14 15  2  0
 15 16  1  0
 12 17  1  0
 17 18  2  0
 18 19  1  0
 19 20  2  0
 20 21  1  0
 21 22  2  0
  6 23  1  0
 23 24  2  0
  1 25  1  0
 25 26  1  0
 26 27  1  0
  1 28  1  0
 28 29  1  0
 28 30  2  0
 24  3  1  0
 18 10  1  0
 16 11  2  0
 22 17  1  0
  1 31  1  6
  2 32  1  0
  2 33  1  0
  4 34  1  0
  5 35  1  0
  8 36  1  0
  8 37  1  0
  9 38  1  0
  9 39  1  0
 13 40  1  0
 14 41  1  0
 15 42  1  0
 16 43  1  0
 19 44  1  0
 20 45  1  0
 21 46  1  0
 22 47  1  0
 23 48  1  0
 24 49  1  0
 26 50  1  0
 26 51  1  0
 27 52  1  0
 27 53  1  0
 27 54  1  0
 29 55  1  0
M  END
$$$$
