
     RDKit          3D

 37 39  0  0  0  0  0  0  0  0999 V2000
   -5.7735    1.9244    0.8514 O   0  0  0  0  0  0  0  0  0  0  0  0
   -4.7063    1.8043    0.2202 C   0  0  0  0  0  0  0  0  0  0  0  0
   -4.1595    2.9081   -0.3926 O   0  0  0  0  0  0  0  0  0  0  0  0
   -4.0633    0.5099    0.1433 C   0  0  0  0  0  0  0  0  0  0  0  0
   -4.6051   -0.6076    0.7563 C   0  0  0  0  0  0  0  0  0  0  0  0
   -4.0018   -1.8439    0.6896 C   0  0  0  0  0  0  0  0  0  0  0  0
   -2.8269   -1.9900   -0.0019 C   0  0  0  0  0  0  0  0  0  0  0  0
   -2.2508   -0.9194   -0.6246 C   0  0  0  0  0  0  0  0  0  0  0  0
   -0.7351   -1.0689   -1.5263 S   0  0  0  0  0  6  0  0  0  0  0  0
   -0.6959   -0.0416   -2.6231 O   0  0  0  0  0  0  0  0  0  0  0  0
   -0.6237   -2.4453   -2.0718 O   0  0  0  0  0  0  0  0  0  0  0  0
    0.5420   -0.7714   -0.4119 N   0  0  0  0  0  0  0  0  0  0  0  0
    0.5051    0.5349    0.1562 C   0  0  0  0  0  0  0  0  0  0  0  0
    1.4359    0.4660    1.3779 C   0  0  0  0  0  0  0  0  0  0  0  0
    2.7981    0.3611    0.8058 C   0  0  0  0  0  0  0  0  0  0  0  0
    3.8859    0.9478    1.3941 C   0  0  0  0  0  0  0  0  0  0  0  0
    5.1249    0.8137    0.8114 C   0  0  0  0  0  0  0  0  0  0  0  0
    5.3321    0.1083   -0.3522 C   0  0  0  0  0  0  0  0  0  0  0  0
    7.2491   -0.0714   -1.2105 I   0  0  0  0  0  0  0  0  0  0  0  0
    4.2343   -0.4811   -0.9417 C   0  0  0  0  0  0  0  0  0  0  0  0
    2.9598   -0.3528   -0.3575 C   0  0  0  0  0  0  0  0  0  0  0  0
    1.8176   -1.0066   -1.0332 C   0  0  0  0  0  0  0  0  0  0  0  0
   -2.8726    0.3068   -0.5439 C   0  0  0  0  0  0  0  0  0  0  0  0
   -4.4820    3.8575   -0.2625 H   0  0  0  0  0  0  0  0  0  0  0  0
   -5.5308   -0.4702    1.2956 H   0  0  0  0  0  0  0  0  0  0  0  0
   -4.4617   -2.7034    1.1878 H   0  0  0  0  0  0  0  0  0  0  0  0
   -2.3249   -2.9477   -0.0750 H   0  0  0  0  0  0  0  0  0  0  0  0
   -0.4948    0.8962    0.4290 H   0  0  0  0  0  0  0  0  0  0  0  0
    0.9394    1.2507   -0.5517 H   0  0  0  0  0  0  0  0  0  0  0  0
    1.1328   -0.4854    1.8999 H   0  0  0  0  0  0  0  0  0  0  0  0
    1.3050    1.3442    2.0308 H   0  0  0  0  0  0  0  0  0  0  0  0
    3.7155    1.5007    2.3086 H   0  0  0  0  0  0  0  0  0  0  0  0
    5.9762    1.2775    1.2792 H   0  0  0  0  0  0  0  0  0  0  0  0
    4.3674   -1.0446   -1.8615 H   0  0  0  0  0  0  0  0  0  0  0  0
    1.9519   -2.1242   -1.0563 H   0  0  0  0  0  0  0  0  0  0  0  0
    1.7871   -0.6188   -2.0908 H   0  0  0  0  0  0  0  0  0  0  0  0
   -2.4514    1.1822   -1.0221 H   0  0  0  0  0  0  0  0  0  0  0  0
  1  2  2  0
  2  3  1  0
  2  4  1  0
  4  5  2  0
  5  6  1  0
  6  7  2  0
  7  8  1  0
  8  9  1  0
  9 10  2  0
  9 11  2  0
  9 12  1  0
 12 13  1  0
 13 14  1  0
 14 15  1  0
 15 16  2  0
 16 17  1  0
 17 18  2  0
 18 19  1  0
 18 20  1  0
 20 21  2  0
 21 22  1  0
  8 23  2  0
 23  4  1  0
 22 12  1  0
 21 15  1  0
  3 24  1  0
  5 25  1  0
  6 26  1  0
  7 27  1  0
 13 28  1  0
 13 29  1  0
 14 30  1  0
 14 31  1  0
 16 32  1  0
 17 33  1  0
 20 34  1  0
 22 35  1  0
 22 36  1  0
 23 37  1  0
M  END
$$$$
