
     RDKit          3D

 38 41  0  0  0  0  0  0  0  0999 V2000
    6.0035   -0.6628   -0.0181 F   0  0  0  0  0  0  0  0  0  0  0  0
    4.6820   -0.9492   -0.1524 C   0  0  0  0  0  0  0  0  0  0  0  0
    3.9260   -0.2179   -1.0541 C   0  0  0  0  0  0  0  0  0  0  0  0
    2.5772   -0.5045   -1.1966 C   0  0  0  0  0  0  0  0  0  0  0  0
    1.9415   -1.4948   -0.4759 C   0  0  0  0  0  0  0  0  0  0  0  0
    0.5228   -1.8018   -0.6210 C   0  0  0  0  0  0  0  0  0  0  0  0
    0.0164   -2.9857   -1.0563 N   0  0  0  0  0  0  0  0  0  0  0  0
   -1.3156   -2.9260   -1.0685 C   0  0  0  0  0  0  0  0  0  0  0  0
   -1.6836   -1.6949   -0.6381 N   0  0  0  0  0  0  0  0  0  0  0  0
   -3.0408   -1.2347   -0.5081 C   0  0  0  0  0  0  0  0  0  0  0  0
   -3.6101   -1.5259    0.8696 C   0  0  0  0  0  0  0  0  0  0  0  0
   -4.9086   -1.0435    0.8803 F   0  0  0  0  0  0  0  0  0  0  0  0
   -3.6201   -2.8828    1.1340 F   0  0  0  0  0  0  0  0  0  0  0  0
   -0.5547   -0.9873   -0.3572 C   0  0  0  0  0  0  0  0  0  0  0  0
   -0.4756    0.3745    0.1312 C   0  0  0  0  0  0  0  0  0  0  0  0
    0.0621    0.7354    1.3486 C   0  0  0  0  0  0  0  0  0  0  0  0
    0.1054    2.0527    1.7522 C   0  0  0  0  0  0  0  0  0  0  0  0
   -0.4029    3.0252    0.9128 C   0  0  0  0  0  0  0  0  0  0  0  0
   -0.4963    4.3853    1.0379 N   0  0  0  0  0  0  0  0  0  0  0  0
   -1.0742    4.9075   -0.0553 C   0  0  0  0  0  0  0  0  0  0  0  0
   -1.3408    3.8105   -0.8760 C   0  0  0  0  0  0  0  0  0  0  0  0
   -1.9217    3.8225   -2.0968 F   0  0  0  0  0  0  0  0  0  0  0  0
   -0.9243    2.6750   -0.2678 N   0  0  0  0  0  0  0  0  0  0  0  0
   -0.9596    1.3957   -0.6455 C   0  0  0  0  0  0  0  0  0  0  0  0
    2.7348   -2.2096    0.4219 C   0  0  0  0  0  0  0  0  0  0  0  0
    4.0792   -1.9473    0.5853 C   0  0  0  0  0  0  0  0  0  0  0  0
    4.3985    0.5763   -1.6434 H   0  0  0  0  0  0  0  0  0  0  0  0
    1.9953    0.0653   -1.8968 H   0  0  0  0  0  0  0  0  0  0  0  0
   -1.9452   -3.7417   -1.3756 H   0  0  0  0  0  0  0  0  0  0  0  0
   -3.6738   -1.8076   -1.2278 H   0  0  0  0  0  0  0  0  0  0  0  0
   -3.1874   -0.1740   -0.7362 H   0  0  0  0  0  0  0  0  0  0  0  0
   -3.0614   -0.9532    1.6584 H   0  0  0  0  0  0  0  0  0  0  0  0
    0.4600   -0.0141    2.0082 H   0  0  0  0  0  0  0  0  0  0  0  0
    0.5198    2.3741    2.7006 H   0  0  0  0  0  0  0  0  0  0  0  0
   -1.3080    5.9281   -0.3062 H   0  0  0  0  0  0  0  0  0  0  0  0
   -1.3870    1.1534   -1.6036 H   0  0  0  0  0  0  0  0  0  0  0  0
    2.2107   -2.9893    0.9824 H   0  0  0  0  0  0  0  0  0  0  0  0
    4.6566   -2.5328    1.2986 H   0  0  0  0  0  0  0  0  0  0  0  0
  1  2  1  0
  2  3  2  0
  3  4  1  0
  4  5  2  0
  5  6  1  0
  6  7  1  0
  7  8  2  0
  8  9  1  0
  9 10  1  0
 10 11  1  0
 11 12  1  0
 11 13  1  0
  9 14  1  0
 14 15  1  0
 15 16  1  0
 16 17  2  0
 17 18  1  0
 18 19  2  0
 19 20  1  0
 20 21  2  0
 21 22  1  0
 21 23  1  0
 23 24  1  0
  5 25  1  0
 25 26  2  0
 26  2  1  0
 14  6  2  0
 24 15  2  0
 23 18  1  0
  3 27  1  0
  4 28  1  0
  8 29  1  0
 10 30  1  0
 10 31  1  0
 11 32  1  0
 16 33  1  0
 17 34  1  0
 20 35  1  0
 24 36  1  0
 25 37  1  0
 26 38  1  0
M  END
$$$$
