
     RDKit          3D

 45 47  0  0  0  0  0  0  0  0999 V2000
    9.2787    1.8729   -0.5480 N   0  0  0  0  0  0  0  0  0  0  0  0
    8.1698    1.5677   -0.4891 C   0  0  0  0  0  0  0  0  0  0  0  0
    6.7955    1.2086   -0.4022 C   0  0  0  0  0  0  0  0  0  0  0  0
    6.1617    1.0863    0.8335 C   0  0  0  0  0  0  0  0  0  0  0  0
    4.8256    0.7361    0.8840 C   0  0  0  0  0  0  0  0  0  0  0  0
    4.1307    0.5109   -0.2806 C   0  0  0  0  0  0  0  0  0  0  0  0
    2.6916    0.1343   -0.2041 C   0  0  0  0  0  0  0  0  0  0  0  0
    2.1338    0.0278    0.9057 O   0  0  0  0  0  0  0  0  0  0  0  0
    1.9535   -0.1034   -1.3830 N   0  0  0  0  0  0  0  0  0  0  0  0
    0.6018   -0.4628   -1.4656 C   0  0  0  0  0  0  0  0  0  0  0  0
    0.0798   -0.6481   -2.7541 C   0  0  0  0  0  0  0  0  0  0  0  0
   -1.2366   -1.0017   -2.9301 C   0  0  0  0  0  0  0  0  0  0  0  0
   -2.1015   -1.1907   -1.8754 C   0  0  0  0  0  0  0  0  0  0  0  0
   -1.6122   -1.0146   -0.6037 C   0  0  0  0  0  0  0  0  0  0  0  0
   -2.4528   -1.1923    0.5804 C   0  0  2  0  0  0  0  0  0  0  0  0
   -2.3586   -2.6513    1.0179 C   0  0  0  0  0  0  0  0  0  0  0  0
   -2.7914   -3.5082    0.0245 F   0  0  0  0  0  0  0  0  0  0  0  0
   -3.9140   -0.8770    0.3414 C   0  0  0  0  0  0  0  0  0  0  0  0
   -4.1299    0.6083    0.1440 C   0  0  1  0  0  0  0  0  0  0  0  0
   -5.4423    1.0585    0.7539 C   0  0  0  0  0  0  0  0  0  0  0  0
   -5.4060    0.7758    2.1178 F   0  0  0  0  0  0  0  0  0  0  0  0
   -5.6082    2.4160    0.6442 F   0  0  0  0  0  0  0  0  0  0  0  0
   -6.5040    0.4327    0.1478 F   0  0  0  0  0  0  0  0  0  0  0  0
   -3.0538    1.3609    0.6740 O   0  0  0  0  0  0  0  0  0  0  0  0
   -2.3179    0.8513    1.7380 C   0  0  0  0  0  0  0  0  0  0  0  0
   -1.9115    1.6946    2.8316 N   0  0  0  0  0  0  0  0  0  0  0  0
   -2.0139   -0.4000    1.7090 N   0  0  0  0  0  0  0  0  0  0  0  0
   -0.2701   -0.6543   -0.4288 C   0  0  0  0  0  0  0  0  0  0  0  0
    4.7715    0.6374   -1.4510 N   0  0  0  0  0  0  0  0  0  0  0  0
    6.0661    0.9753   -1.5391 C   0  0  0  0  0  0  0  0  0  0  0  0
    6.7590    1.2751    1.7018 H   0  0  0  0  0  0  0  0  0  0  0  0
    4.3786    0.6540    1.8710 H   0  0  0  0  0  0  0  0  0  0  0  0
    2.5033    0.0081   -2.2981 H   0  0  0  0  0  0  0  0  0  0  0  0
    0.6943   -0.5190   -3.6445 H   0  0  0  0  0  0  0  0  0  0  0  0
   -1.5907   -1.1334   -3.9664 H   0  0  0  0  0  0  0  0  0  0  0  0
   -3.1298   -1.4694   -2.0796 H   0  0  0  0  0  0  0  0  0  0  0  0
   -2.9549   -2.8435    1.9313 H   0  0  0  0  0  0  0  0  0  0  0  0
   -1.3153   -2.9358    1.2491 H   0  0  0  0  0  0  0  0  0  0  0  0
   -4.4476   -1.1458    1.2818 H   0  0  0  0  0  0  0  0  0  0  0  0
   -4.3666   -1.4924   -0.4611 H   0  0  0  0  0  0  0  0  0  0  0  0
   -4.1717    0.8144   -0.9430 H   0  0  0  0  0  0  0  0  0  0  0  0
   -2.4920    1.9130    3.6494 H   0  0  0  0  0  0  0  0  0  0  0  0
   -0.9574    2.1013    2.7683 H   0  0  0  0  0  0  0  0  0  0  0  0
    0.0697   -0.5273    0.5828 H   0  0  0  0  0  0  0  0  0  0  0  0
    6.4857    1.0498   -2.5415 H   0  0  0  0  0  0  0  0  0  0  0  0
  1  2  3  0
  2  3  1  0
  3  4  2  0
  4  5  1  0
  5  6  2  0
  6  7  1  0
  7  8  2  0
  7  9  1  0
  9 10  1  0
 10 11  2  0
 11 12  1  0
 12 13  2  0
 13 14  1  0
 14 15  1  0
 15 16  1  1
 16 17  1  0
 15 18  1  0
 18 19  1  0
 19 20  1  0
 20 21  1  0
 20 22  1  0
 20 23  1  0
 19 24  1  0
 24 25  1  0
 25 26  1  0
 25 27  2  0
 14 28  2  0
  6 29  1  0
 29 30  2  0
 30  3  1  0
 28 10  1  0
 27 15  1  0
  4 31  1  0
  5 32  1  0
  9 33  1  0
 11 34  1  0
 12 35  1  0
 13 36  1  0
 16 37  1  0
 16 38  1  0
 18 39  1  0
 18 40  1  0
 19 41  1  6
 26 42  1  0
 26 43  1  0
 28 44  1  0
 30 45  1  0
M  END
$$$$
