
     RDKit          3D

 63 68  0  0  0  0  0  0  0  0999 V2000
    1.1823    0.9646   -0.8186 O   0  0  0  0  0  0  0  0  0  0  0  0
    0.6753    0.2080    0.0305 C   0  0  0  0  0  0  0  0  0  0  0  0
    1.5393   -0.4947    0.9077 N   0  0  0  0  0  0  0  0  0  0  0  0
    2.9396   -0.3152    0.7910 C   0  0  0  0  0  0  0  0  0  0  0  0
    3.5631    0.6678    1.5033 C   0  0  0  0  0  0  0  0  0  0  0  0
    4.9350    0.8471    1.3918 C   0  0  0  0  0  0  0  0  0  0  0  0
    5.7106    0.0609    0.5778 C   0  0  0  0  0  0  0  0  0  0  0  0
    7.1346    0.2918    0.5000 C   0  0  0  0  0  0  0  0  0  0  0  0
    8.0104   -0.3957   -0.2497 N   0  0  0  0  0  0  0  0  0  0  0  0
    9.2289    0.0969   -0.0666 N   0  0  0  0  0  0  0  0  0  0  0  0
    9.1116    1.0952    0.8006 N   0  0  0  0  0  0  0  0  0  0  0  0
    7.8352    1.2239    1.1543 N   0  0  0  0  0  0  0  0  0  0  0  0
    5.0827   -0.9428   -0.1511 C   0  0  0  0  0  0  0  0  0  0  0  0
    3.7184   -1.1104   -0.0312 C   0  0  0  0  0  0  0  0  0  0  0  0
    3.0730   -2.0777   -0.7259 F   0  0  0  0  0  0  0  0  0  0  0  0
   -0.7782    0.0461    0.1233 C   0  0  2  0  0  0  0  0  0  0  0  0
   -1.2299   -1.3722    0.0976 C   0  0  0  0  0  0  0  0  0  0  0  0
   -0.8860   -2.1931   -1.0863 C   0  0  0  0  0  0  0  0  0  0  0  0
   -1.1761   -3.6614   -0.7164 C   0  0  0  0  0  0  0  0  0  0  0  0
   -2.6832   -3.7705   -0.6487 C   0  0  0  0  0  0  0  0  0  0  0  0
   -3.2968   -2.7947    0.2915 C   0  0  0  0  0  0  0  0  0  0  0  0
   -2.7520   -1.4109    0.2655 C   0  0  0  0  0  0  0  0  0  0  0  0
   -1.5572    0.9461   -0.6869 N   0  0  0  0  0  0  0  0  0  0  0  0
   -2.4957    1.7918   -0.1824 C   0  0  0  0  0  0  0  0  0  0  0  0
   -2.8523    1.9346    1.2224 C   0  0  0  0  0  0  0  0  0  0  0  0
   -4.1410    1.6234    1.6741 C   0  0  0  0  0  0  0  0  0  0  0  0
   -4.4855    1.7630    2.9964 C   0  0  0  0  0  0  0  0  0  0  0  0
   -3.5872    2.2134    3.9416 C   0  0  0  0  0  0  0  0  0  0  0  0
   -4.0825    2.3709    5.6110 Cl  0  0  0  0  0  0  0  0  0  0  0  0
   -2.3131    2.5257    3.5195 C   0  0  0  0  0  0  0  0  0  0  0  0
   -1.9741    2.3829    2.1881 C   0  0  0  0  0  0  0  0  0  0  0  0
   -3.0112    2.4667   -1.2220 N   0  0  0  0  0  0  0  0  0  0  0  0
   -2.4286    2.0752   -2.3636 C   0  0  0  0  0  0  0  0  0  0  0  0
   -2.6139    2.4725   -3.6707 C   0  0  0  0  0  0  0  0  0  0  0  0
   -1.8517    1.8837   -4.6513 C   0  0  0  0  0  0  0  0  0  0  0  0
   -2.0310    2.2732   -5.9473 F   0  0  0  0  0  0  0  0  0  0  0  0
   -0.9259    0.9233   -4.3515 C   0  0  0  0  0  0  0  0  0  0  0  0
   -0.1747    0.3435   -5.3195 F   0  0  0  0  0  0  0  0  0  0  0  0
   -0.7327    0.5165   -3.0351 C   0  0  0  0  0  0  0  0  0  0  0  0
   -1.4862    1.0926   -2.0327 C   0  0  0  0  0  0  0  0  0  0  0  0
    1.1773   -1.1522    1.6509 H   0  0  0  0  0  0  0  0  0  0  0  0
    2.9649    1.2930    2.1470 H   0  0  0  0  0  0  0  0  0  0  0  0
    5.3645    1.6497    1.9885 H   0  0  0  0  0  0  0  0  0  0  0  0
    7.5088    1.9474    1.8291 H   0  0  0  0  0  0  0  0  0  0  0  0
    5.6826   -1.5697   -0.7966 H   0  0  0  0  0  0  0  0  0  0  0  0
   -0.9808    0.3521    1.2297 H   0  0  0  0  0  0  0  0  0  0  0  0
   -0.8603   -1.8638    1.0549 H   0  0  0  0  0  0  0  0  0  0  0  0
   -1.6097   -1.9825   -1.8994 H   0  0  0  0  0  0  0  0  0  0  0  0
    0.1789   -2.1083   -1.4001 H   0  0  0  0  0  0  0  0  0  0  0  0
   -0.8326   -4.3191   -1.5312 H   0  0  0  0  0  0  0  0  0  0  0  0
   -0.6880   -3.8582    0.2395 H   0  0  0  0  0  0  0  0  0  0  0  0
   -3.1004   -3.7351   -1.6571 H   0  0  0  0  0  0  0  0  0  0  0  0
   -2.9052   -4.8032   -0.2558 H   0  0  0  0  0  0  0  0  0  0  0  0
   -4.3911   -2.7209    0.0185 H   0  0  0  0  0  0  0  0  0  0  0  0
   -3.3224   -3.2070    1.3427 H   0  0  0  0  0  0  0  0  0  0  0  0
   -2.9688   -0.9547    1.2629 H   0  0  0  0  0  0  0  0  0  0  0  0
   -3.1738   -0.8518   -0.5769 H   0  0  0  0  0  0  0  0  0  0  0  0
   -4.8359    1.2725    0.9295 H   0  0  0  0  0  0  0  0  0  0  0  0
   -5.4884    1.5208    3.3481 H   0  0  0  0  0  0  0  0  0  0  0  0
   -1.5969    2.8838    4.2676 H   0  0  0  0  0  0  0  0  0  0  0  0
   -0.9592    2.6414    1.8843 H   0  0  0  0  0  0  0  0  0  0  0  0
   -3.3520    3.2361   -3.8961 H   0  0  0  0  0  0  0  0  0  0  0  0
   -0.0048   -0.2324   -2.8106 H   0  0  0  0  0  0  0  0  0  0  0  0
  1  2  2  0
  2  3  1  0
  3  4  1  0
  4  5  2  0
  5  6  1  0
  6  7  2  0
  7  8  1  0
  8  9  2  0
  9 10  1  0
 10 11  2  0
 11 12  1  0
  7 13  1  0
 13 14  2  0
 14 15  1  0
  2 16  1  0
 16 17  1  0
 17 18  1  0
 18 19  1  0
 19 20  1  0
 20 21  1  0
 21 22  1  0
 16 23  1  0
 23 24  1  0
 24 25  1  0
 25 26  2  0
 26 27  1  0
 27 28  2  0
 28 29  1  0
 28 30  1  0
 30 31  2  0
 24 32  2  0
 32 33  1  0
 33 34  2  0
 34 35  1  0
 35 36  1  0
 35 37  2  0
 37 38  1  0
 37 39  1  0
 39 40  2  0
 14  4  1  0
 22 17  1  0
 40 23  1  0
 12  8  1  0
 31 25  1  0
 40 33  1  0
  3 41  1  0
  5 42  1  0
  6 43  1  0
 12 44  1  0
 13 45  1  0
 16 46  1  1
 17 47  1  0
 18 48  1  0
 18 49  1  0
 19 50  1  0
 19 51  1  0
 20 52  1  0
 20 53  1  0
 21 54  1  0
 21 55  1  0
 22 56  1  0
 22 57  1  0
 26 58  1  0
 27 59  1  0
 30 60  1  0
 31 61  1  0
 34 62  1  0
 39 63  1  0
M  END
$$$$
