
     RDKit          3D

 64 69  0  0  0  0  0  0  0  0999 V2000
    8.6210    1.5915   -0.4139 C   0  0  0  0  0  0  0  0  0  0  0  0
    8.1423    0.7049    0.5273 O   0  0  0  0  0  0  0  0  0  0  0  0
    6.8820    0.2217    0.3142 C   0  0  0  0  0  0  0  0  0  0  0  0
    5.7959    1.2113    0.2982 C   0  0  0  0  0  0  0  0  0  0  0  0
    5.9759    2.4412    0.4947 O   0  0  0  0  0  0  0  0  0  0  0  0
    4.4742    0.7491    0.0469 N   0  0  0  0  0  0  0  0  0  0  0  0
    3.1977    1.4344   -0.0384 C   0  0  0  0  0  0  0  0  0  0  0  0
    2.5285    0.1090   -0.2045 C   0  0  0  0  0  0  0  0  0  0  0  0
    1.6771   -0.2249    0.9174 N   0  0  0  0  0  0  0  0  0  0  0  0
    2.0816   -0.6099    2.1380 C   0  0  0  0  0  0  0  0  0  0  0  0
    0.9748   -0.8354    2.9252 C   0  0  0  0  0  0  0  0  0  0  0  0
    0.9309   -1.2804    4.3630 C   0  0  0  0  0  0  0  0  0  0  0  0
   -0.1238   -0.5647    2.1119 C   0  0  0  0  0  0  0  0  0  0  0  0
    0.3326   -0.1938    0.8886 C   0  0  0  0  0  0  0  0  0  0  0  0
   -0.8361    0.0943   -0.0212 C   0  0  0  0  0  0  0  0  0  0  0  0
   -0.7670   -0.8563   -1.1489 C   0  0  0  0  0  0  0  0  0  0  0  0
   -0.5454   -0.4152   -2.4286 C   0  0  0  0  0  0  0  0  0  0  0  0
   -0.4724   -1.3356   -3.4801 C   0  0  0  0  0  0  0  0  0  0  0  0
   -0.6252   -2.6808   -3.2132 C   0  0  0  0  0  0  0  0  0  0  0  0
   -0.5431   -3.8901   -4.4988 Cl  0  0  0  0  0  0  0  0  0  0  0  0
   -0.8474   -3.1420   -1.9411 C   0  0  0  0  0  0  0  0  0  0  0  0
   -0.9135   -2.1968   -0.9230 C   0  0  0  0  0  0  0  0  0  0  0  0
   -1.9758   -0.1150    0.8357 N   0  0  0  0  0  0  0  0  0  0  0  0
   -3.3210    0.0926    0.4444 C   0  0  0  0  0  0  0  0  0  0  0  0
   -4.0780   -0.9345   -0.0534 C   0  0  0  0  0  0  0  0  0  0  0  0
   -5.3901   -0.7729   -0.4505 C   0  0  0  0  0  0  0  0  0  0  0  0
   -6.1569   -1.9231   -0.9813 C   0  0  0  0  0  0  0  0  0  0  0  0
   -5.9421    0.4829   -0.3324 C   0  0  0  0  0  0  0  0  0  0  0  0
   -7.1636    0.9821   -0.6183 N   0  0  0  0  0  0  0  0  0  0  0  0
   -7.1693    2.2667   -0.3118 N   0  0  0  0  0  0  0  0  0  0  0  0
   -5.9733    2.6386    0.1747 C   0  0  0  0  0  0  0  0  0  0  0  0
   -5.5707    3.9989    0.6350 C   0  0  0  0  0  0  0  0  0  0  0  0
   -5.2221    1.5211    0.1559 N   0  0  0  0  0  0  0  0  0  0  0  0
   -3.9429    1.3358    0.5363 C   0  0  0  0  0  0  0  0  0  0  0  0
   -1.5874   -0.5355    2.1397 C   0  0  0  0  0  0  0  0  0  0  0  0
   -2.3140   -0.8275    3.1273 O   0  0  0  0  0  0  0  0  0  0  0  0
    3.8655   -0.5528   -0.2204 C   0  0  0  0  0  0  0  0  0  0  0  0
    8.6302    1.0688   -1.4168 H   0  0  0  0  0  0  0  0  0  0  0  0
    8.0454    2.5084   -0.4680 H   0  0  0  0  0  0  0  0  0  0  0  0
    9.6874    1.8237   -0.1749 H   0  0  0  0  0  0  0  0  0  0  0  0
    6.7857   -0.3749   -0.6206 H   0  0  0  0  0  0  0  0  0  0  0  0
    6.6805   -0.5133    1.1453 H   0  0  0  0  0  0  0  0  0  0  0  0
    3.1866    2.1015   -0.9233 H   0  0  0  0  0  0  0  0  0  0  0  0
    2.9134    1.9908    0.8780 H   0  0  0  0  0  0  0  0  0  0  0  0
    2.0359    0.0493   -1.1945 H   0  0  0  0  0  0  0  0  0  0  0  0
    3.1129   -0.7384    2.4973 H   0  0  0  0  0  0  0  0  0  0  0  0
   -0.0911   -1.1319    4.7345 H   0  0  0  0  0  0  0  0  0  0  0  0
    1.0981   -2.3962    4.3571 H   0  0  0  0  0  0  0  0  0  0  0  0
    1.6559   -0.7524    4.9824 H   0  0  0  0  0  0  0  0  0  0  0  0
   -0.7431    1.1506   -0.3513 H   0  0  0  0  0  0  0  0  0  0  0  0
   -0.4227    0.6373   -2.6592 H   0  0  0  0  0  0  0  0  0  0  0  0
   -0.3010   -1.0445   -4.4987 H   0  0  0  0  0  0  0  0  0  0  0  0
   -0.9702   -4.2072   -1.7174 H   0  0  0  0  0  0  0  0  0  0  0  0
   -1.0890   -2.5769    0.0720 H   0  0  0  0  0  0  0  0  0  0  0  0
   -3.6516   -1.9177   -0.1430 H   0  0  0  0  0  0  0  0  0  0  0  0
   -5.8990   -2.1113   -2.0281 H   0  0  0  0  0  0  0  0  0  0  0  0
   -7.2414   -1.7593   -0.8161 H   0  0  0  0  0  0  0  0  0  0  0  0
   -5.8194   -2.8310   -0.4027 H   0  0  0  0  0  0  0  0  0  0  0  0
   -4.9593    4.4939   -0.1534 H   0  0  0  0  0  0  0  0  0  0  0  0
   -5.0560    3.9812    1.6126 H   0  0  0  0  0  0  0  0  0  0  0  0
   -6.4830    4.6145    0.7561 H   0  0  0  0  0  0  0  0  0  0  0  0
   -3.3927    2.1597    0.9168 H   0  0  0  0  0  0  0  0  0  0  0  0
    4.0662   -1.3292    0.5185 H   0  0  0  0  0  0  0  0  0  0  0  0
    4.2224   -0.8840   -1.2335 H   0  0  0  0  0  0  0  0  0  0  0  0
  1  2  1  0
  2  3  1  0
  3  4  1  0
  4  5  2  0
  4  6  1  0
  6  7  1  0
  7  8  1  0
  8  9  1  0
  9 10  1  0
 10 11  2  0
 11 12  1  0
 11 13  1  0
 13 14  2  0
 14 15  1  0
 15 16  1  0
 16 17  2  0
 17 18  1  0
 18 19  2  0
 19 20  1  0
 19 21  1  0
 21 22  2  0
 15 23  1  0
 23 24  1  0
 24 25  1  0
 25 26  2  0
 26 27  1  0
 26 28  1  0
 28 29  2  0
 29 30  1  0
 30 31  2  0
 31 32  1  0
 31 33  1  0
 33 34  1  0
 23 35  1  0
 35 36  2  0
  8 37  1  0
 37  6  1  0
 14  9  1  0
 22 16  1  0
 34 24  2  0
 35 13  1  0
 33 28  1  0
  1 38  1  0
  1 39  1  0
  1 40  1  0
  3 41  1  0
  3 42  1  0
  7 43  1  0
  7 44  1  0
  8 45  1  0
 10 46  1  0
 12 47  1  0
 12 48  1  0
 12 49  1  0
 15 50  1  0
 17 51  1  0
 18 52  1  0
 21 53  1  0
 22 54  1  0
 25 55  1  0
 27 56  1  0
 27 57  1  0
 27 58  1  0
 32 59  1  0
 32 60  1  0
 32 61  1  0
 34 62  1  0
 37 63  1  0
 37 64  1  0
M  END
$$$$
