
     RDKit          3D

 60 64  0  0  0  0  0  0  0  0999 V2000
    5.3377   -1.9095    3.0744 O   0  0  0  0  0  0  0  0  0  0  0  0
    5.0677   -1.4422    1.8997 C   0  0  0  0  0  0  0  0  0  0  0  0
    4.9724   -2.3459    0.8792 O   0  0  0  0  0  0  0  0  0  0  0  0
    4.8898    0.0263    1.8106 C   0  0  0  0  0  0  0  0  0  0  0  0
    3.8818    0.3273    0.7809 C   0  0  0  0  0  0  0  0  0  0  0  0
    2.5222    0.1158    0.8215 C   0  0  0  0  0  0  0  0  0  0  0  0
    1.9859    0.5736   -0.3170 N   0  0  0  0  0  0  0  0  0  0  0  0
    2.9649    1.0850   -1.1191 C   0  0  0  0  0  0  0  0  0  0  0  0
    2.9359    1.6760   -2.3624 C   0  0  0  0  0  0  0  0  0  0  0  0
    4.0797    2.1408   -2.9721 C   0  0  0  0  0  0  0  0  0  0  0  0
    5.2605    1.9903   -2.2906 C   0  0  0  0  0  0  0  0  0  0  0  0
    5.3160    1.4043   -1.0495 C   0  0  0  0  0  0  0  0  0  0  0  0
    4.1561    0.9372   -0.4390 C   0  0  0  0  0  0  0  0  0  0  0  0
    0.5714    0.5116   -0.5819 C   0  0  0  0  0  0  0  0  0  0  0  0
   -0.1587   -0.6025    0.0422 C   0  0  2  0  0  0  0  0  0  0  0  0
   -1.5184   -0.2885    0.2308 N   0  0  0  0  0  0  0  0  0  0  0  0
   -2.4916   -0.8008   -0.6441 C   0  0  0  0  0  0  0  0  0  0  0  0
   -2.9475   -2.1718   -0.4468 C   0  0  0  0  0  0  0  0  0  0  0  0
   -2.3930   -3.1832   -1.2403 C   0  0  0  0  0  0  0  0  0  0  0  0
   -2.7798   -4.4960   -1.0898 C   0  0  0  0  0  0  0  0  0  0  0  0
   -3.7255   -4.8565   -0.1506 C   0  0  0  0  0  0  0  0  0  0  0  0
   -4.1041   -6.1692   -0.0240 F   0  0  0  0  0  0  0  0  0  0  0  0
   -4.2724   -3.8693    0.6332 C   0  0  0  0  0  0  0  0  0  0  0  0
   -3.8819   -2.5535    0.4751 C   0  0  0  0  0  0  0  0  0  0  0  0
   -1.9770    0.9262    1.2763 S   0  0  0  0  0  6  0  0  0  0  0  0
   -0.7552    1.6390    1.8272 O   0  0  0  0  0  0  0  0  0  0  0  0
   -2.8247    0.4796    2.4445 O   0  0  0  0  0  0  0  0  0  0  0  0
   -2.8727    2.1559    0.4149 C   0  0  0  0  0  0  0  0  0  0  0  0
   -4.2561    2.0377    0.4477 C   0  0  0  0  0  0  0  0  0  0  0  0
   -5.0457    2.9429   -0.1982 C   0  0  0  0  0  0  0  0  0  0  0  0
   -4.4449    3.9773   -0.8862 C   0  0  0  0  0  0  0  0  0  0  0  0
   -5.1951    4.8928   -1.5375 F   0  0  0  0  0  0  0  0  0  0  0  0
   -3.0735    4.1006   -0.9236 C   0  0  0  0  0  0  0  0  0  0  0  0
   -2.2633    3.1754   -0.2618 C   0  0  0  0  0  0  0  0  0  0  0  0
    0.3934   -1.1077    1.3331 C   0  0  0  0  0  0  0  0  0  0  0  0
    1.6215   -0.5002    1.8430 C   0  0  0  0  0  0  0  0  0  0  0  0
    5.4134   -3.2633    0.8915 H   0  0  0  0  0  0  0  0  0  0  0  0
    4.5529    0.4208    2.8140 H   0  0  0  0  0  0  0  0  0  0  0  0
    5.8534    0.4884    1.5317 H   0  0  0  0  0  0  0  0  0  0  0  0
    1.9778    1.7628   -2.8526 H   0  0  0  0  0  0  0  0  0  0  0  0
    4.0367    2.6211   -3.9679 H   0  0  0  0  0  0  0  0  0  0  0  0
    6.1782    2.3628   -2.7676 H   0  0  0  0  0  0  0  0  0  0  0  0
    6.2633    1.2875   -0.5096 H   0  0  0  0  0  0  0  0  0  0  0  0
    0.4536    0.4259   -1.7115 H   0  0  0  0  0  0  0  0  0  0  0  0
    0.0694    1.4766   -0.3502 H   0  0  0  0  0  0  0  0  0  0  0  0
   -0.1370   -1.4610   -0.7053 H   0  0  0  0  0  0  0  0  0  0  0  0
   -3.3656   -0.0816   -0.6144 H   0  0  0  0  0  0  0  0  0  0  0  0
   -2.0994   -0.6268   -1.6957 H   0  0  0  0  0  0  0  0  0  0  0  0
   -1.6560   -2.9721   -1.9899 H   0  0  0  0  0  0  0  0  0  0  0  0
   -2.3581   -5.2884   -1.6977 H   0  0  0  0  0  0  0  0  0  0  0  0
   -5.0010   -4.1487    1.3669 H   0  0  0  0  0  0  0  0  0  0  0  0
   -4.3561   -1.8301    1.1241 H   0  0  0  0  0  0  0  0  0  0  0  0
   -4.6962    1.2307    0.9885 H   0  0  0  0  0  0  0  0  0  0  0  0
   -6.1415    2.8637   -0.1665 H   0  0  0  0  0  0  0  0  0  0  0  0
   -2.5824    4.8799   -1.4585 H   0  0  0  0  0  0  0  0  0  0  0  0
   -1.1950    3.2886   -0.2889 H   0  0  0  0  0  0  0  0  0  0  0  0
   -0.3772   -1.0975    2.1697 H   0  0  0  0  0  0  0  0  0  0  0  0
    0.5820   -2.2075    1.2138 H   0  0  0  0  0  0  0  0  0  0  0  0
    1.4205    0.3096    2.5797 H   0  0  0  0  0  0  0  0  0  0  0  0
    2.1884   -1.2601    2.4742 H   0  0  0  0  0  0  0  0  0  0  0  0
  1  2  2  0
  2  3  1  0
  2  4  1  0
  4  5  1  0
  5  6  2  0
  6  7  1  0
  7  8  1  0
  8  9  2  0
  9 10  1  0
 10 11  2  0
 11 12  1  0
 12 13  2  0
  7 14  1  0
 14 15  1  0
 15 16  1  0
 16 17  1  0
 17 18  1  0
 18 19  2  0
 19 20  1  0
 20 21  2  0
 21 22  1  0
 21 23  1  0
 23 24  2  0
 16 25  1  0
 25 26  2  0
 25 27  2  0
 25 28  1  0
 28 29  2  0
 29 30  1  0
 30 31  2  0
 31 32  1  0
 31 33  1  0
 33 34  2  0
 15 35  1  0
 35 36  1  0
 13  5  1  0
 24 18  1  0
 34 28  1  0
 36  6  1  0
 13  8  1  0
  3 37  1  0
  4 38  1  0
  4 39  1  0
  9 40  1  0
 10 41  1  0
 11 42  1  0
 12 43  1  0
 14 44  1  0
 14 45  1  0
 15 46  1  6
 17 47  1  0
 17 48  1  0
 19 49  1  0
 20 50  1  0
 23 51  1  0
 24 52  1  0
 29 53  1  0
 30 54  1  0
 33 55  1  0
 34 56  1  0
 35 57  1  0
 35 58  1  0
 36 59  1  0
 36 60  1  0
M  END
$$$$
