
     RDKit          3D

 50 53  0  0  0  0  0  0  0  0999 V2000
   -5.4270    0.0110    1.2778 C   0  0  0  0  0  0  0  0  0  0  0  0
   -5.9516   -0.3488   -0.1005 C   0  0  0  0  0  0  0  0  0  0  0  0
   -5.9537   -1.8275   -0.2532 C   0  0  0  0  0  0  0  0  0  0  0  0
   -7.3880    0.1367   -0.2184 C   0  0  0  0  0  0  0  0  0  0  0  0
   -4.9963    0.4962   -1.3166 S   0  0  0  0  0  6  0  0  0  0  0  0
   -5.1586    1.9811   -1.1511 O   0  0  0  0  0  0  0  0  0  0  0  0
   -5.5230    0.1643   -2.6972 O   0  0  0  0  0  0  0  0  0  0  0  0
   -3.3182    0.0971   -1.2749 C   0  0  0  0  0  0  0  0  0  0  0  0
   -2.7898   -0.9430   -2.0093 C   0  0  0  0  0  0  0  0  0  0  0  0
   -1.4355   -1.1836   -1.9089 C   0  0  0  0  0  0  0  0  0  0  0  0
   -0.5821   -0.4431   -1.1164 C   0  0  0  0  0  0  0  0  0  0  0  0
    0.7318   -0.4545   -0.8375 N   0  0  0  0  0  0  0  0  0  0  0  0
    1.0548    0.5194    0.0296 C   0  0  0  0  0  0  0  0  0  0  0  0
    2.3747    0.8415    0.5825 C   0  0  0  0  0  0  0  0  0  0  0  0
    2.4930    1.8961    1.4707 C   0  0  0  0  0  0  0  0  0  0  0  0
    3.7189    2.2258    2.0091 C   0  0  0  0  0  0  0  0  0  0  0  0
    4.7823    1.4622    1.6181 C   0  0  0  0  0  0  0  0  0  0  0  0
    5.9287    1.7292    2.0877 O   0  0  0  0  0  0  0  0  0  0  0  0
    4.6942    0.4258    0.7513 N   0  0  0  0  0  0  0  0  0  0  0  0
    5.8539   -0.3094    0.4045 C   0  0  0  0  0  0  0  0  0  0  0  0
    6.4632   -0.0914   -0.7995 C   0  0  0  0  0  0  0  0  0  0  0  0
    7.6138   -0.8102   -1.1615 C   0  0  0  0  0  0  0  0  0  0  0  0
    8.1058   -1.7382   -0.2670 C   0  0  0  0  0  0  0  0  0  0  0  0
    7.5077   -1.9759    0.9549 C   0  0  0  0  0  0  0  0  0  0  0  0
    6.3688   -1.2351    1.2636 C   0  0  0  0  0  0  0  0  0  0  0  0
    3.4865    0.1292    0.2439 C   0  0  0  0  0  0  0  0  0  0  0  0
   -0.0986    1.1573    0.2980 N   0  0  0  0  0  0  0  0  0  0  0  0
   -1.1216    0.5945   -0.3865 C   0  0  0  0  0  0  0  0  0  0  0  0
   -2.4798    0.8484   -0.4768 C   0  0  0  0  0  0  0  0  0  0  0  0
   -4.6502   -0.7580    1.5208 H   0  0  0  0  0  0  0  0  0  0  0  0
   -6.2709   -0.1311    2.0033 H   0  0  0  0  0  0  0  0  0  0  0  0
   -5.0089    1.0188    1.3303 H   0  0  0  0  0  0  0  0  0  0  0  0
   -5.1836   -2.3411    0.3652 H   0  0  0  0  0  0  0  0  0  0  0  0
   -5.9214   -2.1681   -1.3107 H   0  0  0  0  0  0  0  0  0  0  0  0
   -6.9374   -2.2132    0.1475 H   0  0  0  0  0  0  0  0  0  0  0  0
   -7.6625    0.3520   -1.2628 H   0  0  0  0  0  0  0  0  0  0  0  0
   -7.5242    1.1011    0.3498 H   0  0  0  0  0  0  0  0  0  0  0  0
   -8.1055   -0.5733    0.2485 H   0  0  0  0  0  0  0  0  0  0  0  0
   -3.4403   -1.5496   -2.6478 H   0  0  0  0  0  0  0  0  0  0  0  0
   -1.0042   -2.0069   -2.4874 H   0  0  0  0  0  0  0  0  0  0  0  0
    1.6034    2.4686    1.7437 H   0  0  0  0  0  0  0  0  0  0  0  0
    3.7749    3.0488    2.6943 H   0  0  0  0  0  0  0  0  0  0  0  0
    6.1102    0.6298   -1.5350 H   0  0  0  0  0  0  0  0  0  0  0  0
    8.0766   -0.6230   -2.1124 H   0  0  0  0  0  0  0  0  0  0  0  0
    9.0008   -2.2941   -0.5541 H   0  0  0  0  0  0  0  0  0  0  0  0
    7.8990   -2.7057    1.6524 H   0  0  0  0  0  0  0  0  0  0  0  0
    5.9238   -1.4411    2.2220 H   0  0  0  0  0  0  0  0  0  0  0  0
    3.4227   -0.7098   -0.4561 H   0  0  0  0  0  0  0  0  0  0  0  0
   -0.2106    1.9836    0.9489 H   0  0  0  0  0  0  0  0  0  0  0  0
   -2.8457    1.6803    0.1230 H   0  0  0  0  0  0  0  0  0  0  0  0
  1  2  1  0
  2  3  1  0
  2  4  1  0
  2  5  1  0
  5  6  2  0
  5  7  2  0
  5  8  1  0
  8  9  2  0
  9 10  1  0
 10 11  2  0
 11 12  1  0
 12 13  2  0
 13 14  1  0
 14 15  1  0
 15 16  2  0
 16 17  1  0
 17 18  2  0
 17 19  1  0
 19 20  1  0
 20 21  2  0
 21 22  1  0
 22 23  2  0
 23 24  1  0
 24 25  2  0
 19 26  1  0
 13 27  1  0
 27 28  1  0
 28 29  2  0
 29  8  1  0
 28 11  1  0
 26 14  2  0
 25 20  1  0
  1 30  1  0
  1 31  1  0
  1 32  1  0
  3 33  1  0
  3 34  1  0
  3 35  1  0
  4 36  1  0
  4 37  1  0
  4 38  1  0
  9 39  1  0
 10 40  1  0
 15 41  1  0
 16 42  1  0
 21 43  1  0
 22 44  1  0
 23 45  1  0
 24 46  1  0
 25 47  1  0
 26 48  1  0
 27 49  1  0
 29 50  1  0
M  END
$$$$
