
     RDKit          3D

 70 74  0  0  0  0  0  0  0  0999 V2000
    2.0297   -1.8351   -0.7867 N   0  0  0  0  0  0  0  0  0  0  0  0
    2.1711   -0.5473   -0.1026 C   0  0  0  0  0  0  0  0  0  0  0  0
    0.8115    0.0032    0.0681 C   0  0  0  0  0  0  0  0  0  0  0  0
    0.6307    1.1006    0.6530 O   0  0  0  0  0  0  0  0  0  0  0  0
   -0.3497   -0.6609   -0.4086 N   0  0  0  0  0  0  0  0  0  0  0  0
   -1.7047   -0.1045   -0.2334 C   0  0  0  0  0  0  0  0  0  0  0  0
   -2.5107   -1.1606    0.4329 C   0  0  0  0  0  0  0  0  0  0  0  0
   -3.9181   -0.8599    0.7268 C   0  0  0  0  0  0  0  0  0  0  0  0
   -4.2001    0.2873    1.6216 C   0  0  0  0  0  0  0  0  0  0  0  0
   -5.6248    0.4582    1.8109 N   0  0  0  0  0  0  0  0  0  0  0  0
   -6.2580   -0.5835    2.5479 C   0  0  0  0  0  0  0  0  0  0  0  0
   -7.7420   -0.2290    2.6436 C   0  0  0  0  0  0  0  0  0  0  0  0
   -7.9405    1.1272    2.4255 O   0  0  0  0  0  0  0  0  0  0  0  0
   -7.6874    1.4195    1.0877 C   0  0  0  0  0  0  0  0  0  0  0  0
   -6.3211    0.9582    0.6791 C   0  0  0  0  0  0  0  0  0  0  0  0
   -2.1723    0.2429   -1.5933 C   0  0  0  0  0  0  0  0  0  0  0  0
   -2.7802    1.4707   -1.7606 C   0  0  0  0  0  0  0  0  0  0  0  0
   -3.2411    1.8559   -3.0024 C   0  0  0  0  0  0  0  0  0  0  0  0
   -3.0727    0.9762   -4.0575 C   0  0  0  0  0  0  0  0  0  0  0  0
   -3.6504    1.4495   -5.6340 Cl  0  0  0  0  0  0  0  0  0  0  0  0
   -2.4641   -0.2508   -3.8853 C   0  0  0  0  0  0  0  0  0  0  0  0
   -2.0124   -0.6244   -2.6614 C   0  0  0  0  0  0  0  0  0  0  0  0
    2.9553    0.3301   -1.0493 C   0  0  0  0  0  0  0  0  0  0  0  0
    4.4191   -0.1393   -1.0194 C   0  0  0  0  0  0  0  0  0  0  0  0
    4.9271    0.3031    0.2588 N   0  0  0  0  0  0  0  0  0  0  0  0
    6.2595    0.7171    0.4538 C   0  0  0  0  0  0  0  0  0  0  0  0
    6.5262    1.9727    0.8698 N   0  0  0  0  0  0  0  0  0  0  0  0
    7.7751    2.3948    1.0609 C   0  0  0  0  0  0  0  0  0  0  0  0
    8.7921    1.5618    0.8378 N   0  0  0  0  0  0  0  0  0  0  0  0
    8.6300    0.2938    0.4226 C   0  0  0  0  0  0  0  0  0  0  0  0
    9.4891   -0.7009    0.1416 N   0  0  0  0  0  0  0  0  0  0  0  0
    8.7602   -1.7525   -0.2282 C   0  0  0  0  0  0  0  0  0  0  0  0
    7.4208   -1.4514   -0.1912 C   0  0  0  0  0  0  0  0  0  0  0  0
    7.3150   -0.1386    0.2252 C   0  0  0  0  0  0  0  0  0  0  0  0
    4.0129    0.3199    1.3789 C   0  0  0  0  0  0  0  0  0  0  0  0
    2.9209   -0.7029    1.1732 C   0  0  0  0  0  0  0  0  0  0  0  0
    2.7620   -2.5140   -0.4659 H   0  0  0  0  0  0  0  0  0  0  0  0
    1.9898   -1.7341   -1.8163 H   0  0  0  0  0  0  0  0  0  0  0  0
   -0.1928   -1.5747   -0.8952 H   0  0  0  0  0  0  0  0  0  0  0  0
   -1.5632    0.8232    0.3231 H   0  0  0  0  0  0  0  0  0  0  0  0
   -1.9833   -1.4337    1.3822 H   0  0  0  0  0  0  0  0  0  0  0  0
   -2.4639   -2.0739   -0.1956 H   0  0  0  0  0  0  0  0  0  0  0  0
   -4.4736   -0.6938   -0.2398 H   0  0  0  0  0  0  0  0  0  0  0  0
   -4.3854   -1.7704    1.1602 H   0  0  0  0  0  0  0  0  0  0  0  0
   -3.7820    0.0888    2.6534 H   0  0  0  0  0  0  0  0  0  0  0  0
   -3.7880    1.2484    1.3158 H   0  0  0  0  0  0  0  0  0  0  0  0
   -5.8596   -0.5874    3.5759 H   0  0  0  0  0  0  0  0  0  0  0  0
   -6.2008   -1.5748    2.0546 H   0  0  0  0  0  0  0  0  0  0  0  0
   -8.1493   -0.4626    3.6488 H   0  0  0  0  0  0  0  0  0  0  0  0
   -8.3209   -0.8259    1.8941 H   0  0  0  0  0  0  0  0  0  0  0  0
   -7.8164    2.5178    0.9310 H   0  0  0  0  0  0  0  0  0  0  0  0
   -8.4934    0.9449    0.4727 H   0  0  0  0  0  0  0  0  0  0  0  0
   -5.7706    1.8344    0.2789 H   0  0  0  0  0  0  0  0  0  0  0  0
   -6.4294    0.2542   -0.1656 H   0  0  0  0  0  0  0  0  0  0  0  0
   -2.9039    2.1552   -0.9088 H   0  0  0  0  0  0  0  0  0  0  0  0
   -3.7201    2.8261   -3.1294 H   0  0  0  0  0  0  0  0  0  0  0  0
   -2.3255   -0.9518   -4.7077 H   0  0  0  0  0  0  0  0  0  0  0  0
   -1.5260   -1.5629   -2.4361 H   0  0  0  0  0  0  0  0  0  0  0  0
    2.6322    0.2131   -2.1029 H   0  0  0  0  0  0  0  0  0  0  0  0
    2.9816    1.3909   -0.7250 H   0  0  0  0  0  0  0  0  0  0  0  0
    4.9916    0.2615   -1.8541 H   0  0  0  0  0  0  0  0  0  0  0  0
    4.4452   -1.2634   -1.0455 H   0  0  0  0  0  0  0  0  0  0  0  0
    7.9801    3.3984    1.3935 H   0  0  0  0  0  0  0  0  0  0  0  0
   10.5372   -0.6252    0.2122 H   0  0  0  0  0  0  0  0  0  0  0  0
    9.1525   -2.7127   -0.5185 H   0  0  0  0  0  0  0  0  0  0  0  0
    6.5950   -2.0973   -0.4348 H   0  0  0  0  0  0  0  0  0  0  0  0
    4.5829    0.0356    2.2809 H   0  0  0  0  0  0  0  0  0  0  0  0
    3.5864    1.3477    1.5318 H   0  0  0  0  0  0  0  0  0  0  0  0
    3.4345   -1.7082    1.1996 H   0  0  0  0  0  0  0  0  0  0  0  0
    2.2809   -0.6743    2.0767 H   0  0  0  0  0  0  0  0  0  0  0  0
  1  2  1  0
  2  3  1  0
  3  4  2  0
  3  5  1  0
  5  6  1  0
  6  7  1  0
  7  8  1  0
  8  9  1  0
  9 10  1  0
 10 11  1  0
 11 12  1  0
 12 13  1  0
 13 14  1  0
 14 15  1  0
  6 16  1  0
 16 17  2  0
 17 18  1  0
 18 19  2  0
 19 20  1  0
 19 21  1  0
 21 22  2  0
  2 23  1  0
 23 24  1  0
 24 25  1  0
 25 26  1  0
 26 27  2  0
 27 28  1  0
 28 29  2  0
 29 30  1  0
 30 31  1  0
 31 32  1  0
 32 33  2  0
 33 34  1  0
 25 35  1  0
 35 36  1  0
 36  2  1  0
 15 10  1  0
 22 16  1  0
 34 26  1  0
 34 30  2  0
  1 37  1  0
  1 38  1  0
  5 39  1  0
  6 40  1  0
  7 41  1  0
  7 42  1  0
  8 43  1  0
  8 44  1  0
  9 45  1  0
  9 46  1  0
 11 47  1  0
 11 48  1  0
 12 49  1  0
 12 50  1  0
 14 51  1  0
 14 52  1  0
 15 53  1  0
 15 54  1  0
 17 55  1  0
 18 56  1  0
 21 57  1  0
 22 58  1  0
 23 59  1  0
 23 60  1  0
 24 61  1  0
 24 62  1  0
 28 63  1  0
 31 64  1  0
 32 65  1  0
 33 66  1  0
 35 67  1  0
 35 68  1  0
 36 69  1  0
 36 70  1  0
M  END
$$$$
