
     RDKit          3D

 66 71  0  0  0  0  0  0  0  0999 V2000
   -4.8283   -0.6197    0.1056 O   0  0  0  0  0  0  0  0  0  0  0  0
   -3.5943   -0.8764    0.2992 C   0  0  0  0  0  0  0  0  0  0  0  0
   -3.0085   -2.0549    0.4407 N   0  0  0  0  0  0  0  0  0  0  0  0
   -3.6524   -3.3530    0.4069 C   0  0  0  0  0  0  0  0  0  0  0  0
   -3.1901   -4.2611    1.5023 C   0  0  0  0  0  0  0  0  0  0  0  0
   -2.9580   -5.6390    0.9700 C   0  0  0  0  0  0  0  0  0  0  0  0
   -3.9738   -6.0812    0.1579 O   0  0  0  0  0  0  0  0  0  0  0  0
   -4.2028   -5.3015   -0.9506 C   0  0  0  0  0  0  0  0  0  0  0  0
   -3.3611   -4.0415   -0.9297 C   0  0  0  0  0  0  0  0  0  0  0  0
   -1.7382   -1.8241    0.6167 N   0  0  0  0  0  0  0  0  0  0  0  0
   -1.4842   -0.5029    0.5919 C   0  0  0  0  0  0  0  0  0  0  0  0
   -0.1692    0.0869    0.7572 C   0  0  0  0  0  0  0  0  0  0  0  0
    0.0342    1.2765    1.4229 C   0  0  0  0  0  0  0  0  0  0  0  0
    1.3272    1.7368    1.5153 C   0  0  0  0  0  0  0  0  0  0  0  0
    2.3827    1.0636    0.9794 N   0  0  0  0  0  0  0  0  0  0  0  0
    2.2102   -0.0979    0.3259 C   0  0  0  0  0  0  0  0  0  0  0  0
    3.3083   -0.8124   -0.2401 N   0  0  0  0  0  0  0  0  0  0  0  0
    4.6677   -0.3118   -0.1340 C   0  0  0  0  0  0  0  0  0  0  0  0
    4.8320    1.0335   -0.7714 C   0  0  0  0  0  0  0  0  0  0  0  0
    6.2587    1.1357   -1.2991 C   0  0  0  0  0  0  0  0  0  0  0  0
    7.2539    0.6205   -0.2976 C   0  0  0  0  0  0  0  0  0  0  0  0
    7.0408   -0.8557   -0.1211 C   0  0  0  0  0  0  0  0  0  0  0  0
    5.6764   -1.2938   -0.6370 C   0  0  0  0  0  0  0  0  0  0  0  0
    0.9236   -0.5806    0.2195 C   0  0  0  0  0  0  0  0  0  0  0  0
   -2.6562    0.0951    0.3914 N   0  0  0  0  0  0  0  0  0  0  0  0
   -2.8377    1.4996    0.2987 C   0  0  0  0  0  0  0  0  0  0  0  0
   -3.6605    2.0967    1.2278 C   0  0  0  0  0  0  0  0  0  0  0  0
   -3.9009    3.4645    1.2204 C   0  0  0  0  0  0  0  0  0  0  0  0
   -3.2841    4.2342    0.2393 C   0  0  0  0  0  0  0  0  0  0  0  0
   -3.4788    5.6031    0.1723 C   0  0  0  0  0  0  0  0  0  0  0  0
   -2.8731    6.3771   -0.7952 C   0  0  0  0  0  0  0  0  0  0  0  0
   -2.0429    5.8061   -1.7401 C   0  0  0  0  0  0  0  0  0  0  0  0
   -1.8335    4.4439   -1.6938 C   0  0  0  0  0  0  0  0  0  0  0  0
   -2.4547    3.6697   -0.7060 C   0  0  0  0  0  0  0  0  0  0  0  0
   -2.2514    2.3041   -0.6508 C   0  0  0  0  0  0  0  0  0  0  0  0
   -4.7376   -3.2256    0.4561 H   0  0  0  0  0  0  0  0  0  0  0  0
   -2.2037   -3.8654    1.8832 H   0  0  0  0  0  0  0  0  0  0  0  0
   -3.9353   -4.2249    2.3175 H   0  0  0  0  0  0  0  0  0  0  0  0
   -2.8130   -6.3939    1.7727 H   0  0  0  0  0  0  0  0  0  0  0  0
   -2.0063   -5.6226    0.3934 H   0  0  0  0  0  0  0  0  0  0  0  0
   -5.2739   -4.9499   -0.8787 H   0  0  0  0  0  0  0  0  0  0  0  0
   -4.0922   -5.8321   -1.9098 H   0  0  0  0  0  0  0  0  0  0  0  0
   -2.2901   -4.2333   -1.0734 H   0  0  0  0  0  0  0  0  0  0  0  0
   -3.6836   -3.3852   -1.7637 H   0  0  0  0  0  0  0  0  0  0  0  0
   -0.8210    1.7885    1.8377 H   0  0  0  0  0  0  0  0  0  0  0  0
    1.4832    2.6729    2.0396 H   0  0  0  0  0  0  0  0  0  0  0  0
    3.1793   -1.7137   -0.7477 H   0  0  0  0  0  0  0  0  0  0  0  0
    4.8562   -0.1870    0.9653 H   0  0  0  0  0  0  0  0  0  0  0  0
    4.6933    1.8257   -0.0329 H   0  0  0  0  0  0  0  0  0  0  0  0
    4.1251    1.1537   -1.6409 H   0  0  0  0  0  0  0  0  0  0  0  0
    6.3586    0.4957   -2.2104 H   0  0  0  0  0  0  0  0  0  0  0  0
    6.5013    2.1622   -1.6238 H   0  0  0  0  0  0  0  0  0  0  0  0
    8.2655    0.8156   -0.7192 H   0  0  0  0  0  0  0  0  0  0  0  0
    7.2187    1.1774    0.6631 H   0  0  0  0  0  0  0  0  0  0  0  0
    7.1417   -1.0749    0.9635 H   0  0  0  0  0  0  0  0  0  0  0  0
    7.8343   -1.3969   -0.6733 H   0  0  0  0  0  0  0  0  0  0  0  0
    5.4492   -2.2848   -0.1452 H   0  0  0  0  0  0  0  0  0  0  0  0
    5.6974   -1.3950   -1.7270 H   0  0  0  0  0  0  0  0  0  0  0  0
    0.8043   -1.5257   -0.3151 H   0  0  0  0  0  0  0  0  0  0  0  0
   -4.1557    1.5148    2.0072 H   0  0  0  0  0  0  0  0  0  0  0  0
   -4.5290    3.9566    1.9212 H   0  0  0  0  0  0  0  0  0  0  0  0
   -4.1378    6.0328    0.9281 H   0  0  0  0  0  0  0  0  0  0  0  0
   -3.0412    7.4557   -0.8290 H   0  0  0  0  0  0  0  0  0  0  0  0
   -1.5681    6.4122   -2.4985 H   0  0  0  0  0  0  0  0  0  0  0  0
   -1.1990    3.9661   -2.4063 H   0  0  0  0  0  0  0  0  0  0  0  0
   -1.6014    1.8408   -1.3867 H   0  0  0  0  0  0  0  0  0  0  0  0
  1  2  2  0
  2  3  1  0
  3  4  1  0
  4  5  1  0
  5  6  1  0
  6  7  1  0
  7  8  1  0
  8  9  1  0
  3 10  1  0
 10 11  2  0
 11 12  1  0
 12 13  2  0
 13 14  1  0
 14 15  2  0
 15 16  1  0
 16 17  1  0
 17 18  1  0
 18 19  1  0
 19 20  1  0
 20 21  1  0
 21 22  1  0
 22 23  1  0
 16 24  2  0
 11 25  1  0
 25 26  1  0
 26 27  2  0
 27 28  1  0
 28 29  2  0
 29 30  1  0
 30 31  2  0
 31 32  1  0
 32 33  2  0
 33 34  1  0
 34 35  2  0
 25  2  1  0
 35 26  1  0
  9  4  1  0
 24 12  1  0
 34 29  1  0
 23 18  1  0
  4 36  1  0
  5 37  1  0
  5 38  1  0
  6 39  1  0
  6 40  1  0
  8 41  1  0
  8 42  1  0
  9 43  1  0
  9 44  1  0
 13 45  1  0
 14 46  1  0
 17 47  1  0
 18 48  1  0
 19 49  1  0
 19 50  1  0
 20 51  1  0
 20 52  1  0
 21 53  1  0
 21 54  1  0
 22 55  1  0
 22 56  1  0
 23 57  1  0
 23 58  1  0
 24 59  1  0
 27 60  1  0
 28 61  1  0
 30 62  1  0
 31 63  1  0
 32 64  1  0
 33 65  1  0
 35 66  1  0
M  END
$$$$
