
     RDKit          3D

 39 41  0  0  0  0  0  0  0  0999 V2000
   -5.7936    1.5253    3.0673 C   0  0  0  0  0  0  0  0  0  0  0  0
   -5.0893    0.8379    2.3280 C   0  0  0  0  0  0  0  0  0  0  0  0
   -4.2325    0.0336    1.4556 C   0  0  0  0  0  0  0  0  0  0  0  0
   -4.5908   -1.2886    1.2741 C   0  0  0  0  0  0  0  0  0  0  0  0
   -3.8431   -2.1451    0.5373 C   0  0  0  0  0  0  0  0  0  0  0  0
   -2.6763   -1.6321   -0.0423 C   0  0  0  0  0  0  0  0  0  0  0  0
   -2.3303   -0.3276    0.1414 C   0  0  0  0  0  0  0  0  0  0  0  0
   -3.1030    0.5616    0.9019 C   0  0  0  0  0  0  0  0  0  0  0  0
   -1.0596    0.2058   -0.4776 C   0  0  0  0  0  0  0  0  0  0  0  0
   -0.3665   -0.7026   -1.2751 N   0  0  0  0  0  0  0  0  0  0  0  0
    1.0391   -0.2197   -2.0302 S   0  0  0  0  0  6  0  0  0  0  0  0
    0.7982    0.8872   -3.0270 O   0  0  0  0  0  0  0  0  0  0  0  0
    1.6295   -1.3789   -2.8690 O   0  0  0  0  0  0  0  0  0  0  0  0
    2.3297    0.2949   -0.9665 C   0  0  0  0  0  0  0  0  0  0  0  0
    2.5892   -0.5206    0.1690 C   0  0  0  0  0  0  0  0  0  0  0  0
    3.6281   -0.1247    0.9620 C   0  0  0  0  0  0  0  0  0  0  0  0
    4.4030    0.9724    0.7282 C   0  0  0  0  0  0  0  0  0  0  0  0
    4.1641    1.8016   -0.4034 C   0  0  0  0  0  0  0  0  0  0  0  0
    5.0525    2.9229   -0.6288 C   0  0  0  0  0  0  0  0  0  0  0  0
    5.9407    3.1394    0.2074 O   0  0  0  0  0  0  0  0  0  0  0  0
    4.9664    3.7829   -1.7434 O   0  0  0  0  0  0  0  0  0  0  0  0
    3.1164    1.3784   -1.1732 C   0  0  0  0  0  0  0  0  0  0  0  0
   -0.3713   -2.0501   -0.7158 C   0  0  0  0  0  0  0  0  0  0  0  0
   -1.8067   -2.5716   -0.8102 C   0  0  0  0  0  0  0  0  0  0  0  0
   -6.3649    2.0982    3.6690 H   0  0  0  0  0  0  0  0  0  0  0  0
   -5.5228   -1.6879    1.7343 H   0  0  0  0  0  0  0  0  0  0  0  0
   -4.0627   -3.1943    0.3531 H   0  0  0  0  0  0  0  0  0  0  0  0
   -2.7791    1.6098    1.0157 H   0  0  0  0  0  0  0  0  0  0  0  0
   -0.3934    0.4588    0.4018 H   0  0  0  0  0  0  0  0  0  0  0  0
   -1.3385    1.1382   -1.0006 H   0  0  0  0  0  0  0  0  0  0  0  0
    2.0311   -1.3898    0.4015 H   0  0  0  0  0  0  0  0  0  0  0  0
    3.9028   -0.7096    1.8546 H   0  0  0  0  0  0  0  0  0  0  0  0
    5.2178    1.2689    1.3686 H   0  0  0  0  0  0  0  0  0  0  0  0
    5.8532    4.0424   -2.2399 H   0  0  0  0  0  0  0  0  0  0  0  0
    2.8809    1.9770   -2.0734 H   0  0  0  0  0  0  0  0  0  0  0  0
   -0.1509   -2.0014    0.3691 H   0  0  0  0  0  0  0  0  0  0  0  0
    0.2836   -2.6933   -1.2618 H   0  0  0  0  0  0  0  0  0  0  0  0
   -1.8342   -3.5224   -0.2348 H   0  0  0  0  0  0  0  0  0  0  0  0
   -2.1167   -2.7772   -1.8316 H   0  0  0  0  0  0  0  0  0  0  0  0
  1  2  3  0
  2  3  1  0
  3  4  2  0
  4  5  1  0
  5  6  2  0
  6  7  1  0
  7  8  2  0
  7  9  1  0
  9 10  1  0
 10 11  1  0
 11 12  2  0
 11 13  2  0
 11 14  1  0
 14 15  2  0
 15 16  1  0
 16 17  2  0
 17 18  1  0
 18 19  1  0
 19 20  2  0
 19 21  1  0
 18 22  2  0
 10 23  1  0
 23 24  1  0
  8  3  1  0
 22 14  1  0
 24  6  1  0
  1 25  1  0
  4 26  1  0
  5 27  1  0
  8 28  1  0
  9 29  1  0
  9 30  1  0
 15 31  1  0
 16 32  1  0
 17 33  1  0
 21 34  1  0
 22 35  1  0
 23 36  1  0
 23 37  1  0
 24 38  1  0
 24 39  1  0
M  END
$$$$
