
     RDKit          3D

 32 31  0  0  0  0  0  0  0  0999 V2000
    4.2617   -0.9438   -0.4370 N   0  0  0  0  0  0  0  0  0  0  0  0
    3.3206    0.0539   -0.9122 C   0  0  1  0  0  0  0  0  0  0  0  0
    1.9344   -0.5288   -1.0567 C   0  0  0  0  0  0  0  0  0  0  0  0
    1.3783   -1.0644    0.2348 C   0  0  0  0  0  0  0  0  0  0  0  0
   -0.0192   -1.6256   -0.0289 C   0  0  0  0  0  0  0  0  0  0  0  0
   -0.9056   -0.6185   -0.5310 N   0  0  0  0  0  0  0  0  0  0  0  0
   -2.0012   -0.2915    0.1087 C   0  0  0  0  0  0  0  0  0  0  0  0
   -2.2749   -0.9789    1.3243 N   0  0  0  0  0  0  0  0  0  0  0  0
   -2.9573    0.6860   -0.2836 N   0  0  0  0  0  0  0  0  0  0  0  0
   -4.1002    0.1815   -1.0437 C   0  0  0  0  0  0  0  0  0  0  0  0
   -2.9536    2.1281   -0.0305 C   0  0  0  0  0  0  0  0  0  0  0  0
    3.3861    1.2577   -0.0766 C   0  0  0  0  0  0  0  0  0  0  0  0
    2.5523    2.3258   -0.3818 O   0  0  0  0  0  0  0  0  0  0  0  0
    4.1872    1.3070    0.8944 O   0  0  0  0  0  0  0  0  0  0  0  0
    4.4168   -0.8798    0.5900 H   0  0  0  0  0  0  0  0  0  0  0  0
    3.9617   -1.8829   -0.7501 H   0  0  0  0  0  0  0  0  0  0  0  0
    3.6547    0.2968   -1.9540 H   0  0  0  0  0  0  0  0  0  0  0  0
    1.2546    0.2335   -1.4351 H   0  0  0  0  0  0  0  0  0  0  0  0
    2.0007   -1.3363   -1.8079 H   0  0  0  0  0  0  0  0  0  0  0  0
    2.0084   -1.8496    0.6672 H   0  0  0  0  0  0  0  0  0  0  0  0
    1.2468   -0.2383    0.9647 H   0  0  0  0  0  0  0  0  0  0  0  0
   -0.4073   -2.1197    0.8905 H   0  0  0  0  0  0  0  0  0  0  0  0
    0.0515   -2.4300   -0.8142 H   0  0  0  0  0  0  0  0  0  0  0  0
   -1.8065   -1.0601    2.2445 H   0  0  0  0  0  0  0  0  0  0  0  0
   -2.7989   -1.5872    1.9631 H   0  0  0  0  0  0  0  0  0  0  0  0
   -4.8977   -0.0282   -0.2901 H   0  0  0  0  0  0  0  0  0  0  0  0
   -4.4162    0.9547   -1.7648 H   0  0  0  0  0  0  0  0  0  0  0  0
   -3.8324   -0.7261   -1.6079 H   0  0  0  0  0  0  0  0  0  0  0  0
   -1.9475    2.5006    0.2297 H   0  0  0  0  0  0  0  0  0  0  0  0
   -3.6659    2.3505    0.8113 H   0  0  0  0  0  0  0  0  0  0  0  0
   -3.2988    2.6747   -0.9239 H   0  0  0  0  0  0  0  0  0  0  0  0
    2.6676    3.2388    0.0717 H   0  0  0  0  0  0  0  0  0  0  0  0
  1  2  1  0
  2  3  1  0
  3  4  1  0
  4  5  1  0
  5  6  1  0
  6  7  2  0
  7  8  1  0
  7  9  1  0
  9 10  1  0
  9 11  1  0
  2 12  1  0
 12 13  1  0
 12 14  2  0
  1 15  1  0
  1 16  1  0
  2 17  1  6
  3 18  1  0
  3 19  1  0
  4 20  1  0
  4 21  1  0
  5 22  1  0
  5 23  1  0
  8 24  1  0
  8 25  1  0
 10 26  1  0
 10 27  1  0
 10 28  1  0
 11 29  1  0
 11 30  1  0
 11 31  1  0
 13 32  1  0
M  END
$$$$
