
     RDKit          3D

 45 49  0  0  0  0  0  0  0  0999 V2000
   -8.5970   -0.4098   -1.3505 C   0  0  0  0  0  0  0  0  0  0  0  0
   -7.2785    0.2367   -1.0104 C   0  0  0  0  0  0  0  0  0  0  0  0
   -6.1265    0.1952   -1.2410 N   0  0  0  0  0  0  0  0  0  0  0  0
   -5.1287    0.9018   -0.7914 C   0  0  0  0  0  0  0  0  0  0  0  0
   -3.6893    0.7285   -1.1737 C   0  0  0  0  0  0  0  0  0  0  0  0
   -3.0986    0.9848   -2.3471 N   0  0  0  0  0  0  0  0  0  0  0  0
   -1.8086    0.6803   -2.2586 N   0  0  0  0  0  0  0  0  0  0  0  0
   -1.5409    0.2148   -1.0049 C   0  0  0  0  0  0  0  0  0  0  0  0
   -2.7238    0.2609   -0.3692 N   0  0  0  0  0  0  0  0  0  0  0  0
   -2.7804   -0.1620    1.0283 C   0  0  0  0  0  0  0  0  0  0  0  0
   -1.5664    0.3686    1.7670 C   0  0  0  0  0  0  0  0  0  0  0  0
   -0.3299    0.1465    1.0444 N   0  0  0  0  0  0  0  0  0  0  0  0
    0.8816    0.3615    1.7443 C   0  0  0  0  0  0  0  0  0  0  0  0
    0.8000    0.7358    2.9631 O   0  0  0  0  0  0  0  0  0  0  0  0
    2.1948    0.1743    1.1319 C   0  0  0  0  0  0  0  0  0  0  0  0
    2.6983    0.9382    0.1107 C   0  0  0  0  0  0  0  0  0  0  0  0
    3.9594    0.7044   -0.3596 C   0  0  0  0  0  0  0  0  0  0  0  0
    4.7860   -0.3028    0.1632 C   0  0  0  0  0  0  0  0  0  0  0  0
    6.1090   -0.5099   -0.3156 C   0  0  0  0  0  0  0  0  0  0  0  0
    7.1247   -1.3967    0.0297 C   0  0  0  0  0  0  0  0  0  0  0  0
    8.2914   -1.3238   -0.6150 C   0  0  0  0  0  0  0  0  0  0  0  0
    8.4989   -0.4051   -1.5938 C   0  0  0  0  0  0  0  0  0  0  0  0
    6.8582    0.4403   -1.5921 S   0  0  0  0  0  0  0  0  0  0  0  0
    4.2754   -1.0574    1.1773 C   0  0  0  0  0  0  0  0  0  0  0  0
    2.9990   -0.8393    1.6702 C   0  0  0  0  0  0  0  0  0  0  0  0
   -0.3166   -0.2871   -0.3225 C   0  0  0  0  0  0  0  0  0  0  0  0
   -5.4593    1.8735    0.1125 C   0  0  0  0  0  0  0  0  0  0  0  0
   -7.2921    1.6518    0.2286 S   0  0  0  0  0  0  0  0  0  0  0  0
   -9.0295   -0.9173   -0.4678 H   0  0  0  0  0  0  0  0  0  0  0  0
   -9.2993    0.3284   -1.8040 H   0  0  0  0  0  0  0  0  0  0  0  0
   -8.3397   -1.1518   -2.1296 H   0  0  0  0  0  0  0  0  0  0  0  0
   -2.8279   -1.2653    1.0761 H   0  0  0  0  0  0  0  0  0  0  0  0
   -3.6735    0.2370    1.5431 H   0  0  0  0  0  0  0  0  0  0  0  0
   -1.5110   -0.1593    2.7376 H   0  0  0  0  0  0  0  0  0  0  0  0
   -1.6936    1.4606    1.9914 H   0  0  0  0  0  0  0  0  0  0  0  0
    2.0972    1.7236   -0.3098 H   0  0  0  0  0  0  0  0  0  0  0  0
    4.4013    1.2847   -1.1698 H   0  0  0  0  0  0  0  0  0  0  0  0
    6.9487   -2.1721    0.8508 H   0  0  0  0  0  0  0  0  0  0  0  0
    9.1555   -2.0276   -0.3679 H   0  0  0  0  0  0  0  0  0  0  0  0
    9.3147   -0.1333   -2.2501 H   0  0  0  0  0  0  0  0  0  0  0  0
    4.9014   -1.8535    1.6024 H   0  0  0  0  0  0  0  0  0  0  0  0
    2.5986   -1.4412    2.4714 H   0  0  0  0  0  0  0  0  0  0  0  0
    0.5862    0.0101   -0.8864 H   0  0  0  0  0  0  0  0  0  0  0  0
   -0.4263   -1.4210   -0.3420 H   0  0  0  0  0  0  0  0  0  0  0  0
   -4.9430    2.5941    0.6528 H   0  0  0  0  0  0  0  0  0  0  0  0
  1  2  1  0
  2  3  2  0
  3  4  1  0
  4  5  1  0
  5  6  2  0
  6  7  1  0
  7  8  2  0
  8  9  1  0
  9 10  1  0
 10 11  1  0
 11 12  1  0
 12 13  1  0
 13 14  2  0
 13 15  1  0
 15 16  2  0
 16 17  1  0
 17 18  2  0
 18 19  1  0
 19 20  2  0
 20 21  1  0
 21 22  2  0
 22 23  1  0
 18 24  1  0
 24 25  2  0
 12 26  1  0
  4 27  2  0
 27 28  1  0
 28  2  1  0
  9  5  1  0
 25 15  1  0
 26  8  1  0
 23 19  1  0
  1 29  1  0
  1 30  1  0
  1 31  1  0
 10 32  1  0
 10 33  1  0
 11 34  1  0
 11 35  1  0
 16 36  1  0
 17 37  1  0
 20 38  1  0
 21 39  1  0
 22 40  1  0
 24 41  1  0
 25 42  1  0
 26 43  1  0
 26 44  1  0
 27 45  1  0
M  END
$$$$
