
     RDKit          3D

 69 71  0  0  0  0  0  0  0  0999 V2000
   -5.8006   -4.3958   -1.1875 C   0  0  0  0  0  0  0  0  0  0  0  0
   -5.4109   -4.4578    0.2867 C   0  0  0  0  0  0  0  0  0  0  0  0
   -4.9557   -3.2257    0.7590 O   0  0  0  0  0  0  0  0  0  0  0  0
   -3.8771   -2.5118    0.3043 C   0  0  0  0  0  0  0  0  0  0  0  0
   -3.3436   -3.1620   -0.6350 O   0  0  0  0  0  0  0  0  0  0  0  0
   -3.7240   -1.2298    1.0806 C   0  0  0  0  0  0  0  0  0  0  0  0
   -2.6101   -0.4739    0.6370 N   0  0  0  0  0  0  0  0  0  0  0  0
   -2.3633    0.7362    1.3439 C   0  0  1  0  0  0  0  0  0  0  0  0
   -1.1417    1.4043    0.8581 C   0  0  0  0  0  0  0  0  0  0  0  0
   -0.6466    2.4891    1.2583 O   0  0  0  0  0  0  0  0  0  0  0  0
   -0.1223    1.1929   -0.1107 N   0  0  0  0  0  0  0  0  0  0  0  0
    0.9812    2.0989   -0.3327 C   0  0  0  0  0  0  0  0  0  0  0  0
    1.0820    1.5539   -1.7416 C   0  0  0  0  0  0  0  0  0  0  0  0
    0.4028    0.3441   -1.1413 C   0  0  1  0  0  0  0  0  0  0  0  0
    1.4340   -0.6271   -0.6665 C   0  0  0  0  0  0  0  0  0  0  0  0
    1.6423   -0.5219    0.5726 O   0  0  0  0  0  0  0  0  0  0  0  0
    2.1008   -1.5507   -1.4807 N   0  0  0  0  0  0  0  0  0  0  0  0
    3.0956   -2.4914   -1.0390 C   0  0  0  0  0  0  0  0  0  0  0  0
    4.4248   -1.9025   -0.7831 C   0  0  0  0  0  0  0  0  0  0  0  0
    5.3688   -1.8210   -1.7910 C   0  0  0  0  0  0  0  0  0  0  0  0
    6.6318   -1.2668   -1.5638 C   0  0  0  0  0  0  0  0  0  0  0  0
    6.9732   -0.7766   -0.2971 C   0  0  0  0  0  0  0  0  0  0  0  0
    6.0382   -0.8563    0.7048 C   0  0  0  0  0  0  0  0  0  0  0  0
    4.8006   -1.4087    0.4491 C   0  0  0  0  0  0  0  0  0  0  0  0
    8.2858   -0.1948   -0.0395 C   0  0  0  0  0  0  0  0  0  0  0  0
    8.7908   -0.3450    1.2794 N   0  0  0  0  0  0  0  0  0  0  0  0
    9.0398    0.4400   -0.8744 N   0  0  0  0  0  0  0  0  0  0  0  0
   10.2782    0.9411   -0.4751 O   0  0  0  0  0  0  0  0  0  0  0  0
   -3.5706    1.6283    1.3376 C   0  0  0  0  0  0  0  0  0  0  0  0
   -4.0079    2.0078   -0.0494 C   0  0  0  0  0  0  0  0  0  0  0  0
   -5.1675    2.9783    0.0246 C   0  0  0  0  0  0  0  0  0  0  0  0
   -4.8171    4.2657    0.7344 C   0  0  0  0  0  0  0  0  0  0  0  0
   -3.3954    4.0894    1.2766 C   0  0  0  0  0  0  0  0  0  0  0  0
   -3.3847    2.8738    2.1501 C   0  0  0  0  0  0  0  0  0  0  0  0
   -6.1254   -3.3302   -1.3458 H   0  0  0  0  0  0  0  0  0  0  0  0
   -4.9406   -4.6514   -1.8167 H   0  0  0  0  0  0  0  0  0  0  0  0
   -6.6633   -5.0526   -1.4031 H   0  0  0  0  0  0  0  0  0  0  0  0
   -4.6727   -5.2861    0.4568 H   0  0  0  0  0  0  0  0  0  0  0  0
   -6.3375   -4.7273    0.8380 H   0  0  0  0  0  0  0  0  0  0  0  0
   -3.5791   -1.5296    2.1375 H   0  0  0  0  0  0  0  0  0  0  0  0
   -4.7166   -0.7001    1.0249 H   0  0  0  0  0  0  0  0  0  0  0  0
   -2.4690   -0.4292   -0.3849 H   0  0  0  0  0  0  0  0  0  0  0  0
   -2.1810    0.4608    2.4231 H   0  0  0  0  0  0  0  0  0  0  0  0
    1.8676    1.7773    0.2600 H   0  0  0  0  0  0  0  0  0  0  0  0
    0.7617    3.1839   -0.2769 H   0  0  0  0  0  0  0  0  0  0  0  0
    0.4722    2.1560   -2.4453 H   0  0  0  0  0  0  0  0  0  0  0  0
    2.1130    1.3385   -2.0960 H   0  0  0  0  0  0  0  0  0  0  0  0
   -0.3534   -0.1077   -1.8158 H   0  0  0  0  0  0  0  0  0  0  0  0
    1.7994   -1.4979   -2.4925 H   0  0  0  0  0  0  0  0  0  0  0  0
    2.7091   -2.9863   -0.1070 H   0  0  0  0  0  0  0  0  0  0  0  0
    3.1207   -3.3207   -1.7878 H   0  0  0  0  0  0  0  0  0  0  0  0
    5.1758   -2.1779   -2.7890 H   0  0  0  0  0  0  0  0  0  0  0  0
    7.4203   -1.1683   -2.2966 H   0  0  0  0  0  0  0  0  0  0  0  0
    6.2951   -0.4780    1.6909 H   0  0  0  0  0  0  0  0  0  0  0  0
    4.1323   -1.4344    1.2784 H   0  0  0  0  0  0  0  0  0  0  0  0
    9.5354   -0.9653    1.7127 H   0  0  0  0  0  0  0  0  0  0  0  0
    9.1592   -0.4524    2.2493 H   0  0  0  0  0  0  0  0  0  0  0  0
   11.1040    0.7598   -1.0623 H   0  0  0  0  0  0  0  0  0  0  0  0
   -4.4062    1.0670    1.8030 H   0  0  0  0  0  0  0  0  0  0  0  0
   -3.2192    2.4318   -0.6887 H   0  0  0  0  0  0  0  0  0  0  0  0
   -4.4578    1.0850   -0.5379 H   0  0  0  0  0  0  0  0  0  0  0  0
   -6.0618    2.5068    0.4930 H   0  0  0  0  0  0  0  0  0  0  0  0
   -5.5119    3.2468   -1.0070 H   0  0  0  0  0  0  0  0  0  0  0  0
   -4.8262    5.1162    0.0318 H   0  0  0  0  0  0  0  0  0  0  0  0
   -5.5023    4.4758    1.5956 H   0  0  0  0  0  0  0  0  0  0  0  0
   -2.7315    4.0412    0.3925 H   0  0  0  0  0  0  0  0  0  0  0  0
   -3.2030    5.0186    1.8708 H   0  0  0  0  0  0  0  0  0  0  0  0
   -2.4946    2.8271    2.8148 H   0  0  0  0  0  0  0  0  0  0  0  0
   -4.2441    2.9783    2.8444 H   0  0  0  0  0  0  0  0  0  0  0  0
  1  2  1  0
  2  3  1  0
  3  4  1  0
  4  5  2  0
  4  6  1  0
  6  7  1  0
  7  8  1  0
  8  9  1  0
  9 10  2  0
  9 11  1  0
 11 12  1  0
 12 13  1  0
 13 14  1  0
 14 15  1  0
 15 16  2  0
 15 17  1  0
 17 18  1  0
 18 19  1  0
 19 20  2  0
 20 21  1  0
 21 22  2  0
 22 23  1  0
 23 24  2  0
 22 25  1  0
 25 26  1  0
 25 27  2  0
 27 28  1  0
  8 29  1  0
 29 30  1  0
 30 31  1  0
 31 32  1  0
 32 33  1  0
 33 34  1  0
 14 11  1  0
 24 19  1  0
 34 29  1  0
  1 35  1  0
  1 36  1  0
  1 37  1  0
  2 38  1  0
  2 39  1  0
  6 40  1  0
  6 41  1  0
  7 42  1  0
  8 43  1  1
 12 44  1  0
 12 45  1  0
 13 46  1  0
 13 47  1  0
 14 48  1  6
 17 49  1  0
 18 50  1  0
 18 51  1  0
 20 52  1  0
 21 53  1  0
 23 54  1  0
 24 55  1  0
 26 56  1  0
 26 57  1  0
 28 58  1  0
 29 59  1  0
 30 60  1  0
 30 61  1  0
 31 62  1  0
 31 63  1  0
 32 64  1  0
 32 65  1  0
 33 66  1  0
 33 67  1  0
 34 68  1  0
 34 69  1  0
M  END
$$$$
