
     RDKit          3D

 41 44  0  0  0  0  0  0  0  0999 V2000
   -2.8201   -2.5291    1.7547 C   0  0  0  0  0  0  0  0  0  0  0  0
   -2.4606   -1.4089    0.8922 N   0  0  0  0  0  0  0  0  0  0  0  0
   -1.4698   -0.4228    1.1314 C   0  0  0  0  0  0  0  0  0  0  0  0
   -0.7299   -0.3824    2.1729 O   0  0  0  0  0  0  0  0  0  0  0  0
   -1.4902    0.4802   -0.0188 C   0  0  0  0  0  0  0  0  0  0  0  0
   -1.8856    1.8972    0.4097 C   0  0  0  0  0  0  0  0  0  0  0  0
   -2.8977    2.6137   -0.0999 C   0  0  0  0  0  0  0  0  0  0  0  0
   -3.1480    3.8466    0.3540 C   0  0  0  0  0  0  0  0  0  0  0  0
   -1.8986    4.1195    1.6186 S   0  0  0  0  0  0  0  0  0  0  0  0
   -1.1303    2.4777    1.4025 C   0  0  0  0  0  0  0  0  0  0  0  0
   -0.2269    0.5484   -0.7591 C   0  0  0  0  0  0  0  0  0  0  0  0
   -0.2233    1.2336   -1.9686 C   0  0  0  0  0  0  0  0  0  0  0  0
    0.9177    1.3424   -2.7166 C   0  0  0  0  0  0  0  0  0  0  0  0
    2.0969    0.7689   -2.2810 C   0  0  0  0  0  0  0  0  0  0  0  0
    2.1334    0.0786   -1.0822 C   0  0  0  0  0  0  0  0  0  0  0  0
    3.3505   -0.5395   -0.5850 C   0  0  0  0  0  0  0  0  0  0  0  0
    3.5715   -0.6435    0.7729 C   0  0  0  0  0  0  0  0  0  0  0  0
    4.7344   -1.2335    1.2486 C   0  0  0  0  0  0  0  0  0  0  0  0
    5.6887   -1.7256    0.3758 C   0  0  0  0  0  0  0  0  0  0  0  0
    5.4467   -1.6105   -0.9398 N   0  0  0  0  0  0  0  0  0  0  0  0
    4.3127   -1.0356   -1.4325 C   0  0  0  0  0  0  0  0  0  0  0  0
    0.9499   -0.0089   -0.3504 C   0  0  0  0  0  0  0  0  0  0  0  0
   -2.5196   -0.0671   -0.8624 N   0  0  0  0  0  0  0  0  0  0  0  0
   -3.0646   -1.1187   -0.3617 C   0  0  0  0  0  0  0  0  0  0  0  0
   -4.1229   -1.8958   -0.9616 N   0  0  0  0  0  0  0  0  0  0  0  0
   -3.3267   -3.3282    1.2154 H   0  0  0  0  0  0  0  0  0  0  0  0
   -3.4110   -2.1772    2.6118 H   0  0  0  0  0  0  0  0  0  0  0  0
   -1.8545   -2.9568    2.1391 H   0  0  0  0  0  0  0  0  0  0  0  0
   -3.5424    2.1831   -0.9116 H   0  0  0  0  0  0  0  0  0  0  0  0
   -3.9002    4.5847    0.0886 H   0  0  0  0  0  0  0  0  0  0  0  0
   -0.2872    2.1248    1.9610 H   0  0  0  0  0  0  0  0  0  0  0  0
   -1.1274    1.6950   -2.3415 H   0  0  0  0  0  0  0  0  0  0  0  0
    0.8820    1.8851   -3.6559 H   0  0  0  0  0  0  0  0  0  0  0  0
    2.9711    0.8725   -2.8909 H   0  0  0  0  0  0  0  0  0  0  0  0
    2.8192   -0.2555    1.4502 H   0  0  0  0  0  0  0  0  0  0  0  0
    4.9046   -1.3143    2.3177 H   0  0  0  0  0  0  0  0  0  0  0  0
    6.6035   -2.1895    0.7322 H   0  0  0  0  0  0  0  0  0  0  0  0
    4.1903   -0.9801   -2.4990 H   0  0  0  0  0  0  0  0  0  0  0  0
    0.9813   -0.5443    0.5774 H   0  0  0  0  0  0  0  0  0  0  0  0
   -4.1163   -2.9284   -0.8719 H   0  0  0  0  0  0  0  0  0  0  0  0
   -4.9007   -1.4557   -1.4863 H   0  0  0  0  0  0  0  0  0  0  0  0
  1  2  1  0
  2  3  1  0
  3  4  2  0
  3  5  1  0
  5  6  1  0
  6  7  1  0
  7  8  2  0
  8  9  1  0
  9 10  1  0
  5 11  1  0
 11 12  2  0
 12 13  1  0
 13 14  2  0
 14 15  1  0
 15 16  1  0
 16 17  2  0
 17 18  1  0
 18 19  2  0
 19 20  1  0
 20 21  2  0
 15 22  2  0
  5 23  1  0
 23 24  2  0
 24 25  1  0
 24  2  1  0
 10  6  2  0
 22 11  1  0
 21 16  1  0
  1 26  1  0
  1 27  1  0
  1 28  1  0
  7 29  1  0
  8 30  1  0
 10 31  1  0
 12 32  1  0
 13 33  1  0
 14 34  1  0
 17 35  1  0
 18 36  1  0
 19 37  1  0
 21 38  1  0
 22 39  1  0
 25 40  1  0
 25 41  1  0
M  END
$$$$
