
     RDKit          3D

 37 40  0  0  0  0  0  0  0  0999 V2000
   -5.6168    2.4507   -1.0648 O   0  0  0  0  0  0  0  0  0  0  0  0
   -4.7121    1.3728   -1.0280 C   0  0  0  0  0  0  0  0  0  0  0  0
   -5.1420    0.3036   -1.4858 O   0  0  0  0  0  0  0  0  0  0  0  0
   -3.4166    1.7239   -0.4476 C   0  0  0  0  0  0  0  0  0  0  0  0
   -2.4569    0.6616   -0.3852 N   0  0  0  0  0  0  0  0  0  0  0  0
   -1.5415    0.3148   -1.3089 C   0  0  0  0  0  0  0  0  0  0  0  0
   -0.7693   -0.7750   -0.9081 C   0  0  0  0  0  0  0  0  0  0  0  0
    0.3186   -1.3600   -1.7312 C   0  0  0  0  0  0  0  0  0  0  0  0
    1.5998   -0.8810   -1.1674 C   0  0  0  0  0  0  0  0  0  0  0  0
    2.2847    0.0927   -1.3444 N   0  0  0  0  0  0  0  0  0  0  0  0
    3.4252    0.3435   -0.7315 C   0  0  0  0  0  0  0  0  0  0  0  0
    3.8962   -0.5695    0.1951 C   0  0  0  0  0  0  0  0  0  0  0  0
    2.6101   -1.7976    0.1294 S   0  0  0  0  0  0  0  0  0  0  0  0
    5.0559   -0.4262    0.8928 C   0  0  0  0  0  0  0  0  0  0  0  0
    5.3527   -1.4093    1.7464 F   0  0  0  0  0  0  0  0  0  0  0  0
    5.8710    0.6764    0.7199 C   0  0  0  0  0  0  0  0  0  0  0  0
    5.3847    1.5904   -0.2179 C   0  0  0  0  0  0  0  0  0  0  0  0
    6.2037    2.6837   -0.3816 F   0  0  0  0  0  0  0  0  0  0  0  0
    4.2236    1.4720   -0.9331 C   0  0  0  0  0  0  0  0  0  0  0  0
    3.9507    2.4944   -1.7965 F   0  0  0  0  0  0  0  0  0  0  0  0
   -1.2613   -1.0821    0.3185 C   0  0  0  0  0  0  0  0  0  0  0  0
   -2.2796   -0.2021    0.6147 C   0  0  0  0  0  0  0  0  0  0  0  0
   -2.9058   -0.3680    1.8390 C   0  0  0  0  0  0  0  0  0  0  0  0
   -2.5276   -1.3624    2.7119 C   0  0  0  0  0  0  0  0  0  0  0  0
   -1.5107   -2.2433    2.4181 C   0  0  0  0  0  0  0  0  0  0  0  0
   -0.8885   -2.0757    1.1978 C   0  0  0  0  0  0  0  0  0  0  0  0
   -6.5004    2.3678   -1.5857 H   0  0  0  0  0  0  0  0  0  0  0  0
   -2.9727    2.5060   -1.1326 H   0  0  0  0  0  0  0  0  0  0  0  0
   -3.4986    2.2674    0.5375 H   0  0  0  0  0  0  0  0  0  0  0  0
   -1.4230    0.8345   -2.2640 H   0  0  0  0  0  0  0  0  0  0  0  0
    0.2757   -0.9808   -2.7647 H   0  0  0  0  0  0  0  0  0  0  0  0
    0.2261   -2.4659   -1.6908 H   0  0  0  0  0  0  0  0  0  0  0  0
    6.7746    0.7836    1.2662 H   0  0  0  0  0  0  0  0  0  0  0  0
   -3.7047    0.3300    2.0607 H   0  0  0  0  0  0  0  0  0  0  0  0
   -3.0193   -1.4876    3.6647 H   0  0  0  0  0  0  0  0  0  0  0  0
   -1.2119   -3.0258    3.1035 H   0  0  0  0  0  0  0  0  0  0  0  0
   -0.0940   -2.7573    0.9536 H   0  0  0  0  0  0  0  0  0  0  0  0
  1  2  1  0
  2  3  2  0
  2  4  1  0
  4  5  1  0
  5  6  1  0
  6  7  2  0
  7  8  1  0
  8  9  1  0
  9 10  2  0
 10 11  1  0
 11 12  2  0
 12 13  1  0
 12 14  1  0
 14 15  1  0
 14 16  2  0
 16 17  1  0
 17 18  1  0
 17 19  2  0
 19 20  1  0
  7 21  1  0
 21 22  2  0
 22 23  1  0
 23 24  2  0
 24 25  1  0
 25 26  2  0
 22  5  1  0
 13  9  1  0
 26 21  1  0
 19 11  1  0
  1 27  1  0
  4 28  1  0
  4 29  1  0
  6 30  1  0
  8 31  1  0
  8 32  1  0
 16 33  1  0
 23 34  1  0
 24 35  1  0
 25 36  1  0
 26 37  1  0
M  END
$$$$
