
     RDKit          3D

 41 42  0  0  0  0  0  0  0  0999 V2000
   -4.9645    1.7038    3.7963 N   0  0  0  0  0  0  0  0  0  0  0  0
   -4.8565    1.4978    2.6536 C   0  0  0  0  0  0  0  0  0  0  0  0
   -4.7177    1.2256    1.2750 C   0  0  2  0  0  0  0  0  0  0  0  0
   -5.7449    0.2804    0.6826 C   0  0  0  0  0  0  0  0  0  0  0  0
   -5.1817    0.0518   -0.7053 C   0  0  0  0  0  0  0  0  0  0  0  0
   -3.6936    0.3980   -0.5756 C   0  0  0  0  0  0  0  0  0  0  0  0
   -3.5071    0.5137    0.8852 N   0  0  0  0  0  0  0  0  0  0  0  0
   -2.4353    0.0397    1.6600 C   0  0  0  0  0  0  0  0  0  0  0  0
   -2.4187    0.1984    2.8880 O   0  0  0  0  0  0  0  0  0  0  0  0
   -1.3103   -0.6617    0.9908 C   0  0  0  0  0  0  0  0  0  0  0  0
   -0.3457   -1.0736    1.9801 N   0  0  0  0  0  0  0  0  0  0  0  0
    0.8157   -1.6995    1.3582 C   0  0  0  0  0  0  0  0  0  0  0  0
    1.6453   -0.6663    0.6145 C   0  0  0  0  0  0  0  0  0  0  0  0
    2.7648   -1.3444   -0.0064 N   0  0  0  0  0  0  0  0  0  0  0  0
    3.6841   -0.5805   -0.7906 C   0  0  0  0  0  0  0  0  0  0  0  0
    4.7505   -1.2089   -1.4493 C   0  0  0  0  0  0  0  0  0  0  0  0
    5.6378   -0.4902   -2.2014 C   0  0  0  0  0  0  0  0  0  0  0  0
    5.5042    0.8684   -2.3293 C   0  0  0  0  0  0  0  0  0  0  0  0
    6.3903    1.6491   -3.0869 N   0  0  0  0  0  4  0  0  0  0  0  0
    6.2739    2.8685   -3.1999 O   0  0  0  0  0  0  0  0  0  0  0  0
    7.4291    1.0090   -3.7262 O   0  0  0  0  0  1  0  0  0  0  0  0
    4.4284    1.4808   -1.6613 C   0  0  0  0  0  0  0  0  0  0  0  0
    3.5809    0.7443   -0.9349 N   0  0  0  0  0  0  0  0  0  0  0  0
   -4.7330    2.1473    0.6248 H   0  0  0  0  0  0  0  0  0  0  0  0
   -6.7536    0.7350    0.6515 H   0  0  0  0  0  0  0  0  0  0  0  0
   -5.7079   -0.6960    1.2163 H   0  0  0  0  0  0  0  0  0  0  0  0
   -5.6794    0.8032   -1.3744 H   0  0  0  0  0  0  0  0  0  0  0  0
   -5.3344   -0.9954   -1.0407 H   0  0  0  0  0  0  0  0  0  0  0  0
   -3.5589    1.4212   -0.9770 H   0  0  0  0  0  0  0  0  0  0  0  0
   -3.0610   -0.3529   -1.0324 H   0  0  0  0  0  0  0  0  0  0  0  0
   -1.7573   -1.6276    0.5978 H   0  0  0  0  0  0  0  0  0  0  0  0
   -0.8996   -0.1540    0.1237 H   0  0  0  0  0  0  0  0  0  0  0  0
    0.0184   -0.2612    2.5353 H   0  0  0  0  0  0  0  0  0  0  0  0
    1.4475   -2.1049    2.1694 H   0  0  0  0  0  0  0  0  0  0  0  0
    0.5316   -2.4952    0.6565 H   0  0  0  0  0  0  0  0  0  0  0  0
    2.0866    0.0115    1.3945 H   0  0  0  0  0  0  0  0  0  0  0  0
    1.0880   -0.1373   -0.1683 H   0  0  0  0  0  0  0  0  0  0  0  0
    2.9135   -2.3598    0.1146 H   0  0  0  0  0  0  0  0  0  0  0  0
    4.8647   -2.2901   -1.3557 H   0  0  0  0  0  0  0  0  0  0  0  0
    6.4590   -0.9936   -2.7172 H   0  0  0  0  0  0  0  0  0  0  0  0
    4.3470    2.5460   -1.7801 H   0  0  0  0  0  0  0  0  0  0  0  0
  1  2  3  0
  2  3  1  0
  3  4  1  0
  4  5  1  0
  5  6  1  0
  6  7  1  0
  7  8  1  0
  8  9  2  0
  8 10  1  0
 10 11  1  0
 11 12  1  0
 12 13  1  0
 13 14  1  0
 14 15  1  0
 15 16  2  0
 16 17  1  0
 17 18  2  0
 18 19  1  0
 19 20  2  0
 19 21  1  0
 18 22  1  0
 22 23  2  0
  7  3  1  0
 23 15  1  0
  3 24  1  6
  4 25  1  0
  4 26  1  0
  5 27  1  0
  5 28  1  0
  6 29  1  0
  6 30  1  0
 10 31  1  0
 10 32  1  0
 11 33  1  0
 12 34  1  0
 12 35  1  0
 13 36  1  0
 13 37  1  0
 14 38  1  0
 16 39  1  0
 17 40  1  0
 22 41  1  0
M  CHG  2  19   1  21  -1
M  END
$$$$
