
     RDKit          3D

 84 88  0  0  0  0  0  0  0  0999 V2000
    6.6230    1.1506    0.6682 C   0  0  0  0  0  0  0  0  0  0  0  0
    6.9680   -0.3121    0.7643 C   0  0  0  0  0  0  0  0  0  0  0  0
    6.3629   -1.3254    0.2319 C   0  0  0  0  0  0  0  0  0  0  0  0
    5.1927   -1.3752   -0.6049 C   0  0  0  0  0  0  0  0  0  0  0  0
    4.7883   -2.5305   -0.9879 O   0  0  0  0  0  0  0  0  0  0  0  0
    4.4458   -0.2836   -1.0527 N   0  0  0  0  0  0  0  0  0  0  0  0
    3.2780   -0.5270   -1.9051 C   0  0  2  0  0  0  0  0  0  0  0  0
    3.5734    0.0964   -3.2562 C   0  0  0  0  0  0  0  0  0  0  0  0
    2.1014    0.1205   -1.2750 C   0  0  0  0  0  0  0  0  0  0  0  0
    2.1696    0.6527   -0.1246 O   0  0  0  0  0  0  0  0  0  0  0  0
    0.8480    0.1980   -1.8844 N   0  0  0  0  0  0  0  0  0  0  0  0
   -0.3157    0.8261   -1.2890 C   0  0  1  0  0  0  0  0  0  0  0  0
   -0.5908    2.1612   -1.9079 C   0  0  0  0  0  0  0  0  0  0  0  0
   -1.7664    2.7709   -1.2782 C   0  0  0  0  0  0  0  0  0  0  0  0
   -3.0432    2.9450   -1.7938 C   0  0  0  0  0  0  0  0  0  0  0  0
   -3.7927    3.5959   -0.8708 N   0  0  0  0  0  0  0  0  0  0  0  0
   -3.0715    3.8516    0.2147 C   0  0  0  0  0  0  0  0  0  0  0  0
   -3.3455    4.4677    1.3983 C   0  0  0  0  0  0  0  0  0  0  0  0
   -2.3884    4.6102    2.3960 C   0  0  0  0  0  0  0  0  0  0  0  0
   -1.1374    4.1178    2.1808 C   0  0  0  0  0  0  0  0  0  0  0  0
   -0.8471    3.4966    0.9959 C   0  0  0  0  0  0  0  0  0  0  0  0
   -1.8012    3.3427   -0.0227 C   0  0  0  0  0  0  0  0  0  0  0  0
   -1.4619   -0.0514   -1.5385 C   0  0  0  0  0  0  0  0  0  0  0  0
   -1.3737   -0.9351   -2.4460 O   0  0  0  0  0  0  0  0  0  0  0  0
   -2.6937    0.0015   -0.8300 N   0  0  0  0  0  0  0  0  0  0  0  0
   -3.8273   -0.8606   -1.1060 C   0  0  2  0  0  0  0  0  0  0  0  0
   -5.0621   -0.0939   -0.9270 C   0  0  0  0  0  0  0  0  0  0  0  0
   -5.4537    0.4092    0.2375 C   0  0  0  0  0  0  0  0  0  0  0  0
   -6.9275    1.3182    0.4272 S   0  0  0  0  0  6  0  0  0  0  0  0
   -7.0915    1.9321    2.0906 C   0  0  0  0  0  0  0  0  0  0  0  0
   -7.0003    2.4293   -0.5490 O   0  0  0  0  0  0  0  0  0  0  0  0
   -8.0552    0.3528    0.1080 O   0  0  0  0  0  0  0  0  0  0  0  0
   -3.6902   -2.0365   -0.1396 C   0  0  0  0  0  0  0  0  0  0  0  0
   -4.7524   -3.0398   -0.2585 C   0  0  0  0  0  0  0  0  0  0  0  0
   -5.9066   -3.0386    0.4802 C   0  0  0  0  0  0  0  0  0  0  0  0
   -6.9098   -3.9836    0.3573 C   0  0  0  0  0  0  0  0  0  0  0  0
   -6.7718   -5.0062   -0.5579 C   0  0  0  0  0  0  0  0  0  0  0  0
   -5.6179   -5.0503   -1.3315 C   0  0  0  0  0  0  0  0  0  0  0  0
   -4.6302   -4.0826   -1.1791 C   0  0  0  0  0  0  0  0  0  0  0  0
    7.0819   -2.6028    0.5894 C   0  0  0  0  0  0  0  0  0  0  0  0
    8.1920   -2.1620    1.4450 C   0  0  0  0  0  0  0  0  0  0  0  0
    9.2005   -2.8825    2.1002 C   0  0  0  0  0  0  0  0  0  0  0  0
   10.1366   -2.1933    2.8459 C   0  0  0  0  0  0  0  0  0  0  0  0
   10.0639   -0.8389    2.9315 C   0  0  0  0  0  0  0  0  0  0  0  0
    9.0671   -0.1079    2.2855 C   0  0  0  0  0  0  0  0  0  0  0  0
    8.1198   -0.7947    1.5325 C   0  0  0  0  0  0  0  0  0  0  0  0
    5.6335    1.3054    1.0959 H   0  0  0  0  0  0  0  0  0  0  0  0
    6.6809    1.5093   -0.3537 H   0  0  0  0  0  0  0  0  0  0  0  0
    7.3181    1.7342    1.3467 H   0  0  0  0  0  0  0  0  0  0  0  0
    4.6492    0.7024   -0.8237 H   0  0  0  0  0  0  0  0  0  0  0  0
    3.0944   -1.6222   -2.0034 H   0  0  0  0  0  0  0  0  0  0  0  0
    4.2262    0.9682   -3.2233 H   0  0  0  0  0  0  0  0  0  0  0  0
    2.6211    0.4063   -3.7768 H   0  0  0  0  0  0  0  0  0  0  0  0
    3.9955   -0.7021   -3.9352 H   0  0  0  0  0  0  0  0  0  0  0  0
    0.6949   -0.2146   -2.8313 H   0  0  0  0  0  0  0  0  0  0  0  0
   -0.1751    0.9895   -0.2173 H   0  0  0  0  0  0  0  0  0  0  0  0
    0.2218    2.9035   -1.8232 H   0  0  0  0  0  0  0  0  0  0  0  0
   -0.8467    1.9607   -2.9908 H   0  0  0  0  0  0  0  0  0  0  0  0
   -3.3329    2.6073   -2.7682 H   0  0  0  0  0  0  0  0  0  0  0  0
   -4.8111    3.8672   -1.0115 H   0  0  0  0  0  0  0  0  0  0  0  0
   -4.3153    4.8948    1.6385 H   0  0  0  0  0  0  0  0  0  0  0  0
   -2.5792    5.0887    3.3287 H   0  0  0  0  0  0  0  0  0  0  0  0
   -0.3312    4.2021    2.9242 H   0  0  0  0  0  0  0  0  0  0  0  0
    0.1707    3.1213    0.8539 H   0  0  0  0  0  0  0  0  0  0  0  0
   -2.7873    0.6826   -0.0582 H   0  0  0  0  0  0  0  0  0  0  0  0
   -3.7718   -1.3179   -2.0993 H   0  0  0  0  0  0  0  0  0  0  0  0
   -5.7550    0.1159   -1.7631 H   0  0  0  0  0  0  0  0  0  0  0  0
   -4.8244    0.2404    1.0992 H   0  0  0  0  0  0  0  0  0  0  0  0
   -7.4610    2.9763    2.0132 H   0  0  0  0  0  0  0  0  0  0  0  0
   -7.8726    1.3285    2.5921 H   0  0  0  0  0  0  0  0  0  0  0  0
   -6.0907    1.8911    2.5981 H   0  0  0  0  0  0  0  0  0  0  0  0
   -2.7114   -2.4758   -0.2961 H   0  0  0  0  0  0  0  0  0  0  0  0
   -3.6933   -1.5857    0.8930 H   0  0  0  0  0  0  0  0  0  0  0  0
   -6.0314   -2.2418    1.2022 H   0  0  0  0  0  0  0  0  0  0  0  0
   -7.8055   -3.9422    0.9603 H   0  0  0  0  0  0  0  0  0  0  0  0
   -7.5700   -5.7339   -0.6255 H   0  0  0  0  0  0  0  0  0  0  0  0
   -5.5305   -5.8691   -2.0470 H   0  0  0  0  0  0  0  0  0  0  0  0
   -3.7224   -4.1212   -1.7970 H   0  0  0  0  0  0  0  0  0  0  0  0
    7.4544   -3.0975   -0.3542 H   0  0  0  0  0  0  0  0  0  0  0  0
    6.4031   -3.3285    1.0690 H   0  0  0  0  0  0  0  0  0  0  0  0
    9.2373   -3.9518    2.0203 H   0  0  0  0  0  0  0  0  0  0  0  0
   10.9358   -2.7332    3.3751 H   0  0  0  0  0  0  0  0  0  0  0  0
   10.7829   -0.2510    3.5138 H   0  0  0  0  0  0  0  0  0  0  0  0
    9.0120    0.9600    2.3608 H   0  0  0  0  0  0  0  0  0  0  0  0
  1  2  1  0
  2  3  2  0
  3  4  1  0
  4  5  2  0
  4  6  1  0
  6  7  1  0
  7  8  1  0
  7  9  1  0
  9 10  2  0
  9 11  1  0
 11 12  1  0
 12 13  1  0
 13 14  1  0
 14 15  2  0
 15 16  1  0
 16 17  1  0
 17 18  2  0
 18 19  1  0
 19 20  2  0
 20 21  1  0
 21 22  2  0
 12 23  1  0
 23 24  2  0
 23 25  1  0
 25 26  1  0
 26 27  1  0
 27 28  2  0
 28 29  1  0
 29 30  1  0
 29 31  2  0
 29 32  2  0
 26 33  1  0
 33 34  1  0
 34 35  2  0
 35 36  1  0
 36 37  2  0
 37 38  1  0
 38 39  2  0
  3 40  1  0
 40 41  1  0
 41 42  2  0
 42 43  1  0
 43 44  2  0
 44 45  1  0
 45 46  2  0
 46  2  1  0
 22 14  1  0
 39 34  1  0
 46 41  1  0
 22 17  1  0
  1 47  1  0
  1 48  1  0
  1 49  1  0
  6 50  1  0
  7 51  1  6
  8 52  1  0
  8 53  1  0
  8 54  1  0
 11 55  1  0
 12 56  1  1
 13 57  1  0
 13 58  1  0
 15 59  1  0
 16 60  1  0
 18 61  1  0
 19 62  1  0
 20 63  1  0
 21 64  1  0
 25 65  1  0
 26 66  1  6
 27 67  1  0
 28 68  1  0
 30 69  1  0
 30 70  1  0
 30 71  1  0
 33 72  1  0
 33 73  1  0
 35 74  1  0
 36 75  1  0
 37 76  1  0
 38 77  1  0
 39 78  1  0
 40 79  1  0
 40 80  1  0
 42 81  1  0
 43 82  1  0
 44 83  1  0
 45 84  1  0
M  END
$$$$
