
     RDKit          3D

 51 52  0  0  0  0  0  0  0  0999 V2000
    8.8890    0.0738    2.8247 C   0  0  0  0  0  0  0  0  0  0  0  0
    8.6649   -0.0889    1.0433 S   0  0  0  0  0  0  0  0  0  0  0  0
    7.0161   -0.6672    0.7124 C   0  0  0  0  0  0  0  0  0  0  0  0
    6.7389   -2.0142    0.6344 C   0  0  0  0  0  0  0  0  0  0  0  0
    5.4508   -2.4944    0.3754 C   0  0  0  0  0  0  0  0  0  0  0  0
    4.3969   -1.6207    0.1862 C   0  0  0  0  0  0  0  0  0  0  0  0
    4.6972   -0.2792    0.2686 C   0  0  0  0  0  0  0  0  0  0  0  0
    5.9623    0.2014    0.5232 C   0  0  0  0  0  0  0  0  0  0  0  0
    3.0868   -2.1896   -0.0787 C   0  0  0  0  0  0  0  0  0  0  0  0
    2.9972   -3.4377   -0.1187 O   0  0  0  0  0  0  0  0  0  0  0  0
    1.9251   -1.3373   -0.2891 C   0  0  0  0  0  0  0  0  0  0  0  0
    0.7218   -1.8100   -0.5316 C   0  0  0  0  0  0  0  0  0  0  0  0
   -0.5126   -1.0688   -0.7581 C   0  0  0  0  0  0  0  0  0  0  0  0
   -1.6805   -1.7679   -0.9981 C   0  0  0  0  0  0  0  0  0  0  0  0
   -2.8495   -1.0703   -1.2116 C   0  0  0  0  0  0  0  0  0  0  0  0
   -4.0207   -1.9021   -1.4888 C   0  0  0  0  0  0  0  0  0  0  0  0
   -2.9543    0.3035   -1.2047 C   0  0  0  0  0  0  0  0  0  0  0  0
   -4.0513    1.0442   -1.4000 O   0  0  0  0  0  0  0  0  0  0  0  0
   -5.0498    1.5873   -0.6501 C   0  0  0  0  0  0  0  0  0  0  0  0
   -6.0480    2.3847   -1.5200 C   0  0  0  0  0  0  0  0  0  0  0  0
   -4.5071    2.5356    0.4172 C   0  0  0  0  0  0  0  0  0  0  0  0
   -5.9393    0.5990    0.0654 C   0  0  0  0  0  0  0  0  0  0  0  0
   -6.9967    0.3002    0.8873 O   0  0  0  0  0  0  0  0  0  0  0  0
   -6.2280   -0.6225    0.3272 O   0  0  0  0  0  0  0  0  0  0  0  0
   -1.7647    1.0132   -0.9620 C   0  0  0  0  0  0  0  0  0  0  0  0
   -1.5970    2.4857   -0.9310 C   0  0  0  0  0  0  0  0  0  0  0  0
   -0.5833    0.2876   -0.7465 C   0  0  0  0  0  0  0  0  0  0  0  0
    8.3824    0.9881    3.1553 H   0  0  0  0  0  0  0  0  0  0  0  0
    9.9924    0.1325    3.0190 H   0  0  0  0  0  0  0  0  0  0  0  0
    8.4647   -0.8344    3.3067 H   0  0  0  0  0  0  0  0  0  0  0  0
    7.5478   -2.7443    0.7785 H   0  0  0  0  0  0  0  0  0  0  0  0
    5.3379   -3.5698    0.3342 H   0  0  0  0  0  0  0  0  0  0  0  0
    3.8930    0.4184    0.1248 H   0  0  0  0  0  0  0  0  0  0  0  0
    6.1113    1.2847    0.5716 H   0  0  0  0  0  0  0  0  0  0  0  0
    2.0175   -0.2648   -0.2516 H   0  0  0  0  0  0  0  0  0  0  0  0
    0.6984   -2.9128   -0.5561 H   0  0  0  0  0  0  0  0  0  0  0  0
   -1.6293   -2.8562   -1.0089 H   0  0  0  0  0  0  0  0  0  0  0  0
   -3.7314   -2.7544   -2.1725 H   0  0  0  0  0  0  0  0  0  0  0  0
   -4.3141   -2.4136   -0.5426 H   0  0  0  0  0  0  0  0  0  0  0  0
   -4.8390   -1.4026   -2.0157 H   0  0  0  0  0  0  0  0  0  0  0  0
   -6.3997    3.2674   -0.9425 H   0  0  0  0  0  0  0  0  0  0  0  0
   -5.4237    2.7717   -2.3524 H   0  0  0  0  0  0  0  0  0  0  0  0
   -6.8699    1.7717   -1.8805 H   0  0  0  0  0  0  0  0  0  0  0  0
   -5.3610    2.7905    1.1168 H   0  0  0  0  0  0  0  0  0  0  0  0
   -4.1695    3.4771   -0.0506 H   0  0  0  0  0  0  0  0  0  0  0  0
   -3.7035    2.0649    0.9909 H   0  0  0  0  0  0  0  0  0  0  0  0
   -7.5735    0.9719    1.3920 H   0  0  0  0  0  0  0  0  0  0  0  0
   -0.5680    2.7295   -1.3338 H   0  0  0  0  0  0  0  0  0  0  0  0
   -1.6203    2.8053    0.1262 H   0  0  0  0  0  0  0  0  0  0  0  0
   -2.3518    3.0278   -1.4864 H   0  0  0  0  0  0  0  0  0  0  0  0
    0.3452    0.8058   -0.5568 H   0  0  0  0  0  0  0  0  0  0  0  0
  1  2  1  0
  2  3  1  0
  3  4  2  0
  4  5  1  0
  5  6  2  0
  6  7  1  0
  7  8  2  0
  6  9  1  0
  9 10  2  0
  9 11  1  0
 11 12  2  0
 12 13  1  0
 13 14  2  0
 14 15  1  0
 15 16  1  0
 15 17  2  0
 17 18  1  0
 18 19  1  0
 19 20  1  0
 19 21  1  0
 19 22  1  0
 22 23  1  0
 22 24  2  0
 17 25  1  0
 25 26  1  0
 25 27  2  0
  8  3  1  0
 27 13  1  0
  1 28  1  0
  1 29  1  0
  1 30  1  0
  4 31  1  0
  5 32  1  0
  7 33  1  0
  8 34  1  0
 11 35  1  0
 12 36  1  0
 14 37  1  0
 16 38  1  0
 16 39  1  0
 16 40  1  0
 20 41  1  0
 20 42  1  0
 20 43  1  0
 21 44  1  0
 21 45  1  0
 21 46  1  0
 23 47  1  0
 26 48  1  0
 26 49  1  0
 26 50  1  0
 27 51  1  0
M  END
$$$$
