
     RDKit          3D

 54 58  0  0  0  0  0  0  0  0999 V2000
    2.6148   -1.0380   -3.4559 O   0  0  0  0  0  0  0  0  0  0  0  0
    2.9755   -0.9586   -2.2433 C   0  0  0  0  0  0  0  0  0  0  0  0
    4.2027   -1.4644   -1.6577 C   0  0  0  0  0  0  0  0  0  0  0  0
    5.1415   -2.0771   -2.2385 O   0  0  0  0  0  0  0  0  0  0  0  0
    4.1525   -1.1339   -0.2672 N   0  0  0  0  0  0  0  0  0  0  0  0
    5.2076   -1.4709    0.6879 C   0  0  0  0  0  0  0  0  0  0  0  0
    6.2260   -0.3756    0.7427 C   0  0  0  0  0  0  0  0  0  0  0  0
    7.3198   -0.4020   -0.1096 C   0  0  0  0  0  0  0  0  0  0  0  0
    8.2604    0.6035   -0.0639 C   0  0  0  0  0  0  0  0  0  0  0  0
    8.1249    1.6223    0.8105 N   0  0  0  0  0  0  0  0  0  0  0  0
    7.0798    1.6693    1.6410 C   0  0  0  0  0  0  0  0  0  0  0  0
    6.9440    2.7018    2.5261 F   0  0  0  0  0  0  0  0  0  0  0  0
    6.1104    0.6760    1.6266 C   0  0  0  0  0  0  0  0  0  0  0  0
    2.9459   -0.4526   -0.0025 C   0  0  0  0  0  0  0  0  0  0  0  0
    2.4677    0.0563    1.1968 C   0  0  0  0  0  0  0  0  0  0  0  0
    1.2431    0.6861    1.1882 C   0  0  0  0  0  0  0  0  0  0  0  0
    0.5068    0.8139    0.0346 C   0  0  0  0  0  0  0  0  0  0  0  0
   -1.0257    1.6163    0.1021 S   0  0  0  0  0  6  0  0  0  0  0  0
   -1.0383    2.7010    1.1559 O   0  0  0  0  0  0  0  0  0  0  0  0
   -1.2922    2.3130   -1.2233 O   0  0  0  0  0  0  0  0  0  0  0  0
   -2.3452    0.5829    0.4036 N   0  0  0  0  0  0  0  0  0  0  0  0
   -2.3437   -0.1377    1.6492 C   0  0  0  0  0  0  0  0  0  0  0  0
   -2.8570   -1.3458    0.8480 C   0  0  0  0  0  0  0  0  0  0  0  0
   -2.4226   -0.6199   -0.3819 C   0  0  1  0  0  0  0  0  0  0  0  0
   -3.4824   -0.4742   -1.4881 C   0  0  0  0  0  0  0  0  0  0  0  0
   -4.6744   -0.2499   -1.0471 O   0  0  0  0  0  0  0  0  0  0  0  0
   -5.8605   -0.0269   -0.6082 C   0  0  0  0  0  0  0  0  0  0  0  0
   -6.6371   -0.8583    0.2119 C   0  0  0  0  0  0  0  0  0  0  0  0
   -7.8999   -0.5326    0.6321 C   0  0  0  0  0  0  0  0  0  0  0  0
   -8.4560    0.6568    0.2479 C   0  0  0  0  0  0  0  0  0  0  0  0
   -7.7507    1.5227   -0.5575 C   0  0  0  0  0  0  0  0  0  0  0  0
   -6.4979    1.1815   -0.9647 C   0  0  0  0  0  0  0  0  0  0  0  0
    0.9866    0.3079   -1.1491 C   0  0  0  0  0  0  0  0  0  0  0  0
    2.2079   -0.3281   -1.1757 C   0  0  0  0  0  0  0  0  0  0  0  0
    4.7743   -1.5879    1.6861 H   0  0  0  0  0  0  0  0  0  0  0  0
    5.7204   -2.3986    0.4033 H   0  0  0  0  0  0  0  0  0  0  0  0
    7.4254   -1.2209   -0.8100 H   0  0  0  0  0  0  0  0  0  0  0  0
    9.1322    0.5948   -0.7359 H   0  0  0  0  0  0  0  0  0  0  0  0
    5.2857    0.7512    2.3099 H   0  0  0  0  0  0  0  0  0  0  0  0
    3.0336   -0.0375    2.1064 H   0  0  0  0  0  0  0  0  0  0  0  0
    0.8437    1.0922    2.1063 H   0  0  0  0  0  0  0  0  0  0  0  0
   -1.3411   -0.2695    2.0806 H   0  0  0  0  0  0  0  0  0  0  0  0
   -3.1252    0.2847    2.3175 H   0  0  0  0  0  0  0  0  0  0  0  0
   -3.9127   -1.5513    1.0013 H   0  0  0  0  0  0  0  0  0  0  0  0
   -2.2197   -2.2163    1.1186 H   0  0  0  0  0  0  0  0  0  0  0  0
   -1.4490   -0.9987   -0.7667 H   0  0  0  0  0  0  0  0  0  0  0  0
   -3.3325   -1.3253   -2.2269 H   0  0  0  0  0  0  0  0  0  0  0  0
   -3.0892    0.4396   -2.0686 H   0  0  0  0  0  0  0  0  0  0  0  0
   -6.1992   -1.7936    0.5071 H   0  0  0  0  0  0  0  0  0  0  0  0
   -8.4955   -1.1907    1.2713 H   0  0  0  0  0  0  0  0  0  0  0  0
   -9.4476    0.9436    0.5614 H   0  0  0  0  0  0  0  0  0  0  0  0
   -8.2212    2.4536   -0.8427 H   0  0  0  0  0  0  0  0  0  0  0  0
   -5.9734    1.8885   -1.5984 H   0  0  0  0  0  0  0  0  0  0  0  0
    0.4568    0.3775   -2.0816 H   0  0  0  0  0  0  0  0  0  0  0  0
  1  2  2  0
  2  3  1  0
  3  4  2  0
  3  5  1  0
  5  6  1  0
  6  7  1  0
  7  8  2  0
  8  9  1  0
  9 10  2  0
 10 11  1  0
 11 12  1  0
 11 13  2  0
  5 14  1  0
 14 15  2  0
 15 16  1  0
 16 17  2  0
 17 18  1  0
 18 19  2  0
 18 20  2  0
 18 21  1  0
 21 22  1  0
 22 23  1  0
 23 24  1  0
 24 25  1  0
 25 26  1  0
 26 27  1  0
 27 28  2  0
 28 29  1  0
 29 30  2  0
 30 31  1  0
 31 32  2  0
 17 33  1  0
 33 34  2  0
 34  2  1  0
 13  7  1  0
 34 14  1  0
 24 21  1  0
 32 27  1  0
  6 35  1  0
  6 36  1  0
  8 37  1  0
  9 38  1  0
 13 39  1  0
 15 40  1  0
 16 41  1  0
 22 42  1  0
 22 43  1  0
 23 44  1  0
 23 45  1  0
 24 46  1  6
 25 47  1  0
 25 48  1  0
 28 49  1  0
 29 50  1  0
 30 51  1  0
 31 52  1  0
 32 53  1  0
 33 54  1  0
M  END
$$$$
