
     RDKit          3D

 55 58  0  0  0  0  0  0  0  0999 V2000
   -2.3294   -3.2458   -0.1869 C   0  0  1  0  0  0  0  0  0  0  0  0
   -2.6789   -3.8696    1.1500 C   0  0  0  0  0  0  0  0  0  0  0  0
   -3.7812   -3.2004    1.8457 C   0  0  0  0  0  0  0  0  0  0  0  0
   -4.8815   -2.4372    2.2819 O   0  0  0  0  0  1  0  0  0  0  0  0
   -4.0248   -3.4442    3.0448 O   0  0  0  0  0  0  0  0  0  0  0  0
   -3.4515   -3.2532   -1.1335 C   0  0  0  0  0  0  0  0  0  0  0  0
   -4.6587   -2.5869   -1.0745 O   0  0  0  0  0  0  0  0  0  0  0  0
   -3.5661   -3.8758   -2.2241 O   0  0  0  0  0  0  0  0  0  0  0  0
   -1.7589   -1.8838    0.0174 C   0  0  0  0  0  0  0  0  0  0  0  0
   -2.4891   -0.7726    0.3516 C   0  0  0  0  0  0  0  0  0  0  0  0
   -1.8922    0.4452    0.5422 C   0  0  0  0  0  0  0  0  0  0  0  0
   -0.5317    0.5476    0.3933 C   0  0  0  0  0  0  0  0  0  0  0  0
    0.0331    1.7975    0.5951 O   0  0  0  0  0  1  0  0  0  0  0  0
    0.2766   -0.5171    0.0593 C   0  0  0  0  0  0  0  0  0  0  0  0
   -0.4019   -1.6960   -0.1127 C   0  0  0  0  0  0  0  0  0  0  0  0
    1.7215   -0.4386   -0.0968 C   0  0  0  0  0  0  0  0  0  0  0  0
    2.4898   -1.4819   -0.4330 N   0  0  0  0  0  0  0  0  0  0  0  0
    3.7752   -1.1025   -0.4982 C   0  0  0  0  0  0  0  0  0  0  0  0
    3.8314    0.2564   -0.1868 C   0  0  0  0  0  0  0  0  0  0  0  0
    2.5533    0.5838    0.0426 N   0  0  0  0  0  0  0  0  0  0  0  0
    5.0516    0.8856   -0.1841 C   0  0  0  0  0  0  0  0  0  0  0  0
    6.1699    0.1427   -0.4903 C   0  0  0  0  0  0  0  0  0  0  0  0
    6.0959   -1.2007   -0.7960 C   0  0  0  0  0  0  0  0  0  0  0  0
    4.8931   -1.8748   -0.8113 C   0  0  0  0  0  0  0  0  0  0  0  0
    7.4831    0.7755   -0.4954 C   0  0  0  0  0  0  0  0  0  0  0  0
    7.7341    2.1547   -0.8042 N   0  0  0  0  0  0  0  0  0  0  0  0
    8.6840    0.3706   -0.2588 N   0  0  0  0  0  0  0  0  0  0  0  0
   -2.6829    1.6285    0.9027 C   0  0  0  0  0  0  0  0  0  0  0  0
   -2.9439    1.9570    2.2193 C   0  0  0  0  0  0  0  0  0  0  0  0
   -3.6953    3.0816    2.5072 C   0  0  0  0  0  0  0  0  0  0  0  0
   -4.1875    3.8807    1.4793 C   0  0  0  0  0  0  0  0  0  0  0  0
   -3.8946    3.5029    0.1849 C   0  0  0  0  0  0  0  0  0  0  0  0
   -3.1532    2.3961   -0.1567 C   0  0  0  0  0  0  0  0  0  0  0  0
   -2.8738    2.0396   -1.4666 O   0  0  0  0  0  0  0  0  0  0  0  0
   -3.3733    2.8515   -2.5055 C   0  0  0  0  0  0  0  0  0  0  0  0
   -1.5318   -3.9112   -0.6247 H   0  0  0  0  0  0  0  0  0  0  0  0
   -1.7658   -3.7893    1.7875 H   0  0  0  0  0  0  0  0  0  0  0  0
   -2.9486   -4.9163    0.9818 H   0  0  0  0  0  0  0  0  0  0  0  0
   -5.5703   -3.0607   -1.0302 H   0  0  0  0  0  0  0  0  0  0  0  0
   -3.5583   -0.8744    0.4621 H   0  0  0  0  0  0  0  0  0  0  0  0
    0.1990   -2.5748   -0.3807 H   0  0  0  0  0  0  0  0  0  0  0  0
    2.3097    1.5550    0.2991 H   0  0  0  0  0  0  0  0  0  0  0  0
    5.0875    1.9352    0.0571 H   0  0  0  0  0  0  0  0  0  0  0  0
    6.9660   -1.7960   -1.0384 H   0  0  0  0  0  0  0  0  0  0  0  0
    4.7856   -2.9062   -1.0404 H   0  0  0  0  0  0  0  0  0  0  0  0
    8.1854    2.7097   -1.5699 H   0  0  0  0  0  0  0  0  0  0  0  0
    7.4712    3.0099   -0.2286 H   0  0  0  0  0  0  0  0  0  0  0  0
    8.7785   -0.6500    0.0023 H   0  0  0  0  0  0  0  0  0  0  0  0
   -2.5542    1.3255    3.0203 H   0  0  0  0  0  0  0  0  0  0  0  0
   -3.9272    3.3825    3.5064 H   0  0  0  0  0  0  0  0  0  0  0  0
   -4.7688    4.7528    1.6696 H   0  0  0  0  0  0  0  0  0  0  0  0
   -4.2831    4.1316   -0.5998 H   0  0  0  0  0  0  0  0  0  0  0  0
   -2.8403    2.5685   -3.4598 H   0  0  0  0  0  0  0  0  0  0  0  0
   -4.4580    2.7633   -2.6591 H   0  0  0  0  0  0  0  0  0  0  0  0
   -3.1187    3.9283   -2.2852 H   0  0  0  0  0  0  0  0  0  0  0  0
  1  2  1  0
  2  3  1  0
  3  4  1  0
  3  5  2  0
  1  6  1  0
  6  7  1  0
  6  8  2  0
  1  9  1  0
  9 10  2  0
 10 11  1  0
 11 12  2  0
 12 13  1  0
 12 14  1  0
 14 15  2  0
 14 16  1  0
 16 17  2  0
 17 18  1  0
 18 19  2  0
 19 20  1  0
 19 21  1  0
 21 22  2  0
 22 23  1  0
 23 24  2  0
 22 25  1  0
 25 26  1  0
 25 27  2  3
 11 28  1  0
 28 29  2  0
 29 30  1  0
 30 31  2  0
 31 32  1  0
 32 33  2  0
 33 34  1  0
 34 35  1  0
 15  9  1  0
 20 16  1  0
 33 28  1  0
 24 18  1  0
  1 36  1  6
  2 37  1  0
  2 38  1  0
  7 39  1  0
 10 40  1  0
 15 41  1  0
 20 42  1  0
 21 43  1  0
 23 44  1  0
 24 45  1  0
 26 46  1  0
 26 47  1  0
 27 48  1  0
 29 49  1  0
 30 50  1  0
 31 51  1  0
 32 52  1  0
 35 53  1  0
 35 54  1  0
 35 55  1  0
M  CHG  2   4  -1  13  -1
M  END
$$$$
