
     RDKit          3D

 42 46  0  0  0  0  0  0  0  0999 V2000
   -1.0623    3.1935   -1.3825 C   0  0  0  0  0  0  0  0  0  0  0  0
   -0.3551    2.9092   -0.1474 N   0  0  0  0  0  0  0  0  0  0  0  0
    0.0699    3.8852    0.6457 N   0  0  0  0  0  0  0  0  0  0  0  0
    0.6920    3.3753    1.7207 C   0  0  0  0  0  0  0  0  0  0  0  0
    0.6318    2.0425    1.5555 N   0  0  0  0  0  0  0  0  0  0  0  0
   -0.0066    1.7691    0.4170 C   0  0  0  0  0  0  0  0  0  0  0  0
   -0.2640    0.4234   -0.0952 C   0  0  2  0  0  0  0  0  0  0  0  0
   -1.5548   -0.1304    0.3414 C   0  0  0  0  0  0  0  0  0  0  0  0
   -2.5299    0.6474    0.8584 N   0  0  0  0  0  0  0  0  0  0  0  0
   -3.7025    0.1445    1.1990 N   0  0  0  0  0  0  0  0  0  0  0  0
   -3.9821   -1.1616    1.0482 C   0  0  0  0  0  0  0  0  0  0  0  0
   -5.0829   -1.6698    1.3599 O   0  0  0  0  0  0  0  0  0  0  0  0
   -3.0198   -2.0208    0.5211 C   0  0  0  0  0  0  0  0  0  0  0  0
   -3.2829   -3.3582    0.3526 C   0  0  0  0  0  0  0  0  0  0  0  0
   -2.2962   -4.1643   -0.1772 C   0  0  0  0  0  0  0  0  0  0  0  0
   -2.5533   -5.4930   -0.3475 F   0  0  0  0  0  0  0  0  0  0  0  0
   -1.0697   -3.6266   -0.5272 C   0  0  0  0  0  0  0  0  0  0  0  0
   -0.7982   -2.3026   -0.3639 C   0  0  0  0  0  0  0  0  0  0  0  0
   -1.8004   -1.4691    0.1738 C   0  0  0  0  0  0  0  0  0  0  0  0
    0.4648   -1.7203   -0.6731 N   0  0  0  0  0  0  0  0  0  0  0  0
    0.8126   -0.5648    0.1337 C   0  0  1  0  0  0  0  0  0  0  0  0
    2.1711   -0.0818   -0.1183 C   0  0  0  0  0  0  0  0  0  0  0  0
    2.6775    0.0617   -1.3852 C   0  0  0  0  0  0  0  0  0  0  0  0
    3.9690    0.5222   -1.6148 C   0  0  0  0  0  0  0  0  0  0  0  0
    4.7443    0.8375   -0.5221 C   0  0  0  0  0  0  0  0  0  0  0  0
    6.0204    1.2945   -0.6905 F   0  0  0  0  0  0  0  0  0  0  0  0
    4.2703    0.7062    0.7564 C   0  0  0  0  0  0  0  0  0  0  0  0
    2.9819    0.2450    0.9331 C   0  0  0  0  0  0  0  0  0  0  0  0
   -2.0519    3.6300   -1.0669 H   0  0  0  0  0  0  0  0  0  0  0  0
   -1.1642    2.3244   -2.0288 H   0  0  0  0  0  0  0  0  0  0  0  0
   -0.5681    3.9970   -1.9690 H   0  0  0  0  0  0  0  0  0  0  0  0
    1.1557    3.8761    2.5609 H   0  0  0  0  0  0  0  0  0  0  0  0
   -0.3709    0.5370   -1.2247 H   0  0  0  0  0  0  0  0  0  0  0  0
   -4.4441    0.7874    1.6023 H   0  0  0  0  0  0  0  0  0  0  0  0
   -4.2549   -3.7344    0.6410 H   0  0  0  0  0  0  0  0  0  0  0  0
   -0.2699   -4.2544   -0.9522 H   0  0  0  0  0  0  0  0  0  0  0  0
    1.0279   -2.1454   -1.4228 H   0  0  0  0  0  0  0  0  0  0  0  0
    0.7740   -0.8902    1.1942 H   0  0  0  0  0  0  0  0  0  0  0  0
    2.1046   -0.1741   -2.2804 H   0  0  0  0  0  0  0  0  0  0  0  0
    4.3682    0.6353   -2.6154 H   0  0  0  0  0  0  0  0  0  0  0  0
    4.8944    0.9592    1.6117 H   0  0  0  0  0  0  0  0  0  0  0  0
    2.6540    0.1584    1.9785 H   0  0  0  0  0  0  0  0  0  0  0  0
  1  2  1  0
  2  3  1  0
  3  4  2  0
  4  5  1  0
  5  6  2  0
  6  7  1  0
  7  8  1  0
  8  9  2  0
  9 10  1  0
 10 11  1  0
 11 12  2  0
 11 13  1  0
 13 14  2  0
 14 15  1  0
 15 16  1  0
 15 17  2  0
 17 18  1  0
 18 19  2  0
 18 20  1  0
 20 21  1  0
 21 22  1  0
 22 23  2  0
 23 24  1  0
 24 25  2  0
 25 26  1  0
 25 27  1  0
 27 28  2  0
  6  2  1  0
 21  7  1  0
 28 22  1  0
 19  8  1  0
 19 13  1  0
  1 29  1  0
  1 30  1  0
  1 31  1  0
  4 32  1  0
  7 33  1  6
 10 34  1  0
 14 35  1  0
 17 36  1  0
 20 37  1  0
 21 38  1  1
 23 39  1  0
 24 40  1  0
 27 41  1  0
 28 42  1  0
M  END
$$$$
