
     RDKit          3D

 36 39  0  0  0  0  0  0  0  0999 V2000
   -3.6788    0.3442   -1.1058 C   0  0  2  0  0  0  0  0  0  0  0  0
   -3.1410    1.6290   -0.9551 O   0  0  0  0  0  0  0  0  0  0  0  0
   -4.6959    0.1651    0.0301 C   0  0  0  0  0  0  0  0  0  0  0  0
   -3.8020    0.1219    1.2294 C   0  0  0  0  0  0  0  0  0  0  0  0
   -2.4876   -0.2842    0.7360 N   0  0  0  0  0  0  0  0  0  0  0  0
   -1.1373   -0.4468    1.0679 C   0  0  0  0  0  0  0  0  0  0  0  0
   -0.7452   -0.4597    2.2833 O   0  0  0  0  0  0  0  0  0  0  0  0
   -0.3764   -0.5814   -0.1508 N   0  0  0  0  0  0  0  0  0  0  0  0
   -1.3171   -0.4938   -1.2158 C   0  0  0  0  0  0  0  0  0  0  0  0
   -0.8585   -0.2854   -2.3764 O   0  0  0  0  0  0  0  0  0  0  0  0
   -2.6596   -0.6775   -0.6694 C   0  0  2  0  0  0  0  0  0  0  0  0
    1.0461   -0.7596   -0.0292 C   0  0  0  0  0  0  0  0  0  0  0  0
    1.4991   -2.0801    0.0613 C   0  0  0  0  0  0  0  0  0  0  0  0
    2.8064   -2.4300    0.1807 C   0  0  0  0  0  0  0  0  0  0  0  0
    3.7486   -1.4365    0.2158 C   0  0  0  0  0  0  0  0  0  0  0  0
    5.1548   -1.7191    0.3403 C   0  0  0  0  0  0  0  0  0  0  0  0
    6.2966   -1.9475    0.4422 N   0  0  0  0  0  0  0  0  0  0  0  0
    3.3278   -0.1070    0.1275 C   0  0  0  0  0  0  0  0  0  0  0  0
    4.2562    0.9143    0.1603 C   0  0  0  0  0  0  0  0  0  0  0  0
    3.8228    2.2230    0.0719 C   0  0  0  0  0  0  0  0  0  0  0  0
    2.4753    2.5344   -0.0492 C   0  0  0  0  0  0  0  0  0  0  0  0
    1.5272    1.5127   -0.0836 C   0  0  0  0  0  0  0  0  0  0  0  0
    1.9957    0.2376    0.0063 C   0  0  0  0  0  0  0  0  0  0  0  0
   -4.1124    0.1672   -2.0966 H   0  0  0  0  0  0  0  0  0  0  0  0
   -3.8709    2.1986   -0.6026 H   0  0  0  0  0  0  0  0  0  0  0  0
   -5.1664   -0.8554   -0.0611 H   0  0  0  0  0  0  0  0  0  0  0  0
   -5.4385    0.9737    0.0297 H   0  0  0  0  0  0  0  0  0  0  0  0
   -3.7425    1.1521    1.6372 H   0  0  0  0  0  0  0  0  0  0  0  0
   -4.1113   -0.6295    1.9595 H   0  0  0  0  0  0  0  0  0  0  0  0
   -3.0827   -1.6828   -0.7436 H   0  0  0  0  0  0  0  0  0  0  0  0
    0.7910   -2.9182    0.0387 H   0  0  0  0  0  0  0  0  0  0  0  0
    3.1251   -3.4472    0.2480 H   0  0  0  0  0  0  0  0  0  0  0  0
    5.3355    0.7239    0.2548 H   0  0  0  0  0  0  0  0  0  0  0  0
    4.5905    3.0085    0.1014 H   0  0  0  0  0  0  0  0  0  0  0  0
    2.1480    3.5834   -0.1185 H   0  0  0  0  0  0  0  0  0  0  0  0
    0.4774    1.7522   -0.1777 H   0  0  0  0  0  0  0  0  0  0  0  0
  1  2  1  0
  1  3  1  0
  3  4  1  0
  4  5  1  0
  5  6  1  0
  6  7  2  0
  6  8  1  0
  8  9  1  0
  9 10  2  0
  9 11  1  0
  8 12  1  0
 12 13  2  0
 13 14  1  0
 14 15  2  0
 15 16  1  0
 16 17  3  0
 15 18  1  0
 18 19  2  0
 19 20  1  0
 20 21  2  0
 21 22  1  0
 22 23  2  0
 11  1  1  0
 23 12  1  0
 11  5  1  0
 23 18  1  0
  1 24  1  6
  2 25  1  0
  3 26  1  0
  3 27  1  0
  4 28  1  0
  4 29  1  0
 11 30  1  1
 13 31  1  0
 14 32  1  0
 19 33  1  0
 20 34  1  0
 21 35  1  0
 22 36  1  0
M  END
$$$$
