
     RDKit          3D

 41 42  0  0  0  0  0  0  0  0999 V2000
   -5.6590    1.6600    0.5954 C   0  0  0  0  0  0  0  0  0  0  0  0
   -5.4521    0.2659    0.0961 C   0  0  0  0  0  0  0  0  0  0  0  0
   -5.6957    0.2408   -1.3950 C   0  0  0  0  0  0  0  0  0  0  0  0
   -4.0191   -0.0931    0.3791 C   0  0  0  0  0  0  0  0  0  0  0  0
   -3.0727    0.7710   -0.1629 C   0  0  0  0  0  0  0  0  0  0  0  0
   -1.7315    0.5267    0.0413 C   0  0  0  0  0  0  0  0  0  0  0  0
   -1.3013   -0.5788    0.7866 C   0  0  0  0  0  0  0  0  0  0  0  0
    0.1428   -0.7495    0.9452 C   0  0  0  0  0  0  0  0  0  0  0  0
    0.7689   -1.5416   -0.0809 N   0  0  0  0  0  0  0  0  0  0  0  0
    2.1515   -1.5924    0.2426 N   0  0  0  0  0  0  0  0  0  0  0  0
    2.7957   -0.4978   -0.3843 C   0  0  0  0  0  0  0  0  0  0  0  0
    2.0295    0.2404   -1.0575 O   0  0  0  0  0  0  0  0  0  0  0  0
    4.2181   -0.1812   -0.3081 C   0  0  0  0  0  0  0  0  0  0  0  0
    4.6181    0.9409   -1.0051 C   0  0  0  0  0  0  0  0  0  0  0  0
    5.9561    1.3367   -1.0016 C   0  0  0  0  0  0  0  0  0  0  0  0
    6.8480    0.5718   -0.2837 C   0  0  0  0  0  0  0  0  0  0  0  0
    8.1964    0.8682   -0.2088 O   0  0  0  0  0  0  0  0  0  0  0  0
    6.4122   -0.5466    0.4034 C   0  0  0  0  0  0  0  0  0  0  0  0
    5.0910   -0.9468    0.4064 C   0  0  0  0  0  0  0  0  0  0  0  0
   -2.2586   -1.4191    1.3124 C   0  0  0  0  0  0  0  0  0  0  0  0
   -3.6027   -1.1842    1.1144 C   0  0  0  0  0  0  0  0  0  0  0  0
   -5.1040    1.8416    1.5382 H   0  0  0  0  0  0  0  0  0  0  0  0
   -6.7289    1.8369    0.7299 H   0  0  0  0  0  0  0  0  0  0  0  0
   -5.2690    2.3445   -0.2063 H   0  0  0  0  0  0  0  0  0  0  0  0
   -6.1217   -0.4865    0.5728 H   0  0  0  0  0  0  0  0  0  0  0  0
   -4.8037    0.5245   -1.9931 H   0  0  0  0  0  0  0  0  0  0  0  0
   -6.0211   -0.7947   -1.6596 H   0  0  0  0  0  0  0  0  0  0  0  0
   -6.4965    0.9724   -1.6386 H   0  0  0  0  0  0  0  0  0  0  0  0
   -3.3840    1.6467   -0.7523 H   0  0  0  0  0  0  0  0  0  0  0  0
   -1.0437    1.2349   -0.4057 H   0  0  0  0  0  0  0  0  0  0  0  0
    0.6504    0.2580    0.9220 H   0  0  0  0  0  0  0  0  0  0  0  0
    0.4090   -1.2300    1.9180 H   0  0  0  0  0  0  0  0  0  0  0  0
    0.3736   -2.4968   -0.0659 H   0  0  0  0  0  0  0  0  0  0  0  0
    2.7710   -2.2366    0.8198 H   0  0  0  0  0  0  0  0  0  0  0  0
    3.9370    1.5757   -1.5887 H   0  0  0  0  0  0  0  0  0  0  0  0
    6.2885    2.2109   -1.5403 H   0  0  0  0  0  0  0  0  0  0  0  0
    8.5495    1.7999   -0.2868 H   0  0  0  0  0  0  0  0  0  0  0  0
    7.1052   -1.1691    0.9808 H   0  0  0  0  0  0  0  0  0  0  0  0
    4.7657   -1.8309    0.9535 H   0  0  0  0  0  0  0  0  0  0  0  0
   -1.9359   -2.2753    1.8893 H   0  0  0  0  0  0  0  0  0  0  0  0
   -4.3771   -1.8172    1.5088 H   0  0  0  0  0  0  0  0  0  0  0  0
  1  2  1  0
  2  3  1  0
  2  4  1  0
  4  5  2  0
  5  6  1  0
  6  7  2  0
  7  8  1  0
  8  9  1  0
  9 10  1  0
 10 11  1  0
 11 12  2  0
 11 13  1  0
 13 14  2  0
 14 15  1  0
 15 16  2  0
 16 17  1  0
 16 18  1  0
 18 19  2  0
  7 20  1  0
 20 21  2  0
 21  4  1  0
 19 13  1  0
  1 22  1  0
  1 23  1  0
  1 24  1  0
  2 25  1  0
  3 26  1  0
  3 27  1  0
  3 28  1  0
  5 29  1  0
  6 30  1  0
  8 31  1  0
  8 32  1  0
  9 33  1  0
 10 34  1  0
 14 35  1  0
 15 36  1  0
 17 37  1  0
 18 38  1  0
 19 39  1  0
 20 40  1  0
 21 41  1  0
M  END
$$$$
