
     RDKit          3D

 38 40  0  0  0  0  0  0  0  0999 V2000
    5.6539   -1.3244    1.6557 C   0  0  0  0  0  0  0  0  0  0  0  0
    4.2915   -1.5186    2.0118 O   0  0  0  0  0  0  0  0  0  0  0  0
    3.3296   -0.6509    1.5379 C   0  0  0  0  0  0  0  0  0  0  0  0
    3.5989    0.4258    0.7178 C   0  0  0  0  0  0  0  0  0  0  0  0
    2.5472    1.2120    0.3169 C   0  0  0  0  0  0  0  0  0  0  0  0
    1.2208    0.9878    0.6890 C   0  0  0  0  0  0  0  0  0  0  0  0
    0.1437    1.9155    0.1939 C   0  0  0  0  0  0  0  0  0  0  0  0
   -0.3777    1.5160   -1.0783 N   0  0  0  0  0  0  0  0  0  0  0  0
    0.1062    1.8771   -2.2713 C   0  0  0  0  0  0  0  0  0  0  0  0
   -0.6538    1.2856   -3.2456 C   0  0  0  0  0  0  0  0  0  0  0  0
   -1.6303    0.5417   -2.6165 C   0  0  0  0  0  0  0  0  0  0  0  0
   -2.6675   -0.2555   -3.0505 C   0  0  0  0  0  0  0  0  0  0  0  0
   -3.5059   -0.8882   -2.1655 C   0  0  0  0  0  0  0  0  0  0  0  0
   -3.2933   -0.7128   -0.8145 C   0  0  0  0  0  0  0  0  0  0  0  0
   -4.1903   -1.3899    0.1113 C   0  0  0  0  0  0  0  0  0  0  0  0
   -5.1251   -2.1082   -0.3734 O   0  0  0  0  0  0  0  0  0  0  0  0
   -4.0384   -1.2614    1.5121 N   0  0  0  0  0  0  0  0  0  0  0  0
   -4.9101   -1.9202    2.3063 O   0  0  0  0  0  0  0  0  0  0  0  0
   -2.2675    0.0758   -0.3573 C   0  0  0  0  0  0  0  0  0  0  0  0
   -1.4318    0.7059   -1.2584 C   0  0  0  0  0  0  0  0  0  0  0  0
    0.9741   -0.0904    1.5067 C   0  0  0  0  0  0  0  0  0  0  0  0
    2.0175   -0.9060    1.9301 C   0  0  0  0  0  0  0  0  0  0  0  0
    6.2149   -2.2174    1.9947 H   0  0  0  0  0  0  0  0  0  0  0  0
    5.6854   -1.2299    0.5484 H   0  0  0  0  0  0  0  0  0  0  0  0
    6.0097   -0.4077    2.1720 H   0  0  0  0  0  0  0  0  0  0  0  0
    4.6279    0.5875    0.4381 H   0  0  0  0  0  0  0  0  0  0  0  0
    2.7738    2.0530   -0.3262 H   0  0  0  0  0  0  0  0  0  0  0  0
    0.6357    2.9113    0.0672 H   0  0  0  0  0  0  0  0  0  0  0  0
   -0.6471    2.0506    0.9394 H   0  0  0  0  0  0  0  0  0  0  0  0
    0.9549    2.5275   -2.3978 H   0  0  0  0  0  0  0  0  0  0  0  0
   -0.5596    1.3485   -4.3198 H   0  0  0  0  0  0  0  0  0  0  0  0
   -2.8159   -0.3792   -4.1345 H   0  0  0  0  0  0  0  0  0  0  0  0
   -4.3278   -1.5203   -2.5336 H   0  0  0  0  0  0  0  0  0  0  0  0
   -3.2968   -0.6912    1.9481 H   0  0  0  0  0  0  0  0  0  0  0  0
   -4.6760   -1.8000    3.2632 H   0  0  0  0  0  0  0  0  0  0  0  0
   -2.0804    0.2337    0.6991 H   0  0  0  0  0  0  0  0  0  0  0  0
   -0.0560   -0.2949    1.8201 H   0  0  0  0  0  0  0  0  0  0  0  0
    1.7654   -1.7278    2.5634 H   0  0  0  0  0  0  0  0  0  0  0  0
  1  2  1  0
  2  3  1  0
  3  4  2  0
  4  5  1  0
  5  6  2  0
  6  7  1  0
  7  8  1  0
  8  9  1  0
  9 10  2  0
 10 11  1  0
 11 12  2  0
 12 13  1  0
 13 14  2  0
 14 15  1  0
 15 16  2  0
 15 17  1  0
 17 18  1  0
 14 19  1  0
 19 20  2  0
  6 21  1  0
 21 22  2  0
 22  3  1  0
 20  8  1  0
 20 11  1  0
  1 23  1  0
  1 24  1  0
  1 25  1  0
  4 26  1  0
  5 27  1  0
  7 28  1  0
  7 29  1  0
  9 30  1  0
 10 31  1  0
 12 32  1  0
 13 33  1  0
 17 34  1  0
 18 35  1  0
 19 36  1  0
 21 37  1  0
 22 38  1  0
M  END
$$$$
