
     RDKit          3D

 37 40  0  0  0  0  0  0  0  0999 V2000
    5.1904    2.6997    0.1625 F   0  0  0  0  0  0  0  0  0  0  0  0
    4.2492    1.7184    0.0641 C   0  0  0  0  0  0  0  0  0  0  0  0
    4.0938    0.7854    1.0799 C   0  0  0  0  0  0  0  0  0  0  0  0
    3.1469   -0.2135    0.9971 C   0  0  0  0  0  0  0  0  0  0  0  0
    2.3370   -0.2739   -0.1369 C   0  0  0  0  0  0  0  0  0  0  0  0
    1.3387   -1.3189   -0.2340 C   0  0  0  0  0  0  0  0  0  0  0  0
    1.5958   -2.6328   -0.2414 N   0  0  0  0  0  0  0  0  0  0  0  0
    0.4119   -3.2936   -0.3447 C   0  0  0  0  0  0  0  0  0  0  0  0
   -0.5739   -2.3918   -0.4010 N   0  0  0  0  0  0  0  0  0  0  0  0
   -2.0024   -2.6690   -0.5153 C   0  0  0  0  0  0  0  0  0  0  0  0
   -2.6376   -2.8016    0.8428 C   0  0  0  0  0  0  0  0  0  0  0  0
   -3.9917   -3.0633    0.6200 F   0  0  0  0  0  0  0  0  0  0  0  0
   -2.1287   -3.9013    1.5055 F   0  0  0  0  0  0  0  0  0  0  0  0
   -0.0198   -1.1867   -0.3343 C   0  0  0  0  0  0  0  0  0  0  0  0
   -0.7361    0.0728   -0.3634 C   0  0  0  0  0  0  0  0  0  0  0  0
   -1.0864    0.7285   -1.5189 C   0  0  0  0  0  0  0  0  0  0  0  0
   -1.7685    1.9261   -1.4528 C   0  0  0  0  0  0  0  0  0  0  0  0
   -2.1110    2.4881   -0.2793 N   0  0  0  0  0  0  0  0  0  0  0  0
   -2.7602    3.6191    0.0414 N   0  0  0  0  0  0  0  0  0  0  0  0
   -2.8447    3.7223    1.3792 C   0  0  0  0  0  0  0  0  0  0  0  0
   -2.2312    2.6267    1.8591 N   0  0  0  0  0  0  0  0  0  0  0  0
   -1.7700    1.8498    0.8512 C   0  0  0  0  0  0  0  0  0  0  0  0
   -1.0860    0.6474    0.8306 C   0  0  0  0  0  0  0  0  0  0  0  0
    2.5105    0.6706   -1.1409 C   0  0  0  0  0  0  0  0  0  0  0  0
    3.4532    1.6629   -1.0552 C   0  0  0  0  0  0  0  0  0  0  0  0
    4.7565    0.8789    1.9485 H   0  0  0  0  0  0  0  0  0  0  0  0
    3.0281   -0.9492    1.8037 H   0  0  0  0  0  0  0  0  0  0  0  0
    0.3504   -4.3727   -0.3713 H   0  0  0  0  0  0  0  0  0  0  0  0
   -2.5143   -1.8656   -1.0891 H   0  0  0  0  0  0  0  0  0  0  0  0
   -2.1887   -3.6094   -1.0713 H   0  0  0  0  0  0  0  0  0  0  0  0
   -2.4994   -1.8956    1.4654 H   0  0  0  0  0  0  0  0  0  0  0  0
   -0.8047    0.2655   -2.4540 H   0  0  0  0  0  0  0  0  0  0  0  0
   -2.0321    2.4219   -2.3732 H   0  0  0  0  0  0  0  0  0  0  0  0
   -3.2949    4.4936    1.9896 H   0  0  0  0  0  0  0  0  0  0  0  0
   -0.8318    0.1680    1.7834 H   0  0  0  0  0  0  0  0  0  0  0  0
    1.8596    0.5827   -1.9999 H   0  0  0  0  0  0  0  0  0  0  0  0
    3.5920    2.4105   -1.8471 H   0  0  0  0  0  0  0  0  0  0  0  0
  1  2  1  0
  2  3  2  0
  3  4  1  0
  4  5  2  0
  5  6  1  0
  6  7  1  0
  7  8  2  0
  8  9  1  0
  9 10  1  0
 10 11  1  0
 11 12  1  0
 11 13  1  0
  9 14  1  0
 14 15  1  0
 15 16  1  0
 16 17  2  0
 17 18  1  0
 18 19  1  0
 19 20  2  0
 20 21  1  0
 21 22  2  0
 22 23  1  0
  5 24  1  0
 24 25  2  0
 25  2  1  0
 14  6  2  0
 23 15  2  0
 22 18  1  0
  3 26  1  0
  4 27  1  0
  8 28  1  0
 10 29  1  0
 10 30  1  0
 11 31  1  0
 16 32  1  0
 17 33  1  0
 20 34  1  0
 23 35  1  0
 24 36  1  0
 25 37  1  0
M  END
$$$$
