
     RDKit          3D

 46 50  0  0  0  0  0  0  0  0999 V2000
   -1.9781   -1.1854   -3.0728 N   0  0  0  0  0  0  0  0  0  0  0  0
   -1.9661   -1.0486   -1.6355 C   0  0  0  0  0  0  0  0  0  0  0  0
   -2.2009    0.0575   -1.0557 N   0  0  0  0  0  0  0  0  0  0  0  0
   -2.2170    0.3158    0.3660 C   0  0  0  0  0  0  0  0  0  0  0  0
   -2.1402   -0.9466    1.1937 C   0  0  0  0  0  0  0  0  0  0  0  0
   -2.2401   -2.2136    0.4320 C   0  0  0  0  0  0  0  0  0  0  0  0
   -1.6905   -2.1548   -0.8570 O   0  0  0  0  0  0  0  0  0  0  0  0
   -1.0298    1.1212    0.7322 C   0  0  0  0  0  0  0  0  0  0  0  0
    0.2452    0.5525    0.5062 C   0  0  0  0  0  0  0  0  0  0  0  0
    1.3826    1.2318    0.8176 C   0  0  0  0  0  0  0  0  0  0  0  0
    2.6867    0.7314    0.6217 N   0  0  0  0  0  0  0  0  0  0  0  0
    3.0587   -0.5217    0.0860 C   0  0  0  0  0  0  0  0  0  0  0  0
    2.1708   -1.3241   -0.2746 O   0  0  0  0  0  0  0  0  0  0  0  0
    4.4788   -0.9096   -0.0595 C   0  0  0  0  0  0  0  0  0  0  0  0
    4.8087   -2.1343   -0.5837 C   0  0  0  0  0  0  0  0  0  0  0  0
    6.1569   -2.4860   -0.7146 C   0  0  0  0  0  0  0  0  0  0  0  0
    7.1324   -1.6074   -0.3196 C   0  0  0  0  0  0  0  0  0  0  0  0
    8.8421   -2.0368   -0.4785 Cl  0  0  0  0  0  0  0  0  0  0  0  0
    6.7655   -0.3883    0.2016 C   0  0  0  0  0  0  0  0  0  0  0  0
    5.4721   -0.0931    0.3089 N   0  0  0  0  0  0  0  0  0  0  0  0
    1.2456    2.4973    1.3625 C   0  0  0  0  0  0  0  0  0  0  0  0
    0.0490    3.0851    1.5979 C   0  0  0  0  0  0  0  0  0  0  0  0
   -1.1094    2.3678    1.2697 C   0  0  0  0  0  0  0  0  0  0  0  0
   -2.3490    2.9574    1.5052 O   0  0  0  0  0  0  0  0  0  0  0  0
   -3.5295    2.2551    1.1832 C   0  0  0  0  0  0  0  0  0  0  0  0
   -4.7222    2.8313    1.4134 N   0  0  0  0  0  0  0  0  0  0  0  0
   -5.8481    2.2193    1.1311 C   0  0  0  0  0  0  0  0  0  0  0  0
   -5.8559    0.9613    0.5872 C   0  0  0  0  0  0  0  0  0  0  0  0
   -4.6590    0.3483    0.3411 C   0  0  0  0  0  0  0  0  0  0  0  0
   -3.4683    1.0169    0.6489 C   0  0  0  0  0  0  0  0  0  0  0  0
   -1.2882   -0.6874   -3.6477 H   0  0  0  0  0  0  0  0  0  0  0  0
   -2.6813   -1.7852   -3.5283 H   0  0  0  0  0  0  0  0  0  0  0  0
   -1.2161   -0.9961    1.8100 H   0  0  0  0  0  0  0  0  0  0  0  0
   -2.9737   -0.9321    1.9394 H   0  0  0  0  0  0  0  0  0  0  0  0
   -3.2856   -2.5835    0.3239 H   0  0  0  0  0  0  0  0  0  0  0  0
   -1.7100   -3.0470    0.9815 H   0  0  0  0  0  0  0  0  0  0  0  0
    0.2302   -0.4338    0.0797 H   0  0  0  0  0  0  0  0  0  0  0  0
    3.5363    1.3305    0.8938 H   0  0  0  0  0  0  0  0  0  0  0  0
    4.0799   -2.8492   -0.9041 H   0  0  0  0  0  0  0  0  0  0  0  0
    6.4226   -3.4540   -1.1289 H   0  0  0  0  0  0  0  0  0  0  0  0
    7.5565    0.3038    0.5130 H   0  0  0  0  0  0  0  0  0  0  0  0
    2.1676    3.0317    1.6079 H   0  0  0  0  0  0  0  0  0  0  0  0
   -0.0698    4.0571    2.0162 H   0  0  0  0  0  0  0  0  0  0  0  0
   -6.8057    2.7023    1.3248 H   0  0  0  0  0  0  0  0  0  0  0  0
   -6.8061    0.4987    0.3722 H   0  0  0  0  0  0  0  0  0  0  0  0
   -4.6477   -0.6551   -0.0928 H   0  0  0  0  0  0  0  0  0  0  0  0
  1  2  1  0
  2  3  2  0
  3  4  1  0
  4  5  1  0
  5  6  1  0
  6  7  1  0
  4  8  1  0
  8  9  2  0
  9 10  1  0
 10 11  1  0
 11 12  1  0
 12 13  2  0
 12 14  1  0
 14 15  2  0
 15 16  1  0
 16 17  2  0
 17 18  1  0
 17 19  1  0
 19 20  2  0
 10 21  2  0
 21 22  1  0
 22 23  2  0
 23 24  1  0
 24 25  1  0
 25 26  2  0
 26 27  1  0
 27 28  2  0
 28 29  1  0
 29 30  2  0
  7  2  1  0
 23  8  1  0
 30 25  1  0
 30  4  1  0
 20 14  1  0
  1 31  1  0
  1 32  1  0
  5 33  1  0
  5 34  1  0
  6 35  1  0
  6 36  1  0
  9 37  1  0
 11 38  1  0
 15 39  1  0
 16 40  1  0
 19 41  1  0
 21 42  1  0
 22 43  1  0
 27 44  1  0
 28 45  1  0
 29 46  1  0
M  END
$$$$
