
     RDKit          3D

 49 51  0  0  0  0  0  0  0  0999 V2000
    8.2682   -0.7965   -1.4724 C   0  0  0  0  0  0  0  0  0  0  0  0
    7.7147   -0.3623   -0.2467 O   0  0  0  0  0  0  0  0  0  0  0  0
    6.7933    0.6883   -0.2731 C   0  0  0  0  0  0  0  0  0  0  0  0
    6.5063    1.1890   -1.3799 O   0  0  0  0  0  0  0  0  0  0  0  0
    6.2465    1.1166    0.9456 N   0  0  0  0  0  0  0  0  0  0  0  0
    5.2874    2.1917    0.9912 C   0  0  0  0  0  0  0  0  0  0  0  0
    3.9620    1.6334    0.5807 C   0  0  0  0  0  0  0  0  0  0  0  0
    3.1925    1.0136    1.5755 C   0  0  0  0  0  0  0  0  0  0  0  0
    1.9562    0.5000    1.2431 C   0  0  0  0  0  0  0  0  0  0  0  0
    1.4297    0.5613   -0.0199 C   0  0  0  0  0  0  0  0  0  0  0  0
    0.1256    0.0030   -0.2904 C   0  0  0  0  0  0  0  0  0  0  0  0
   -0.3094    0.0858   -1.4893 O   0  0  0  0  0  0  0  0  0  0  0  0
   -0.7293   -0.6289    0.6286 N   0  0  0  0  0  0  0  0  0  0  0  0
   -2.0130   -1.1563    0.2773 C   0  0  0  0  0  0  0  0  0  0  0  0
   -3.1251   -0.3461    0.3684 C   0  0  0  0  0  0  0  0  0  0  0  0
   -4.3676   -0.8623    0.0266 C   0  0  0  0  0  0  0  0  0  0  0  0
   -5.5707   -0.0718    0.0973 C   0  0  0  0  0  0  0  0  0  0  0  0
   -5.7138    0.9144    1.0380 C   0  0  0  0  0  0  0  0  0  0  0  0
   -6.8682    1.6884    1.1228 C   0  0  0  0  0  0  0  0  0  0  0  0
   -7.8786    1.4475    0.2374 C   0  0  0  0  0  0  0  0  0  0  0  0
   -7.7655    0.4708   -0.7122 C   0  0  0  0  0  0  0  0  0  0  0  0
   -6.5945   -0.3005   -0.7837 C   0  0  0  0  0  0  0  0  0  0  0  0
   -4.4210   -2.1780   -0.3917 C   0  0  0  0  0  0  0  0  0  0  0  0
   -3.3050   -2.9783   -0.4790 C   0  0  0  0  0  0  0  0  0  0  0  0
   -2.0717   -2.4673   -0.1402 C   0  0  0  0  0  0  0  0  0  0  0  0
   -0.8854   -3.2640   -0.2157 N   0  0  0  0  0  0  0  0  0  0  0  0
    2.1976    1.1730   -0.9845 C   0  0  0  0  0  0  0  0  0  0  0  0
    3.4510    1.7044   -0.6883 C   0  0  0  0  0  0  0  0  0  0  0  0
    9.1882   -0.2283   -1.7455 H   0  0  0  0  0  0  0  0  0  0  0  0
    8.4629   -1.8705   -1.4018 H   0  0  0  0  0  0  0  0  0  0  0  0
    7.5559   -0.6476   -2.3226 H   0  0  0  0  0  0  0  0  0  0  0  0
    6.5037    0.6834    1.8734 H   0  0  0  0  0  0  0  0  0  0  0  0
    5.5719    2.9385    0.2252 H   0  0  0  0  0  0  0  0  0  0  0  0
    5.2280    2.6668    1.9931 H   0  0  0  0  0  0  0  0  0  0  0  0
    3.6140    0.9692    2.5684 H   0  0  0  0  0  0  0  0  0  0  0  0
    1.3998    0.0344    2.0306 H   0  0  0  0  0  0  0  0  0  0  0  0
   -0.4114   -0.7174    1.6162 H   0  0  0  0  0  0  0  0  0  0  0  0
   -3.0882    0.6722    0.6916 H   0  0  0  0  0  0  0  0  0  0  0  0
   -4.9153    1.1151    1.7479 H   0  0  0  0  0  0  0  0  0  0  0  0
   -6.9733    2.4782    1.8817 H   0  0  0  0  0  0  0  0  0  0  0  0
   -8.7858    2.0440    0.2913 H   0  0  0  0  0  0  0  0  0  0  0  0
   -8.5488    0.2743   -1.4085 H   0  0  0  0  0  0  0  0  0  0  0  0
   -6.5023   -1.0805   -1.5410 H   0  0  0  0  0  0  0  0  0  0  0  0
   -5.4103   -2.5781   -0.6602 H   0  0  0  0  0  0  0  0  0  0  0  0
   -3.3649   -4.0135   -0.8107 H   0  0  0  0  0  0  0  0  0  0  0  0
    0.0182   -2.9551    0.1950 H   0  0  0  0  0  0  0  0  0  0  0  0
   -0.9107   -4.1864   -0.6940 H   0  0  0  0  0  0  0  0  0  0  0  0
    1.8274    1.2440   -1.9831 H   0  0  0  0  0  0  0  0  0  0  0  0
    4.0288    2.1885   -1.4551 H   0  0  0  0  0  0  0  0  0  0  0  0
  1  2  1  0
  2  3  1  0
  3  4  2  0
  3  5  1  0
  5  6  1  0
  6  7  1  0
  7  8  2  0
  8  9  1  0
  9 10  2  0
 10 11  1  0
 11 12  2  0
 11 13  1  0
 13 14  1  0
 14 15  2  0
 15 16  1  0
 16 17  1  0
 17 18  2  0
 18 19  1  0
 19 20  2  0
 20 21  1  0
 21 22  2  0
 16 23  2  0
 23 24  1  0
 24 25  2  0
 25 26  1  0
 10 27  1  0
 27 28  2  0
 28  7  1  0
 25 14  1  0
 22 17  1  0
  1 29  1  0
  1 30  1  0
  1 31  1  0
  5 32  1  0
  6 33  1  0
  6 34  1  0
  8 35  1  0
  9 36  1  0
 13 37  1  0
 15 38  1  0
 18 39  1  0
 19 40  1  0
 20 41  1  0
 21 42  1  0
 22 43  1  0
 23 44  1  0
 24 45  1  0
 26 46  1  0
 26 47  1  0
 27 48  1  0
 28 49  1  0
M  END
$$$$
