
     RDKit          3D

 33 35  0  0  0  0  0  0  0  0999 V2000
   -2.9873    2.1401   -0.5833 O   0  0  0  0  0  0  0  0  0  0  0  0
   -2.7204    0.9638   -0.1942 C   0  0  0  0  0  0  0  0  0  0  0  0
   -1.3205    0.5284   -0.0511 C   0  0  0  0  0  0  0  0  0  0  0  0
   -0.3245    1.3570   -0.3260 C   0  0  0  0  0  0  0  0  0  0  0  0
    1.0858    1.0242   -0.2168 C   0  0  0  0  0  0  0  0  0  0  0  0
    1.9937    2.0356   -0.5520 C   0  0  0  0  0  0  0  0  0  0  0  0
    3.3511    1.8158   -0.4802 C   0  0  0  0  0  0  0  0  0  0  0  0
    3.7891    0.5686   -0.0678 C   0  0  0  0  0  0  0  0  0  0  0  0
    5.1509    0.2905    0.0233 C   0  0  0  0  0  0  0  0  0  0  0  0
    5.6401   -0.9251    0.4251 C   0  0  0  0  0  0  0  0  0  0  0  0
    4.7520   -1.9290    0.7579 C   0  0  0  0  0  0  0  0  0  0  0  0
    3.4005   -1.6729    0.6740 C   0  0  0  0  0  0  0  0  0  0  0  0
    2.9039   -0.4314    0.2636 C   0  0  0  0  0  0  0  0  0  0  0  0
    1.5364   -0.2084    0.1907 C   0  0  0  0  0  0  0  0  0  0  0  0
   -3.8182    0.0605    0.1054 C   0  0  0  0  0  0  0  0  0  0  0  0
   -5.1293    0.5205   -0.0460 C   0  0  0  0  0  0  0  0  0  0  0  0
   -6.2250   -0.2703    0.2165 C   0  0  0  0  0  0  0  0  0  0  0  0
   -5.9830   -1.5551    0.6415 C   0  0  0  0  0  0  0  0  0  0  0  0
   -4.7229   -2.0003    0.7881 N   0  0  0  0  0  0  0  0  0  0  0  0
   -3.6303   -1.2360    0.5344 C   0  0  0  0  0  0  0  0  0  0  0  0
   -1.0691   -0.4635    0.2770 H   0  0  0  0  0  0  0  0  0  0  0  0
   -0.6363    2.3531   -0.6554 H   0  0  0  0  0  0  0  0  0  0  0  0
    1.6450    3.0141   -0.8755 H   0  0  0  0  0  0  0  0  0  0  0  0
    4.0862    2.5742   -0.7316 H   0  0  0  0  0  0  0  0  0  0  0  0
    5.8154    1.1209   -0.2519 H   0  0  0  0  0  0  0  0  0  0  0  0
    6.7050   -1.0875    0.4781 H   0  0  0  0  0  0  0  0  0  0  0  0
    5.1425   -2.8923    1.0763 H   0  0  0  0  0  0  0  0  0  0  0  0
    2.7020   -2.4429    0.9292 H   0  0  0  0  0  0  0  0  0  0  0  0
    0.8608   -0.9943    0.4512 H   0  0  0  0  0  0  0  0  0  0  0  0
   -5.3144    1.5414   -0.3837 H   0  0  0  0  0  0  0  0  0  0  0  0
   -7.2476    0.0940    0.0966 H   0  0  0  0  0  0  0  0  0  0  0  0
   -6.7797   -2.2492    0.8718 H   0  0  0  0  0  0  0  0  0  0  0  0
   -2.6521   -1.6443    0.6689 H   0  0  0  0  0  0  0  0  0  0  0  0
  1  2  2  0
  2  3  1  0
  3  4  2  0
  4  5  1  0
  5  6  2  0
  6  7  1  0
  7  8  2  0
  8  9  1  0
  9 10  2  0
 10 11  1  0
 11 12  2  0
 12 13  1  0
 13 14  2  0
  2 15  1  0
 15 16  2  0
 16 17  1  0
 17 18  2  0
 18 19  1  0
 19 20  2  0
 14  5  1  0
 20 15  1  0
 13  8  1  0
  3 21  1  0
  4 22  1  0
  6 23  1  0
  7 24  1  0
  9 25  1  0
 10 26  1  0
 11 27  1  0
 12 28  1  0
 14 29  1  0
 16 30  1  0
 17 31  1  0
 18 32  1  0
 20 33  1  0
M  END
$$$$
