
     RDKit          3D

 56 59  0  0  0  0  0  0  0  0999 V2000
    6.0801    4.5085    3.2995 C   0  0  0  0  0  0  0  0  0  0  0  0
    5.6015    3.5128    2.3828 O   0  0  0  0  0  0  0  0  0  0  0  0
    4.5466    2.6882    2.6724 C   0  0  0  0  0  0  0  0  0  0  0  0
    3.9735    2.8058    3.7833 O   0  0  0  0  0  0  0  0  0  0  0  0
    4.0708    1.6751    1.7221 C   0  0  0  0  0  0  0  0  0  0  0  0
    3.0266    0.7934    1.8984 C   0  0  0  0  0  0  0  0  0  0  0  0
    2.9333    0.0271    0.7550 C   0  0  0  0  0  0  0  0  0  0  0  0
    1.9628   -1.0142    0.5450 C   0  0  0  0  0  0  0  0  0  0  0  0
    2.3508   -2.2252    0.0137 C   0  0  0  0  0  0  0  0  0  0  0  0
    1.4326   -3.2235   -0.1899 C   0  0  0  0  0  0  0  0  0  0  0  0
    0.0989   -3.0522    0.1273 C   0  0  0  0  0  0  0  0  0  0  0  0
   -0.3110   -1.8589    0.6560 C   0  0  0  0  0  0  0  0  0  0  0  0
   -1.6094   -1.5931    1.0023 O   0  0  0  0  0  0  0  0  0  0  0  0
   -2.5480   -1.0452    0.1509 C   0  0  0  0  0  0  0  0  0  0  0  0
   -2.1275   -0.7999   -0.9878 O   0  0  0  0  0  0  0  0  0  0  0  0
   -3.8800   -0.7630    0.4768 N   0  0  0  0  0  0  0  0  0  0  0  0
   -4.7765   -0.1772   -0.5301 C   0  0  0  0  0  0  0  0  0  0  0  0
   -5.9229   -1.0935   -0.8236 C   0  0  0  0  0  0  0  0  0  0  0  0
   -7.0492   -1.0092    0.1438 C   0  0  0  0  0  0  0  0  0  0  0  0
   -7.5137    0.4496    0.2363 C   0  0  0  0  0  0  0  0  0  0  0  0
   -6.3378    1.1909    0.8854 C   0  0  0  0  0  0  0  0  0  0  0  0
   -5.1983    1.1924   -0.0727 C   0  0  0  0  0  0  0  0  0  0  0  0
    0.6118   -0.8493    0.8631 C   0  0  0  0  0  0  0  0  0  0  0  0
    3.8829    0.4265   -0.0838 N   0  0  0  0  0  0  0  0  0  0  0  0
    4.1714   -0.0835   -1.4029 C   0  0  0  0  0  0  0  0  0  0  0  0
    5.3447   -0.7898   -1.6076 C   0  0  0  0  0  0  0  0  0  0  0  0
    5.6750   -1.3013   -2.8446 C   0  0  0  0  0  0  0  0  0  0  0  0
    4.8099   -1.0988   -3.8946 C   0  0  0  0  0  0  0  0  0  0  0  0
    3.6268   -0.3908   -3.7040 C   0  0  0  0  0  0  0  0  0  0  0  0
    3.3230    0.1105   -2.4497 C   0  0  0  0  0  0  0  0  0  0  0  0
    4.5557    1.4060    0.4963 N   0  0  0  0  0  0  0  0  0  0  0  0
    6.8723    5.0685    2.7894 H   0  0  0  0  0  0  0  0  0  0  0  0
    5.2408    5.1395    3.6442 H   0  0  0  0  0  0  0  0  0  0  0  0
    6.5576    4.0094    4.1766 H   0  0  0  0  0  0  0  0  0  0  0  0
    2.4161    0.7437    2.7867 H   0  0  0  0  0  0  0  0  0  0  0  0
    3.3773   -2.4429   -0.2629 H   0  0  0  0  0  0  0  0  0  0  0  0
    1.6976   -4.2017   -0.6100 H   0  0  0  0  0  0  0  0  0  0  0  0
   -0.6495   -3.7998   -0.0137 H   0  0  0  0  0  0  0  0  0  0  0  0
   -4.2112   -0.9756    1.4337 H   0  0  0  0  0  0  0  0  0  0  0  0
   -4.2101   -0.0370   -1.4741 H   0  0  0  0  0  0  0  0  0  0  0  0
   -6.3141   -0.8864   -1.8397 H   0  0  0  0  0  0  0  0  0  0  0  0
   -5.5382   -2.1350   -0.8188 H   0  0  0  0  0  0  0  0  0  0  0  0
   -7.9165   -1.5590   -0.2898 H   0  0  0  0  0  0  0  0  0  0  0  0
   -6.8046   -1.3239    1.1624 H   0  0  0  0  0  0  0  0  0  0  0  0
   -8.4215    0.5156    0.8570 H   0  0  0  0  0  0  0  0  0  0  0  0
   -7.7366    0.8670   -0.7607 H   0  0  0  0  0  0  0  0  0  0  0  0
   -6.1201    0.6419    1.8264 H   0  0  0  0  0  0  0  0  0  0  0  0
   -6.6601    2.2192    1.0610 H   0  0  0  0  0  0  0  0  0  0  0  0
   -5.4677    1.8365   -0.9310 H   0  0  0  0  0  0  0  0  0  0  0  0
   -4.3141    1.6765    0.4060 H   0  0  0  0  0  0  0  0  0  0  0  0
    0.3013    0.1171    1.2872 H   0  0  0  0  0  0  0  0  0  0  0  0
    6.0457   -0.9628   -0.7905 H   0  0  0  0  0  0  0  0  0  0  0  0
    6.6128   -1.8527   -2.9588 H   0  0  0  0  0  0  0  0  0  0  0  0
    5.0842   -1.5082   -4.8637 H   0  0  0  0  0  0  0  0  0  0  0  0
    2.9556   -0.2344   -4.5213 H   0  0  0  0  0  0  0  0  0  0  0  0
    2.3983    0.6662   -2.2920 H   0  0  0  0  0  0  0  0  0  0  0  0
  1  2  1  0
  2  3  1  0
  3  4  2  0
  3  5  1  0
  5  6  1  0
  6  7  2  0
  7  8  1  0
  8  9  2  0
  9 10  1  0
 10 11  2  0
 11 12  1  0
 12 13  1  0
 13 14  1  0
 14 15  2  0
 14 16  1  0
 16 17  1  0
 17 18  1  0
 18 19  1  0
 19 20  1  0
 20 21  1  0
 21 22  1  0
 12 23  2  0
  7 24  1  0
 24 25  1  0
 25 26  2  0
 26 27  1  0
 27 28  2  0
 28 29  1  0
 29 30  2  0
 24 31  1  0
 31  5  2  0
 23  8  1  0
 30 25  1  0
 22 17  1  0
  1 32  1  0
  1 33  1  0
  1 34  1  0
  6 35  1  0
  9 36  1  0
 10 37  1  0
 11 38  1  0
 16 39  1  0
 17 40  1  0
 18 41  1  0
 18 42  1  0
 19 43  1  0
 19 44  1  0
 20 45  1  0
 20 46  1  0
 21 47  1  0
 21 48  1  0
 22 49  1  0
 22 50  1  0
 23 51  1  0
 26 52  1  0
 27 53  1  0
 28 54  1  0
 29 55  1  0
 30 56  1  0
M  END
$$$$
