
     RDKit          3D

 36 39  0  0  0  0  0  0  0  0999 V2000
   -1.9033    3.5412   -0.0958 C   0  0  0  0  0  0  0  0  0  0  0  0
   -1.0785    2.4126   -0.0153 O   0  0  0  0  0  0  0  0  0  0  0  0
   -1.6348    1.1316   -0.0772 C   0  0  0  0  0  0  0  0  0  0  0  0
   -2.9752    0.9476   -0.2146 C   0  0  0  0  0  0  0  0  0  0  0  0
   -3.4589   -0.3521   -0.2712 C   0  0  0  0  0  0  0  0  0  0  0  0
   -4.7849   -0.5102   -0.3859 N   0  0  0  0  0  0  0  0  0  0  0  0
   -5.2928   -1.7455   -0.4281 C   0  0  0  0  0  0  0  0  0  0  0  0
   -4.5083   -2.8830   -0.3557 C   0  0  0  0  0  0  0  0  0  0  0  0
   -3.1491   -2.7599   -0.2367 C   0  0  0  0  0  0  0  0  0  0  0  0
   -2.6396   -1.4713   -0.1964 C   0  0  0  0  0  0  0  0  0  0  0  0
   -1.2733   -1.2617   -0.0572 C   0  0  0  0  0  0  0  0  0  0  0  0
   -0.7726    0.0296    0.0039 C   0  0  0  0  0  0  0  0  0  0  0  0
    0.5819    0.3264    0.1772 N   0  0  0  0  0  0  0  0  0  0  0  0
    1.5278    0.7034   -0.7939 C   0  0  0  0  0  0  0  0  0  0  0  0
    1.2457    0.8319   -1.9804 O   0  0  0  0  0  0  0  0  0  0  0  0
    2.9380    0.9556   -0.3125 C   0  0  0  0  0  0  0  0  0  0  0  0
    3.3490    2.2606   -0.2020 C   0  0  0  0  0  0  0  0  0  0  0  0
    5.0370    2.0388    0.4810 S   0  0  0  0  0  0  0  0  0  0  0  0
    5.0112    0.3032    0.5399 C   0  0  0  0  0  0  0  0  0  0  0  0
    5.9470   -0.6571    0.9534 C   0  0  0  0  0  0  0  0  0  0  0  0
    5.6563   -1.9651    0.8886 N   0  0  0  0  0  0  0  0  0  0  0  0
    4.4304   -2.2579    0.4117 C   0  0  0  0  0  0  0  0  0  0  0  0
    3.5287   -1.3715    0.0174 N   0  0  0  0  0  0  0  0  0  0  0  0
    3.7961   -0.0143    0.0688 C   0  0  0  0  0  0  0  0  0  0  0  0
   -2.2521    3.6309   -1.1331 H   0  0  0  0  0  0  0  0  0  0  0  0
   -2.7266    3.4240    0.6225 H   0  0  0  0  0  0  0  0  0  0  0  0
   -1.3197    4.4580    0.1822 H   0  0  0  0  0  0  0  0  0  0  0  0
   -3.6661    1.8000   -0.2721 H   0  0  0  0  0  0  0  0  0  0  0  0
   -6.3487   -1.8461   -0.5126 H   0  0  0  0  0  0  0  0  0  0  0  0
   -4.9997   -3.8687   -0.3912 H   0  0  0  0  0  0  0  0  0  0  0  0
   -2.5071   -3.6355   -0.1770 H   0  0  0  0  0  0  0  0  0  0  0  0
   -0.6100   -2.0983    0.0000 H   0  0  0  0  0  0  0  0  0  0  0  0
    0.9594    0.2626    1.1814 H   0  0  0  0  0  0  0  0  0  0  0  0
    2.8895    3.1748   -0.4159 H   0  0  0  0  0  0  0  0  0  0  0  0
    6.8652   -0.2275    1.3061 H   0  0  0  0  0  0  0  0  0  0  0  0
    4.1380   -3.3071    0.3355 H   0  0  0  0  0  0  0  0  0  0  0  0
  1  2  1  0
  2  3  1  0
  3  4  2  0
  4  5  1  0
  5  6  2  0
  6  7  1  0
  7  8  2  0
  8  9  1  0
  9 10  2  0
 10 11  1  0
 11 12  2  0
 12 13  1  0
 13 14  1  0
 14 15  2  0
 14 16  1  0
 16 17  2  0
 17 18  1  0
 18 19  1  0
 19 20  2  0
 20 21  1  0
 21 22  2  0
 22 23  1  0
 23 24  2  0
 12  3  1  0
 24 16  1  0
 10  5  1  0
 24 19  1  0
  1 25  1  0
  1 26  1  0
  1 27  1  0
  4 28  1  0
  7 29  1  0
  8 30  1  0
  9 31  1  0
 11 32  1  0
 13 33  1  0
 17 34  1  0
 20 35  1  0
 22 36  1  0
M  END
$$$$
