
     RDKit          3D

 16 16  0  0  0  0  0  0  0  0999 V2000
    3.0434    0.0370    0.7513 O   0  0  0  0  0  0  0  0  0  0  0  0
    2.1673   -0.0635   -0.6801 S   0  0  0  0  0  0  0  0  0  0  0  0
    2.5125    1.0982   -1.5554 O   0  0  0  0  0  0  0  0  0  0  0  0
    2.4675   -1.3830   -1.3215 O   0  0  0  0  0  0  0  0  0  0  0  0
    0.4583    0.0509   -0.2677 C   0  0  0  0  0  0  0  0  0  0  0  0
   -0.2165    1.2648   -0.2056 C   0  0  0  0  0  0  0  0  0  0  0  0
   -1.5602    1.3241    0.1213 C   0  0  0  0  0  0  0  0  0  0  0  0
   -2.1994    0.1206    0.3829 C   0  0  0  0  0  0  0  0  0  0  0  0
   -4.2149    0.1568    0.8778 Hg  0  0  0  0  0  1  0  0  0  0  0  0
   -1.5325   -1.0993    0.3232 C   0  0  0  0  0  0  0  0  0  0  0  0
   -0.1909   -1.1430   -0.0045 C   0  0  0  0  0  0  0  0  0  0  0  0
    2.6585   -0.6512    1.3652 H   0  0  0  0  0  0  0  0  0  0  0  0
    0.3802    2.1461   -0.4290 H   0  0  0  0  0  0  0  0  0  0  0  0
   -2.0647    2.2800    0.1636 H   0  0  0  0  0  0  0  0  0  0  0  0
   -2.0351   -2.0433    0.5288 H   0  0  0  0  0  0  0  0  0  0  0  0
    0.3265   -2.0952   -0.0503 H   0  0  0  0  0  0  0  0  0  0  0  0
  1  2  1  0
  2  3  2  0
  2  4  2  0
  2  5  1  0
  5  6  2  0
  6  7  1  0
  7  8  2  0
  8  9  1  0
  8 10  1  0
 10 11  2  0
 11  5  1  0
  1 12  1  0
  6 13  1  0
  7 14  1  0
 10 15  1  0
 11 16  1  0
M  END
$$$$
