
     RDKit          3D

 56 59  0  0  0  0  0  0  0  0999 V2000
   -4.7599   -2.5635   -1.6610 C   0  0  0  0  0  0  0  0  0  0  0  0
   -3.4474   -2.4383   -1.0676 N   0  0  0  0  0  0  0  0  0  0  0  0
   -2.8575   -1.2222   -1.1612 C   0  0  0  0  0  0  0  0  0  0  0  0
   -3.4040   -0.2571   -1.7230 O   0  0  0  0  0  0  0  0  0  0  0  0
   -1.5990   -1.1079   -0.5909 C   0  0  0  0  0  0  0  0  0  0  0  0
   -1.0148   -2.1901    0.0269 C   0  0  0  0  0  0  0  0  0  0  0  0
    0.2029   -1.7803    0.4906 C   0  0  0  0  0  0  0  0  0  0  0  0
    0.3979   -0.4286    0.1667 C   0  0  0  0  0  0  0  0  0  0  0  0
    1.5742    0.2892    0.4973 N   0  0  0  0  0  0  0  0  0  0  0  0
    1.8360    1.6785    0.3901 C   0  0  0  0  0  0  0  0  0  0  0  0
    2.8113    1.8990   -0.7589 C   0  0  0  0  0  0  0  0  0  0  0  0
    3.6872    0.6771   -0.9210 C   0  0  0  0  0  0  0  0  0  0  0  0
    4.0115    0.0933    0.4554 C   0  0  1  0  0  0  0  0  0  0  0  0
    4.9854   -1.0515    0.2717 C   0  0  0  0  0  0  0  0  0  0  0  0
    4.6403    1.0801    1.2757 N   0  0  0  0  0  0  0  0  0  0  0  0
    2.7360   -0.4768    1.0210 C   0  0  0  0  0  0  0  0  0  0  0  0
   -0.7158   -0.0656   -0.4863 N   0  0  0  0  0  0  0  0  0  0  0  0
   -1.0053    1.1926   -1.0568 C   0  0  0  0  0  0  0  0  0  0  0  0
   -1.7033    2.2093   -0.2822 C   0  0  0  0  0  0  0  0  0  0  0  0
   -1.9352    3.4259   -0.9484 C   0  0  0  0  0  0  0  0  0  0  0  0
   -2.5833    4.4618   -0.3268 C   0  0  0  0  0  0  0  0  0  0  0  0
   -2.7922    5.6260   -1.0008 F   0  0  0  0  0  0  0  0  0  0  0  0
   -3.0311    4.3364    0.9868 C   0  0  0  0  0  0  0  0  0  0  0  0
   -2.8113    3.1653    1.6372 C   0  0  0  0  0  0  0  0  0  0  0  0
   -2.1539    2.1134    1.0077 C   0  0  0  0  0  0  0  0  0  0  0  0
   -1.9716    0.9190    1.7814 C   0  0  0  0  0  0  0  0  0  0  0  0
   -1.8352   -0.0257    2.4146 N   0  0  0  0  0  0  0  0  0  0  0  0
   -1.6288   -3.3850    0.1025 N   0  0  0  0  0  0  0  0  0  0  0  0
   -1.0243   -4.5370    0.7517 C   0  0  0  0  0  0  0  0  0  0  0  0
   -2.8510   -3.4852   -0.4551 C   0  0  0  0  0  0  0  0  0  0  0  0
   -3.4375   -4.5888   -0.3948 O   0  0  0  0  0  0  0  0  0  0  0  0
   -5.0945   -3.6056   -1.5410 H   0  0  0  0  0  0  0  0  0  0  0  0
   -4.6935   -2.3540   -2.7373 H   0  0  0  0  0  0  0  0  0  0  0  0
   -5.4251   -1.8417   -1.1262 H   0  0  0  0  0  0  0  0  0  0  0  0
    0.9114   -2.3739    1.0228 H   0  0  0  0  0  0  0  0  0  0  0  0
    2.4683    1.9927    1.3079 H   0  0  0  0  0  0  0  0  0  0  0  0
    1.0111    2.3745    0.4298 H   0  0  0  0  0  0  0  0  0  0  0  0
    3.4655    2.7797   -0.5518 H   0  0  0  0  0  0  0  0  0  0  0  0
    2.2335    2.0655   -1.6731 H   0  0  0  0  0  0  0  0  0  0  0  0
    4.6097    0.9400   -1.4679 H   0  0  0  0  0  0  0  0  0  0  0  0
    3.1423   -0.0809   -1.5183 H   0  0  0  0  0  0  0  0  0  0  0  0
    4.4183   -1.9424   -0.0619 H   0  0  0  0  0  0  0  0  0  0  0  0
    5.4094   -1.2861    1.2684 H   0  0  0  0  0  0  0  0  0  0  0  0
    5.8253   -0.7892   -0.4013 H   0  0  0  0  0  0  0  0  0  0  0  0
    5.1672    1.7472    0.6436 H   0  0  0  0  0  0  0  0  0  0  0  0
    5.3548    0.6910    1.9276 H   0  0  0  0  0  0  0  0  0  0  0  0
    2.6360   -1.4921    0.5487 H   0  0  0  0  0  0  0  0  0  0  0  0
    2.7112   -0.5076    2.1206 H   0  0  0  0  0  0  0  0  0  0  0  0
   -1.5915    1.0415   -2.0201 H   0  0  0  0  0  0  0  0  0  0  0  0
   -0.0827    1.7116   -1.4676 H   0  0  0  0  0  0  0  0  0  0  0  0
   -1.6077    3.5767   -1.9726 H   0  0  0  0  0  0  0  0  0  0  0  0
   -3.5397    5.1822    1.4389 H   0  0  0  0  0  0  0  0  0  0  0  0
   -3.1404    3.0315    2.6473 H   0  0  0  0  0  0  0  0  0  0  0  0
   -1.7873   -5.2140    1.1861 H   0  0  0  0  0  0  0  0  0  0  0  0
   -0.3626   -5.0669    0.0175 H   0  0  0  0  0  0  0  0  0  0  0  0
   -0.3597   -4.1429    1.5373 H   0  0  0  0  0  0  0  0  0  0  0  0
  1  2  1  0
  2  3  1  0
  3  4  2  0
  3  5  1  0
  5  6  2  0
  6  7  1  0
  7  8  2  0
  8  9  1  0
  9 10  1  0
 10 11  1  0
 11 12  1  0
 12 13  1  0
 13 14  1  0
 13 15  1  1
 13 16  1  0
  8 17  1  0
 17 18  1  0
 18 19  1  0
 19 20  2  0
 20 21  1  0
 21 22  1  0
 21 23  2  0
 23 24  1  0
 24 25  2  0
 25 26  1  0
 26 27  3  0
  6 28  1  0
 28 29  1  0
 28 30  1  0
 30 31  2  0
 30  2  1  0
 17  5  1  0
 25 19  1  0
 16  9  1  0
  1 32  1  0
  1 33  1  0
  1 34  1  0
  7 35  1  0
 10 36  1  0
 10 37  1  0
 11 38  1  0
 11 39  1  0
 12 40  1  0
 12 41  1  0
 14 42  1  0
 14 43  1  0
 14 44  1  0
 15 45  1  0
 15 46  1  0
 16 47  1  0
 16 48  1  0
 18 49  1  0
 18 50  1  0
 20 51  1  0
 23 52  1  0
 24 53  1  0
 29 54  1  0
 29 55  1  0
 29 56  1  0
M  END
$$$$
