
     RDKit          3D

 55 59  0  0  0  0  0  0  0  0999 V2000
   -5.5056    0.9100    3.4026 C   0  0  0  0  0  0  0  0  0  0  0  0
   -4.6557    0.8887    2.1943 C   0  0  0  0  0  0  0  0  0  0  0  0
   -5.2149    1.1843    0.9641 C   0  0  0  0  0  0  0  0  0  0  0  0
   -4.4930    1.1851   -0.1938 C   0  0  0  0  0  0  0  0  0  0  0  0
   -3.1144    0.8727   -0.1526 C   0  0  0  0  0  0  0  0  0  0  0  0
   -2.4033    0.8956   -1.3859 N   0  0  0  0  0  0  0  0  0  0  0  0
   -1.4999    1.7340   -1.8472 N   0  0  0  0  0  0  0  0  0  0  0  0
   -1.1208    1.3826   -3.1020 C   0  0  0  0  0  0  0  0  0  0  0  0
   -1.8361    0.2656   -3.4156 C   0  0  0  0  0  0  0  0  0  0  0  0
   -2.6041    0.0000   -2.3487 N   0  0  0  0  0  0  0  0  0  0  0  0
   -2.5880    0.5865    1.0508 C   0  0  0  0  0  0  0  0  0  0  0  0
   -1.1577    0.2250    1.2113 C   0  0  0  0  0  0  0  0  0  0  0  0
   -0.3893    1.1848    1.5358 O   0  0  0  0  0  0  0  0  0  0  0  0
   -0.7219   -1.1017    1.0248 N   0  0  0  0  0  0  0  0  0  0  0  0
   -1.6587   -2.0886    0.5601 C   0  0  0  0  0  0  0  0  0  0  0  0
   -1.2690   -3.4927    0.8108 C   0  0  0  0  0  0  0  0  0  0  0  0
   -0.3262   -3.7498    1.7479 O   0  0  0  0  0  0  0  0  0  0  0  0
    0.3073   -2.7194    2.3555 C   0  0  0  0  0  0  0  0  0  0  0  0
    0.5813   -1.5326    1.3944 C   0  0  1  0  0  0  0  0  0  0  0  0
    1.5729   -1.8878    0.3815 C   0  0  0  0  0  0  0  0  0  0  0  0
    2.0347   -0.8507   -0.5570 C   0  0  0  0  0  0  0  0  0  0  0  0
    1.5034   -0.5745   -1.7917 C   0  0  0  0  0  0  0  0  0  0  0  0
    2.0188    0.4051   -2.6265 C   0  0  0  0  0  0  0  0  0  0  0  0
    3.1063    1.1596   -2.2478 C   0  0  0  0  0  0  0  0  0  0  0  0
    3.6754    0.9145   -1.0060 C   0  0  0  0  0  0  0  0  0  0  0  0
    4.8094    1.6663   -0.5411 N   0  0  0  0  0  0  0  0  0  0  0  0
    6.0884    1.3433   -0.6600 C   0  0  0  0  0  0  0  0  0  0  0  0
    6.8828    2.3342   -0.0747 C   0  0  0  0  0  0  0  0  0  0  0  0
    5.9932    3.2736    0.4019 C   0  0  0  0  0  0  0  0  0  0  0  0
    4.7641    2.8317    0.0995 N   0  0  0  0  0  0  0  0  0  0  0  0
    3.1433   -0.0574   -0.2089 C   0  0  0  0  0  0  0  0  0  0  0  0
   -3.3533    0.5977    2.1941 N   0  0  0  0  0  0  0  0  0  0  0  0
   -6.1242    1.8369    3.4443 H   0  0  0  0  0  0  0  0  0  0  0  0
   -4.8599    0.8737    4.2991 H   0  0  0  0  0  0  0  0  0  0  0  0
   -6.1852    0.0180    3.4542 H   0  0  0  0  0  0  0  0  0  0  0  0
   -6.2869    1.4244    0.9540 H   0  0  0  0  0  0  0  0  0  0  0  0
   -4.9240    1.4140   -1.1485 H   0  0  0  0  0  0  0  0  0  0  0  0
   -0.3898    1.9050   -3.7219 H   0  0  0  0  0  0  0  0  0  0  0  0
   -1.7986   -0.3064   -4.3423 H   0  0  0  0  0  0  0  0  0  0  0  0
   -2.6759   -1.8934    0.9570 H   0  0  0  0  0  0  0  0  0  0  0  0
   -1.7488   -1.9422   -0.5560 H   0  0  0  0  0  0  0  0  0  0  0  0
   -0.9605   -4.0377   -0.1341 H   0  0  0  0  0  0  0  0  0  0  0  0
   -2.1997   -4.0676    1.1046 H   0  0  0  0  0  0  0  0  0  0  0  0
   -0.3634   -2.2680    3.1421 H   0  0  0  0  0  0  0  0  0  0  0  0
    1.2383   -3.0499    2.8282 H   0  0  0  0  0  0  0  0  0  0  0  0
    1.0808   -0.7826    2.0909 H   0  0  0  0  0  0  0  0  0  0  0  0
    1.0941   -2.6853   -0.2741 H   0  0  0  0  0  0  0  0  0  0  0  0
    2.4486   -2.3571    0.9074 H   0  0  0  0  0  0  0  0  0  0  0  0
    0.6429   -1.1499   -2.1268 H   0  0  0  0  0  0  0  0  0  0  0  0
    1.6095    0.6264   -3.6049 H   0  0  0  0  0  0  0  0  0  0  0  0
    3.5399    1.9324   -2.8575 H   0  0  0  0  0  0  0  0  0  0  0  0
    6.4636    0.4382   -1.1428 H   0  0  0  0  0  0  0  0  0  0  0  0
    7.9513    2.3632   -0.0037 H   0  0  0  0  0  0  0  0  0  0  0  0
    6.2912    4.1833    0.9196 H   0  0  0  0  0  0  0  0  0  0  0  0
    3.5872   -0.2611    0.7752 H   0  0  0  0  0  0  0  0  0  0  0  0
  1  2  1  0
  2  3  2  0
  3  4  1  0
  4  5  2  0
  5  6  1  0
  6  7  1  0
  7  8  2  0
  8  9  1  0
  9 10  2  0
  5 11  1  0
 11 12  1  0
 12 13  2  0
 12 14  1  0
 14 15  1  0
 15 16  1  0
 16 17  1  0
 17 18  1  0
 18 19  1  0
 19 20  1  0
 20 21  1  0
 21 22  2  0
 22 23  1  0
 23 24  2  0
 24 25  1  0
 25 26  1  0
 26 27  1  0
 27 28  2  0
 28 29  1  0
 29 30  2  0
 25 31  2  0
 11 32  2  0
 32  2  1  0
 10  6  1  0
 19 14  1  0
 31 21  1  0
 30 26  1  0
  1 33  1  0
  1 34  1  0
  1 35  1  0
  3 36  1  0
  4 37  1  0
  8 38  1  0
  9 39  1  0
 15 40  1  0
 15 41  1  0
 16 42  1  0
 16 43  1  0
 18 44  1  0
 18 45  1  0
 19 46  1  1
 20 47  1  0
 20 48  1  0
 22 49  1  0
 23 50  1  0
 24 51  1  0
 27 52  1  0
 28 53  1  0
 29 54  1  0
 31 55  1  0
M  END
$$$$
