
     RDKit          3D

 30 32  0  0  0  0  0  0  0  0999 V2000
   -2.3420   -2.3363   -0.0828 C   0  0  0  0  0  0  0  0  0  0  0  0
   -2.6571   -0.8961   -0.0151 C   0  0  0  0  0  0  0  0  0  0  0  0
   -3.9661   -0.4949    0.0082 C   0  0  0  0  0  0  0  0  0  0  0  0
   -4.2687    0.8332    0.0707 C   0  0  0  0  0  0  0  0  0  0  0  0
   -3.2426    1.7555    0.1096 C   0  0  0  0  0  0  0  0  0  0  0  0
   -1.9093    1.3706    0.0870 C   0  0  0  0  0  0  0  0  0  0  0  0
   -0.9018    2.3075    0.1266 C   0  0  0  0  0  0  0  0  0  0  0  0
   -1.1652    3.5292    0.1840 O   0  0  0  0  0  0  0  0  0  0  0  0
    0.3817    1.8400    0.1004 N   0  0  0  0  0  0  0  0  0  0  0  0
    0.6957    0.5503    0.0396 C   0  0  0  0  0  0  0  0  0  0  0  0
    2.0793    0.0723    0.0126 C   0  0  0  0  0  0  0  0  0  0  0  0
    3.1424    0.9309    0.0484 C   0  0  0  0  0  0  0  0  0  0  0  0
    4.4757    0.5026    0.0238 C   0  0  0  0  0  0  0  0  0  0  0  0
    4.6759   -0.8580   -0.0398 C   0  0  0  0  0  0  0  0  0  0  0  0
    6.4679   -1.5007   -0.0759 Br  0  0  0  0  0  0  0  0  0  0  0  0
    3.6394   -1.7639   -0.0779 C   0  0  0  0  0  0  0  0  0  0  0  0
    2.3480   -1.2959   -0.0516 C   0  0  0  0  0  0  0  0  0  0  0  0
   -0.3353   -0.3329    0.0026 N   0  0  0  0  0  0  0  0  0  0  0  0
   -1.6200    0.0261    0.0238 C   0  0  0  0  0  0  0  0  0  0  0  0
   -1.9364   -2.6836    0.8658 H   0  0  0  0  0  0  0  0  0  0  0  0
   -1.5627   -2.4631   -0.8642 H   0  0  0  0  0  0  0  0  0  0  0  0
   -3.2278   -2.9095   -0.4330 H   0  0  0  0  0  0  0  0  0  0  0  0
   -4.8019   -1.1917   -0.0209 H   0  0  0  0  0  0  0  0  0  0  0  0
   -5.3009    1.1711    0.0900 H   0  0  0  0  0  0  0  0  0  0  0  0
   -3.4210    2.8271    0.1598 H   0  0  0  0  0  0  0  0  0  0  0  0
    1.1028    2.5849    0.1322 H   0  0  0  0  0  0  0  0  0  0  0  0
    2.9886    1.9955    0.0981 H   0  0  0  0  0  0  0  0  0  0  0  0
    5.2965    1.2133    0.0537 H   0  0  0  0  0  0  0  0  0  0  0  0
    3.8645   -2.8262   -0.1278 H   0  0  0  0  0  0  0  0  0  0  0  0
    1.5003   -1.9572   -0.0791 H   0  0  0  0  0  0  0  0  0  0  0  0
  1  2  1  0
  2  3  2  0
  3  4  1  0
  4  5  2  0
  5  6  1  0
  6  7  1  0
  7  8  2  0
  7  9  1  0
  9 10  1  0
 10 11  1  0
 11 12  2  0
 12 13  1  0
 13 14  2  0
 14 15  1  0
 14 16  1  0
 16 17  2  0
 10 18  2  0
 18 19  1  0
 19  2  1  0
 19  6  2  0
 17 11  1  0
  1 20  1  0
  1 21  1  0
  1 22  1  0
  3 23  1  0
  4 24  1  0
  5 25  1  0
  9 26  1  0
 12 27  1  0
 13 28  1  0
 16 29  1  0
 17 30  1  0
M  END
$$$$
