
     RDKit          3D

 50 52  0  0  0  0  0  0  0  0999 V2000
    7.9709   -1.6973    2.2984 C   0  0  0  0  0  0  0  0  0  0  0  0
    7.1549   -2.3100    1.3187 O   0  0  0  0  0  0  0  0  0  0  0  0
    5.9779   -1.6738    0.9172 C   0  0  0  0  0  0  0  0  0  0  0  0
    5.1573   -2.2551   -0.0446 C   0  0  0  0  0  0  0  0  0  0  0  0
    4.0230   -1.6122   -0.4117 N   0  0  0  0  0  0  0  0  0  0  0  0
    3.6658   -0.4324    0.1230 C   0  0  0  0  0  0  0  0  0  0  0  0
    2.4310    0.2377   -0.2951 C   0  0  0  0  0  0  0  0  0  0  0  0
    2.1070    1.3323    0.2072 O   0  0  0  0  0  0  0  0  0  0  0  0
    1.5632   -0.3125   -1.2690 N   0  0  0  0  0  0  0  0  0  0  0  0
    0.3761    0.3750   -1.6416 C   0  0  0  0  0  0  0  0  0  0  0  0
    0.3391    1.2920   -2.6715 C   0  0  0  0  0  0  0  0  0  0  0  0
   -0.7886    1.9722   -3.0563 C   0  0  0  0  0  0  0  0  0  0  0  0
   -0.8092    2.8688   -4.0687 F   0  0  0  0  0  0  0  0  0  0  0  0
   -1.9568    1.7012   -2.3457 C   0  0  0  0  0  0  0  0  0  0  0  0
   -3.0763    2.3873   -2.7480 F   0  0  0  0  0  0  0  0  0  0  0  0
   -1.9967    0.7993   -1.3064 C   0  0  0  0  0  0  0  0  0  0  0  0
   -3.2787    0.5775   -0.5980 C   0  0  2  0  0  0  0  0  0  0  0  0
   -3.6994    1.8666    0.0418 C   0  0  0  0  0  0  0  0  0  0  0  0
   -3.1641   -0.5199    0.4446 C   0  0  0  0  0  0  0  0  0  0  0  0
   -4.4764   -1.0346    0.9208 C   0  0  1  0  0  0  0  0  0  0  0  0
   -4.8321   -0.6414    2.3380 C   0  0  0  0  0  0  0  0  0  0  0  0
   -6.0858   -1.2267    2.5753 F   0  0  0  0  0  0  0  0  0  0  0  0
   -5.0114    0.7005    2.5152 F   0  0  0  0  0  0  0  0  0  0  0  0
   -3.9666   -1.1511    3.2638 F   0  0  0  0  0  0  0  0  0  0  0  0
   -5.5472   -0.6951    0.0829 O   0  0  0  0  0  0  0  0  0  0  0  0
   -5.3114   -0.5011   -1.2665 C   0  0  0  0  0  0  0  0  0  0  0  0
   -6.2599   -0.9729   -2.2188 N   0  0  0  0  0  0  0  0  0  0  0  0
   -4.2292    0.1065   -1.6057 N   0  0  0  0  0  0  0  0  0  0  0  0
   -0.8314    0.1513   -0.9711 C   0  0  0  0  0  0  0  0  0  0  0  0
    4.4674    0.1556    1.0759 C   0  0  0  0  0  0  0  0  0  0  0  0
    4.1018    1.4768    1.6981 C   0  0  0  0  0  0  0  0  0  0  0  0
    5.5905   -0.4933    1.4312 N   0  0  0  0  0  0  0  0  0  0  0  0
    9.0337   -1.8638    1.9795 H   0  0  0  0  0  0  0  0  0  0  0  0
    7.8246   -0.6048    2.3300 H   0  0  0  0  0  0  0  0  0  0  0  0
    7.7889   -2.1722    3.2901 H   0  0  0  0  0  0  0  0  0  0  0  0
    5.4567   -3.1993   -0.4632 H   0  0  0  0  0  0  0  0  0  0  0  0
    1.7670   -1.2182   -1.7300 H   0  0  0  0  0  0  0  0  0  0  0  0
    1.2657    1.4755   -3.1996 H   0  0  0  0  0  0  0  0  0  0  0  0
   -3.3615    2.7811   -0.5251 H   0  0  0  0  0  0  0  0  0  0  0  0
   -4.7972    1.9846    0.1358 H   0  0  0  0  0  0  0  0  0  0  0  0
   -3.1770    1.9848    1.0373 H   0  0  0  0  0  0  0  0  0  0  0  0
   -2.4974   -0.2464    1.2631 H   0  0  0  0  0  0  0  0  0  0  0  0
   -2.6472   -1.3659   -0.1008 H   0  0  0  0  0  0  0  0  0  0  0  0
   -4.4370   -2.1609    0.9358 H   0  0  0  0  0  0  0  0  0  0  0  0
   -7.0218   -0.3746   -2.6039 H   0  0  0  0  0  0  0  0  0  0  0  0
   -6.1969   -1.9581   -2.5506 H   0  0  0  0  0  0  0  0  0  0  0  0
   -0.8022   -0.5634   -0.1645 H   0  0  0  0  0  0  0  0  0  0  0  0
    4.1058    2.2931    0.9387 H   0  0  0  0  0  0  0  0  0  0  0  0
    4.9146    1.7382    2.4123 H   0  0  0  0  0  0  0  0  0  0  0  0
    3.1766    1.4218    2.2815 H   0  0  0  0  0  0  0  0  0  0  0  0
  1  2  1  0
  2  3  1  0
  3  4  2  0
  4  5  1  0
  5  6  2  0
  6  7  1  0
  7  8  2  0
  7  9  1  0
  9 10  1  0
 10 11  2  0
 11 12  1  0
 12 13  1  0
 12 14  2  0
 14 15  1  0
 14 16  1  0
 16 17  1  0
 17 18  1  1
 17 19  1  0
 19 20  1  0
 20 21  1  0
 21 22  1  0
 21 23  1  0
 21 24  1  0
 20 25  1  0
 25 26  1  0
 26 27  1  0
 26 28  2  0
 16 29  2  0
  6 30  1  0
 30 31  1  0
 30 32  2  0
 32  3  1  0
 29 10  1  0
 28 17  1  0
  1 33  1  0
  1 34  1  0
  1 35  1  0
  4 36  1  0
  9 37  1  0
 11 38  1  0
 18 39  1  0
 18 40  1  0
 18 41  1  0
 19 42  1  0
 19 43  1  0
 20 44  1  1
 27 45  1  0
 27 46  1  0
 29 47  1  0
 31 48  1  0
 31 49  1  0
 31 50  1  0
M  END
$$$$
