
     RDKit          3D

 62 66  0  0  0  0  0  0  0  0999 V2000
   -7.3414    1.7942    0.3270 C   0  0  0  0  0  0  0  0  0  0  0  0
   -6.9176    0.3412    0.2838 C   0  0  0  0  0  0  0  0  0  0  0  0
   -7.6319   -0.3918    1.3867 C   0  0  0  0  0  0  0  0  0  0  0  0
   -7.2916   -0.1863   -1.0889 C   0  0  0  0  0  0  0  0  0  0  0  0
   -5.4332    0.3012    0.4810 C   0  0  0  0  0  0  0  0  0  0  0  0
   -4.8644    0.2030    1.7226 C   0  0  0  0  0  0  0  0  0  0  0  0
   -3.4870    0.1668    1.8910 C   0  0  0  0  0  0  0  0  0  0  0  0
   -2.6280    0.2294    0.7971 C   0  0  0  0  0  0  0  0  0  0  0  0
   -1.2291    0.1949    0.9324 N   0  0  0  0  0  0  0  0  0  0  0  0
   -0.3351    1.1734    0.6652 C   0  0  0  0  0  0  0  0  0  0  0  0
   -0.7823    2.4737    0.1932 C   0  0  0  0  0  0  0  0  0  0  0  0
   -1.9898    2.7547   -0.0223 O   0  0  0  0  0  0  0  0  0  0  0  0
    0.1201    3.4927   -0.0452 O   0  0  0  0  0  0  0  0  0  0  0  0
    0.9333    0.7110    0.9376 C   0  0  0  0  0  0  0  0  0  0  0  0
    2.0928    1.4179    0.7813 O   0  0  0  0  0  0  0  0  0  0  0  0
    2.9151    1.2444   -0.3318 C   0  0  0  0  0  0  0  0  0  0  0  0
    2.6762    1.7786   -1.5700 C   0  0  0  0  0  0  0  0  0  0  0  0
    3.5632    1.5458   -2.6138 C   0  0  0  0  0  0  0  0  0  0  0  0
    4.6968    0.7813   -2.4435 C   0  0  0  0  0  0  0  0  0  0  0  0
    4.9538    0.2349   -1.2022 C   0  0  0  0  0  0  0  0  0  0  0  0
    6.1505   -0.5832   -0.9874 C   0  0  0  0  0  0  0  0  0  0  0  0
    7.0921   -0.8838   -1.9242 C   0  0  0  0  0  0  0  0  0  0  0  0
    8.0370   -1.6742   -1.2890 C   0  0  0  0  0  0  0  0  0  0  0  0
    9.2686   -2.2691   -1.8644 C   0  0  0  0  0  0  0  0  0  0  0  0
    9.8051   -1.3860   -2.7753 F   0  0  0  0  0  0  0  0  0  0  0  0
    9.0053   -3.4702   -2.4996 F   0  0  0  0  0  0  0  0  0  0  0  0
   10.2031   -2.4947   -0.8722 F   0  0  0  0  0  0  0  0  0  0  0  0
    7.6503   -1.8388    0.0238 C   0  0  0  0  0  0  0  0  0  0  0  0
    6.5010   -1.1584    0.1570 N   0  0  0  0  0  0  0  0  0  0  0  0
    4.0717    0.4751   -0.1907 C   0  0  0  0  0  0  0  0  0  0  0  0
    0.7948   -0.6079    1.3932 C   0  0  0  0  0  0  0  0  0  0  0  0
    1.6898   -1.5776    1.8178 C   0  0  0  0  0  0  0  0  0  0  0  0
    1.2646   -2.8252    2.2248 C   0  0  0  0  0  0  0  0  0  0  0  0
   -0.0928   -3.0653    2.1906 C   0  0  0  0  0  0  0  0  0  0  0  0
   -0.6264   -4.6567    2.7102 Cl  0  0  0  0  0  0  0  0  0  0  0  0
   -0.9440   -2.1221    1.7796 N   0  0  0  0  0  0  0  0  0  0  0  0
   -0.5560   -0.8810    1.3718 C   0  0  0  0  0  0  0  0  0  0  0  0
   -3.2423    0.3273   -0.4286 C   0  0  0  0  0  0  0  0  0  0  0  0
   -4.6046    0.3644   -0.6143 C   0  0  0  0  0  0  0  0  0  0  0  0
   -7.2748    2.2026   -0.7021 H   0  0  0  0  0  0  0  0  0  0  0  0
   -6.6434    2.3964    0.9458 H   0  0  0  0  0  0  0  0  0  0  0  0
   -8.3895    1.8690    0.6815 H   0  0  0  0  0  0  0  0  0  0  0  0
   -7.2153   -1.4152    1.5500 H   0  0  0  0  0  0  0  0  0  0  0  0
   -8.6910   -0.5281    1.0722 H   0  0  0  0  0  0  0  0  0  0  0  0
   -7.6389    0.2242    2.2867 H   0  0  0  0  0  0  0  0  0  0  0  0
   -8.3248   -0.5484   -1.1223 H   0  0  0  0  0  0  0  0  0  0  0  0
   -7.1867    0.5883   -1.8766 H   0  0  0  0  0  0  0  0  0  0  0  0
   -6.5767   -1.0063   -1.3710 H   0  0  0  0  0  0  0  0  0  0  0  0
   -5.5377    0.1535    2.5854 H   0  0  0  0  0  0  0  0  0  0  0  0
   -3.1151    0.0898    2.8811 H   0  0  0  0  0  0  0  0  0  0  0  0
    0.0052    4.1459   -0.8244 H   0  0  0  0  0  0  0  0  0  0  0  0
    1.8031    2.3810   -1.7598 H   0  0  0  0  0  0  0  0  0  0  0  0
    3.3285    1.9934   -3.5812 H   0  0  0  0  0  0  0  0  0  0  0  0
    5.3710    0.6110   -3.2590 H   0  0  0  0  0  0  0  0  0  0  0  0
    7.1214   -0.5835   -2.9513 H   0  0  0  0  0  0  0  0  0  0  0  0
    8.1536   -2.3964    0.8024 H   0  0  0  0  0  0  0  0  0  0  0  0
    5.9822   -1.1154    1.0685 H   0  0  0  0  0  0  0  0  0  0  0  0
    4.2820    0.0514    0.7943 H   0  0  0  0  0  0  0  0  0  0  0  0
    2.7376   -1.3497    1.8333 H   0  0  0  0  0  0  0  0  0  0  0  0
    1.9874   -3.5731    2.5550 H   0  0  0  0  0  0  0  0  0  0  0  0
   -2.6150    0.3782   -1.3005 H   0  0  0  0  0  0  0  0  0  0  0  0
   -5.0507    0.4432   -1.6126 H   0  0  0  0  0  0  0  0  0  0  0  0
  1  2  1  0
  2  3  1  0
  2  4  1  0
  2  5  1  0
  5  6  2  0
  6  7  1  0
  7  8  2  0
  8  9  1  0
  9 10  1  0
 10 11  1  0
 11 12  2  0
 11 13  1  0
 10 14  2  0
 14 15  1  0
 15 16  1  0
 16 17  2  0
 17 18  1  0
 18 19  2  0
 19 20  1  0
 20 21  1  0
 21 22  2  0
 22 23  1  0
 23 24  1  0
 24 25  1  0
 24 26  1  0
 24 27  1  0
 23 28  2  0
 28 29  1  0
 20 30  2  0
 14 31  1  0
 31 32  2  0
 32 33  1  0
 33 34  2  0
 34 35  1  0
 34 36  1  0
 36 37  2  0
  8 38  1  0
 38 39  2  0
 39  5  1  0
 37  9  1  0
 30 16  1  0
 37 31  1  0
 29 21  1  0
  1 40  1  0
  1 41  1  0
  1 42  1  0
  3 43  1  0
  3 44  1  0
  3 45  1  0
  4 46  1  0
  4 47  1  0
  4 48  1  0
  6 49  1  0
  7 50  1  0
 13 51  1  0
 17 52  1  0
 18 53  1  0
 19 54  1  0
 22 55  1  0
 28 56  1  0
 29 57  1  0
 30 58  1  0
 32 59  1  0
 33 60  1  0
 38 61  1  0
 39 62  1  0
M  END
$$$$
