
     RDKit          3D

 56 60  0  0  0  0  0  0  0  0999 V2000
   -2.6019   -1.6396    3.4331 N   0  0  0  0  0  0  0  0  0  0  0  0
   -1.8995   -1.1917    2.2642 C   0  0  0  0  0  0  0  0  0  0  0  0
   -1.4309   -0.0112    2.0798 N   0  0  0  0  0  0  0  0  0  0  0  0
   -0.7724    0.1234    0.7929 C   0  0  0  0  0  0  0  0  0  0  0  0
   -1.4452    1.1781   -0.0209 C   0  0  0  0  0  0  0  0  0  0  0  0
   -2.5095    1.8882    0.4897 C   0  0  0  0  0  0  0  0  0  0  0  0
   -3.1467    2.8780   -0.2592 C   0  0  0  0  0  0  0  0  0  0  0  0
   -2.6845    3.1370   -1.5410 C   0  0  0  0  0  0  0  0  0  0  0  0
   -3.3030    4.1278   -2.3243 O   0  0  0  0  0  0  0  0  0  0  0  0
   -2.8642    5.4722   -2.2920 C   0  0  0  0  0  0  0  0  0  0  0  0
   -2.9811    5.9749   -1.0080 F   0  0  0  0  0  0  0  0  0  0  0  0
   -3.6766    6.2021   -3.1378 F   0  0  0  0  0  0  0  0  0  0  0  0
   -1.5720    5.6344   -2.7061 F   0  0  0  0  0  0  0  0  0  0  0  0
   -1.6164    2.4050   -2.0174 C   0  0  0  0  0  0  0  0  0  0  0  0
   -0.9785    1.4248   -1.2873 C   0  0  0  0  0  0  0  0  0  0  0  0
    0.6219    0.5564    0.9912 C   0  0  0  0  0  0  0  0  0  0  0  0
    0.7722    1.6967    1.7868 C   0  0  0  0  0  0  0  0  0  0  0  0
    2.0408    2.1710    2.0238 C   0  0  0  0  0  0  0  0  0  0  0  0
    3.1511    1.5318    1.4845 C   0  0  0  0  0  0  0  0  0  0  0  0
    2.9967    0.4002    0.6950 C   0  0  0  0  0  0  0  0  0  0  0  0
    4.1887   -0.2432    0.1445 C   0  0  0  0  0  0  0  0  0  0  0  0
    5.3079   -0.4728    0.9523 C   0  0  0  0  0  0  0  0  0  0  0  0
    6.3854   -1.0836    0.3492 C   0  0  0  0  0  0  0  0  0  0  0  0
    6.3837   -1.4600   -0.9879 C   0  0  0  0  0  0  0  0  0  0  0  0
    5.2749   -1.2085   -1.7028 N   0  0  0  0  0  0  0  0  0  0  0  0
    4.1777   -0.6133   -1.1831 C   0  0  0  0  0  0  0  0  0  0  0  0
    3.0744   -0.3708   -1.9262 F   0  0  0  0  0  0  0  0  0  0  0  0
    1.7252   -0.0503    0.4756 C   0  0  0  0  0  0  0  0  0  0  0  0
   -0.9104   -1.2091    0.1578 C   0  0  0  0  0  0  0  0  0  0  0  0
   -0.4891   -1.5738   -1.0073 N   0  0  0  0  0  0  0  0  0  0  0  0
   -0.6714   -2.9237   -1.5579 C   0  0  0  0  0  0  0  0  0  0  0  0
   -2.0953   -3.3512   -1.6035 C   0  0  0  0  0  0  0  0  0  0  0  0
   -2.8051   -3.5039   -0.3227 C   0  0  0  0  0  0  0  0  0  0  0  0
   -1.9830   -3.3967    0.9283 C   0  0  0  0  0  0  0  0  0  0  0  0
   -1.6261   -2.0010    1.1319 N   0  0  0  0  0  0  0  0  0  0  0  0
   -2.0549   -1.9849    4.2726 H   0  0  0  0  0  0  0  0  0  0  0  0
   -3.6494   -1.6382    3.4878 H   0  0  0  0  0  0  0  0  0  0  0  0
   -2.8878    1.6942    1.5050 H   0  0  0  0  0  0  0  0  0  0  0  0
   -3.9744    3.4318    0.1348 H   0  0  0  0  0  0  0  0  0  0  0  0
   -1.2433    2.6039   -3.0317 H   0  0  0  0  0  0  0  0  0  0  0  0
   -0.1328    0.8817   -1.7310 H   0  0  0  0  0  0  0  0  0  0  0  0
   -0.0533    2.2289    2.2277 H   0  0  0  0  0  0  0  0  0  0  0  0
    2.1894    3.0547    2.6383 H   0  0  0  0  0  0  0  0  0  0  0  0
    4.1295    1.9112    1.6767 H   0  0  0  0  0  0  0  0  0  0  0  0
    5.3059   -0.1788    1.9924 H   0  0  0  0  0  0  0  0  0  0  0  0
    7.2782   -1.2761    0.9595 H   0  0  0  0  0  0  0  0  0  0  0  0
    7.2635   -1.9322   -1.3875 H   0  0  0  0  0  0  0  0  0  0  0  0
    1.5970   -0.9308   -0.1348 H   0  0  0  0  0  0  0  0  0  0  0  0
   -0.0154   -3.6480   -1.0175 H   0  0  0  0  0  0  0  0  0  0  0  0
   -0.2985   -2.8755   -2.6019 H   0  0  0  0  0  0  0  0  0  0  0  0
   -2.1290   -4.3042   -2.1708 H   0  0  0  0  0  0  0  0  0  0  0  0
   -2.6313   -2.6104   -2.2659 H   0  0  0  0  0  0  0  0  0  0  0  0
   -3.6062   -2.7113   -0.2355 H   0  0  0  0  0  0  0  0  0  0  0  0
   -3.3878   -4.4689   -0.3127 H   0  0  0  0  0  0  0  0  0  0  0  0
   -2.6415   -3.6929    1.7755 H   0  0  0  0  0  0  0  0  0  0  0  0
   -1.0954   -4.0516    0.9236 H   0  0  0  0  0  0  0  0  0  0  0  0
  1  2  1  0
  2  3  2  0
  3  4  1  0
  4  5  1  0
  5  6  2  0
  6  7  1  0
  7  8  2  0
  8  9  1  0
  9 10  1  0
 10 11  1  0
 10 12  1  0
 10 13  1  0
  8 14  1  0
 14 15  2  0
  4 16  1  0
 16 17  2  0
 17 18  1  0
 18 19  2  0
 19 20  1  0
 20 21  1  0
 21 22  2  0
 22 23  1  0
 23 24  2  0
 24 25  1  0
 25 26  2  0
 26 27  1  0
 20 28  2  0
  4 29  1  0
 29 30  2  0
 30 31  1  0
 31 32  1  0
 32 33  1  0
 33 34  1  0
 34 35  1  0
 35  2  1  0
 15  5  1  0
 28 16  1  0
 35 29  1  0
 26 21  1  0
  1 36  1  0
  1 37  1  0
  6 38  1  0
  7 39  1  0
 14 40  1  0
 15 41  1  0
 17 42  1  0
 18 43  1  0
 19 44  1  0
 22 45  1  0
 23 46  1  0
 24 47  1  0
 28 48  1  0
 31 49  1  0
 31 50  1  0
 32 51  1  0
 32 52  1  0
 33 53  1  0
 33 54  1  0
 34 55  1  0
 34 56  1  0
M  END
$$$$
