
     RDKit          3D

 57 61  0  0  0  0  0  0  0  0999 V2000
   -6.5967    0.8790    1.2142 C   0  0  0  0  0  0  0  0  0  0  0  0
   -7.4391    0.2110    0.1714 C   0  0  0  0  0  0  0  0  0  0  0  0
   -7.7519    1.2441   -0.8909 C   0  0  0  0  0  0  0  0  0  0  0  0
   -8.6108   -0.2460    0.7565 O   0  0  0  0  0  0  0  0  0  0  0  0
   -6.7113   -0.9763   -0.4267 C   0  0  0  0  0  0  0  0  0  0  0  0
   -5.4636   -0.5036   -1.0425 N   0  0  0  0  0  0  0  0  0  0  0  0
   -4.2813   -0.4143   -0.4079 C   0  0  0  0  0  0  0  0  0  0  0  0
   -3.3389    0.0732   -1.2993 C   0  0  0  0  0  0  0  0  0  0  0  0
   -1.9159    0.3265   -1.0208 C   0  0  0  0  0  0  0  0  0  0  0  0
   -1.2810    0.1103    0.1346 N   0  0  0  0  0  0  0  0  0  0  0  0
    0.0283    0.4681    0.0029 C   0  0  0  0  0  0  0  0  0  0  0  0
    1.0543    0.3689    1.0708 C   0  0  0  0  0  0  0  0  0  0  0  0
    2.4475    0.2182    0.6336 C   0  0  0  0  0  0  0  0  0  0  0  0
    3.3530    1.2688    0.7540 C   0  0  0  0  0  0  0  0  0  0  0  0
    4.6557    1.1261    0.3385 C   0  0  0  0  0  0  0  0  0  0  0  0
    5.1351   -0.0546   -0.2159 C   0  0  0  0  0  0  0  0  0  0  0  0
    6.5269   -0.1711   -0.6537 C   0  0  0  0  0  0  0  0  0  0  0  0
    7.1781    0.9477   -1.1429 C   0  0  0  0  0  0  0  0  0  0  0  0
    8.4546    0.8678   -1.5516 N   0  0  0  0  0  0  0  0  0  0  0  0
    9.1709   -0.2719   -1.5159 C   0  0  0  0  0  0  0  0  0  0  0  0
   10.5243   -0.3264   -1.9571 N   0  0  0  0  0  0  0  0  0  0  0  0
    8.5400   -1.3629   -1.0404 N   0  0  0  0  0  0  0  0  0  0  0  0
    7.2561   -1.3385   -0.6157 C   0  0  0  0  0  0  0  0  0  0  0  0
    4.2378   -1.0902   -0.3329 C   0  0  0  0  0  0  0  0  0  0  0  0
    2.9154   -0.9509    0.0868 C   0  0  0  0  0  0  0  0  0  0  0  0
    0.6473   -0.6520    2.1345 C   0  0  0  0  0  0  0  0  0  0  0  0
   -0.1222    0.4733    2.8072 C   0  0  0  0  0  0  0  0  0  0  0  0
    0.8210    1.4421    2.1152 C   0  0  0  0  0  0  0  0  0  0  0  0
    0.1427    0.8989   -1.2599 N   0  0  0  0  0  0  0  0  0  0  0  0
   -1.0260    0.8049   -1.8480 O   0  0  0  0  0  0  0  0  0  0  0  0
   -4.0019    0.2690   -2.4815 C   0  0  0  0  0  0  0  0  0  0  0  0
   -5.2796   -0.0935   -2.2751 N   0  0  0  0  0  0  0  0  0  0  0  0
   -5.6456    1.2686    0.7935 H   0  0  0  0  0  0  0  0  0  0  0  0
   -7.1567    1.6824    1.6994 H   0  0  0  0  0  0  0  0  0  0  0  0
   -6.3086    0.1638    2.0325 H   0  0  0  0  0  0  0  0  0  0  0  0
   -6.7948    1.5917   -1.3430 H   0  0  0  0  0  0  0  0  0  0  0  0
   -8.3579    0.7636   -1.6805 H   0  0  0  0  0  0  0  0  0  0  0  0
   -8.2423    2.0950   -0.3958 H   0  0  0  0  0  0  0  0  0  0  0  0
   -8.4023   -0.6966    1.6294 H   0  0  0  0  0  0  0  0  0  0  0  0
   -7.3170   -1.5048   -1.1651 H   0  0  0  0  0  0  0  0  0  0  0  0
   -6.4355   -1.6435    0.4185 H   0  0  0  0  0  0  0  0  0  0  0  0
   -4.0666   -0.6741    0.6368 H   0  0  0  0  0  0  0  0  0  0  0  0
    2.9855    2.1939    1.1865 H   0  0  0  0  0  0  0  0  0  0  0  0
    5.3674    1.9342    0.4279 H   0  0  0  0  0  0  0  0  0  0  0  0
    6.6127    1.8815   -1.1795 H   0  0  0  0  0  0  0  0  0  0  0  0
   11.2941   -0.5817   -1.3057 H   0  0  0  0  0  0  0  0  0  0  0  0
   10.7805   -0.1127   -2.9420 H   0  0  0  0  0  0  0  0  0  0  0  0
    6.7709   -2.2204   -0.2389 H   0  0  0  0  0  0  0  0  0  0  0  0
    4.5779   -2.0311   -0.7630 H   0  0  0  0  0  0  0  0  0  0  0  0
    2.2139   -1.7731   -0.0097 H   0  0  0  0  0  0  0  0  0  0  0  0
    1.5134   -0.9547    2.7576 H   0  0  0  0  0  0  0  0  0  0  0  0
    0.0002   -1.4396    1.7543 H   0  0  0  0  0  0  0  0  0  0  0  0
   -1.1447    0.6121    2.4593 H   0  0  0  0  0  0  0  0  0  0  0  0
    0.0146    0.4671    3.9272 H   0  0  0  0  0  0  0  0  0  0  0  0
    1.6869    1.6414    2.7757 H   0  0  0  0  0  0  0  0  0  0  0  0
    0.3293    2.3430    1.6890 H   0  0  0  0  0  0  0  0  0  0  0  0
   -3.5439    0.6517   -3.4056 H   0  0  0  0  0  0  0  0  0  0  0  0
  1  2  1  0
  2  3  1  0
  2  4  1  0
  2  5  1  0
  5  6  1  0
  6  7  1  0
  7  8  2  0
  8  9  1  0
  9 10  2  0
 10 11  1  0
 11 12  1  0
 12 13  1  0
 13 14  2  0
 14 15  1  0
 15 16  2  0
 16 17  1  0
 17 18  2  0
 18 19  1  0
 19 20  2  0
 20 21  1  0
 20 22  1  0
 22 23  2  0
 16 24  1  0
 24 25  2  0
 12 26  1  0
 26 27  1  0
 27 28  1  0
 11 29  2  0
 29 30  1  0
  8 31  1  0
 31 32  2  0
 32  6  1  0
 30  9  1  0
 28 12  1  0
 25 13  1  0
 23 17  1  0
  1 33  1  0
  1 34  1  0
  1 35  1  0
  3 36  1  0
  3 37  1  0
  3 38  1  0
  4 39  1  0
  5 40  1  0
  5 41  1  0
  7 42  1  0
 14 43  1  0
 15 44  1  0
 18 45  1  0
 21 46  1  0
 21 47  1  0
 23 48  1  0
 24 49  1  0
 25 50  1  0
 26 51  1  0
 26 52  1  0
 27 53  1  0
 27 54  1  0
 28 55  1  0
 28 56  1  0
 31 57  1  0
M  END
$$$$
