
     RDKit          3D

 69 71  0  0  0  0  0  0  0  0999 V2000
    6.8371   -0.3220    2.0720 C   0  0  0  0  0  0  0  0  0  0  0  0
    6.5261    0.9681    1.4980 N   0  0  0  0  0  0  0  0  0  0  0  0
    7.7840    1.4629    0.9190 C   0  0  0  0  0  0  0  0  0  0  0  0
    5.5562    0.8873    0.4388 C   0  0  0  0  0  0  0  0  0  0  0  0
    4.2172    0.4891    1.0050 C   0  0  0  0  0  0  0  0  0  0  0  0
    3.1947    0.3869   -0.0151 N   0  0  0  0  0  0  0  0  0  0  0  0
    2.9796   -0.8524   -0.6794 C   0  0  0  0  0  0  0  0  0  0  0  0
    1.4731   -1.2241   -0.7647 C   0  0  0  0  0  0  0  0  0  0  0  0
    0.7300   -0.2996   -1.5322 N   0  0  0  0  0  0  0  0  0  0  0  0
   -0.6463   -0.3369   -1.6230 C   0  0  0  0  0  0  0  0  0  0  0  0
   -1.1515    0.6124   -2.3696 O   0  0  0  0  0  0  0  0  0  0  0  0
   -1.6423   -1.2577   -1.0246 C   0  0  0  0  0  0  0  0  0  0  0  0
   -1.3881   -2.3803   -0.3251 C   0  0  0  0  0  0  0  0  0  0  0  0
   -2.3696   -3.1459    0.1572 C   0  0  0  0  0  0  0  0  0  0  0  0
   -2.3854   -4.3964    0.9412 C   0  0  0  0  0  0  0  0  0  0  0  0
   -2.3900   -5.5537   -0.0346 C   0  0  0  0  0  0  0  0  0  0  0  0
   -1.2258   -4.4292    1.8854 C   0  0  0  0  0  0  0  0  0  0  0  0
   -3.6586   -4.4649    1.7934 C   0  0  0  0  0  0  0  0  0  0  0  0
   -3.8567   -2.2874   -0.3731 S   0  0  0  0  0  0  0  0  0  0  0  0
   -2.9833   -0.9500   -1.2118 C   0  0  0  0  0  0  0  0  0  0  0  0
   -3.6324    0.1158   -1.8740 N   0  0  0  0  0  0  0  0  0  0  0  0
   -3.9408    1.2727   -1.1258 C   0  0  0  0  0  0  0  0  0  0  0  0
   -3.6288    1.3202    0.1110 O   0  0  0  0  0  0  0  0  0  0  0  0
   -4.5903    2.4159   -1.6653 N   0  0  0  0  0  0  0  0  0  0  0  0
   -4.8747    3.5492   -0.8578 C   0  0  0  0  0  0  0  0  0  0  0  0
   -6.0899    3.6037   -0.1984 C   0  0  0  0  0  0  0  0  0  0  0  0
   -6.4072    4.6855    0.5991 C   0  0  0  0  0  0  0  0  0  0  0  0
   -5.5154    5.7233    0.7464 C   0  0  0  0  0  0  0  0  0  0  0  0
   -4.3011    5.6932    0.1018 C   0  0  0  0  0  0  0  0  0  0  0  0
   -3.2118    7.0417    0.3305 Cl  0  0  0  0  0  0  0  0  0  0  0  0
   -3.9935    4.5993   -0.6977 C   0  0  0  0  0  0  0  0  0  0  0  0
   -2.4573    4.5542   -1.5179 Cl  0  0  0  0  0  0  0  0  0  0  0  0
    1.3803    0.8024   -2.3181 C   0  0  0  0  0  0  0  0  0  0  0  0
    1.5618    1.9479   -1.3636 C   0  0  0  0  0  0  0  0  0  0  0  0
    2.4786    1.6086   -0.2504 C   0  0  0  0  0  0  0  0  0  0  0  0
    2.6881    2.4781    0.6313 O   0  0  0  0  0  0  0  0  0  0  0  0
    6.8580   -1.1331    1.2916 H   0  0  0  0  0  0  0  0  0  0  0  0
    6.1752   -0.5934    2.9152 H   0  0  0  0  0  0  0  0  0  0  0  0
    7.8675   -0.2638    2.4773 H   0  0  0  0  0  0  0  0  0  0  0  0
    8.2933    0.5732    0.4947 H   0  0  0  0  0  0  0  0  0  0  0  0
    7.6174    2.2086    0.1375 H   0  0  0  0  0  0  0  0  0  0  0  0
    8.4598    1.8359    1.7321 H   0  0  0  0  0  0  0  0  0  0  0  0
    5.9316    0.1916   -0.3282 H   0  0  0  0  0  0  0  0  0  0  0  0
    5.4470    1.9157    0.0258 H   0  0  0  0  0  0  0  0  0  0  0  0
    3.9006    1.2893    1.7036 H   0  0  0  0  0  0  0  0  0  0  0  0
    4.2802   -0.4695    1.5725 H   0  0  0  0  0  0  0  0  0  0  0  0
    3.4273   -1.7235   -0.1578 H   0  0  0  0  0  0  0  0  0  0  0  0
    3.3437   -0.8041   -1.7127 H   0  0  0  0  0  0  0  0  0  0  0  0
    1.1502   -1.1894    0.2987 H   0  0  0  0  0  0  0  0  0  0  0  0
    1.4867   -2.2183   -1.2319 H   0  0  0  0  0  0  0  0  0  0  0  0
   -0.3370   -2.7342   -0.1237 H   0  0  0  0  0  0  0  0  0  0  0  0
   -1.3614   -5.8792   -0.2962 H   0  0  0  0  0  0  0  0  0  0  0  0
   -2.8691   -5.2607   -0.9910 H   0  0  0  0  0  0  0  0  0  0  0  0
   -2.9500   -6.4288    0.3419 H   0  0  0  0  0  0  0  0  0  0  0  0
   -0.4412   -5.0901    1.4503 H   0  0  0  0  0  0  0  0  0  0  0  0
   -0.8394   -3.4332    2.1552 H   0  0  0  0  0  0  0  0  0  0  0  0
   -1.5108   -4.9268    2.8500 H   0  0  0  0  0  0  0  0  0  0  0  0
   -3.4934   -5.3143    2.4960 H   0  0  0  0  0  0  0  0  0  0  0  0
   -4.5573   -4.6177    1.1780 H   0  0  0  0  0  0  0  0  0  0  0  0
   -3.7129   -3.5345    2.3996 H   0  0  0  0  0  0  0  0  0  0  0  0
   -3.8951    0.0870   -2.8950 H   0  0  0  0  0  0  0  0  0  0  0  0
   -4.8597    2.4154   -2.6705 H   0  0  0  0  0  0  0  0  0  0  0  0
   -6.8294    2.8171   -0.2779 H   0  0  0  0  0  0  0  0  0  0  0  0
   -7.3542    4.7655    1.1359 H   0  0  0  0  0  0  0  0  0  0  0  0
   -5.7628    6.5700    1.3698 H   0  0  0  0  0  0  0  0  0  0  0  0
    2.2869    0.4652   -2.8064 H   0  0  0  0  0  0  0  0  0  0  0  0
    0.6512    1.1211   -3.0942 H   0  0  0  0  0  0  0  0  0  0  0  0
    0.5411    2.2073   -0.9732 H   0  0  0  0  0  0  0  0  0  0  0  0
    1.9900    2.8337   -1.8753 H   0  0  0  0  0  0  0  0  0  0  0  0
  1  2  1  0
  2  3  1  0
  2  4  1  0
  4  5  1  0
  5  6  1  0
  6  7  1  0
  7  8  1  0
  8  9  1  0
  9 10  1  0
 10 11  2  0
 10 12  1  0
 12 13  1  0
 13 14  2  0
 14 15  1  0
 15 16  1  0
 15 17  1  0
 15 18  1  0
 14 19  1  0
 19 20  1  0
 20 21  1  0
 21 22  1  0
 22 23  2  0
 22 24  1  0
 24 25  1  0
 25 26  2  0
 26 27  1  0
 27 28  2  0
 28 29  1  0
 29 30  1  0
 29 31  2  0
 31 32  1  0
  9 33  1  0
 33 34  1  0
 34 35  1  0
 35 36  2  0
 35  6  1  0
 20 12  2  0
 31 25  1  0
  1 37  1  0
  1 38  1  0
  1 39  1  0
  3 40  1  0
  3 41  1  0
  3 42  1  0
  4 43  1  0
  4 44  1  0
  5 45  1  0
  5 46  1  0
  7 47  1  0
  7 48  1  0
  8 49  1  0
  8 50  1  0
 13 51  1  0
 16 52  1  0
 16 53  1  0
 16 54  1  0
 17 55  1  0
 17 56  1  0
 17 57  1  0
 18 58  1  0
 18 59  1  0
 18 60  1  0
 21 61  1  0
 24 62  1  0
 26 63  1  0
 27 64  1  0
 28 65  1  0
 33 66  1  0
 33 67  1  0
 34 68  1  0
 34 69  1  0
M  END
$$$$
