
     RDKit          3D

 52 55  0  0  0  0  0  0  0  0999 V2000
    9.6888    1.1552    0.3208 O   0  0  0  0  0  0  0  0  0  0  0  0
    8.5995    1.7342    0.5674 C   0  0  0  0  0  0  0  0  0  0  0  0
    8.5901    3.0292    1.0182 O   0  0  0  0  0  0  0  0  0  0  0  0
    7.3735    0.9591    0.3489 C   0  0  0  0  0  0  0  0  0  0  0  0
    6.1567    1.5542    0.6065 C   0  0  0  0  0  0  0  0  0  0  0  0
    4.9862    0.8287    0.4028 C   0  0  0  0  0  0  0  0  0  0  0  0
    5.0007   -0.4687   -0.0491 C   0  0  0  0  0  0  0  0  0  0  0  0
    3.8559   -1.1901   -0.2524 O   0  0  0  0  0  0  0  0  0  0  0  0
    2.5382   -0.7990   -0.0615 C   0  0  0  0  0  0  0  0  0  0  0  0
    1.6935   -0.9191   -1.3123 C   0  0  0  0  0  0  0  0  0  0  0  0
    0.3404   -0.2833   -0.9656 C   0  0  0  0  0  0  0  0  0  0  0  0
   -0.2546   -1.0834    0.0830 N   0  0  0  0  0  0  0  0  0  0  0  0
   -1.5665   -0.8624    0.5631 C   0  0  0  0  0  0  0  0  0  0  0  0
   -2.0272   -1.5773    1.4633 O   0  0  0  0  0  0  0  0  0  0  0  0
   -2.3306    0.1940   -0.0135 N   0  0  0  0  0  0  0  0  0  0  0  0
   -3.6764    0.4454    0.4560 C   0  0  1  0  0  0  0  0  0  0  0  0
   -4.1869    1.8418    0.5420 C   0  0  0  0  0  0  0  0  0  0  0  0
   -4.6399    0.9763   -0.5594 C   0  0  2  0  0  0  0  0  0  0  0  0
   -6.0623    0.5277   -0.4746 C   0  0  0  0  0  0  0  0  0  0  0  0
   -6.6398    0.2687    0.7366 C   0  0  0  0  0  0  0  0  0  0  0  0
   -7.9571   -0.1477    0.8265 C   0  0  0  0  0  0  0  0  0  0  0  0
   -8.6827   -0.2971   -0.3470 C   0  0  0  0  0  0  0  0  0  0  0  0
   -8.1071   -0.0382   -1.5657 C   0  0  0  0  0  0  0  0  0  0  0  0
   -6.7881    0.3769   -1.6284 C   0  0  0  0  0  0  0  0  0  0  0  0
    0.5343   -2.1501    0.6554 C   0  0  0  0  0  0  0  0  0  0  0  0
    1.9404   -1.7617    0.9742 C   0  0  0  0  0  0  0  0  0  0  0  0
    6.2220   -1.0554   -0.3040 C   0  0  0  0  0  0  0  0  0  0  0  0
    6.3511   -2.7033   -0.8827 Cl  0  0  0  0  0  0  0  0  0  0  0  0
    7.3974   -0.3391   -0.1038 C   0  0  0  0  0  0  0  0  0  0  0  0
    9.4525    3.5679    0.9428 H   0  0  0  0  0  0  0  0  0  0  0  0
    6.1573    2.5757    0.9618 H   0  0  0  0  0  0  0  0  0  0  0  0
    4.0629    1.3406    0.6193 H   0  0  0  0  0  0  0  0  0  0  0  0
    2.3916    0.2374    0.3053 H   0  0  0  0  0  0  0  0  0  0  0  0
    2.0947   -0.3265   -2.1468 H   0  0  0  0  0  0  0  0  0  0  0  0
    1.4837   -1.9483   -1.6019 H   0  0  0  0  0  0  0  0  0  0  0  0
    0.5062    0.7218   -0.5524 H   0  0  0  0  0  0  0  0  0  0  0  0
   -0.3455   -0.2999   -1.8374 H   0  0  0  0  0  0  0  0  0  0  0  0
   -1.8958    0.7568   -0.7597 H   0  0  0  0  0  0  0  0  0  0  0  0
   -4.0247   -0.2211    1.2535 H   0  0  0  0  0  0  0  0  0  0  0  0
   -3.4272    2.6514    0.3710 H   0  0  0  0  0  0  0  0  0  0  0  0
   -4.8913    2.1074    1.3555 H   0  0  0  0  0  0  0  0  0  0  0  0
   -4.2416    1.1670   -1.5753 H   0  0  0  0  0  0  0  0  0  0  0  0
   -6.0917    0.3795    1.6552 H   0  0  0  0  0  0  0  0  0  0  0  0
   -8.4068   -0.3492    1.7669 H   0  0  0  0  0  0  0  0  0  0  0  0
   -9.7184   -0.6192   -0.3569 H   0  0  0  0  0  0  0  0  0  0  0  0
   -8.6662   -0.1522   -2.4883 H   0  0  0  0  0  0  0  0  0  0  0  0
   -6.3785    0.5690   -2.6156 H   0  0  0  0  0  0  0  0  0  0  0  0
    0.0735   -2.5150    1.6175 H   0  0  0  0  0  0  0  0  0  0  0  0
    0.5464   -3.0501   -0.0042 H   0  0  0  0  0  0  0  0  0  0  0  0
    2.0648   -1.2870    1.9576 H   0  0  0  0  0  0  0  0  0  0  0  0
    2.5419   -2.7099    1.0137 H   0  0  0  0  0  0  0  0  0  0  0  0
    8.3627   -0.8112   -0.3082 H   0  0  0  0  0  0  0  0  0  0  0  0
  1  2  2  0
  2  3  1  0
  2  4  1  0
  4  5  2  0
  5  6  1  0
  6  7  2  0
  7  8  1  0
  8  9  1  0
  9 10  1  0
 10 11  1  0
 11 12  1  0
 12 13  1  0
 13 14  2  0
 13 15  1  0
 15 16  1  0
 16 17  1  0
 17 18  1  0
 18 19  1  0
 19 20  2  0
 20 21  1  0
 21 22  2  0
 22 23  1  0
 23 24  2  0
 12 25  1  0
 25 26  1  0
  7 27  1  0
 27 28  1  0
 27 29  2  0
 29  4  1  0
 26  9  1  0
 18 16  1  0
 24 19  1  0
  3 30  1  0
  5 31  1  0
  6 32  1  0
  9 33  1  0
 10 34  1  0
 10 35  1  0
 11 36  1  0
 11 37  1  0
 15 38  1  0
 16 39  1  1
 17 40  1  0
 17 41  1  0
 18 42  1  6
 20 43  1  0
 21 44  1  0
 22 45  1  0
 23 46  1  0
 24 47  1  0
 25 48  1  0
 25 49  1  0
 26 50  1  0
 26 51  1  0
 29 52  1  0
M  END
$$$$
