
     RDKit          3D

 40 43  0  0  0  0  0  0  0  0999 V2000
    7.1265    0.6182   -0.1753 C   0  0  0  0  0  0  0  0  0  0  0  0
    5.6859    0.5678   -0.2900 N   0  0  0  0  0  0  0  0  0  0  0  0
    4.8816   -0.2622    0.5305 C   0  0  0  0  0  0  0  0  0  0  0  0
    5.5021   -0.9640    1.3776 O   0  0  0  0  0  0  0  0  0  0  0  0
    3.4175   -0.3311    0.4333 C   0  0  0  0  0  0  0  0  0  0  0  0
    2.7181   -1.1791    1.2778 C   0  0  0  0  0  0  0  0  0  0  0  0
    1.3448   -1.2858    1.2329 C   0  0  0  0  0  0  0  0  0  0  0  0
    0.6107   -0.5295    0.3200 C   0  0  0  0  0  0  0  0  0  0  0  0
   -0.7792   -0.6168    0.2537 C   0  0  0  0  0  0  0  0  0  0  0  0
   -1.5128    0.1294   -0.6462 C   0  0  0  0  0  0  0  0  0  0  0  0
   -2.9679    0.0705   -0.7487 C   0  0  1  0  0  0  0  0  0  0  0  0
   -3.3679    0.8491   -1.8520 O   0  0  0  0  0  0  0  0  0  0  0  0
   -3.5091   -1.3166   -0.9447 C   0  0  0  0  0  0  0  0  0  0  0  0
   -4.8949   -1.2707   -0.3082 C   0  0  0  0  0  0  0  0  0  0  0  0
   -4.7405   -0.2385    0.7199 N   0  0  0  0  0  0  0  0  0  0  0  0
   -5.3330    0.2076    1.8430 C   0  0  0  0  0  0  0  0  0  0  0  0
   -4.6105    1.2443    2.2944 N   0  0  0  0  0  0  0  0  0  0  0  0
   -3.5727    1.4678    1.4847 C   0  0  0  0  0  0  0  0  0  0  0  0
   -3.6624    0.5185    0.4832 C   0  0  0  0  0  0  0  0  0  0  0  0
   -0.8002    0.9657   -1.4762 C   0  0  0  0  0  0  0  0  0  0  0  0
    0.5702    1.0736   -1.4347 C   0  0  0  0  0  0  0  0  0  0  0  0
    1.2935    0.3249   -0.5332 C   0  0  0  0  0  0  0  0  0  0  0  0
    2.6820    0.4055   -0.4582 C   0  0  0  0  0  0  0  0  0  0  0  0
    7.5763    0.0378   -1.0090 H   0  0  0  0  0  0  0  0  0  0  0  0
    7.5174    0.2455    0.7702 H   0  0  0  0  0  0  0  0  0  0  0  0
    7.4264    1.6858   -0.2844 H   0  0  0  0  0  0  0  0  0  0  0  0
    5.2133    1.1626   -1.0018 H   0  0  0  0  0  0  0  0  0  0  0  0
    3.3131   -1.7604    1.9834 H   0  0  0  0  0  0  0  0  0  0  0  0
    0.8106   -1.9596    1.9060 H   0  0  0  0  0  0  0  0  0  0  0  0
   -1.3079   -1.2736    0.9085 H   0  0  0  0  0  0  0  0  0  0  0  0
   -3.2854    1.8002   -1.5183 H   0  0  0  0  0  0  0  0  0  0  0  0
   -2.8558   -2.0616   -0.4763 H   0  0  0  0  0  0  0  0  0  0  0  0
   -3.5981   -1.5140   -2.0344 H   0  0  0  0  0  0  0  0  0  0  0  0
   -5.0922   -2.2603    0.1037 H   0  0  0  0  0  0  0  0  0  0  0  0
   -5.6520   -1.0171   -1.0561 H   0  0  0  0  0  0  0  0  0  0  0  0
   -6.2439   -0.1903    2.3215 H   0  0  0  0  0  0  0  0  0  0  0  0
   -2.8447    2.2417    1.6281 H   0  0  0  0  0  0  0  0  0  0  0  0
   -1.3227    1.5869   -2.2153 H   0  0  0  0  0  0  0  0  0  0  0  0
    1.0691    1.7473   -2.1119 H   0  0  0  0  0  0  0  0  0  0  0  0
    3.1949    1.0805   -1.1355 H   0  0  0  0  0  0  0  0  0  0  0  0
  1  2  1  0
  2  3  1  0
  3  4  2  0
  3  5  1  0
  5  6  2  0
  6  7  1  0
  7  8  2  0
  8  9  1  0
  9 10  2  0
 10 11  1  0
 11 12  1  6
 11 13  1  0
 13 14  1  0
 14 15  1  0
 15 16  1  0
 16 17  2  0
 17 18  1  0
 18 19  2  0
 10 20  1  0
 20 21  2  0
 21 22  1  0
 22 23  2  0
 23  5  1  0
 22  8  1  0
 19 11  1  0
 19 15  1  0
  1 24  1  0
  1 25  1  0
  1 26  1  0
  2 27  1  0
  6 28  1  0
  7 29  1  0
  9 30  1  0
 12 31  1  0
 13 32  1  0
 13 33  1  0
 14 34  1  0
 14 35  1  0
 16 36  1  0
 18 37  1  0
 20 38  1  0
 21 39  1  0
 23 40  1  0
M  END
$$$$
