
     RDKit          3D

 49 52  0  0  0  0  0  0  0  0999 V2000
    2.6281   -0.5690   -1.8531 C   0  0  0  0  0  0  0  0  0  0  0  0
    1.9203    0.2363   -0.9273 N   0  0  0  0  0  0  0  0  0  0  0  0
    0.5421    0.1456   -0.9942 C   0  0  2  0  0  0  0  0  0  0  0  0
   -0.2532    1.2799   -1.5226 C   0  0  0  0  0  0  0  0  0  0  0  0
   -1.4655    1.6059   -0.6440 C   0  0  0  0  0  0  0  0  0  0  0  0
   -2.1672    0.3494   -0.2795 C   0  0  0  0  0  0  0  0  0  0  0  0
   -3.4582   -0.1049   -0.3326 C   0  0  0  0  0  0  0  0  0  0  0  0
   -4.6091    0.6704   -0.8423 C   0  0  0  0  0  0  0  0  0  0  0  0
   -5.0603    1.6901    0.1203 C   0  0  0  0  0  0  0  0  0  0  0  0
   -4.4676    1.8061    1.2163 O   0  0  0  0  0  0  0  0  0  0  0  0
   -6.1248    2.5301   -0.1477 O   0  0  0  0  0  0  0  0  0  0  0  0
   -3.4566   -1.3850    0.1692 C   0  0  0  0  0  0  0  0  0  0  0  0
   -4.4446   -2.3312    0.3633 C   0  0  0  0  0  0  0  0  0  0  0  0
   -4.1456   -3.5623    0.8995 C   0  0  0  0  0  0  0  0  0  0  0  0
   -2.8489   -3.8276    1.2356 C   0  0  0  0  0  0  0  0  0  0  0  0
   -1.8569   -2.9383    1.0644 N   0  0  0  0  0  0  0  0  0  0  0  0
   -2.1495   -1.7243    0.5361 C   0  0  0  0  0  0  0  0  0  0  0  0
   -1.4166   -0.6374    0.2414 N   0  0  0  0  0  0  0  0  0  0  0  0
    0.0038   -0.3296    0.3717 C   0  0  0  0  0  0  0  0  0  0  0  0
    2.7122    1.4240   -0.0886 S   0  0  0  0  0  6  0  0  0  0  0  0
    3.3372    2.4555   -1.0265 O   0  0  0  0  0  0  0  0  0  0  0  0
    1.7476    2.1182    0.8501 O   0  0  0  0  0  0  0  0  0  0  0  0
    3.9981    0.8737    0.9510 C   0  0  0  0  0  0  0  0  0  0  0  0
    5.2700    0.7750    0.3985 C   0  0  0  0  0  0  0  0  0  0  0  0
    6.3520    0.3479    1.1433 C   0  0  0  0  0  0  0  0  0  0  0  0
    6.1875    0.0120    2.4496 C   0  0  0  0  0  0  0  0  0  0  0  0
    7.2573   -0.4111    3.1886 F   0  0  0  0  0  0  0  0  0  0  0  0
    4.9142    0.1094    3.0082 C   0  0  0  0  0  0  0  0  0  0  0  0
    3.8321    0.5337    2.2728 C   0  0  0  0  0  0  0  0  0  0  0  0
    1.9983   -0.6858   -2.7835 H   0  0  0  0  0  0  0  0  0  0  0  0
    2.7924   -1.6190   -1.5092 H   0  0  0  0  0  0  0  0  0  0  0  0
    3.5773   -0.1122   -2.2319 H   0  0  0  0  0  0  0  0  0  0  0  0
    0.2952   -0.7599   -1.6407 H   0  0  0  0  0  0  0  0  0  0  0  0
   -0.7281    1.0360   -2.5199 H   0  0  0  0  0  0  0  0  0  0  0  0
    0.3163    2.1997   -1.7172 H   0  0  0  0  0  0  0  0  0  0  0  0
   -1.1662    2.0881    0.2982 H   0  0  0  0  0  0  0  0  0  0  0  0
   -2.1712    2.2108   -1.2475 H   0  0  0  0  0  0  0  0  0  0  0  0
   -5.4229   -0.0298   -1.1256 H   0  0  0  0  0  0  0  0  0  0  0  0
   -4.3255    1.2043   -1.7741 H   0  0  0  0  0  0  0  0  0  0  0  0
   -6.1144    3.5081    0.1728 H   0  0  0  0  0  0  0  0  0  0  0  0
   -5.4526   -2.0719    0.0812 H   0  0  0  0  0  0  0  0  0  0  0  0
   -4.9490   -4.2700    1.0335 H   0  0  0  0  0  0  0  0  0  0  0  0
   -2.6514   -4.8227    1.6613 H   0  0  0  0  0  0  0  0  0  0  0  0
    0.5884   -1.2239    0.6425 H   0  0  0  0  0  0  0  0  0  0  0  0
    0.1802    0.4463    1.1155 H   0  0  0  0  0  0  0  0  0  0  0  0
    5.4601    1.0319   -0.6448 H   0  0  0  0  0  0  0  0  0  0  0  0
    7.3238    0.2836    0.6797 H   0  0  0  0  0  0  0  0  0  0  0  0
    4.8177   -0.1605    4.0325 H   0  0  0  0  0  0  0  0  0  0  0  0
    2.8537    0.6048    2.7145 H   0  0  0  0  0  0  0  0  0  0  0  0
  1  2  1  0
  2  3  1  0
  3  4  1  0
  4  5  1  0
  5  6  1  0
  6  7  2  0
  7  8  1  0
  8  9  1  0
  9 10  2  0
  9 11  1  0
  7 12  1  0
 12 13  2  0
 13 14  1  0
 14 15  2  0
 15 16  1  0
 16 17  2  0
 17 18  1  0
 18 19  1  0
  2 20  1  0
 20 21  2  0
 20 22  2  0
 20 23  1  0
 23 24  2  0
 24 25  1  0
 25 26  2  0
 26 27  1  0
 26 28  1  0
 28 29  2  0
 19  3  1  0
 29 23  1  0
 18  6  1  0
 17 12  1  0
  1 30  1  0
  1 31  1  0
  1 32  1  0
  3 33  1  6
  4 34  1  0
  4 35  1  0
  5 36  1  0
  5 37  1  0
  8 38  1  0
  8 39  1  0
 11 40  1  0
 13 41  1  0
 14 42  1  0
 15 43  1  0
 19 44  1  0
 19 45  1  0
 24 46  1  0
 25 47  1  0
 28 48  1  0
 29 49  1  0
M  END
$$$$
