
     RDKit          3D

 41 43  0  0  0  0  0  0  0  0999 V2000
    6.5624   -0.1836    1.7862 Cl  0  0  0  0  0  0  0  0  0  0  0  0
    4.9029   -0.5415    1.3643 C   0  0  0  0  0  0  0  0  0  0  0  0
    3.7911    0.1671    1.8398 C   0  0  0  0  0  0  0  0  0  0  0  0
    2.4972   -0.1556    1.4760 C   0  0  0  0  0  0  0  0  0  0  0  0
    2.2732   -1.2084    0.6158 C   0  0  0  0  0  0  0  0  0  0  0  0
    1.0251   -1.5965    0.2016 O   0  0  0  0  0  0  0  0  0  0  0  0
    0.8414   -2.4951   -0.8751 C   0  0  0  0  0  0  0  0  0  0  0  0
   -0.6677   -2.7038   -1.1184 C   0  0  0  0  0  0  0  0  0  0  0  0
   -1.2882   -1.3649   -1.4017 C   0  0  0  0  0  0  0  0  0  0  0  0
   -2.7617   -1.4170   -1.6249 C   0  0  0  0  0  0  0  0  0  0  0  0
   -3.1782    0.0563   -1.8418 C   0  0  0  0  0  0  0  0  0  0  0  0
   -2.7696    0.7600   -0.6783 O   0  0  0  0  0  0  0  0  0  0  0  0
   -2.9644    2.1034   -0.5566 C   0  0  0  0  0  0  0  0  0  0  0  0
   -3.4475    3.3735   -0.7710 C   0  0  0  0  0  0  0  0  0  0  0  0
   -2.9376    4.3292    0.0282 N   0  0  0  0  0  0  0  0  0  0  0  0
   -2.0224    3.9653    0.9443 C   0  0  0  0  0  0  0  0  0  0  0  0
   -1.5480    2.6881    1.1478 C   0  0  0  0  0  0  0  0  0  0  0  0
   -0.5867    2.3531    2.1409 N   0  0  0  0  0  0  0  0  0  0  0  0
    0.4476    1.4678    1.7689 C   0  0  0  0  0  0  0  0  0  0  0  0
    0.6656    0.9413    0.6557 O   0  0  0  0  0  0  0  0  0  0  0  0
    1.6025    0.7273    2.1188 N   0  0  0  0  0  0  0  0  0  0  0  0
   -2.0292    1.7000    0.3716 N   0  0  0  0  0  0  0  0  0  0  0  0
    3.3626   -1.9045    0.1487 C   0  0  0  0  0  0  0  0  0  0  0  0
    4.6425   -1.5894    0.5053 C   0  0  0  0  0  0  0  0  0  0  0  0
    4.1219    0.9670    2.5063 H   0  0  0  0  0  0  0  0  0  0  0  0
    1.2957   -2.1197   -1.7980 H   0  0  0  0  0  0  0  0  0  0  0  0
    1.2235   -3.4811   -0.5519 H   0  0  0  0  0  0  0  0  0  0  0  0
   -1.0764   -3.1876   -0.2286 H   0  0  0  0  0  0  0  0  0  0  0  0
   -0.7420   -3.3541   -1.9970 H   0  0  0  0  0  0  0  0  0  0  0  0
   -0.7699   -0.9115   -2.2732 H   0  0  0  0  0  0  0  0  0  0  0  0
   -1.0650   -0.7413   -0.5055 H   0  0  0  0  0  0  0  0  0  0  0  0
   -3.2853   -1.8330   -0.7490 H   0  0  0  0  0  0  0  0  0  0  0  0
   -2.9836   -2.0222   -2.5098 H   0  0  0  0  0  0  0  0  0  0  0  0
   -2.6922    0.4438   -2.7390 H   0  0  0  0  0  0  0  0  0  0  0  0
   -4.2631    0.0861   -1.8928 H   0  0  0  0  0  0  0  0  0  0  0  0
   -4.0991    3.0466   -1.5692 H   0  0  0  0  0  0  0  0  0  0  0  0
   -1.6173    4.7288    1.5829 H   0  0  0  0  0  0  0  0  0  0  0  0
   -0.8109    2.8213    3.0440 H   0  0  0  0  0  0  0  0  0  0  0  0
    1.6902    0.9996    3.1193 H   0  0  0  0  0  0  0  0  0  0  0  0
    3.2057   -2.7344   -0.5274 H   0  0  0  0  0  0  0  0  0  0  0  0
    5.4547   -2.1802    0.0996 H   0  0  0  0  0  0  0  0  0  0  0  0
  1  2  1  0
  2  3  2  0
  3  4  1  0
  4  5  2  0
  5  6  1  0
  6  7  1  0
  7  8  1  0
  8  9  1  0
  9 10  1  0
 10 11  1  0
 11 12  1  0
 12 13  1  0
 13 14  1  0
 14 15  2  0
 15 16  1  0
 16 17  2  0
 17 18  1  0
 18 19  1  0
 19 20  2  0
 19 21  1  0
 17 22  1  0
  5 23  1  0
 23 24  2  0
 24  2  1  0
 21  4  1  0
 22 13  2  0
  3 25  1  0
  7 26  1  0
  7 27  1  0
  8 28  1  0
  8 29  1  0
  9 30  1  0
  9 31  1  0
 10 32  1  0
 10 33  1  0
 11 34  1  0
 11 35  1  0
 14 36  1  0
 16 37  1  0
 18 38  1  0
 21 39  1  0
 23 40  1  0
 24 41  1  0
M  END
$$$$
