
     RDKit          3D

 49 52  0  0  0  0  0  0  0  0999 V2000
    2.4387    2.2068    1.8601 C   0  0  0  0  0  0  0  0  0  0  0  0
    1.8372    0.8359    1.6598 C   0  0  0  0  0  0  0  0  0  0  0  0
    1.9892    0.3856    0.2387 C   0  0  2  0  0  0  0  0  0  0  0  0
    1.3453    1.2553   -0.7713 C   0  0  0  0  0  0  0  0  0  0  0  0
   -0.0843    1.4241   -0.2939 C   0  0  0  0  0  0  0  0  0  0  0  0
   -0.7863    0.1147   -0.2869 C   0  0  1  0  0  0  0  0  0  0  0  0
   -0.1019   -0.9902    0.4562 C   0  0  1  0  0  0  0  0  0  0  0  0
   -0.7078   -2.2736   -0.0860 C   0  0  0  0  0  0  0  0  0  0  0  0
   -2.1886   -2.2950   -0.1591 C   0  0  0  0  0  0  0  0  0  0  0  0
   -2.8689   -1.0054   -0.1725 C   0  0  0  0  0  0  0  0  0  0  0  0
   -4.1323   -0.9915   -0.6245 C   0  0  0  0  0  0  0  0  0  0  0  0
   -4.8541    0.2873   -0.6547 C   0  0  0  0  0  0  0  0  0  0  0  0
   -5.8340    0.4393   -1.4388 O   0  0  0  0  0  0  0  0  0  0  0  0
   -4.3317    1.3304    0.2905 C   0  0  0  0  0  0  0  0  0  0  0  0
   -2.8671    1.4969   -0.1061 C   0  0  0  0  0  0  0  0  0  0  0  0
   -2.1643    0.2285    0.3025 C   0  0  2  0  0  0  0  0  0  0  0  0
    1.3419   -0.9905    0.1027 C   0  0  2  0  0  0  0  0  0  0  0  0
    2.2415   -1.7515    0.9783 C   0  0  0  0  0  0  0  0  0  0  0  0
    3.4641   -1.2190    0.9027 C   0  0  0  0  0  0  0  0  0  0  0  0
    3.4004   -0.0584   -0.0532 C   0  0  2  0  0  0  0  0  0  0  0  0
    4.3461    0.8928    0.2131 O   0  0  0  0  0  0  0  0  0  0  0  0
    3.4310   -0.5851   -1.3994 C   0  0  0  0  0  0  0  0  0  0  0  0
    3.4725   -1.0206   -2.5314 C   0  0  0  0  0  0  0  0  0  0  0  0
    1.7605    2.9260    2.3489 H   0  0  0  0  0  0  0  0  0  0  0  0
    2.6899    2.6535    0.8658 H   0  0  0  0  0  0  0  0  0  0  0  0
    3.3718    2.1819    2.4579 H   0  0  0  0  0  0  0  0  0  0  0  0
    0.7910    0.7634    2.0249 H   0  0  0  0  0  0  0  0  0  0  0  0
    2.4231    0.1368    2.2924 H   0  0  0  0  0  0  0  0  0  0  0  0
    1.2624    0.6550   -1.7240 H   0  0  0  0  0  0  0  0  0  0  0  0
    1.8320    2.2135   -0.9622 H   0  0  0  0  0  0  0  0  0  0  0  0
   -0.1559    2.0113    0.6283 H   0  0  0  0  0  0  0  0  0  0  0  0
   -0.5827    2.0435   -1.0892 H   0  0  0  0  0  0  0  0  0  0  0  0
   -0.8780   -0.2205   -1.3558 H   0  0  0  0  0  0  0  0  0  0  0  0
   -0.2895   -0.9879    1.5352 H   0  0  0  0  0  0  0  0  0  0  0  0
   -0.2586   -2.4121   -1.1079 H   0  0  0  0  0  0  0  0  0  0  0  0
   -0.3336   -3.1188    0.5273 H   0  0  0  0  0  0  0  0  0  0  0  0
   -2.4827   -2.8448   -1.0810 H   0  0  0  0  0  0  0  0  0  0  0  0
   -2.6462   -2.9104    0.6701 H   0  0  0  0  0  0  0  0  0  0  0  0
   -4.6186   -1.9005   -0.9627 H   0  0  0  0  0  0  0  0  0  0  0  0
   -4.3494    0.8793    1.2978 H   0  0  0  0  0  0  0  0  0  0  0  0
   -4.8884    2.2686    0.2153 H   0  0  0  0  0  0  0  0  0  0  0  0
   -2.8366    1.6635   -1.1954 H   0  0  0  0  0  0  0  0  0  0  0  0
   -2.4579    2.3129    0.4969 H   0  0  0  0  0  0  0  0  0  0  0  0
   -2.1690    0.1757    1.4061 H   0  0  0  0  0  0  0  0  0  0  0  0
    1.4805   -1.3799   -0.9351 H   0  0  0  0  0  0  0  0  0  0  0  0
    1.9663   -2.6051    1.5879 H   0  0  0  0  0  0  0  0  0  0  0  0
    4.3513   -1.5700    1.4436 H   0  0  0  0  0  0  0  0  0  0  0  0
    5.1221    0.7501   -0.3719 H   0  0  0  0  0  0  0  0  0  0  0  0
    3.5098   -1.4018   -3.5324 H   0  0  0  0  0  0  0  0  0  0  0  0
  1  2  1  0
  3  2  1  1
  3  4  1  0
  4  5  1  0
  5  6  1  0
  6  7  1  0
  7  8  1  0
  8  9  1  0
  9 10  1  0
 10 11  2  0
 11 12  1  0
 12 13  2  0
 12 14  1  0
 14 15  1  0
 15 16  1  0
  7 17  1  0
 17 18  1  0
 18 19  2  0
 19 20  1  0
 20 21  1  0
 20 22  1  6
 22 23  3  0
 17  3  1  0
 20  3  1  0
 16  6  1  0
 16 10  1  0
  1 24  1  0
  1 25  1  0
  1 26  1  0
  2 27  1  0
  2 28  1  0
  4 29  1  0
  4 30  1  0
  5 31  1  0
  5 32  1  0
  6 33  1  6
  7 34  1  1
  8 35  1  0
  8 36  1  0
  9 37  1  0
  9 38  1  0
 11 39  1  0
 14 40  1  0
 14 41  1  0
 15 42  1  0
 15 43  1  0
 16 44  1  1
 17 45  1  6
 18 46  1  0
 19 47  1  0
 21 48  1  0
 23 49  1  0
M  END
$$$$
