
     RDKit          3D

 54 59  0  0  0  0  0  0  0  0999 V2000
    4.5142    3.5168   -0.8511 N   0  0  0  0  0  0  0  0  0  0  0  0
    3.9910    2.4843   -0.6638 C   0  0  0  0  0  0  0  0  0  0  0  0
    3.3359    1.2414   -0.4260 C   0  0  0  0  0  0  0  0  0  0  0  0
    1.9465    1.1342   -0.5722 C   0  0  0  0  0  0  0  0  0  0  0  0
    1.2672   -0.0384   -0.3623 C   0  0  0  0  0  0  0  0  0  0  0  0
   -0.1789   -0.1173   -0.5254 C   0  0  0  0  0  0  0  0  0  0  0  0
   -1.0192    0.9406   -0.2669 C   0  0  0  0  0  0  0  0  0  0  0  0
   -2.3654    0.8567   -0.4227 N   0  0  0  0  0  0  0  0  0  0  0  0
   -2.8811   -0.3122   -0.8466 C   0  0  0  0  0  0  0  0  0  0  0  0
   -4.1938   -0.6554   -1.0817 C   0  0  0  0  0  0  0  0  0  0  0  0
   -5.4067    0.1440   -0.9440 C   0  0  0  0  0  0  0  0  0  0  0  0
   -5.9057    0.8906   -1.9955 C   0  0  0  0  0  0  0  0  0  0  0  0
   -7.0636    1.6484   -1.8528 C   0  0  0  0  0  0  0  0  0  0  0  0
   -7.7586    1.6860   -0.6613 C   0  0  0  0  0  0  0  0  0  0  0  0
   -7.2574    0.9396    0.3850 C   0  0  0  0  0  0  0  0  0  0  0  0
   -7.8983    0.9438    1.5656 N   0  0  0  0  0  0  0  0  0  0  0  0
   -7.4684    0.2399    2.6339 C   0  0  0  0  0  0  0  0  0  0  0  0
   -6.3252   -0.5202    2.5246 C   0  0  0  0  0  0  0  0  0  0  0  0
   -5.6353   -0.5517    1.3253 C   0  0  0  0  0  0  0  0  0  0  0  0
   -6.1029    0.1830    0.2458 C   0  0  0  0  0  0  0  0  0  0  0  0
   -4.1562   -1.9702   -1.4990 C   0  0  0  0  0  0  0  0  0  0  0  0
   -2.8703   -2.3666   -1.5031 N   0  0  0  0  0  0  0  0  0  0  0  0
   -2.0809   -1.3612   -1.1060 N   0  0  0  0  0  0  0  0  0  0  0  0
   -0.7437   -1.3108   -0.9619 C   0  0  0  0  0  0  0  0  0  0  0  0
    1.9589   -1.1671    0.0076 C   0  0  0  0  0  0  0  0  0  0  0  0
    3.3354   -1.0758    0.1563 C   0  0  0  0  0  0  0  0  0  0  0  0
    4.0167    0.1092   -0.0565 C   0  0  0  0  0  0  0  0  0  0  0  0
    5.4229    0.1232    0.1218 N   0  0  0  0  0  0  0  0  0  0  0  0
    6.0026    0.9235    1.1485 C   0  0  0  0  0  0  0  0  0  0  0  0
    7.4213    0.4793    1.4296 C   0  0  0  0  0  0  0  0  0  0  0  0
    7.6303   -0.9246    1.3384 N   0  0  0  0  0  0  0  0  0  0  0  0
    7.2349   -1.5174    0.1047 C   0  0  0  0  0  0  0  0  0  0  0  0
    6.3188   -0.6628   -0.7186 C   0  0  0  0  0  0  0  0  0  0  0  0
    1.3989    2.0393   -0.8676 H   0  0  0  0  0  0  0  0  0  0  0  0
   -0.5906    1.8729    0.0728 H   0  0  0  0  0  0  0  0  0  0  0  0
   -5.3743    0.8697   -2.9270 H   0  0  0  0  0  0  0  0  0  0  0  0
   -7.4617    2.2370   -2.6733 H   0  0  0  0  0  0  0  0  0  0  0  0
   -8.6636    2.2672   -0.5209 H   0  0  0  0  0  0  0  0  0  0  0  0
   -8.0444    0.2935    3.5630 H   0  0  0  0  0  0  0  0  0  0  0  0
   -5.9807   -1.0847    3.3820 H   0  0  0  0  0  0  0  0  0  0  0  0
   -4.7429   -1.1556    1.2677 H   0  0  0  0  0  0  0  0  0  0  0  0
   -5.0114   -2.5771   -1.7747 H   0  0  0  0  0  0  0  0  0  0  0  0
   -0.0882   -2.1537   -1.1690 H   0  0  0  0  0  0  0  0  0  0  0  0
    1.4422   -2.0942    0.1760 H   0  0  0  0  0  0  0  0  0  0  0  0
    3.9093   -1.9435    0.4458 H   0  0  0  0  0  0  0  0  0  0  0  0
    5.4183    0.7781    2.0809 H   0  0  0  0  0  0  0  0  0  0  0  0
    6.0586    1.9718    0.8480 H   0  0  0  0  0  0  0  0  0  0  0  0
    7.6703    0.8144    2.4575 H   0  0  0  0  0  0  0  0  0  0  0  0
    8.1345    1.0321    0.7593 H   0  0  0  0  0  0  0  0  0  0  0  0
    7.3707   -1.4785    2.1642 H   0  0  0  0  0  0  0  0  0  0  0  0
    8.1553   -1.7200   -0.5093 H   0  0  0  0  0  0  0  0  0  0  0  0
    6.7821   -2.5235    0.2716 H   0  0  0  0  0  0  0  0  0  0  0  0
    6.8642   -0.0136   -1.4079 H   0  0  0  0  0  0  0  0  0  0  0  0
    5.6686   -1.3645   -1.3086 H   0  0  0  0  0  0  0  0  0  0  0  0
  1  2  3  0
  2  3  1  0
  3  4  2  0
  4  5  1  0
  5  6  1  0
  6  7  1  0
  7  8  2  0
  8  9  1  0
  9 10  2  0
 10 11  1  0
 11 12  2  0
 12 13  1  0
 13 14  2  0
 14 15  1  0
 15 16  2  0
 16 17  1  0
 17 18  2  0
 18 19  1  0
 19 20  2  0
 10 21  1  0
 21 22  2  0
 22 23  1  0
 23 24  1  0
  5 25  2  0
 25 26  1  0
 26 27  2  0
 27 28  1  0
 28 29  1  0
 29 30  1  0
 30 31  1  0
 31 32  1  0
 32 33  1  0
 27  3  1  0
 33 28  1  0
 24  6  2  0
 23  9  1  0
 20 11  1  0
 20 15  1  0
  4 34  1  0
  7 35  1  0
 12 36  1  0
 13 37  1  0
 14 38  1  0
 17 39  1  0
 18 40  1  0
 19 41  1  0
 21 42  1  0
 24 43  1  0
 25 44  1  0
 26 45  1  0
 29 46  1  0
 29 47  1  0
 30 48  1  0
 30 49  1  0
 31 50  1  0
 32 51  1  0
 32 52  1  0
 33 53  1  0
 33 54  1  0
M  END
$$$$
