
     RDKit          3D

 62 64  0  0  0  0  0  0  0  0999 V2000
   -3.1509    1.9294    2.8858 C   0  0  0  0  0  0  0  0  0  0  0  0
   -3.7143    2.1798    1.5622 N   0  0  0  0  0  0  0  0  0  0  0  0
   -4.5369    3.3759    1.4183 C   0  0  0  0  0  0  0  0  0  0  0  0
   -3.4628    1.2997    0.4975 C   0  0  0  0  0  0  0  0  0  0  0  0
   -2.6627    1.7141   -0.4954 N   0  0  0  0  0  0  0  0  0  0  0  0
   -2.3490    0.9442   -1.5467 C   0  0  0  0  0  0  0  0  0  0  0  0
   -1.4677    1.3716   -2.6619 C   0  0  0  0  0  0  0  0  0  0  0  0
   -0.0458    1.0617   -2.3594 C   0  0  0  0  0  0  0  0  0  0  0  0
    0.7256    2.0155   -1.7335 C   0  0  0  0  0  0  0  0  0  0  0  0
    2.0440    1.7271   -1.4506 C   0  0  0  0  0  0  0  0  0  0  0  0
    2.6061    0.5001   -1.7829 C   0  0  0  0  0  0  0  0  0  0  0  0
    3.9722    0.2666   -1.4631 N   0  0  0  0  0  0  0  0  0  0  0  0
    4.3975   -0.2840   -0.2348 C   0  0  0  0  0  0  0  0  0  0  0  0
    3.4861   -0.5686    0.5923 O   0  0  0  0  0  0  0  0  0  0  0  0
    5.7727   -0.5400    0.1364 C   0  0  0  0  0  0  0  0  0  0  0  0
    6.8031   -0.2730   -0.7143 C   0  0  0  0  0  0  0  0  0  0  0  0
    8.1260   -0.5303   -0.3267 C   0  0  0  0  0  0  0  0  0  0  0  0
    8.4048   -1.0535    0.9117 C   0  0  0  0  0  0  0  0  0  0  0  0
    9.7940   -1.3270    1.3268 C   0  0  0  0  0  0  0  0  0  0  0  0
   10.4300   -2.2212    0.4830 F   0  0  0  0  0  0  0  0  0  0  0  0
   10.5793   -0.1757    1.3238 F   0  0  0  0  0  0  0  0  0  0  0  0
    9.8231   -1.8565    2.5951 F   0  0  0  0  0  0  0  0  0  0  0  0
    7.3696   -1.3255    1.7756 C   0  0  0  0  0  0  0  0  0  0  0  0
    6.0618   -1.0622    1.3702 C   0  0  0  0  0  0  0  0  0  0  0  0
    1.7979   -0.4245   -2.4080 C   0  0  0  0  0  0  0  0  0  0  0  0
    0.4769   -0.1522   -2.6983 C   0  0  0  0  0  0  0  0  0  0  0  0
   -2.8661   -0.2928   -1.5921 N   0  0  0  0  0  0  0  0  0  0  0  0
   -3.6895   -0.7795   -0.6128 C   0  0  0  0  0  0  0  0  0  0  0  0
   -4.1835   -2.0860   -0.7036 N   0  0  0  0  0  0  0  0  0  0  0  0
   -3.7273   -3.1014    0.2043 C   0  0  0  0  0  0  0  0  0  0  0  0
   -5.1548   -2.4127   -1.7131 C   0  0  0  0  0  0  0  0  0  0  0  0
   -3.9903    0.0405    0.4511 C   0  0  0  0  0  0  0  0  0  0  0  0
   -4.8915   -0.4288    1.4972 C   0  0  0  0  0  0  0  0  0  0  0  0
   -6.2552    0.1513    1.3894 C   0  0  0  0  0  0  0  0  0  0  0  0
   -6.4913    0.9502    0.4552 O   0  0  0  0  0  0  0  0  0  0  0  0
   -7.2316   -0.1750    2.2840 O   0  0  0  0  0  0  0  0  0  0  0  0
   -2.4528    2.7905    3.1418 H   0  0  0  0  0  0  0  0  0  0  0  0
   -2.5137    1.0436    2.9380 H   0  0  0  0  0  0  0  0  0  0  0  0
   -3.9743    1.8854    3.5990 H   0  0  0  0  0  0  0  0  0  0  0  0
   -4.0352    4.1677    2.0236 H   0  0  0  0  0  0  0  0  0  0  0  0
   -5.5221    3.1386    1.8636 H   0  0  0  0  0  0  0  0  0  0  0  0
   -4.6210    3.6921    0.3626 H   0  0  0  0  0  0  0  0  0  0  0  0
   -1.7623    0.8285   -3.5723 H   0  0  0  0  0  0  0  0  0  0  0  0
   -1.5659    2.4615   -2.7542 H   0  0  0  0  0  0  0  0  0  0  0  0
    0.2620    2.9605   -1.4870 H   0  0  0  0  0  0  0  0  0  0  0  0
    2.6341    2.5084   -0.9508 H   0  0  0  0  0  0  0  0  0  0  0  0
    4.6934    0.5150   -2.1716 H   0  0  0  0  0  0  0  0  0  0  0  0
    6.6230    0.1322   -1.6798 H   0  0  0  0  0  0  0  0  0  0  0  0
    8.9622   -0.3281   -0.9810 H   0  0  0  0  0  0  0  0  0  0  0  0
    7.5696   -1.7353    2.7499 H   0  0  0  0  0  0  0  0  0  0  0  0
    5.2473   -1.2762    2.0500 H   0  0  0  0  0  0  0  0  0  0  0  0
    2.2222   -1.3729   -2.6678 H   0  0  0  0  0  0  0  0  0  0  0  0
   -0.1491   -0.9036   -3.1970 H   0  0  0  0  0  0  0  0  0  0  0  0
   -2.9909   -2.7303    0.9443 H   0  0  0  0  0  0  0  0  0  0  0  0
   -4.5468   -3.7061    0.6487 H   0  0  0  0  0  0  0  0  0  0  0  0
   -3.1266   -3.8188   -0.4365 H   0  0  0  0  0  0  0  0  0  0  0  0
   -6.1107   -2.7786   -1.2944 H   0  0  0  0  0  0  0  0  0  0  0  0
   -5.4098   -1.5197   -2.3347 H   0  0  0  0  0  0  0  0  0  0  0  0
   -4.7895   -3.2191   -2.3911 H   0  0  0  0  0  0  0  0  0  0  0  0
   -4.5051   -0.1218    2.4848 H   0  0  0  0  0  0  0  0  0  0  0  0
   -4.9637   -1.5533    1.5806 H   0  0  0  0  0  0  0  0  0  0  0  0
   -7.9737    0.4826    2.4915 H   0  0  0  0  0  0  0  0  0  0  0  0
  1  2  1  0
  2  3  1  0
  2  4  1  0
  4  5  2  0
  5  6  1  0
  6  7  1  0
  7  8  1  0
  8  9  2  0
  9 10  1  0
 10 11  2  0
 11 12  1  0
 12 13  1  0
 13 14  2  0
 13 15  1  0
 15 16  2  0
 16 17  1  0
 17 18  2  0
 18 19  1  0
 19 20  1  0
 19 21  1  0
 19 22  1  0
 18 23  1  0
 23 24  2  0
 11 25  1  0
 25 26  2  0
  6 27  2  0
 27 28  1  0
 28 29  1  0
 29 30  1  0
 29 31  1  0
 28 32  2  0
 32 33  1  0
 33 34  1  0
 34 35  2  0
 34 36  1  0
 32  4  1  0
 26  8  1  0
 24 15  1  0
  1 37  1  0
  1 38  1  0
  1 39  1  0
  3 40  1  0
  3 41  1  0
  3 42  1  0
  7 43  1  0
  7 44  1  0
  9 45  1  0
 10 46  1  0
 12 47  1  0
 16 48  1  0
 17 49  1  0
 23 50  1  0
 24 51  1  0
 25 52  1  0
 26 53  1  0
 30 54  1  0
 30 55  1  0
 30 56  1  0
 31 57  1  0
 31 58  1  0
 31 59  1  0
 33 60  1  0
 33 61  1  0
 36 62  1  0
M  END
$$$$
