
     RDKit          3D

 57 59  0  0  0  0  0  0  0  0999 V2000
   -3.2672   -2.4498   -2.6452 C   0  0  0  0  0  0  0  0  0  0  0  0
   -3.1274   -1.5786   -1.5437 O   0  0  0  0  0  0  0  0  0  0  0  0
   -1.9264   -1.4804   -0.8548 C   0  0  0  0  0  0  0  0  0  0  0  0
   -0.8551   -2.2680   -1.2801 C   0  0  0  0  0  0  0  0  0  0  0  0
    0.3768   -2.2287   -0.6465 C   0  0  0  0  0  0  0  0  0  0  0  0
    0.5934   -1.4042    0.4362 C   0  0  0  0  0  0  0  0  0  0  0  0
    1.8879   -1.3498    1.1177 C   0  0  0  0  0  0  0  0  0  0  0  0
    2.0106   -0.5731    2.0978 O   0  0  0  0  0  0  0  0  0  0  0  0
    3.0158   -2.1142    0.7480 N   0  0  0  0  0  0  0  0  0  0  0  0
    4.2875   -2.0348    1.4484 C   0  0  0  0  0  0  0  0  0  0  0  0
    4.8619   -0.6765    1.4156 C   0  0  0  0  0  0  0  0  0  0  0  0
    5.7121   -0.2299    0.4247 C   0  0  0  0  0  0  0  0  0  0  0  0
    6.0199    1.0655    0.7492 C   0  0  0  0  0  0  0  0  0  0  0  0
    6.8996    2.0034    0.0105 C   0  0  0  0  0  0  0  0  0  0  0  0
    8.3103    1.4834   -0.1096 C   0  0  0  0  0  0  0  0  0  0  0  0
    6.3389    2.1596   -1.3998 C   0  0  0  0  0  0  0  0  0  0  0  0
    5.3550    1.3240    1.8903 N   0  0  0  0  0  0  0  0  0  0  0  0
    4.6782    0.2936    2.2723 O   0  0  0  0  0  0  0  0  0  0  0  0
   -0.4684   -0.6337    0.8457 C   0  0  0  0  0  0  0  0  0  0  0  0
   -1.7242   -0.6569    0.2198 C   0  0  0  0  0  0  0  0  0  0  0  0
   -2.6869    0.1375    0.7048 O   0  0  0  0  0  0  0  0  0  0  0  0
   -3.9785    0.4427    0.4524 C   0  0  0  0  0  0  0  0  0  0  0  0
   -4.9259    0.0897    1.6171 C   0  0  0  0  0  0  0  0  0  0  0  0
   -6.3059    0.0055    1.0046 C   0  0  0  0  0  0  0  0  0  0  0  0
   -6.6045    1.2483    0.3480 N   0  0  0  0  0  0  0  0  0  0  0  0
   -6.8144    1.0671   -1.0651 C   0  0  0  0  0  0  0  0  0  0  0  0
   -5.6348    2.2825    0.6403 C   0  0  0  0  0  0  0  0  0  0  0  0
   -4.2472    1.9129    0.1792 C   0  0  0  0  0  0  0  0  0  0  0  0
   -4.3263   -2.4533   -2.9730 H   0  0  0  0  0  0  0  0  0  0  0  0
   -2.9842   -3.4889   -2.3532 H   0  0  0  0  0  0  0  0  0  0  0  0
   -2.5887   -2.0589   -3.4408 H   0  0  0  0  0  0  0  0  0  0  0  0
   -1.0335   -2.9161   -2.1349 H   0  0  0  0  0  0  0  0  0  0  0  0
    1.1839   -2.8644   -1.0170 H   0  0  0  0  0  0  0  0  0  0  0  0
    2.9483   -2.7677   -0.0595 H   0  0  0  0  0  0  0  0  0  0  0  0
    4.0847   -2.3214    2.4972 H   0  0  0  0  0  0  0  0  0  0  0  0
    5.0171   -2.7604    1.0421 H   0  0  0  0  0  0  0  0  0  0  0  0
    6.0814   -0.7643   -0.4444 H   0  0  0  0  0  0  0  0  0  0  0  0
    6.9402    2.9711    0.5382 H   0  0  0  0  0  0  0  0  0  0  0  0
    8.9535    1.7855    0.7398 H   0  0  0  0  0  0  0  0  0  0  0  0
    8.7875    1.8762   -1.0327 H   0  0  0  0  0  0  0  0  0  0  0  0
    8.3238    0.3623   -0.2258 H   0  0  0  0  0  0  0  0  0  0  0  0
    7.0847    2.5573   -2.1008 H   0  0  0  0  0  0  0  0  0  0  0  0
    5.9893    1.1293   -1.6921 H   0  0  0  0  0  0  0  0  0  0  0  0
    5.4299    2.7958   -1.3378 H   0  0  0  0  0  0  0  0  0  0  0  0
   -0.2916    0.0192    1.7056 H   0  0  0  0  0  0  0  0  0  0  0  0
   -4.3861   -0.1193   -0.4065 H   0  0  0  0  0  0  0  0  0  0  0  0
   -4.6119   -0.8524    2.0961 H   0  0  0  0  0  0  0  0  0  0  0  0
   -4.9010    0.8702    2.3922 H   0  0  0  0  0  0  0  0  0  0  0  0
   -6.2603   -0.7891    0.2280 H   0  0  0  0  0  0  0  0  0  0  0  0
   -7.0769   -0.2924    1.7423 H   0  0  0  0  0  0  0  0  0  0  0  0
   -7.9123    1.1809   -1.2628 H   0  0  0  0  0  0  0  0  0  0  0  0
   -6.5866    0.0091   -1.3864 H   0  0  0  0  0  0  0  0  0  0  0  0
   -6.2668    1.7736   -1.6968 H   0  0  0  0  0  0  0  0  0  0  0  0
   -5.9428    3.1731    0.0187 H   0  0  0  0  0  0  0  0  0  0  0  0
   -5.6961    2.6067    1.6784 H   0  0  0  0  0  0  0  0  0  0  0  0
   -4.2003    2.0850   -0.9139 H   0  0  0  0  0  0  0  0  0  0  0  0
   -3.5402    2.5673    0.7222 H   0  0  0  0  0  0  0  0  0  0  0  0
  1  2  1  0
  2  3  1  0
  3  4  2  0
  4  5  1  0
  5  6  2  0
  6  7  1  0
  7  8  2  0
  7  9  1  0
  9 10  1  0
 10 11  1  0
 11 12  2  0
 12 13  1  0
 13 14  1  0
 14 15  1  0
 14 16  1  0
 13 17  2  0
 17 18  1  0
  6 19  1  0
 19 20  2  0
 20 21  1  0
 21 22  1  0
 22 23  1  0
 23 24  1  0
 24 25  1  0
 25 26  1  0
 25 27  1  0
 27 28  1  0
 20  3  1  0
 28 22  1  0
 18 11  1  0
  1 29  1  0
  1 30  1  0
  1 31  1  0
  4 32  1  0
  5 33  1  0
  9 34  1  0
 10 35  1  0
 10 36  1  0
 12 37  1  0
 14 38  1  0
 15 39  1  0
 15 40  1  0
 15 41  1  0
 16 42  1  0
 16 43  1  0
 16 44  1  0
 19 45  1  0
 22 46  1  0
 23 47  1  0
 23 48  1  0
 24 49  1  0
 24 50  1  0
 26 51  1  0
 26 52  1  0
 26 53  1  0
 27 54  1  0
 27 55  1  0
 28 56  1  0
 28 57  1  0
M  END
$$$$
