
     RDKit          3D

 14 14  0  0  0  0  0  0  0  0999 V2000
   -2.5164    0.5968    0.4869 N   0  0  0  0  0  0  0  0  0  0  0  0
   -1.5378   -0.3684    0.8660 C   0  0  0  0  0  0  0  0  0  0  0  0
   -1.7866   -1.2808    1.6868 O   0  0  0  0  0  0  0  0  0  0  0  0
   -0.2343   -0.2211    0.2359 C   0  0  0  0  0  0  0  0  0  0  0  0
    0.1020    0.7489   -0.6649 N   0  0  0  0  0  0  0  0  0  0  0  0
    1.3383    0.8012   -1.1933 C   0  0  0  0  0  0  0  0  0  0  0  0
    2.3187   -0.1016   -0.8643 C   0  0  0  0  0  0  0  0  0  0  0  0
    2.0043   -1.0773    0.0325 N   0  0  0  0  0  0  0  0  0  0  0  0
    0.7621   -1.1131    0.5501 C   0  0  0  0  0  0  0  0  0  0  0  0
   -2.2664    1.5245    0.9422 H   0  0  0  0  0  0  0  0  0  0  0  0
   -3.3930    0.6616   -0.0968 H   0  0  0  0  0  0  0  0  0  0  0  0
    1.4050    1.6394   -1.8836 H   0  0  0  0  0  0  0  0  0  0  0  0
    3.2436    0.0963   -1.3853 H   0  0  0  0  0  0  0  0  0  0  0  0
    0.5604   -1.9064    1.2579 H   0  0  0  0  0  0  0  0  0  0  0  0
  1  2  1  0
  2  3  2  0
  2  4  1  0
  4  5  2  0
  5  6  1  0
  6  7  2  0
  7  8  1  0
  8  9  2  0
  9  4  1  0
  1 10  1  0
  1 11  1  0
  6 12  1  0
  7 13  1  0
  9 14  1  0
M  END
$$$$
