
     RDKit          3D

 50 50  0  0  0  0  0  0  0  0999 V2000
    4.9674    0.1432    0.7249 C   0  0  0  0  0  0  0  0  0  0  0  0
    3.4467    0.2232    0.7633 C   0  0  0  0  0  0  0  0  0  0  0  0
    3.0880    1.3923    1.6626 C   0  0  0  0  0  0  0  0  0  0  0  0
    2.9486   -1.0719    1.3119 C   0  0  0  0  0  0  0  0  0  0  0  0
    1.4462   -1.1531    1.4148 C   0  0  2  0  0  0  0  0  0  0  0  0
    1.1491   -2.4951    1.9734 C   0  0  0  0  0  0  0  0  0  0  0  0
    1.6444   -2.8721    3.0055 O   0  0  0  0  0  0  0  0  0  0  0  0
    0.7689   -0.8872    0.1924 N   0  0  0  0  0  0  0  0  0  0  0  0
   -0.1283    0.1995    0.0632 C   0  0  0  0  0  0  0  0  0  0  0  0
   -0.2786    0.9088    1.1194 O   0  0  0  0  0  0  0  0  0  0  0  0
   -0.8644    0.5297   -1.1860 C   0  0  1  0  0  0  0  0  0  0  0  0
   -1.7172    1.6564   -0.9020 N   0  0  0  0  0  0  0  0  0  0  0  0
   -3.3813    1.3471   -1.2258 S   0  0  0  0  0  6  0  0  0  0  0  0
   -4.1954    2.5936   -0.9843 O   0  0  0  0  0  0  0  0  0  0  0  0
   -3.6025    0.9726   -2.6634 O   0  0  0  0  0  0  0  0  0  0  0  0
   -3.8918    0.0468   -0.1982 C   0  0  0  0  0  0  0  0  0  0  0  0
   -4.3611    0.3176    1.0579 C   0  0  0  0  0  0  0  0  0  0  0  0
   -4.7866   -0.6931    1.9207 C   0  0  0  0  0  0  0  0  0  0  0  0
   -4.7056   -1.9756    1.4326 C   0  0  0  0  0  0  0  0  0  0  0  0
   -5.0995   -3.0163    2.2083 F   0  0  0  0  0  0  0  0  0  0  0  0
   -4.2401   -2.2792    0.1788 C   0  0  0  0  0  0  0  0  0  0  0  0
   -3.8250   -1.2403   -0.6515 C   0  0  0  0  0  0  0  0  0  0  0  0
    0.0865    1.0230   -2.2892 C   0  0  0  0  0  0  0  0  0  0  0  0
    0.8264    2.2533   -1.8554 C   0  0  0  0  0  0  0  0  0  0  0  0
    0.9674   -0.0765   -2.8209 C   0  0  0  0  0  0  0  0  0  0  0  0
    5.3108   -0.9168    0.8062 H   0  0  0  0  0  0  0  0  0  0  0  0
    5.3922    0.6596    1.6104 H   0  0  0  0  0  0  0  0  0  0  0  0
    5.3921    0.6249   -0.1696 H   0  0  0  0  0  0  0  0  0  0  0  0
    3.1272    0.4144   -0.2798 H   0  0  0  0  0  0  0  0  0  0  0  0
    2.8203    1.0840    2.6819 H   0  0  0  0  0  0  0  0  0  0  0  0
    2.2745    2.0204    1.2154 H   0  0  0  0  0  0  0  0  0  0  0  0
    3.9568    2.0953    1.7734 H   0  0  0  0  0  0  0  0  0  0  0  0
    3.3624   -1.8974    0.6967 H   0  0  0  0  0  0  0  0  0  0  0  0
    3.3689   -1.1939    2.3314 H   0  0  0  0  0  0  0  0  0  0  0  0
    1.1310   -0.3857    2.1652 H   0  0  0  0  0  0  0  0  0  0  0  0
    0.4777   -3.1379    1.4408 H   0  0  0  0  0  0  0  0  0  0  0  0
    0.9455   -1.5206   -0.6160 H   0  0  0  0  0  0  0  0  0  0  0  0
   -1.3734   -0.3551   -1.5619 H   0  0  0  0  0  0  0  0  0  0  0  0
   -1.4468    2.5360   -1.3897 H   0  0  0  0  0  0  0  0  0  0  0  0
   -4.4294    1.3279    1.4538 H   0  0  0  0  0  0  0  0  0  0  0  0
   -5.1571   -0.4974    2.9080 H   0  0  0  0  0  0  0  0  0  0  0  0
   -4.1743   -3.2798   -0.2085 H   0  0  0  0  0  0  0  0  0  0  0  0
   -3.4583   -1.5142   -1.6521 H   0  0  0  0  0  0  0  0  0  0  0  0
   -0.5397    1.3555   -3.1739 H   0  0  0  0  0  0  0  0  0  0  0  0
    1.9141    2.0941   -2.0621 H   0  0  0  0  0  0  0  0  0  0  0  0
    0.5482    3.1677   -2.4167 H   0  0  0  0  0  0  0  0  0  0  0  0
    0.7573    2.4367   -0.7640 H   0  0  0  0  0  0  0  0  0  0  0  0
    1.2198    0.1812   -3.8900 H   0  0  0  0  0  0  0  0  0  0  0  0
    1.9326   -0.1468   -2.2818 H   0  0  0  0  0  0  0  0  0  0  0  0
    0.3852   -0.9986   -2.8698 H   0  0  0  0  0  0  0  0  0  0  0  0
  1  2  1  0
  2  3  1  0
  2  4  1  0
  4  5  1  0
  5  6  1  0
  6  7  2  0
  5  8  1  0
  8  9  1  0
  9 10  2  0
  9 11  1  0
 11 12  1  0
 12 13  1  0
 13 14  2  0
 13 15  2  0
 13 16  1  0
 16 17  2  0
 17 18  1  0
 18 19  2  0
 19 20  1  0
 19 21  1  0
 21 22  2  0
 11 23  1  0
 23 24  1  0
 23 25  1  0
 22 16  1  0
  1 26  1  0
  1 27  1  0
  1 28  1  0
  2 29  1  0
  3 30  1  0
  3 31  1  0
  3 32  1  0
  4 33  1  0
  4 34  1  0
  5 35  1  1
  6 36  1  0
  8 37  1  0
 11 38  1  6
 12 39  1  0
 17 40  1  0
 18 41  1  0
 21 42  1  0
 22 43  1  0
 23 44  1  0
 24 45  1  0
 24 46  1  0
 24 47  1  0
 25 48  1  0
 25 49  1  0
 25 50  1  0
M  END
$$$$
