
     RDKit          3D

 65 68  0  0  0  0  0  0  0  0999 V2000
    6.6236    2.5627   -1.0490 C   0  0  0  0  0  0  0  0  0  0  0  0
    6.3724    2.1985    0.3097 N   0  0  0  0  0  0  0  0  0  0  0  0
    7.1614    1.0819    0.7661 C   0  0  0  0  0  0  0  0  0  0  0  0
    4.9712    2.0544    0.6021 C   0  0  0  0  0  0  0  0  0  0  0  0
    4.3562    0.8532   -0.1064 C   0  0  0  0  0  0  0  0  0  0  0  0
    2.8997    0.8329    0.2904 C   0  0  0  0  0  0  0  0  0  0  0  0
    2.1235   -0.2851   -0.2847 C   0  0  0  0  0  0  0  0  0  0  0  0
    0.7096   -0.2267    0.0979 N   0  0  0  0  0  0  0  0  0  0  0  0
   -0.2737   -0.1574   -0.8942 C   0  0  0  0  0  0  0  0  0  0  0  0
    0.0660   -0.1449   -2.1082 O   0  0  0  0  0  0  0  0  0  0  0  0
   -1.7524   -0.0951   -0.6296 C   0  0  0  0  0  0  0  0  0  0  0  0
   -1.9006   -0.0801    0.8011 N   0  0  0  0  0  0  0  0  0  0  0  0
   -2.2358    1.2122   -1.2076 C   0  0  0  0  0  0  0  0  0  0  0  0
   -3.6858    1.4071   -0.9145 C   0  0  0  0  0  0  0  0  0  0  0  0
   -4.2804    0.1205   -0.5965 N   0  0  0  0  0  0  0  0  0  0  0  0
   -5.1622   -0.0856    0.5000 C   0  0  0  0  0  0  0  0  0  0  0  0
   -4.8995   -0.9215    1.5209 N   0  0  0  0  0  0  0  0  0  0  0  0
   -5.7668   -1.0783    2.5390 C   0  0  0  0  0  0  0  0  0  0  0  0
   -6.9351   -0.4156    2.5943 N   0  0  0  0  0  0  0  0  0  0  0  0
   -7.2538    0.4353    1.6007 C   0  0  0  0  0  0  0  0  0  0  0  0
   -8.3006    1.2298    1.3482 N   0  0  0  0  0  0  0  0  0  0  0  0
   -8.1549    1.9059    0.1998 C   0  0  0  0  0  0  0  0  0  0  0  0
   -6.9198    1.5164   -0.3269 C   0  0  0  0  0  0  0  0  0  0  0  0
   -6.3577    0.5999    0.5456 C   0  0  0  0  0  0  0  0  0  0  0  0
   -3.9101   -0.9743   -1.4942 C   0  0  0  0  0  0  0  0  0  0  0  0
   -2.4473   -1.2781   -1.2636 C   0  0  0  0  0  0  0  0  0  0  0  0
    2.5874   -1.6436    0.0671 C   0  0  0  0  0  0  0  0  0  0  0  0
    3.4456   -1.8923    1.1072 C   0  0  0  0  0  0  0  0  0  0  0  0
    3.8737   -3.1944    1.3876 C   0  0  0  0  0  0  0  0  0  0  0  0
    3.4151   -4.2231    0.5979 C   0  0  0  0  0  0  0  0  0  0  0  0
    3.9154   -5.8868    0.8952 Cl  0  0  0  0  0  0  0  0  0  0  0  0
    2.5507   -4.0057   -0.4546 C   0  0  0  0  0  0  0  0  0  0  0  0
    2.1580   -2.7097   -0.6918 C   0  0  0  0  0  0  0  0  0  0  0  0
    6.0957    1.9252   -1.7795 H   0  0  0  0  0  0  0  0  0  0  0  0
    6.2612    3.5990   -1.2039 H   0  0  0  0  0  0  0  0  0  0  0  0
    7.6986    2.5154   -1.2683 H   0  0  0  0  0  0  0  0  0  0  0  0
    6.7689    0.8076    1.7830 H   0  0  0  0  0  0  0  0  0  0  0  0
    8.2176    1.3840    0.9322 H   0  0  0  0  0  0  0  0  0  0  0  0
    7.0678    0.1815    0.1277 H   0  0  0  0  0  0  0  0  0  0  0  0
    4.8198    1.8892    1.6765 H   0  0  0  0  0  0  0  0  0  0  0  0
    4.4522    2.9493    0.2193 H   0  0  0  0  0  0  0  0  0  0  0  0
    4.9005   -0.0758    0.0301 H   0  0  0  0  0  0  0  0  0  0  0  0
    4.3324    1.0658   -1.2282 H   0  0  0  0  0  0  0  0  0  0  0  0
    2.8794    0.8018    1.4104 H   0  0  0  0  0  0  0  0  0  0  0  0
    2.4746    1.8039   -0.0806 H   0  0  0  0  0  0  0  0  0  0  0  0
    2.1898   -0.2262   -1.4101 H   0  0  0  0  0  0  0  0  0  0  0  0
    0.4120   -0.2344    1.0939 H   0  0  0  0  0  0  0  0  0  0  0  0
   -1.5731   -0.9880    1.2013 H   0  0  0  0  0  0  0  0  0  0  0  0
   -1.4701    0.7503    1.2197 H   0  0  0  0  0  0  0  0  0  0  0  0
   -2.0167    1.1862   -2.3035 H   0  0  0  0  0  0  0  0  0  0  0  0
   -1.6047    2.0163   -0.7514 H   0  0  0  0  0  0  0  0  0  0  0  0
   -4.1639    1.7961   -1.8408 H   0  0  0  0  0  0  0  0  0  0  0  0
   -3.8192    2.1095   -0.0658 H   0  0  0  0  0  0  0  0  0  0  0  0
   -5.5537   -1.7547    3.3647 H   0  0  0  0  0  0  0  0  0  0  0  0
   -9.1420    1.3260    1.9582 H   0  0  0  0  0  0  0  0  0  0  0  0
   -8.8329    2.6185   -0.2614 H   0  0  0  0  0  0  0  0  0  0  0  0
   -6.4778    1.8541   -1.2343 H   0  0  0  0  0  0  0  0  0  0  0  0
   -4.5438   -1.8791   -1.2957 H   0  0  0  0  0  0  0  0  0  0  0  0
   -4.0975   -0.6198   -2.5285 H   0  0  0  0  0  0  0  0  0  0  0  0
   -2.3444   -2.1816   -0.6444 H   0  0  0  0  0  0  0  0  0  0  0  0
   -1.9623   -1.4809   -2.2534 H   0  0  0  0  0  0  0  0  0  0  0  0
    3.8167   -1.1100    1.7667 H   0  0  0  0  0  0  0  0  0  0  0  0
    4.5548   -3.3973    2.2097 H   0  0  0  0  0  0  0  0  0  0  0  0
    2.1899   -4.8238   -1.0746 H   0  0  0  0  0  0  0  0  0  0  0  0
    1.4770   -2.5205   -1.5176 H   0  0  0  0  0  0  0  0  0  0  0  0
  1  2  1  0
  2  3  1  0
  2  4  1  0
  4  5  1  0
  5  6  1  0
  6  7  1  0
  7  8  1  0
  8  9  1  0
  9 10  2  0
  9 11  1  0
 11 12  1  0
 11 13  1  0
 13 14  1  0
 14 15  1  0
 15 16  1  0
 16 17  2  0
 17 18  1  0
 18 19  2  0
 19 20  1  0
 20 21  1  0
 21 22  1  0
 22 23  2  0
 23 24  1  0
 15 25  1  0
 25 26  1  0
  7 27  1  0
 27 28  2  0
 28 29  1  0
 29 30  2  0
 30 31  1  0
 30 32  1  0
 32 33  2  0
 26 11  1  0
 33 27  1  0
 24 16  1  0
 24 20  2  0
  1 34  1  0
  1 35  1  0
  1 36  1  0
  3 37  1  0
  3 38  1  0
  3 39  1  0
  4 40  1  0
  4 41  1  0
  5 42  1  0
  5 43  1  0
  6 44  1  0
  6 45  1  0
  7 46  1  0
  8 47  1  0
 12 48  1  0
 12 49  1  0
 13 50  1  0
 13 51  1  0
 14 52  1  0
 14 53  1  0
 18 54  1  0
 21 55  1  0
 22 56  1  0
 23 57  1  0
 25 58  1  0
 25 59  1  0
 26 60  1  0
 26 61  1  0
 28 62  1  0
 29 63  1  0
 32 64  1  0
 33 65  1  0
M  END
$$$$
