
     RDKit          3D

 58 61  0  0  0  0  0  0  0  0999 V2000
    5.6679   -0.7942    2.2119 C   0  0  0  0  0  0  0  0  0  0  0  0
    6.1789    0.0285    1.0478 C   0  0  0  0  0  0  0  0  0  0  0  0
    7.0583   -0.8740    0.2172 C   0  0  0  0  0  0  0  0  0  0  0  0
    7.0199    1.1377    1.5990 C   0  0  0  0  0  0  0  0  0  0  0  0
    5.0603    0.5044    0.3321 O   0  0  0  0  0  0  0  0  0  0  0  0
    4.1460   -0.3508   -0.2385 C   0  0  0  0  0  0  0  0  0  0  0  0
    4.3153   -1.5755   -0.1171 O   0  0  0  0  0  0  0  0  0  0  0  0
    3.0075    0.0911   -0.9664 N   0  0  0  0  0  0  0  0  0  0  0  0
    2.0674   -0.8440   -1.5526 C   0  0  2  0  0  0  0  0  0  0  0  0
    1.8230   -0.5750   -3.0065 C   0  0  0  0  0  0  0  0  0  0  0  0
    0.8809    0.6250   -2.9576 C   0  0  0  0  0  0  0  0  0  0  0  0
   -0.0015    0.2367   -1.8742 N   0  0  0  0  0  0  0  0  0  0  0  0
   -1.3556    0.6370   -1.7493 C   0  0  0  0  0  0  0  0  0  0  0  0
   -1.9185    1.3854   -2.5958 O   0  0  0  0  0  0  0  0  0  0  0  0
   -2.0999    0.1998   -0.6662 O   0  0  0  0  0  0  0  0  0  0  0  0
   -3.4387    0.5812   -0.5206 C   0  0  0  0  0  0  0  0  0  0  0  0
   -4.3812   -0.6020   -0.5002 C   0  0  0  0  0  0  0  0  0  0  0  0
   -4.0266   -1.4828    0.6552 C   0  0  0  0  0  0  0  0  0  0  0  0
   -4.2258   -0.6794    1.9273 C   0  0  0  0  0  0  0  0  0  0  0  0
   -5.6305   -0.1573    2.0354 C   0  0  0  0  0  0  0  0  0  0  0  0
   -5.9389    0.7287    0.8565 C   0  0  0  0  0  0  0  0  0  0  0  0
   -5.7928   -0.0786   -0.4157 C   0  0  0  0  0  0  0  0  0  0  0  0
   -4.9785    1.9004    0.8385 C   0  0  0  0  0  0  0  0  0  0  0  0
   -3.5621    1.3704    0.7599 C   0  0  0  0  0  0  0  0  0  0  0  0
   -3.2566    0.4677    1.9368 C   0  0  0  0  0  0  0  0  0  0  0  0
    0.6992   -0.6170   -0.9408 C   0  0  0  0  0  0  0  0  0  0  0  0
    4.6820   -0.4165    2.5508 H   0  0  0  0  0  0  0  0  0  0  0  0
    6.4070   -0.7825    3.0648 H   0  0  0  0  0  0  0  0  0  0  0  0
    5.5403   -1.8350    1.8567 H   0  0  0  0  0  0  0  0  0  0  0  0
    7.3458   -0.4360   -0.7468 H   0  0  0  0  0  0  0  0  0  0  0  0
    8.0039   -1.0153    0.7956 H   0  0  0  0  0  0  0  0  0  0  0  0
    6.6258   -1.9048    0.1185 H   0  0  0  0  0  0  0  0  0  0  0  0
    6.6339    1.4875    2.5614 H   0  0  0  0  0  0  0  0  0  0  0  0
    7.1618    1.9766    0.8799 H   0  0  0  0  0  0  0  0  0  0  0  0
    8.0393    0.6998    1.8027 H   0  0  0  0  0  0  0  0  0  0  0  0
    2.8780    1.1224   -1.0603 H   0  0  0  0  0  0  0  0  0  0  0  0
    2.3964   -1.8737   -1.3322 H   0  0  0  0  0  0  0  0  0  0  0  0
    2.7283   -0.3759   -3.5929 H   0  0  0  0  0  0  0  0  0  0  0  0
    1.2669   -1.4493   -3.4214 H   0  0  0  0  0  0  0  0  0  0  0  0
    0.3678    0.6780   -3.9317 H   0  0  0  0  0  0  0  0  0  0  0  0
    1.4925    1.5066   -2.7261 H   0  0  0  0  0  0  0  0  0  0  0  0
   -3.7813    1.2399   -1.3493 H   0  0  0  0  0  0  0  0  0  0  0  0
   -4.2133   -1.1631   -1.4390 H   0  0  0  0  0  0  0  0  0  0  0  0
   -2.9365   -1.7161    0.5768 H   0  0  0  0  0  0  0  0  0  0  0  0
   -4.5906   -2.4221    0.6631 H   0  0  0  0  0  0  0  0  0  0  0  0
   -4.0512   -1.3727    2.7748 H   0  0  0  0  0  0  0  0  0  0  0  0
   -6.3673   -0.9904    2.0154 H   0  0  0  0  0  0  0  0  0  0  0  0
   -5.6884    0.4457    2.9633 H   0  0  0  0  0  0  0  0  0  0  0  0
   -6.9766    1.1066    0.8932 H   0  0  0  0  0  0  0  0  0  0  0  0
   -5.9512    0.5738   -1.2948 H   0  0  0  0  0  0  0  0  0  0  0  0
   -6.5400   -0.8906   -0.3746 H   0  0  0  0  0  0  0  0  0  0  0  0
   -5.1594    2.4573   -0.1007 H   0  0  0  0  0  0  0  0  0  0  0  0
   -5.1282    2.5095    1.7477 H   0  0  0  0  0  0  0  0  0  0  0  0
   -2.8512    2.2188    0.6912 H   0  0  0  0  0  0  0  0  0  0  0  0
   -2.2444    0.0707    1.8074 H   0  0  0  0  0  0  0  0  0  0  0  0
   -3.3624    1.0563    2.8704 H   0  0  0  0  0  0  0  0  0  0  0  0
    0.7681   -0.1602    0.0668 H   0  0  0  0  0  0  0  0  0  0  0  0
    0.1865   -1.6085   -0.9219 H   0  0  0  0  0  0  0  0  0  0  0  0
  1  2  1  0
  2  3  1  0
  2  4  1  0
  2  5  1  0
  5  6  1  0
  6  7  2  0
  6  8  1  0
  8  9  1  0
  9 10  1  0
 10 11  1  0
 11 12  1  0
 12 13  1  0
 13 14  2  0
 13 15  1  0
 15 16  1  0
 16 17  1  0
 17 18  1  0
 18 19  1  0
 19 20  1  0
 20 21  1  0
 21 22  1  0
 21 23  1  0
 23 24  1  0
 24 25  1  0
 12 26  1  0
 26  9  1  0
 24 16  1  0
 22 17  1  0
 25 19  1  0
  1 27  1  0
  1 28  1  0
  1 29  1  0
  3 30  1  0
  3 31  1  0
  3 32  1  0
  4 33  1  0
  4 34  1  0
  4 35  1  0
  8 36  1  0
  9 37  1  6
 10 38  1  0
 10 39  1  0
 11 40  1  0
 11 41  1  0
 16 42  1  0
 17 43  1  0
 18 44  1  0
 18 45  1  0
 19 46  1  0
 20 47  1  0
 20 48  1  0
 21 49  1  0
 22 50  1  0
 22 51  1  0
 23 52  1  0
 23 53  1  0
 24 54  1  0
 25 55  1  0
 25 56  1  0
 26 57  1  0
 26 58  1  0
M  END
$$$$
