
     RDKit          3D

 66 69  0  0  0  0  0  0  0  0999 V2000
   -0.1089    0.5888   -2.8670 C   0  0  0  0  0  0  0  0  0  0  0  0
    0.4974   -0.4859   -2.0027 C   0  0  1  0  0  0  0  0  0  0  0  0
    1.7911   -0.0463   -1.4061 C   0  0  0  0  0  0  0  0  0  0  0  0
    2.3837   -0.7400   -0.3722 C   0  0  0  0  0  0  0  0  0  0  0  0
    3.5841   -0.3236    0.1734 C   0  0  0  0  0  0  0  0  0  0  0  0
    4.2412    0.7981   -0.2876 C   0  0  0  0  0  0  0  0  0  0  0  0
    5.5174    1.2236    0.3065 C   0  0  0  0  0  0  0  0  0  0  0  0
    5.8741    2.5587    0.3623 C   0  0  0  0  0  0  0  0  0  0  0  0
    7.0851    2.8932    0.9318 C   0  0  0  0  0  0  0  0  0  0  0  0
    7.9296    1.9201    1.4383 C   0  0  0  0  0  0  0  0  0  0  0  0
    9.0355    2.2370    1.9574 O   0  0  0  0  0  0  0  0  0  0  0  0
    7.5839    0.6194    1.3848 N   0  0  0  0  0  0  0  0  0  0  0  0
    8.4812   -0.4141    1.9229 C   0  0  0  0  0  0  0  0  0  0  0  0
    7.6727   -1.3272    2.5897 F   0  0  0  0  0  0  0  0  0  0  0  0
    9.3283    0.1296    2.8435 F   0  0  0  0  0  0  0  0  0  0  0  0
    6.4083    0.3105    0.8305 C   0  0  0  0  0  0  0  0  0  0  0  0
    3.6533    1.4959   -1.3214 C   0  0  0  0  0  0  0  0  0  0  0  0
    2.4496    1.0748   -1.8656 C   0  0  0  0  0  0  0  0  0  0  0  0
   -0.4144   -0.8325   -0.9119 N   0  0  0  0  0  0  0  0  0  0  0  0
   -0.7287    0.1880    0.0532 C   0  0  0  0  0  0  0  0  0  0  0  0
   -1.9118   -0.1182    0.9052 C   0  0  0  0  0  0  0  0  0  0  0  0
   -2.9051   -1.0363    0.2885 C   0  0  2  0  0  0  0  0  0  0  0  0
   -3.7222   -0.5738   -0.8327 C   0  0  0  0  0  0  0  0  0  0  0  0
   -4.6579    0.5492   -0.7001 C   0  0  0  0  0  0  0  0  0  0  0  0
   -4.0183    1.8514   -0.3391 C   0  0  0  0  0  0  0  0  0  0  0  0
   -5.4437    0.7646   -2.0155 C   0  0  0  0  0  0  0  0  0  0  0  0
   -5.6624    0.3250    0.2542 O   0  0  0  0  0  0  0  0  0  0  0  0
   -3.8303   -1.5608    1.3519 C   0  0  0  0  0  0  0  0  0  0  0  0
   -3.8208   -1.0935    2.6266 C   0  0  0  0  0  0  0  0  0  0  0  0
   -4.6860   -1.6329    3.5485 C   0  0  0  0  0  0  0  0  0  0  0  0
   -5.5750   -2.6389    3.2368 C   0  0  0  0  0  0  0  0  0  0  0  0
   -5.5794   -3.1082    1.9428 C   0  0  0  0  0  0  0  0  0  0  0  0
   -4.6986   -2.5593    1.0047 C   0  0  0  0  0  0  0  0  0  0  0  0
   -2.2086   -2.2199   -0.1504 O   0  0  0  0  0  0  0  0  0  0  0  0
   -0.9751   -2.1088   -0.7868 C   0  0  0  0  0  0  0  0  0  0  0  0
   -0.3506   -3.1030   -1.2500 O   0  0  0  0  0  0  0  0  0  0  0  0
   -0.0056    1.5559   -2.3110 H   0  0  0  0  0  0  0  0  0  0  0  0
    0.3384    0.6244   -3.8727 H   0  0  0  0  0  0  0  0  0  0  0  0
   -1.1974    0.4525   -3.0080 H   0  0  0  0  0  0  0  0  0  0  0  0
    0.6076   -1.3964   -2.6233 H   0  0  0  0  0  0  0  0  0  0  0  0
    1.8539   -1.6294   -0.0132 H   0  0  0  0  0  0  0  0  0  0  0  0
    4.0359   -0.8966    0.9992 H   0  0  0  0  0  0  0  0  0  0  0  0
    5.1931    3.2915   -0.0414 H   0  0  0  0  0  0  0  0  0  0  0  0
    7.3759    3.9258    0.9824 H   0  0  0  0  0  0  0  0  0  0  0  0
    8.9827   -0.9683    1.1211 H   0  0  0  0  0  0  0  0  0  0  0  0
    6.1317   -0.7293    0.7877 H   0  0  0  0  0  0  0  0  0  0  0  0
    4.1502    2.3723   -1.6938 H   0  0  0  0  0  0  0  0  0  0  0  0
    1.9960    1.6398   -2.6863 H   0  0  0  0  0  0  0  0  0  0  0  0
    0.1827    0.2462    0.7275 H   0  0  0  0  0  0  0  0  0  0  0  0
   -0.7454    1.1776   -0.4474 H   0  0  0  0  0  0  0  0  0  0  0  0
   -2.3256    0.7840    1.3466 H   0  0  0  0  0  0  0  0  0  0  0  0
   -1.4882   -0.7262    1.7900 H   0  0  0  0  0  0  0  0  0  0  0  0
   -3.0257   -0.3996   -1.7144 H   0  0  0  0  0  0  0  0  0  0  0  0
   -4.3322   -1.4649   -1.1934 H   0  0  0  0  0  0  0  0  0  0  0  0
   -4.4912    2.6997   -0.9222 H   0  0  0  0  0  0  0  0  0  0  0  0
   -2.9515    1.9277   -0.5881 H   0  0  0  0  0  0  0  0  0  0  0  0
   -4.1240    2.1024    0.7530 H   0  0  0  0  0  0  0  0  0  0  0  0
   -5.7043   -0.2487   -2.3712 H   0  0  0  0  0  0  0  0  0  0  0  0
   -6.3731    1.3050   -1.8169 H   0  0  0  0  0  0  0  0  0  0  0  0
   -4.8053    1.3137   -2.7427 H   0  0  0  0  0  0  0  0  0  0  0  0
   -6.4077    0.9534    0.0496 H   0  0  0  0  0  0  0  0  0  0  0  0
   -3.1309   -0.2977    2.9069 H   0  0  0  0  0  0  0  0  0  0  0  0
   -4.7132   -1.2861    4.5906 H   0  0  0  0  0  0  0  0  0  0  0  0
   -6.2594   -3.0574    3.9876 H   0  0  0  0  0  0  0  0  0  0  0  0
   -6.2509   -3.8999    1.6183 H   0  0  0  0  0  0  0  0  0  0  0  0
   -4.7351   -2.9763   -0.0154 H   0  0  0  0  0  0  0  0  0  0  0  0
  1  2  1  0
  2  3  1  0
  3  4  2  0
  4  5  1  0
  5  6  2  0
  6  7  1  0
  7  8  1  0
  8  9  2  0
  9 10  1  0
 10 11  2  0
 10 12  1  0
 12 13  1  0
 13 14  1  0
 13 15  1  0
 12 16  1  0
  6 17  1  0
 17 18  2  0
  2 19  1  0
 19 20  1  0
 20 21  1  0
 21 22  1  0
 22 23  1  6
 23 24  1  0
 24 25  1  0
 24 26  1  0
 24 27  1  0
 22 28  1  0
 28 29  2  0
 29 30  1  0
 30 31  2  0
 31 32  1  0
 32 33  2  0
 22 34  1  0
 34 35  1  0
 35 36  2  0
 18  3  1  0
 35 19  1  0
 16  7  2  0
 33 28  1  0
  1 37  1  0
  1 38  1  0
  1 39  1  0
  2 40  1  6
  4 41  1  0
  5 42  1  0
  8 43  1  0
  9 44  1  0
 13 45  1  0
 16 46  1  0
 17 47  1  0
 18 48  1  0
 20 49  1  0
 20 50  1  0
 21 51  1  0
 21 52  1  0
 23 53  1  0
 23 54  1  0
 25 55  1  0
 25 56  1  0
 25 57  1  0
 26 58  1  0
 26 59  1  0
 26 60  1  0
 27 61  1  0
 29 62  1  0
 30 63  1  0
 31 64  1  0
 32 65  1  0
 33 66  1  0
M  END
$$$$
