
     RDKit          3D

 42 45  0  0  0  0  0  0  0  0999 V2000
    7.6105   -1.9110   -0.6687 C   0  0  2  0  0  0  0  0  0  0  0  0
    8.5024   -1.5063   -2.1383 Cl  0  0  0  0  0  0  0  0  0  0  0  0
    6.6769   -3.4658   -0.8349 S   0  0  0  0  0  0  0  0  0  0  0  0
    5.0523   -2.7549   -0.5544 C   0  0  0  0  0  0  0  0  0  0  0  0
    3.8013   -3.0123   -0.4724 N   0  0  0  0  0  0  0  0  0  0  0  0
    3.0249   -1.8510   -0.2017 C   0  0  0  0  0  0  0  0  0  0  0  0
    3.8789   -0.8431   -0.1191 C   0  0  0  0  0  0  0  0  0  0  0  0
    5.2452   -1.3089   -0.3328 C   0  0  0  0  0  0  0  0  0  0  0  0
    6.5024   -0.9512   -0.3983 C   0  0  0  0  0  0  0  0  0  0  0  0
    1.5940   -1.7987   -0.0530 C   0  0  0  0  0  0  0  0  0  0  0  0
    0.8993   -2.8619   -0.1589 O   0  0  0  0  0  0  0  0  0  0  0  0
    0.8794   -0.6210    0.2092 N   0  0  0  0  0  0  0  0  0  0  0  0
   -0.5285   -0.4514    0.3751 C   0  0  1  0  0  0  0  0  0  0  0  0
   -0.9712    0.1400    1.6687 C   0  0  0  0  0  0  0  0  0  0  0  0
   -2.4414    0.3490    1.6160 C   0  0  0  0  0  0  0  0  0  0  0  0
   -3.2062    0.5607    0.5036 C   0  0  0  0  0  0  0  0  0  0  0  0
   -4.5536    0.7526    0.4951 C   0  0  0  0  0  0  0  0  0  0  0  0
   -5.2334    0.7372    1.7002 C   0  0  0  0  0  0  0  0  0  0  0  0
   -4.4694    0.5229    2.8388 C   0  0  0  0  0  0  0  0  0  0  0  0
   -3.0824    0.3239    2.8632 C   0  0  0  0  0  0  0  0  0  0  0  0
   -2.5437    0.5853   -0.7793 N   0  0  0  0  0  0  0  0  0  0  0  0
   -3.2080    0.8073   -2.0363 C   0  0  0  0  0  0  0  0  0  0  0  0
   -3.2649    2.2751   -2.3677 C   0  0  0  0  0  0  0  0  0  0  0  0
   -2.6780    3.1693   -1.4157 N   0  0  0  0  0  0  0  0  0  0  0  0
   -3.6499    3.1244   -3.2124 O   0  0  0  0  0  0  0  0  0  0  0  0
   -1.1258    0.3769   -0.7177 C   0  0  0  0  0  0  0  0  0  0  0  0
   -0.3908    0.9115   -1.6115 O   0  0  0  0  0  0  0  0  0  0  0  0
    8.2532   -2.0410    0.2244 H   0  0  0  0  0  0  0  0  0  0  0  0
    3.6527    0.2148    0.0791 H   0  0  0  0  0  0  0  0  0  0  0  0
    6.8960    0.0487   -0.2709 H   0  0  0  0  0  0  0  0  0  0  0  0
    1.4539    0.2677    0.2974 H   0  0  0  0  0  0  0  0  0  0  0  0
   -0.9926   -1.4699    0.2744 H   0  0  0  0  0  0  0  0  0  0  0  0
   -0.6848   -0.4654    2.5401 H   0  0  0  0  0  0  0  0  0  0  0  0
   -0.5468    1.1853    1.7631 H   0  0  0  0  0  0  0  0  0  0  0  0
   -5.1323    0.9159   -0.3842 H   0  0  0  0  0  0  0  0  0  0  0  0
   -6.3038    0.8775    1.8238 H   0  0  0  0  0  0  0  0  0  0  0  0
   -5.0002    0.5088    3.8031 H   0  0  0  0  0  0  0  0  0  0  0  0
   -2.6294    0.1686    3.8452 H   0  0  0  0  0  0  0  0  0  0  0  0
   -2.6174    0.3057   -2.8407 H   0  0  0  0  0  0  0  0  0  0  0  0
   -4.2119    0.3390   -2.1035 H   0  0  0  0  0  0  0  0  0  0  0  0
   -2.2305    3.8968   -0.7985 H   0  0  0  0  0  0  0  0  0  0  0  0
   -2.2263    3.9489   -0.9017 H   0  0  0  0  0  0  0  0  0  0  0  0
  1  2  1  0
  1  3  1  0
  3  4  1  0
  4  5  2  0
  5  6  1  0
  6  7  2  0
  7  8  1  0
  8  9  2  0
  6 10  1  0
 10 11  2  0
 10 12  1  0
 12 13  1  0
 13 14  1  0
 14 15  1  0
 15 16  2  0
 16 17  1  0
 17 18  2  0
 18 19  1  0
 19 20  2  0
 16 21  1  0
 21 22  1  0
 22 23  1  0
 23 24  1  0
 23 25  2  0
 21 26  1  0
 26 27  2  0
  9  1  1  0
 26 13  1  0
  8  4  1  0
 20 15  1  0
  1 28  1  1
  7 29  1  0
  9 30  1  0
 12 31  1  0
 13 32  1  6
 14 33  1  0
 14 34  1  0
 17 35  1  0
 18 36  1  0
 19 37  1  0
 20 38  1  0
 22 39  1  0
 22 40  1  0
 24 41  1  0
 24 42  1  0
M  END
$$$$
