
     RDKit          3D

151154  0  0  0  0  0  0  0  0999 V2000
    5.7612    0.5680   -1.4147 C   0  0  2  0  0  0  0  0  0  0  0  0
    4.2829    0.9985   -1.1940 C   0  0  0  0  0  0  0  0  0  0  0  0
    3.5823   -0.1068   -0.5321 C   0  0  1  0  0  0  0  0  0  0  0  0
    4.3455   -0.3683    0.7997 C   0  0  0  0  0  0  0  0  0  0  0  0
    2.1193    0.0643   -0.1838 C   0  0  2  0  0  0  0  0  0  0  0  0
    1.8324    1.2065    0.7431 C   0  0  0  0  0  0  0  0  0  0  0  0
    2.0187    2.5426    0.1457 C   0  0  0  0  0  0  0  0  0  0  0  0
    1.8413    2.3555   -1.0436 O   0  0  0  0  0  0  0  0  0  0  0  0
    2.3409    3.8275    0.7851 C   0  0  2  0  0  0  0  0  0  0  0  0
    3.6459    3.7318    1.5739 C   0  0  0  0  0  0  0  0  0  0  0  0
    1.3208    4.3752    1.6907 C   0  0  0  0  0  0  0  0  0  0  0  0
    0.6186    5.5211    1.5775 C   0  0  0  0  0  0  0  0  0  0  0  0
    0.9756    6.2842    0.3477 C   0  0  0  0  0  0  0  0  0  0  0  0
   -0.3582    5.9597    2.5779 C   0  0  1  0  0  0  0  0  0  0  0  0
    0.0349    7.0763    3.3203 O   0  0  0  0  0  0  0  0  0  0  0  0
   -1.7499    6.2209    2.0367 C   0  0  1  0  0  0  0  0  0  0  0  0
   -1.7867    7.3477    1.2261 O   0  0  0  0  0  0  0  0  0  0  0  0
   -2.5238    8.3870    1.7778 C   0  0  0  0  0  0  0  0  0  0  0  0
   -2.3351    5.0339    1.3770 C   0  0  0  0  0  0  0  0  0  0  0  0
   -2.1947    4.1160    2.1969 O   0  0  0  0  0  0  0  0  0  0  0  0
   -2.9425    4.9657    0.0461 C   0  0  2  0  0  0  0  0  0  0  0  0
   -2.0190    5.4489   -1.0708 C   0  0  0  0  0  0  0  0  0  0  0  0
   -4.2670    5.6131   -0.1264 C   0  0  0  0  0  0  0  0  0  0  0  0
   -5.3948    5.0312    0.6812 C   0  0  2  0  0  0  0  0  0  0  0  0
   -5.2244    5.0863    2.1553 C   0  0  0  0  0  0  0  0  0  0  0  0
   -5.6699    3.6201    0.2758 C   0  0  0  0  0  0  0  0  0  0  0  0
   -6.7771    3.2144   -0.3391 C   0  0  0  0  0  0  0  0  0  0  0  0
   -6.9656    1.7933   -0.7076 C   0  0  0  0  0  0  0  0  0  0  0  0
   -6.0238    0.8733   -0.4307 C   0  0  0  0  0  0  0  0  0  0  0  0
   -6.1300   -0.5423   -0.7588 C   0  0  0  0  0  0  0  0  0  0  0  0
   -6.8917   -1.4356   -1.3088 C   0  0  0  0  0  0  0  0  0  0  0  0
   -8.2027   -0.9634   -1.8651 C   0  0  0  0  0  0  0  0  0  0  0  0
   -6.5158   -2.9002   -1.4475 C   0  0  2  0  0  0  0  0  0  0  0  0
   -5.2244   -3.1716   -0.7113 C   0  0  0  0  0  0  0  0  0  0  0  0
   -4.7920   -4.6483   -0.7795 C   0  0  2  0  0  0  0  0  0  0  0  0
   -5.8079   -5.5039   -0.1393 C   0  0  0  0  0  0  0  0  0  0  0  0
   -5.2305   -6.2807    1.0014 C   0  0  0  0  0  0  0  0  0  0  0  0
   -4.0263   -6.9745    0.4047 C   0  0  1  0  0  0  0  0  0  0  0  0
   -4.4950   -7.8261   -0.7522 C   0  0  0  0  0  0  0  0  0  0  0  0
   -2.9953   -5.9662   -0.0509 C   0  0  1  0  0  0  0  0  0  0  0  0
   -2.3322   -6.5487   -1.1349 O   0  0  0  0  0  0  0  0  0  0  0  0
   -3.4836   -4.7818   -0.4235 O   0  0  0  0  0  0  0  0  0  0  0  0
   -1.9906   -5.9329    1.0613 C   0  0  0  0  0  0  0  0  0  0  0  0
   -2.0136   -6.8143    1.9566 O   0  0  0  0  0  0  0  0  0  0  0  0
   -1.1530   -4.7838    0.8153 C   0  0  0  0  0  0  0  0  0  0  0  0
   -1.0155   -3.8541   -0.0015 O   0  0  0  0  0  0  0  0  0  0  0  0
   -0.0202   -4.0946    1.3931 N   0  0  0  0  0  0  0  0  0  0  0  0
    0.2207   -4.9050    2.5677 C   0  0  0  0  0  0  0  0  0  0  0  0
    1.4745   -5.7577    2.3569 C   0  0  0  0  0  0  0  0  0  0  0  0
    2.6152   -4.7276    2.3114 C   0  0  0  0  0  0  0  0  0  0  0  0
    2.3633   -3.6913    1.2719 C   0  0  0  0  0  0  0  0  0  0  0  0
    0.9905   -3.0298    1.4097 C   0  0  1  0  0  0  0  0  0  0  0  0
    0.8360   -2.0331    0.3236 C   0  0  0  0  0  0  0  0  0  0  0  0
    0.2363   -1.6453   -0.7039 O   0  0  0  0  0  0  0  0  0  0  0  0
    1.8172   -1.1207    0.5833 O   0  0  0  0  0  0  0  0  0  0  0  0
   -6.3944   -3.1713   -2.8004 O   0  0  0  0  0  0  0  0  0  0  0  0
   -7.2360   -4.1661   -3.2791 C   0  0  0  0  0  0  0  0  0  0  0  0
    6.4789    1.7382   -2.0869 C   0  0  0  0  0  0  0  0  0  0  0  0
    7.9046    1.4564   -2.4081 C   0  0  0  0  0  0  0  0  0  0  0  0
    8.3281    0.0794   -1.9992 C   0  0  1  0  0  0  0  0  0  0  0  0
    8.5007    0.0306   -0.6326 O   0  0  0  0  0  0  0  0  0  0  0  0
    9.8100   -0.2049   -0.2381 C   0  0  0  0  0  0  0  0  0  0  0  0
    9.8110   -0.2345    1.2849 C   0  0  0  0  0  0  0  0  0  0  0  0
    8.9422   -1.2808    1.6633 O   0  0  0  0  0  0  0  0  0  0  0  0
    7.3556   -0.9428   -2.4967 C   0  0  1  0  0  0  0  0  0  0  0  0
    5.9053   -0.6060   -2.3091 C   0  0  0  0  0  0  0  0  0  0  0  0
    7.6195   -1.2873   -3.8345 O   0  0  0  0  0  0  0  0  0  0  0  0
    8.0126   -2.6225   -3.9448 C   0  0  0  0  0  0  0  0  0  0  0  0
    6.2459    0.3870   -0.4527 H   0  0  0  0  0  0  0  0  0  0  0  0
    3.8727    1.2634   -2.2006 H   0  0  0  0  0  0  0  0  0  0  0  0
    4.3827    1.8699   -0.5229 H   0  0  0  0  0  0  0  0  0  0  0  0
    3.6844   -1.0426   -1.1158 H   0  0  0  0  0  0  0  0  0  0  0  0
    4.8766    0.5572    1.1137 H   0  0  0  0  0  0  0  0  0  0  0  0
    3.5942   -0.6254    1.5816 H   0  0  0  0  0  0  0  0  0  0  0  0
    5.0786   -1.1609    0.6936 H   0  0  0  0  0  0  0  0  0  0  0  0
    1.4587    0.1189   -1.0526 H   0  0  0  0  0  0  0  0  0  0  0  0
    0.7654    1.1818    1.1020 H   0  0  0  0  0  0  0  0  0  0  0  0
    2.4284    1.1780    1.6801 H   0  0  0  0  0  0  0  0  0  0  0  0
    2.5100    4.5635   -0.0312 H   0  0  0  0  0  0  0  0  0  0  0  0
    3.8725    2.6951    1.8784 H   0  0  0  0  0  0  0  0  0  0  0  0
    4.4969    4.0774    0.9417 H   0  0  0  0  0  0  0  0  0  0  0  0
    3.6120    4.3589    2.4874 H   0  0  0  0  0  0  0  0  0  0  0  0
    1.1713    3.6945    2.5483 H   0  0  0  0  0  0  0  0  0  0  0  0
    0.3568    7.1781    0.1827 H   0  0  0  0  0  0  0  0  0  0  0  0
    0.8252    5.5959   -0.5320 H   0  0  0  0  0  0  0  0  0  0  0  0
    2.0258    6.6288    0.3464 H   0  0  0  0  0  0  0  0  0  0  0  0
   -0.4731    5.1450    3.3546 H   0  0  0  0  0  0  0  0  0  0  0  0
    0.2588    7.8409    2.7672 H   0  0  0  0  0  0  0  0  0  0  0  0
   -2.3636    6.4685    2.9314 H   0  0  0  0  0  0  0  0  0  0  0  0
   -2.5515    9.2821    1.1286 H   0  0  0  0  0  0  0  0  0  0  0  0
   -2.1379    8.6502    2.7988 H   0  0  0  0  0  0  0  0  0  0  0  0
   -3.5566    8.0459    1.9400 H   0  0  0  0  0  0  0  0  0  0  0  0
   -3.0931    3.8754   -0.1935 H   0  0  0  0  0  0  0  0  0  0  0  0
   -2.6809    5.4713   -1.9846 H   0  0  0  0  0  0  0  0  0  0  0  0
   -1.2718    4.6717   -1.2851 H   0  0  0  0  0  0  0  0  0  0  0  0
   -1.6437    6.4576   -0.9198 H   0  0  0  0  0  0  0  0  0  0  0  0
   -4.2112    6.6823    0.1066 H   0  0  0  0  0  0  0  0  0  0  0  0
   -4.5990    5.5134   -1.2033 H   0  0  0  0  0  0  0  0  0  0  0  0
   -6.3077    5.5991    0.3851 H   0  0  0  0  0  0  0  0  0  0  0  0
   -4.6066    5.9483    2.4172 H   0  0  0  0  0  0  0  0  0  0  0  0
   -4.8846    4.1122    2.5794 H   0  0  0  0  0  0  0  0  0  0  0  0
   -6.2526    5.2167    2.5942 H   0  0  0  0  0  0  0  0  0  0  0  0
   -4.7735    3.1282    0.6153 H   0  0  0  0  0  0  0  0  0  0  0  0
   -7.5338    3.9434   -0.5605 H   0  0  0  0  0  0  0  0  0  0  0  0
   -7.9267    1.6123   -1.2115 H   0  0  0  0  0  0  0  0  0  0  0  0
   -5.1500    1.2593    0.0665 H   0  0  0  0  0  0  0  0  0  0  0  0
   -5.1997   -1.0120   -0.3804 H   0  0  0  0  0  0  0  0  0  0  0  0
   -8.7827   -1.8007   -2.3193 H   0  0  0  0  0  0  0  0  0  0  0  0
   -8.0679   -0.2459   -2.6983 H   0  0  0  0  0  0  0  0  0  0  0  0
   -8.8213   -0.5831   -1.0271 H   0  0  0  0  0  0  0  0  0  0  0  0
   -7.2960   -3.5499   -1.0337 H   0  0  0  0  0  0  0  0  0  0  0  0
   -4.3833   -2.6351   -1.1807 H   0  0  0  0  0  0  0  0  0  0  0  0
   -5.2516   -2.8872    0.3544 H   0  0  0  0  0  0  0  0  0  0  0  0
   -4.8189   -4.8503   -1.8774 H   0  0  0  0  0  0  0  0  0  0  0  0
   -6.6078   -4.8725    0.3058 H   0  0  0  0  0  0  0  0  0  0  0  0
   -6.2202   -6.2448   -0.8570 H   0  0  0  0  0  0  0  0  0  0  0  0
   -5.9577   -7.0927    1.2605 H   0  0  0  0  0  0  0  0  0  0  0  0
   -5.0130   -5.7154    1.9051 H   0  0  0  0  0  0  0  0  0  0  0  0
   -3.6227   -7.6602    1.1708 H   0  0  0  0  0  0  0  0  0  0  0  0
   -3.8995   -8.7455   -0.8183 H   0  0  0  0  0  0  0  0  0  0  0  0
   -4.5779   -7.2539   -1.7028 H   0  0  0  0  0  0  0  0  0  0  0  0
   -5.5413   -8.1433   -0.5209 H   0  0  0  0  0  0  0  0  0  0  0  0
   -1.8060   -5.8546   -1.6101 H   0  0  0  0  0  0  0  0  0  0  0  0
    0.5522   -4.1994    3.4141 H   0  0  0  0  0  0  0  0  0  0  0  0
   -0.6100   -5.4280    3.0163 H   0  0  0  0  0  0  0  0  0  0  0  0
    1.6268   -6.3459    3.2633 H   0  0  0  0  0  0  0  0  0  0  0  0
    1.4355   -6.3899    1.4744 H   0  0  0  0  0  0  0  0  0  0  0  0
    2.7595   -4.3282    3.3221 H   0  0  0  0  0  0  0  0  0  0  0  0
    3.5449   -5.2733    1.9953 H   0  0  0  0  0  0  0  0  0  0  0  0
    2.3411   -4.1909    0.2749 H   0  0  0  0  0  0  0  0  0  0  0  0
    3.1356   -2.9316    1.3494 H   0  0  0  0  0  0  0  0  0  0  0  0
    0.9568   -2.5675    2.4119 H   0  0  0  0  0  0  0  0  0  0  0  0
   -8.3166   -3.9524   -3.1469 H   0  0  0  0  0  0  0  0  0  0  0  0
   -7.0799   -5.1345   -2.7593 H   0  0  0  0  0  0  0  0  0  0  0  0
   -7.0480   -4.3563   -4.3656 H   0  0  0  0  0  0  0  0  0  0  0  0
    6.4273    2.6429   -1.4300 H   0  0  0  0  0  0  0  0  0  0  0  0
    5.9298    1.9305   -3.0385 H   0  0  0  0  0  0  0  0  0  0  0  0
    8.1202    1.6570   -3.4902 H   0  0  0  0  0  0  0  0  0  0  0  0
    8.5436    2.2187   -1.8775 H   0  0  0  0  0  0  0  0  0  0  0  0
    9.3523   -0.0976   -2.4586 H   0  0  0  0  0  0  0  0  0  0  0  0
   10.5398    0.5269   -0.6361 H   0  0  0  0  0  0  0  0  0  0  0  0
   10.1079   -1.2138   -0.5806 H   0  0  0  0  0  0  0  0  0  0  0  0
   10.7911   -0.4249    1.7169 H   0  0  0  0  0  0  0  0  0  0  0  0
    9.3853    0.6924    1.7137 H   0  0  0  0  0  0  0  0  0  0  0  0
    9.4392   -1.9590    2.1812 H   0  0  0  0  0  0  0  0  0  0  0  0
    7.5528   -1.9088   -1.9353 H   0  0  0  0  0  0  0  0  0  0  0  0
    5.4179   -1.5358   -1.8933 H   0  0  0  0  0  0  0  0  0  0  0  0
    5.3865   -0.4580   -3.2957 H   0  0  0  0  0  0  0  0  0  0  0  0
    8.9424   -2.7944   -3.3450 H   0  0  0  0  0  0  0  0  0  0  0  0
    8.1399   -2.8843   -4.9978 H   0  0  0  0  0  0  0  0  0  0  0  0
    7.2352   -3.2328   -3.4184 H   0  0  0  0  0  0  0  0  0  0  0  0
  1  2  1  0
  2  3  1  0
  3  4  1  0
  3  5  1  0
  5  6  1  0
  6  7  1  0
  7  8  2  0
  7  9  1  0
  9 10  1  0
  9 11  1  0
 11 12  2  0
 12 13  1  0
 12 14  1  0
 14 15  1  0
 14 16  1  0
 16 17  1  0
 17 18  1  0
 16 19  1  0
 19 20  2  0
 19 21  1  0
 21 22  1  0
 21 23  1  0
 23 24  1  0
 24 25  1  0
 24 26  1  0
 26 27  2  0
 27 28  1  0
 28 29  2  0
 29 30  1  0
 30 31  2  0
 31 32  1  0
 31 33  1  0
 33 34  1  0
 34 35  1  0
 35 36  1  0
 36 37  1  0
 37 38  1  0
 38 39  1  0
 38 40  1  0
 40 41  1  6
 40 42  1  0
 40 43  1  0
 43 44  2  0
 43 45  1  0
 45 46  2  0
 45 47  1  0
 47 48  1  0
 48 49  1  0
 49 50  1  0
 50 51  1  0
 51 52  1  0
 52 53  1  0
 53 54  2  0
 53 55  1  0
 33 56  1  0
 56 57  1  0
  1 58  1  0
 58 59  1  0
 59 60  1  0
 60 61  1  0
 61 62  1  0
 62 63  1  0
 63 64  1  0
 60 65  1  0
 65 66  1  0
 65 67  1  0
 67 68  1  0
 66  1  1  0
 55  5  1  0
 42 35  1  0
 52 47  1  0
  1 69  1  1
  2 70  1  0
  2 71  1  0
  3 72  1  6
  4 73  1  0
  4 74  1  0
  4 75  1  0
  5 76  1  6
  6 77  1  0
  6 78  1  0
  9 79  1  6
 10 80  1  0
 10 81  1  0
 10 82  1  0
 11 83  1  0
 13 84  1  0
 13 85  1  0
 13 86  1  0
 14 87  1  1
 15 88  1  0
 16 89  1  1
 18 90  1  0
 18 91  1  0
 18 92  1  0
 21 93  1  6
 22 94  1  0
 22 95  1  0
 22 96  1  0
 23 97  1  0
 23 98  1  0
 24 99  1  1
 25100  1  0
 25101  1  0
 25102  1  0
 26103  1  0
 27104  1  0
 28105  1  0
 29106  1  0
 30107  1  0
 32108  1  0
 32109  1  0
 32110  1  0
 33111  1  1
 34112  1  0
 34113  1  0
 35114  1  6
 36115  1  0
 36116  1  0
 37117  1  0
 37118  1  0
 38119  1  1
 39120  1  0
 39121  1  0
 39122  1  0
 41123  1  0
 48124  1  0
 48125  1  0
 49126  1  0
 49127  1  0
 50128  1  0
 50129  1  0
 51130  1  0
 51131  1  0
 52132  1  1
 57133  1  0
 57134  1  0
 57135  1  0
 58136  1  0
 58137  1  0
 59138  1  0
 59139  1  0
 60140  1  6
 62141  1  0
 62142  1  0
 63143  1  0
 63144  1  0
 64145  1  0
 65146  1  1
 66147  1  0
 66148  1  0
 68149  1  0
 68150  1  0
 68151  1  0
M  END
$$$$
