
     RDKit          3D

 40 41  0  0  0  0  0  0  0  0999 V2000
    5.3121    1.0340    0.0265 C   0  0  0  0  0  0  0  0  0  0  0  0
    4.4775    0.0354    0.8182 C   0  0  0  0  0  0  0  0  0  0  0  0
    4.8492   -1.3374    0.3403 C   0  0  0  0  0  0  0  0  0  0  0  0
    3.0734    0.2870    0.7595 N   0  0  0  0  0  0  0  0  0  0  0  0
    2.5819    0.2362   -0.5870 C   0  0  0  0  0  0  0  0  0  0  0  0
    1.0813    0.5168   -0.5371 C   0  0  0  0  0  0  0  0  0  0  0  0
    0.8841    1.8001    0.0258 O   0  0  0  0  0  0  0  0  0  0  0  0
    0.3599   -0.5185    0.2655 C   0  0  0  0  0  0  0  0  0  0  0  0
   -1.0096   -0.3746    0.3764 O   0  0  0  0  0  0  0  0  0  0  0  0
   -2.0034   -0.3678   -0.5268 C   0  0  0  0  0  0  0  0  0  0  0  0
   -2.0378   -0.5076   -1.8934 C   0  0  0  0  0  0  0  0  0  0  0  0
   -3.1678   -0.4755   -2.6814 C   0  0  0  0  0  0  0  0  0  0  0  0
   -4.3529   -0.2865   -2.0240 C   0  0  0  0  0  0  0  0  0  0  0  0
   -4.4300   -0.1357   -0.6576 C   0  0  0  0  0  0  0  0  0  0  0  0
   -3.2463   -0.1775    0.0881 C   0  0  0  0  0  0  0  0  0  0  0  0
   -3.4368   -0.0152    1.4546 C   0  0  0  0  0  0  0  0  0  0  0  0
   -4.6799    0.1698    2.0193 C   0  0  0  0  0  0  0  0  0  0  0  0
   -5.7992    0.1998    1.2225 C   0  0  0  0  0  0  0  0  0  0  0  0
   -5.6816    0.0453   -0.1404 C   0  0  0  0  0  0  0  0  0  0  0  0
    5.3690    0.8093   -1.0385 H   0  0  0  0  0  0  0  0  0  0  0  0
    6.3494    1.0221    0.4614 H   0  0  0  0  0  0  0  0  0  0  0  0
    4.8756    2.0463    0.2081 H   0  0  0  0  0  0  0  0  0  0  0  0
    4.7828    0.1465    1.8783 H   0  0  0  0  0  0  0  0  0  0  0  0
    4.2426   -2.1307    0.8431 H   0  0  0  0  0  0  0  0  0  0  0  0
    4.7115   -1.3901   -0.7576 H   0  0  0  0  0  0  0  0  0  0  0  0
    5.9242   -1.4780    0.6260 H   0  0  0  0  0  0  0  0  0  0  0  0
    2.8315    1.1485    1.2590 H   0  0  0  0  0  0  0  0  0  0  0  0
    2.7961   -0.7429   -1.0310 H   0  0  0  0  0  0  0  0  0  0  0  0
    3.1077    1.0040   -1.1885 H   0  0  0  0  0  0  0  0  0  0  0  0
    0.7604    0.5852   -1.5725 H   0  0  0  0  0  0  0  0  0  0  0  0
    0.0000    1.8242    0.5090 H   0  0  0  0  0  0  0  0  0  0  0  0
    0.5893   -1.5051   -0.2180 H   0  0  0  0  0  0  0  0  0  0  0  0
    0.8655   -0.6086    1.2721 H   0  0  0  0  0  0  0  0  0  0  0  0
   -1.0689   -0.6603   -2.3414 H   0  0  0  0  0  0  0  0  0  0  0  0
   -3.0502   -0.5992   -3.7496 H   0  0  0  0  0  0  0  0  0  0  0  0
   -5.2411   -0.2611   -2.6418 H   0  0  0  0  0  0  0  0  0  0  0  0
   -2.5646   -0.0385    2.0760 H   0  0  0  0  0  0  0  0  0  0  0  0
   -4.7198    0.2862    3.0929 H   0  0  0  0  0  0  0  0  0  0  0  0
   -6.7768    0.3442    1.6561 H   0  0  0  0  0  0  0  0  0  0  0  0
   -6.5585    0.0697   -0.7551 H   0  0  0  0  0  0  0  0  0  0  0  0
  1  2  1  0
  2  3  1  0
  2  4  1  0
  4  5  1  0
  5  6  1  0
  6  7  1  0
  6  8  1  0
  8  9  1  0
  9 10  1  0
 10 11  2  0
 11 12  1  0
 12 13  2  0
 13 14  1  0
 14 15  2  0
 15 16  1  0
 16 17  2  0
 17 18  1  0
 18 19  2  0
 15 10  1  0
 19 14  1  0
  1 20  1  0
  1 21  1  0
  1 22  1  0
  2 23  1  0
  3 24  1  0
  3 25  1  0
  3 26  1  0
  4 27  1  0
  5 28  1  0
  5 29  1  0
  6 30  1  0
  7 31  1  0
  8 32  1  0
  8 33  1  0
 11 34  1  0
 12 35  1  0
 13 36  1  0
 16 37  1  0
 17 38  1  0
 18 39  1  0
 19 40  1  0
M  END
$$$$
