
     RDKit          3D

 51 56  0  0  0  0  0  0  0  0999 V2000
    1.6092    0.8047   -0.8285 C   0  0  1  0  0  0  0  0  0  0  0  0
    2.0379    0.5086    0.6376 C   0  0  0  0  0  0  0  0  0  0  0  0
    2.0424   -0.9369    0.4404 N   0  0  0  0  0  0  0  0  0  0  0  0
    1.9478   -1.7400    1.5669 C   0  0  0  0  0  0  0  0  0  0  0  0
    1.2439   -3.0316    1.2248 C   0  0  0  0  0  0  0  0  0  0  0  0
   -0.0706   -2.8000    0.7119 N   0  0  0  0  0  0  0  0  0  0  0  0
   -0.6616   -1.6341    0.6092 N   0  0  0  0  0  0  0  0  0  0  0  0
   -1.8782   -1.6960    0.0686 C   0  0  0  0  0  0  0  0  0  0  0  0
   -2.7356   -0.6798   -0.1850 C   0  0  0  0  0  0  0  0  0  0  0  0
   -3.9675   -0.8827   -0.7581 C   0  0  0  0  0  0  0  0  0  0  0  0
   -4.2486   -2.2243   -1.0526 C   0  0  0  0  0  0  0  0  0  0  0  0
   -3.3503   -3.2502   -0.7844 C   0  0  0  0  0  0  0  0  0  0  0  0
   -2.1181   -3.0207   -0.2086 C   0  0  0  0  0  0  0  0  0  0  0  0
   -0.9785   -3.6763    0.2021 C   0  0  0  0  0  0  0  0  0  0  0  0
   -0.8954   -4.9404    0.0733 O   0  0  0  0  0  0  0  0  0  0  0  0
   -2.4191    0.7180    0.0835 C   0  0  0  0  0  0  0  0  0  0  0  0
   -1.2375    1.1766   -0.2722 N   0  0  0  0  0  0  0  0  0  0  0  0
   -0.8027    2.4107   -0.1175 C   0  0  0  0  0  0  0  0  0  0  0  0
   -1.7388    3.2174    0.4773 C   0  0  0  0  0  0  0  0  0  0  0  0
   -2.9561    2.8062    0.8605 N   0  0  0  0  0  0  0  0  0  0  0  0
   -3.3640    1.5177    0.6811 C   0  0  0  0  0  0  0  0  0  0  0  0
   -4.4661    1.0039    0.9917 O   0  0  0  0  0  0  0  0  0  0  0  0
   -1.5048    4.5715    0.7450 C   0  0  0  0  0  0  0  0  0  0  0  0
   -0.2704    5.0884    0.3841 C   0  0  0  0  0  0  0  0  0  0  0  0
    0.6633    4.2488   -0.2179 C   0  0  0  0  0  0  0  0  0  0  0  0
    0.4199    2.9073   -0.4783 C   0  0  0  0  0  0  0  0  0  0  0  0
    1.4215    2.1332   -1.0878 O   0  0  0  0  0  0  0  0  0  0  0  0
    3.0724   -1.0807   -0.5120 C   0  0  2  0  0  0  0  0  0  0  0  0
    4.4674   -0.8831    0.0232 C   0  0  0  0  0  0  0  0  0  0  0  0
    2.7732    0.0986   -1.4882 C   0  0  0  0  0  0  0  0  0  0  0  0
    0.7311    0.1542   -1.0256 H   0  0  0  0  0  0  0  0  0  0  0  0
    1.3339    0.8802    1.3631 H   0  0  0  0  0  0  0  0  0  0  0  0
    3.0453    0.9324    0.7399 H   0  0  0  0  0  0  0  0  0  0  0  0
    2.9261   -1.9740    2.0634 H   0  0  0  0  0  0  0  0  0  0  0  0
    1.3146   -1.2821    2.3877 H   0  0  0  0  0  0  0  0  0  0  0  0
    1.8385   -3.4619    0.3652 H   0  0  0  0  0  0  0  0  0  0  0  0
    1.2625   -3.7558    2.0618 H   0  0  0  0  0  0  0  0  0  0  0  0
   -0.3938   -0.6764    0.8792 H   0  0  0  0  0  0  0  0  0  0  0  0
   -4.6579   -0.0806   -0.9708 H   0  0  0  0  0  0  0  0  0  0  0  0
   -5.2045   -2.4804   -1.5086 H   0  0  0  0  0  0  0  0  0  0  0  0
   -3.5679   -4.2910   -1.0132 H   0  0  0  0  0  0  0  0  0  0  0  0
   -3.6740    3.4309    1.3185 H   0  0  0  0  0  0  0  0  0  0  0  0
   -2.2420    5.2214    1.2170 H   0  0  0  0  0  0  0  0  0  0  0  0
   -0.0253    6.1369    0.5653 H   0  0  0  0  0  0  0  0  0  0  0  0
    1.6205    4.7252   -0.4774 H   0  0  0  0  0  0  0  0  0  0  0  0
    2.9797   -2.0457   -1.0153 H   0  0  0  0  0  0  0  0  0  0  0  0
    4.5071   -0.7833    1.1255 H   0  0  0  0  0  0  0  0  0  0  0  0
    5.1051   -1.7791   -0.2238 H   0  0  0  0  0  0  0  0  0  0  0  0
    4.9445    0.0116   -0.4205 H   0  0  0  0  0  0  0  0  0  0  0  0
    3.6390    0.7597   -1.5617 H   0  0  0  0  0  0  0  0  0  0  0  0
    2.4819   -0.3771   -2.4471 H   0  0  0  0  0  0  0  0  0  0  0  0
  1  2  1  0
  2  3  1  0
  3  4  1  0
  4  5  1  0
  5  6  1  0
  6  7  1  0
  7  8  1  0
  8  9  2  0
  9 10  1  0
 10 11  2  0
 11 12  1  0
 12 13  2  0
 13 14  1  0
 14 15  2  0
  9 16  1  0
 16 17  2  0
 17 18  1  0
 18 19  2  0
 19 20  1  0
 20 21  1  0
 21 22  2  0
 19 23  1  0
 23 24  2  0
 24 25  1  0
 25 26  2  0
 26 27  1  0
  3 28  1  0
 28 29  1  0
 28 30  1  0
 27  1  1  0
 30  1  1  0
 14  6  1  0
 21 16  1  0
 13  8  1  0
 26 18  1  0
  1 31  1  6
  2 32  1  0
  2 33  1  0
  4 34  1  0
  4 35  1  0
  5 36  1  0
  5 37  1  0
  7 38  1  0
 10 39  1  0
 11 40  1  0
 12 41  1  0
 20 42  1  0
 23 43  1  0
 24 44  1  0
 25 45  1  0
 28 46  1  6
 29 47  1  0
 29 48  1  0
 29 49  1  0
 30 50  1  0
 30 51  1  0
M  END
$$$$
