
     RDKit          3D

 70 74  0  0  0  0  0  0  0  0999 V2000
   -0.4758    2.9778    1.3385 C   0  0  0  0  0  0  0  0  0  0  0  0
   -0.2610    2.2463    0.0345 C   0  0  1  0  0  0  0  0  0  0  0  0
    1.0838    1.6048   -0.0097 C   0  0  0  0  0  0  0  0  0  0  0  0
    1.4765    0.7955   -1.0546 C   0  0  0  0  0  0  0  0  0  0  0  0
    2.7220    0.2003   -1.1023 C   0  0  0  0  0  0  0  0  0  0  0  0
    3.6398    0.3925   -0.0924 C   0  0  0  0  0  0  0  0  0  0  0  0
    4.9656   -0.2171   -0.1013 C   0  0  0  0  0  0  0  0  0  0  0  0
    5.1761   -1.4382   -0.6780 C   0  0  0  0  0  0  0  0  0  0  0  0
    6.4506   -1.9542   -0.6504 C   0  0  0  0  0  0  0  0  0  0  0  0
    7.4983   -1.3292   -0.0907 N   0  0  0  0  0  0  0  0  0  0  0  0
    8.8376   -1.8716   -0.0613 C   0  0  0  0  0  0  0  0  0  0  0  0
    9.6277   -2.0575   -1.2870 C   0  0  0  0  0  0  0  0  0  0  0  0
    9.9218   -0.8720   -0.3807 C   0  0  0  0  0  0  0  0  0  0  0  0
    7.3035   -0.1306    0.4780 C   0  0  0  0  0  0  0  0  0  0  0  0
    8.2611    0.4986    1.0191 O   0  0  0  0  0  0  0  0  0  0  0  0
    6.0526    0.4194    0.4733 C   0  0  0  0  0  0  0  0  0  0  0  0
    3.2554    1.2003    0.9565 C   0  0  0  0  0  0  0  0  0  0  0  0
    2.0097    1.7922    0.9985 C   0  0  0  0  0  0  0  0  0  0  0  0
   -1.3336    1.3854   -0.3279 N   0  0  0  0  0  0  0  0  0  0  0  0
   -2.1923    1.5955   -1.5025 C   0  0  0  0  0  0  0  0  0  0  0  0
   -3.6070    1.6290   -0.9102 C   0  0  0  0  0  0  0  0  0  0  0  0
   -3.9918    0.2308   -0.3761 C   0  0  2  0  0  0  0  0  0  0  0  0
   -4.5103   -0.5268   -1.5302 C   0  0  0  0  0  0  0  0  0  0  0  0
   -4.9429   -1.9258   -1.3253 C   0  0  0  0  0  0  0  0  0  0  0  0
   -3.7869   -2.7969   -0.8096 C   0  0  0  0  0  0  0  0  0  0  0  0
   -6.1843   -2.1790   -0.5643 C   0  0  0  0  0  0  0  0  0  0  0  0
   -5.1771   -2.4523   -2.6269 O   0  0  0  0  0  0  0  0  0  0  0  0
   -4.9171    0.5173    0.7210 C   0  0  0  0  0  0  0  0  0  0  0  0
   -6.2741    0.7418    0.5572 C   0  0  0  0  0  0  0  0  0  0  0  0
   -7.0888    1.0040    1.6330 C   0  0  0  0  0  0  0  0  0  0  0  0
   -6.5971    1.0563    2.9218 C   0  0  0  0  0  0  0  0  0  0  0  0
   -5.2460    0.8331    3.0866 C   0  0  0  0  0  0  0  0  0  0  0  0
   -4.4239    0.5691    2.0071 C   0  0  0  0  0  0  0  0  0  0  0  0
   -2.8408   -0.4119    0.1639 O   0  0  0  0  0  0  0  0  0  0  0  0
   -1.6513    0.2385    0.4461 C   0  0  0  0  0  0  0  0  0  0  0  0
   -0.8307   -0.1029    1.3303 O   0  0  0  0  0  0  0  0  0  0  0  0
    0.3140    3.7856    1.3678 H   0  0  0  0  0  0  0  0  0  0  0  0
   -0.3265    2.3686    2.2229 H   0  0  0  0  0  0  0  0  0  0  0  0
   -1.4375    3.5279    1.3226 H   0  0  0  0  0  0  0  0  0  0  0  0
   -0.2287    3.0683   -0.7437 H   0  0  0  0  0  0  0  0  0  0  0  0
    0.7478    0.6410   -1.8594 H   0  0  0  0  0  0  0  0  0  0  0  0
    3.0234   -0.4307   -1.9208 H   0  0  0  0  0  0  0  0  0  0  0  0
    4.3787   -2.0103   -1.1537 H   0  0  0  0  0  0  0  0  0  0  0  0
    6.6358   -2.9182   -1.1012 H   0  0  0  0  0  0  0  0  0  0  0  0
    9.0279   -2.5684    0.7854 H   0  0  0  0  0  0  0  0  0  0  0  0
    9.1646   -1.8492   -2.2727 H   0  0  0  0  0  0  0  0  0  0  0  0
   10.3971   -2.8593   -1.2700 H   0  0  0  0  0  0  0  0  0  0  0  0
    9.6651    0.1043   -0.8143 H   0  0  0  0  0  0  0  0  0  0  0  0
   10.8288   -0.9114    0.2534 H   0  0  0  0  0  0  0  0  0  0  0  0
    5.9390    1.4047    0.9513 H   0  0  0  0  0  0  0  0  0  0  0  0
    3.9831    1.3561    1.7633 H   0  0  0  0  0  0  0  0  0  0  0  0
    1.7513    2.4154    1.8356 H   0  0  0  0  0  0  0  0  0  0  0  0
   -2.1166    0.7557   -2.1971 H   0  0  0  0  0  0  0  0  0  0  0  0
   -2.0321    2.5788   -1.9503 H   0  0  0  0  0  0  0  0  0  0  0  0
   -4.3447    1.9870   -1.6268 H   0  0  0  0  0  0  0  0  0  0  0  0
   -3.5448    2.3340   -0.0548 H   0  0  0  0  0  0  0  0  0  0  0  0
   -5.3055    0.0145   -2.0892 H   0  0  0  0  0  0  0  0  0  0  0  0
   -3.6602   -0.5733   -2.2794 H   0  0  0  0  0  0  0  0  0  0  0  0
   -2.8846   -2.5286   -1.3996 H   0  0  0  0  0  0  0  0  0  0  0  0
   -3.5793   -2.6269    0.2444 H   0  0  0  0  0  0  0  0  0  0  0  0
   -4.0709   -3.8514   -0.9904 H   0  0  0  0  0  0  0  0  0  0  0  0
   -6.4673   -3.2631   -0.7607 H   0  0  0  0  0  0  0  0  0  0  0  0
   -6.1151   -2.1221    0.5283 H   0  0  0  0  0  0  0  0  0  0  0  0
   -7.0544   -1.6028   -0.9268 H   0  0  0  0  0  0  0  0  0  0  0  0
   -4.3615   -2.3071   -3.1389 H   0  0  0  0  0  0  0  0  0  0  0  0
   -6.6303    0.6977   -0.4625 H   0  0  0  0  0  0  0  0  0  0  0  0
   -8.1496    1.1746    1.4572 H   0  0  0  0  0  0  0  0  0  0  0  0
   -7.2644    1.2664    3.7595 H   0  0  0  0  0  0  0  0  0  0  0  0
   -4.8572    0.8735    4.0947 H   0  0  0  0  0  0  0  0  0  0  0  0
   -3.3748    0.4061    2.2322 H   0  0  0  0  0  0  0  0  0  0  0  0
  1  2  1  0
  2  3  1  0
  3  4  2  0
  4  5  1  0
  5  6  2  0
  6  7  1  0
  7  8  1  0
  8  9  2  0
  9 10  1  0
 10 11  1  0
 11 12  1  0
 12 13  1  0
 10 14  1  0
 14 15  2  0
 14 16  1  0
  6 17  1  0
 17 18  2  0
  2 19  1  0
 19 20  1  0
 20 21  1  0
 21 22  1  0
 22 23  1  6
 23 24  1  0
 24 25  1  0
 24 26  1  0
 24 27  1  0
 22 28  1  0
 28 29  2  0
 29 30  1  0
 30 31  2  0
 31 32  1  0
 32 33  2  0
 22 34  1  0
 34 35  1  0
 35 36  2  0
 18  3  1  0
 35 19  1  0
 16  7  2  0
 33 28  1  0
 13 11  1  0
  1 37  1  0
  1 38  1  0
  1 39  1  0
  2 40  1  6
  4 41  1  0
  5 42  1  0
  8 43  1  0
  9 44  1  0
 11 45  1  0
 12 46  1  0
 12 47  1  0
 13 48  1  0
 13 49  1  0
 16 50  1  0
 17 51  1  0
 18 52  1  0
 20 53  1  0
 20 54  1  0
 21 55  1  0
 21 56  1  0
 23 57  1  0
 23 58  1  0
 25 59  1  0
 25 60  1  0
 25 61  1  0
 26 62  1  0
 26 63  1  0
 26 64  1  0
 27 65  1  0
 29 66  1  0
 30 67  1  0
 31 68  1  0
 32 69  1  0
 33 70  1  0
M  END
$$$$
