
     RDKit          3D

 41 43  0  0  0  0  0  0  0  0999 V2000
   -2.1871   -1.4896    1.7839 O   0  0  0  0  0  0  0  0  0  0  0  0
   -1.9578   -0.5737    0.8587 C   0  0  0  0  0  0  0  0  0  0  0  0
   -3.0174   -0.4218   -0.0378 N   0  0  0  0  0  0  0  0  0  0  0  0
   -4.2157   -1.2713    0.1600 C   0  0  0  0  0  0  0  0  0  0  0  0
   -5.4773   -0.4707    0.0290 C   0  0  0  0  0  0  0  0  0  0  0  0
   -5.2586    0.7636   -0.5928 O   0  0  0  0  0  0  0  0  0  0  0  0
   -4.4258    0.6197   -1.6981 C   0  0  0  0  0  0  0  0  0  0  0  0
   -2.9953    0.5085   -1.1313 C   0  0  0  0  0  0  0  0  0  0  0  0
   -0.7208    0.0771    0.9284 N   0  0  0  0  0  0  0  0  0  0  0  0
   -0.2563    1.0878    0.0569 C   0  0  0  0  0  0  0  0  0  0  0  0
    1.2339    1.3805    0.2455 C   0  0  0  0  0  0  0  0  0  0  0  0
    2.0032    0.2129    0.5757 N   0  0  0  0  0  0  0  0  0  0  0  0
    3.3589    0.0860    0.2188 C   0  0  0  0  0  0  0  0  0  0  0  0
    4.0427   -1.0911    0.3855 C   0  0  0  0  0  0  0  0  0  0  0  0
    5.3896   -1.1904    0.0302 C   0  0  0  0  0  0  0  0  0  0  0  0
    6.0289   -0.0918   -0.4915 C   0  0  0  0  0  0  0  0  0  0  0  0
    8.0797   -0.2536   -1.0293 I   0  0  0  0  0  0  0  0  0  0  0  0
    5.3617    1.1012   -0.6679 C   0  0  0  0  0  0  0  0  0  0  0  0
    4.0288    1.1646   -0.3054 C   0  0  0  0  0  0  0  0  0  0  0  0
    1.4055   -0.9002    1.3126 C   0  0  0  0  0  0  0  0  0  0  0  0
    0.1856   -0.3316    2.0131 C   0  0  0  0  0  0  0  0  0  0  0  0
   -4.1820   -1.7136    1.1647 H   0  0  0  0  0  0  0  0  0  0  0  0
   -4.1905   -2.0855   -0.5797 H   0  0  0  0  0  0  0  0  0  0  0  0
   -6.2456   -1.0502   -0.5314 H   0  0  0  0  0  0  0  0  0  0  0  0
   -5.8813   -0.2423    1.0320 H   0  0  0  0  0  0  0  0  0  0  0  0
   -4.4564    1.5383   -2.2844 H   0  0  0  0  0  0  0  0  0  0  0  0
   -4.6435   -0.3015   -2.2562 H   0  0  0  0  0  0  0  0  0  0  0  0
   -2.3876    0.1747   -1.9976 H   0  0  0  0  0  0  0  0  0  0  0  0
   -2.6955    1.5003   -0.8010 H   0  0  0  0  0  0  0  0  0  0  0  0
   -0.7617    2.0536    0.3189 H   0  0  0  0  0  0  0  0  0  0  0  0
   -0.4321    0.8399   -0.9902 H   0  0  0  0  0  0  0  0  0  0  0  0
    1.3456    2.1248    1.0561 H   0  0  0  0  0  0  0  0  0  0  0  0
    1.5671    1.7957   -0.7270 H   0  0  0  0  0  0  0  0  0  0  0  0
    3.5567   -1.9901    0.7999 H   0  0  0  0  0  0  0  0  0  0  0  0
    5.8927   -2.1187    0.1721 H   0  0  0  0  0  0  0  0  0  0  0  0
    5.9284    1.9190   -1.0823 H   0  0  0  0  0  0  0  0  0  0  0  0
    3.5294    2.1121   -0.4510 H   0  0  0  0  0  0  0  0  0  0  0  0
    2.1257   -1.3078    2.0558 H   0  0  0  0  0  0  0  0  0  0  0  0
    1.0675   -1.6266    0.5593 H   0  0  0  0  0  0  0  0  0  0  0  0
    0.5009    0.5795    2.5336 H   0  0  0  0  0  0  0  0  0  0  0  0
   -0.2444   -1.1174    2.6473 H   0  0  0  0  0  0  0  0  0  0  0  0
  1  2  2  0
  2  3  1  0
  3  4  1  0
  4  5  1  0
  5  6  1  0
  6  7  1  0
  7  8  1  0
  2  9  1  0
  9 10  1  0
 10 11  1  0
 11 12  1  0
 12 13  1  0
 13 14  2  0
 14 15  1  0
 15 16  2  0
 16 17  1  0
 16 18  1  0
 18 19  2  0
 12 20  1  0
 20 21  1  0
  8  3  1  0
 21  9  1  0
 19 13  1  0
  4 22  1  0
  4 23  1  0
  5 24  1  0
  5 25  1  0
  7 26  1  0
  7 27  1  0
  8 28  1  0
  8 29  1  0
 10 30  1  0
 10 31  1  0
 11 32  1  0
 11 33  1  0
 14 34  1  0
 15 35  1  0
 18 36  1  0
 19 37  1  0
 20 38  1  0
 20 39  1  0
 21 40  1  0
 21 41  1  0
M  END
$$$$
