
     RDKit          3D

 56 59  0  0  0  0  0  0  0  0999 V2000
   -2.8718   -0.3078   -3.2992 C   0  0  0  0  0  0  0  0  0  0  0  0
   -3.9743   -0.9633   -2.4954 C   0  0  0  0  0  0  0  0  0  0  0  0
   -3.8762   -0.4460   -1.1434 N   0  0  0  0  0  0  0  0  0  0  0  0
   -2.6352   -0.7133   -0.5073 C   0  0  0  0  0  0  0  0  0  0  0  0
   -1.8776   -1.6109   -1.1423 N   0  0  0  0  0  0  0  0  0  0  0  0
   -0.6695   -1.9968   -0.6979 C   0  0  0  0  0  0  0  0  0  0  0  0
   -0.1659   -1.4640    0.4540 C   0  0  0  0  0  0  0  0  0  0  0  0
    1.1809   -1.8616    0.9932 C   0  0  0  0  0  0  0  0  0  0  0  0
    2.1816   -0.9253    0.3988 C   0  0  0  0  0  0  0  0  0  0  0  0
    3.5026   -1.1927    0.8287 O   0  0  0  0  0  0  0  0  0  0  0  0
    4.5982   -0.4693    0.4217 C   0  0  0  0  0  0  0  0  0  0  0  0
    4.5742    0.5985   -0.4447 C   0  0  0  0  0  0  0  0  0  0  0  0
    5.6993    1.2905   -0.8216 C   0  0  0  0  0  0  0  0  0  0  0  0
    6.9324    0.9243   -0.3261 C   0  0  0  0  0  0  0  0  0  0  0  0
    8.1310    1.6449   -0.7142 C   0  0  0  0  0  0  0  0  0  0  0  0
    9.2522    1.3170   -0.2679 O   0  0  0  0  0  0  0  0  0  0  0  0
    8.0336    2.7045   -1.5859 O   0  0  0  0  0  0  0  0  0  0  0  0
    6.9737   -0.1548    0.5522 C   0  0  0  0  0  0  0  0  0  0  0  0
    5.8342   -0.8311    0.9140 C   0  0  0  0  0  0  0  0  0  0  0  0
    5.9568   -1.9833    1.8646 C   0  0  0  0  0  0  0  0  0  0  0  0
   -0.8851   -0.5306    1.1701 C   0  0  0  0  0  0  0  0  0  0  0  0
   -2.1178   -0.1733    0.6658 C   0  0  0  0  0  0  0  0  0  0  0  0
   -2.7841    0.8073    1.4906 C   0  0  0  0  0  0  0  0  0  0  0  0
   -2.0537    1.3145    2.3797 O   0  0  0  0  0  0  0  0  0  0  0  0
   -4.1123    1.3123    1.4915 N   0  0  0  0  0  0  0  0  0  0  0  0
   -4.5098    2.2131    2.5708 C   0  0  0  0  0  0  0  0  0  0  0  0
   -5.0992    1.0074    0.5129 C   0  0  0  0  0  0  0  0  0  0  0  0
   -6.3191    1.5796    0.7905 C   0  0  0  0  0  0  0  0  0  0  0  0
   -7.4114    1.3918   -0.0582 C   0  0  0  0  0  0  0  0  0  0  0  0
   -7.2448    0.6147   -1.1913 C   0  0  0  0  0  0  0  0  0  0  0  0
   -8.2998    0.4330   -2.0114 F   0  0  0  0  0  0  0  0  0  0  0  0
   -6.0513    0.0737   -1.4332 N   0  0  0  0  0  0  0  0  0  0  0  0
   -4.9926    0.2439   -0.6293 C   0  0  0  0  0  0  0  0  0  0  0  0
   -1.9945   -0.9775   -3.4335 H   0  0  0  0  0  0  0  0  0  0  0  0
   -3.2350   -0.0440   -4.2950 H   0  0  0  0  0  0  0  0  0  0  0  0
   -2.5103    0.6328   -2.7983 H   0  0  0  0  0  0  0  0  0  0  0  0
   -4.9594   -0.8410   -2.9438 H   0  0  0  0  0  0  0  0  0  0  0  0
   -3.7119   -2.0456   -2.4314 H   0  0  0  0  0  0  0  0  0  0  0  0
   -0.0559   -2.7269   -1.2165 H   0  0  0  0  0  0  0  0  0  0  0  0
    1.1004   -1.8184    2.0928 H   0  0  0  0  0  0  0  0  0  0  0  0
    1.3778   -2.9205    0.6844 H   0  0  0  0  0  0  0  0  0  0  0  0
    1.9377    0.1018    0.7693 H   0  0  0  0  0  0  0  0  0  0  0  0
    2.1017   -0.9807   -0.6934 H   0  0  0  0  0  0  0  0  0  0  0  0
    3.6271    0.9121   -0.8514 H   0  0  0  0  0  0  0  0  0  0  0  0
    5.6614    2.1385   -1.5127 H   0  0  0  0  0  0  0  0  0  0  0  0
    8.8180    3.3321   -1.8088 H   0  0  0  0  0  0  0  0  0  0  0  0
    7.9438   -0.4416    0.9409 H   0  0  0  0  0  0  0  0  0  0  0  0
    5.9699   -2.8983    1.2180 H   0  0  0  0  0  0  0  0  0  0  0  0
    6.8914   -1.9289    2.4494 H   0  0  0  0  0  0  0  0  0  0  0  0
    5.0419   -1.9515    2.4934 H   0  0  0  0  0  0  0  0  0  0  0  0
   -0.5228   -0.0851    2.0855 H   0  0  0  0  0  0  0  0  0  0  0  0
   -3.5818    2.3670    3.1974 H   0  0  0  0  0  0  0  0  0  0  0  0
   -5.2425    1.7574    3.2538 H   0  0  0  0  0  0  0  0  0  0  0  0
   -4.7784    3.2159    2.2079 H   0  0  0  0  0  0  0  0  0  0  0  0
   -6.4418    2.1741    1.6596 H   0  0  0  0  0  0  0  0  0  0  0  0
   -8.3362    1.8578    0.2025 H   0  0  0  0  0  0  0  0  0  0  0  0
  1  2  1  0
  2  3  1  0
  3  4  1  0
  4  5  2  0
  5  6  1  0
  6  7  2  0
  7  8  1  0
  8  9  1  0
  9 10  1  0
 10 11  1  0
 11 12  2  0
 12 13  1  0
 13 14  2  0
 14 15  1  0
 15 16  2  0
 15 17  1  0
 14 18  1  0
 18 19  2  0
 19 20  1  0
  7 21  1  0
 21 22  2  0
 22 23  1  0
 23 24  2  0
 23 25  1  0
 25 26  1  0
 25 27  1  0
 27 28  2  0
 28 29  1  0
 29 30  2  0
 30 31  1  0
 30 32  1  0
 32 33  2  0
 33  3  1  0
 22  4  1  0
 33 27  1  0
 19 11  1  0
  1 34  1  0
  1 35  1  0
  1 36  1  0
  2 37  1  0
  2 38  1  0
  6 39  1  0
  8 40  1  0
  8 41  1  0
  9 42  1  0
  9 43  1  0
 12 44  1  0
 13 45  1  0
 17 46  1  0
 18 47  1  0
 20 48  1  0
 20 49  1  0
 20 50  1  0
 21 51  1  0
 26 52  1  0
 26 53  1  0
 26 54  1  0
 28 55  1  0
 29 56  1  0
M  END
$$$$
