
     RDKit          3D

 33 34  0  0  0  0  0  0  0  0999 V2000
   -1.7531    2.7445    0.6891 O   0  0  0  0  0  0  0  0  0  0  0  0
   -2.0414    2.2638   -0.6058 C   0  0  0  0  0  0  0  0  0  0  0  0
   -1.1850    1.0364   -0.8328 C   0  0  1  0  0  0  0  0  0  0  0  0
    0.1713    1.3265   -0.7396 O   0  0  0  0  0  0  0  0  0  0  0  0
    0.7218    0.1002   -0.4378 C   0  0  2  0  0  0  0  0  0  0  0  0
   -0.1289   -0.3075    0.7711 C   0  0  0  0  0  0  0  0  0  0  0  0
   -1.5141   -0.0209    0.1783 C   0  0  2  0  0  0  0  0  0  0  0  0
   -1.8705   -1.1677   -0.5421 O   0  0  0  0  0  0  0  0  0  0  0  0
   -3.3272   -1.8181   -0.0341 P   0  0  0  0  0  0  0  0  0  0  0  0
   -3.7921   -1.2479    1.4891 O   0  0  0  0  0  0  0  0  0  0  0  0
   -4.4806   -1.5057   -1.2237 O   0  0  0  0  0  0  0  0  0  0  0  0
   -3.2215   -3.3386    0.1097 O   0  0  0  0  0  0  0  0  0  0  0  0
    2.1136    0.0944   -0.1395 N   0  0  0  0  0  0  0  0  0  0  0  0
    2.9033    1.0880    0.2439 C   0  0  0  0  0  0  0  0  0  0  0  0
    4.2491    0.8939    0.4919 C   0  0  0  0  0  0  0  0  0  0  0  0
    4.8364   -0.3540    0.3502 C   0  0  0  0  0  0  0  0  0  0  0  0
    6.0510   -0.5686    0.5655 O   0  0  0  0  0  0  0  0  0  0  0  0
    4.0048   -1.3506   -0.0430 N   0  0  0  0  0  0  0  0  0  0  0  0
    2.6806   -1.1395   -0.2826 C   0  0  0  0  0  0  0  0  0  0  0  0
    2.0491   -2.1839   -0.6429 O   0  0  0  0  0  0  0  0  0  0  0  0
   -2.3188    3.5390    0.8895 H   0  0  0  0  0  0  0  0  0  0  0  0
   -3.1089    1.9654   -0.5796 H   0  0  0  0  0  0  0  0  0  0  0  0
   -1.8897    3.0324   -1.3625 H   0  0  0  0  0  0  0  0  0  0  0  0
   -1.3577    0.7103   -1.8882 H   0  0  0  0  0  0  0  0  0  0  0  0
    0.4564   -0.5842   -1.2689 H   0  0  0  0  0  0  0  0  0  0  0  0
   -0.0183   -1.3657    1.0338 H   0  0  0  0  0  0  0  0  0  0  0  0
   -0.0013    0.4023    1.5873 H   0  0  0  0  0  0  0  0  0  0  0  0
   -2.2313    0.2660    0.9477 H   0  0  0  0  0  0  0  0  0  0  0  0
   -3.2532   -1.7386    2.1581 H   0  0  0  0  0  0  0  0  0  0  0  0
   -4.4524   -2.2653   -1.8791 H   0  0  0  0  0  0  0  0  0  0  0  0
    2.4048    2.0392    0.3410 H   0  0  0  0  0  0  0  0  0  0  0  0
    4.8606    1.7382    0.8048 H   0  0  0  0  0  0  0  0  0  0  0  0
    4.4431   -2.2836   -0.1490 H   0  0  0  0  0  0  0  0  0  0  0  0
  1  2  1  0
  2  3  1  0
  3  4  1  0
  4  5  1  0
  5  6  1  0
  6  7  1  0
  7  8  1  0
  8  9  1  0
  9 10  1  0
  9 11  1  0
  9 12  2  0
  5 13  1  0
 13 14  1  0
 14 15  2  0
 15 16  1  0
 16 17  2  0
 16 18  1  0
 18 19  1  0
 19 20  2  0
  7  3  1  0
 19 13  1  0
  1 21  1  0
  2 22  1  0
  2 23  1  0
  3 24  1  6
  5 25  1  6
  6 26  1  0
  6 27  1  0
  7 28  1  1
 10 29  1  0
 11 30  1  0
 14 31  1  0
 15 32  1  0
 18 33  1  0
M  END
$$$$
