
     RDKit          3D

 62 64  0  0  0  0  0  0  0  0999 V2000
   -6.4959   -2.2516    1.4465 C   0  0  0  0  0  0  0  0  0  0  0  0
   -6.8541   -0.8220    1.6946 C   0  0  0  0  0  0  0  0  0  0  0  0
   -6.9636    0.0153    0.4536 C   0  0  0  0  0  0  0  0  0  0  0  0
   -7.9953   -0.4688   -0.5102 C   0  0  0  0  0  0  0  0  0  0  0  0
   -7.4068    1.4122    0.9180 C   0  0  0  0  0  0  0  0  0  0  0  0
   -5.6856    0.2101   -0.2473 C   0  0  0  0  0  0  0  0  0  0  0  0
   -4.4911   -0.2840    0.1658 C   0  0  0  0  0  0  0  0  0  0  0  0
   -3.3157   -0.0549   -0.5614 C   0  0  0  0  0  0  0  0  0  0  0  0
   -3.3072    0.6789   -1.7247 C   0  0  0  0  0  0  0  0  0  0  0  0
   -2.2182    0.9553   -2.5047 O   0  0  0  0  0  0  0  0  0  0  0  0
   -0.9050    0.6279   -2.3464 C   0  0  0  0  0  0  0  0  0  0  0  0
   -0.2978    1.2722   -1.1411 C   0  0  0  0  0  0  0  0  0  0  0  0
    1.1592    0.8203   -1.0659 C   0  0  0  0  0  0  0  0  0  0  0  0
    1.7350    1.4286    0.0736 O   0  0  0  0  0  0  0  0  0  0  0  0
    3.0652    1.1752    0.3668 C   0  0  0  0  0  0  0  0  0  0  0  0
    3.6301    1.7654    1.4756 C   0  0  0  0  0  0  0  0  0  0  0  0
    4.9674    1.5330    1.8020 C   0  0  0  0  0  0  0  0  0  0  0  0
    5.7134    0.7019    0.9947 C   0  0  0  0  0  0  0  0  0  0  0  0
    5.1768    0.0968   -0.1212 C   0  0  0  0  0  0  0  0  0  0  0  0
    3.8453    0.3512   -0.4137 C   0  0  0  0  0  0  0  0  0  0  0  0
    5.9499   -0.7401   -0.9234 O   0  0  0  0  0  0  0  0  0  0  0  0
    7.2183   -1.2243   -0.5290 C   0  0  1  0  0  0  0  0  0  0  0  0
    7.2206   -2.7189   -0.8567 C   0  0  0  0  0  0  0  0  0  0  0  0
    8.3056   -0.5917   -1.3132 C   0  0  0  0  0  0  0  0  0  0  0  0
    8.0022    0.2541   -2.1897 O   0  0  0  0  0  0  0  0  0  0  0  0
    9.6416   -0.8873   -1.1273 O   0  0  0  0  0  0  0  0  0  0  0  0
    7.3829   -1.0303    0.9430 C   0  0  0  0  0  0  0  0  0  0  0  0
    7.1493    0.4227    1.3033 C   0  0  0  0  0  0  0  0  0  0  0  0
   -4.5515    1.1807   -2.1355 C   0  0  0  0  0  0  0  0  0  0  0  0
   -4.6047    2.1258   -3.6165 Cl  0  0  0  0  0  0  0  0  0  0  0  0
   -5.6953    0.9483   -1.4140 C   0  0  0  0  0  0  0  0  0  0  0  0
   -7.3643   -2.9367    1.6819 H   0  0  0  0  0  0  0  0  0  0  0  0
   -5.7147   -2.5438    2.1782 H   0  0  0  0  0  0  0  0  0  0  0  0
   -6.0963   -2.4585    0.4375 H   0  0  0  0  0  0  0  0  0  0  0  0
   -6.0890   -0.3125    2.3512 H   0  0  0  0  0  0  0  0  0  0  0  0
   -7.7934   -0.7832    2.2821 H   0  0  0  0  0  0  0  0  0  0  0  0
   -8.7619   -1.1218   -0.0454 H   0  0  0  0  0  0  0  0  0  0  0  0
   -7.5053   -0.9884   -1.3816 H   0  0  0  0  0  0  0  0  0  0  0  0
   -8.5470    0.3900   -0.9558 H   0  0  0  0  0  0  0  0  0  0  0  0
   -8.3237    1.2750    1.5394 H   0  0  0  0  0  0  0  0  0  0  0  0
   -6.6174    1.8195    1.6023 H   0  0  0  0  0  0  0  0  0  0  0  0
   -7.5812    2.0700    0.0472 H   0  0  0  0  0  0  0  0  0  0  0  0
   -4.4262   -0.8614    1.0633 H   0  0  0  0  0  0  0  0  0  0  0  0
   -2.3810   -0.4891   -0.2093 H   0  0  0  0  0  0  0  0  0  0  0  0
   -0.3297    1.0209   -3.2405 H   0  0  0  0  0  0  0  0  0  0  0  0
   -0.7088   -0.4809   -2.3367 H   0  0  0  0  0  0  0  0  0  0  0  0
   -0.8196    1.1184   -0.2001 H   0  0  0  0  0  0  0  0  0  0  0  0
   -0.2940    2.4004   -1.2814 H   0  0  0  0  0  0  0  0  0  0  0  0
    1.2519   -0.2659   -1.0889 H   0  0  0  0  0  0  0  0  0  0  0  0
    1.6319    1.2008   -2.0138 H   0  0  0  0  0  0  0  0  0  0  0  0
    3.0745    2.4216    2.1294 H   0  0  0  0  0  0  0  0  0  0  0  0
    5.3960    2.0106    2.6852 H   0  0  0  0  0  0  0  0  0  0  0  0
    3.4296   -0.1215   -1.2837 H   0  0  0  0  0  0  0  0  0  0  0  0
    8.2244   -3.1423   -0.8816 H   0  0  0  0  0  0  0  0  0  0  0  0
    6.5584   -3.1866   -0.0948 H   0  0  0  0  0  0  0  0  0  0  0  0
    6.6906   -2.8195   -1.8254 H   0  0  0  0  0  0  0  0  0  0  0  0
   10.3259   -0.2047   -1.4326 H   0  0  0  0  0  0  0  0  0  0  0  0
    8.3370   -1.3944    1.3336 H   0  0  0  0  0  0  0  0  0  0  0  0
    6.5690   -1.6064    1.4462 H   0  0  0  0  0  0  0  0  0  0  0  0
    7.7393    1.1148    0.6722 H   0  0  0  0  0  0  0  0  0  0  0  0
    7.4063    0.6140    2.3491 H   0  0  0  0  0  0  0  0  0  0  0  0
   -6.6563    1.3593   -1.7683 H   0  0  0  0  0  0  0  0  0  0  0  0
  1  2  1  0
  2  3  1  0
  3  4  1  0
  3  5  1  0
  3  6  1  0
  6  7  2  0
  7  8  1  0
  8  9  2  0
  9 10  1  0
 10 11  1  0
 11 12  1  0
 12 13  1  0
 13 14  1  0
 14 15  1  0
 15 16  2  0
 16 17  1  0
 17 18  2  0
 18 19  1  0
 19 20  2  0
 19 21  1  0
 21 22  1  0
 22 23  1  1
 22 24  1  0
 24 25  2  0
 24 26  1  0
 22 27  1  0
 27 28  1  0
  9 29  1  0
 29 30  1  0
 29 31  2  0
 31  6  1  0
 20 15  1  0
 28 18  1  0
  1 32  1  0
  1 33  1  0
  1 34  1  0
  2 35  1  0
  2 36  1  0
  4 37  1  0
  4 38  1  0
  4 39  1  0
  5 40  1  0
  5 41  1  0
  5 42  1  0
  7 43  1  0
  8 44  1  0
 11 45  1  0
 11 46  1  0
 12 47  1  0
 12 48  1  0
 13 49  1  0
 13 50  1  0
 16 51  1  0
 17 52  1  0
 20 53  1  0
 23 54  1  0
 23 55  1  0
 23 56  1  0
 26 57  1  0
 27 58  1  0
 27 59  1  0
 28 60  1  0
 28 61  1  0
 31 62  1  0
M  END
$$$$
