
     RDKit          3D

 39 38  0  0  0  0  0  0  0  0999 V2000
    4.0561    0.7603    0.0830 C   0  0  1  0  0  0  0  0  0  0  0  0
    4.6936    1.4832    1.2450 C   0  0  0  0  0  0  0  0  0  0  0  0
    5.0941   -0.0761   -0.4977 N   0  0  0  0  0  0  0  0  0  0  0  0
    5.7313   -0.0676   -1.7664 C   0  0  0  0  0  0  0  0  0  0  0  0
    5.5099    0.7233   -2.7127 O   0  0  0  0  0  0  0  0  0  0  0  0
    2.9485   -0.0701    0.4498 N   0  0  0  0  0  0  0  0  0  0  0  0
    1.6278   -0.0725   -0.0406 C   0  0  0  0  0  0  0  0  0  0  0  0
    1.1849    0.7081   -0.9390 O   0  0  0  0  0  0  0  0  0  0  0  0
    0.5905   -0.9922    0.4364 C   0  0  2  0  0  0  0  0  0  0  0  0
    0.9500   -2.4355    0.2981 C   0  0  0  0  0  0  0  0  0  0  0  0
   -0.6416   -0.7172   -0.2815 N   0  0  0  0  0  0  0  0  0  0  0  0
   -1.8586   -0.2914    0.2725 C   0  0  0  0  0  0  0  0  0  0  0  0
   -2.0317   -0.0910    1.4961 O   0  0  0  0  0  0  0  0  0  0  0  0
   -2.8977   -0.0934   -0.6113 O   0  0  0  0  0  0  0  0  0  0  0  0
   -4.1757    0.3269   -0.2499 C   0  0  0  0  0  0  0  0  0  0  0  0
   -5.1000    0.4539   -1.4379 C   0  0  0  0  0  0  0  0  0  0  0  0
   -4.0547    1.6773    0.4278 C   0  0  0  0  0  0  0  0  0  0  0  0
   -4.8414   -0.5694    0.7677 C   0  0  0  0  0  0  0  0  0  0  0  0
    3.8004    1.5006   -0.7080 H   0  0  0  0  0  0  0  0  0  0  0  0
    5.3678    2.2608    0.8253 H   0  0  0  0  0  0  0  0  0  0  0  0
    3.9457    1.9536    1.9127 H   0  0  0  0  0  0  0  0  0  0  0  0
    5.3239    0.8082    1.8533 H   0  0  0  0  0  0  0  0  0  0  0  0
    5.3434   -0.7770    0.2365 H   0  0  0  0  0  0  0  0  0  0  0  0
    6.4916   -0.8463   -1.9015 H   0  0  0  0  0  0  0  0  0  0  0  0
    3.2472   -0.7413    1.1918 H   0  0  0  0  0  0  0  0  0  0  0  0
    0.3551   -0.7908    1.5175 H   0  0  0  0  0  0  0  0  0  0  0  0
    1.2303   -2.6101   -0.7597 H   0  0  0  0  0  0  0  0  0  0  0  0
    1.7342   -2.7693    0.9741 H   0  0  0  0  0  0  0  0  0  0  0  0
    0.0500   -3.0423    0.5320 H   0  0  0  0  0  0  0  0  0  0  0  0
   -0.4572   -0.8965   -1.3054 H   0  0  0  0  0  0  0  0  0  0  0  0
   -4.6276    1.0682   -2.2467 H   0  0  0  0  0  0  0  0  0  0  0  0
   -5.3953   -0.5338   -1.8294 H   0  0  0  0  0  0  0  0  0  0  0  0
   -6.0353    0.9661   -1.1140 H   0  0  0  0  0  0  0  0  0  0  0  0
   -3.1716    2.1881   -0.0081 H   0  0  0  0  0  0  0  0  0  0  0  0
   -3.8241    1.5338    1.5155 H   0  0  0  0  0  0  0  0  0  0  0  0
   -4.9473    2.3101    0.2620 H   0  0  0  0  0  0  0  0  0  0  0  0
   -4.4978   -0.3226    1.7950 H   0  0  0  0  0  0  0  0  0  0  0  0
   -4.7846   -1.6300    0.5279 H   0  0  0  0  0  0  0  0  0  0  0  0
   -5.9340   -0.2861    0.7497 H   0  0  0  0  0  0  0  0  0  0  0  0
  1  2  1  0
  1  3  1  0
  3  4  1  0
  4  5  2  0
  1  6  1  0
  6  7  1  0
  7  8  2  0
  7  9  1  0
  9 10  1  0
  9 11  1  0
 11 12  1  0
 12 13  2  0
 12 14  1  0
 14 15  1  0
 15 16  1  0
 15 17  1  0
 15 18  1  0
  1 19  1  6
  2 20  1  0
  2 21  1  0
  2 22  1  0
  3 23  1  0
  4 24  1  0
  6 25  1  0
  9 26  1  1
 10 27  1  0
 10 28  1  0
 10 29  1  0
 11 30  1  0
 16 31  1  0
 16 32  1  0
 16 33  1  0
 17 34  1  0
 17 35  1  0
 17 36  1  0
 18 37  1  0
 18 38  1  0
 18 39  1  0
M  END
$$$$
