
     RDKit          3D

129134  0  0  0  0  0  0  0  0999 V2000
   -2.0313    1.8171    2.8130 C   0  0  0  0  0  0  0  0  0  0  0  0
   -2.2570    0.9697    1.5636 C   0  0  1  0  0  0  0  0  0  0  0  0
   -3.5472    0.5378    1.5025 O   0  0  0  0  0  0  0  0  0  0  0  0
   -4.4453    1.2975    0.7742 C   0  0  2  0  0  0  0  0  0  0  0  0
   -4.8039    0.4796   -0.2954 O   0  0  0  0  0  0  0  0  0  0  0  0
   -6.1428    0.1406   -0.3460 C   0  0  2  0  0  0  0  0  0  0  0  0
   -6.3456   -1.3680   -0.2424 C   0  0  1  0  0  0  0  0  0  0  0  0
   -5.6046   -1.9705    0.9101 C   0  0  0  0  0  0  0  0  0  0  0  0
   -5.8933   -3.3539    0.8702 O   0  0  0  0  0  0  0  0  0  0  0  0
   -7.6956   -1.6049   -0.0921 O   0  0  0  0  0  0  0  0  0  0  0  0
   -8.5233   -0.6853   -0.7340 C   0  0  2  0  0  0  0  0  0  0  0  0
   -9.7718   -1.3063   -0.9377 O   0  0  0  0  0  0  0  0  0  0  0  0
  -10.7239   -0.5891   -0.2668 C   0  0  2  0  0  0  0  0  0  0  0  0
  -11.4538   -1.4163    0.7770 C   0  0  1  0  0  0  0  0  0  0  0  0
  -10.4074   -2.1637    1.5728 C   0  0  0  0  0  0  0  0  0  0  0  0
  -10.9740   -2.8600    2.6402 O   0  0  0  0  0  0  0  0  0  0  0  0
  -12.0844   -0.5200    1.6200 O   0  0  0  0  0  0  0  0  0  0  0  0
  -13.1192    0.1639    0.9847 C   0  0  2  0  0  0  0  0  0  0  0  0
  -14.1592   -0.6583    0.6238 O   0  0  0  0  0  0  0  0  0  0  0  0
  -12.6430    0.8869   -0.2575 C   0  0  2  0  0  0  0  0  0  0  0  0
  -13.7256    1.4124   -0.9248 O   0  0  0  0  0  0  0  0  0  0  0  0
  -11.8276   -0.0337   -1.1711 C   0  0  1  0  0  0  0  0  0  0  0  0
  -11.3373    0.7217   -2.2061 O   0  0  0  0  0  0  0  0  0  0  0  0
   -7.9442   -0.1941   -2.0386 C   0  0  2  0  0  0  0  0  0  0  0  0
   -7.8411   -1.2074   -2.9918 O   0  0  0  0  0  0  0  0  0  0  0  0
   -6.6334    0.4839   -1.7398 C   0  0  1  0  0  0  0  0  0  0  0  0
   -6.6369    1.8246   -2.0278 O   0  0  0  0  0  0  0  0  0  0  0  0
   -3.8354    2.6097    0.3312 C   0  0  2  0  0  0  0  0  0  0  0  0
   -4.7383    3.4530   -0.2365 O   0  0  0  0  0  0  0  0  0  0  0  0
   -2.6911    2.1986   -0.6049 C   0  0  1  0  0  0  0  0  0  0  0  0
   -2.2137    3.3083   -1.2729 O   0  0  0  0  0  0  0  0  0  0  0  0
   -1.6733    1.5806    0.3367 C   0  0  2  0  0  0  0  0  0  0  0  0
   -0.7919    0.7730   -0.4255 N   0  0  0  0  0  0  0  0  0  0  0  0
    0.4022    0.4120    0.2489 C   0  0  1  0  0  0  0  0  0  0  0  0
    1.1509   -0.5230   -0.6843 C   0  0  0  0  0  0  0  0  0  0  0  0
    2.4759   -0.7274   -0.5102 C   0  0  0  0  0  0  0  0  0  0  0  0
    3.0921   -1.6627   -1.4870 C   0  0  0  0  0  0  0  0  0  0  0  0
    4.0876   -0.9765   -2.1855 O   0  0  0  0  0  0  0  0  0  0  0  0
    3.2754   -0.1032    0.5504 C   0  0  1  0  0  0  0  0  0  0  0  0
    4.5025    0.4013    0.1411 O   0  0  0  0  0  0  0  0  0  0  0  0
    5.5696   -0.1444    0.8524 C   0  0  1  0  0  0  0  0  0  0  0  0
    6.2747   -0.9442   -0.0290 O   0  0  0  0  0  0  0  0  0  0  0  0
    7.2778   -0.3051   -0.7092 C   0  0  2  0  0  0  0  0  0  0  0  0
    7.7110   -0.9958   -1.9558 C   0  0  0  0  0  0  0  0  0  0  0  0
    8.2034   -2.2731   -1.7591 O   0  0  0  0  0  0  0  0  0  0  0  0
    8.3962   -0.0864    0.2899 C   0  0  1  0  0  0  0  0  0  0  0  0
    9.4817    0.5606   -0.2799 O   0  0  0  0  0  0  0  0  0  0  0  0
   10.6285   -0.2473   -0.2344 C   0  0  1  0  0  0  0  0  0  0  0  0
   10.9630   -0.5637   -1.5410 O   0  0  0  0  0  0  0  0  0  0  0  0
   12.1239   -1.3045   -1.6358 C   0  0  2  0  0  0  0  0  0  0  0  0
   12.1147   -2.5729   -0.8162 C   0  0  0  0  0  0  0  0  0  0  0  0
   13.3553   -3.1836   -1.0370 O   0  0  0  0  0  0  0  0  0  0  0  0
   13.2661   -0.3918   -1.2613 C   0  0  1  0  0  0  0  0  0  0  0  0
   13.1237    0.7522   -2.0784 O   0  0  0  0  0  0  0  0  0  0  0  0
   13.0943    0.0662    0.1498 C   0  0  2  0  0  0  0  0  0  0  0  0
   13.5788   -0.8591    1.0786 O   0  0  0  0  0  0  0  0  0  0  0  0
   11.6995    0.5092    0.4815 C   0  0  1  0  0  0  0  0  0  0  0  0
   11.5065    1.8837    0.3480 O   0  0  0  0  0  0  0  0  0  0  0  0
    7.8909    0.6455    1.5074 C   0  0  2  0  0  0  0  0  0  0  0  0
    8.2891   -0.0030    2.6743 O   0  0  0  0  0  0  0  0  0  0  0  0
    6.4177    0.9030    1.4620 C   0  0  1  0  0  0  0  0  0  0  0  0
    6.1925    2.0933    0.7435 O   0  0  0  0  0  0  0  0  0  0  0  0
    2.5424    1.0162    1.2569 C   0  0  2  0  0  0  0  0  0  0  0  0
    2.1064    0.6459    2.5350 O   0  0  0  0  0  0  0  0  0  0  0  0
    1.3719    1.5579    0.4680 C   0  0  1  0  0  0  0  0  0  0  0  0
    1.8044    2.0802   -0.7366 O   0  0  0  0  0  0  0  0  0  0  0  0
   -1.4217    1.3037    3.5825 H   0  0  0  0  0  0  0  0  0  0  0  0
   -2.9867    2.0636    3.3306 H   0  0  0  0  0  0  0  0  0  0  0  0
   -1.4396    2.7041    2.5147 H   0  0  0  0  0  0  0  0  0  0  0  0
   -1.6515    0.0301    1.7571 H   0  0  0  0  0  0  0  0  0  0  0  0
   -5.3201    1.5421    1.4050 H   0  0  0  0  0  0  0  0  0  0  0  0
   -6.7300    0.5711    0.4641 H   0  0  0  0  0  0  0  0  0  0  0  0
   -6.0221   -1.8874   -1.1530 H   0  0  0  0  0  0  0  0  0  0  0  0
   -4.5134   -1.9148    0.7442 H   0  0  0  0  0  0  0  0  0  0  0  0
   -5.9445   -1.6163    1.8979 H   0  0  0  0  0  0  0  0  0  0  0  0
   -6.8074   -3.5485    1.1958 H   0  0  0  0  0  0  0  0  0  0  0  0
   -8.7190    0.2038   -0.1016 H   0  0  0  0  0  0  0  0  0  0  0  0
  -10.3340    0.2962    0.2732 H   0  0  0  0  0  0  0  0  0  0  0  0
  -12.1970   -2.1094    0.3176 H   0  0  0  0  0  0  0  0  0  0  0  0
   -9.8937   -2.9086    0.8979 H   0  0  0  0  0  0  0  0  0  0  0  0
   -9.6879   -1.4183    1.9616 H   0  0  0  0  0  0  0  0  0  0  0  0
  -11.9619   -2.7634    2.5504 H   0  0  0  0  0  0  0  0  0  0  0  0
  -13.4851    0.9340    1.6931 H   0  0  0  0  0  0  0  0  0  0  0  0
  -15.0388   -0.2584    0.8466 H   0  0  0  0  0  0  0  0  0  0  0  0
  -11.9266    1.7149    0.0197 H   0  0  0  0  0  0  0  0  0  0  0  0
  -13.9515    2.3080   -0.5542 H   0  0  0  0  0  0  0  0  0  0  0  0
  -12.4680   -0.8364   -1.5815 H   0  0  0  0  0  0  0  0  0  0  0  0
  -11.8870    0.6000   -3.0323 H   0  0  0  0  0  0  0  0  0  0  0  0
   -8.6171    0.6022   -2.4274 H   0  0  0  0  0  0  0  0  0  0  0  0
   -8.6571   -1.1637   -3.5592 H   0  0  0  0  0  0  0  0  0  0  0  0
   -5.8856   -0.0137   -2.4267 H   0  0  0  0  0  0  0  0  0  0  0  0
   -5.7323    2.0767   -2.3991 H   0  0  0  0  0  0  0  0  0  0  0  0
   -3.4160    3.0915    1.2161 H   0  0  0  0  0  0  0  0  0  0  0  0
   -5.6581    3.3066    0.1036 H   0  0  0  0  0  0  0  0  0  0  0  0
   -3.1105    1.4271   -1.2896 H   0  0  0  0  0  0  0  0  0  0  0  0
   -2.9594    3.9716   -1.3966 H   0  0  0  0  0  0  0  0  0  0  0  0
   -1.0656    2.4681    0.6943 H   0  0  0  0  0  0  0  0  0  0  0  0
   -1.2412    0.0275   -0.9613 H   0  0  0  0  0  0  0  0  0  0  0  0
    0.2650   -0.0978    1.2180 H   0  0  0  0  0  0  0  0  0  0  0  0
    0.6143   -1.0341   -1.5044 H   0  0  0  0  0  0  0  0  0  0  0  0
    2.3888   -2.0399   -2.2547 H   0  0  0  0  0  0  0  0  0  0  0  0
    3.4942   -2.5738   -0.9933 H   0  0  0  0  0  0  0  0  0  0  0  0
    4.1774   -1.3556   -3.1182 H   0  0  0  0  0  0  0  0  0  0  0  0
    3.4155   -0.8803    1.3641 H   0  0  0  0  0  0  0  0  0  0  0  0
    5.1358   -0.8581    1.6039 H   0  0  0  0  0  0  0  0  0  0  0  0
    6.9154    0.7038   -0.9980 H   0  0  0  0  0  0  0  0  0  0  0  0
    8.4234   -0.4184   -2.5436 H   0  0  0  0  0  0  0  0  0  0  0  0
    6.7977   -1.0907   -2.6168 H   0  0  0  0  0  0  0  0  0  0  0  0
    7.5292   -2.9319   -1.4783 H   0  0  0  0  0  0  0  0  0  0  0  0
    8.7368   -1.0859    0.6260 H   0  0  0  0  0  0  0  0  0  0  0  0
   10.3664   -1.2076    0.2550 H   0  0  0  0  0  0  0  0  0  0  0  0
   12.2286   -1.6035   -2.7013 H   0  0  0  0  0  0  0  0  0  0  0  0
   12.0229   -2.3987    0.2547 H   0  0  0  0  0  0  0  0  0  0  0  0
   11.2594   -3.1741   -1.1525 H   0  0  0  0  0  0  0  0  0  0  0  0
   13.6061   -3.6816   -0.2409 H   0  0  0  0  0  0  0  0  0  0  0  0
   14.2392   -0.8681   -1.3770 H   0  0  0  0  0  0  0  0  0  0  0  0
   12.1528    1.0162   -2.0254 H   0  0  0  0  0  0  0  0  0  0  0  0
   13.7622    0.9654    0.2683 H   0  0  0  0  0  0  0  0  0  0  0  0
   13.1409   -0.6860    1.9486 H   0  0  0  0  0  0  0  0  0  0  0  0
   11.5625    0.2952    1.5823 H   0  0  0  0  0  0  0  0  0  0  0  0
   10.5403    2.0396    0.4706 H   0  0  0  0  0  0  0  0  0  0  0  0
    8.3868    1.6408    1.5138 H   0  0  0  0  0  0  0  0  0  0  0  0
    7.9478   -0.9166    2.6749 H   0  0  0  0  0  0  0  0  0  0  0  0
    6.1044    1.0371    2.5354 H   0  0  0  0  0  0  0  0  0  0  0  0
    7.0260    2.5567    0.5164 H   0  0  0  0  0  0  0  0  0  0  0  0
    3.2146    1.8870    1.4276 H   0  0  0  0  0  0  0  0  0  0  0  0
    2.8679    0.2361    3.0233 H   0  0  0  0  0  0  0  0  0  0  0  0
    0.8931    2.3028    1.1009 H   0  0  0  0  0  0  0  0  0  0  0  0
    2.0603    3.0312   -0.5587 H   0  0  0  0  0  0  0  0  0  0  0  0
  1  2  1  0
  2  3  1  0
  3  4  1  0
  4  5  1  0
  5  6  1  0
  6  7  1  0
  7  8  1  0
  8  9  1  0
  7 10  1  0
 10 11  1  0
 11 12  1  0
 12 13  1  0
 13 14  1  0
 14 15  1  0
 15 16  1  0
 14 17  1  0
 17 18  1  0
 18 19  1  0
 18 20  1  0
 20 21  1  0
 20 22  1  0
 22 23  1  0
 11 24  1  0
 24 25  1  0
 24 26  1  0
 26 27  1  0
  4 28  1  0
 28 29  1  0
 28 30  1  0
 30 31  1  0
 30 32  1  0
 32 33  1  0
 33 34  1  0
 34 35  1  0
 35 36  2  0
 36 37  1  0
 37 38  1  0
 36 39  1  0
 39 40  1  0
 40 41  1  0
 41 42  1  0
 42 43  1  0
 43 44  1  0
 44 45  1  0
 43 46  1  0
 46 47  1  0
 47 48  1  0
 48 49  1  0
 49 50  1  0
 50 51  1  0
 51 52  1  0
 50 53  1  0
 53 54  1  0
 53 55  1  0
 55 56  1  0
 55 57  1  0
 57 58  1  0
 46 59  1  0
 59 60  1  0
 59 61  1  0
 61 62  1  0
 39 63  1  0
 63 64  1  0
 63 65  1  0
 65 66  1  0
 32  2  1  0
 65 34  1  0
 26  6  1  0
 61 41  1  0
 22 13  1  0
 57 48  1  0
  1 67  1  0
  1 68  1  0
  1 69  1  0
  2 70  1  1
  4 71  1  1
  6 72  1  1
  7 73  1  6
  8 74  1  0
  8 75  1  0
  9 76  1  0
 11 77  1  1
 13 78  1  1
 14 79  1  6
 15 80  1  0
 15 81  1  0
 16 82  1  0
 18 83  1  1
 19 84  1  0
 20 85  1  1
 21 86  1  0
 22 87  1  6
 23 88  1  0
 24 89  1  6
 25 90  1  0
 26 91  1  6
 27 92  1  0
 28 93  1  1
 29 94  1  0
 30 95  1  6
 31 96  1  0
 32 97  1  1
 33 98  1  0
 34 99  1  1
 35100  1  0
 37101  1  0
 37102  1  0
 38103  1  0
 39104  1  1
 41105  1  1
 43106  1  6
 44107  1  0
 44108  1  0
 45109  1  0
 46110  1  1
 48111  1  1
 50112  1  6
 51113  1  0
 51114  1  0
 52115  1  0
 53116  1  1
 54117  1  0
 55118  1  6
 56119  1  0
 57120  1  1
 58121  1  0
 59122  1  1
 60123  1  0
 61124  1  1
 62125  1  0
 63126  1  1
 64127  1  0
 65128  1  1
 66129  1  0
M  END
$$$$
