
     RDKit          3D

 91 97  0  0  0  0  0  0  0  0999 V2000
   12.5085   -1.7952    0.2210 C   0  0  0  0  0  0  0  0  0  0  0  0
   11.8435   -0.4782   -0.1050 C   0  0  0  0  0  0  0  0  0  0  0  0
   11.6599    0.3701    1.1410 C   0  0  0  0  0  0  0  0  0  0  0  0
   10.5678   -0.7367   -0.6903 N   0  0  0  0  0  0  0  0  0  0  0  0
   10.5807   -1.5221   -1.8866 C   0  0  0  0  0  0  0  0  0  0  0  0
    9.2780   -1.3046   -2.6190 C   0  0  0  0  0  0  0  0  0  0  0  0
    8.1975   -1.2850   -1.6250 N   0  0  0  0  0  0  0  0  0  0  0  0
    7.0054   -0.6349   -1.9750 C   0  0  0  0  0  0  0  0  0  0  0  0
    6.8525   -0.0816   -3.0970 O   0  0  0  0  0  0  0  0  0  0  0  0
    5.9034   -0.5874   -1.0313 C   0  0  0  0  0  0  0  0  0  0  0  0
    5.3135   -1.7456   -0.6331 C   0  0  0  0  0  0  0  0  0  0  0  0
    4.2470   -1.6995    0.2749 C   0  0  0  0  0  0  0  0  0  0  0  0
    3.7866   -0.5034    0.7696 C   0  0  0  0  0  0  0  0  0  0  0  0
    2.7200   -0.3983    1.6844 N   0  0  0  0  0  0  0  0  0  0  0  0
    1.3581   -0.2788    1.3345 C   0  0  0  0  0  0  0  0  0  0  0  0
    1.0975   -0.2752    0.0830 O   0  0  0  0  0  0  0  0  0  0  0  0
    0.2735   -0.1642    2.2156 N   0  0  0  0  0  0  0  0  0  0  0  0
   -1.0908   -0.0498    1.8254 C   0  0  0  0  0  0  0  0  0  0  0  0
   -1.9465   -1.1004    1.6713 C   0  0  0  0  0  0  0  0  0  0  0  0
   -3.2728   -0.9166    1.2804 C   0  0  0  0  0  0  0  0  0  0  0  0
   -3.7743    0.3501    1.0320 C   0  0  0  0  0  0  0  0  0  0  0  0
   -5.1576    0.5792    0.6122 C   0  0  0  0  0  0  0  0  0  0  0  0
   -5.5421    1.8623    0.3496 N   0  0  0  0  0  0  0  0  0  0  0  0
   -6.7945    2.1428   -0.0370 C   0  0  0  0  0  0  0  0  0  0  0  0
   -7.1809    3.5564   -0.3129 C   0  0  0  0  0  0  0  0  0  0  0  0
   -6.9102    4.4533    0.8690 C   0  0  0  0  0  0  0  0  0  0  0  0
   -5.4597    4.7397    1.1031 C   0  0  0  0  0  0  0  0  0  0  0  0
   -4.6635    4.5692   -0.0127 O   0  0  0  0  0  0  0  0  0  0  0  0
   -5.2915    4.9813   -1.1724 C   0  0  0  0  0  0  0  0  0  0  0  0
   -6.4755    4.1120   -1.5211 C   0  0  0  0  0  0  0  0  0  0  0  0
   -7.6633    1.1292   -0.1606 N   0  0  0  0  0  0  0  0  0  0  0  0
   -7.3252   -0.1721    0.0912 C   0  0  0  0  0  0  0  0  0  0  0  0
   -8.2899   -1.1946   -0.0711 N   0  0  0  0  0  0  0  0  0  0  0  0
   -8.3109   -2.5415    0.4439 C   0  0  0  0  0  0  0  0  0  0  0  0
   -8.6586   -3.3441   -0.8107 C   0  0  0  0  0  0  0  0  0  0  0  0
   -9.5175   -2.3900   -1.5914 C   0  0  0  0  0  0  0  0  0  0  0  0
   -9.5020   -1.0605   -0.8513 C   0  0  0  0  0  0  0  0  0  0  0  0
  -10.6496   -0.9861    0.1550 C   0  0  0  0  0  0  0  0  0  0  0  0
  -10.2835   -1.4833    1.3800 O   0  0  0  0  0  0  0  0  0  0  0  0
   -9.5173   -2.6256    1.3608 C   0  0  0  0  0  0  0  0  0  0  0  0
   -6.0556   -0.3847    0.4751 N   0  0  0  0  0  0  0  0  0  0  0  0
   -2.9087    1.4095    1.1880 C   0  0  0  0  0  0  0  0  0  0  0  0
   -1.5932    1.2273    1.5758 C   0  0  0  0  0  0  0  0  0  0  0  0
    4.4159    0.6397    0.3369 C   0  0  0  0  0  0  0  0  0  0  0  0
    5.4725    0.6333   -0.5589 C   0  0  0  0  0  0  0  0  0  0  0  0
    8.4615   -1.9376   -0.3761 C   0  0  0  0  0  0  0  0  0  0  0  0
    9.6610   -1.2441    0.2912 C   0  0  0  0  0  0  0  0  0  0  0  0
   11.8409   -2.6619    0.1921 H   0  0  0  0  0  0  0  0  0  0  0  0
   13.0359   -1.7833    1.1981 H   0  0  0  0  0  0  0  0  0  0  0  0
   13.3065   -1.9737   -0.5466 H   0  0  0  0  0  0  0  0  0  0  0  0
   12.4554    0.0902   -0.8596 H   0  0  0  0  0  0  0  0  0  0  0  0
   10.8167    1.0756    1.0388 H   0  0  0  0  0  0  0  0  0  0  0  0
   12.5641    0.9615    1.3506 H   0  0  0  0  0  0  0  0  0  0  0  0
   11.3885   -0.3252    1.9694 H   0  0  0  0  0  0  0  0  0  0  0  0
   10.6579   -2.6136   -1.6985 H   0  0  0  0  0  0  0  0  0  0  0  0
   11.4074   -1.1770   -2.5455 H   0  0  0  0  0  0  0  0  0  0  0  0
    9.0892   -2.1234   -3.3726 H   0  0  0  0  0  0  0  0  0  0  0  0
    9.2740   -0.3262   -3.1846 H   0  0  0  0  0  0  0  0  0  0  0  0
    5.6118   -2.7352   -0.9739 H   0  0  0  0  0  0  0  0  0  0  0  0
    3.7544   -2.5999    0.6139 H   0  0  0  0  0  0  0  0  0  0  0  0
    2.9349   -0.4072    2.7108 H   0  0  0  0  0  0  0  0  0  0  0  0
    0.4970   -0.1640    3.2553 H   0  0  0  0  0  0  0  0  0  0  0  0
   -1.5445   -2.0909    1.8671 H   0  0  0  0  0  0  0  0  0  0  0  0
   -3.9285   -1.7583    1.1654 H   0  0  0  0  0  0  0  0  0  0  0  0
   -8.2753    3.6015   -0.5307 H   0  0  0  0  0  0  0  0  0  0  0  0
   -7.4442    5.4207    0.6807 H   0  0  0  0  0  0  0  0  0  0  0  0
   -7.4063    4.0258    1.7832 H   0  0  0  0  0  0  0  0  0  0  0  0
   -5.0966    4.0386    1.8822 H   0  0  0  0  0  0  0  0  0  0  0  0
   -5.2683    5.7785    1.4860 H   0  0  0  0  0  0  0  0  0  0  0  0
   -5.6657    6.0216   -1.0406 H   0  0  0  0  0  0  0  0  0  0  0  0
   -4.5426    4.9922   -1.9710 H   0  0  0  0  0  0  0  0  0  0  0  0
   -7.1831    4.6510   -2.1607 H   0  0  0  0  0  0  0  0  0  0  0  0
   -6.0744    3.2580   -2.1379 H   0  0  0  0  0  0  0  0  0  0  0  0
   -7.3777   -2.8527    0.9079 H   0  0  0  0  0  0  0  0  0  0  0  0
   -7.6928   -3.5462   -1.3152 H   0  0  0  0  0  0  0  0  0  0  0  0
   -9.1783   -4.2882   -0.5393 H   0  0  0  0  0  0  0  0  0  0  0  0
  -10.5705   -2.7105   -1.6547 H   0  0  0  0  0  0  0  0  0  0  0  0
   -9.0999   -2.1914   -2.6060 H   0  0  0  0  0  0  0  0  0  0  0  0
   -9.5069   -0.2041   -1.5396 H   0  0  0  0  0  0  0  0  0  0  0  0
  -10.8551    0.1078    0.2729 H   0  0  0  0  0  0  0  0  0  0  0  0
  -11.5863   -1.4182   -0.2549 H   0  0  0  0  0  0  0  0  0  0  0  0
  -10.0897   -3.5387    1.1405 H   0  0  0  0  0  0  0  0  0  0  0  0
   -9.1241   -2.7533    2.4116 H   0  0  0  0  0  0  0  0  0  0  0  0
   -3.2828    2.4200    0.9969 H   0  0  0  0  0  0  0  0  0  0  0  0
   -0.9396    2.0666    1.6900 H   0  0  0  0  0  0  0  0  0  0  0  0
    4.1017    1.6337    0.6897 H   0  0  0  0  0  0  0  0  0  0  0  0
    5.9713    1.5427   -0.9005 H   0  0  0  0  0  0  0  0  0  0  0  0
    8.6984   -3.0253   -0.5651 H   0  0  0  0  0  0  0  0  0  0  0  0
    7.6492   -1.9135    0.3524 H   0  0  0  0  0  0  0  0  0  0  0  0
    9.2121   -0.3614    0.8352 H   0  0  0  0  0  0  0  0  0  0  0  0
   10.0963   -1.9764    0.9936 H   0  0  0  0  0  0  0  0  0  0  0  0
  1  2  1  0
  2  3  1  0
  2  4  1  0
  4  5  1  0
  5  6  1  0
  6  7  1  0
  7  8  1  0
  8  9  2  0
  8 10  1  0
 10 11  2  0
 11 12  1  0
 12 13  2  0
 13 14  1  0
 14 15  1  0
 15 16  2  0
 15 17  1  0
 17 18  1  0
 18 19  2  0
 19 20  1  0
 20 21  2  0
 21 22  1  0
 22 23  2  0
 23 24  1  0
 24 25  1  0
 25 26  1  0
 26 27  1  0
 27 28  1  0
 28 29  1  0
 29 30  1  0
 24 31  2  0
 31 32  1  0
 32 33  1  0
 33 34  1  0
 34 35  1  0
 35 36  1  0
 36 37  1  0
 37 38  1  0
 38 39  1  0
 39 40  1  0
 32 41  2  0
 21 42  1  0
 42 43  2  0
 13 44  1  0
 44 45  2  0
  7 46  1  0
 46 47  1  0
 47  4  1  0
 45 10  1  0
 43 18  1  0
 41 22  1  0
 30 25  1  0
 37 33  1  0
 40 34  1  0
  1 48  1  0
  1 49  1  0
  1 50  1  0
  2 51  1  0
  3 52  1  0
  3 53  1  0
  3 54  1  0
  5 55  1  0
  5 56  1  0
  6 57  1  0
  6 58  1  0
 11 59  1  0
 12 60  1  0
 14 61  1  0
 17 62  1  0
 19 63  1  0
 20 64  1  0
 25 65  1  0
 26 66  1  0
 26 67  1  0
 27 68  1  0
 27 69  1  0
 29 70  1  0
 29 71  1  0
 30 72  1  0
 30 73  1  0
 34 74  1  0
 35 75  1  0
 35 76  1  0
 36 77  1  0
 36 78  1  0
 37 79  1  0
 38 80  1  0
 38 81  1  0
 40 82  1  0
 40 83  1  0
 42 84  1  0
 43 85  1  0
 44 86  1  0
 45 87  1  0
 46 88  1  0
 46 89  1  0
 47 90  1  0
 47 91  1  0
M  END
$$$$
