
     RDKit          3D

 31 33  0  0  0  0  0  0  0  0999 V2000
    1.5094    3.0532   -1.2678 C   0  0  0  0  0  0  0  0  0  0  0  0
    0.4624    2.6998    0.1450 S   0  0  0  0  0  0  0  0  0  0  0  0
   -0.4779    1.1956   -0.0587 C   0  0  0  0  0  0  0  0  0  0  0  0
   -1.7015    1.2258   -0.6336 N   0  0  0  0  0  0  0  0  0  0  0  0
   -2.4611    0.1308   -0.8167 C   0  0  0  0  0  0  0  0  0  0  0  0
   -3.7120    0.1998   -1.4104 C   0  0  0  0  0  0  0  0  0  0  0  0
   -4.3937   -1.0039   -1.5403 C   0  0  0  0  0  0  0  0  0  0  0  0
   -3.9167   -2.2121   -1.1295 C   0  0  0  0  0  0  0  0  0  0  0  0
   -2.6578   -2.2725   -0.5335 C   0  0  0  0  0  0  0  0  0  0  0  0
   -1.9634   -1.0869   -0.3948 C   0  0  0  0  0  0  0  0  0  0  0  0
   -0.7156   -1.0498    0.1808 C   0  0  0  0  0  0  0  0  0  0  0  0
   -0.2189   -2.1502    0.5839 O   0  0  0  0  0  0  0  0  0  0  0  0
    0.0605    0.0315    0.3738 N   0  0  0  0  0  0  0  0  0  0  0  0
    1.3422   -0.0706    0.9868 C   0  0  0  0  0  0  0  0  0  0  0  0
    1.6100    0.0014    2.3400 C   0  0  0  0  0  0  0  0  0  0  0  0
    0.5268    0.1889    3.1480 F   0  0  0  0  0  0  0  0  0  0  0  0
    2.9094   -0.1139    2.8097 C   0  0  0  0  0  0  0  0  0  0  0  0
    3.8902   -0.3001    1.8626 C   0  0  0  0  0  0  0  0  0  0  0  0
    3.6783   -0.3790    0.5047 C   0  0  0  0  0  0  0  0  0  0  0  0
    2.3669   -0.2597    0.0694 C   0  0  0  0  0  0  0  0  0  0  0  0
    2.1833   -0.3406   -1.2731 F   0  0  0  0  0  0  0  0  0  0  0  0
    2.3751    2.3673   -1.3655 H   0  0  0  0  0  0  0  0  0  0  0  0
    1.9395    4.0732   -1.0949 H   0  0  0  0  0  0  0  0  0  0  0  0
    0.9458    3.1415   -2.2168 H   0  0  0  0  0  0  0  0  0  0  0  0
   -4.1016    1.1521   -1.7405 H   0  0  0  0  0  0  0  0  0  0  0  0
   -5.3750   -0.9362   -2.0081 H   0  0  0  0  0  0  0  0  0  0  0  0
   -4.4455   -3.1446   -1.2305 H   0  0  0  0  0  0  0  0  0  0  0  0
   -2.1651   -3.1648   -0.1646 H   0  0  0  0  0  0  0  0  0  0  0  0
    3.0778   -0.0532    3.8647 H   0  0  0  0  0  0  0  0  0  0  0  0
    4.9281   -0.3957    2.1915 H   0  0  0  0  0  0  0  0  0  0  0  0
    4.4999   -0.5268   -0.1817 H   0  0  0  0  0  0  0  0  0  0  0  0
  1  2  1  0
  2  3  1  0
  3  4  2  0
  4  5  1  0
  5  6  2  0
  6  7  1  0
  7  8  2  0
  8  9  1  0
  9 10  2  0
 10 11  1  0
 11 12  2  0
 11 13  1  0
 13 14  1  0
 14 15  2  0
 15 16  1  0
 15 17  1  0
 17 18  2  0
 18 19  1  0
 19 20  2  0
 20 21  1  0
 13  3  1  0
 20 14  1  0
 10  5  1  0
  1 22  1  0
  1 23  1  0
  1 24  1  0
  6 25  1  0
  7 26  1  0
  8 27  1  0
  9 28  1  0
 17 29  1  0
 18 30  1  0
 19 31  1  0
M  END
$$$$
