
     RDKit          3D

 91 94  0  0  0  0  0  0  0  0999 V2000
    6.4510    4.3180   -1.3839 C   0  0  0  0  0  0  0  0  0  0  0  0
    6.3571    3.0296   -0.8887 O   0  0  0  0  0  0  0  0  0  0  0  0
    6.0769    2.1001   -1.8240 C   0  0  0  0  0  0  0  0  0  0  0  0
    5.9482    0.6705   -1.4263 C   0  0  0  0  0  0  0  0  0  0  0  0
    5.0207    0.2938   -0.5322 O   0  0  0  0  0  0  0  0  0  0  0  0
    4.8205    0.5037    0.7759 C   0  0  0  0  0  0  0  0  0  0  0  0
    5.6824    1.2313    1.6047 C   0  0  0  0  0  0  0  0  0  0  0  0
    5.4178    1.4014    2.9360 C   0  0  0  0  0  0  0  0  0  0  0  0
    4.2924    0.8498    3.4652 C   0  0  0  0  0  0  0  0  0  0  0  0
    3.4328    0.1294    2.6653 C   0  0  0  0  0  0  0  0  0  0  0  0
    3.6458   -0.0735    1.3244 C   0  0  0  0  0  0  0  0  0  0  0  0
    2.7718   -0.7829    0.4855 N   0  0  0  0  0  0  0  0  0  0  0  0
    1.7139   -1.6127    1.0671 C   0  0  0  0  0  0  0  0  0  0  0  0
    0.4179   -0.9369    0.6271 C   0  0  0  0  0  0  0  0  0  0  0  0
    0.3545   -1.0641   -0.8122 N   0  0  0  0  0  0  0  0  0  0  0  0
   -0.8458   -0.9175   -1.5573 C   0  0  0  0  0  0  0  0  0  0  0  0
   -0.7104   -0.9614   -2.8322 O   0  0  0  0  0  0  0  0  0  0  0  0
   -2.1916   -0.7187   -1.0518 C   0  0  2  0  0  0  0  0  0  0  0  0
   -2.4014   -1.6873   -0.0066 O   0  0  0  0  0  0  0  0  0  0  0  0
   -2.4385   -3.0470   -0.1940 C   0  0  0  0  0  0  0  0  0  0  0  0
   -1.3531   -3.8498   -0.1187 C   0  0  0  0  0  0  0  0  0  0  0  0
   -1.4390   -5.2443   -0.3197 C   0  0  0  0  0  0  0  0  0  0  0  0
   -2.6344   -5.8367   -0.6000 C   0  0  0  0  0  0  0  0  0  0  0  0
   -2.7417   -7.3089   -0.8163 C   0  0  0  0  0  0  0  0  0  0  0  0
   -3.4271   -7.5572   -1.9871 F   0  0  0  0  0  0  0  0  0  0  0  0
   -3.4455   -7.8719    0.2213 F   0  0  0  0  0  0  0  0  0  0  0  0
   -1.4746   -7.8516   -0.8555 F   0  0  0  0  0  0  0  0  0  0  0  0
   -3.7574   -5.0510   -0.6833 C   0  0  0  0  0  0  0  0  0  0  0  0
   -3.6473   -3.7064   -0.4848 C   0  0  0  0  0  0  0  0  0  0  0  0
   -3.2139   -0.9701   -2.1031 C   0  0  0  0  0  0  0  0  0  0  0  0
   -4.5975   -0.5458   -1.7663 C   0  0  0  0  0  0  0  0  0  0  0  0
   -4.8413   -0.1497   -0.3446 C   0  0  0  0  0  0  0  0  0  0  0  0
   -3.7279    0.5480    0.2608 N   0  0  0  0  0  0  0  0  0  0  0  0
   -3.9038    1.0795    1.5679 C   0  0  0  0  0  0  0  0  0  0  0  0
   -5.0183    0.8604    2.1641 O   0  0  0  0  0  0  0  0  0  0  0  0
   -2.9022    1.8557    2.2808 C   0  0  0  0  0  0  0  0  0  0  0  0
   -1.7936    1.2942    2.8446 C   0  0  0  0  0  0  0  0  0  0  0  0
   -0.8280    1.9996    3.4417 N   0  0  0  0  0  0  0  0  0  0  0  0
   -0.9222    3.3384    3.5079 C   0  0  0  0  0  0  0  0  0  0  0  0
   -2.0095    3.9439    2.9613 C   0  0  0  0  0  0  0  0  0  0  0  0
   -3.0402    3.2334    2.3300 C   0  0  0  0  0  0  0  0  0  0  0  0
   -4.2003    3.9837    1.8481 C   0  0  0  0  0  0  0  0  0  0  0  0
   -3.9777    5.3567    2.0424 F   0  0  0  0  0  0  0  0  0  0  0  0
   -4.5468    3.8360    0.5461 F   0  0  0  0  0  0  0  0  0  0  0  0
   -5.3208    3.7542    2.6892 F   0  0  0  0  0  0  0  0  0  0  0  0
   -2.4435    0.6325   -0.4121 C   0  0  2  0  0  0  0  0  0  0  0  0
   -2.3995    1.8200   -1.2336 C   0  0  0  0  0  0  0  0  0  0  0  0
   -1.1557    2.1828   -1.9857 C   0  0  0  0  0  0  0  0  0  0  0  0
   -0.0398    2.3655   -1.1683 O   0  0  0  0  0  0  0  0  0  0  0  0
    1.5734   -1.3765   -1.5205 C   0  0  0  0  0  0  0  0  0  0  0  0
    2.8183   -0.7332   -0.9657 C   0  0  0  0  0  0  0  0  0  0  0  0
    0.6894    0.0000    0.0000 Cl  0  0  0  0  0  0  0  0  0  0  0  0
    5.4946    4.6510   -1.8680 H   0  0  0  0  0  0  0  0  0  0  0  0
    7.2508    4.3344   -2.1778 H   0  0  0  0  0  0  0  0  0  0  0  0
    6.7956    5.0379   -0.6123 H   0  0  0  0  0  0  0  0  0  0  0  0
    6.8506    2.2174   -2.6501 H   0  0  0  0  0  0  0  0  0  0  0  0
    5.1295    2.4336   -2.3463 H   0  0  0  0  0  0  0  0  0  0  0  0
    5.8445    0.0897   -2.4105 H   0  0  0  0  0  0  0  0  0  0  0  0
    7.0147    0.3474   -1.1306 H   0  0  0  0  0  0  0  0  0  0  0  0
    6.5947    1.6503    1.2147 H   0  0  0  0  0  0  0  0  0  0  0  0
    6.1334    1.9843    3.5316 H   0  0  0  0  0  0  0  0  0  0  0  0
    4.0628    0.9685    4.5013 H   0  0  0  0  0  0  0  0  0  0  0  0
    2.5253   -0.3024    3.1099 H   0  0  0  0  0  0  0  0  0  0  0  0
    1.7981   -1.8091    2.1182 H   0  0  0  0  0  0  0  0  0  0  0  0
    1.7806   -2.5717    0.4641 H   0  0  0  0  0  0  0  0  0  0  0  0
    0.5611    0.1538    0.8426 H   0  0  0  0  0  0  0  0  0  0  0  0
   -0.4104   -1.3765    1.1721 H   0  0  0  0  0  0  0  0  0  0  0  0
   -0.3739   -3.5157    0.0981 H   0  0  0  0  0  0  0  0  0  0  0  0
   -0.5576   -5.8610   -0.2565 H   0  0  0  0  0  0  0  0  0  0  0  0
   -4.7213   -5.5109   -0.9089 H   0  0  0  0  0  0  0  0  0  0  0  0
   -4.5384   -3.1278   -0.5512 H   0  0  0  0  0  0  0  0  0  0  0  0
   -2.8728   -0.5747   -3.0914 H   0  0  0  0  0  0  0  0  0  0  0  0
   -3.2438   -2.0880   -2.2755 H   0  0  0  0  0  0  0  0  0  0  0  0
   -5.3599   -1.3284   -2.0191 H   0  0  0  0  0  0  0  0  0  0  0  0
   -4.9046    0.3192   -2.4260 H   0  0  0  0  0  0  0  0  0  0  0  0
   -5.1867   -0.9998    0.2935 H   0  0  0  0  0  0  0  0  0  0  0  0
   -5.7619    0.5144   -0.3643 H   0  0  0  0  0  0  0  0  0  0  0  0
   -1.7200    0.2041    2.7893 H   0  0  0  0  0  0  0  0  0  0  0  0
   -0.1512    3.9451    3.9889 H   0  0  0  0  0  0  0  0  0  0  0  0
   -2.0697    5.0348    3.0232 H   0  0  0  0  0  0  0  0  0  0  0  0
   -1.6934    0.6849    0.4374 H   0  0  0  0  0  0  0  0  0  0  0  0
   -3.2540    1.9273   -1.9119 H   0  0  0  0  0  0  0  0  0  0  0  0
   -2.5214    2.7037   -0.5131 H   0  0  0  0  0  0  0  0  0  0  0  0
   -1.3692    3.2575   -2.3306 H   0  0  0  0  0  0  0  0  0  0  0  0
   -0.9776    1.6720   -2.9218 H   0  0  0  0  0  0  0  0  0  0  0  0
    0.6727    2.7200   -1.7694 H   0  0  0  0  0  0  0  0  0  0  0  0
    1.7427   -2.4825   -1.5651 H   0  0  0  0  0  0  0  0  0  0  0  0
    1.4973   -1.0495   -2.5920 H   0  0  0  0  0  0  0  0  0  0  0  0
    3.6642   -1.3317   -1.3667 H   0  0  0  0  0  0  0  0  0  0  0  0
    2.8700    0.3212   -1.3085 H   0  0  0  0  0  0  0  0  0  0  0  0
   -0.6894    0.0000    0.0000 H   0  0  0  0  0  0  0  0  0  0  0  0
  1  2  1  0
  2  3  1  0
  3  4  1  0
  4  5  1  0
  5  6  1  0
  6  7  2  0
  7  8  1  0
  8  9  2  0
  9 10  1  0
 10 11  2  0
 11 12  1  0
 12 13  1  0
 13 14  1  0
 14 15  1  0
 15 16  1  0
 16 17  2  0
 16 18  1  0
 18 19  1  1
 19 20  1  0
 20 21  2  0
 21 22  1  0
 22 23  2  0
 23 24  1  0
 24 25  1  0
 24 26  1  0
 24 27  1  0
 23 28  1  0
 28 29  2  0
 18 30  1  0
 30 31  1  0
 31 32  1  0
 32 33  1  0
 33 34  1  0
 34 35  2  0
 34 36  1  0
 36 37  2  0
 37 38  1  0
 38 39  2  0
 39 40  1  0
 40 41  2  0
 41 42  1  0
 42 43  1  0
 42 44  1  0
 42 45  1  0
 33 46  1  0
 46 47  1  0
 47 48  1  0
 48 49  1  0
 15 50  1  0
 50 51  1  0
 11  6  1  0
 51 12  1  0
 46 18  1  0
 29 20  1  0
 41 36  1  0
  1 53  1  0
  1 54  1  0
  1 55  1  0
  3 56  1  0
  3 57  1  0
  4 58  1  0
  4 59  1  0
  7 60  1  0
  8 61  1  0
  9 62  1  0
 10 63  1  0
 13 64  1  0
 13 65  1  0
 14 66  1  0
 14 67  1  0
 21 68  1  0
 22 69  1  0
 28 70  1  0
 29 71  1  0
 30 72  1  0
 30 73  1  0
 31 74  1  0
 31 75  1  0
 32 76  1  0
 32 77  1  0
 37 78  1  0
 39 79  1  0
 40 80  1  0
 46 81  1  1
 47 82  1  0
 47 83  1  0
 48 84  1  0
 48 85  1  0
 49 86  1  0
 50 87  1  0
 50 88  1  0
 51 89  1  0
 51 90  1  0
 52 91  1  0
M  END
$$$$
