
     RDKit          3D

 39 41  0  0  0  0  0  0  0  0999 V2000
   -2.9671    3.3401   -0.4395 C   0  0  0  0  0  0  0  0  0  0  0  0
   -1.6038    2.7024   -0.3361 C   0  0  0  0  0  0  0  0  0  0  0  0
   -1.7135    1.2941   -0.2888 O   0  0  0  0  0  0  0  0  0  0  0  0
   -0.5825    0.5062   -0.1932 C   0  0  0  0  0  0  0  0  0  0  0  0
    0.6508    1.1144   -0.1449 C   0  0  0  0  0  0  0  0  0  0  0  0
    1.7851    0.3109   -0.0484 C   0  0  0  0  0  0  0  0  0  0  0  0
    1.7115   -1.0513   -0.0008 C   0  0  0  0  0  0  0  0  0  0  0  0
    0.4493   -1.6215   -0.0522 C   0  0  0  0  0  0  0  0  0  0  0  0
   -0.7037   -0.8779   -0.1474 C   0  0  0  0  0  0  0  0  0  0  0  0
   -2.0390   -1.4542   -0.2029 C   0  0  0  0  0  0  0  0  0  0  0  0
   -2.3328   -2.4642    0.6830 C   0  0  0  0  0  0  0  0  0  0  0  0
   -3.5648   -3.0613    0.6985 C   0  0  0  0  0  0  0  0  0  0  0  0
   -4.5247   -2.6436   -0.1874 C   0  0  0  0  0  0  0  0  0  0  0  0
   -4.2299   -1.6558   -1.0502 N   0  0  0  0  0  0  0  0  0  0  0  0
   -3.0218   -1.0552   -1.0806 C   0  0  0  0  0  0  0  0  0  0  0  0
    2.8620   -1.9652    0.1008 C   0  0  0  0  0  0  0  0  0  0  0  0
    4.1870   -1.3201   -0.0200 C   0  0  0  0  0  0  0  0  0  0  0  0
    4.1976    0.1364    0.0980 C   0  0  0  0  0  0  0  0  0  0  0  0
    5.3031    0.7129    0.3014 O   0  0  0  0  0  0  0  0  0  0  0  0
    3.0488    0.9561    0.0002 N   0  0  0  0  0  0  0  0  0  0  0  0
    3.1645    2.4016   -0.0483 C   0  0  0  0  0  0  0  0  0  0  0  0
   -3.6677    2.8272    0.2828 H   0  0  0  0  0  0  0  0  0  0  0  0
   -2.9508    4.4000   -0.1184 H   0  0  0  0  0  0  0  0  0  0  0  0
   -3.3620    3.2924   -1.4752 H   0  0  0  0  0  0  0  0  0  0  0  0
   -1.0328    2.9352   -1.2729 H   0  0  0  0  0  0  0  0  0  0  0  0
   -1.0747    3.1019    0.5622 H   0  0  0  0  0  0  0  0  0  0  0  0
    0.7178    2.2024   -0.1825 H   0  0  0  0  0  0  0  0  0  0  0  0
    0.3112   -2.7074   -0.0188 H   0  0  0  0  0  0  0  0  0  0  0  0
   -1.6025   -2.8331    1.4090 H   0  0  0  0  0  0  0  0  0  0  0  0
   -3.7811   -3.8446    1.3910 H   0  0  0  0  0  0  0  0  0  0  0  0
   -5.5124   -3.1171   -0.1803 H   0  0  0  0  0  0  0  0  0  0  0  0
   -2.8007   -0.2463   -1.7970 H   0  0  0  0  0  0  0  0  0  0  0  0
    2.7086   -2.7594   -0.6798 H   0  0  0  0  0  0  0  0  0  0  0  0
    2.7737   -2.4756    1.1023 H   0  0  0  0  0  0  0  0  0  0  0  0
    4.6694   -1.6747   -0.9771 H   0  0  0  0  0  0  0  0  0  0  0  0
    4.8739   -1.7200    0.7826 H   0  0  0  0  0  0  0  0  0  0  0  0
    2.4709    2.8993    0.6590 H   0  0  0  0  0  0  0  0  0  0  0  0
    4.2248    2.6770    0.1626 H   0  0  0  0  0  0  0  0  0  0  0  0
    2.9581    2.7380   -1.1022 H   0  0  0  0  0  0  0  0  0  0  0  0
  1  2  1  0
  2  3  1  0
  3  4  1  0
  4  5  2  0
  5  6  1  0
  6  7  2  0
  7  8  1  0
  8  9  2  0
  9 10  1  0
 10 11  2  0
 11 12  1  0
 12 13  2  0
 13 14  1  0
 14 15  2  0
  7 16  1  0
 16 17  1  0
 17 18  1  0
 18 19  2  0
 18 20  1  0
 20 21  1  0
  9  4  1  0
 15 10  1  0
 20  6  1  0
  1 22  1  0
  1 23  1  0
  1 24  1  0
  2 25  1  0
  2 26  1  0
  5 27  1  0
  8 28  1  0
 11 29  1  0
 12 30  1  0
 13 31  1  0
 15 32  1  0
 16 33  1  0
 16 34  1  0
 17 35  1  0
 17 36  1  0
 21 37  1  0
 21 38  1  0
 21 39  1  0
M  END
$$$$
