
     RDKit          3D

 47 49  0  0  0  0  0  0  0  0999 V2000
   -7.6464    1.0339   -1.0925 C   0  0  0  0  0  0  0  0  0  0  0  0
   -6.4819    1.8289   -1.2077 O   0  0  0  0  0  0  0  0  0  0  0  0
   -5.2550    1.3914   -0.7289 C   0  0  0  0  0  0  0  0  0  0  0  0
   -4.1613    2.2313   -0.8810 C   0  0  0  0  0  0  0  0  0  0  0  0
   -2.9604    1.7560   -0.3902 C   0  0  0  0  0  0  0  0  0  0  0  0
   -2.8415    0.5306    0.2129 C   0  0  0  0  0  0  0  0  0  0  0  0
   -1.5377    0.1343    0.6894 N   0  0  0  0  0  0  0  0  0  0  0  0
   -0.6400   -0.5715   -0.1441 C   0  0  0  0  0  0  0  0  0  0  0  0
   -1.0501   -0.8336   -1.3331 O   0  0  0  0  0  0  0  0  0  0  0  0
    0.6547   -0.9980    0.2419 N   0  0  0  0  0  0  0  0  0  0  0  0
    1.2531   -0.8008    1.5363 C   0  0  0  0  0  0  0  0  0  0  0  0
    1.5081   -2.1362    2.1966 C   0  0  0  0  0  0  0  0  0  0  0  0
    2.0789   -3.0441    1.2211 N   0  0  0  0  0  0  0  0  0  0  0  0
    2.6459   -2.2682    0.0947 C   0  0  0  0  0  0  0  0  0  0  0  0
    1.5127   -1.7204   -0.7236 C   0  0  2  0  0  0  0  0  0  0  0  0
    1.9554   -0.8182   -1.8238 C   0  0  0  0  0  0  0  0  0  0  0  0
    2.6815    0.2608   -1.5897 O   0  0  0  0  0  0  0  0  0  0  0  0
    3.7917    0.8326   -1.1871 C   0  0  0  0  0  0  0  0  0  0  0  0
    4.9560    0.2402   -0.7476 C   0  0  0  0  0  0  0  0  0  0  0  0
    6.0191    1.0110   -0.3622 C   0  0  0  0  0  0  0  0  0  0  0  0
    5.9888    2.3893   -0.3907 C   0  0  0  0  0  0  0  0  0  0  0  0
    4.8627    2.9691   -0.8164 N   0  0  0  0  0  0  0  0  0  0  0  0
    3.8180    2.2475   -1.1953 C   0  0  0  0  0  0  0  0  0  0  0  0
   -3.9045   -0.3022    0.3685 C   0  0  0  0  0  0  0  0  0  0  0  0
   -5.1319    0.1578   -0.1210 C   0  0  0  0  0  0  0  0  0  0  0  0
   -7.9698    0.9281   -0.0360 H   0  0  0  0  0  0  0  0  0  0  0  0
   -7.4157   -0.0037   -1.4620 H   0  0  0  0  0  0  0  0  0  0  0  0
   -8.4399    1.4451   -1.7443 H   0  0  0  0  0  0  0  0  0  0  0  0
   -4.2182    3.1970   -1.3481 H   0  0  0  0  0  0  0  0  0  0  0  0
   -2.0830    2.3737   -0.4859 H   0  0  0  0  0  0  0  0  0  0  0  0
   -1.2404    0.3659    1.6593 H   0  0  0  0  0  0  0  0  0  0  0  0
    2.1221   -0.1157    1.5478 H   0  0  0  0  0  0  0  0  0  0  0  0
    0.4908   -0.2891    2.1963 H   0  0  0  0  0  0  0  0  0  0  0  0
    2.1609   -1.9638    3.0612 H   0  0  0  0  0  0  0  0  0  0  0  0
    0.5330   -2.5167    2.5494 H   0  0  0  0  0  0  0  0  0  0  0  0
    1.2980   -3.6332    0.8444 H   0  0  0  0  0  0  0  0  0  0  0  0
    3.2921   -2.9790   -0.4536 H   0  0  0  0  0  0  0  0  0  0  0  0
    3.1992   -1.4494    0.5836 H   0  0  0  0  0  0  0  0  0  0  0  0
    0.9240   -2.5778   -1.1495 H   0  0  0  0  0  0  0  0  0  0  0  0
    2.3705   -1.4876   -2.6656 H   0  0  0  0  0  0  0  0  0  0  0  0
    0.9710   -0.4813   -2.3267 H   0  0  0  0  0  0  0  0  0  0  0  0
    5.0229   -0.8357   -0.7229 H   0  0  0  0  0  0  0  0  0  0  0  0
    6.9181    0.4867   -0.0216 H   0  0  0  0  0  0  0  0  0  0  0  0
    6.8493    2.9689   -0.0781 H   0  0  0  0  0  0  0  0  0  0  0  0
    2.9344    2.8095   -1.5307 H   0  0  0  0  0  0  0  0  0  0  0  0
   -3.8475   -1.2738    0.8385 H   0  0  0  0  0  0  0  0  0  0  0  0
   -5.9874   -0.4896   -0.0065 H   0  0  0  0  0  0  0  0  0  0  0  0
  1  2  1  0
  2  3  1  0
  3  4  2  0
  4  5  1  0
  5  6  2  0
  6  7  1  0
  7  8  1  0
  8  9  2  0
  8 10  1  0
 10 11  1  0
 11 12  1  0
 12 13  1  0
 13 14  1  0
 14 15  1  0
 15 16  1  0
 16 17  1  0
 17 18  1  0
 18 19  2  0
 19 20  1  0
 20 21  2  0
 21 22  1  0
 22 23  2  0
  6 24  1  0
 24 25  2  0
 25  3  1  0
 15 10  1  0
 23 18  1  0
  1 26  1  0
  1 27  1  0
  1 28  1  0
  4 29  1  0
  5 30  1  0
  7 31  1  0
 11 32  1  0
 11 33  1  0
 12 34  1  0
 12 35  1  0
 13 36  1  0
 14 37  1  0
 14 38  1  0
 15 39  1  6
 16 40  1  0
 16 41  1  0
 19 42  1  0
 20 43  1  0
 21 44  1  0
 23 45  1  0
 24 46  1  0
 25 47  1  0
M  END
$$$$
