
     RDKit          3D

 51 54  0  0  0  0  0  0  0  0999 V2000
    5.0889   -1.0625   -1.6640 O   0  0  0  0  0  0  0  0  0  0  0  0
    4.9526   -1.5561   -0.2201 S   0  0  0  0  0  6  0  0  0  0  0  0
    5.4136   -3.0217   -0.3076 O   0  0  0  0  0  0  0  0  0  0  0  0
    5.9928   -0.6921    0.7648 N   0  0  0  0  0  0  0  0  0  0  0  0
    6.1479    0.6616    1.0587 C   0  0  0  0  0  0  0  0  0  0  0  0
    6.8688    1.3490    1.7760 N   0  0  0  0  0  0  0  0  0  0  0  0
    6.9335    2.6159    1.9323 C   0  0  0  0  0  0  0  0  0  0  0  0
    8.0684    3.4848    3.0453 Cl  0  0  0  0  0  0  0  0  0  0  0  0
    6.0741    3.3351    1.1943 C   0  0  0  0  0  0  0  0  0  0  0  0
    5.1648    2.0348    0.2565 S   0  0  0  0  0  0  0  0  0  0  0  0
    3.2532   -1.5041    0.1336 C   0  0  0  0  0  0  0  0  0  0  0  0
    2.6955   -2.5896    0.8601 C   0  0  0  0  0  0  0  0  0  0  0  0
    1.3791   -2.5885    1.2324 C   0  0  0  0  0  0  0  0  0  0  0  0
    0.7341   -3.9663    2.1361 Cl  0  0  0  0  0  0  0  0  0  0  0  0
    0.5182   -1.5536    0.9343 C   0  0  0  0  0  0  0  0  0  0  0  0
   -0.8242   -1.6219    1.3861 N   0  0  0  0  0  0  0  0  0  0  0  0
   -1.8239   -0.5590    1.0753 C   0  0  0  0  0  0  0  0  0  0  0  0
   -2.2215   -0.8054   -0.3141 C   0  0  1  0  0  0  0  0  0  0  0  0
   -2.8544   -2.1298   -0.4764 N   0  0  0  0  0  0  0  0  0  0  0  0
   -2.6005   -2.5744   -1.8053 C   0  0  0  0  0  0  0  0  0  0  0  0
   -2.1775   -1.4971   -2.7475 C   0  0  0  0  0  0  0  0  0  0  0  0
   -2.9655   -0.2459   -2.4234 C   0  0  0  0  0  0  0  0  0  0  0  0
   -2.9851    0.1213   -1.1140 C   0  0  0  0  0  0  0  0  0  0  0  0
   -3.7360    1.3200   -0.7511 C   0  0  0  0  0  0  0  0  0  0  0  0
   -4.4301    2.0410   -1.7333 C   0  0  0  0  0  0  0  0  0  0  0  0
   -5.1535    3.1756   -1.4829 C   0  0  0  0  0  0  0  0  0  0  0  0
   -5.2247    3.6662   -0.1989 C   0  0  0  0  0  0  0  0  0  0  0  0
   -5.9311    4.7860    0.0843 F   0  0  0  0  0  0  0  0  0  0  0  0
   -4.5487    2.9690    0.7744 C   0  0  0  0  0  0  0  0  0  0  0  0
   -3.8150    1.8161    0.5131 C   0  0  0  0  0  0  0  0  0  0  0  0
    1.0313   -0.4956    0.2342 C   0  0  0  0  0  0  0  0  0  0  0  0
    2.3749   -0.5027   -0.1446 C   0  0  0  0  0  0  0  0  0  0  0  0
    2.8178    0.5485   -0.9127 F   0  0  0  0  0  0  0  0  0  0  0  0
    6.7304   -1.2958    1.3188 H   0  0  0  0  0  0  0  0  0  0  0  0
    5.8437    4.4238    1.0648 H   0  0  0  0  0  0  0  0  0  0  0  0
    3.3472   -3.4248    1.1130 H   0  0  0  0  0  0  0  0  0  0  0  0
   -1.1243   -2.4275    1.9451 H   0  0  0  0  0  0  0  0  0  0  0  0
   -2.6238   -0.6806    1.8434 H   0  0  0  0  0  0  0  0  0  0  0  0
   -1.2280    0.3617    1.1567 H   0  0  0  0  0  0  0  0  0  0  0  0
   -1.2110   -0.9693   -0.8656 H   0  0  0  0  0  0  0  0  0  0  0  0
   -3.8260   -2.1395   -0.1662 H   0  0  0  0  0  0  0  0  0  0  0  0
   -3.5713   -2.9962   -2.1989 H   0  0  0  0  0  0  0  0  0  0  0  0
   -1.9071   -3.4380   -1.7817 H   0  0  0  0  0  0  0  0  0  0  0  0
   -1.1049   -1.3147   -2.8311 H   0  0  0  0  0  0  0  0  0  0  0  0
   -2.5126   -1.7994   -3.7791 H   0  0  0  0  0  0  0  0  0  0  0  0
   -3.4625    0.2925   -3.1958 H   0  0  0  0  0  0  0  0  0  0  0  0
   -4.4249    1.7210   -2.7602 H   0  0  0  0  0  0  0  0  0  0  0  0
   -5.6748    3.6985   -2.2826 H   0  0  0  0  0  0  0  0  0  0  0  0
   -4.5790    3.3214    1.7988 H   0  0  0  0  0  0  0  0  0  0  0  0
   -3.3089    1.3275    1.3405 H   0  0  0  0  0  0  0  0  0  0  0  0
    0.4200    0.3806   -0.0293 H   0  0  0  0  0  0  0  0  0  0  0  0
  1  2  2  0
  2  3  2  0
  2  4  1  0
  4  5  1  0
  5  6  2  0
  6  7  1  0
  7  8  1  0
  7  9  2  0
  9 10  1  0
  2 11  1  0
 11 12  2  0
 12 13  1  0
 13 14  1  0
 13 15  2  0
 15 16  1  0
 16 17  1  0
 17 18  1  0
 18 19  1  0
 19 20  1  0
 20 21  1  0
 21 22  1  0
 22 23  2  0
 23 24  1  0
 24 25  2  0
 25 26  1  0
 26 27  2  0
 27 28  1  0
 27 29  1  0
 29 30  2  0
 15 31  1  0
 31 32  2  0
 32 33  1  0
 10  5  1  0
 32 11  1  0
 23 18  1  0
 30 24  1  0
  4 34  1  0
  9 35  1  0
 12 36  1  0
 16 37  1  0
 17 38  1  0
 17 39  1  0
 18 40  1  6
 19 41  1  0
 20 42  1  0
 20 43  1  0
 21 44  1  0
 21 45  1  0
 22 46  1  0
 25 47  1  0
 26 48  1  0
 29 49  1  0
 30 50  1  0
 31 51  1  0
M  END
$$$$
