
     RDKit          3D

178179  0  0  0  0  0  0  0  0999 V2000
  -15.7885   -4.4632   -0.9194 C   0  0  0  0  0  0  0  0  0  0  0  0
  -15.2576   -3.9533    0.2872 O   0  0  0  0  0  0  0  0  0  0  0  0
  -14.7228   -2.6972    0.2852 C   0  0  0  0  0  0  0  0  0  0  0  0
  -14.7194   -2.0393   -0.7946 O   0  0  0  0  0  0  0  0  0  0  0  0
  -14.1551   -2.0896    1.4858 C   0  0  2  0  0  0  0  0  0  0  0  0
  -15.1493   -1.8246    2.5650 C   0  0  0  0  0  0  0  0  0  0  0  0
  -14.5708   -0.5613    3.2323 C   0  0  0  0  0  0  0  0  0  0  0  0
  -14.2156    0.1955    1.9239 C   0  0  0  0  0  0  0  0  0  0  0  0
  -13.5276   -0.7796    1.1395 N   0  0  0  0  0  0  0  0  0  0  0  0
  -12.4965   -0.6716    0.2067 C   0  0  0  0  0  0  0  0  0  0  0  0
  -12.1659   -1.8435   -0.3196 O   0  0  0  0  0  0  0  0  0  0  0  0
  -11.7462    0.4712   -0.2757 C   0  0  1  0  0  0  0  0  0  0  0  0
  -12.4638    1.4461   -1.1524 C   0  0  0  0  0  0  0  0  0  0  0  0
  -13.6416    2.1303   -0.7268 C   0  0  0  0  0  0  0  0  0  0  0  0
  -13.6367    3.3337   -0.0748 C   0  0  0  0  0  0  0  0  0  0  0  0
  -14.7823    3.9988    0.3004 C   0  0  0  0  0  0  0  0  0  0  0  0
  -16.0226    3.4671    0.0286 C   0  0  0  0  0  0  0  0  0  0  0  0
  -16.0631    2.2402   -0.6377 C   0  0  0  0  0  0  0  0  0  0  0  0
  -14.9057    1.5921   -1.0034 C   0  0  0  0  0  0  0  0  0  0  0  0
  -10.7673    1.0255    0.6286 N   0  0  0  0  0  0  0  0  0  0  0  0
  -11.0639    1.6324    1.9110 C   0  0  0  0  0  0  0  0  0  0  0  0
   -9.3569    0.9712    0.3111 C   0  0  0  0  0  0  0  0  0  0  0  0
   -8.5354    1.4725    1.1081 O   0  0  0  0  0  0  0  0  0  0  0  0
   -8.8196    0.3465   -0.9275 C   0  0  2  0  0  0  0  0  0  0  0  0
   -8.9696   -1.1319   -0.9842 C   0  0  0  0  0  0  0  0  0  0  0  0
   -7.3919    0.6180   -1.1253 N   0  0  0  0  0  0  0  0  0  0  0  0
   -6.9261    1.7774   -1.7686 C   0  0  0  0  0  0  0  0  0  0  0  0
   -7.8454    2.5957   -2.1274 O   0  0  0  0  0  0  0  0  0  0  0  0
   -5.5282    2.1400   -2.0688 C   0  0  1  0  0  0  0  0  0  0  0  0
   -4.6008    1.0847   -1.9351 N   0  0  0  0  0  0  0  0  0  0  0  0
   -3.3200    1.2520   -1.3600 C   0  0  0  0  0  0  0  0  0  0  0  0
   -2.9911    2.3876   -0.9365 O   0  0  0  0  0  0  0  0  0  0  0  0
   -2.3684    0.0968   -1.2653 C   0  0  0  0  0  0  0  0  0  0  0  0
   -0.9516    0.6549   -1.0875 C   0  0  2  0  0  0  0  0  0  0  0  0
   -0.7754    1.4363   -2.2574 O   0  0  0  0  0  0  0  0  0  0  0  0
   -0.0118   -0.4933   -1.2232 C   0  0  2  0  0  0  0  0  0  0  0  0
   -0.2240   -1.6316   -0.2934 C   0  0  0  0  0  0  0  0  0  0  0  0
   -0.1579   -1.3849    1.1568 C   0  0  0  0  0  0  0  0  0  0  0  0
   -0.4055   -2.7391    1.8557 C   0  0  0  0  0  0  0  0  0  0  0  0
    1.1718   -0.9162    1.6757 C   0  0  0  0  0  0  0  0  0  0  0  0
    1.3905   -0.1201   -1.4082 N   0  0  0  0  0  0  0  0  0  0  0  0
    2.0539   -0.2465   -2.6254 C   0  0  0  0  0  0  0  0  0  0  0  0
    1.4092   -0.6971   -3.6114 O   0  0  0  0  0  0  0  0  0  0  0  0
    3.4717    0.0990   -2.9004 C   0  0  2  0  0  0  0  0  0  0  0  0
    4.2129   -1.1028   -3.4437 C   0  0  0  0  0  0  0  0  0  0  0  0
    5.5727   -0.7130   -3.8740 C   0  0  0  0  0  0  0  0  0  0  0  0
    6.5553   -1.6667   -4.2799 N   0  0  0  0  0  0  0  0  0  0  0  0
    5.8718    0.5274   -3.8813 O   0  0  0  0  0  0  0  0  0  0  0  0
    4.0563    0.5302   -1.6438 N   0  0  0  0  0  0  0  0  0  0  0  0
    5.1713    0.0353   -0.9785 C   0  0  0  0  0  0  0  0  0  0  0  0
    5.8802   -0.9137   -1.3412 O   0  0  0  0  0  0  0  0  0  0  0  0
    5.6205    0.6764    0.3376 C   0  0  2  0  0  0  0  0  0  0  0  0
    5.8365    2.1156    0.0919 C   0  0  0  0  0  0  0  0  0  0  0  0
    6.2679    2.9440    1.2445 C   0  0  0  0  0  0  0  0  0  0  0  0
    7.5828    2.4850    1.8048 C   0  0  0  0  0  0  0  0  0  0  0  0
    6.3357    4.4220    0.8941 C   0  0  0  0  0  0  0  0  0  0  0  0
    6.7476   -0.0503    0.8658 N   0  0  0  0  0  0  0  0  0  0  0  0
    6.5978   -1.0629    1.8618 C   0  0  0  0  0  0  0  0  0  0  0  0
    5.4067   -1.2996    2.2519 O   0  0  0  0  0  0  0  0  0  0  0  0
    7.6790   -1.8317    2.4535 C   0  0  2  0  0  0  0  0  0  0  0  0
    8.9914   -1.3885    2.1192 O   0  0  0  0  0  0  0  0  0  0  0  0
    9.9613   -1.2197    3.0690 C   0  0  0  0  0  0  0  0  0  0  0  0
    9.6263   -1.4857    4.2760 O   0  0  0  0  0  0  0  0  0  0  0  0
   11.3522   -0.7722    2.8612 C   0  0  1  0  0  0  0  0  0  0  0  0
   11.5960   -0.3386    1.5560 O   0  0  0  0  0  0  0  0  0  0  0  0
   12.4331   -0.9195    0.6449 C   0  0  0  0  0  0  0  0  0  0  0  0
   13.0306   -1.9753    1.0343 O   0  0  0  0  0  0  0  0  0  0  0  0
   12.7156   -0.4646   -0.7220 C   0  0  2  0  0  0  0  0  0  0  0  0
   11.6198    0.2874   -1.3957 C   0  0  0  0  0  0  0  0  0  0  0  0
   10.3281   -0.4742   -1.5283 C   0  0  0  0  0  0  0  0  0  0  0  0
   11.4625    1.6325   -0.7152 C   0  0  0  0  0  0  0  0  0  0  0  0
   13.2425   -1.4844   -1.5801 N   0  0  0  0  0  0  0  0  0  0  0  0
   14.4554   -2.0726   -1.0373 C   0  0  0  0  0  0  0  0  0  0  0  0
   13.6005   -0.8516   -2.8565 C   0  0  0  0  0  0  0  0  0  0  0  0
   11.6932    0.3331    3.8259 C   0  0  0  0  0  0  0  0  0  0  0  0
   10.8186    1.5389    3.6811 C   0  0  0  0  0  0  0  0  0  0  0  0
   11.6473   -0.1671    5.2764 C   0  0  0  0  0  0  0  0  0  0  0  0
    7.6470   -3.2934    1.9157 C   0  0  0  0  0  0  0  0  0  0  0  0
    8.8031   -4.0168    2.5777 C   0  0  0  0  0  0  0  0  0  0  0  0
    7.8339   -3.3107    0.4332 C   0  0  0  0  0  0  0  0  0  0  0  0
   -5.4464    2.8023   -3.4541 C   0  0  1  0  0  0  0  0  0  0  0  0
   -4.0641    3.3672   -3.6845 C   0  0  0  0  0  0  0  0  0  0  0  0
   -5.7067    1.8797   -4.4670 O   0  0  0  0  0  0  0  0  0  0  0  0
  -16.8836   -4.5434   -0.9050 H   0  0  0  0  0  0  0  0  0  0  0  0
  -15.3868   -5.4634   -1.1707 H   0  0  0  0  0  0  0  0  0  0  0  0
  -15.4642   -3.8066   -1.7719 H   0  0  0  0  0  0  0  0  0  0  0  0
  -13.3522   -2.7178    1.9217 H   0  0  0  0  0  0  0  0  0  0  0  0
  -15.1398   -2.5972    3.3572 H   0  0  0  0  0  0  0  0  0  0  0  0
  -16.1631   -1.5995    2.1673 H   0  0  0  0  0  0  0  0  0  0  0  0
  -15.3255    0.0245    3.7501 H   0  0  0  0  0  0  0  0  0  0  0  0
  -13.6769   -0.8497    3.7820 H   0  0  0  0  0  0  0  0  0  0  0  0
  -13.7725    1.1503    2.1001 H   0  0  0  0  0  0  0  0  0  0  0  0
  -15.2612    0.3056    1.4590 H   0  0  0  0  0  0  0  0  0  0  0  0
  -11.0269   -0.0085   -1.0920 H   0  0  0  0  0  0  0  0  0  0  0  0
  -11.6468    2.1859   -1.4808 H   0  0  0  0  0  0  0  0  0  0  0  0
  -12.6524    0.9242   -2.1631 H   0  0  0  0  0  0  0  0  0  0  0  0
  -12.6817    3.7775    0.1486 H   0  0  0  0  0  0  0  0  0  0  0  0
  -14.6903    4.9575    0.8201 H   0  0  0  0  0  0  0  0  0  0  0  0
  -16.9291    3.9867    0.3195 H   0  0  0  0  0  0  0  0  0  0  0  0
  -17.0560    1.8504   -0.8376 H   0  0  0  0  0  0  0  0  0  0  0  0
  -14.9561    0.6273   -1.5215 H   0  0  0  0  0  0  0  0  0  0  0  0
  -11.4451    0.8817    2.6436 H   0  0  0  0  0  0  0  0  0  0  0  0
  -10.1393    2.0373    2.4034 H   0  0  0  0  0  0  0  0  0  0  0  0
  -11.7659    2.4568    1.8637 H   0  0  0  0  0  0  0  0  0  0  0  0
   -9.3490    0.8559   -1.7547 H   0  0  0  0  0  0  0  0  0  0  0  0
   -9.4396   -1.4828   -1.9408 H   0  0  0  0  0  0  0  0  0  0  0  0
   -9.4611   -1.5691   -0.0775 H   0  0  0  0  0  0  0  0  0  0  0  0
   -7.9668   -1.6707   -0.9972 H   0  0  0  0  0  0  0  0  0  0  0  0
   -6.7158   -0.0645   -0.7721 H   0  0  0  0  0  0  0  0  0  0  0  0
   -5.2324    2.9755   -1.3690 H   0  0  0  0  0  0  0  0  0  0  0  0
   -4.8659    0.1064   -2.2847 H   0  0  0  0  0  0  0  0  0  0  0  0
   -2.4778   -0.4685   -2.2152 H   0  0  0  0  0  0  0  0  0  0  0  0
   -2.6993   -0.5252   -0.4441 H   0  0  0  0  0  0  0  0  0  0  0  0
   -0.8905    1.2861   -0.2353 H   0  0  0  0  0  0  0  0  0  0  0  0
   -0.7754    0.8357   -3.0306 H   0  0  0  0  0  0  0  0  0  0  0  0
   -0.3002   -0.9276   -2.2437 H   0  0  0  0  0  0  0  0  0  0  0  0
    0.5689   -2.3946   -0.5466 H   0  0  0  0  0  0  0  0  0  0  0  0
   -1.1832   -2.1708   -0.5681 H   0  0  0  0  0  0  0  0  0  0  0  0
   -0.9462   -0.7128    1.5543 H   0  0  0  0  0  0  0  0  0  0  0  0
   -0.2635   -2.5548    2.9420 H   0  0  0  0  0  0  0  0  0  0  0  0
   -1.4691   -2.9777    1.6977 H   0  0  0  0  0  0  0  0  0  0  0  0
    0.3050   -3.5091    1.5046 H   0  0  0  0  0  0  0  0  0  0  0  0
    1.9701   -1.3874    1.0879 H   0  0  0  0  0  0  0  0  0  0  0  0
    1.2746    0.1801    1.6684 H   0  0  0  0  0  0  0  0  0  0  0  0
    1.2269   -1.2699    2.7445 H   0  0  0  0  0  0  0  0  0  0  0  0
    1.9349    0.2643   -0.6022 H   0  0  0  0  0  0  0  0  0  0  0  0
    3.5547    0.9140   -3.6280 H   0  0  0  0  0  0  0  0  0  0  0  0
    3.6119   -1.4443   -4.3297 H   0  0  0  0  0  0  0  0  0  0  0  0
    4.2922   -1.8881   -2.6816 H   0  0  0  0  0  0  0  0  0  0  0  0
    6.2707   -2.5380   -4.7813 H   0  0  0  0  0  0  0  0  0  0  0  0
    7.5584   -1.5239   -4.0959 H   0  0  0  0  0  0  0  0  0  0  0  0
    3.5381    1.3613   -1.1485 H   0  0  0  0  0  0  0  0  0  0  0  0
    4.7572    0.4741    1.0250 H   0  0  0  0  0  0  0  0  0  0  0  0
    4.8939    2.5340   -0.3842 H   0  0  0  0  0  0  0  0  0  0  0  0
    6.6249    2.1901   -0.7327 H   0  0  0  0  0  0  0  0  0  0  0  0
    5.4824    2.8424    2.0467 H   0  0  0  0  0  0  0  0  0  0  0  0
    7.5049    1.5731    2.4104 H   0  0  0  0  0  0  0  0  0  0  0  0
    7.9971    3.3261    2.4511 H   0  0  0  0  0  0  0  0  0  0  0  0
    8.3441    2.3192    1.0090 H   0  0  0  0  0  0  0  0  0  0  0  0
    5.3267    4.8574    1.0492 H   0  0  0  0  0  0  0  0  0  0  0  0
    6.7330    4.6228   -0.1096 H   0  0  0  0  0  0  0  0  0  0  0  0
    6.9990    4.8926    1.6759 H   0  0  0  0  0  0  0  0  0  0  0  0
    7.7269    0.1161    0.5349 H   0  0  0  0  0  0  0  0  0  0  0  0
    7.5352   -1.9611    3.5385 H   0  0  0  0  0  0  0  0  0  0  0  0
   12.0206   -1.6556    3.1107 H   0  0  0  0  0  0  0  0  0  0  0  0
   13.5691    0.2993   -0.6098 H   0  0  0  0  0  0  0  0  0  0  0  0
   11.9879    0.5332   -2.4398 H   0  0  0  0  0  0  0  0  0  0  0  0
    9.5349    0.2065   -1.8855 H   0  0  0  0  0  0  0  0  0  0  0  0
   10.4938   -1.2739   -2.2600 H   0  0  0  0  0  0  0  0  0  0  0  0
    9.9852   -0.8212   -0.5286 H   0  0  0  0  0  0  0  0  0  0  0  0
   11.8331    1.5599    0.3075 H   0  0  0  0  0  0  0  0  0  0  0  0
   12.1636    2.3643   -1.2236 H   0  0  0  0  0  0  0  0  0  0  0  0
   10.4475    2.0473   -0.7982 H   0  0  0  0  0  0  0  0  0  0  0  0
   14.9420   -1.4243   -0.2831 H   0  0  0  0  0  0  0  0  0  0  0  0
   14.2131   -3.0803   -0.6286 H   0  0  0  0  0  0  0  0  0  0  0  0
   15.1668   -2.2046   -1.8917 H   0  0  0  0  0  0  0  0  0  0  0  0
   12.7677   -0.8926   -3.5862 H   0  0  0  0  0  0  0  0  0  0  0  0
   14.4465   -1.4402   -3.3217 H   0  0  0  0  0  0  0  0  0  0  0  0
   13.9848    0.1662   -2.6816 H   0  0  0  0  0  0  0  0  0  0  0  0
   12.7623    0.6660    3.6563 H   0  0  0  0  0  0  0  0  0  0  0  0
   10.5074    1.9524    4.6783 H   0  0  0  0  0  0  0  0  0  0  0  0
   11.3953    2.3640    3.2056 H   0  0  0  0  0  0  0  0  0  0  0  0
    9.9254    1.3373    3.0661 H   0  0  0  0  0  0  0  0  0  0  0  0
   11.7049   -1.2726    5.2998 H   0  0  0  0  0  0  0  0  0  0  0  0
   12.4466    0.3267    5.8766 H   0  0  0  0  0  0  0  0  0  0  0  0
   10.6586    0.1708    5.6876 H   0  0  0  0  0  0  0  0  0  0  0  0
    6.6803   -3.6925    2.2116 H   0  0  0  0  0  0  0  0  0  0  0  0
    8.8469   -5.0494    2.1698 H   0  0  0  0  0  0  0  0  0  0  0  0
    8.6843   -4.0581    3.6852 H   0  0  0  0  0  0  0  0  0  0  0  0
    9.7637   -3.5477    2.3550 H   0  0  0  0  0  0  0  0  0  0  0  0
    6.9023   -3.5452   -0.1242 H   0  0  0  0  0  0  0  0  0  0  0  0
    8.6129   -4.0783    0.1634 H   0  0  0  0  0  0  0  0  0  0  0  0
    8.2371   -2.3346    0.0488 H   0  0  0  0  0  0  0  0  0  0  0  0
   -6.1575    3.6273   -3.5279 H   0  0  0  0  0  0  0  0  0  0  0  0
   -3.7899    4.0935   -2.8795 H   0  0  0  0  0  0  0  0  0  0  0  0
   -3.9657    3.8105   -4.6981 H   0  0  0  0  0  0  0  0  0  0  0  0
   -3.3124    2.5542   -3.6463 H   0  0  0  0  0  0  0  0  0  0  0  0
   -5.5305    2.3425   -5.3300 H   0  0  0  0  0  0  0  0  0  0  0  0
  1  2  1  0
  2  3  1  0
  3  4  2  0
  3  5  1  0
  5  6  1  0
  6  7  1  0
  7  8  1  0
  8  9  1  0
  9 10  1  0
 10 11  2  0
 10 12  1  0
 12 13  1  0
 13 14  1  0
 14 15  2  0
 15 16  1  0
 16 17  2  0
 17 18  1  0
 18 19  2  0
 12 20  1  0
 20 21  1  0
 20 22  1  0
 22 23  2  0
 22 24  1  0
 24 25  1  0
 24 26  1  0
 26 27  1  0
 27 28  2  0
 27 29  1  0
 29 30  1  0
 30 31  1  0
 31 32  2  0
 31 33  1  0
 33 34  1  0
 34 35  1  0
 34 36  1  0
 36 37  1  0
 37 38  1  0
 38 39  1  0
 38 40  1  0
 36 41  1  0
 41 42  1  0
 42 43  2  0
 42 44  1  0
 44 45  1  0
 45 46  1  0
 46 47  1  0
 46 48  2  0
 44 49  1  0
 49 50  1  0
 50 51  2  0
 50 52  1  0
 52 53  1  0
 53 54  1  0
 54 55  1  0
 54 56  1  0
 52 57  1  0
 57 58  1  0
 58 59  2  0
 58 60  1  0
 60 61  1  0
 61 62  1  0
 62 63  2  0
 62 64  1  0
 64 65  1  0
 65 66  1  0
 66 67  2  0
 66 68  1  0
 68 69  1  0
 69 70  1  0
 69 71  1  0
 68 72  1  0
 72 73  1  0
 72 74  1  0
 64 75  1  0
 75 76  1  0
 75 77  1  0
 60 78  1  0
 78 79  1  0
 78 80  1  0
 29 81  1  0
 81 82  1  0
 81 83  1  0
  9  5  1  0
 19 14  1  0
  1 84  1  0
  1 85  1  0
  1 86  1  0
  5 87  1  1
  6 88  1  0
  6 89  1  0
  7 90  1  0
  7 91  1  0
  8 92  1  0
  8 93  1  0
 12 94  1  6
 13 95  1  0
 13 96  1  0
 15 97  1  0
 16 98  1  0
 17 99  1  0
 18100  1  0
 19101  1  0
 21102  1  0
 21103  1  0
 21104  1  0
 24105  1  6
 25106  1  0
 25107  1  0
 25108  1  0
 26109  1  0
 29110  1  1
 30111  1  0
 33112  1  0
 33113  1  0
 34114  1  1
 35115  1  0
 36116  1  6
 37117  1  0
 37118  1  0
 38119  1  0
 39120  1  0
 39121  1  0
 39122  1  0
 40123  1  0
 40124  1  0
 40125  1  0
 41126  1  0
 44127  1  6
 45128  1  0
 45129  1  0
 47130  1  0
 47131  1  0
 49132  1  0
 52133  1  1
 53134  1  0
 53135  1  0
 54136  1  0
 55137  1  0
 55138  1  0
 55139  1  0
 56140  1  0
 56141  1  0
 56142  1  0
 57143  1  0
 60144  1  1
 64145  1  1
 68146  1  1
 69147  1  0
 70148  1  0
 70149  1  0
 70150  1  0
 71151  1  0
 71152  1  0
 71153  1  0
 73154  1  0
 73155  1  0
 73156  1  0
 74157  1  0
 74158  1  0
 74159  1  0
 75160  1  0
 76161  1  0
 76162  1  0
 76163  1  0
 77164  1  0
 77165  1  0
 77166  1  0
 78167  1  0
 79168  1  0
 79169  1  0
 79170  1  0
 80171  1  0
 80172  1  0
 80173  1  0
 81174  1  1
 82175  1  0
 82176  1  0
 82177  1  0
 83178  1  0
M  END
$$$$
