
     RDKit          3D

 80 81  0  0  0  0  0  0  0  0999 V2000
    3.7215    2.0911    0.4130 C   0  0  0  0  0  0  0  0  0  0  0  0
    3.7631    0.5580    0.4282 C   0  0  0  0  0  0  0  0  0  0  0  0
    2.4080    0.1097    0.3828 N   0  0  0  0  0  0  0  0  0  0  0  0
    1.8530   -0.7457    1.3716 C   0  0  0  0  0  0  0  0  0  0  0  0
    2.6758   -1.0672    2.2856 O   0  0  0  0  0  0  0  0  0  0  0  0
    0.4598   -1.2306    1.3634 C   0  0  2  0  0  0  0  0  0  0  0  0
    0.3304   -2.7318    1.2554 C   0  0  0  0  0  0  0  0  0  0  0  0
    0.9153   -3.5104    2.3341 C   0  0  0  0  0  0  0  0  0  0  0  0
    1.4348   -2.9960    3.3543 O   0  0  0  0  0  0  0  0  0  0  0  0
    0.9072   -4.9246    2.2468 N   0  0  0  0  0  0  0  0  0  0  0  0
    1.4807   -5.7186    3.3119 C   0  0  0  0  0  0  0  0  0  0  0  0
    0.3266   -5.5588    1.0918 C   0  0  0  0  0  0  0  0  0  0  0  0
   -0.3465   -0.6905    0.2716 N   0  0  0  0  0  0  0  0  0  0  0  0
   -1.4985    0.0787    0.4960 C   0  0  0  0  0  0  0  0  0  0  0  0
   -1.7701    0.2740    1.7467 O   0  0  0  0  0  0  0  0  0  0  0  0
   -2.3872    0.6504   -0.5167 C   0  0  1  0  0  0  0  0  0  0  0  0
   -3.5424    1.2998    0.1453 N   0  0  0  0  0  0  0  0  0  0  0  0
   -4.8647    0.8389   -0.0669 C   0  0  0  0  0  0  0  0  0  0  0  0
   -5.0300   -0.1437   -0.8410 O   0  0  0  0  0  0  0  0  0  0  0  0
   -6.0399    1.4776    0.5915 C   0  0  0  0  0  0  0  0  0  0  0  0
   -7.3307    0.8348    0.1780 C   0  0  0  0  0  0  0  0  0  0  0  0
   -8.4819    1.5348    0.8887 C   0  0  0  0  0  0  0  0  0  0  0  0
   -7.3734   -0.6436    0.4080 C   0  0  0  0  0  0  0  0  0  0  0  0
   -7.5257    1.1107   -1.3200 C   0  0  0  0  0  0  0  0  0  0  0  0
   -1.7788    1.5571   -1.5061 C   0  0  0  0  0  0  0  0  0  0  0  0
   -0.7455    0.9002   -2.3562 C   0  0  0  0  0  0  0  0  0  0  0  0
   -2.8394    2.1104   -2.4533 C   0  0  0  0  0  0  0  0  0  0  0  0
   -1.1544    2.7703   -0.8080 C   0  0  0  0  0  0  0  0  0  0  0  0
    4.5712    0.1488   -0.7170 C   0  0  0  0  0  0  0  0  0  0  0  0
    4.0771   -0.5508   -1.6233 O   0  0  0  0  0  0  0  0  0  0  0  0
    5.9581    0.5527   -0.8115 C   0  0  0  0  0  0  0  0  0  0  0  0
    6.6381    1.3060    0.0739 N   0  0  0  0  0  0  0  0  0  0  0  0
    7.8987    1.4843   -0.3284 C   0  0  0  0  0  0  0  0  0  0  0  0
    9.0183    2.1352    0.1400 C   0  0  0  0  0  0  0  0  0  0  0  0
   10.1976    2.1017   -0.5726 C   0  0  0  0  0  0  0  0  0  0  0  0
   10.3123    1.4238   -1.7733 C   0  0  0  0  0  0  0  0  0  0  0  0
    9.1839    0.7770   -2.2304 C   0  0  0  0  0  0  0  0  0  0  0  0
    7.9900    0.8001   -1.5270 C   0  0  0  0  0  0  0  0  0  0  0  0
    6.8150    0.2599   -1.7794 O   0  0  0  0  0  0  0  0  0  0  0  0
    2.7185    2.4639    0.1102 H   0  0  0  0  0  0  0  0  0  0  0  0
    3.9716    2.4492    1.4233 H   0  0  0  0  0  0  0  0  0  0  0  0
    4.4389    2.5192   -0.3023 H   0  0  0  0  0  0  0  0  0  0  0  0
    4.2263    0.1769    1.3770 H   0  0  0  0  0  0  0  0  0  0  0  0
    1.8244    0.4287   -0.4053 H   0  0  0  0  0  0  0  0  0  0  0  0
   -0.0066   -0.8554    2.3067 H   0  0  0  0  0  0  0  0  0  0  0  0
   -0.7333   -3.0239    1.0304 H   0  0  0  0  0  0  0  0  0  0  0  0
    0.8664   -3.0165    0.2979 H   0  0  0  0  0  0  0  0  0  0  0  0
    1.1714   -5.3701    4.3230 H   0  0  0  0  0  0  0  0  0  0  0  0
    2.5885   -5.7716    3.2204 H   0  0  0  0  0  0  0  0  0  0  0  0
    1.1193   -6.7837    3.2520 H   0  0  0  0  0  0  0  0  0  0  0  0
    0.5785   -5.0284    0.1600 H   0  0  0  0  0  0  0  0  0  0  0  0
    0.7678   -6.5898    0.9635 H   0  0  0  0  0  0  0  0  0  0  0  0
   -0.7808   -5.6321    1.1650 H   0  0  0  0  0  0  0  0  0  0  0  0
   -0.0382   -0.9044   -0.6861 H   0  0  0  0  0  0  0  0  0  0  0  0
   -2.8431   -0.2102   -1.0948 H   0  0  0  0  0  0  0  0  0  0  0  0
   -3.3938    2.1224    0.7900 H   0  0  0  0  0  0  0  0  0  0  0  0
   -5.8943    1.3152    1.6910 H   0  0  0  0  0  0  0  0  0  0  0  0
   -6.1121    2.5623    0.4111 H   0  0  0  0  0  0  0  0  0  0  0  0
   -9.3377    1.6654    0.1817 H   0  0  0  0  0  0  0  0  0  0  0  0
   -8.7731    0.9001    1.7382 H   0  0  0  0  0  0  0  0  0  0  0  0
   -8.1586    2.5489    1.1803 H   0  0  0  0  0  0  0  0  0  0  0  0
   -8.3059   -0.8776    0.9748 H   0  0  0  0  0  0  0  0  0  0  0  0
   -7.4332   -1.2174   -0.5596 H   0  0  0  0  0  0  0  0  0  0  0  0
   -6.5208   -1.0434    0.9885 H   0  0  0  0  0  0  0  0  0  0  0  0
   -7.1094    0.2291   -1.8463 H   0  0  0  0  0  0  0  0  0  0  0  0
   -8.6277    1.1469   -1.5400 H   0  0  0  0  0  0  0  0  0  0  0  0
   -7.0092    2.0476   -1.5697 H   0  0  0  0  0  0  0  0  0  0  0  0
   -1.0480   -0.1473   -2.6216 H   0  0  0  0  0  0  0  0  0  0  0  0
   -0.7365    1.4053   -3.3940 H   0  0  0  0  0  0  0  0  0  0  0  0
    0.2866    1.0051   -2.0154 H   0  0  0  0  0  0  0  0  0  0  0  0
   -2.4162    2.8399   -3.1515 H   0  0  0  0  0  0  0  0  0  0  0  0
   -3.2481    1.2644   -3.0430 H   0  0  0  0  0  0  0  0  0  0  0  0
   -3.6705    2.6012   -1.8928 H   0  0  0  0  0  0  0  0  0  0  0  0
   -0.2078    2.4650   -0.3058 H   0  0  0  0  0  0  0  0  0  0  0  0
   -1.9026    3.1754   -0.1164 H   0  0  0  0  0  0  0  0  0  0  0  0
   -0.9886    3.5252   -1.5902 H   0  0  0  0  0  0  0  0  0  0  0  0
    8.9555    2.6840    1.0931 H   0  0  0  0  0  0  0  0  0  0  0  0
   11.0801    2.6266   -0.1831 H   0  0  0  0  0  0  0  0  0  0  0  0
   11.2578    1.4058   -2.3298 H   0  0  0  0  0  0  0  0  0  0  0  0
    9.2173    0.2244   -3.1757 H   0  0  0  0  0  0  0  0  0  0  0  0
  1  2  1  0
  2  3  1  0
  3  4  1  0
  4  5  2  0
  4  6  1  0
  6  7  1  0
  7  8  1  0
  8  9  2  0
  8 10  1  0
 10 11  1  0
 10 12  1  0
  6 13  1  0
 13 14  1  0
 14 15  2  0
 14 16  1  0
 16 17  1  0
 17 18  1  0
 18 19  2  0
 18 20  1  0
 20 21  1  0
 21 22  1  0
 21 23  1  0
 21 24  1  0
 16 25  1  0
 25 26  1  0
 25 27  1  0
 25 28  1  0
  2 29  1  0
 29 30  2  0
 29 31  1  0
 31 32  2  0
 32 33  1  0
 33 34  2  0
 34 35  1  0
 35 36  2  0
 36 37  1  0
 37 38  2  0
 38 39  1  0
 39 31  1  0
 38 33  1  0
  1 40  1  0
  1 41  1  0
  1 42  1  0
  2 43  1  0
  3 44  1  0
  6 45  1  1
  7 46  1  0
  7 47  1  0
 11 48  1  0
 11 49  1  0
 11 50  1  0
 12 51  1  0
 12 52  1  0
 12 53  1  0
 13 54  1  0
 16 55  1  6
 17 56  1  0
 20 57  1  0
 20 58  1  0
 22 59  1  0
 22 60  1  0
 22 61  1  0
 23 62  1  0
 23 63  1  0
 23 64  1  0
 24 65  1  0
 24 66  1  0
 24 67  1  0
 26 68  1  0
 26 69  1  0
 26 70  1  0
 27 71  1  0
 27 72  1  0
 27 73  1  0
 28 74  1  0
 28 75  1  0
 28 76  1  0
 34 77  1  0
 35 78  1  0
 36 79  1  0
 37 80  1  0
M  END
$$$$
