
     RDKit          3D

 80 86  0  0  0  0  0  0  0  0999 V2000
   -8.4403   -4.6881   -1.9109 C   0  0  0  0  0  0  0  0  0  0  0  0
   -7.8857   -3.4027   -1.4069 C   0  0  0  0  0  0  0  0  0  0  0  0
   -8.1058   -2.1893   -2.0219 C   0  0  0  0  0  0  0  0  0  0  0  0
   -7.5620   -1.0164   -1.5094 C   0  0  0  0  0  0  0  0  0  0  0  0
   -6.7869   -1.0040   -0.3787 C   0  0  0  0  0  0  0  0  0  0  0  0
   -6.1940    0.1589    0.1960 N   0  0  0  0  0  0  0  0  0  0  0  0
   -6.7876    1.2138    0.7146 N   0  0  0  0  0  0  0  0  0  0  0  0
   -5.8972    2.0930    1.1696 C   0  0  0  0  0  0  0  0  0  0  0  0
   -6.1238    3.4081    1.8423 C   0  0  0  0  0  0  0  0  0  0  0  0
   -4.7974    4.1070    2.0265 C   0  0  0  0  0  0  0  0  0  0  0  0
   -7.0228    4.2663    0.9860 C   0  0  0  0  0  0  0  0  0  0  0  0
   -6.8140    3.1955    3.1812 C   0  0  0  0  0  0  0  0  0  0  0  0
   -4.6406    1.5288    0.9073 C   0  0  0  0  0  0  0  0  0  0  0  0
   -4.8339    0.3178    0.2977 C   0  0  0  0  0  0  0  0  0  0  0  0
   -3.8593   -0.6150   -0.1289 N   0  0  0  0  0  0  0  0  0  0  0  0
   -2.4772   -0.4799    0.1469 C   0  0  0  0  0  0  0  0  0  0  0  0
   -2.0480    0.4931    0.8175 O   0  0  0  0  0  0  0  0  0  0  0  0
   -1.5060   -1.4085   -0.3002 N   0  0  0  0  0  0  0  0  0  0  0  0
   -0.1151   -1.2954   -0.0039 C   0  0  0  0  0  0  0  0  0  0  0  0
    0.4111   -1.9361    1.1246 C   0  0  0  0  0  0  0  0  0  0  0  0
    1.7371   -1.8200    1.3987 C   0  0  0  0  0  0  0  0  0  0  0  0
    2.6096   -1.0810    0.5958 C   0  0  0  0  0  0  0  0  0  0  0  0
    3.9351   -1.0164    0.9423 O   0  0  0  0  0  0  0  0  0  0  0  0
    4.9024   -1.5567    0.1329 C   0  0  0  0  0  0  0  0  0  0  0  0
    6.2174   -1.4534    0.5579 C   0  0  0  0  0  0  0  0  0  0  0  0
    7.2753   -1.9708   -0.1870 C   0  0  0  0  0  0  0  0  0  0  0  0
    8.5945   -1.8580    0.3153 N   0  0  0  0  0  0  0  0  0  0  0  0
    9.3811   -0.6925    0.1909 C   0  0  0  0  0  0  0  0  0  0  0  0
   10.6728   -0.6373    0.6475 C   0  0  0  0  0  0  0  0  0  0  0  0
   11.4565    0.4985    0.5468 C   0  0  0  0  0  0  0  0  0  0  0  0
   10.8981    1.6222   -0.0432 C   0  0  0  0  0  0  0  0  0  0  0  0
   11.4060    2.8445   -0.2743 N   0  0  0  0  0  0  0  0  0  0  0  0
   10.4825    3.5725   -0.8638 N   0  0  0  0  0  0  0  0  0  0  0  0
    9.3446    2.8464   -1.0337 C   0  0  0  0  0  0  0  0  0  0  0  0
    9.6054    1.6062   -0.5135 C   0  0  0  0  0  0  0  0  0  0  0  0
    8.8631    0.4447   -0.3894 C   0  0  0  0  0  0  0  0  0  0  0  0
    6.9651   -2.5756   -1.3418 N   0  0  0  0  0  0  0  0  0  0  0  0
    5.6873   -2.6901   -1.7806 C   0  0  0  0  0  0  0  0  0  0  0  0
    4.6744   -2.1739   -1.0274 N   0  0  0  0  0  0  0  0  0  0  0  0
    2.1229   -0.4389   -0.5181 C   0  0  0  0  0  0  0  0  0  0  0  0
    2.9359    0.3199   -1.3396 C   0  0  0  0  0  0  0  0  0  0  0  0
    2.4079    0.9590   -2.4395 C   0  0  0  0  0  0  0  0  0  0  0  0
    1.0643    0.8413   -2.7205 C   0  0  0  0  0  0  0  0  0  0  0  0
    0.2488    0.0869   -1.9036 C   0  0  0  0  0  0  0  0  0  0  0  0
    0.7522   -0.5712   -0.7843 C   0  0  0  0  0  0  0  0  0  0  0  0
   -6.5618   -2.2329    0.2481 C   0  0  0  0  0  0  0  0  0  0  0  0
   -7.1003   -3.3991   -0.2584 C   0  0  0  0  0  0  0  0  0  0  0  0
   -9.1006   -5.1416   -1.1142 H   0  0  0  0  0  0  0  0  0  0  0  0
   -7.6512   -5.3930   -2.2169 H   0  0  0  0  0  0  0  0  0  0  0  0
   -9.0994   -4.4252   -2.7582 H   0  0  0  0  0  0  0  0  0  0  0  0
   -8.7122   -2.1813   -2.9128 H   0  0  0  0  0  0  0  0  0  0  0  0
   -7.7322   -0.0443   -1.9934 H   0  0  0  0  0  0  0  0  0  0  0  0
   -4.0962    3.4509    2.5663 H   0  0  0  0  0  0  0  0  0  0  0  0
   -4.4065    4.3152    0.9955 H   0  0  0  0  0  0  0  0  0  0  0  0
   -4.9599    5.0475    2.5918 H   0  0  0  0  0  0  0  0  0  0  0  0
   -7.5672    5.0161    1.6135 H   0  0  0  0  0  0  0  0  0  0  0  0
   -7.8462    3.6378    0.5433 H   0  0  0  0  0  0  0  0  0  0  0  0
   -6.4781    4.7525    0.1789 H   0  0  0  0  0  0  0  0  0  0  0  0
   -6.0250    3.2240    3.9793 H   0  0  0  0  0  0  0  0  0  0  0  0
   -7.5142    4.0310    3.3698 H   0  0  0  0  0  0  0  0  0  0  0  0
   -7.2968    2.2212    3.2555 H   0  0  0  0  0  0  0  0  0  0  0  0
   -3.7171    2.0263    1.1694 H   0  0  0  0  0  0  0  0  0  0  0  0
   -4.1372   -1.4640   -0.6964 H   0  0  0  0  0  0  0  0  0  0  0  0
   -1.8184   -2.2136   -0.8726 H   0  0  0  0  0  0  0  0  0  0  0  0
   -0.2994   -2.4922    1.7080 H   0  0  0  0  0  0  0  0  0  0  0  0
    2.1256   -2.3227    2.2783 H   0  0  0  0  0  0  0  0  0  0  0  0
    6.3997   -0.9546    1.4950 H   0  0  0  0  0  0  0  0  0  0  0  0
    9.0410   -2.6857    0.8205 H   0  0  0  0  0  0  0  0  0  0  0  0
   11.1475   -1.4931    1.1148 H   0  0  0  0  0  0  0  0  0  0  0  0
   12.4746    0.5575    0.9007 H   0  0  0  0  0  0  0  0  0  0  0  0
   12.3893    3.1400   -0.0116 H   0  0  0  0  0  0  0  0  0  0  0  0
    8.4166    3.1849   -1.4887 H   0  0  0  0  0  0  0  0  0  0  0  0
    7.8528    0.4877   -0.7765 H   0  0  0  0  0  0  0  0  0  0  0  0
    5.5201   -3.1881   -2.7143 H   0  0  0  0  0  0  0  0  0  0  0  0
    3.9804    0.4142   -1.0888 H   0  0  0  0  0  0  0  0  0  0  0  0
    3.0593    1.5560   -3.0906 H   0  0  0  0  0  0  0  0  0  0  0  0
    0.6715    1.3487   -3.5854 H   0  0  0  0  0  0  0  0  0  0  0  0
   -0.8143   -0.0303   -2.0955 H   0  0  0  0  0  0  0  0  0  0  0  0
   -5.9608   -2.2361    1.1322 H   0  0  0  0  0  0  0  0  0  0  0  0
   -6.9374   -4.3664    0.2161 H   0  0  0  0  0  0  0  0  0  0  0  0
  1  2  1  0
  2  3  2  0
  3  4  1  0
  4  5  2  0
  5  6  1  0
  6  7  1  0
  7  8  2  0
  8  9  1  0
  9 10  1  0
  9 11  1  0
  9 12  1  0
  8 13  1  0
 13 14  2  0
 14 15  1  0
 15 16  1  0
 16 17  2  0
 16 18  1  0
 18 19  1  0
 19 20  2  0
 20 21  1  0
 21 22  2  0
 22 23  1  0
 23 24  1  0
 24 25  2  0
 25 26  1  0
 26 27  1  0
 27 28  1  0
 28 29  2  0
 29 30  1  0
 30 31  2  0
 31 32  1  0
 32 33  1  0
 33 34  2  0
 34 35  1  0
 35 36  2  0
 26 37  2  0
 37 38  1  0
 38 39  2  0
 22 40  1  0
 40 41  2  0
 41 42  1  0
 42 43  2  0
 43 44  1  0
 44 45  2  0
  5 46  1  0
 46 47  2  0
 47  2  1  0
 14  6  1  0
 45 19  1  0
 39 24  1  0
 45 40  1  0
 36 28  1  0
 35 31  1  0
  1 48  1  0
  1 49  1  0
  1 50  1  0
  3 51  1  0
  4 52  1  0
 10 53  1  0
 10 54  1  0
 10 55  1  0
 11 56  1  0
 11 57  1  0
 11 58  1  0
 12 59  1  0
 12 60  1  0
 12 61  1  0
 13 62  1  0
 15 63  1  0
 18 64  1  0
 20 65  1  0
 21 66  1  0
 25 67  1  0
 27 68  1  0
 29 69  1  0
 30 70  1  0
 32 71  1  0
 34 72  1  0
 36 73  1  0
 38 74  1  0
 41 75  1  0
 42 76  1  0
 43 77  1  0
 44 78  1  0
 46 79  1  0
 47 80  1  0
M  END
$$$$
