
     RDKit          3D

 67 71  0  0  0  0  0  0  0  0999 V2000
    1.6567   -5.4442    1.6200 C   0  0  0  0  0  0  0  0  0  0  0  0
    2.2322   -4.2418    1.0199 C   0  0  0  0  0  0  0  0  0  0  0  0
    2.7188   -3.2494    0.5021 C   0  0  0  0  0  0  0  0  0  0  0  0
    3.2990   -2.0729   -0.0864 C   0  0  2  0  0  0  0  0  0  0  0  0
    3.9803   -2.4024   -1.2903 O   0  0  0  0  0  0  0  0  0  0  0  0
    4.4094   -1.4635    0.7813 C   0  0  0  0  0  0  0  0  0  0  0  0
    4.1940    0.0401    0.5182 C   0  0  0  0  0  0  0  0  0  0  0  0
    2.7338    0.0897    0.6258 C   0  0  1  0  0  0  0  0  0  0  0  0
    2.0214    1.3157    0.1283 C   0  0  2  0  0  0  0  0  0  0  0  0
    2.7228    2.4849    0.7572 C   0  0  0  0  0  0  0  0  0  0  0  0
    1.9514    3.7292    0.2625 C   0  0  0  0  0  0  0  0  0  0  0  0
    0.6287    3.5511    0.9408 C   0  0  0  0  0  0  0  0  0  0  0  0
    0.1489    4.5948    1.5737 C   0  0  0  0  0  0  0  0  0  0  0  0
   -1.1337    4.4585    2.2465 C   0  0  0  0  0  0  0  0  0  0  0  0
   -1.4317    5.1665    3.2362 O   0  0  0  0  0  0  0  0  0  0  0  0
   -2.0736    3.4692    1.7356 C   0  0  0  0  0  0  0  0  0  0  0  0
   -1.4573    2.1702    1.2629 C   0  0  0  0  0  0  0  0  0  0  0  0
   -0.0526    2.2345    0.8783 C   0  0  0  0  0  0  0  0  0  0  0  0
    0.5909    1.1587    0.5056 C   0  0  0  0  0  0  0  0  0  0  0  0
    0.0118   -0.1667    0.4679 C   0  0  1  0  0  0  0  0  0  0  0  0
   -1.2632   -0.3618   -0.2182 C   0  0  0  0  0  0  0  0  0  0  0  0
   -1.4814   -0.0762   -1.5290 C   0  0  0  0  0  0  0  0  0  0  0  0
   -2.6993   -0.2815   -2.1642 C   0  0  0  0  0  0  0  0  0  0  0  0
   -3.7806   -0.8066   -1.4548 C   0  0  0  0  0  0  0  0  0  0  0  0
   -5.0134   -1.0132   -2.0896 N   0  0  0  0  0  0  0  0  0  0  0  0
   -6.1268   -1.5555   -1.3484 C   0  0  0  0  0  0  0  0  0  0  0  0
   -5.1908   -0.6899   -3.4842 C   0  0  0  0  0  0  0  0  0  0  0  0
   -3.5445   -1.0918   -0.1246 C   0  0  0  0  0  0  0  0  0  0  0  0
   -2.3241   -0.8763    0.4746 C   0  0  0  0  0  0  0  0  0  0  0  0
    0.8921   -1.2934   -0.0116 C   0  0  0  0  0  0  0  0  0  0  0  0
    2.2931   -1.0000   -0.3516 C   0  0  2  0  0  0  0  0  0  0  0  0
    2.4742   -0.5393   -1.7876 C   0  0  0  0  0  0  0  0  0  0  0  0
    1.3858   -5.2339    2.6927 H   0  0  0  0  0  0  0  0  0  0  0  0
    2.4189   -6.2691    1.6021 H   0  0  0  0  0  0  0  0  0  0  0  0
    0.7822   -5.8341    1.0582 H   0  0  0  0  0  0  0  0  0  0  0  0
    4.6282   -1.6511   -1.4895 H   0  0  0  0  0  0  0  0  0  0  0  0
    4.1281   -1.6270    1.8367 H   0  0  0  0  0  0  0  0  0  0  0  0
    5.4042   -1.8005    0.4996 H   0  0  0  0  0  0  0  0  0  0  0  0
    4.6799    0.6353    1.3235 H   0  0  0  0  0  0  0  0  0  0  0  0
    4.6602    0.3391   -0.4174 H   0  0  0  0  0  0  0  0  0  0  0  0
    2.4202   -0.1865    1.6372 H   0  0  0  0  0  0  0  0  0  0  0  0
    2.1431    1.4053   -0.9716 H   0  0  0  0  0  0  0  0  0  0  0  0
    2.6723    2.4737    1.8675 H   0  0  0  0  0  0  0  0  0  0  0  0
    3.7510    2.4947    0.3949 H   0  0  0  0  0  0  0  0  0  0  0  0
    1.7788    3.6657   -0.8142 H   0  0  0  0  0  0  0  0  0  0  0  0
    2.4913    4.6027    0.6184 H   0  0  0  0  0  0  0  0  0  0  0  0
    0.6826    5.5569    1.6090 H   0  0  0  0  0  0  0  0  0  0  0  0
   -2.7049    3.9594    0.9471 H   0  0  0  0  0  0  0  0  0  0  0  0
   -2.8152    3.2574    2.5573 H   0  0  0  0  0  0  0  0  0  0  0  0
   -2.0331    1.9543    0.3358 H   0  0  0  0  0  0  0  0  0  0  0  0
   -1.6515    1.4394    2.0717 H   0  0  0  0  0  0  0  0  0  0  0  0
   -0.1154   -0.4233    1.5937 H   0  0  0  0  0  0  0  0  0  0  0  0
   -0.7022    0.3369   -2.1471 H   0  0  0  0  0  0  0  0  0  0  0  0
   -2.8495   -0.0436   -3.2190 H   0  0  0  0  0  0  0  0  0  0  0  0
   -5.7422   -2.4478   -0.7868 H   0  0  0  0  0  0  0  0  0  0  0  0
   -6.4363   -0.7550   -0.6143 H   0  0  0  0  0  0  0  0  0  0  0  0
   -6.9966   -1.8053   -1.9886 H   0  0  0  0  0  0  0  0  0  0  0  0
   -5.1173    0.4288   -3.5912 H   0  0  0  0  0  0  0  0  0  0  0  0
   -4.3782   -1.1918   -4.0661 H   0  0  0  0  0  0  0  0  0  0  0  0
   -6.2009   -1.0196   -3.8512 H   0  0  0  0  0  0  0  0  0  0  0  0
   -4.3988   -1.5058    0.4357 H   0  0  0  0  0  0  0  0  0  0  0  0
   -2.2658   -1.1465    1.5416 H   0  0  0  0  0  0  0  0  0  0  0  0
    0.4435   -1.8017   -0.9247 H   0  0  0  0  0  0  0  0  0  0  0  0
    0.9089   -2.1602    0.7292 H   0  0  0  0  0  0  0  0  0  0  0  0
    2.6887   -1.4873   -2.3676 H   0  0  0  0  0  0  0  0  0  0  0  0
    3.3538    0.0839   -1.9301 H   0  0  0  0  0  0  0  0  0  0  0  0
    1.5994   -0.0800   -2.2349 H   0  0  0  0  0  0  0  0  0  0  0  0
  1  2  1  0
  2  3  3  0
  4  3  1  1
  4  5  1  0
  4  6  1  0
  6  7  1  0
  7  8  1  0
  8  9  1  0
  9 10  1  0
 10 11  1  0
 11 12  1  0
 12 13  2  0
 13 14  1  0
 14 15  2  0
 14 16  1  0
 16 17  1  0
 17 18  1  0
 18 19  2  0
 19 20  1  0
 20 21  1  0
 21 22  2  0
 22 23  1  0
 23 24  2  0
 24 25  1  0
 25 26  1  0
 25 27  1  0
 24 28  1  0
 28 29  2  0
 20 30  1  0
 30 31  1  0
 31 32  1  6
 31  4  1  0
 31  8  1  0
 19  9  1  0
 29 21  1  0
 18 12  1  0
  1 33  1  0
  1 34  1  0
  1 35  1  0
  5 36  1  0
  6 37  1  0
  6 38  1  0
  7 39  1  0
  7 40  1  0
  8 41  1  1
  9 42  1  6
 10 43  1  0
 10 44  1  0
 11 45  1  0
 11 46  1  0
 13 47  1  0
 16 48  1  0
 16 49  1  0
 17 50  1  0
 17 51  1  0
 20 52  1  1
 22 53  1  0
 23 54  1  0
 26 55  1  0
 26 56  1  0
 26 57  1  0
 27 58  1  0
 27 59  1  0
 27 60  1  0
 28 61  1  0
 29 62  1  0
 30 63  1  0
 30 64  1  0
 32 65  1  0
 32 66  1  0
 32 67  1  0
M  END
$$$$
