
     RDKit          3D

 41 44  0  0  0  0  0  0  0  0999 V2000
   -3.8702   -1.8884    0.0649 N   0  0  0  0  0  0  0  0  0  0  0  0
   -4.1252   -0.7740   -0.1269 C   0  0  0  0  0  0  0  0  0  0  0  0
   -4.4136    0.5961   -0.3656 C   0  0  0  0  0  0  0  0  0  0  0  0
   -5.4838    0.8927   -1.2167 C   0  0  0  0  0  0  0  0  0  0  0  0
   -5.8109    2.2027   -1.4920 C   0  0  0  0  0  0  0  0  0  0  0  0
   -5.0616    3.1967   -0.9113 C   0  0  0  0  0  0  0  0  0  0  0  0
   -3.9995    2.8966   -0.0665 C   0  0  0  0  0  0  0  0  0  0  0  0
   -3.6635    1.5862    0.2160 C   0  0  0  0  0  0  0  0  0  0  0  0
   -2.5597    1.2397    1.1008 C   0  0  0  0  0  0  0  0  0  0  0  0
   -1.3313    1.8644    0.9474 C   0  0  0  0  0  0  0  0  0  0  0  0
   -0.2607    1.5617    1.7774 C   0  0  0  0  0  0  0  0  0  0  0  0
   -0.3557    0.6342    2.7886 C   0  0  0  0  0  0  0  0  0  0  0  0
    0.7775    0.2845    3.6801 C   0  0  0  0  0  0  0  0  0  0  0  0
    1.6357   -1.1577    3.0768 S   0  0  0  0  0  0  0  0  0  0  0  0
    2.4846   -0.9212    1.5465 C   0  0  0  0  0  0  0  0  0  0  0  0
    2.5296    0.2099    0.8390 N   0  0  0  0  0  0  0  0  0  0  0  0
    3.2576    0.0032   -0.2437 N   0  0  0  0  0  0  0  0  0  0  0  0
    3.6705   -1.2658   -0.2130 C   0  0  0  0  0  0  0  0  0  0  0  0
    4.4986   -1.9191   -1.2102 C   0  0  0  0  0  0  0  0  0  0  0  0
    4.8801   -3.2234   -1.0989 C   0  0  0  0  0  0  0  0  0  0  0  0
    5.6717   -3.8504   -2.0525 C   0  0  0  0  0  0  0  0  0  0  0  0
    6.0529   -3.1108   -3.1048 N   0  0  0  0  0  0  0  0  0  0  0  0
    5.7161   -1.8213   -3.2819 C   0  0  0  0  0  0  0  0  0  0  0  0
    4.9299   -1.2169   -2.3245 C   0  0  0  0  0  0  0  0  0  0  0  0
    3.1867   -1.8075    0.8866 O   0  0  0  0  0  0  0  0  0  0  0  0
   -1.5964    0.0041    2.9428 C   0  0  0  0  0  0  0  0  0  0  0  0
   -2.6533    0.3104    2.1154 C   0  0  0  0  0  0  0  0  0  0  0  0
   -6.0824    0.1224   -1.6811 H   0  0  0  0  0  0  0  0  0  0  0  0
   -6.6414    2.4455   -2.1525 H   0  0  0  0  0  0  0  0  0  0  0  0
   -5.3019    4.2299   -1.1144 H   0  0  0  0  0  0  0  0  0  0  0  0
   -3.4424    3.7173    0.3642 H   0  0  0  0  0  0  0  0  0  0  0  0
   -1.2318    2.5988    0.1573 H   0  0  0  0  0  0  0  0  0  0  0  0
    0.6849    2.0783    1.6353 H   0  0  0  0  0  0  0  0  0  0  0  0
    1.4971    1.1470    3.6081 H   0  0  0  0  0  0  0  0  0  0  0  0
    0.4670    0.2097    4.7358 H   0  0  0  0  0  0  0  0  0  0  0  0
    4.5749   -3.8346   -0.2455 H   0  0  0  0  0  0  0  0  0  0  0  0
    5.9735   -4.8976   -1.9553 H   0  0  0  0  0  0  0  0  0  0  0  0
    6.0572   -1.2614   -4.1658 H   0  0  0  0  0  0  0  0  0  0  0  0
    4.6234   -0.1688   -2.4138 H   0  0  0  0  0  0  0  0  0  0  0  0
   -1.6714   -0.7241    3.7370 H   0  0  0  0  0  0  0  0  0  0  0  0
   -3.6127   -0.1891    2.2538 H   0  0  0  0  0  0  0  0  0  0  0  0
  1  2  3  0
  2  3  1  0
  3  4  2  0
  4  5  1  0
  5  6  2  0
  6  7  1  0
  7  8  2  0
  8  9  1  0
  9 10  2  0
 10 11  1  0
 11 12  2  0
 12 13  1  0
 13 14  1  0
 14 15  1  0
 15 16  2  0
 16 17  1  0
 17 18  2  0
 18 19  1  0
 19 20  2  0
 20 21  1  0
 21 22  2  0
 22 23  1  0
 23 24  2  0
 18 25  1  0
 12 26  1  0
 26 27  2  0
  8  3  1  0
 27  9  1  0
 25 15  1  0
 24 19  1  0
  4 28  1  0
  5 29  1  0
  6 30  1  0
  7 31  1  0
 10 32  1  0
 11 33  1  0
 13 34  1  0
 13 35  1  0
 20 36  1  0
 21 37  1  0
 23 38  1  0
 24 39  1  0
 26 40  1  0
 27 41  1  0
M  END
$$$$
