
     RDKit          3D

 68 72  0  0  0  0  0  0  0  0999 V2000
   -8.9403   -0.6935   -0.6857 N   0  0  0  0  0  0  0  0  0  0  0  0
   -7.4811   -0.6189   -0.6396 C   0  0  0  0  0  0  0  0  0  0  0  0
   -7.1397    0.2799    0.5229 C   0  0  0  0  0  0  0  0  0  0  0  0
   -6.4756    1.5158   -0.0006 C   0  0  0  0  0  0  0  0  0  0  0  0
   -5.1409    1.1093   -0.6010 C   0  0  0  0  0  0  0  0  0  0  0  0
   -4.3172    0.4060    0.3498 N   0  0  0  0  0  0  0  0  0  0  0  0
   -3.9970    1.1374    1.5181 C   0  0  0  0  0  0  0  0  0  0  0  0
   -3.2734    2.4479    1.3179 C   0  0  0  0  0  0  0  0  0  0  0  0
   -2.6161    1.3439    2.0124 C   0  0  2  0  0  0  0  0  0  0  0  0
   -1.4458    0.6422    1.4288 C   0  0  0  0  0  0  0  0  0  0  0  0
   -0.6024   -0.1539    2.1746 C   0  0  0  0  0  0  0  0  0  0  0  0
    0.4896   -0.7924    1.6276 C   0  0  0  0  0  0  0  0  0  0  0  0
    0.7911   -0.6608    0.2883 C   0  0  0  0  0  0  0  0  0  0  0  0
    1.9547   -1.3426   -0.2935 C   0  0  0  0  0  0  0  0  0  0  0  0
    1.9123   -1.7492   -1.6074 C   0  0  0  0  0  0  0  0  0  0  0  0
    3.0005   -2.3976   -2.1833 C   0  0  0  0  0  0  0  0  0  0  0  0
    4.1428   -2.6475   -1.4555 C   0  0  0  0  0  0  0  0  0  0  0  0
    4.1953   -2.2444   -0.1393 C   0  0  0  0  0  0  0  0  0  0  0  0
    5.3837   -2.5159    0.5839 N   0  0  0  0  0  0  0  0  0  0  0  0
    6.1651   -1.3858    1.5957 S   0  0  0  0  0  6  0  0  0  0  0  0
    7.2729   -2.0153    2.3500 O   0  0  0  0  0  0  0  0  0  0  0  0
    5.1391   -0.9202    2.6199 O   0  0  0  0  0  0  0  0  0  0  0  0
    6.7052    0.0136    0.7691 N   0  0  0  0  0  0  0  0  0  0  0  0
    5.6518    0.7676    0.1641 C   0  0  0  0  0  0  0  0  0  0  0  0
    6.1460    2.1825   -0.0760 C   0  0  0  0  0  0  0  0  0  0  0  0
    7.5834    2.2147    0.0340 N   0  0  0  0  0  0  0  0  0  0  0  0
    8.2236    1.1245   -0.6892 C   0  0  0  0  0  0  0  0  0  0  0  0
    7.7889   -0.2247   -0.1333 C   0  0  0  0  0  0  0  0  0  0  0  0
    3.1096   -1.6038    0.4159 C   0  0  0  0  0  0  0  0  0  0  0  0
   -0.0400    0.1308   -0.4737 C   0  0  0  0  0  0  0  0  0  0  0  0
   -1.1443    0.7738    0.0913 C   0  0  0  0  0  0  0  0  0  0  0  0
   -5.4571    0.2745   -1.8114 C   0  0  0  0  0  0  0  0  0  0  0  0
   -6.9088   -0.0839   -1.9110 C   0  0  0  0  0  0  0  0  0  0  0  0
   -9.3773    0.1223   -0.2003 H   0  0  0  0  0  0  0  0  0  0  0  0
   -9.2950   -1.5493   -0.1689 H   0  0  0  0  0  0  0  0  0  0  0  0
   -7.1471   -1.6750   -0.4489 H   0  0  0  0  0  0  0  0  0  0  0  0
   -6.3958   -0.2848    1.1579 H   0  0  0  0  0  0  0  0  0  0  0  0
   -8.0192    0.5182    1.1556 H   0  0  0  0  0  0  0  0  0  0  0  0
   -6.3525    2.3038    0.7697 H   0  0  0  0  0  0  0  0  0  0  0  0
   -7.0712    1.9690   -0.8127 H   0  0  0  0  0  0  0  0  0  0  0  0
   -4.6293    2.0687   -0.8689 H   0  0  0  0  0  0  0  0  0  0  0  0
   -3.5590   -0.0760   -0.1412 H   0  0  0  0  0  0  0  0  0  0  0  0
   -4.8019    1.0987    2.3001 H   0  0  0  0  0  0  0  0  0  0  0  0
   -2.9959    2.7736    0.2927 H   0  0  0  0  0  0  0  0  0  0  0  0
   -3.6930    3.2875    1.9160 H   0  0  0  0  0  0  0  0  0  0  0  0
   -2.5287    1.4068    3.1333 H   0  0  0  0  0  0  0  0  0  0  0  0
   -0.8324   -0.2640    3.2344 H   0  0  0  0  0  0  0  0  0  0  0  0
    1.1479   -1.4155    2.2172 H   0  0  0  0  0  0  0  0  0  0  0  0
    1.0417   -1.5768   -2.2190 H   0  0  0  0  0  0  0  0  0  0  0  0
    2.9571   -2.7117   -3.2127 H   0  0  0  0  0  0  0  0  0  0  0  0
    4.9810   -3.1530   -1.9180 H   0  0  0  0  0  0  0  0  0  0  0  0
    5.7939   -3.4677    0.4819 H   0  0  0  0  0  0  0  0  0  0  0  0
    5.3798    0.3555   -0.8403 H   0  0  0  0  0  0  0  0  0  0  0  0
    4.7454    0.7586    0.8025 H   0  0  0  0  0  0  0  0  0  0  0  0
    5.7376    2.8107    0.7688 H   0  0  0  0  0  0  0  0  0  0  0  0
    5.7949    2.5724   -1.0610 H   0  0  0  0  0  0  0  0  0  0  0  0
    7.9176    3.0905   -0.3976 H   0  0  0  0  0  0  0  0  0  0  0  0
    7.9790    1.2069   -1.7845 H   0  0  0  0  0  0  0  0  0  0  0  0
    9.3195    1.2745   -0.5642 H   0  0  0  0  0  0  0  0  0  0  0  0
    7.5279   -0.8596   -1.0032 H   0  0  0  0  0  0  0  0  0  0  0  0
    8.6631   -0.6332    0.4419 H   0  0  0  0  0  0  0  0  0  0  0  0
    3.1320   -1.2818    1.4414 H   0  0  0  0  0  0  0  0  0  0  0  0
    0.1919    0.2385   -1.5293 H   0  0  0  0  0  0  0  0  0  0  0  0
   -1.7608    1.3921   -0.5575 H   0  0  0  0  0  0  0  0  0  0  0  0
   -5.1842    0.8345   -2.7287 H   0  0  0  0  0  0  0  0  0  0  0  0
   -4.8534   -0.6591   -1.8084 H   0  0  0  0  0  0  0  0  0  0  0  0
   -6.9668   -0.9215   -2.6580 H   0  0  0  0  0  0  0  0  0  0  0  0
   -7.5226    0.7245   -2.3537 H   0  0  0  0  0  0  0  0  0  0  0  0
  1  2  1  0
  2  3  1  0
  3  4  1  0
  4  5  1  0
  5  6  1  0
  6  7  1  0
  7  8  1  0
  8  9  1  0
  9 10  1  0
 10 11  2  0
 11 12  1  0
 12 13  2  0
 13 14  1  0
 14 15  2  0
 15 16  1  0
 16 17  2  0
 17 18  1  0
 18 19  1  0
 19 20  1  0
 20 21  2  0
 20 22  2  0
 20 23  1  0
 23 24  1  0
 24 25  1  0
 25 26  1  0
 26 27  1  0
 27 28  1  0
 18 29  2  0
 13 30  1  0
 30 31  2  0
  5 32  1  0
 32 33  1  0
 33  2  1  0
  9  7  1  0
 31 10  1  0
 29 14  1  0
 28 23  1  0
  1 34  1  0
  1 35  1  0
  2 36  1  0
  3 37  1  0
  3 38  1  0
  4 39  1  0
  4 40  1  0
  5 41  1  0
  6 42  1  0
  7 43  1  0
  8 44  1  0
  8 45  1  0
  9 46  1  1
 11 47  1  0
 12 48  1  0
 15 49  1  0
 16 50  1  0
 17 51  1  0
 19 52  1  0
 24 53  1  0
 24 54  1  0
 25 55  1  0
 25 56  1  0
 26 57  1  0
 27 58  1  0
 27 59  1  0
 28 60  1  0
 28 61  1  0
 29 62  1  0
 30 63  1  0
 31 64  1  0
 32 65  1  0
 32 66  1  0
 33 67  1  0
 33 68  1  0
M  END
$$$$
