
     RDKit          3D

 65 69  0  0  0  0  0  0  0  0999 V2000
   12.5855    0.3003   -0.5380 C   0  0  0  0  0  0  0  0  0  0  0  0
   11.7581    1.4424   -0.5048 O   0  0  0  0  0  0  0  0  0  0  0  0
   10.3963    1.3298   -0.2842 C   0  0  0  0  0  0  0  0  0  0  0  0
    9.8519    0.0546   -0.0968 C   0  0  0  0  0  0  0  0  0  0  0  0
    8.4787   -0.0488    0.1267 C   0  0  0  0  0  0  0  0  0  0  0  0
    7.6778    1.0748    0.1621 C   0  0  0  0  0  0  0  0  0  0  0  0
    6.2518    0.9160    0.4263 C   0  0  0  0  0  0  0  0  0  0  0  0
    5.2777    1.8382    0.4471 N   0  0  0  0  0  0  0  0  0  0  0  0
    4.1186    1.2736    0.7295 N   0  0  0  0  0  0  0  0  0  0  0  0
    4.3771   -0.0295    0.8879 C   0  0  0  0  0  0  0  0  0  0  0  0
    3.3662   -1.0375    1.2173 C   0  0  0  0  0  0  0  0  0  0  0  0
    3.4272   -1.6272    2.3594 O   0  0  0  0  0  0  0  0  0  0  0  0
    2.3090   -1.4204    0.3555 N   0  0  0  0  0  0  0  0  0  0  0  0
    1.8572   -1.0390   -0.9534 C   0  0  0  0  0  0  0  0  0  0  0  0
    0.5186   -1.6015   -0.6635 C   0  0  0  0  0  0  0  0  0  0  0  0
   -0.3630   -0.7084   -0.0483 O   0  0  0  0  0  0  0  0  0  0  0  0
   -1.7391   -0.8842    0.0683 C   0  0  0  0  0  0  0  0  0  0  0  0
   -2.3377   -2.0343   -0.3892 C   0  0  0  0  0  0  0  0  0  0  0  0
   -3.7155   -2.1747   -0.2541 C   0  0  0  0  0  0  0  0  0  0  0  0
   -4.4868   -1.1952    0.3232 C   0  0  0  0  0  0  0  0  0  0  0  0
   -5.9478   -1.3274    0.4993 C   0  0  0  0  0  0  0  0  0  0  0  0
   -6.7593   -0.8966   -0.5490 N   0  0  0  0  0  0  0  0  0  0  0  0
   -6.6015   -1.5035   -1.8114 C   0  0  0  0  0  0  0  0  0  0  0  0
   -7.8019   -0.0077   -0.3442 C   0  0  0  0  0  0  0  0  0  0  0  0
   -7.4925    1.3942    0.0207 C   0  0  0  0  0  0  0  0  0  0  0  0
   -6.6650    2.1753   -0.9728 C   0  0  0  0  0  0  0  0  0  0  0  0
   -7.3029    1.7501    1.4552 C   0  0  0  0  0  0  0  0  0  0  0  0
   -8.2427    2.7897    1.3967 O   0  0  0  0  0  0  0  0  0  0  0  0
   -8.7912    2.1562    0.2981 C   0  0  0  0  0  0  0  0  0  0  0  0
   -3.8551   -0.0649    0.7661 C   0  0  0  0  0  0  0  0  0  0  0  0
   -2.5015    0.0891    0.6410 C   0  0  0  0  0  0  0  0  0  0  0  0
    1.2593   -2.3814    0.4355 C   0  0  0  0  0  0  0  0  0  0  0  0
    5.6630   -0.2272    0.7016 O   0  0  0  0  0  0  0  0  0  0  0  0
    8.2362    2.2980   -0.0242 C   0  0  0  0  0  0  0  0  0  0  0  0
    9.6047    2.4529   -0.2509 C   0  0  0  0  0  0  0  0  0  0  0  0
   12.4005   -0.2916    0.4078 H   0  0  0  0  0  0  0  0  0  0  0  0
   12.3254   -0.3131   -1.4150 H   0  0  0  0  0  0  0  0  0  0  0  0
   13.6438    0.5636   -0.6421 H   0  0  0  0  0  0  0  0  0  0  0  0
   10.4857   -0.8187   -0.1275 H   0  0  0  0  0  0  0  0  0  0  0  0
    8.0162   -1.0036    0.2726 H   0  0  0  0  0  0  0  0  0  0  0  0
    1.8869    0.0601   -1.1572 H   0  0  0  0  0  0  0  0  0  0  0  0
    2.4142   -1.6044   -1.7625 H   0  0  0  0  0  0  0  0  0  0  0  0
    0.0552   -2.3033   -1.3977 H   0  0  0  0  0  0  0  0  0  0  0  0
   -1.7783   -2.8517   -0.8545 H   0  0  0  0  0  0  0  0  0  0  0  0
   -4.2207   -3.0612   -0.6000 H   0  0  0  0  0  0  0  0  0  0  0  0
   -6.2667   -0.9217    1.4834 H   0  0  0  0  0  0  0  0  0  0  0  0
   -6.1264   -2.4410    0.6192 H   0  0  0  0  0  0  0  0  0  0  0  0
   -7.5318   -1.3501   -2.4052 H   0  0  0  0  0  0  0  0  0  0  0  0
   -6.4674   -2.5998   -1.6845 H   0  0  0  0  0  0  0  0  0  0  0  0
   -5.7960   -1.0589   -2.4414 H   0  0  0  0  0  0  0  0  0  0  0  0
   -8.4700   -0.4135    0.4749 H   0  0  0  0  0  0  0  0  0  0  0  0
   -8.4830    0.0031   -1.2415 H   0  0  0  0  0  0  0  0  0  0  0  0
   -6.2671    1.5268   -1.7866 H   0  0  0  0  0  0  0  0  0  0  0  0
   -5.8669    2.6745   -0.3794 H   0  0  0  0  0  0  0  0  0  0  0  0
   -7.2270    2.9853   -1.4804 H   0  0  0  0  0  0  0  0  0  0  0  0
   -6.3120    2.2072    1.7045 H   0  0  0  0  0  0  0  0  0  0  0  0
   -7.6682    0.9865    2.1394 H   0  0  0  0  0  0  0  0  0  0  0  0
   -9.6269    1.4977    0.6213 H   0  0  0  0  0  0  0  0  0  0  0  0
   -9.0595    2.8597   -0.5134 H   0  0  0  0  0  0  0  0  0  0  0  0
   -4.4310    0.7297    1.2260 H   0  0  0  0  0  0  0  0  0  0  0  0
   -2.0280    0.9769    0.9890 H   0  0  0  0  0  0  0  0  0  0  0  0
    0.6879   -2.4190    1.3859 H   0  0  0  0  0  0  0  0  0  0  0  0
    1.5985   -3.3708    0.0609 H   0  0  0  0  0  0  0  0  0  0  0  0
    7.6616    3.1970   -0.0070 H   0  0  0  0  0  0  0  0  0  0  0  0
   10.0402    3.4284   -0.3943 H   0  0  0  0  0  0  0  0  0  0  0  0
  1  2  1  0
  2  3  1  0
  3  4  2  0
  4  5  1  0
  5  6  2  0
  6  7  1  0
  7  8  2  0
  8  9  1  0
  9 10  2  0
 10 11  1  0
 11 12  2  0
 11 13  1  0
 13 14  1  0
 14 15  1  0
 15 16  1  0
 16 17  1  0
 17 18  2  0
 18 19  1  0
 19 20  2  0
 20 21  1  0
 21 22  1  0
 22 23  1  0
 22 24  1  0
 24 25  1  0
 25 26  1  0
 25 27  1  0
 27 28  1  0
 28 29  1  0
 20 30  1  0
 30 31  2  0
 15 32  1  0
 10 33  1  0
  6 34  1  0
 34 35  2  0
 35  3  1  0
 33  7  1  0
 32 13  1  0
 31 17  1  0
 29 25  1  0
  1 36  1  0
  1 37  1  0
  1 38  1  0
  4 39  1  0
  5 40  1  0
 14 41  1  0
 14 42  1  0
 15 43  1  0
 18 44  1  0
 19 45  1  0
 21 46  1  0
 21 47  1  0
 23 48  1  0
 23 49  1  0
 23 50  1  0
 24 51  1  0
 24 52  1  0
 26 53  1  0
 26 54  1  0
 26 55  1  0
 27 56  1  0
 27 57  1  0
 29 58  1  0
 29 59  1  0
 30 60  1  0
 31 61  1  0
 32 62  1  0
 32 63  1  0
 34 64  1  0
 35 65  1  0
M  END
$$$$
