
     RDKit          3D

 48 53  0  0  0  0  0  0  0  0999 V2000
   -3.1087    0.3979   -2.8915 C   0  0  0  0  0  0  0  0  0  0  0  0
   -2.8508   -0.1681   -1.5353 C   0  0  0  0  0  0  0  0  0  0  0  0
   -3.7500   -0.7708   -0.7407 N   0  0  0  0  0  0  0  0  0  0  0  0
   -3.1937   -1.1647    0.3857 N   0  0  0  0  0  0  0  0  0  0  0  0
   -3.8335   -1.8554    1.5037 C   0  0  0  0  0  0  0  0  0  0  0  0
   -4.2998   -3.2344    1.3206 C   0  0  0  0  0  0  0  0  0  0  0  0
   -5.3039   -2.1373    1.3775 C   0  0  0  0  0  0  0  0  0  0  0  0
   -1.8773   -0.8331    0.3841 C   0  0  0  0  0  0  0  0  0  0  0  0
   -1.6480   -0.2040   -0.8198 C   0  0  0  0  0  0  0  0  0  0  0  0
   -0.2307    0.1817   -0.8844 C   0  0  0  0  0  0  0  0  0  0  0  0
   -0.0129    1.6505   -1.0754 C   0  0  0  0  0  0  0  0  0  0  0  0
   -1.0408    2.5675   -1.1188 C   0  0  0  0  0  0  0  0  0  0  0  0
   -0.7999    3.9239   -1.3267 C   0  0  0  0  0  0  0  0  0  0  0  0
    0.5057    4.3411   -1.4906 C   0  0  0  0  0  0  0  0  0  0  0  0
    0.8850    6.0487   -1.7582 Cl  0  0  0  0  0  0  0  0  0  0  0  0
    1.5313    3.4158   -1.4457 C   0  0  0  0  0  0  0  0  0  0  0  0
    1.2900    2.0700   -1.2397 C   0  0  0  0  0  0  0  0  0  0  0  0
    0.3515   -0.2674    0.3395 N   0  0  0  0  0  0  0  0  0  0  0  0
    1.7146   -0.1695    0.8059 C   0  0  0  0  0  0  0  0  0  0  0  0
    2.0330    0.9116    1.5737 C   0  0  0  0  0  0  0  0  0  0  0  0
    3.3058    1.0742    2.0534 C   0  0  0  0  0  0  0  0  0  0  0  0
    4.2633    0.1423    1.7579 C   0  0  0  0  0  0  0  0  0  0  0  0
    5.5811    0.0149    2.0704 N   0  0  0  0  0  0  0  0  0  0  0  0
    6.0374   -1.0925    1.5166 N   0  0  0  0  0  0  0  0  0  0  0  0
    5.0427   -1.6744    0.8585 N   0  0  0  0  0  0  0  0  0  0  0  0
    5.1980   -2.9086    0.1363 C   0  0  0  0  0  0  0  0  0  0  0  0
    3.9129   -0.9468    0.9756 C   0  0  0  0  0  0  0  0  0  0  0  0
    2.6471   -1.0799    0.5164 N   0  0  0  0  0  0  0  0  0  0  0  0
   -0.6452   -0.8987    1.1545 C   0  0  0  0  0  0  0  0  0  0  0  0
   -0.5004   -1.4069    2.2966 O   0  0  0  0  0  0  0  0  0  0  0  0
   -2.2063    0.9440   -3.2209 H   0  0  0  0  0  0  0  0  0  0  0  0
   -4.0329    0.9971   -2.9241 H   0  0  0  0  0  0  0  0  0  0  0  0
   -3.2612   -0.4290   -3.6401 H   0  0  0  0  0  0  0  0  0  0  0  0
   -3.5542   -1.4513    2.5129 H   0  0  0  0  0  0  0  0  0  0  0  0
   -4.2419   -4.0087    2.1117 H   0  0  0  0  0  0  0  0  0  0  0  0
   -4.1428   -3.6576    0.2888 H   0  0  0  0  0  0  0  0  0  0  0  0
   -5.7849   -1.7665    0.4681 H   0  0  0  0  0  0  0  0  0  0  0  0
   -5.9433   -2.1231    2.2916 H   0  0  0  0  0  0  0  0  0  0  0  0
    0.2729   -0.2771   -1.7809 H   0  0  0  0  0  0  0  0  0  0  0  0
   -2.0637    2.2455   -0.9835 H   0  0  0  0  0  0  0  0  0  0  0  0
   -1.5752    4.6551   -1.3652 H   0  0  0  0  0  0  0  0  0  0  0  0
    2.5692    3.7302   -1.5736 H   0  0  0  0  0  0  0  0  0  0  0  0
    2.1546    1.3879   -1.2266 H   0  0  0  0  0  0  0  0  0  0  0  0
    1.2936    1.6569    1.8179 H   0  0  0  0  0  0  0  0  0  0  0  0
    3.5921    1.9305    2.6717 H   0  0  0  0  0  0  0  0  0  0  0  0
    5.5700   -3.6682    0.8693 H   0  0  0  0  0  0  0  0  0  0  0  0
    5.9001   -2.8119   -0.7329 H   0  0  0  0  0  0  0  0  0  0  0  0
    4.2504   -3.2812   -0.2843 H   0  0  0  0  0  0  0  0  0  0  0  0
  1  2  1  0
  2  3  2  0
  3  4  1  0
  4  5  1  0
  5  6  1  0
  6  7  1  0
  4  8  1  0
  8  9  2  0
  9 10  1  0
 10 11  1  0
 11 12  2  0
 12 13  1  0
 13 14  2  0
 14 15  1  0
 14 16  1  0
 16 17  2  0
 10 18  1  0
 18 19  1  0
 19 20  2  0
 20 21  1  0
 21 22  2  0
 22 23  1  0
 23 24  2  0
 24 25  1  0
 25 26  1  0
 25 27  1  0
 27 28  2  0
 18 29  1  0
 29 30  2  0
  9  2  1  0
 17 11  1  0
 28 19  1  0
  7  5  1  0
 29  8  1  0
 27 22  1  0
  1 31  1  0
  1 32  1  0
  1 33  1  0
  5 34  1  0
  6 35  1  0
  6 36  1  0
  7 37  1  0
  7 38  1  0
 10 39  1  0
 12 40  1  0
 13 41  1  0
 16 42  1  0
 17 43  1  0
 20 44  1  0
 21 45  1  0
 26 46  1  0
 26 47  1  0
 26 48  1  0
M  END
$$$$
