
     RDKit          3D

 53 56  0  0  0  0  0  0  0  0999 V2000
   -4.6137    0.6623   -2.2545 C   0  0  0  0  0  0  0  0  0  0  0  0
   -4.2040    0.4906   -0.7845 C   0  0  1  0  0  0  0  0  0  0  0  0
   -2.8962    1.2057   -0.6612 C   0  0  0  0  0  0  0  0  0  0  0  0
   -1.7428    0.5131   -0.4075 C   0  0  0  0  0  0  0  0  0  0  0  0
   -0.4997    1.1619   -0.2877 C   0  0  0  0  0  0  0  0  0  0  0  0
    0.6579    0.4135   -0.0273 N   0  0  0  0  0  0  0  0  0  0  0  0
    1.9557    0.8959    0.1184 C   0  0  0  0  0  0  0  0  0  0  0  0
    2.1945    2.1202    0.0196 O   0  0  0  0  0  0  0  0  0  0  0  0
    3.1037    0.0109    0.3922 C   0  0  0  0  0  0  0  0  0  0  0  0
    4.3819    0.4957    0.5344 C   0  0  0  0  0  0  0  0  0  0  0  0
    5.3931   -0.3452    0.7822 N   0  0  0  0  0  0  0  0  0  0  0  0
    5.2460   -1.6749    0.9067 C   0  0  0  0  0  0  0  0  0  0  0  0
    6.2838   -2.5569    1.1637 O   0  0  0  0  0  0  0  0  0  0  0  0
    7.5996   -2.0829    1.3110 C   0  0  0  0  0  0  0  0  0  0  0  0
    8.0165   -1.4128    0.0676 C   0  0  0  0  0  0  0  0  0  0  0  0
    7.8804   -0.1102   -0.2247 N   0  0  0  0  0  0  0  0  0  0  0  0
    8.3732    0.1344   -1.4427 C   0  0  0  0  0  0  0  0  0  0  0  0
    8.8297   -1.0775   -1.9110 C   0  0  0  0  0  0  0  0  0  0  0  0
    8.5967   -1.9789   -0.9745 O   0  0  0  0  0  0  0  0  0  0  0  0
    3.9341   -2.1449    0.7577 C   0  0  0  0  0  0  0  0  0  0  0  0
    2.9112   -1.3115    0.5089 N   0  0  0  0  0  0  0  0  0  0  0  0
   -0.5449    2.5195   -0.4441 C   0  0  0  0  0  0  0  0  0  0  0  0
   -1.7328    3.2290   -0.7049 C   0  0  0  0  0  0  0  0  0  0  0  0
   -1.7296    4.5725   -0.8523 F   0  0  0  0  0  0  0  0  0  0  0  0
   -2.9328    2.5740   -0.8174 C   0  0  0  0  0  0  0  0  0  0  0  0
   -4.1019    3.2083   -1.0671 F   0  0  0  0  0  0  0  0  0  0  0  0
   -5.2520    1.0845    0.1000 C   0  0  0  0  0  0  0  0  0  0  0  0
   -6.0536    0.1147    0.8940 C   0  0  1  0  0  0  0  0  0  0  0  0
   -7.5292    0.4858    0.8080 C   0  0  0  0  0  0  0  0  0  0  0  0
   -7.9766    0.4606   -0.5052 F   0  0  0  0  0  0  0  0  0  0  0  0
   -8.2131   -0.5064    1.5245 F   0  0  0  0  0  0  0  0  0  0  0  0
   -7.7556    1.7275    1.3398 F   0  0  0  0  0  0  0  0  0  0  0  0
   -5.9529   -1.2259    0.4616 O   0  0  0  0  0  0  0  0  0  0  0  0
   -4.7588   -1.7226   -0.0207 C   0  0  0  0  0  0  0  0  0  0  0  0
   -4.5014   -3.1114    0.1583 N   0  0  0  0  0  0  0  0  0  0  0  0
   -3.9664   -0.9053   -0.5939 N   0  0  0  0  0  0  0  0  0  0  0  0
   -5.2723    1.5265   -2.3468 H   0  0  0  0  0  0  0  0  0  0  0  0
   -5.1864   -0.2331   -2.6089 H   0  0  0  0  0  0  0  0  0  0  0  0
   -3.7091    0.7020   -2.8999 H   0  0  0  0  0  0  0  0  0  0  0  0
   -1.7513   -0.5763   -0.2888 H   0  0  0  0  0  0  0  0  0  0  0  0
    0.5352   -0.6445    0.0707 H   0  0  0  0  0  0  0  0  0  0  0  0
    4.5722    1.5549    0.4464 H   0  0  0  0  0  0  0  0  0  0  0  0
    8.2932   -2.8906    1.6194 H   0  0  0  0  0  0  0  0  0  0  0  0
    7.5858   -1.3667    2.1812 H   0  0  0  0  0  0  0  0  0  0  0  0
    8.4434    1.0399   -2.0156 H   0  0  0  0  0  0  0  0  0  0  0  0
    9.2992   -1.3319   -2.8481 H   0  0  0  0  0  0  0  0  0  0  0  0
    3.8138   -3.2149    0.8576 H   0  0  0  0  0  0  0  0  0  0  0  0
    0.3538    3.1144   -0.3713 H   0  0  0  0  0  0  0  0  0  0  0  0
   -5.9471    1.7102   -0.5326 H   0  0  0  0  0  0  0  0  0  0  0  0
   -4.7916    1.8088    0.8349 H   0  0  0  0  0  0  0  0  0  0  0  0
   -5.8108    0.1784    1.9957 H   0  0  0  0  0  0  0  0  0  0  0  0
   -3.7520   -3.4800    0.7889 H   0  0  0  0  0  0  0  0  0  0  0  0
   -5.0760   -3.8105   -0.3545 H   0  0  0  0  0  0  0  0  0  0  0  0
  2  1  1  6
  2  3  1  0
  3  4  2  0
  4  5  1  0
  5  6  1  0
  6  7  1  0
  7  8  2  0
  7  9  1  0
  9 10  2  0
 10 11  1  0
 11 12  2  0
 12 13  1  0
 13 14  1  0
 14 15  1  0
 15 16  2  0
 16 17  1  0
 17 18  2  0
 18 19  1  0
 12 20  1  0
 20 21  2  0
  5 22  2  0
 22 23  1  0
 23 24  1  0
 23 25  2  0
 25 26  1  0
  2 27  1  0
 27 28  1  0
 28 29  1  0
 29 30  1  0
 29 31  1  0
 29 32  1  0
 28 33  1  0
 33 34  1  0
 34 35  1  0
 34 36  2  0
 36  2  1  0
 25  3  1  0
 21  9  1  0
 19 15  1  0
  1 37  1  0
  1 38  1  0
  1 39  1  0
  4 40  1  0
  6 41  1  0
 10 42  1  0
 14 43  1  0
 14 44  1  0
 17 45  1  0
 18 46  1  0
 20 47  1  0
 22 48  1  0
 27 49  1  0
 27 50  1  0
 28 51  1  1
 35 52  1  0
 35 53  1  0
M  END
$$$$
