
     RDKit          3D

 58 61  0  0  0  0  0  0  0  0999 V2000
    3.9893    0.0986   -0.2705 C   0  0  1  0  0  0  0  0  0  0  0  0
    4.1612    1.4349    0.3936 C   0  0  0  0  0  0  0  0  0  0  0  0
    2.8554    2.1856    0.1040 C   0  0  0  0  0  0  0  0  0  0  0  0
    1.9272    1.0395    0.3317 C   0  0  1  0  0  0  0  0  0  0  0  0
    0.4859    1.2684    0.1052 C   0  0  2  0  0  0  0  0  0  0  0  0
   -0.0084    2.2609    1.1125 C   0  0  0  0  0  0  0  0  0  0  0  0
   -1.2478    1.8574    1.8451 C   0  0  0  0  0  0  0  0  0  0  0  0
   -2.1909    1.0770    0.9837 C   0  0  0  0  0  0  0  0  0  0  0  0
   -1.6212    0.0701    0.2221 C   0  0  0  0  0  0  0  0  0  0  0  0
   -2.4542   -0.6750   -0.5870 C   0  0  0  0  0  0  0  0  0  0  0  0
   -3.8120   -0.4392   -0.6484 C   0  0  0  0  0  0  0  0  0  0  0  0
   -4.6523   -1.1874   -1.4616 O   0  0  0  0  0  0  0  0  0  0  0  0
   -4.2007   -2.2354   -2.2819 C   0  0  0  0  0  0  0  0  0  0  0  0
   -4.3720    0.5659    0.1136 C   0  0  0  0  0  0  0  0  0  0  0  0
   -5.7559    0.8173    0.0606 O   0  0  0  0  0  0  0  0  0  0  0  0
   -6.8360    0.0157    1.1322 S   0  0  0  0  0  0  0  0  0  0  0  0
   -5.9357   -1.0213    2.1768 N   0  0  0  0  0  0  0  0  0  0  0  0
   -7.6339    1.0005    1.9258 O   0  0  0  0  0  0  0  0  0  0  0  0
   -7.7621   -0.8724    0.3194 O   0  0  0  0  0  0  0  0  0  0  0  0
   -3.5412    1.3262    0.9354 C   0  0  0  0  0  0  0  0  0  0  0  0
   -0.1760   -0.0899    0.3663 C   0  0  1  0  0  0  0  0  0  0  0  0
    0.4039   -1.1669   -0.5014 C   0  0  0  0  0  0  0  0  0  0  0  0
    1.8823   -1.3112   -0.1682 C   0  0  0  0  0  0  0  0  0  0  0  0
    2.5189   -0.0107   -0.5731 C   0  0  2  0  0  0  0  0  0  0  0  0
    2.2802    0.2294   -2.0350 C   0  0  0  0  0  0  0  0  0  0  0  0
    4.6725   -0.0644   -1.4297 O   0  0  0  0  0  0  0  0  0  0  0  0
    5.6606   -1.3969   -1.5102 S   0  0  0  0  0  0  0  0  0  0  0  0
    6.4038   -1.7937    0.0027 N   0  0  0  0  0  0  0  0  0  0  0  0
    4.7912   -2.5713   -1.8741 O   0  0  0  0  0  0  0  0  0  0  0  0
    6.6839   -1.2850   -2.6056 O   0  0  0  0  0  0  0  0  0  0  0  0
    4.2233   -0.7333    0.4499 H   0  0  0  0  0  0  0  0  0  0  0  0
    5.0481    1.9840    0.1305 H   0  0  0  0  0  0  0  0  0  0  0  0
    4.1523    1.2660    1.4917 H   0  0  0  0  0  0  0  0  0  0  0  0
    2.7099    3.0499    0.7489 H   0  0  0  0  0  0  0  0  0  0  0  0
    2.8687    2.4118   -0.9749 H   0  0  0  0  0  0  0  0  0  0  0  0
    2.0548    0.6668    1.3684 H   0  0  0  0  0  0  0  0  0  0  0  0
    0.1933    1.6253   -0.8816 H   0  0  0  0  0  0  0  0  0  0  0  0
    0.7665    2.4668    1.9035 H   0  0  0  0  0  0  0  0  0  0  0  0
   -0.1885    3.2745    0.6524 H   0  0  0  0  0  0  0  0  0  0  0  0
   -1.7493    2.7858    2.2160 H   0  0  0  0  0  0  0  0  0  0  0  0
   -0.9404    1.2268    2.7181 H   0  0  0  0  0  0  0  0  0  0  0  0
   -1.9934   -1.4495   -1.1684 H   0  0  0  0  0  0  0  0  0  0  0  0
   -4.8933   -2.3256   -3.1618 H   0  0  0  0  0  0  0  0  0  0  0  0
   -4.2933   -3.2113   -1.7301 H   0  0  0  0  0  0  0  0  0  0  0  0
   -3.1896   -2.0944   -2.6891 H   0  0  0  0  0  0  0  0  0  0  0  0
   -6.0415   -2.0209    1.9572 H   0  0  0  0  0  0  0  0  0  0  0  0
   -6.1801   -0.8783    3.1820 H   0  0  0  0  0  0  0  0  0  0  0  0
   -3.9628    2.1185    1.5397 H   0  0  0  0  0  0  0  0  0  0  0  0
    0.0648   -0.3140    1.4264 H   0  0  0  0  0  0  0  0  0  0  0  0
    0.2337   -0.8895   -1.5442 H   0  0  0  0  0  0  0  0  0  0  0  0
   -0.0974   -2.1028   -0.2371 H   0  0  0  0  0  0  0  0  0  0  0  0
    1.9600   -1.4934    0.9155 H   0  0  0  0  0  0  0  0  0  0  0  0
    2.3090   -2.1872   -0.6985 H   0  0  0  0  0  0  0  0  0  0  0  0
    1.5442    0.9967   -2.2753 H   0  0  0  0  0  0  0  0  0  0  0  0
    3.2274    0.5272   -2.5572 H   0  0  0  0  0  0  0  0  0  0  0  0
    2.0199   -0.7534   -2.5243 H   0  0  0  0  0  0  0  0  0  0  0  0
    7.4347   -1.9633   -0.1175 H   0  0  0  0  0  0  0  0  0  0  0  0
    6.2027   -1.1097    0.7556 H   0  0  0  0  0  0  0  0  0  0  0  0
  1  2  1  0
  2  3  1  0
  3  4  1  0
  4  5  1  0
  5  6  1  0
  6  7  1  0
  7  8  1  0
  8  9  2  0
  9 10  1  0
 10 11  2  0
 11 12  1  0
 12 13  1  0
 11 14  1  0
 14 15  1  0
 15 16  1  0
 16 17  1  0
 16 18  2  0
 16 19  2  0
 14 20  2  0
  9 21  1  0
 21 22  1  0
 22 23  1  0
 23 24  1  0
 24 25  1  6
  1 26  1  0
 26 27  1  0
 27 28  1  0
 27 29  2  0
 27 30  2  0
 24  1  1  0
 24  4  1  0
 21  5  1  0
 20  8  1  0
  1 31  1  1
  2 32  1  0
  2 33  1  0
  3 34  1  0
  3 35  1  0
  4 36  1  1
  5 37  1  6
  6 38  1  0
  6 39  1  0
  7 40  1  0
  7 41  1  0
 10 42  1  0
 13 43  1  0
 13 44  1  0
 13 45  1  0
 17 46  1  0
 17 47  1  0
 20 48  1  0
 21 49  1  1
 22 50  1  0
 22 51  1  0
 23 52  1  0
 23 53  1  0
 25 54  1  0
 25 55  1  0
 25 56  1  0
 28 57  1  0
 28 58  1  0
M  END
$$$$
