
     RDKit          3D

 99101  0  0  0  0  0  0  0  0999 V2000
    4.5556    3.8456    3.1929 C   0  0  0  0  0  0  0  0  0  0  0  0
    4.1121    2.6683    2.3511 C   0  0  0  0  0  0  0  0  0  0  0  0
    3.2865    3.0667    1.1791 C   0  0  2  0  0  0  0  0  0  0  0  0
    2.0216    3.7822    1.4895 C   0  0  0  0  0  0  0  0  0  0  0  0
    3.0785    1.8216    0.2985 C   0  0  2  0  0  0  0  0  0  0  0  0
    2.4006    0.7699    1.0178 N   0  0  0  0  0  0  0  0  0  0  0  0
    1.1775    0.1974    0.6213 C   0  0  0  0  0  0  0  0  0  0  0  0
    0.6534    0.6036   -0.4404 O   0  0  0  0  0  0  0  0  0  0  0  0
    0.5054   -0.8353    1.4030 C   0  0  2  0  0  0  0  0  0  0  0  0
    1.2796   -1.9592    1.9298 C   0  0  0  0  0  0  0  0  0  0  0  0
    1.9818   -2.8390    0.9620 C   0  0  0  0  0  0  0  0  0  0  0  0
    2.6799   -3.9068    1.7018 C   0  0  0  0  0  0  0  0  0  0  0  0
    3.3310   -4.9474    1.0116 N   0  0  0  0  0  0  0  0  0  0  0  0
    2.7002   -3.8984    2.9550 O   0  0  0  0  0  0  0  0  0  0  0  0
   -0.7673   -1.2457    0.7740 N   0  0  0  0  0  0  0  0  0  0  0  0
   -1.9473   -0.4925    0.9701 C   0  0  0  0  0  0  0  0  0  0  0  0
   -1.8479    0.5358    1.6869 O   0  0  0  0  0  0  0  0  0  0  0  0
   -3.2809   -0.8198    0.3981 C   0  0  2  0  0  0  0  0  0  0  0  0
   -3.1555   -1.2424   -1.0287 C   0  0  0  0  0  0  0  0  0  0  0  0
   -4.4657   -1.5802   -1.6322 C   0  0  0  0  0  0  0  0  0  0  0  0
   -5.1388   -0.7643   -2.5264 C   0  0  0  0  0  0  0  0  0  0  0  0
   -6.2813   -1.4208   -2.8482 N   0  0  0  0  0  0  0  0  0  0  0  0
   -6.3351   -2.5990   -2.1910 C   0  0  0  0  0  0  0  0  0  0  0  0
   -7.3211   -3.5878   -2.2201 C   0  0  0  0  0  0  0  0  0  0  0  0
   -7.1114   -4.7034   -1.4341 C   0  0  0  0  0  0  0  0  0  0  0  0
   -5.9905   -4.8527   -0.6532 C   0  0  0  0  0  0  0  0  0  0  0  0
   -5.0251   -3.8506   -0.6457 C   0  0  0  0  0  0  0  0  0  0  0  0
   -5.2014   -2.7187   -1.4199 C   0  0  0  0  0  0  0  0  0  0  0  0
   -4.2105    0.2501    0.6050 N   0  0  0  0  0  0  0  0  0  0  0  0
   -5.2671    0.2358    1.5360 C   0  0  0  0  0  0  0  0  0  0  0  0
   -5.4571   -0.7660    2.2613 O   0  0  0  0  0  0  0  0  0  0  0  0
   -6.0992    1.3213    1.6628 O   0  0  0  0  0  0  0  0  0  0  0  0
   -7.1640    1.4437    2.5495 C   0  0  0  0  0  0  0  0  0  0  0  0
   -7.7942    2.7954    2.3344 C   0  0  0  0  0  0  0  0  0  0  0  0
   -8.8378    2.9455    1.4632 C   0  0  0  0  0  0  0  0  0  0  0  0
   -9.4477    4.1687    1.2274 C   0  0  0  0  0  0  0  0  0  0  0  0
   -8.9379    5.2607    1.9329 C   0  0  0  0  0  0  0  0  0  0  0  0
   -7.8841    5.1196    2.8147 C   0  0  0  0  0  0  0  0  0  0  0  0
   -7.2991    3.8966    3.0293 C   0  0  0  0  0  0  0  0  0  0  0  0
    4.3889    1.4484   -0.2346 C   0  0  0  0  0  0  0  0  0  0  0  0
    5.0785    2.4007   -0.7402 O   0  0  0  0  0  0  0  0  0  0  0  0
    4.9491    0.1638   -0.2429 N   0  0  0  0  0  0  0  0  0  0  0  0
    6.2754   -0.1033   -0.7983 C   0  0  2  0  0  0  0  0  0  0  0  0
    6.1772   -0.6335   -2.1758 C   0  0  0  0  0  0  0  0  0  0  0  0
    6.6194    0.0691   -3.1984 C   0  0  0  0  0  0  0  0  0  0  0  0
    6.5699   -0.4214   -4.8630 S   0  0  0  0  0  6  0  0  0  0  0  0
    8.1443   -0.2353   -5.6402 C   0  0  0  0  0  0  0  0  0  0  0  0
    5.5584    0.4411   -5.5986 O   0  0  0  0  0  0  0  0  0  0  0  0
    6.0913   -1.8333   -4.9949 O   0  0  0  0  0  0  0  0  0  0  0  0
    7.1011   -0.9586    0.0946 C   0  0  0  0  0  0  0  0  0  0  0  0
    8.4358   -1.2076   -0.4905 C   0  0  0  0  0  0  0  0  0  0  0  0
    8.7247   -0.7285   -1.6156 O   0  0  0  0  0  0  0  0  0  0  0  0
    9.4022   -1.9632    0.1673 O   0  0  0  0  0  0  0  0  0  0  0  0
    5.2211    4.4897    2.5954 H   0  0  0  0  0  0  0  0  0  0  0  0
    3.7195    4.3855    3.6778 H   0  0  0  0  0  0  0  0  0  0  0  0
    5.1628    3.4308    4.0269 H   0  0  0  0  0  0  0  0  0  0  0  0
    3.5819    1.9256    2.9643 H   0  0  0  0  0  0  0  0  0  0  0  0
    5.0462    2.1943    1.9842 H   0  0  0  0  0  0  0  0  0  0  0  0
    3.9174    3.7652    0.5555 H   0  0  0  0  0  0  0  0  0  0  0  0
    1.2465    3.5955    0.6890 H   0  0  0  0  0  0  0  0  0  0  0  0
    2.1953    4.8934    1.4613 H   0  0  0  0  0  0  0  0  0  0  0  0
    1.6094    3.5774    2.5049 H   0  0  0  0  0  0  0  0  0  0  0  0
    2.4441    2.1044   -0.5872 H   0  0  0  0  0  0  0  0  0  0  0  0
    2.8325    0.3903    1.8941 H   0  0  0  0  0  0  0  0  0  0  0  0
    0.1151   -0.2524    2.3147 H   0  0  0  0  0  0  0  0  0  0  0  0
    0.5931   -2.6359    2.5264 H   0  0  0  0  0  0  0  0  0  0  0  0
    2.0353   -1.6434    2.6998 H   0  0  0  0  0  0  0  0  0  0  0  0
    1.3169   -3.3504    0.2344 H   0  0  0  0  0  0  0  0  0  0  0  0
    2.7457   -2.3219    0.3446 H   0  0  0  0  0  0  0  0  0  0  0  0
    3.3799   -5.9413    1.2901 H   0  0  0  0  0  0  0  0  0  0  0  0
    3.8280   -4.6910    0.1063 H   0  0  0  0  0  0  0  0  0  0  0  0
   -0.8329   -2.0935    0.1777 H   0  0  0  0  0  0  0  0  0  0  0  0
   -3.7097   -1.6999    0.9757 H   0  0  0  0  0  0  0  0  0  0  0  0
   -2.4570   -2.1078   -1.1519 H   0  0  0  0  0  0  0  0  0  0  0  0
   -2.6614   -0.4202   -1.6264 H   0  0  0  0  0  0  0  0  0  0  0  0
   -4.7989    0.2010   -2.8807 H   0  0  0  0  0  0  0  0  0  0  0  0
   -6.9764   -1.0362   -3.5037 H   0  0  0  0  0  0  0  0  0  0  0  0
   -8.2079   -3.4887   -2.8267 H   0  0  0  0  0  0  0  0  0  0  0  0
   -7.8294   -5.5220   -1.3990 H   0  0  0  0  0  0  0  0  0  0  0  0
   -5.8018   -5.7219   -0.0243 H   0  0  0  0  0  0  0  0  0  0  0  0
   -4.1252   -3.9352   -0.0421 H   0  0  0  0  0  0  0  0  0  0  0  0
   -4.1133    1.1385    0.0179 H   0  0  0  0  0  0  0  0  0  0  0  0
   -7.9714    0.7018    2.4106 H   0  0  0  0  0  0  0  0  0  0  0  0
   -6.8333    1.3628    3.6174 H   0  0  0  0  0  0  0  0  0  0  0  0
   -9.2110    2.0836    0.9296 H   0  0  0  0  0  0  0  0  0  0  0  0
  -10.2604    4.2996    0.5534 H   0  0  0  0  0  0  0  0  0  0  0  0
   -9.4121    6.2133    1.7507 H   0  0  0  0  0  0  0  0  0  0  0  0
   -7.5297    6.0096    3.3317 H   0  0  0  0  0  0  0  0  0  0  0  0
   -6.4763    3.8024    3.7185 H   0  0  0  0  0  0  0  0  0  0  0  0
    4.4293   -0.6278    0.1461 H   0  0  0  0  0  0  0  0  0  0  0  0
    6.7719    0.9043   -0.8977 H   0  0  0  0  0  0  0  0  0  0  0  0
    5.7416   -1.5987   -2.3430 H   0  0  0  0  0  0  0  0  0  0  0  0
    7.0613    1.0605   -2.9721 H   0  0  0  0  0  0  0  0  0  0  0  0
    8.0543   -0.1827   -6.7515 H   0  0  0  0  0  0  0  0  0  0  0  0
    8.5692    0.7667   -5.3422 H   0  0  0  0  0  0  0  0  0  0  0  0
    8.8400   -1.0499   -5.4171 H   0  0  0  0  0  0  0  0  0  0  0  0
    7.2105   -0.5806    1.1281 H   0  0  0  0  0  0  0  0  0  0  0  0
    6.5371   -1.9344    0.2048 H   0  0  0  0  0  0  0  0  0  0  0  0
    9.9908   -2.5973   -0.3618 H   0  0  0  0  0  0  0  0  0  0  0  0
  1  2  1  0
  2  3  1  0
  3  4  1  0
  3  5  1  0
  5  6  1  0
  6  7  1  0
  7  8  2  0
  7  9  1  0
  9 10  1  0
 10 11  1  0
 11 12  1  0
 12 13  1  0
 12 14  2  0
  9 15  1  0
 15 16  1  0
 16 17  2  0
 16 18  1  0
 18 19  1  0
 19 20  1  0
 20 21  2  0
 21 22  1  0
 22 23  1  0
 23 24  2  0
 24 25  1  0
 25 26  2  0
 26 27  1  0
 27 28  2  0
 18 29  1  0
 29 30  1  0
 30 31  2  0
 30 32  1  0
 32 33  1  0
 33 34  1  0
 34 35  2  0
 35 36  1  0
 36 37  2  0
 37 38  1  0
 38 39  2  0
  5 40  1  0
 40 41  2  0
 40 42  1  0
 42 43  1  0
 43 44  1  0
 44 45  2  3
 45 46  1  0
 46 47  1  0
 46 48  2  0
 46 49  2  0
 43 50  1  0
 50 51  1  0
 51 52  2  0
 51 53  1  0
 28 20  1  0
 39 34  1  0
 28 23  1  0
  1 54  1  0
  1 55  1  0
  1 56  1  0
  2 57  1  0
  2 58  1  0
  3 59  1  6
  4 60  1  0
  4 61  1  0
  4 62  1  0
  5 63  1  6
  6 64  1  0
  9 65  1  1
 10 66  1  0
 10 67  1  0
 11 68  1  0
 11 69  1  0
 13 70  1  0
 13 71  1  0
 15 72  1  0
 18 73  1  1
 19 74  1  0
 19 75  1  0
 21 76  1  0
 22 77  1  0
 24 78  1  0
 25 79  1  0
 26 80  1  0
 27 81  1  0
 29 82  1  0
 33 83  1  0
 33 84  1  0
 35 85  1  0
 36 86  1  0
 37 87  1  0
 38 88  1  0
 39 89  1  0
 42 90  1  0
 43 91  1  6
 44 92  1  0
 45 93  1  0
 47 94  1  0
 47 95  1  0
 47 96  1  0
 50 97  1  0
 50 98  1  0
 53 99  1  0
M  END
$$$$
