
     RDKit          3D

 15 15  0  0  0  0  0  0  0  0999 V2000
   -2.9397    0.6307    0.3607 O   0  0  0  0  0  0  0  0  0  0  0  0
   -2.0367   -0.4306    0.3264 C   0  0  0  0  0  0  0  0  0  0  0  0
   -2.4502   -1.6107    0.4694 O   0  0  0  0  0  0  0  0  0  0  0  0
   -0.6145   -0.1742    0.1252 C   0  0  0  0  0  0  0  0  0  0  0  0
    0.2616   -1.2402    0.0948 C   0  0  0  0  0  0  0  0  0  0  0  0
    1.6358   -1.0644   -0.0942 C   0  0  0  0  0  0  0  0  0  0  0  0
    2.0399    0.2623   -0.2472 C   0  0  0  0  0  0  0  0  0  0  0  0
    4.0646    0.5959   -0.5313 Hg  0  0  0  0  0  1  0  0  0  0  0  0
    1.1841    1.3301   -0.2195 C   0  0  0  0  0  0  0  0  0  0  0  0
   -0.1685    1.1223   -0.0309 C   0  0  0  0  0  0  0  0  0  0  0  0
   -3.8888    0.4867   -0.0076 H   0  0  0  0  0  0  0  0  0  0  0  0
   -0.0326   -2.2782    0.2117 H   0  0  0  0  0  0  0  0  0  0  0  0
    2.3296   -1.8832   -0.1203 H   0  0  0  0  0  0  0  0  0  0  0  0
    1.5217    2.3492   -0.3406 H   0  0  0  0  0  0  0  0  0  0  0  0
   -0.9065    1.9043    0.0036 H   0  0  0  0  0  0  0  0  0  0  0  0
  1  2  1  0
  2  3  2  0
  2  4  1  0
  4  5  2  0
  5  6  1  0
  6  7  2  0
  7  8  1  0
  7  9  1  0
  9 10  2  0
 10  4  1  0
  1 11  1  0
  5 12  1  0
  6 13  1  0
  9 14  1  0
 10 15  1  0
M  END
$$$$
