
     RDKit          3D

 30 32  0  0  0  0  0  0  0  0999 V2000
    5.9914    0.2439   -0.6168 O   0  0  0  0  0  0  0  0  0  0  0  0
    4.6016    0.0898   -0.4530 C   0  0  0  0  0  0  0  0  0  0  0  0
    3.9240    1.0293    0.2851 C   0  0  0  0  0  0  0  0  0  0  0  0
    2.5629    0.9419    0.4870 C   0  0  0  0  0  0  0  0  0  0  0  0
    1.8767   -0.1179   -0.0701 C   0  0  0  0  0  0  0  0  0  0  0  0
    2.5622   -1.0783   -0.8232 C   0  0  0  0  0  0  0  0  0  0  0  0
    3.9353   -0.9760   -1.0178 C   0  0  0  0  0  0  0  0  0  0  0  0
    0.4496   -0.4412   -0.0084 C   0  0  0  0  0  0  0  0  0  0  0  0
   -0.1311   -1.6923   -0.0278 C   0  0  0  0  0  0  0  0  0  0  0  0
   -1.4958   -1.7614    0.0409 C   0  0  0  0  0  0  0  0  0  0  0  0
   -2.2867   -0.6227    0.1276 C   0  0  0  0  0  0  0  0  0  0  0  0
   -1.7100    0.6403    0.1479 C   0  0  0  0  0  0  0  0  0  0  0  0
   -2.5234    1.7507    0.2345 C   0  0  0  0  0  0  0  0  0  0  0  0
   -3.8909    1.6490    0.3020 C   0  0  0  0  0  0  0  0  0  0  0  0
   -4.4834    0.4037    0.2832 C   0  0  0  0  0  0  0  0  0  0  0  0
   -5.8720    0.2105    0.3482 O   0  0  0  0  0  0  0  0  0  0  0  0
   -3.6778   -0.7270    0.1961 C   0  0  0  0  0  0  0  0  0  0  0  0
   -4.3925   -2.3270    0.1697 Cl  0  0  0  0  0  0  0  0  0  0  0  0
   -0.3146    0.7041    0.0773 C   0  0  0  0  0  0  0  0  0  0  0  0
    6.2360    0.7200   -1.4926 H   0  0  0  0  0  0  0  0  0  0  0  0
    4.3826    1.8928    0.7585 H   0  0  0  0  0  0  0  0  0  0  0  0
    1.9067    1.5981    1.0372 H   0  0  0  0  0  0  0  0  0  0  0  0
    2.1378   -1.9491   -1.3068 H   0  0  0  0  0  0  0  0  0  0  0  0
    4.5217   -1.6839   -1.5880 H   0  0  0  0  0  0  0  0  0  0  0  0
    0.5559   -2.5032   -0.0960 H   0  0  0  0  0  0  0  0  0  0  0  0
   -1.9408   -2.7617    0.0241 H   0  0  0  0  0  0  0  0  0  0  0  0
   -2.0543    2.7035    0.2480 H   0  0  0  0  0  0  0  0  0  0  0  0
   -4.5296    2.5223    0.3703 H   0  0  0  0  0  0  0  0  0  0  0  0
   -6.3837   -0.1881   -0.4506 H   0  0  0  0  0  0  0  0  0  0  0  0
    0.0423    1.7297    0.0991 H   0  0  0  0  0  0  0  0  0  0  0  0
  1  2  1  0
  2  3  2  0
  3  4  1  0
  4  5  2  0
  5  6  1  0
  6  7  2  0
  5  8  1  0
  8  9  2  0
  9 10  1  0
 10 11  2  0
 11 12  1  0
 12 13  1  0
 13 14  2  0
 14 15  1  0
 15 16  1  0
 15 17  2  0
 17 18  1  0
 12 19  2  0
  7  2  1  0
 19  8  1  0
 17 11  1  0
  1 20  1  0
  3 21  1  0
  4 22  1  0
  6 23  1  0
  7 24  1  0
  9 25  1  0
 10 26  1  0
 13 27  1  0
 14 28  1  0
 16 29  1  0
 19 30  1  0
M  END
$$$$
