
     RDKit          3D

 33 35  0  0  0  0  0  0  0  0999 V2000
    4.6857   -1.9799   -0.3424 O   0  0  0  0  0  0  0  0  0  0  0  0
    4.7647   -0.7751   -1.0264 C   0  0  0  0  0  0  0  0  0  0  0  0
    5.6475   -0.6398   -1.9349 O   0  0  0  0  0  0  0  0  0  0  0  0
    3.8755    0.3965   -0.7724 C   0  0  0  0  0  0  0  0  0  0  0  0
    2.9705   -0.0286    0.3035 N   0  0  0  0  0  0  0  0  0  0  0  0
    3.2204    0.1327    1.6112 C   0  0  0  0  0  0  0  0  0  0  0  0
    2.3374   -0.2845    2.5715 C   0  0  0  0  0  0  0  0  0  0  0  0
    1.1725   -0.8819    2.1185 C   0  0  0  0  0  0  0  0  0  0  0  0
    0.3218   -1.2859    2.9672 O   0  0  0  0  0  0  0  0  0  0  0  0
    0.8755   -1.0668    0.8131 N   0  0  0  0  0  0  0  0  0  0  0  0
   -0.3340   -1.6862    0.3785 C   0  0  0  0  0  0  0  0  0  0  0  0
   -1.4731   -0.8156    0.1462 C   0  0  0  0  0  0  0  0  0  0  0  0
   -1.9468   -0.1691   -0.8155 N   0  0  0  0  0  0  0  0  0  0  0  0
   -3.0511    0.5562   -0.6797 C   0  0  0  0  0  0  0  0  0  0  0  0
   -3.6174    1.2877   -1.7035 C   0  0  0  0  0  0  0  0  0  0  0  0
   -4.7644    2.0125   -1.4757 C   0  0  0  0  0  0  0  0  0  0  0  0
   -5.5105    2.9610   -2.7778 Cl  0  0  0  0  0  0  0  0  0  0  0  0
   -5.4214    2.0717   -0.2627 C   0  0  0  0  0  0  0  0  0  0  0  0
   -4.8902    1.3563    0.7864 C   0  0  0  0  0  0  0  0  0  0  0  0
   -3.7450    0.6396    0.5378 C   0  0  0  0  0  0  0  0  0  0  0  0
   -2.6428   -0.4694    1.5733 S   0  0  0  0  0  0  0  0  0  0  0  0
    1.8090   -0.6217   -0.0508 C   0  0  0  0  0  0  0  0  0  0  0  0
    1.5643   -0.7786   -1.2929 O   0  0  0  0  0  0  0  0  0  0  0  0
    5.2895   -2.7629   -0.5211 H   0  0  0  0  0  0  0  0  0  0  0  0
    4.4352    1.3013   -0.4844 H   0  0  0  0  0  0  0  0  0  0  0  0
    3.2620    0.5982   -1.6747 H   0  0  0  0  0  0  0  0  0  0  0  0
    4.1498    0.6071    1.8858 H   0  0  0  0  0  0  0  0  0  0  0  0
    2.5312   -0.1581    3.6295 H   0  0  0  0  0  0  0  0  0  0  0  0
   -0.6354   -2.5140    1.0773 H   0  0  0  0  0  0  0  0  0  0  0  0
   -0.1225   -2.2125   -0.5796 H   0  0  0  0  0  0  0  0  0  0  0  0
   -3.2262    1.3525   -2.7297 H   0  0  0  0  0  0  0  0  0  0  0  0
   -6.3180    2.6115   -0.0030 H   0  0  0  0  0  0  0  0  0  0  0  0
   -5.2140    1.2458    1.8090 H   0  0  0  0  0  0  0  0  0  0  0  0
  1  2  1  0
  2  3  2  0
  2  4  1  0
  4  5  1  0
  5  6  1  0
  6  7  2  0
  7  8  1  0
  8  9  2  0
  8 10  1  0
 10 11  1  0
 11 12  1  0
 12 13  2  0
 13 14  1  0
 14 15  2  0
 15 16  1  0
 16 17  1  0
 16 18  2  0
 18 19  1  0
 19 20  2  0
 20 21  1  0
 10 22  1  0
 22 23  2  0
 22  5  1  0
 21 12  1  0
 20 14  1  0
  1 24  1  0
  4 25  1  0
  4 26  1  0
  6 27  1  0
  7 28  1  0
 11 29  1  0
 11 30  1  0
 15 31  1  0
 18 32  1  0
 19 33  1  0
M  END
$$$$
