
     RDKit          3D

 48 49  0  0  0  0  0  0  0  0999 V2000
   -4.8293   -0.4305    1.5659 C   0  0  0  0  0  0  0  0  0  0  0  0
   -4.7723    0.6791    0.5576 C   0  0  0  0  0  0  0  0  0  0  0  0
   -3.6423    0.5591   -0.3467 N   0  0  0  0  0  0  0  0  0  0  0  0
   -3.7643   -0.1698   -1.5768 C   0  0  0  0  0  0  0  0  0  0  0  0
   -3.4274   -1.6162   -1.4595 C   0  0  0  0  0  0  0  0  0  0  0  0
   -2.4289    1.1915    0.0446 C   0  0  0  0  0  0  0  0  0  0  0  0
   -2.3791    1.8170    1.1338 O   0  0  0  0  0  0  0  0  0  0  0  0
   -1.2610    1.0845   -0.8595 C   0  0  0  0  0  0  0  0  0  0  0  0
   -0.0836    1.7981   -0.3004 C   0  0  0  0  0  0  0  0  0  0  0  0
    0.0438    3.1434   -0.6572 C   0  0  0  0  0  0  0  0  0  0  0  0
    1.1236    3.8343   -0.1564 C   0  0  0  0  0  0  0  0  0  0  0  0
    1.9874    3.1552    0.6497 C   0  0  0  0  0  0  0  0  0  0  0  0
    1.8761    1.8292    1.0110 C   0  0  0  0  0  0  0  0  0  0  0  0
    2.8265    1.2196    1.8527 N   0  0  0  0  0  0  0  0  0  0  0  0
    2.6738   -0.4367    2.2949 S   0  0  0  0  0  0  0  0  0  0  0  0
    3.7333   -0.8091    3.2989 O   0  0  0  0  0  0  0  0  0  0  0  0
    1.3486   -0.6822    2.9771 O   0  0  0  0  0  0  0  0  0  0  0  0
    2.7415   -1.4782    0.8745 C   0  0  0  0  0  0  0  0  0  0  0  0
    3.8976   -1.4285    0.1019 C   0  0  0  0  0  0  0  0  0  0  0  0
    5.0352   -0.5435    0.4425 C   0  0  0  0  0  0  0  0  0  0  0  0
    3.9804   -2.2441   -1.0319 C   0  0  0  0  0  0  0  0  0  0  0  0
    5.4003   -2.2420   -2.0583 Cl  0  0  0  0  0  0  0  0  0  0  0  0
    2.9309   -3.0884   -1.3826 C   0  0  0  0  0  0  0  0  0  0  0  0
    1.8128   -3.1106   -0.6014 C   0  0  0  0  0  0  0  0  0  0  0  0
    1.6864   -2.3196    0.5315 C   0  0  0  0  0  0  0  0  0  0  0  0
    0.8208    1.1943    0.5084 N   0  0  0  0  0  0  0  0  0  0  0  0
   -5.7494   -1.0442    1.4891 H   0  0  0  0  0  0  0  0  0  0  0  0
   -4.8361   -0.0618    2.6335 H   0  0  0  0  0  0  0  0  0  0  0  0
   -3.8921   -1.0390    1.5081 H   0  0  0  0  0  0  0  0  0  0  0  0
   -4.6854    1.6312    1.1215 H   0  0  0  0  0  0  0  0  0  0  0  0
   -5.7199    0.7926   -0.0285 H   0  0  0  0  0  0  0  0  0  0  0  0
   -3.1282    0.3022   -2.3238 H   0  0  0  0  0  0  0  0  0  0  0  0
   -4.8527   -0.1215   -1.8680 H   0  0  0  0  0  0  0  0  0  0  0  0
   -2.9284   -1.9422   -2.3955 H   0  0  0  0  0  0  0  0  0  0  0  0
   -4.3198   -2.2701   -1.3357 H   0  0  0  0  0  0  0  0  0  0  0  0
   -2.6792   -1.8067   -0.6381 H   0  0  0  0  0  0  0  0  0  0  0  0
   -1.4823    1.4312   -1.9034 H   0  0  0  0  0  0  0  0  0  0  0  0
   -0.9994    0.0088   -0.9800 H   0  0  0  0  0  0  0  0  0  0  0  0
   -0.6787    3.6206   -1.3015 H   0  0  0  0  0  0  0  0  0  0  0  0
    1.2858    4.8854   -0.3930 H   0  0  0  0  0  0  0  0  0  0  0  0
    2.8378    3.7272    1.0350 H   0  0  0  0  0  0  0  0  0  0  0  0
    3.6295    1.7707    2.2129 H   0  0  0  0  0  0  0  0  0  0  0  0
    5.9543   -1.0285    0.0451 H   0  0  0  0  0  0  0  0  0  0  0  0
    5.1906   -0.3837    1.5112 H   0  0  0  0  0  0  0  0  0  0  0  0
    4.9094    0.3993   -0.1329 H   0  0  0  0  0  0  0  0  0  0  0  0
    3.0209   -3.7187   -2.2777 H   0  0  0  0  0  0  0  0  0  0  0  0
    0.9868   -3.7421   -0.8340 H   0  0  0  0  0  0  0  0  0  0  0  0
    0.8059   -2.3167    1.1737 H   0  0  0  0  0  0  0  0  0  0  0  0
  1  2  1  0
  2  3  1  0
  3  4  1  0
  4  5  1  0
  3  6  1  0
  6  7  2  0
  6  8  1  0
  8  9  1  0
  9 10  2  0
 10 11  1  0
 11 12  2  0
 12 13  1  0
 13 14  1  0
 14 15  1  0
 15 16  2  0
 15 17  2  0
 15 18  1  0
 18 19  2  0
 19 20  1  0
 19 21  1  0
 21 22  1  0
 21 23  2  0
 23 24  1  0
 24 25  2  0
 13 26  2  0
 26  9  1  0
 25 18  1  0
  1 27  1  0
  1 28  1  0
  1 29  1  0
  2 30  1  0
  2 31  1  0
  4 32  1  0
  4 33  1  0
  5 34  1  0
  5 35  1  0
  5 36  1  0
  8 37  1  0
  8 38  1  0
 10 39  1  0
 11 40  1  0
 12 41  1  0
 14 42  1  0
 20 43  1  0
 20 44  1  0
 20 45  1  0
 23 46  1  0
 24 47  1  0
 25 48  1  0
M  END
$$$$
