
     RDKit          3D

 42 45  0  0  0  0  0  0  0  0999 V2000
   -5.3289    2.1942    0.7874 N   0  0  0  0  0  0  0  0  0  0  0  0
   -4.5764    1.0242    1.0552 C   0  0  0  0  0  0  0  0  0  0  0  0
   -4.7664    0.2971    2.2326 C   0  0  0  0  0  0  0  0  0  0  0  0
   -4.0292   -0.8381    2.4815 C   0  0  0  0  0  0  0  0  0  0  0  0
   -3.0879   -1.2879    1.5822 C   0  0  0  0  0  0  0  0  0  0  0  0
   -2.8676   -0.5900    0.3939 C   0  0  0  0  0  0  0  0  0  0  0  0
   -1.8749   -1.0626   -0.5580 C   0  0  0  0  0  0  0  0  0  0  0  0
   -2.2537   -1.9402   -1.5434 C   0  0  0  0  0  0  0  0  0  0  0  0
   -3.5791   -2.3397   -1.5869 O   0  0  0  0  0  0  0  0  0  0  0  0
   -1.3861   -2.4369   -2.4811 C   0  0  0  0  0  0  0  0  0  0  0  0
   -0.0626   -2.0242   -2.4202 C   0  0  0  0  0  0  0  0  0  0  0  0
    0.3608   -1.1482   -1.4525 C   0  0  0  0  0  0  0  0  0  0  0  0
    1.6593   -0.7278   -1.3715 C   0  0  0  0  0  0  0  0  0  0  0  0
    2.0897    0.1597   -0.3901 C   0  0  0  0  0  0  0  0  0  0  0  0
    3.4616    0.6260   -0.2764 C   0  0  0  0  0  0  0  0  0  0  0  0
    4.2275    0.7694   -1.4125 C   0  0  0  0  0  0  0  0  0  0  0  0
    5.5520    1.2165   -1.3327 C   0  0  0  0  0  0  0  0  0  0  0  0
    6.1197    1.5233   -0.1160 C   0  0  0  0  0  0  0  0  0  0  0  0
    5.3552    1.3804    1.0211 C   0  0  0  0  0  0  0  0  0  0  0  0
    5.9287    1.6896    2.2446 O   0  0  0  0  0  0  0  0  0  0  0  0
    4.0399    0.9358    0.9358 C   0  0  0  0  0  0  0  0  0  0  0  0
    1.1475    0.6052    0.5087 C   0  0  0  0  0  0  0  0  0  0  0  0
   -0.1644    0.2106    0.4652 C   0  0  0  0  0  0  0  0  0  0  0  0
   -0.5501   -0.6736   -0.5277 C   0  0  0  0  0  0  0  0  0  0  0  0
   -3.6218    0.5346    0.1840 C   0  0  0  0  0  0  0  0  0  0  0  0
   -6.3537    2.2428    0.9225 H   0  0  0  0  0  0  0  0  0  0  0  0
   -4.8345    3.0353    0.4423 H   0  0  0  0  0  0  0  0  0  0  0  0
   -5.5128    0.6776    2.9164 H   0  0  0  0  0  0  0  0  0  0  0  0
   -4.1770   -1.4020    3.3957 H   0  0  0  0  0  0  0  0  0  0  0  0
   -2.4887   -2.1726    1.7383 H   0  0  0  0  0  0  0  0  0  0  0  0
   -4.0389   -2.8646   -0.8571 H   0  0  0  0  0  0  0  0  0  0  0  0
   -1.7093   -3.1390   -3.2622 H   0  0  0  0  0  0  0  0  0  0  0  0
    0.6062   -2.4256   -3.1665 H   0  0  0  0  0  0  0  0  0  0  0  0
    2.3809   -1.0849   -2.0803 H   0  0  0  0  0  0  0  0  0  0  0  0
    3.8360    0.5439   -2.3965 H   0  0  0  0  0  0  0  0  0  0  0  0
    6.1187    1.3154   -2.2480 H   0  0  0  0  0  0  0  0  0  0  0  0
    7.1464    1.8669   -0.0852 H   0  0  0  0  0  0  0  0  0  0  0  0
    6.6092    1.0916    2.6790 H   0  0  0  0  0  0  0  0  0  0  0  0
    3.4942    0.8442    1.8549 H   0  0  0  0  0  0  0  0  0  0  0  0
    1.4676    1.3009    1.2839 H   0  0  0  0  0  0  0  0  0  0  0  0
   -0.8873    0.5749    1.1834 H   0  0  0  0  0  0  0  0  0  0  0  0
   -3.4498    1.0793   -0.7438 H   0  0  0  0  0  0  0  0  0  0  0  0
  1  2  1  0
  2  3  2  0
  3  4  1  0
  4  5  2  0
  5  6  1  0
  6  7  1  0
  7  8  2  0
  8  9  1  0
  8 10  1  0
 10 11  2  0
 11 12  1  0
 12 13  2  0
 13 14  1  0
 14 15  1  0
 15 16  2  0
 16 17  1  0
 17 18  2  0
 18 19  1  0
 19 20  1  0
 19 21  2  0
 14 22  2  0
 22 23  1  0
 23 24  2  0
  6 25  2  0
 25  2  1  0
 24  7  1  0
 24 12  1  0
 21 15  1  0
  1 26  1  0
  1 27  1  0
  3 28  1  0
  4 29  1  0
  5 30  1  0
  9 31  1  0
 10 32  1  0
 11 33  1  0
 13 34  1  0
 16 35  1  0
 17 36  1  0
 18 37  1  0
 20 38  1  0
 21 39  1  0
 22 40  1  0
 23 41  1  0
 25 42  1  0
M  END
$$$$
