
     RDKit          3D

 48 50  0  0  0  0  0  0  0  0999 V2000
    6.1282    0.5858    2.5791 C   0  0  0  0  0  0  0  0  0  0  0  0
    6.4816   -0.4292    1.6784 O   0  0  0  0  0  0  0  0  0  0  0  0
    5.5880   -0.7911    0.6719 C   0  0  0  0  0  0  0  0  0  0  0  0
    4.3750   -0.1638    0.5602 C   0  0  0  0  0  0  0  0  0  0  0  0
    3.4986   -0.5396   -0.4487 C   0  0  0  0  0  0  0  0  0  0  0  0
    2.2524    0.1232   -0.5317 N   0  0  0  0  0  0  0  0  0  0  0  0
    1.8271    0.9501    0.5991 C   0  0  0  0  0  0  0  0  0  0  0  0
    0.4914    1.5637    0.2725 C   0  0  0  0  0  0  0  0  0  0  0  0
   -0.4108    0.5766   -0.2447 N   0  0  0  0  0  0  0  0  0  0  0  0
   -1.7790    0.6184    0.0963 C   0  0  0  0  0  0  0  0  0  0  0  0
   -2.1921    1.5336    0.8663 O   0  0  0  0  0  0  0  0  0  0  0  0
   -2.6943   -0.4130   -0.4595 C   0  0  0  0  0  0  0  0  0  0  0  0
   -4.0549   -0.2037   -0.0210 N   0  0  0  0  0  0  0  0  0  0  0  0
   -4.5666   -0.7385    1.0746 N   0  0  0  0  0  0  0  0  0  0  0  0
   -5.8517   -0.3681    1.2156 C   0  0  0  0  0  0  0  0  0  0  0  0
   -6.7405   -0.7787    2.3267 C   0  0  0  0  0  0  0  0  0  0  0  0
   -7.8414   -1.4640    1.8184 F   0  0  0  0  0  0  0  0  0  0  0  0
   -6.0873   -1.7007    3.1576 F   0  0  0  0  0  0  0  0  0  0  0  0
   -7.1331    0.2633    3.1134 F   0  0  0  0  0  0  0  0  0  0  0  0
   -6.1136    0.4391    0.1303 C   0  0  0  0  0  0  0  0  0  0  0  0
   -7.6452    1.1918   -0.1827 Cl  0  0  0  0  0  0  0  0  0  0  0  0
   -4.9733    0.5442   -0.6555 C   0  0  0  0  0  0  0  0  0  0  0  0
   -4.8844    1.3244   -1.8991 C   0  0  0  0  0  0  0  0  0  0  0  0
    0.0479   -0.4968   -1.1394 C   0  0  0  0  0  0  0  0  0  0  0  0
    1.3889    0.0256   -1.6807 C   0  0  0  0  0  0  0  0  0  0  0  0
    3.8381   -1.5263   -1.3265 C   0  0  0  0  0  0  0  0  0  0  0  0
    5.0713   -2.1676   -1.2192 C   0  0  0  0  0  0  0  0  0  0  0  0
    5.9373   -1.8005   -0.2259 C   0  0  0  0  0  0  0  0  0  0  0  0
    7.5167   -2.5800   -0.0373 Cl  0  0  0  0  0  0  0  0  0  0  0  0
    5.1959    0.3672    3.1452 H   0  0  0  0  0  0  0  0  0  0  0  0
    6.9873    0.8288    3.2657 H   0  0  0  0  0  0  0  0  0  0  0  0
    5.8931    1.4944    1.9616 H   0  0  0  0  0  0  0  0  0  0  0  0
    4.1202    0.6288    1.2787 H   0  0  0  0  0  0  0  0  0  0  0  0
    2.5358    1.8026    0.7607 H   0  0  0  0  0  0  0  0  0  0  0  0
    1.7002    0.3510    1.5179 H   0  0  0  0  0  0  0  0  0  0  0  0
    0.6031    2.3334   -0.5219 H   0  0  0  0  0  0  0  0  0  0  0  0
    0.0473    2.0284    1.1941 H   0  0  0  0  0  0  0  0  0  0  0  0
   -2.6154   -0.3272   -1.5658 H   0  0  0  0  0  0  0  0  0  0  0  0
   -2.3520   -1.4066   -0.1176 H   0  0  0  0  0  0  0  0  0  0  0  0
   -5.3664    2.3182   -1.8355 H   0  0  0  0  0  0  0  0  0  0  0  0
   -5.3704    0.8053   -2.7743 H   0  0  0  0  0  0  0  0  0  0  0  0
   -3.8414    1.5097   -2.2169 H   0  0  0  0  0  0  0  0  0  0  0  0
    0.2489   -1.3812   -0.5285 H   0  0  0  0  0  0  0  0  0  0  0  0
   -0.6406   -0.6703   -1.9705 H   0  0  0  0  0  0  0  0  0  0  0  0
    1.7563   -0.5476   -2.5166 H   0  0  0  0  0  0  0  0  0  0  0  0
    1.1306    1.0729   -2.0374 H   0  0  0  0  0  0  0  0  0  0  0  0
    3.1723   -1.8378   -2.1159 H   0  0  0  0  0  0  0  0  0  0  0  0
    5.3210   -2.9484   -1.9246 H   0  0  0  0  0  0  0  0  0  0  0  0
  1  2  1  0
  2  3  1  0
  3  4  2  0
  4  5  1  0
  5  6  1  0
  6  7  1  0
  7  8  1  0
  8  9  1  0
  9 10  1  0
 10 11  2  0
 10 12  1  0
 12 13  1  0
 13 14  1  0
 14 15  2  0
 15 16  1  0
 16 17  1  0
 16 18  1  0
 16 19  1  0
 15 20  1  0
 20 21  1  0
 20 22  2  0
 22 23  1  0
  9 24  1  0
 24 25  1  0
  5 26  2  0
 26 27  1  0
 27 28  2  0
 28 29  1  0
 28  3  1  0
 25  6  1  0
 22 13  1  0
  1 30  1  0
  1 31  1  0
  1 32  1  0
  4 33  1  0
  7 34  1  0
  7 35  1  0
  8 36  1  0
  8 37  1  0
 12 38  1  0
 12 39  1  0
 23 40  1  0
 23 41  1  0
 23 42  1  0
 24 43  1  0
 24 44  1  0
 25 45  1  0
 25 46  1  0
 26 47  1  0
 27 48  1  0
M  END
$$$$
