
     RDKit          3D

 58 62  0  0  0  0  0  0  0  0999 V2000
   -8.4689    4.2551    0.8826 C   0  0  0  0  0  0  0  0  0  0  0  0
   -7.3412    3.3699    0.5290 C   0  0  0  0  0  0  0  0  0  0  0  0
   -6.8097    2.3525    1.3009 C   0  0  0  0  0  0  0  0  0  0  0  0
   -5.7991    1.7712    0.6524 N   0  0  0  0  0  0  0  0  0  0  0  0
   -5.0149    0.6984    1.1221 C   0  0  0  0  0  0  0  0  0  0  0  0
   -5.4245   -0.0041    2.2397 C   0  0  0  0  0  0  0  0  0  0  0  0
   -4.6610   -1.0437    2.6915 C   0  0  0  0  0  0  0  0  0  0  0  0
   -3.4765   -1.3864    2.0220 C   0  0  0  0  0  0  0  0  0  0  0  0
   -3.0810   -0.6780    0.9103 C   0  0  0  0  0  0  0  0  0  0  0  0
   -1.8730   -1.0282    0.2280 N   0  0  0  0  0  0  0  0  0  0  0  0
   -1.8421   -1.9609   -0.8247 C   0  0  0  0  0  0  0  0  0  0  0  0
   -2.9481   -2.4883   -1.1511 O   0  0  0  0  0  0  0  0  0  0  0  0
   -0.6419   -2.3376   -1.5344 C   0  0  0  0  0  0  0  0  0  0  0  0
   -0.7430   -3.2723   -2.5574 C   0  0  0  0  0  0  0  0  0  0  0  0
    0.3916   -3.6355   -3.2353 C   0  0  0  0  0  0  0  0  0  0  0  0
    1.6000   -3.0778   -2.8991 C   0  0  0  0  0  0  0  0  0  0  0  0
    2.8109   -3.4736   -3.6315 C   0  0  0  0  0  0  0  0  0  0  0  0
    1.7269   -2.1328   -1.8709 C   0  0  0  0  0  0  0  0  0  0  0  0
    3.0054   -1.6244   -1.6072 N   0  0  0  0  0  0  0  0  0  0  0  0
    3.3713   -0.6734   -0.6287 C   0  0  0  0  0  0  0  0  0  0  0  0
    2.5017   -0.1122    0.2086 N   0  0  0  0  0  0  0  0  0  0  0  0
    2.8374    0.7937    1.1443 C   0  0  0  0  0  0  0  0  0  0  0  0
    4.1637    1.1893    1.2710 C   0  0  0  0  0  0  0  0  0  0  0  0
    5.0777    0.6235    0.4179 C   0  0  0  0  0  0  0  0  0  0  0  0
    6.5176    0.9758    0.4690 C   0  0  0  0  0  0  0  0  0  0  0  0
    7.0298    1.8698    1.3497 C   0  0  0  0  0  0  0  0  0  0  0  0
    8.3862    2.1383    1.3268 C   0  0  0  0  0  0  0  0  0  0  0  0
    9.2026    1.5048    0.4208 C   0  0  0  0  0  0  0  0  0  0  0  0
    8.6647    0.6322   -0.4296 N   0  0  0  0  0  0  0  0  0  0  0  0
    7.3585    0.3536   -0.4301 C   0  0  0  0  0  0  0  0  0  0  0  0
    4.6742   -0.2744   -0.4927 N   0  0  0  0  0  0  0  0  0  0  0  0
    0.6112   -1.7820   -1.2114 C   0  0  0  0  0  0  0  0  0  0  0  0
   -3.8302    0.3539    0.4542 C   0  0  0  0  0  0  0  0  0  0  0  0
   -5.6745    2.3978   -0.5199 C   0  0  0  0  0  0  0  0  0  0  0  0
   -6.6147    3.3806   -0.6077 N   0  0  0  0  0  0  0  0  0  0  0  0
   -8.3244    4.7564    1.8631 H   0  0  0  0  0  0  0  0  0  0  0  0
   -9.3704    3.6072    1.0105 H   0  0  0  0  0  0  0  0  0  0  0  0
   -8.6313    4.9843    0.0640 H   0  0  0  0  0  0  0  0  0  0  0  0
   -7.1889    2.1018    2.2777 H   0  0  0  0  0  0  0  0  0  0  0  0
   -6.3511    0.2900    2.7354 H   0  0  0  0  0  0  0  0  0  0  0  0
   -4.9539   -1.6067    3.5561 H   0  0  0  0  0  0  0  0  0  0  0  0
   -2.8509   -2.2075    2.3590 H   0  0  0  0  0  0  0  0  0  0  0  0
   -1.0043   -0.5473    0.5588 H   0  0  0  0  0  0  0  0  0  0  0  0
   -1.7146   -3.7042   -2.8092 H   0  0  0  0  0  0  0  0  0  0  0  0
    0.2989   -4.3622   -4.0271 H   0  0  0  0  0  0  0  0  0  0  0  0
    3.1510   -2.6472   -4.2797 H   0  0  0  0  0  0  0  0  0  0  0  0
    2.5652   -4.3241   -4.2943 H   0  0  0  0  0  0  0  0  0  0  0  0
    3.6137   -3.8378   -2.9572 H   0  0  0  0  0  0  0  0  0  0  0  0
    3.8489   -1.9647   -2.1910 H   0  0  0  0  0  0  0  0  0  0  0  0
    2.1352    1.2515    1.8257 H   0  0  0  0  0  0  0  0  0  0  0  0
    4.4581    1.9098    2.0086 H   0  0  0  0  0  0  0  0  0  0  0  0
    6.3879    2.3787    2.0742 H   0  0  0  0  0  0  0  0  0  0  0  0
    8.8130    2.8501    2.0235 H   0  0  0  0  0  0  0  0  0  0  0  0
   10.2802    1.7276    0.4133 H   0  0  0  0  0  0  0  0  0  0  0  0
    7.0011   -0.3723   -1.1590 H   0  0  0  0  0  0  0  0  0  0  0  0
    0.6378   -1.0604   -0.4094 H   0  0  0  0  0  0  0  0  0  0  0  0
   -3.5380    0.9190   -0.4119 H   0  0  0  0  0  0  0  0  0  0  0  0
   -4.9506    2.1831   -1.2999 H   0  0  0  0  0  0  0  0  0  0  0  0
  1  2  1  0
  2  3  2  0
  3  4  1  0
  4  5  1  0
  5  6  2  0
  6  7  1  0
  7  8  2  0
  8  9  1  0
  9 10  1  0
 10 11  1  0
 11 12  2  0
 11 13  1  0
 13 14  2  0
 14 15  1  0
 15 16  2  0
 16 17  1  0
 16 18  1  0
 18 19  1  0
 19 20  1  0
 20 21  2  0
 21 22  1  0
 22 23  2  0
 23 24  1  0
 24 25  1  0
 25 26  2  0
 26 27  1  0
 27 28  2  0
 28 29  1  0
 29 30  2  0
 24 31  2  0
 18 32  2  0
  9 33  2  0
  4 34  1  0
 34 35  2  0
 35  2  1  0
 33  5  1  0
 32 13  1  0
 31 20  1  0
 30 25  1  0
  1 36  1  0
  1 37  1  0
  1 38  1  0
  3 39  1  0
  6 40  1  0
  7 41  1  0
  8 42  1  0
 10 43  1  0
 14 44  1  0
 15 45  1  0
 17 46  1  0
 17 47  1  0
 17 48  1  0
 19 49  1  0
 22 50  1  0
 23 51  1  0
 26 52  1  0
 27 53  1  0
 28 54  1  0
 30 55  1  0
 32 56  1  0
 33 57  1  0
 34 58  1  0
M  END
$$$$
