
     RDKit          3D

 33 35  0  0  0  0  0  0  0  0999 V2000
   -3.5931    2.2628    0.8684 C   0  0  0  0  0  0  0  0  0  0  0  0
   -2.9337    1.0730    0.3687 N   0  0  0  0  0  0  0  0  0  0  0  0
   -3.4930    0.0161   -0.3955 C   0  0  0  0  0  0  0  0  0  0  0  0
   -4.7130   -0.0922   -0.7990 N   0  0  0  0  0  0  0  0  0  0  0  0
   -2.4573   -0.9193   -0.6437 N   0  0  0  0  0  0  0  0  0  0  0  0
   -2.6051   -2.1398   -1.3878 C   0  0  0  0  0  0  0  0  0  0  0  0
   -1.2233   -0.4940   -0.0535 C   0  0  0  0  0  0  0  0  0  0  0  0
   -0.0533   -1.0910   -0.1096 C   0  0  0  0  0  0  0  0  0  0  0  0
    1.1412   -0.5699    0.5364 C   0  0  0  0  0  0  0  0  0  0  0  0
    1.2942   -0.1933    1.8512 C   0  0  0  0  0  0  0  0  0  0  0  0
    2.5499    0.2662    2.0669 N   0  0  0  0  0  0  0  0  0  0  0  0
    3.1969    0.1842    0.9019 C   0  0  0  0  0  0  0  0  0  0  0  0
    4.4898    0.5178    0.5689 C   0  0  0  0  0  0  0  0  0  0  0  0
    4.9263    0.3372   -0.7163 C   0  0  0  0  0  0  0  0  0  0  0  0
    4.0599   -0.1847   -1.6880 C   0  0  0  0  0  0  0  0  0  0  0  0
    2.7687   -0.5198   -1.3631 C   0  0  0  0  0  0  0  0  0  0  0  0
    2.3689   -0.3250   -0.0676 C   0  0  0  0  0  0  0  0  0  0  0  0
   -1.5419    0.7754    0.5865 C   0  0  0  0  0  0  0  0  0  0  0  0
   -0.7651    1.5033    1.2184 O   0  0  0  0  0  0  0  0  0  0  0  0
   -4.3063    2.6482    0.1102 H   0  0  0  0  0  0  0  0  0  0  0  0
   -4.1348    2.0379    1.8072 H   0  0  0  0  0  0  0  0  0  0  0  0
   -2.8731    3.0804    1.0725 H   0  0  0  0  0  0  0  0  0  0  0  0
   -5.4457    0.6077   -0.6016 H   0  0  0  0  0  0  0  0  0  0  0  0
   -3.4168   -2.0676   -2.1236 H   0  0  0  0  0  0  0  0  0  0  0  0
   -1.6506   -2.4281   -1.8717 H   0  0  0  0  0  0  0  0  0  0  0  0
   -2.8256   -2.9444   -0.6291 H   0  0  0  0  0  0  0  0  0  0  0  0
    0.0306   -2.0123   -0.6604 H   0  0  0  0  0  0  0  0  0  0  0  0
    0.5601   -0.2501    2.6538 H   0  0  0  0  0  0  0  0  0  0  0  0
    2.9419    0.6225    2.9882 H   0  0  0  0  0  0  0  0  0  0  0  0
    5.1983    0.9297    1.3018 H   0  0  0  0  0  0  0  0  0  0  0  0
    5.9320    0.5844   -1.0217 H   0  0  0  0  0  0  0  0  0  0  0  0
    4.4620   -0.3014   -2.6751 H   0  0  0  0  0  0  0  0  0  0  0  0
    2.1112   -0.9143   -2.0933 H   0  0  0  0  0  0  0  0  0  0  0  0
  1  2  1  0
  2  3  1  0
  3  4  2  3
  3  5  1  0
  5  6  1  0
  5  7  1  0
  7  8  2  0
  8  9  1  0
  9 10  2  0
 10 11  1  0
 11 12  1  0
 12 13  2  0
 13 14  1  0
 14 15  2  0
 15 16  1  0
 16 17  2  0
  7 18  1  0
 18 19  2  0
 18  2  1  0
 17  9  1  0
 17 12  1  0
  1 20  1  0
  1 21  1  0
  1 22  1  0
  4 23  1  0
  6 24  1  0
  6 25  1  0
  6 26  1  0
  8 27  1  0
 10 28  1  0
 11 29  1  0
 13 30  1  0
 14 31  1  0
 15 32  1  0
 16 33  1  0
M  END
$$$$
