
     RDKit          3D

 72 77  0  0  0  0  0  0  0  0999 V2000
    9.0157   -2.2892    3.3913 C   0  0  0  0  0  0  0  0  0  0  0  0
    8.4078   -1.7776    2.1445 C   0  0  0  0  0  0  0  0  0  0  0  0
    9.1487   -1.0052    1.4523 O   0  0  0  0  0  0  0  0  0  0  0  0
    7.1102   -2.0768    1.6840 N   0  0  0  0  0  0  0  0  0  0  0  0
    6.5846   -1.5490    0.4679 C   0  0  0  0  0  0  0  0  0  0  0  0
    6.7970   -2.2570   -0.6923 C   0  0  0  0  0  0  0  0  0  0  0  0
    6.3340   -1.7953   -1.9066 C   0  0  0  0  0  0  0  0  0  0  0  0
    5.6325   -0.5900   -2.0030 C   0  0  0  0  0  0  0  0  0  0  0  0
    5.1070    0.0802   -3.0415 N   0  0  0  0  0  0  0  0  0  0  0  0
    4.5527    1.2150   -2.5894 C   0  0  0  0  0  0  0  0  0  0  0  0
    4.7271    1.2708   -1.2312 C   0  0  0  0  0  0  0  0  0  0  0  0
    4.2882    2.3092   -0.2764 C   0  0  0  0  0  0  0  0  0  0  0  0
    3.0237    3.0026   -0.5664 C   0  0  2  0  0  0  0  0  0  0  0  0
    1.8191    2.2557   -0.6703 N   0  0  0  0  0  0  0  0  0  0  0  0
    0.6860    2.4795    0.1888 C   0  0  0  0  0  0  0  0  0  0  0  0
    0.8162    3.3643    1.0577 O   0  0  0  0  0  0  0  0  0  0  0  0
   -0.5616    1.7521    0.0966 C   0  0  0  0  0  0  0  0  0  0  0  0
   -1.5219    1.9803    1.0759 C   0  0  0  0  0  0  0  0  0  0  0  0
   -2.7505    1.3580    1.0622 C   0  0  0  0  0  0  0  0  0  0  0  0
   -3.0823    0.4707    0.0622 C   0  0  0  0  0  0  0  0  0  0  0  0
   -2.1478    0.2305   -0.9152 C   0  0  0  0  0  0  0  0  0  0  0  0
   -0.9017    0.8670   -0.8936 C   0  0  0  0  0  0  0  0  0  0  0  0
   -2.7168   -0.6511   -1.7516 N   0  0  0  0  0  0  0  0  0  0  0  0
   -3.9442   -0.9356   -1.3038 C   0  0  0  0  0  0  0  0  0  0  0  0
   -4.9209   -1.8632   -1.9164 C   0  0  0  0  0  0  0  0  0  0  0  0
   -5.4529   -2.9471   -1.2740 C   0  0  0  0  0  0  0  0  0  0  0  0
   -6.2994   -3.5349   -2.1771 C   0  0  0  0  0  0  0  0  0  0  0  0
   -6.2969   -2.8728   -3.2896 O   0  0  0  0  0  0  0  0  0  0  0  0
   -5.4637   -1.8368   -3.1721 C   0  0  0  0  0  0  0  0  0  0  0  0
   -4.2101   -0.2569   -0.1743 N   0  0  0  0  0  0  0  0  0  0  0  0
   -5.4191   -0.2795    0.6348 C   0  0  0  0  0  0  0  0  0  0  0  0
   -6.1625    1.0171    0.6608 C   0  0  0  0  0  0  0  0  0  0  0  0
   -7.5775    0.6914    1.1548 C   0  0  0  0  0  0  0  0  0  0  0  0
   -7.4858    0.0390    2.4948 C   0  0  0  0  0  0  0  0  0  0  0  0
   -6.6099   -1.1816    2.5390 C   0  0  0  0  0  0  0  0  0  0  0  0
   -5.2113   -0.8889    1.9982 C   0  0  0  0  0  0  0  0  0  0  0  0
    3.1973    3.8603   -1.7803 C   0  0  0  0  0  0  0  0  0  0  0  0
    4.2220    4.5612   -1.9355 O   0  0  0  0  0  0  0  0  0  0  0  0
    2.1931    3.8620   -2.7305 O   0  0  0  0  0  0  0  0  0  0  0  0
    5.4174    0.1186   -0.8553 C   0  0  0  0  0  0  0  0  0  0  0  0
    5.8931   -0.3642    0.3720 C   0  0  0  0  0  0  0  0  0  0  0  0
    8.2912   -2.6529    4.1196 H   0  0  0  0  0  0  0  0  0  0  0  0
    9.6183   -1.4977    3.9050 H   0  0  0  0  0  0  0  0  0  0  0  0
    9.7503   -3.0860    3.0785 H   0  0  0  0  0  0  0  0  0  0  0  0
    6.5109   -2.6987    2.2404 H   0  0  0  0  0  0  0  0  0  0  0  0
    7.3397   -3.2061   -0.6951 H   0  0  0  0  0  0  0  0  0  0  0  0
    6.5003   -2.3450   -2.8111 H   0  0  0  0  0  0  0  0  0  0  0  0
    5.1492   -0.2725   -4.0201 H   0  0  0  0  0  0  0  0  0  0  0  0
    4.0516    1.9522   -3.2366 H   0  0  0  0  0  0  0  0  0  0  0  0
    5.1116    3.0887   -0.3026 H   0  0  0  0  0  0  0  0  0  0  0  0
    4.3583    1.9149    0.7692 H   0  0  0  0  0  0  0  0  0  0  0  0
    2.9136    3.7980    0.2682 H   0  0  0  0  0  0  0  0  0  0  0  0
    1.6859    1.5013   -1.3786 H   0  0  0  0  0  0  0  0  0  0  0  0
   -1.3318    2.6644    1.8925 H   0  0  0  0  0  0  0  0  0  0  0  0
   -3.4611    1.5598    1.8301 H   0  0  0  0  0  0  0  0  0  0  0  0
   -0.1863    0.6679   -1.6596 H   0  0  0  0  0  0  0  0  0  0  0  0
   -5.2526   -3.2804   -0.2566 H   0  0  0  0  0  0  0  0  0  0  0  0
   -6.8734   -4.4208   -1.9703 H   0  0  0  0  0  0  0  0  0  0  0  0
   -5.2680   -1.1195   -3.9403 H   0  0  0  0  0  0  0  0  0  0  0  0
   -6.1179   -1.0045    0.1114 H   0  0  0  0  0  0  0  0  0  0  0  0
   -5.7848    1.7891    1.3217 H   0  0  0  0  0  0  0  0  0  0  0  0
   -6.2728    1.3473   -0.3974 H   0  0  0  0  0  0  0  0  0  0  0  0
   -8.1182    0.0734    0.4264 H   0  0  0  0  0  0  0  0  0  0  0  0
   -8.0874    1.6700    1.2996 H   0  0  0  0  0  0  0  0  0  0  0  0
   -8.4896   -0.2919    2.8419 H   0  0  0  0  0  0  0  0  0  0  0  0
   -7.1218    0.7566    3.2527 H   0  0  0  0  0  0  0  0  0  0  0  0
   -7.1054   -2.0025    1.9846 H   0  0  0  0  0  0  0  0  0  0  0  0
   -6.5027   -1.4869    3.5911 H   0  0  0  0  0  0  0  0  0  0  0  0
   -4.7047   -1.8488    1.8697 H   0  0  0  0  0  0  0  0  0  0  0  0
   -4.7429   -0.2336    2.7372 H   0  0  0  0  0  0  0  0  0  0  0  0
    2.1856    4.4715   -3.5450 H   0  0  0  0  0  0  0  0  0  0  0  0
    5.7185    0.2047    1.2820 H   0  0  0  0  0  0  0  0  0  0  0  0
  1  2  1  0
  2  3  2  0
  2  4  1  0
  4  5  1  0
  5  6  2  0
  6  7  1  0
  7  8  2  0
  8  9  1  0
  9 10  1  0
 10 11  2  0
 11 12  1  0
 12 13  1  0
 13 14  1  0
 14 15  1  0
 15 16  2  0
 15 17  1  0
 17 18  2  0
 18 19  1  0
 19 20  2  0
 20 21  1  0
 21 22  2  0
 21 23  1  0
 23 24  2  0
 24 25  1  0
 25 26  1  0
 26 27  2  0
 27 28  1  0
 28 29  1  0
 24 30  1  0
 30 31  1  0
 31 32  1  0
 32 33  1  0
 33 34  1  0
 34 35  1  0
 35 36  1  0
 13 37  1  0
 37 38  2  0
 37 39  1  0
 11 40  1  0
 40 41  2  0
 41  5  1  0
 40  8  1  0
 22 17  1  0
 29 25  2  0
 36 31  1  0
 30 20  1  0
  1 42  1  0
  1 43  1  0
  1 44  1  0
  4 45  1  0
  6 46  1  0
  7 47  1  0
  9 48  1  0
 10 49  1  0
 12 50  1  0
 12 51  1  0
 13 52  1  1
 14 53  1  0
 18 54  1  0
 19 55  1  0
 22 56  1  0
 26 57  1  0
 27 58  1  0
 29 59  1  0
 31 60  1  0
 32 61  1  0
 32 62  1  0
 33 63  1  0
 33 64  1  0
 34 65  1  0
 34 66  1  0
 35 67  1  0
 35 68  1  0
 36 69  1  0
 36 70  1  0
 39 71  1  0
 41 72  1  0
M  END
$$$$
