
     RDKit          3D

 68 70  0  0  0  0  0  0  0  0999 V2000
   -0.6707   -5.4867    2.4037 C   0  0  0  0  0  0  0  0  0  0  0  0
   -0.3178   -3.9990    2.3307 C   0  0  0  0  0  0  0  0  0  0  0  0
   -0.8587   -3.4457    1.0246 C   0  0  0  0  0  0  0  0  0  0  0  0
   -0.5030   -1.9748    0.9670 C   0  0  0  0  0  0  0  0  0  0  0  0
   -1.0039   -1.3746   -0.2894 N   0  0  0  0  0  0  0  0  0  0  0  0
   -2.3070   -0.8534   -0.2474 C   0  0  0  0  0  0  0  0  0  0  0  0
   -2.6802    0.4194    0.0906 C   0  0  0  0  0  0  0  0  0  0  0  0
   -3.9988    0.8654    0.1243 C   0  0  0  0  0  0  0  0  0  0  0  0
   -4.3369    2.2361    0.4919 C   0  0  0  0  0  0  0  0  0  0  0  0
   -5.4430    2.8754   -0.0395 C   0  0  0  0  0  0  0  0  0  0  0  0
   -5.7595    4.1716    0.3102 C   0  0  0  0  0  0  0  0  0  0  0  0
   -4.9920    4.8886    1.2020 C   0  0  0  0  0  0  0  0  0  0  0  0
   -5.4037    6.5384    1.6404 Cl  0  0  0  0  0  0  0  0  0  0  0  0
   -3.8840    4.2647    1.7418 C   0  0  0  0  0  0  0  0  0  0  0  0
   -3.5734    2.9602    1.3840 C   0  0  0  0  0  0  0  0  0  0  0  0
   -4.9747   -0.0495   -0.2072 C   0  0  0  0  0  0  0  0  0  0  0  0
   -4.6756   -1.3488   -0.5579 C   0  0  0  0  0  0  0  0  0  0  0  0
   -5.7652   -2.2996   -0.9074 C   0  0  0  0  0  0  0  0  0  0  0  0
   -6.8773   -1.5803   -1.2920 F   0  0  0  0  0  0  0  0  0  0  0  0
   -6.0281   -3.1438    0.1466 F   0  0  0  0  0  0  0  0  0  0  0  0
   -5.3137   -3.0535   -1.9778 F   0  0  0  0  0  0  0  0  0  0  0  0
   -3.3538   -1.7324   -0.5736 C   0  0  0  0  0  0  0  0  0  0  0  0
    0.0870   -1.4461   -1.5760 S   0  0  0  0  0  6  0  0  0  0  0  0
    0.4337   -2.9094   -1.8489 O   0  0  0  0  0  0  0  0  0  0  0  0
   -0.4536   -0.9442   -2.8799 O   0  0  0  0  0  0  0  0  0  0  0  0
    1.5956   -0.6067   -1.3173 C   0  0  0  0  0  0  0  0  0  0  0  0
    2.8063   -1.3008   -1.2607 C   0  0  0  0  0  0  0  0  0  0  0  0
    4.0217   -0.6821   -1.0413 C   0  0  0  0  0  0  0  0  0  0  0  0
    4.0757    0.6778   -0.8667 C   0  0  0  0  0  0  0  0  0  0  0  0
    5.2351    1.3541   -0.6463 O   0  0  0  0  0  0  0  0  0  0  0  0
    6.5363    0.9063   -0.5493 C   0  0  0  0  0  0  0  0  0  0  0  0
    7.1249    1.1531    0.8359 C   0  0  0  0  0  0  0  0  0  0  0  0
    7.4518    1.5090   -1.5528 C   0  0  0  0  0  0  0  0  0  0  0  0
    7.0349    2.3475   -2.3950 O   0  0  0  0  0  0  0  0  0  0  0  0
    8.7810    1.1610   -1.5822 O   0  0  0  0  0  0  0  0  0  0  0  0
    2.8989    1.3942   -0.9168 C   0  0  0  0  0  0  0  0  0  0  0  0
    2.9298    2.8522   -0.7326 C   0  0  0  0  0  0  0  0  0  0  0  0
    1.6760    0.7523   -1.1404 C   0  0  0  0  0  0  0  0  0  0  0  0
    0.4619    1.5946   -1.1995 C   0  0  0  0  0  0  0  0  0  0  0  0
   -1.7512   -5.6405    2.2646 H   0  0  0  0  0  0  0  0  0  0  0  0
   -0.1443   -6.0557    1.6348 H   0  0  0  0  0  0  0  0  0  0  0  0
   -0.4248   -5.8511    3.4234 H   0  0  0  0  0  0  0  0  0  0  0  0
    0.7615   -3.8664    2.4265 H   0  0  0  0  0  0  0  0  0  0  0  0
   -0.8322   -3.5037    3.1634 H   0  0  0  0  0  0  0  0  0  0  0  0
   -1.9551   -3.6024    1.0589 H   0  0  0  0  0  0  0  0  0  0  0  0
   -0.3632   -3.9881    0.2154 H   0  0  0  0  0  0  0  0  0  0  0  0
   -0.9682   -1.4984    1.8398 H   0  0  0  0  0  0  0  0  0  0  0  0
    0.5873   -1.8624    1.0535 H   0  0  0  0  0  0  0  0  0  0  0  0
   -1.8996    1.1071    0.3499 H   0  0  0  0  0  0  0  0  0  0  0  0
   -6.0593    2.3287   -0.7424 H   0  0  0  0  0  0  0  0  0  0  0  0
   -6.6371    4.6859   -0.1084 H   0  0  0  0  0  0  0  0  0  0  0  0
   -3.2881    4.8394    2.4424 H   0  0  0  0  0  0  0  0  0  0  0  0
   -2.7000    2.4830    1.8160 H   0  0  0  0  0  0  0  0  0  0  0  0
   -6.0056    0.3174   -0.1758 H   0  0  0  0  0  0  0  0  0  0  0  0
   -3.1348   -2.7689   -0.8550 H   0  0  0  0  0  0  0  0  0  0  0  0
    2.8003   -2.3667   -1.3933 H   0  0  0  0  0  0  0  0  0  0  0  0
    4.9295   -1.2823   -1.0088 H   0  0  0  0  0  0  0  0  0  0  0  0
    6.5730   -0.1892   -0.6896 H   0  0  0  0  0  0  0  0  0  0  0  0
    7.9985    0.4895    0.9885 H   0  0  0  0  0  0  0  0  0  0  0  0
    7.4162    2.2050    0.9744 H   0  0  0  0  0  0  0  0  0  0  0  0
    6.3765    0.8568    1.5996 H   0  0  0  0  0  0  0  0  0  0  0  0
    9.3507    1.1917   -2.4325 H   0  0  0  0  0  0  0  0  0  0  0  0
    2.4147    3.1145    0.2282 H   0  0  0  0  0  0  0  0  0  0  0  0
    2.5103    3.4235   -1.5852 H   0  0  0  0  0  0  0  0  0  0  0  0
    3.9732    3.2067   -0.6096 H   0  0  0  0  0  0  0  0  0  0  0  0
   -0.4183    1.0624   -1.5596 H   0  0  0  0  0  0  0  0  0  0  0  0
    0.6465    2.5400   -1.7718 H   0  0  0  0  0  0  0  0  0  0  0  0
    0.2676    1.9336   -0.1622 H   0  0  0  0  0  0  0  0  0  0  0  0
  1  2  1  0
  2  3  1  0
  3  4  1  0
  4  5  1  0
  5  6  1  0
  6  7  2  0
  7  8  1  0
  8  9  1  0
  9 10  2  0
 10 11  1  0
 11 12  2  0
 12 13  1  0
 12 14  1  0
 14 15  2  0
  8 16  2  0
 16 17  1  0
 17 18  1  0
 18 19  1  0
 18 20  1  0
 18 21  1  0
 17 22  2  0
  5 23  1  0
 23 24  2  0
 23 25  2  0
 23 26  1  0
 26 27  2  0
 27 28  1  0
 28 29  2  0
 29 30  1  0
 30 31  1  0
 31 32  1  0
 31 33  1  0
 33 34  2  0
 33 35  1  0
 29 36  1  0
 36 37  1  0
 36 38  2  0
 38 39  1  0
 22  6  1  0
 38 26  1  0
 15  9  1  0
  1 40  1  0
  1 41  1  0
  1 42  1  0
  2 43  1  0
  2 44  1  0
  3 45  1  0
  3 46  1  0
  4 47  1  0
  4 48  1  0
  7 49  1  0
 10 50  1  0
 11 51  1  0
 14 52  1  0
 15 53  1  0
 16 54  1  0
 22 55  1  0
 27 56  1  0
 28 57  1  0
 31 58  1  0
 32 59  1  0
 32 60  1  0
 32 61  1  0
 35 62  1  0
 37 63  1  0
 37 64  1  0
 37 65  1  0
 39 66  1  0
 39 67  1  0
 39 68  1  0
M  END
$$$$
