
     RDKit          3D

220227  0  0  0  0  0  0  0  0999 V2000
   -0.4753   -6.4014    2.3593 C   0  0  0  0  0  0  0  0  0  0  0  0
    0.8787   -6.5860    1.7278 C   0  0  0  0  0  0  0  0  0  0  0  0
    1.6567   -7.6328    2.4865 C   0  0  0  0  0  0  0  0  0  0  0  0
    1.6164   -5.3356    1.4755 C   0  0  0  0  0  0  0  0  0  0  0  0
    1.9418   -4.4661    2.6634 C   0  0  2  0  0  0  0  0  0  0  0  0
    0.7755   -3.9907    3.3706 N   0  0  0  0  0  0  0  0  0  0  0  0
    0.2502   -4.2061    4.6641 C   0  0  0  0  0  0  0  0  0  0  0  0
    0.7813   -4.9569    5.5430 O   0  0  0  0  0  0  0  0  0  0  0  0
   -1.0347   -3.5428    5.1297 C   0  0  1  0  0  0  0  0  0  0  0  0
   -0.6966   -2.8346    6.4095 C   0  0  0  0  0  0  0  0  0  0  0  0
   -1.8527   -2.1636    7.0546 C   0  0  0  0  0  0  0  0  0  0  0  0
   -2.4455   -3.0809    7.9371 C   0  0  0  0  0  0  0  0  0  0  0  0
   -3.5681   -2.7169    8.6874 C   0  0  0  0  0  0  0  0  0  0  0  0
   -3.9971   -1.4297    8.4698 C   0  0  0  0  0  0  0  0  0  0  0  0
   -5.1213   -1.0331    9.2177 N   0  0  0  0  0  0  0  0  0  0  0  0
   -6.2163   -1.5129    8.3913 C   0  0  0  0  0  0  0  0  0  0  0  0
   -7.6603   -1.5201    8.4259 N   0  0  0  0  0  0  0  0  0  0  0  0
   -6.0795   -2.1352    7.2709 O   0  0  0  0  0  0  0  0  0  0  0  0
   -3.4567   -0.4897    7.6207 C   0  0  0  0  0  0  0  0  0  0  0  0
   -2.3478   -0.8957    6.9001 C   0  0  0  0  0  0  0  0  0  0  0  0
   -1.4334   -2.5922    4.1075 N   0  0  0  0  0  0  0  0  0  0  0  0
   -2.4342   -2.2052    3.1550 C   0  0  0  0  0  0  0  0  0  0  0  0
   -3.3645   -3.0398    3.2447 O   0  0  0  0  0  0  0  0  0  0  0  0
   -2.0813   -0.9842    2.3719 C   0  0  2  0  0  0  0  0  0  0  0  0
   -2.4939    0.3109    2.9837 C   0  0  0  0  0  0  0  0  0  0  0  0
   -3.9670    0.4532    3.1099 C   0  0  0  0  0  0  0  0  0  0  0  0
   -4.5485    1.0630    1.9728 C   0  0  0  0  0  0  0  0  0  0  0  0
   -5.8959    1.3185    1.8020 C   0  0  0  0  0  0  0  0  0  0  0  0
   -6.7216    0.9434    2.8285 C   0  0  0  0  0  0  0  0  0  0  0  0
   -8.0964    1.2392    2.6024 N   0  0  0  0  0  0  0  0  0  0  0  0
   -8.6801    0.1757    1.9059 C   0  0  0  0  0  0  0  0  0  0  0  0
   -7.9280   -0.8188    1.6104 O   0  0  0  0  0  0  0  0  0  0  0  0
  -10.0737   -0.0282    1.4192 C   0  0  2  0  0  0  0  0  0  0  0  0
  -10.0097   -0.1967   -0.0759 C   0  0  0  0  0  0  0  0  0  0  0  0
  -11.1422    0.3618   -0.8106 C   0  0  0  0  0  0  0  0  0  0  0  0
  -11.6761   -0.2650   -1.7857 O   0  0  0  0  0  0  0  0  0  0  0  0
  -11.6956    1.6324   -0.4667 N   0  0  0  0  0  0  0  0  0  0  0  0
  -11.6023    2.0039    0.9131 C   0  0  0  0  0  0  0  0  0  0  0  0
  -12.0545    3.0962    1.3315 O   0  0  0  0  0  0  0  0  0  0  0  0
  -10.9606    1.0387    1.7594 N   0  0  0  0  0  0  0  0  0  0  0  0
   -6.2048    0.3488    3.9493 C   0  0  0  0  0  0  0  0  0  0  0  0
   -4.8572    0.1069    4.0928 C   0  0  0  0  0  0  0  0  0  0  0  0
   -2.9220   -1.0312    1.1301 N   0  0  0  0  0  0  0  0  0  0  0  0
   -2.1581   -1.0450   -0.0288 C   0  0  0  0  0  0  0  0  0  0  0  0
   -0.8745   -0.9974   -0.0308 O   0  0  0  0  0  0  0  0  0  0  0  0
   -2.5422   -1.1194   -1.4464 C   0  0  2  0  0  0  0  0  0  0  0  0
   -3.2414   -2.5101   -1.6460 C   0  0  0  0  0  0  0  0  0  0  0  0
   -3.6255   -2.5869   -2.9488 O   0  0  0  0  0  0  0  0  0  0  0  0
   -1.3709   -1.0644   -2.2852 N   0  0  0  0  0  0  0  0  0  0  0  0
   -0.6375   -1.5277   -3.4117 C   0  0  0  0  0  0  0  0  0  0  0  0
   -1.3141   -2.4402   -3.9484 O   0  0  0  0  0  0  0  0  0  0  0  0
    0.6843   -0.8749   -3.6749 C   0  0  1  0  0  0  0  0  0  0  0  0
    1.1049   -0.9628   -5.0704 C   0  0  0  0  0  0  0  0  0  0  0  0
    1.2587   -2.3365   -5.5918 C   0  0  0  0  0  0  0  0  0  0  0  0
    2.3267   -3.1908   -5.4666 C   0  0  0  0  0  0  0  0  0  0  0  0
    2.3630   -4.4393   -6.0182 C   0  0  0  0  0  0  0  0  0  0  0  0
    1.3281   -4.9558   -6.7529 C   0  0  0  0  0  0  0  0  0  0  0  0
    0.2430   -4.1622   -6.9152 N   0  0  0  0  0  0  0  0  0  0  0  0
    0.2511   -2.9529   -6.3603 C   0  0  0  0  0  0  0  0  0  0  0  0
    0.7795    0.3997   -3.0437 N   0  0  0  0  0  0  0  0  0  0  0  0
    1.2567    1.1129   -1.9356 C   0  0  0  0  0  0  0  0  0  0  0  0
    1.8719    0.4690   -1.0554 O   0  0  0  0  0  0  0  0  0  0  0  0
    1.0606    2.5486   -1.7709 C   0  0  1  0  0  0  0  0  0  0  0  0
    2.2388    3.3143   -1.2616 C   0  0  0  0  0  0  0  0  0  0  0  0
    3.4548    3.2984   -2.0714 C   0  0  0  0  0  0  0  0  0  0  0  0
    4.5543    2.4844   -2.0855 C   0  0  0  0  0  0  0  0  0  0  0  0
    5.6166    2.6840   -2.9357 C   0  0  0  0  0  0  0  0  0  0  0  0
    5.6546    3.7371   -3.8570 C   0  0  0  0  0  0  0  0  0  0  0  0
    6.9562    4.0494   -4.9624 Cl  0  0  0  0  0  0  0  0  0  0  0  0
    4.5415    4.5804   -3.8596 C   0  0  0  0  0  0  0  0  0  0  0  0
    3.4764    4.3493   -2.9785 C   0  0  0  0  0  0  0  0  0  0  0  0
    0.5234    3.1517   -2.9852 N   0  0  0  0  0  0  0  0  0  0  0  0
   -0.3853    4.2296   -2.9115 C   0  0  0  0  0  0  0  0  0  0  0  0
   -0.7791    4.7224   -1.7918 O   0  0  0  0  0  0  0  0  0  0  0  0
   -1.2176    5.2095   -3.5818 C   0  0  1  0  0  0  0  0  0  0  0  0
   -2.3372    4.6585   -4.3512 C   0  0  0  0  0  0  0  0  0  0  0  0
   -1.9514    3.7492   -5.4266 C   0  0  0  0  0  0  0  0  0  0  0  0
   -1.9737    2.3732   -5.2728 C   0  0  0  0  0  0  0  0  0  0  0  0
   -1.6356    1.5613   -6.3170 C   0  0  0  0  0  0  0  0  0  0  0  0
   -1.2481    2.0150   -7.5872 C   0  0  0  0  0  0  0  0  0  0  0  0
   -0.9338    1.0945   -8.5562 C   0  0  0  0  0  0  0  0  0  0  0  0
   -0.5609    1.5845   -9.7896 C   0  0  0  0  0  0  0  0  0  0  0  0
   -0.5200    2.9614   -9.9935 C   0  0  0  0  0  0  0  0  0  0  0  0
   -0.8491    3.8493   -8.9760 C   0  0  0  0  0  0  0  0  0  0  0  0
   -1.2332    3.3832   -7.7078 C   0  0  0  0  0  0  0  0  0  0  0  0
   -1.5701    4.2234   -6.6735 C   0  0  0  0  0  0  0  0  0  0  0  0
   -1.7084    6.1239   -2.5241 N   0  0  0  0  0  0  0  0  0  0  0  0
   -1.3802    7.4913   -2.4926 C   0  0  0  0  0  0  0  0  0  0  0  0
   -1.8759    8.4201   -1.4163 C   0  0  0  0  0  0  0  0  0  0  0  0
   -0.6359    8.0335   -3.3770 O   0  0  0  0  0  0  0  0  0  0  0  0
    2.6592   -3.2854    2.1328 C   0  0  0  0  0  0  0  0  0  0  0  0
    2.1134   -2.1769    2.3711 O   0  0  0  0  0  0  0  0  0  0  0  0
    3.8878   -3.5278    1.4093 N   0  0  0  0  0  0  0  0  0  0  0  0
    4.8131   -2.5569    0.7706 C   0  0  1  0  0  0  0  0  0  0  0  0
    4.7006   -2.5611   -0.6789 C   0  0  0  0  0  0  0  0  0  0  0  0
    5.5634   -1.6836   -1.5173 C   0  0  0  0  0  0  0  0  0  0  0  0
    5.1908   -1.9480   -2.9795 C   0  0  0  0  0  0  0  0  0  0  0  0
    5.9975   -1.1374   -3.9459 C   0  0  0  0  0  0  0  0  0  0  0  0
    5.5703   -1.4590   -5.3063 N   0  0  0  0  0  0  0  0  0  0  0  0
    6.3660   -0.7009   -6.2779 C   0  0  0  0  0  0  0  0  0  0  0  0
    6.1951    0.7931   -5.9949 C   0  0  0  0  0  0  0  0  0  0  0  0
    5.7785   -0.9396   -7.6497 C   0  0  0  0  0  0  0  0  0  0  0  0
    4.7163   -1.2528    1.4780 C   0  0  0  0  0  0  0  0  0  0  0  0
    4.6794   -0.3138    0.6443 O   0  0  0  0  0  0  0  0  0  0  0  0
    4.6739   -1.0875    2.8842 N   0  0  0  0  0  0  0  0  0  0  0  0
    4.9259   -2.2386    3.7812 C   0  0  0  0  0  0  0  0  0  0  0  0
    6.0921   -1.7167    4.6389 C   0  0  0  0  0  0  0  0  0  0  0  0
    5.7628   -0.2356    4.7363 C   0  0  0  0  0  0  0  0  0  0  0  0
    4.4407   -0.1547    3.9307 C   0  0  1  0  0  0  0  0  0  0  0  0
    4.0799    1.2086    3.6318 C   0  0  0  0  0  0  0  0  0  0  0  0
    4.0425    1.7280    4.8198 O   0  0  0  0  0  0  0  0  0  0  0  0
    3.7555    2.2381    2.7473 N   0  0  0  0  0  0  0  0  0  0  0  0
    3.4424    3.5903    3.0744 C   0  0  2  0  0  0  0  0  0  0  0  0
    1.9984    3.8722    2.6956 C   0  0  0  0  0  0  0  0  0  0  0  0
    4.3352    4.5616    2.4134 C   0  0  0  0  0  0  0  0  0  0  0  0
    4.7219    5.8962    2.1639 N   0  0  0  0  0  0  0  0  0  0  0  0
    4.8108    3.4544    1.9954 O   0  0  0  0  0  0  0  0  0  0  0  0
   -0.8865   -5.3959    2.2798 H   0  0  0  0  0  0  0  0  0  0  0  0
   -1.1726   -7.1551    1.8942 H   0  0  0  0  0  0  0  0  0  0  0  0
   -0.4135   -6.7153    3.4348 H   0  0  0  0  0  0  0  0  0  0  0  0
    0.6953   -7.0545    0.7103 H   0  0  0  0  0  0  0  0  0  0  0  0
    0.9760   -8.4201    2.8684 H   0  0  0  0  0  0  0  0  0  0  0  0
    2.3981   -8.1652    1.8270 H   0  0  0  0  0  0  0  0  0  0  0  0
    2.2253   -7.2476    3.3382 H   0  0  0  0  0  0  0  0  0  0  0  0
    2.5293   -5.4841    0.8803 H   0  0  0  0  0  0  0  0  0  0  0  0
    0.9639   -4.6893    0.8100 H   0  0  0  0  0  0  0  0  0  0  0  0
    2.6481   -4.9916    3.3521 H   0  0  0  0  0  0  0  0  0  0  0  0
    0.1940   -3.3423    2.7959 H   0  0  0  0  0  0  0  0  0  0  0  0
   -1.8018   -4.3347    5.2702 H   0  0  0  0  0  0  0  0  0  0  0  0
   -0.1417   -3.4812    7.1142 H   0  0  0  0  0  0  0  0  0  0  0  0
    0.0234   -1.9939    6.1708 H   0  0  0  0  0  0  0  0  0  0  0  0
   -2.1267   -4.1202    8.1331 H   0  0  0  0  0  0  0  0  0  0  0  0
   -4.0593   -3.3839    9.3847 H   0  0  0  0  0  0  0  0  0  0  0  0
   -5.7388   -0.6097    9.9736 H   0  0  0  0  0  0  0  0  0  0  0  0
   -7.9846   -2.2794    9.0537 H   0  0  0  0  0  0  0  0  0  0  0  0
   -8.2613   -0.8566    7.8922 H   0  0  0  0  0  0  0  0  0  0  0  0
   -3.7963    0.5046    7.4612 H   0  0  0  0  0  0  0  0  0  0  0  0
   -1.7718   -0.3326    6.1868 H   0  0  0  0  0  0  0  0  0  0  0  0
   -0.5609   -1.9571    4.1423 H   0  0  0  0  0  0  0  0  0  0  0  0
   -1.0256   -0.9924    2.1579 H   0  0  0  0  0  0  0  0  0  0  0  0
   -1.9855    0.5181    3.9570 H   0  0  0  0  0  0  0  0  0  0  0  0
   -2.1141    1.1084    2.3196 H   0  0  0  0  0  0  0  0  0  0  0  0
   -3.9279    1.3760    1.1220 H   0  0  0  0  0  0  0  0  0  0  0  0
   -6.2497    1.7908    0.8942 H   0  0  0  0  0  0  0  0  0  0  0  0
   -8.7458    2.0067    2.8061 H   0  0  0  0  0  0  0  0  0  0  0  0
  -10.4018   -0.9860    1.9055 H   0  0  0  0  0  0  0  0  0  0  0  0
   -9.0579    0.2698   -0.4281 H   0  0  0  0  0  0  0  0  0  0  0  0
   -9.8964   -1.2929   -0.3230 H   0  0  0  0  0  0  0  0  0  0  0  0
  -12.1472    2.2592   -1.1737 H   0  0  0  0  0  0  0  0  0  0  0  0
  -11.1563    1.1016    2.7920 H   0  0  0  0  0  0  0  0  0  0  0  0
   -6.8686    0.0621    4.7432 H   0  0  0  0  0  0  0  0  0  0  0  0
   -4.3784   -0.3486    4.9179 H   0  0  0  0  0  0  0  0  0  0  0  0
   -3.9043   -1.0585    0.8174 H   0  0  0  0  0  0  0  0  0  0  0  0
   -3.3339   -0.4562   -1.8156 H   0  0  0  0  0  0  0  0  0  0  0  0
   -4.1436   -2.4073   -1.0133 H   0  0  0  0  0  0  0  0  0  0  0  0
   -2.6346   -3.3167   -1.2428 H   0  0  0  0  0  0  0  0  0  0  0  0
   -4.5404   -2.2372   -3.1026 H   0  0  0  0  0  0  0  0  0  0  0  0
   -0.8639   -0.2647   -1.7759 H   0  0  0  0  0  0  0  0  0  0  0  0
    1.4520   -1.5169   -3.0770 H   0  0  0  0  0  0  0  0  0  0  0  0
    0.3841   -0.4123   -5.7056 H   0  0  0  0  0  0  0  0  0  0  0  0
    2.0781   -0.4419   -5.2384 H   0  0  0  0  0  0  0  0  0  0  0  0
    3.1506   -2.8123   -4.8880 H   0  0  0  0  0  0  0  0  0  0  0  0
    3.2603   -5.0572   -5.8676 H   0  0  0  0  0  0  0  0  0  0  0  0
    1.4400   -5.9469   -7.1493 H   0  0  0  0  0  0  0  0  0  0  0  0
   -0.6856   -2.4193   -6.5879 H   0  0  0  0  0  0  0  0  0  0  0  0
    0.2628    0.9832   -3.7438 H   0  0  0  0  0  0  0  0  0  0  0  0
    0.2676    2.7065   -0.9622 H   0  0  0  0  0  0  0  0  0  0  0  0
    1.8914    4.3716   -1.0444 H   0  0  0  0  0  0  0  0  0  0  0  0
    2.4687    2.9452   -0.2081 H   0  0  0  0  0  0  0  0  0  0  0  0
    4.4866    1.6905   -1.3636 H   0  0  0  0  0  0  0  0  0  0  0  0
    6.4668    2.0324   -2.9190 H   0  0  0  0  0  0  0  0  0  0  0  0
    4.5577    5.4035   -4.5706 H   0  0  0  0  0  0  0  0  0  0  0  0
    2.6870    5.0986   -3.1193 H   0  0  0  0  0  0  0  0  0  0  0  0
    0.5780    3.0583   -4.0350 H   0  0  0  0  0  0  0  0  0  0  0  0
   -0.5757    5.8104   -4.2862 H   0  0  0  0  0  0  0  0  0  0  0  0
   -2.8812    5.5162   -4.8430 H   0  0  0  0  0  0  0  0  0  0  0  0
   -3.0627    4.0888   -3.7089 H   0  0  0  0  0  0  0  0  0  0  0  0
   -2.2724    2.0062   -4.2964 H   0  0  0  0  0  0  0  0  0  0  0  0
   -1.7108    0.5162   -6.0794 H   0  0  0  0  0  0  0  0  0  0  0  0
   -0.9960    0.0318   -8.3030 H   0  0  0  0  0  0  0  0  0  0  0  0
   -0.3058    0.8752  -10.5835 H   0  0  0  0  0  0  0  0  0  0  0  0
   -0.2239    3.3490  -10.9768 H   0  0  0  0  0  0  0  0  0  0  0  0
   -0.8095    4.9043   -9.1501 H   0  0  0  0  0  0  0  0  0  0  0  0
   -1.5123    5.2903   -6.9202 H   0  0  0  0  0  0  0  0  0  0  0  0
   -2.3278    5.8249   -1.7423 H   0  0  0  0  0  0  0  0  0  0  0  0
   -1.0592    9.1300   -1.1943 H   0  0  0  0  0  0  0  0  0  0  0  0
   -2.0940    7.8150   -0.5128 H   0  0  0  0  0  0  0  0  0  0  0  0
   -2.7984    8.9515   -1.7498 H   0  0  0  0  0  0  0  0  0  0  0  0
    4.2071   -4.5377    1.3098 H   0  0  0  0  0  0  0  0  0  0  0  0
    5.8262   -2.9319    1.1058 H   0  0  0  0  0  0  0  0  0  0  0  0
    3.6140   -2.4484   -1.0073 H   0  0  0  0  0  0  0  0  0  0  0  0
    4.9202   -3.6225   -1.0391 H   0  0  0  0  0  0  0  0  0  0  0  0
    6.6287   -1.9947   -1.3798 H   0  0  0  0  0  0  0  0  0  0  0  0
    5.5000   -0.6150   -1.3711 H   0  0  0  0  0  0  0  0  0  0  0  0
    4.1120   -1.6993   -3.0540 H   0  0  0  0  0  0  0  0  0  0  0  0
    5.3713   -3.0225   -3.1900 H   0  0  0  0  0  0  0  0  0  0  0  0
    5.7940   -0.0430   -3.8233 H   0  0  0  0  0  0  0  0  0  0  0  0
    7.0833   -1.2848   -3.8180 H   0  0  0  0  0  0  0  0  0  0  0  0
    4.5985   -1.0200   -5.4163 H   0  0  0  0  0  0  0  0  0  0  0  0
    7.4250   -1.0091   -6.3008 H   0  0  0  0  0  0  0  0  0  0  0  0
    6.3965    1.4136   -6.8822 H   0  0  0  0  0  0  0  0  0  0  0  0
    6.8393    1.0739   -5.1542 H   0  0  0  0  0  0  0  0  0  0  0  0
    5.1088    0.9551   -5.7527 H   0  0  0  0  0  0  0  0  0  0  0  0
    4.7850   -0.4299   -7.7692 H   0  0  0  0  0  0  0  0  0  0  0  0
    6.4267   -0.4588   -8.4142 H   0  0  0  0  0  0  0  0  0  0  0  0
    5.6127   -1.9940   -7.8914 H   0  0  0  0  0  0  0  0  0  0  0  0
    5.2458   -3.1285    3.2369 H   0  0  0  0  0  0  0  0  0  0  0  0
    4.0807   -2.3989    4.4656 H   0  0  0  0  0  0  0  0  0  0  0  0
    7.0557   -1.9317    4.1838 H   0  0  0  0  0  0  0  0  0  0  0  0
    6.0316   -2.1377    5.6618 H   0  0  0  0  0  0  0  0  0  0  0  0
    6.5612    0.3234    4.2266 H   0  0  0  0  0  0  0  0  0  0  0  0
    5.5715    0.1100    5.7627 H   0  0  0  0  0  0  0  0  0  0  0  0
    3.6707   -0.6525    4.6108 H   0  0  0  0  0  0  0  0  0  0  0  0
    3.7805    1.8130    1.7989 H   0  0  0  0  0  0  0  0  0  0  0  0
    3.5090    3.7558    4.1699 H   0  0  0  0  0  0  0  0  0  0  0  0
    1.9531    4.7183    1.9818 H   0  0  0  0  0  0  0  0  0  0  0  0
    1.5448    3.0059    2.1684 H   0  0  0  0  0  0  0  0  0  0  0  0
    1.3764    4.1153    3.5754 H   0  0  0  0  0  0  0  0  0  0  0  0
    3.8537    6.4593    2.3816 H   0  0  0  0  0  0  0  0  0  0  0  0
    3.8085    6.3572    2.4059 H   0  0  0  0  0  0  0  0  0  0  0  0
  1  2  1  0
  2  3  1  0
  2  4  1  0
  4  5  1  0
  5  6  1  0
  6  7  1  0
  7  8  2  0
  7  9  1  0
  9 10  1  0
 10 11  1  0
 11 12  2  0
 12 13  1  0
 13 14  2  0
 14 15  1  0
 15 16  1  0
 16 17  1  0
 16 18  2  0
 14 19  1  0
 19 20  2  0
  9 21  1  0
 21 22  1  0
 22 23  2  0
 22 24  1  0
 24 25  1  0
 25 26  1  0
 26 27  2  0
 27 28  1  0
 28 29  2  0
 29 30  1  0
 30 31  1  0
 31 32  2  0
 31 33  1  0
 33 34  1  0
 34 35  1  0
 35 36  2  0
 35 37  1  0
 37 38  1  0
 38 39  2  0
 38 40  1  0
 29 41  1  0
 41 42  2  0
 24 43  1  0
 43 44  1  0
 44 45  2  0
 44 46  1  0
 46 47  1  0
 47 48  1  0
 46 49  1  0
 49 50  1  0
 50 51  2  0
 50 52  1  0
 52 53  1  0
 53 54  1  0
 54 55  2  0
 55 56  1  0
 56 57  2  0
 57 58  1  0
 58 59  2  0
 52 60  1  0
 60 61  1  0
 61 62  2  0
 61 63  1  0
 63 64  1  0
 64 65  1  0
 65 66  2  0
 66 67  1  0
 67 68  2  0
 68 69  1  0
 68 70  1  0
 70 71  2  0
 63 72  1  0
 72 73  1  0
 73 74  2  0
 73 75  1  0
 75 76  1  0
 76 77  1  0
 77 78  2  0
 78 79  1  0
 79 80  2  0
 80 81  1  0
 81 82  2  0
 82 83  1  0
 83 84  2  0
 84 85  1  0
 85 86  2  0
 75 87  1  0
 87 88  1  0
 88 89  1  0
 88 90  2  0
  5 91  1  0
 91 92  2  0
 91 93  1  0
 93 94  1  0
 94 95  1  0
 95 96  1  0
 96 97  1  0
 97 98  1  0
 98 99  1  0
 99100  1  0
100101  1  0
100102  1  0
 94103  1  0
103104  2  0
103105  1  0
105106  1  0
106107  1  0
107108  1  0
108109  1  0
109110  1  0
110111  2  0
110112  1  0
112113  1  0
113114  1  0
113115  1  0
115116  1  0
115117  2  0
 20 11  1  0
 42 26  1  0
 59 54  1  0
 71 65  1  0
 86 77  1  0
109105  1  0
 40 33  1  0
 85 80  1  0
  1118  1  0
  1119  1  0
  1120  1  0
  2121  1  0
  3122  1  0
  3123  1  0
  3124  1  0
  4125  1  0
  4126  1  0
  5127  1  1
  6128  1  0
  9129  1  1
 10130  1  0
 10131  1  0
 12132  1  0
 13133  1  0
 15134  1  0
 17135  1  0
 17136  1  0
 19137  1  0
 20138  1  0
 21139  1  0
 24140  1  6
 25141  1  0
 25142  1  0
 27143  1  0
 28144  1  0
 30145  1  0
 33146  1  1
 34147  1  0
 34148  1  0
 37149  1  0
 40150  1  0
 41151  1  0
 42152  1  0
 43153  1  0
 46154  1  6
 47155  1  0
 47156  1  0
 48157  1  0
 49158  1  0
 52159  1  1
 53160  1  0
 53161  1  0
 55162  1  0
 56163  1  0
 57164  1  0
 59165  1  0
 60166  1  0
 63167  1  1
 64168  1  0
 64169  1  0
 66170  1  0
 67171  1  0
 70172  1  0
 71173  1  0
 72174  1  0
 75175  1  6
 76176  1  0
 76177  1  0
 78178  1  0
 79179  1  0
 81180  1  0
 82181  1  0
 83182  1  0
 84183  1  0
 86184  1  0
 87185  1  0
 89186  1  0
 89187  1  0
 89188  1  0
 93189  1  0
 94190  1  6
 95191  1  0
 95192  1  0
 96193  1  0
 96194  1  0
 97195  1  0
 97196  1  0
 98197  1  0
 98198  1  0
 99199  1  0
100200  1  0
101201  1  0
101202  1  0
101203  1  0
102204  1  0
102205  1  0
102206  1  0
106207  1  0
106208  1  0
107209  1  0
107210  1  0
108211  1  0
108212  1  0
109213  1  1
112214  1  0
113215  1  1
114216  1  0
114217  1  0
114218  1  0
116219  1  0
116220  1  0
M  END
$$$$
