
     RDKit          3D

 61 65  0  0  0  0  0  0  0  0999 V2000
   -1.9232    4.5666    0.4667 C   0  0  0  0  0  0  0  0  0  0  0  0
   -1.2807    3.8960    1.6200 C   0  0  0  0  0  0  0  0  0  0  0  0
   -1.1644    4.4758    2.6797 O   0  0  0  0  0  0  0  0  0  0  0  0
   -0.6756    2.2357    1.4582 S   0  0  0  0  0  0  0  0  0  0  0  0
   -1.0138    1.6230   -0.2060 C   0  0  2  0  0  0  0  0  0  0  0  0
   -2.4672    1.4546   -0.4598 C   0  0  0  0  0  0  0  0  0  0  0  0
   -3.0494    0.1526   -0.0806 C   0  0  0  0  0  0  0  0  0  0  0  0
   -4.3475    0.0856    0.1875 C   0  0  0  0  0  0  0  0  0  0  0  0
   -5.0012   -1.1564    0.5676 C   0  0  0  0  0  0  0  0  0  0  0  0
   -6.2298   -1.2138    0.8228 O   0  0  0  0  0  0  0  0  0  0  0  0
   -4.2163   -2.4135    0.6656 C   0  0  0  0  0  0  0  0  0  0  0  0
   -2.7789   -2.0789    1.0203 C   0  0  0  0  0  0  0  0  0  0  0  0
   -2.2326   -1.0658   -0.0004 C   0  0  1  0  0  0  0  0  0  0  0  0
   -2.2286   -1.8097   -1.3205 C   0  0  0  0  0  0  0  0  0  0  0  0
   -0.8393   -0.6949    0.4409 C   0  0  1  0  0  0  0  0  0  0  0  0
   -0.0324   -1.9304    0.6495 C   0  0  0  0  0  0  0  0  0  0  0  0
    1.4400   -1.6709    0.8368 C   0  0  0  0  0  0  0  0  0  0  0  0
    1.9157   -0.7957   -0.2649 C   0  0  1  0  0  0  0  0  0  0  0  0
    1.6750   -1.4444   -1.6000 C   0  0  0  0  0  0  0  0  0  0  0  0
    1.1950    0.5392   -0.1345 C   0  0  1  0  0  0  0  0  0  0  0  0
    1.9462    1.3704   -1.1403 C   0  0  0  0  0  0  0  0  0  0  0  0
    3.3724    0.8669   -1.0606 C   0  0  0  0  0  0  0  0  0  0  0  0
    3.3462   -0.3709   -0.1739 C   0  0  1  0  0  0  0  0  0  0  0  0
    3.7951   -0.0472    1.2233 C   0  0  0  0  0  0  0  0  0  0  0  0
    5.3175    0.0063    1.0377 C   0  0  0  0  0  0  0  0  0  0  0  0
    5.5217   -0.9077   -0.1269 C   0  0  0  0  0  0  0  0  0  0  0  0
    6.6592   -1.2283   -0.5605 O   0  0  0  0  0  0  0  0  0  0  0  0
    4.2672   -1.3170   -0.6166 O   0  0  0  0  0  0  0  0  0  0  0  0
   -0.2381    0.3196   -0.4580 C   0  0  2  0  0  0  0  0  0  0  0  0
   -1.5952    5.6439    0.4028 H   0  0  0  0  0  0  0  0  0  0  0  0
   -3.0474    4.5666    0.5666 H   0  0  0  0  0  0  0  0  0  0  0  0
   -1.6730    4.0979   -0.5023 H   0  0  0  0  0  0  0  0  0  0  0  0
   -0.6379    2.4134   -0.9187 H   0  0  0  0  0  0  0  0  0  0  0  0
   -3.0889    2.2460    0.0138 H   0  0  0  0  0  0  0  0  0  0  0  0
   -2.6555    1.5964   -1.5675 H   0  0  0  0  0  0  0  0  0  0  0  0
   -4.9175    1.0141    0.1107 H   0  0  0  0  0  0  0  0  0  0  0  0
   -4.6747   -3.0545    1.4191 H   0  0  0  0  0  0  0  0  0  0  0  0
   -4.2181   -2.9578   -0.3015 H   0  0  0  0  0  0  0  0  0  0  0  0
   -2.1953   -2.9968    0.8984 H   0  0  0  0  0  0  0  0  0  0  0  0
   -2.6773   -1.6974    2.0440 H   0  0  0  0  0  0  0  0  0  0  0  0
   -3.2925   -1.8002   -1.6992 H   0  0  0  0  0  0  0  0  0  0  0  0
   -1.6336   -1.3347   -2.0992 H   0  0  0  0  0  0  0  0  0  0  0  0
   -1.9685   -2.8704   -1.1707 H   0  0  0  0  0  0  0  0  0  0  0  0
   -0.9649   -0.2093    1.4533 H   0  0  0  0  0  0  0  0  0  0  0  0
   -0.2258   -2.7198   -0.1120 H   0  0  0  0  0  0  0  0  0  0  0  0
   -0.3865   -2.3894    1.6202 H   0  0  0  0  0  0  0  0  0  0  0  0
    1.5407   -1.0884    1.7962 H   0  0  0  0  0  0  0  0  0  0  0  0
    1.9431   -2.6427    0.9072 H   0  0  0  0  0  0  0  0  0  0  0  0
    1.8969   -0.7632   -2.4497 H   0  0  0  0  0  0  0  0  0  0  0  0
    0.6759   -1.8655   -1.7290 H   0  0  0  0  0  0  0  0  0  0  0  0
    2.3954   -2.2878   -1.6836 H   0  0  0  0  0  0  0  0  0  0  0  0
    1.3664    0.9261    0.8700 H   0  0  0  0  0  0  0  0  0  0  0  0
    1.5275    1.2905   -2.1603 H   0  0  0  0  0  0  0  0  0  0  0  0
    1.9574    2.4149   -0.7796 H   0  0  0  0  0  0  0  0  0  0  0  0
    3.6704    0.5464   -2.1005 H   0  0  0  0  0  0  0  0  0  0  0  0
    4.0802    1.6301   -0.6987 H   0  0  0  0  0  0  0  0  0  0  0  0
    3.4004    0.8989    1.6062 H   0  0  0  0  0  0  0  0  0  0  0  0
    3.5672   -0.8738    1.8963 H   0  0  0  0  0  0  0  0  0  0  0  0
    5.8249   -0.3582    1.9507 H   0  0  0  0  0  0  0  0  0  0  0  0
    5.6064    1.0515    0.7734 H   0  0  0  0  0  0  0  0  0  0  0  0
   -0.3327    0.1264   -1.5335 H   0  0  0  0  0  0  0  0  0  0  0  0
  1  2  1  0
  2  3  2  0
  2  4  1  0
  4  5  1  0
  5  6  1  0
  6  7  1  0
  7  8  2  0
  8  9  1  0
  9 10  2  0
  9 11  1  0
 11 12  1  0
 12 13  1  0
 13 14  1  6
 13 15  1  0
 15 16  1  0
 16 17  1  0
 17 18  1  0
 18 19  1  6
 18 20  1  0
 20 21  1  0
 21 22  1  0
 22 23  1  0
 23 24  1  0
 24 25  1  0
 25 26  1  0
 26 27  2  0
 26 28  1  0
 20 29  1  0
 29  5  1  0
 13  7  1  0
 29 15  1  0
 23 18  1  0
 23 28  1  6
  1 30  1  0
  1 31  1  0
  1 32  1  0
  5 33  1  6
  6 34  1  0
  6 35  1  0
  8 36  1  0
 11 37  1  0
 11 38  1  0
 12 39  1  0
 12 40  1  0
 14 41  1  0
 14 42  1  0
 14 43  1  0
 15 44  1  1
 16 45  1  0
 16 46  1  0
 17 47  1  0
 17 48  1  0
 19 49  1  0
 19 50  1  0
 19 51  1  0
 20 52  1  1
 21 53  1  0
 21 54  1  0
 22 55  1  0
 22 56  1  0
 24 57  1  0
 24 58  1  0
 25 59  1  0
 25 60  1  0
 29 61  1  6
M  END
$$$$
