
     RDKit          3D

 73 80  0  0  0  0  0  0  0  0999 V2000
   -7.4533    2.3989    1.3462 O   0  0  0  0  0  0  0  0  0  0  0  0
   -7.5276    1.2746    0.7786 C   0  0  0  0  0  0  0  0  0  0  0  0
   -8.6794    0.6283    0.5906 N   0  0  0  0  0  0  0  0  0  0  0  0
   -8.3935   -0.5214   -0.0348 C   0  0  0  0  0  0  0  0  0  0  0  0
   -9.2034   -1.5443   -0.4587 C   0  0  0  0  0  0  0  0  0  0  0  0
   -8.6146   -2.6239   -1.0861 C   0  0  0  0  0  0  0  0  0  0  0  0
   -7.2547   -2.6664   -1.2776 C   0  0  0  0  0  0  0  0  0  0  0  0
   -6.4335   -1.6425   -0.8545 C   0  0  0  0  0  0  0  0  0  0  0  0
   -7.0070   -0.5537   -0.2242 C   0  0  0  0  0  0  0  0  0  0  0  0
   -6.4750    0.5563    0.2789 N   0  0  0  0  0  0  0  0  0  0  0  0
   -5.1266    1.0071    0.3404 C   0  0  0  0  0  0  0  0  0  0  0  0
   -4.1712    0.0942    1.0626 C   0  0  0  0  0  0  0  0  0  0  0  0
   -2.9635    0.9392    1.4705 C   0  0  0  0  0  0  0  0  0  0  0  0
   -2.7416    1.9896    0.5371 N   0  0  0  0  0  0  0  0  0  0  0  0
   -1.5300    2.7076    0.7340 C   0  0  0  0  0  0  0  0  0  0  0  0
   -0.3017    1.9123    0.6364 C   0  0  0  0  0  0  0  0  0  0  0  0
    0.3027    1.7888   -0.5908 C   0  0  0  0  0  0  0  0  0  0  0  0
    1.4637    1.0557   -0.7381 C   0  0  0  0  0  0  0  0  0  0  0  0
    2.0676    0.4186    0.3267 C   0  0  0  0  0  0  0  0  0  0  0  0
    3.2976   -0.3557    0.1816 C   0  0  0  0  0  0  0  0  0  0  0  0
    3.3679   -1.6724    0.4477 N   0  0  0  0  0  0  0  0  0  0  0  0
    4.5165   -2.3596    0.3077 C   0  0  0  0  0  0  0  0  0  0  0  0
    4.6236   -3.7107    0.5730 C   0  0  0  0  0  0  0  0  0  0  0  0
    5.8073   -4.4008    0.4256 C   0  0  0  0  0  0  0  0  0  0  0  0
    6.9573   -3.7362   -0.0063 C   0  0  0  0  0  0  0  0  0  0  0  0
    8.2021   -4.4586   -0.1612 C   0  0  0  0  0  0  0  0  0  0  0  0
    8.4213   -5.7578    0.0646 N   0  0  0  0  0  0  0  0  0  0  0  0
    9.7111   -6.0340   -0.1975 N   0  0  0  0  0  0  0  0  0  0  0  0
   10.2959   -4.9236   -0.5833 N   0  0  0  0  0  0  0  0  0  0  0  0
    9.3735   -3.9524   -0.5629 N   0  0  0  0  0  0  0  0  0  0  0  0
    6.8257   -2.3910   -0.2642 C   0  0  0  0  0  0  0  0  0  0  0  0
    5.6462   -1.6898   -0.1203 C   0  0  0  0  0  0  0  0  0  0  0  0
    5.5567   -0.3697   -0.3825 N   0  0  0  0  0  0  0  0  0  0  0  0
    4.4245    0.3412   -0.2516 C   0  0  0  0  0  0  0  0  0  0  0  0
    4.3259    1.7689   -0.5360 C   0  0  0  0  0  0  0  0  0  0  0  0
    4.0005    2.6728    0.4535 C   0  0  0  0  0  0  0  0  0  0  0  0
    3.9044    4.0387    0.1799 C   0  0  0  0  0  0  0  0  0  0  0  0
    4.1317    4.5300   -1.0887 C   0  0  0  0  0  0  0  0  0  0  0  0
    4.4568    3.6194   -2.0729 C   0  0  0  0  0  0  0  0  0  0  0  0
    4.5516    2.2690   -1.8018 C   0  0  0  0  0  0  0  0  0  0  0  0
    1.4515    0.5495    1.5551 C   0  0  0  0  0  0  0  0  0  0  0  0
    0.2892    1.2806    1.7144 C   0  0  0  0  0  0  0  0  0  0  0  0
   -3.0333    1.6527   -0.8439 C   0  0  0  0  0  0  0  0  0  0  0  0
   -4.5017    1.3050   -1.0115 C   0  0  0  0  0  0  0  0  0  0  0  0
   -9.6368    0.9534    0.8769 H   0  0  0  0  0  0  0  0  0  0  0  0
  -10.2891   -1.5369   -0.3198 H   0  0  0  0  0  0  0  0  0  0  0  0
   -9.2328   -3.4309   -1.4229 H   0  0  0  0  0  0  0  0  0  0  0  0
   -6.7608   -3.5122   -1.7732 H   0  0  0  0  0  0  0  0  0  0  0  0
   -5.3688   -1.6768   -1.0052 H   0  0  0  0  0  0  0  0  0  0  0  0
   -5.0614    1.9905    0.8957 H   0  0  0  0  0  0  0  0  0  0  0  0
   -3.7680   -0.7220    0.4615 H   0  0  0  0  0  0  0  0  0  0  0  0
   -4.6887   -0.2648    1.9813 H   0  0  0  0  0  0  0  0  0  0  0  0
   -3.2267    1.3843    2.4552 H   0  0  0  0  0  0  0  0  0  0  0  0
   -2.0739    0.2956    1.6399 H   0  0  0  0  0  0  0  0  0  0  0  0
   -1.5778    3.1704    1.7576 H   0  0  0  0  0  0  0  0  0  0  0  0
   -1.4643    3.5327   -0.0076 H   0  0  0  0  0  0  0  0  0  0  0  0
   -0.1457    2.2783   -1.4539 H   0  0  0  0  0  0  0  0  0  0  0  0
    1.9586    0.9481   -1.7134 H   0  0  0  0  0  0  0  0  0  0  0  0
    3.7552   -4.2688    0.9112 H   0  0  0  0  0  0  0  0  0  0  0  0
    5.8808   -5.4523    0.6345 H   0  0  0  0  0  0  0  0  0  0  0  0
    9.5252   -2.9445   -0.8184 H   0  0  0  0  0  0  0  0  0  0  0  0
    7.7028   -1.8550   -0.6001 H   0  0  0  0  0  0  0  0  0  0  0  0
    3.8210    2.2888    1.4527 H   0  0  0  0  0  0  0  0  0  0  0  0
    3.6455    4.7428    0.9753 H   0  0  0  0  0  0  0  0  0  0  0  0
    4.0555    5.5950   -1.2960 H   0  0  0  0  0  0  0  0  0  0  0  0
    4.6305    4.0227   -3.0590 H   0  0  0  0  0  0  0  0  0  0  0  0
    4.8064    1.5622   -2.5755 H   0  0  0  0  0  0  0  0  0  0  0  0
    1.9137    0.0563    2.3972 H   0  0  0  0  0  0  0  0  0  0  0  0
   -0.1976    1.3831    2.6869 H   0  0  0  0  0  0  0  0  0  0  0  0
   -2.3691    0.8488   -1.2379 H   0  0  0  0  0  0  0  0  0  0  0  0
   -2.8328    2.5546   -1.4493 H   0  0  0  0  0  0  0  0  0  0  0  0
   -5.0005    2.1680   -1.4923 H   0  0  0  0  0  0  0  0  0  0  0  0
   -4.5619    0.4541   -1.7104 H   0  0  0  0  0  0  0  0  0  0  0  0
  1  2  2  0
  2  3  1  0
  3  4  1  0
  4  5  2  0
  5  6  1  0
  6  7  2  0
  7  8  1  0
  8  9  2  0
  9 10  1  0
 10 11  1  0
 11 12  1  0
 12 13  1  0
 13 14  1  0
 14 15  1  0
 15 16  1  0
 16 17  2  0
 17 18  1  0
 18 19  2  0
 19 20  1  0
 20 21  2  0
 21 22  1  0
 22 23  2  0
 23 24  1  0
 24 25  2  0
 25 26  1  0
 26 27  2  0
 27 28  1  0
 28 29  2  0
 29 30  1  0
 25 31  1  0
 31 32  2  0
 32 33  1  0
 33 34  2  0
 34 35  1  0
 35 36  2  0
 36 37  1  0
 37 38  2  0
 38 39  1  0
 39 40  2  0
 19 41  1  0
 41 42  2  0
 14 43  1  0
 43 44  1  0
 10  2  1  0
 44 11  1  0
  9  4  1  0
 42 16  1  0
 34 20  1  0
 40 35  1  0
 32 22  1  0
 30 26  1  0
  3 45  1  0
  5 46  1  0
  6 47  1  0
  7 48  1  0
  8 49  1  0
 11 50  1  0
 12 51  1  0
 12 52  1  0
 13 53  1  0
 13 54  1  0
 15 55  1  0
 15 56  1  0
 17 57  1  0
 18 58  1  0
 23 59  1  0
 24 60  1  0
 30 61  1  0
 31 62  1  0
 36 63  1  0
 37 64  1  0
 38 65  1  0
 39 66  1  0
 40 67  1  0
 41 68  1  0
 42 69  1  0
 43 70  1  0
 43 71  1  0
 44 72  1  0
 44 73  1  0
M  END
$$$$
