
     RDKit          3D

 45 48  0  0  0  0  0  0  0  0999 V2000
   -4.0400   -2.1457   -1.2232 C   0  0  0  0  0  0  0  0  0  0  0  0
   -3.6067   -1.2470   -0.0792 C   0  0  1  0  0  0  0  0  0  0  0  0
   -2.4161   -0.6212   -0.4539 O   0  0  0  0  0  0  0  0  0  0  0  0
   -1.2051   -0.6487    0.2000 C   0  0  0  0  0  0  0  0  0  0  0  0
   -0.9754   -1.3262    1.3727 C   0  0  0  0  0  0  0  0  0  0  0  0
    0.2620   -1.3054    1.9647 C   0  0  0  0  0  0  0  0  0  0  0  0
    1.3312   -0.6087    1.4174 C   0  0  0  0  0  0  0  0  0  0  0  0
    2.5327   -0.6022    2.0140 N   0  0  0  0  0  0  0  0  0  0  0  0
    3.5664    0.0677    1.4910 C   0  0  0  0  0  0  0  0  0  0  0  0
    3.3773    0.7566    0.3197 C   0  0  0  0  0  0  0  0  0  0  0  0
    4.4575    1.5045   -0.3317 C   0  0  0  0  0  0  0  0  0  0  0  0
    4.8589    0.9582   -1.7335 C   0  0  0  0  0  0  0  0  0  0  0  0
    5.8220    1.0612   -0.5405 C   0  0  0  0  0  0  0  0  0  0  0  0
    6.3971   -0.2210   -0.1375 C   0  0  0  0  0  0  0  0  0  0  0  0
    7.7873   -0.3212    0.1201 N   0  0  0  0  0  0  0  0  0  0  0  0
    5.7375   -1.2849    0.0059 O   0  0  0  0  0  0  0  0  0  0  0  0
    2.1537    0.7568   -0.2980 C   0  0  0  0  0  0  0  0  0  0  0  0
    1.0833    0.0656    0.2404 C   0  0  0  0  0  0  0  0  0  0  0  0
   -0.1524    0.0572   -0.3699 C   0  0  0  0  0  0  0  0  0  0  0  0
   -4.6332   -0.1816    0.1671 C   0  0  0  0  0  0  0  0  0  0  0  0
   -5.6674   -0.4013    1.0505 C   0  0  0  0  0  0  0  0  0  0  0  0
   -5.8296   -1.9270    1.9225 Cl  0  0  0  0  0  0  0  0  0  0  0  0
   -6.6205    0.5820    1.2819 C   0  0  0  0  0  0  0  0  0  0  0  0
   -6.5563    1.7985    0.6360 C   0  0  0  0  0  0  0  0  0  0  0  0
   -5.5363    2.0248   -0.2399 C   0  0  0  0  0  0  0  0  0  0  0  0
   -5.4246    3.2166   -0.9096 F   0  0  0  0  0  0  0  0  0  0  0  0
   -4.5824    1.0384   -0.4704 C   0  0  0  0  0  0  0  0  0  0  0  0
   -3.2939    1.3693   -1.5989 Cl  0  0  0  0  0  0  0  0  0  0  0  0
   -3.5310   -1.8567   -2.1419 H   0  0  0  0  0  0  0  0  0  0  0  0
   -3.6939   -3.1825   -0.9626 H   0  0  0  0  0  0  0  0  0  0  0  0
   -5.1460   -2.2154   -1.3078 H   0  0  0  0  0  0  0  0  0  0  0  0
   -3.5036   -1.8086    0.8468 H   0  0  0  0  0  0  0  0  0  0  0  0
   -1.7758   -1.8870    1.8437 H   0  0  0  0  0  0  0  0  0  0  0  0
    0.4630   -1.8431    2.9047 H   0  0  0  0  0  0  0  0  0  0  0  0
    4.5496    0.0711    2.0037 H   0  0  0  0  0  0  0  0  0  0  0  0
    4.2235    2.6081   -0.4019 H   0  0  0  0  0  0  0  0  0  0  0  0
    4.9810    1.6809   -2.5494 H   0  0  0  0  0  0  0  0  0  0  0  0
    4.4628   -0.0234   -2.0068 H   0  0  0  0  0  0  0  0  0  0  0  0
    6.5847    1.8900   -0.6619 H   0  0  0  0  0  0  0  0  0  0  0  0
    8.1897   -0.1059    1.0498 H   0  0  0  0  0  0  0  0  0  0  0  0
    8.4148   -0.6188   -0.6471 H   0  0  0  0  0  0  0  0  0  0  0  0
    1.9539    1.2849   -1.2234 H   0  0  0  0  0  0  0  0  0  0  0  0
   -0.2692    0.6089   -1.2898 H   0  0  0  0  0  0  0  0  0  0  0  0
   -7.4399    0.3966    1.9874 H   0  0  0  0  0  0  0  0  0  0  0  0
   -7.2907    2.5855    0.7999 H   0  0  0  0  0  0  0  0  0  0  0  0
  1  2  1  0
  2  3  1  0
  3  4  1  0
  4  5  2  0
  5  6  1  0
  6  7  2  0
  7  8  1  0
  8  9  2  0
  9 10  1  0
 10 11  1  0
 11 12  1  0
 12 13  1  0
 13 14  1  0
 14 15  1  0
 14 16  2  0
 10 17  2  0
 17 18  1  0
 18 19  2  0
  2 20  1  0
 20 21  2  0
 21 22  1  0
 21 23  1  0
 23 24  2  0
 24 25  1  0
 25 26  1  0
 25 27  2  0
 27 28  1  0
 19  4  1  0
 27 20  1  0
 18  7  1  0
 13 11  1  0
  1 29  1  0
  1 30  1  0
  1 31  1  0
  2 32  1  1
  5 33  1  0
  6 34  1  0
  9 35  1  0
 11 36  1  0
 12 37  1  0
 12 38  1  0
 13 39  1  0
 15 40  1  0
 15 41  1  0
 17 42  1  0
 19 43  1  0
 23 44  1  0
 24 45  1  0
M  END
$$$$
