
     RDKit          3D

 31 33  0  0  0  0  0  0  0  0999 V2000
   -1.7965   -1.7687   -2.3240 O   0  0  0  0  0  0  0  0  0  0  0  0
   -1.3626   -1.0652   -1.3791 C   0  0  0  0  0  0  0  0  0  0  0  0
    0.0271   -0.8693   -1.2818 C   0  0  0  0  0  0  0  0  0  0  0  0
    0.8279   -1.4854   -2.2636 O   0  0  0  0  0  0  0  0  0  0  0  0
    0.5032   -0.1126   -0.2668 C   0  0  0  0  0  0  0  0  0  0  0  0
    1.9007    0.1556   -0.0676 C   0  0  0  0  0  0  0  0  0  0  0  0
    2.2889    0.9481    1.0099 C   0  0  0  0  0  0  0  0  0  0  0  0
    3.5827    1.2753    1.3067 C   0  0  0  0  0  0  0  0  0  0  0  0
    4.5984    0.8033    0.5018 C   0  0  0  0  0  0  0  0  0  0  0  0
    5.9323    1.1226    0.7822 O   0  0  0  0  0  0  0  0  0  0  0  0
    4.2696    0.0161   -0.5759 C   0  0  0  0  0  0  0  0  0  0  0  0
    2.9144   -0.3017   -0.8512 C   0  0  0  0  0  0  0  0  0  0  0  0
   -0.3842    0.4063    0.5879 O   0  0  0  0  0  0  0  0  0  0  0  0
   -1.6560    0.2509    0.5329 C   0  0  0  0  0  0  0  0  0  0  0  0
   -2.5029    0.8232    1.4585 C   0  0  0  0  0  0  0  0  0  0  0  0
   -3.8621    0.6654    1.4114 C   0  0  0  0  0  0  0  0  0  0  0  0
   -4.7023    1.2608    2.3689 O   0  0  0  0  0  0  0  0  0  0  0  0
   -4.3949   -0.1037    0.3861 C   0  0  0  0  0  0  0  0  0  0  0  0
   -3.5828   -0.6885   -0.5527 C   0  0  0  0  0  0  0  0  0  0  0  0
   -4.1061   -1.4596   -1.5820 O   0  0  0  0  0  0  0  0  0  0  0  0
   -2.2183   -0.5066   -0.4720 C   0  0  0  0  0  0  0  0  0  0  0  0
    0.9342   -2.4906   -2.1661 H   0  0  0  0  0  0  0  0  0  0  0  0
    1.5094    1.3293    1.6546 H   0  0  0  0  0  0  0  0  0  0  0  0
    3.8614    1.8904    2.1460 H   0  0  0  0  0  0  0  0  0  0  0  0
    6.5172    0.4450    1.2680 H   0  0  0  0  0  0  0  0  0  0  0  0
    5.0401   -0.3761   -1.2350 H   0  0  0  0  0  0  0  0  0  0  0  0
    2.7163   -0.9163   -1.7004 H   0  0  0  0  0  0  0  0  0  0  0  0
   -2.0916    1.4352    2.2760 H   0  0  0  0  0  0  0  0  0  0  0  0
   -5.2941    2.0091    2.0017 H   0  0  0  0  0  0  0  0  0  0  0  0
   -5.4656   -0.2138    0.3694 H   0  0  0  0  0  0  0  0  0  0  0  0
   -4.0035   -2.4786   -1.6136 H   0  0  0  0  0  0  0  0  0  0  0  0
  1  2  2  0
  2  3  1  0
  3  4  1  0
  3  5  2  0
  5  6  1  0
  6  7  2  0
  7  8  1  0
  8  9  2  0
  9 10  1  0
  9 11  1  0
 11 12  2  0
  5 13  1  0
 13 14  1  0
 14 15  2  0
 15 16  1  0
 16 17  1  0
 16 18  2  0
 18 19  1  0
 19 20  1  0
 19 21  2  0
 21  2  1  0
 12  6  1  0
 21 14  1  0
  4 22  1  0
  7 23  1  0
  8 24  1  0
 10 25  1  0
 11 26  1  0
 12 27  1  0
 15 28  1  0
 17 29  1  0
 18 30  1  0
 20 31  1  0
M  END
$$$$
