
     RDKit          3D

 63 65  0  0  0  0  0  0  0  0999 V2000
   -2.2217   -1.3889    0.7930 C   0  0  0  0  0  0  0  0  0  0  0  0
   -1.8964    0.0777    0.8015 C   0  0  0  0  0  0  0  0  0  0  0  0
   -1.1087    0.3282    2.0856 C   0  0  0  0  0  0  0  0  0  0  0  0
   -3.1719    0.8781    0.9814 C   0  0  0  0  0  0  0  0  0  0  0  0
   -4.2258    0.8183   -0.0315 C   0  0  0  0  0  0  0  0  0  0  0  0
   -4.8564   -0.4902   -0.3161 C   0  0  0  0  0  0  0  0  0  0  0  0
   -6.3099   -0.1254   -0.6055 C   0  0  0  0  0  0  0  0  0  0  0  0
   -6.5564    1.1387   -0.1240 C   0  0  0  0  0  0  0  0  0  0  0  0
   -5.3620    1.7310    0.5085 C   0  0  0  0  0  0  0  0  0  0  0  0
   -7.8316    1.6826   -0.2802 C   0  0  0  0  0  0  0  0  0  0  0  0
   -8.8525    0.9811   -0.9070 C   0  0  0  0  0  0  0  0  0  0  0  0
   -8.6038   -0.3024   -1.3966 C   0  0  0  0  0  0  0  0  0  0  0  0
   -7.3332   -0.8070   -1.2247 C   0  0  0  0  0  0  0  0  0  0  0  0
   -1.2878    0.5379   -0.3490 N   0  0  0  0  0  0  0  0  0  0  0  0
   -0.0422    0.7617   -0.7712 C   0  0  0  0  0  0  0  0  0  0  0  0
    1.0118   -0.2843   -1.0493 C   0  0  1  0  0  0  0  0  0  0  0  0
    2.1417    0.4278   -1.5766 O   0  0  0  0  0  0  0  0  0  0  0  0
    1.5608   -0.8915    0.2207 C   0  0  0  0  0  0  0  0  0  0  0  0
    2.6157   -1.7106    0.1748 O   0  0  0  0  0  0  0  0  0  0  0  0
    3.8951   -1.6038   -0.1442 C   0  0  0  0  0  0  0  0  0  0  0  0
    4.8774   -0.7412   -0.5543 C   0  0  0  0  0  0  0  0  0  0  0  0
    6.1922   -0.9896   -0.8029 C   0  0  0  0  0  0  0  0  0  0  0  0
    7.0211    0.1649   -1.2359 C   0  0  0  0  0  0  0  0  0  0  0  0
    7.5743    0.8060    0.0209 C   0  0  0  0  0  0  0  0  0  0  0  0
    8.4228    1.9882   -0.3179 C   0  0  0  0  0  0  0  0  0  0  0  0
    8.9217    2.5737    0.8497 O   0  0  0  0  0  0  0  0  0  0  0  0
    8.7469    2.5178   -1.4107 O   0  0  0  0  0  0  0  0  0  0  0  0
    6.6310   -2.2842   -0.6255 C   0  0  0  0  0  0  0  0  0  0  0  0
    5.7283   -3.2678   -0.2066 C   0  0  0  0  0  0  0  0  0  0  0  0
    6.3417   -4.4681   -0.0889 F   0  0  0  0  0  0  0  0  0  0  0  0
    4.3863   -2.9185    0.0263 C   0  0  0  0  0  0  0  0  0  0  0  0
    3.7672   -4.0821    0.4199 F   0  0  0  0  0  0  0  0  0  0  0  0
   -2.6554   -1.7689   -0.1300 H   0  0  0  0  0  0  0  0  0  0  0  0
   -1.3661   -2.0243    1.1213 H   0  0  0  0  0  0  0  0  0  0  0  0
   -2.9981   -1.5158    1.6132 H   0  0  0  0  0  0  0  0  0  0  0  0
   -0.6683   -0.6330    2.4853 H   0  0  0  0  0  0  0  0  0  0  0  0
   -1.8433    0.6007    2.8664 H   0  0  0  0  0  0  0  0  0  0  0  0
   -0.3902    1.1479    2.0118 H   0  0  0  0  0  0  0  0  0  0  0  0
   -3.5542    0.5859    2.0180 H   0  0  0  0  0  0  0  0  0  0  0  0
   -2.7956    1.9471    1.1187 H   0  0  0  0  0  0  0  0  0  0  0  0
   -3.9191    1.3429   -0.9890 H   0  0  0  0  0  0  0  0  0  0  0  0
   -4.9223   -1.2156    0.4875 H   0  0  0  0  0  0  0  0  0  0  0  0
   -4.4585   -0.9470   -1.2627 H   0  0  0  0  0  0  0  0  0  0  0  0
   -5.1873    2.7798    0.1902 H   0  0  0  0  0  0  0  0  0  0  0  0
   -5.4274    1.6655    1.6004 H   0  0  0  0  0  0  0  0  0  0  0  0
   -8.0531    2.6772    0.0906 H   0  0  0  0  0  0  0  0  0  0  0  0
   -9.8213    1.4471   -1.0019 H   0  0  0  0  0  0  0  0  0  0  0  0
   -9.3795   -0.8746   -1.8902 H   0  0  0  0  0  0  0  0  0  0  0  0
   -7.1697   -1.8018   -1.6139 H   0  0  0  0  0  0  0  0  0  0  0  0
   -2.0073    0.6599   -1.1369 H   0  0  0  0  0  0  0  0  0  0  0  0
    0.5442    1.5663   -0.1891 H   0  0  0  0  0  0  0  0  0  0  0  0
   -0.0990    1.3188   -1.7893 H   0  0  0  0  0  0  0  0  0  0  0  0
    0.7309   -0.9993   -1.8198 H   0  0  0  0  0  0  0  0  0  0  0  0
    2.2020    1.2769   -1.0510 H   0  0  0  0  0  0  0  0  0  0  0  0
    1.7117    0.0158    0.9079 H   0  0  0  0  0  0  0  0  0  0  0  0
    0.7003   -1.4306    0.7147 H   0  0  0  0  0  0  0  0  0  0  0  0
    4.4970    0.2539   -0.6524 H   0  0  0  0  0  0  0  0  0  0  0  0
    7.8099   -0.2448   -1.8882 H   0  0  0  0  0  0  0  0  0  0  0  0
    6.3943    0.9071   -1.7516 H   0  0  0  0  0  0  0  0  0  0  0  0
    8.1401    0.0475    0.6051 H   0  0  0  0  0  0  0  0  0  0  0  0
    6.7165    1.1239    0.6448 H   0  0  0  0  0  0  0  0  0  0  0  0
    9.4191    3.4764    0.7666 H   0  0  0  0  0  0  0  0  0  0  0  0
    7.6737   -2.4432   -0.8309 H   0  0  0  0  0  0  0  0  0  0  0  0
  1  2  1  0
  2  3  1  0
  2  4  1  0
  4  5  1  0
  5  6  1  0
  6  7  1  0
  7  8  2  0
  8  9  1  0
  8 10  1  0
 10 11  2  0
 11 12  1  0
 12 13  2  0
  2 14  1  0
 14 15  1  0
 15 16  1  0
 16 17  1  0
 16 18  1  0
 18 19  1  0
 19 20  1  0
 20 21  2  0
 21 22  1  0
 22 23  1  0
 23 24  1  0
 24 25  1  0
 25 26  1  0
 25 27  2  0
 22 28  2  0
 28 29  1  0
 29 30  1  0
 29 31  2  0
 31 32  1  0
  9  5  1  0
 31 20  1  0
 13  7  1  0
  1 33  1  0
  1 34  1  0
  1 35  1  0
  3 36  1  0
  3 37  1  0
  3 38  1  0
  4 39  1  0
  4 40  1  0
  5 41  1  0
  6 42  1  0
  6 43  1  0
  9 44  1  0
  9 45  1  0
 10 46  1  0
 11 47  1  0
 12 48  1  0
 13 49  1  0
 14 50  1  0
 15 51  1  0
 15 52  1  0
 16 53  1  6
 17 54  1  0
 18 55  1  0
 18 56  1  0
 21 57  1  0
 23 58  1  0
 23 59  1  0
 24 60  1  0
 24 61  1  0
 26 62  1  0
 28 63  1  0
M  END
$$$$
