
     RDKit          3D

 48 51  0  0  0  0  0  0  0  0999 V2000
    3.7430    1.8136    0.9822 O   0  0  0  0  0  0  0  0  0  0  0  0
    4.1483    0.7223    0.5758 C   0  0  0  0  0  0  0  0  0  0  0  0
    3.3247   -0.3576    0.3996 O   0  0  0  0  0  0  0  0  0  0  0  0
    1.9465   -0.2766    0.6889 C   0  0  0  0  0  0  0  0  0  0  0  0
    1.2879   -1.5506    0.2226 C   0  0  0  0  0  0  0  0  0  0  0  0
    0.7632   -2.5329   -0.1354 C   0  0  0  0  0  0  0  0  0  0  0  0
    0.0757   -3.7923   -0.5757 C   0  0  0  0  0  0  0  0  0  0  0  0
   -1.5274   -3.8096    0.2470 S   0  0  0  0  0  0  0  0  0  0  0  0
   -2.4522   -2.3331   -0.1251 C   0  0  0  0  0  0  0  0  0  0  0  0
   -2.0307   -1.2492   -0.8204 N   0  0  0  0  0  0  0  0  0  0  0  0
   -3.0407   -0.4256   -0.8373 N   0  0  0  0  0  0  0  0  0  0  0  0
   -4.0790   -0.8960   -0.2093 C   0  0  0  0  0  0  0  0  0  0  0  0
   -5.4245   -0.4114    0.0629 C   0  0  0  0  0  0  0  0  0  0  0  0
   -6.3797   -1.2710    0.5920 C   0  0  0  0  0  0  0  0  0  0  0  0
   -7.6450   -0.8164    0.8541 C   0  0  0  0  0  0  0  0  0  0  0  0
   -8.0278    0.4792    0.6151 C   0  0  0  0  0  0  0  0  0  0  0  0
   -7.0964    1.3614    0.0888 C   0  0  0  0  0  0  0  0  0  0  0  0
   -7.4811    2.6528   -0.1289 C   0  0  0  0  0  0  0  0  0  0  0  0
   -6.5895    3.5528   -0.6258 C   0  0  0  0  0  0  0  0  0  0  0  0
   -5.2985    3.1321   -0.9025 C   0  0  0  0  0  0  0  0  0  0  0  0
   -4.9298    1.8141   -0.6746 C   0  0  0  0  0  0  0  0  0  0  0  0
   -5.8047    0.8795   -0.1741 C   0  0  0  0  0  0  0  0  0  0  0  0
   -3.6803   -2.1102    0.2340 O   0  0  0  0  0  0  0  0  0  0  0  0
    5.5807    0.5654    0.2665 C   0  0  0  0  0  0  0  0  0  0  0  0
    6.0652   -0.6885   -0.1444 C   0  0  0  0  0  0  0  0  0  0  0  0
    7.3943   -0.8450   -0.4539 C   0  0  0  0  0  0  0  0  0  0  0  0
    8.3098    0.1967   -0.3812 C   0  0  0  0  0  0  0  0  0  0  0  0
    9.7456   -0.0274   -0.7363 C   0  0  0  0  0  0  0  0  0  0  0  0
    9.9324   -1.3826   -0.8414 F   0  0  0  0  0  0  0  0  0  0  0  0
   10.1011    0.6673   -1.8868 F   0  0  0  0  0  0  0  0  0  0  0  0
   10.5546    0.4322    0.2862 F   0  0  0  0  0  0  0  0  0  0  0  0
    7.8217    1.4258    0.0251 C   0  0  0  0  0  0  0  0  0  0  0  0
    6.4766    1.5863    0.3387 C   0  0  0  0  0  0  0  0  0  0  0  0
    1.7707   -0.1332    1.7710 H   0  0  0  0  0  0  0  0  0  0  0  0
    1.5032    0.5346    0.1038 H   0  0  0  0  0  0  0  0  0  0  0  0
   -0.0714   -3.7789   -1.6593 H   0  0  0  0  0  0  0  0  0  0  0  0
    0.6844   -4.6608   -0.2634 H   0  0  0  0  0  0  0  0  0  0  0  0
   -6.1126   -2.3009    0.7929 H   0  0  0  0  0  0  0  0  0  0  0  0
   -8.4019   -1.4984    1.2697 H   0  0  0  0  0  0  0  0  0  0  0  0
   -9.0295    0.8218    0.8196 H   0  0  0  0  0  0  0  0  0  0  0  0
   -8.4852    3.0082    0.0788 H   0  0  0  0  0  0  0  0  0  0  0  0
   -6.8755    4.5931   -0.8110 H   0  0  0  0  0  0  0  0  0  0  0  0
   -4.5811    3.8498   -1.2918 H   0  0  0  0  0  0  0  0  0  0  0  0
   -3.9166    1.5453   -0.9047 H   0  0  0  0  0  0  0  0  0  0  0  0
    5.3466   -1.5058   -0.1976 H   0  0  0  0  0  0  0  0  0  0  0  0
    7.7779   -1.8199   -0.7731 H   0  0  0  0  0  0  0  0  0  0  0  0
    8.5001    2.2744    0.1025 H   0  0  0  0  0  0  0  0  0  0  0  0
    6.1069    2.5652    0.6531 H   0  0  0  0  0  0  0  0  0  0  0  0
  1  2  2  0
  2  3  1  0
  3  4  1  0
  4  5  1  0
  5  6  3  0
  6  7  1  0
  7  8  1  0
  8  9  1  0
  9 10  2  0
 10 11  1  0
 11 12  2  0
 12 13  1  0
 13 14  2  0
 14 15  1  0
 15 16  2  0
 16 17  1  0
 17 18  2  0
 18 19  1  0
 19 20  2  0
 20 21  1  0
 21 22  2  0
 12 23  1  0
  2 24  1  0
 24 25  2  0
 25 26  1  0
 26 27  2  0
 27 28  1  0
 28 29  1  0
 28 30  1  0
 28 31  1  0
 27 32  1  0
 32 33  2  0
 23  9  1  0
 33 24  1  0
 22 13  1  0
 22 17  1  0
  4 34  1  0
  4 35  1  0
  7 36  1  0
  7 37  1  0
 14 38  1  0
 15 39  1  0
 16 40  1  0
 18 41  1  0
 19 42  1  0
 20 43  1  0
 21 44  1  0
 25 45  1  0
 26 46  1  0
 32 47  1  0
 33 48  1  0
M  END
$$$$
