
     RDKit          3D

 45 47  0  0  0  0  0  0  0  0999 V2000
   -6.2853   -1.3973    0.4660 C   0  0  0  0  0  0  0  0  0  0  0  0
   -4.9229   -1.7779    0.3865 O   0  0  0  0  0  0  0  0  0  0  0  0
   -3.9954   -0.7663    0.2086 C   0  0  0  0  0  0  0  0  0  0  0  0
   -2.6586   -1.1242    0.1316 C   0  0  0  0  0  0  0  0  0  0  0  0
   -1.6284   -0.1964   -0.0461 C   0  0  0  0  0  0  0  0  0  0  0  0
   -2.0100    1.1198   -0.1434 C   0  0  0  0  0  0  0  0  0  0  0  0
   -3.3142    1.5685   -0.0785 C   0  0  0  0  0  0  0  0  0  0  0  0
   -3.6828    2.9023   -0.1795 O   0  0  0  0  0  0  0  0  0  0  0  0
   -5.0712    3.2298   -0.0958 C   0  0  0  0  0  0  0  0  0  0  0  0
   -4.2531    0.5697    0.0984 C   0  0  0  0  0  0  0  0  0  0  0  0
   -0.2571   -0.6500   -0.0765 C   0  0  0  0  0  0  0  0  0  0  0  0
    0.7759    0.2067   -0.1560 N   0  0  0  0  0  0  0  0  0  0  0  0
    2.0627   -0.2307   -0.1621 C   0  0  0  0  0  0  0  0  0  0  0  0
    2.2916   -1.5851   -0.0861 C   0  0  0  0  0  0  0  0  0  0  0  0
    3.6589   -2.1486   -0.1052 C   0  0  0  0  0  0  0  0  0  0  0  0
    4.3147   -2.0639    1.1491 N   0  0  0  0  0  0  0  0  0  0  0  0
    1.2333   -2.4929   -0.0032 C   0  0  0  0  0  0  0  0  0  0  0  0
    1.5018   -3.8757    0.0741 N   0  0  0  0  0  0  0  0  0  0  0  0
   -0.0057   -1.9833   -0.0018 N   0  0  0  0  0  0  0  0  0  0  0  0
    3.0682    0.8057   -0.2810 C   0  0  0  0  0  0  0  0  0  0  0  0
    3.9331    1.0569    0.7992 C   0  0  0  0  0  0  0  0  0  0  0  0
    4.8139    2.1018    0.5894 C   0  0  0  0  0  0  0  0  0  0  0  0
    4.9552    2.9103   -0.5045 C   0  0  0  0  0  0  0  0  0  0  0  0
    6.1564    4.1805   -0.5255 Cl  0  0  0  0  0  0  0  0  0  0  0  0
    4.0776    2.5975   -1.5009 C   0  0  0  0  0  0  0  0  0  0  0  0
    3.1485    1.5919   -1.4425 C   0  0  0  0  0  0  0  0  0  0  0  0
    2.0718    1.2638   -2.7797 Cl  0  0  0  0  0  0  0  0  0  0  0  0
   -6.8904   -2.2354    0.9079 H   0  0  0  0  0  0  0  0  0  0  0  0
   -6.3384   -0.5330    1.1879 H   0  0  0  0  0  0  0  0  0  0  0  0
   -6.7183   -1.1219   -0.5129 H   0  0  0  0  0  0  0  0  0  0  0  0
   -2.3910   -2.1644    0.2101 H   0  0  0  0  0  0  0  0  0  0  0  0
   -1.2422    1.8731   -0.2832 H   0  0  0  0  0  0  0  0  0  0  0  0
   -5.6453    2.6383   -0.8281 H   0  0  0  0  0  0  0  0  0  0  0  0
   -5.2510    4.2962   -0.2405 H   0  0  0  0  0  0  0  0  0  0  0  0
   -5.4432    2.8950    0.9142 H   0  0  0  0  0  0  0  0  0  0  0  0
   -5.2952    0.8784    0.1537 H   0  0  0  0  0  0  0  0  0  0  0  0
    3.6120   -3.2338   -0.3911 H   0  0  0  0  0  0  0  0  0  0  0  0
    4.2246   -1.6812   -0.9429 H   0  0  0  0  0  0  0  0  0  0  0  0
    4.2513   -2.9354    1.7232 H   0  0  0  0  0  0  0  0  0  0  0  0
    5.2976   -1.7765    1.0876 H   0  0  0  0  0  0  0  0  0  0  0  0
    2.1557   -4.3139    0.7575 H   0  0  0  0  0  0  0  0  0  0  0  0
    2.1265   -4.4353    0.7036 H   0  0  0  0  0  0  0  0  0  0  0  0
    3.9343    0.5224    1.7327 H   0  0  0  0  0  0  0  0  0  0  0  0
    5.4908    2.2989    1.4388 H   0  0  0  0  0  0  0  0  0  0  0  0
    4.1434    3.2156   -2.4121 H   0  0  0  0  0  0  0  0  0  0  0  0
  1  2  1  0
  2  3  1  0
  3  4  2  0
  4  5  1  0
  5  6  2  0
  6  7  1  0
  7  8  1  0
  8  9  1  0
  7 10  2  0
  5 11  1  0
 11 12  2  0
 12 13  1  0
 13 14  2  0
 14 15  1  0
 15 16  1  0
 14 17  1  0
 17 18  1  0
 17 19  2  0
 13 20  1  0
 20 21  2  0
 21 22  1  0
 22 23  2  0
 23 24  1  0
 23 25  1  0
 25 26  2  0
 26 27  1  0
 10  3  1  0
 19 11  1  0
 26 20  1  0
  1 28  1  0
  1 29  1  0
  1 30  1  0
  4 31  1  0
  6 32  1  0
  9 33  1  0
  9 34  1  0
  9 35  1  0
 10 36  1  0
 15 37  1  0
 15 38  1  0
 16 39  1  0
 16 40  1  0
 18 41  1  0
 18 42  1  0
 21 43  1  0
 22 44  1  0
 25 45  1  0
M  END
$$$$
