
     RDKit          3D

 22 24  0  0  0  0  0  0  0  0999 V2000
   -4.2178    0.5355   -0.8705 N   0  0  0  0  0  0  0  0  0  0  0  0
   -4.2434   -0.0609    0.3268 C   0  0  0  0  0  0  0  0  0  0  0  0
   -2.9748   -0.3313    0.7994 C   0  0  0  0  0  0  0  0  0  0  0  0
   -2.1481    0.1551   -0.2211 C   0  0  0  0  0  0  0  0  0  0  0  0
   -2.9391    0.6585   -1.1873 N   0  0  0  0  0  0  0  0  0  0  0  0
   -0.6869    0.0985   -0.1878 C   0  0  0  0  0  0  0  0  0  0  0  0
    0.1128    0.5646   -1.1656 N   0  0  0  0  0  0  0  0  0  0  0  0
    1.4139    0.3682   -0.8430 C   0  0  0  0  0  0  0  0  0  0  0  0
    2.6510    0.6226   -1.4204 C   0  0  0  0  0  0  0  0  0  0  0  0
    3.8334    0.2716   -0.7813 C   0  0  0  0  0  0  0  0  0  0  0  0
    3.7710   -0.3505    0.4691 C   0  0  0  0  0  0  0  0  0  0  0  0
    2.5438   -0.6086    1.0535 C   0  0  0  0  0  0  0  0  0  0  0  0
    1.3799   -0.2517    0.4017 C   0  0  0  0  0  0  0  0  0  0  0  0
    0.0847   -0.4105    0.7906 N   0  0  0  0  0  0  0  0  0  0  0  0
   -5.0982    0.7995   -1.3517 H   0  0  0  0  0  0  0  0  0  0  0  0
   -5.1224   -0.3344    0.9233 H   0  0  0  0  0  0  0  0  0  0  0  0
   -2.6479   -0.7981    1.7174 H   0  0  0  0  0  0  0  0  0  0  0  0
    2.5814    1.1104   -2.3945 H   0  0  0  0  0  0  0  0  0  0  0  0
    4.7455    0.5083   -1.3055 H   0  0  0  0  0  0  0  0  0  0  0  0
    4.6988   -0.6112    0.9412 H   0  0  0  0  0  0  0  0  0  0  0  0
    2.5638   -1.0966    2.0308 H   0  0  0  0  0  0  0  0  0  0  0  0
   -0.3017   -0.8390    1.6707 H   0  0  0  0  0  0  0  0  0  0  0  0
  1  2  1  0
  2  3  2  0
  3  4  1  0
  4  5  2  0
  4  6  1  0
  6  7  2  0
  7  8  1  0
  8  9  2  0
  9 10  1  0
 10 11  2  0
 11 12  1  0
 12 13  2  0
 13 14  1  0
  5  1  1  0
 14  6  1  0
 13  8  1  0
  1 15  1  0
  2 16  1  0
  3 17  1  0
  9 18  1  0
 10 19  1  0
 11 20  1  0
 12 21  1  0
 14 22  1  0
M  END
$$$$
