
     RDKit          3D

 55 57  0  0  0  0  0  0  0  0999 V2000
   -0.0061   -2.3578    0.2420 C   0  0  2  0  0  0  0  0  0  0  0  0
    0.8823   -3.3973   -0.3555 C   0  0  0  0  0  0  0  0  0  0  0  0
    0.8226   -3.2304   -1.8406 C   0  0  0  0  0  0  0  0  0  0  0  0
    0.2107   -1.8488   -1.9985 C   0  0  0  0  0  0  0  0  0  0  0  0
   -0.6461   -1.6640   -0.8581 N   0  0  0  0  0  0  0  0  0  0  0  0
   -1.8401   -0.9098   -0.9952 C   0  0  0  0  0  0  0  0  0  0  0  0
   -1.7111   -0.6280   -2.2168 O   0  0  0  0  0  0  0  0  0  0  0  0
   -2.8769   -0.5872    0.0186 C   0  0  0  0  0  0  0  0  0  0  0  0
   -3.8273    0.1954   -0.6242 O   0  0  0  0  0  0  0  0  0  0  0  0
   -4.8129    0.5098    0.2949 C   0  0  0  0  0  0  0  0  0  0  0  0
   -6.1990    0.1611   -0.1990 C   0  0  0  0  0  0  0  0  0  0  0  0
   -7.1190    1.1142    0.5360 C   0  0  0  0  0  0  0  0  0  0  0  0
   -6.2416    2.0932    1.2537 C   0  0  0  0  0  0  0  0  0  0  0  0
   -4.9555    2.0323    0.4330 C   0  0  0  0  0  0  0  0  0  0  0  0
    0.7504   -1.3262    1.0226 C   0  0  0  0  0  0  0  0  0  0  0  0
    1.3903   -1.6960    2.0445 O   0  0  0  0  0  0  0  0  0  0  0  0
    0.7744    0.0345    0.6612 N   0  0  0  0  0  0  0  0  0  0  0  0
    1.4420    1.1301    1.2935 C   0  0  0  0  0  0  0  0  0  0  0  0
    2.9017    1.0518    0.9547 C   0  0  0  0  0  0  0  0  0  0  0  0
    3.2929    1.6866   -0.2110 C   0  0  0  0  0  0  0  0  0  0  0  0
    4.5899    1.7229   -0.6766 C   0  0  0  0  0  0  0  0  0  0  0  0
    5.5275    1.0734    0.0972 C   0  0  0  0  0  0  0  0  0  0  0  0
    5.1890    0.4254    1.2679 C   0  0  0  0  0  0  0  0  0  0  0  0
    3.8822    0.4060    1.7090 C   0  0  0  0  0  0  0  0  0  0  0  0
    6.9450    1.0039   -0.2360 C   0  0  0  0  0  0  0  0  0  0  0  0
    7.5315    1.9986   -1.0468 N   0  0  0  0  0  0  0  0  0  0  0  0
    7.9053    0.1865    0.0352 N   0  0  0  0  0  0  0  0  0  0  0  0
   -0.7508   -2.8432    0.9176 H   0  0  0  0  0  0  0  0  0  0  0  0
    0.5342   -4.4256   -0.0651 H   0  0  0  0  0  0  0  0  0  0  0  0
    1.9145   -3.2599    0.0434 H   0  0  0  0  0  0  0  0  0  0  0  0
    1.8374   -3.2443   -2.2676 H   0  0  0  0  0  0  0  0  0  0  0  0
    0.1907   -4.0180   -2.3032 H   0  0  0  0  0  0  0  0  0  0  0  0
   -0.2987   -1.8250   -2.9731 H   0  0  0  0  0  0  0  0  0  0  0  0
    1.0024   -1.0695   -2.0441 H   0  0  0  0  0  0  0  0  0  0  0  0
   -2.4651   -0.0980    0.9292 H   0  0  0  0  0  0  0  0  0  0  0  0
   -3.4287   -1.4956    0.3771 H   0  0  0  0  0  0  0  0  0  0  0  0
   -4.6398    0.0818    1.2857 H   0  0  0  0  0  0  0  0  0  0  0  0
   -6.2662    0.4040   -1.2874 H   0  0  0  0  0  0  0  0  0  0  0  0
   -6.5249   -0.8547    0.0343 H   0  0  0  0  0  0  0  0  0  0  0  0
   -7.7785    0.5842    1.2420 H   0  0  0  0  0  0  0  0  0  0  0  0
   -7.7403    1.7143   -0.1913 H   0  0  0  0  0  0  0  0  0  0  0  0
   -5.9982    1.6804    2.2414 H   0  0  0  0  0  0  0  0  0  0  0  0
   -6.6727    3.1088    1.3032 H   0  0  0  0  0  0  0  0  0  0  0  0
   -4.0985    2.4784    0.9528 H   0  0  0  0  0  0  0  0  0  0  0  0
   -5.1323    2.4109   -0.5741 H   0  0  0  0  0  0  0  0  0  0  0  0
    0.2151    0.2467   -0.1993 H   0  0  0  0  0  0  0  0  0  0  0  0
    1.0592    2.0909    0.9457 H   0  0  0  0  0  0  0  0  0  0  0  0
    1.2996    1.0482    2.4002 H   0  0  0  0  0  0  0  0  0  0  0  0
    2.5586    2.2028   -0.8292 H   0  0  0  0  0  0  0  0  0  0  0  0
    4.9026    2.2148   -1.5834 H   0  0  0  0  0  0  0  0  0  0  0  0
    5.8384   -0.1045    1.9368 H   0  0  0  0  0  0  0  0  0  0  0  0
    3.5332   -0.0756    2.6113 H   0  0  0  0  0  0  0  0  0  0  0  0
    7.1461    1.7686   -2.0002 H   0  0  0  0  0  0  0  0  0  0  0  0
    8.1883    2.7674   -0.7437 H   0  0  0  0  0  0  0  0  0  0  0  0
    7.7721   -0.6685    0.6225 H   0  0  0  0  0  0  0  0  0  0  0  0
  1  2  1  0
  2  3  1  0
  3  4  1  0
  4  5  1  0
  5  6  1  0
  6  7  2  0
  6  8  1  0
  8  9  1  0
  9 10  1  0
 10 11  1  0
 11 12  1  0
 12 13  1  0
 13 14  1  0
  1 15  1  0
 15 16  2  0
 15 17  1  0
 17 18  1  0
 18 19  1  0
 19 20  2  0
 20 21  1  0
 21 22  2  0
 22 23  1  0
 23 24  2  0
 22 25  1  0
 25 26  1  0
 25 27  2  3
  5  1  1  0
 14 10  1  0
 24 19  1  0
  1 28  1  1
  2 29  1  0
  2 30  1  0
  3 31  1  0
  3 32  1  0
  4 33  1  0
  4 34  1  0
  8 35  1  0
  8 36  1  0
 10 37  1  0
 11 38  1  0
 11 39  1  0
 12 40  1  0
 12 41  1  0
 13 42  1  0
 13 43  1  0
 14 44  1  0
 14 45  1  0
 17 46  1  0
 18 47  1  0
 18 48  1  0
 20 49  1  0
 21 50  1  0
 23 51  1  0
 24 52  1  0
 26 53  1  0
 26 54  1  0
 27 55  1  0
M  END
$$$$
