
     RDKit          3D

 54 53  0  0  0  0  0  0  0  0999 V2000
    1.8624    0.4158   -0.5725 C   0  0  2  0  0  0  0  0  0  0  0  0
    3.1164    0.4528    0.2382 C   0  0  0  0  0  0  0  0  0  0  0  0
    3.4150   -0.8881    0.8791 C   0  0  0  0  0  0  0  0  0  0  0  0
    4.6986   -0.8153    1.6974 C   0  0  0  0  0  0  0  0  0  0  0  0
    4.9372   -2.1730    2.3046 C   0  0  0  0  0  0  0  0  0  0  0  0
    1.5637    1.7584   -1.2187 C   0  0  0  0  0  0  0  0  0  0  0  0
    2.6418    2.1559   -2.1015 N   0  0  0  0  0  0  0  0  0  0  0  0
    2.7955    1.8966   -3.4185 O   0  0  0  0  0  0  0  0  0  0  0  0
    3.6961    2.9160   -1.5668 C   0  0  0  0  0  0  0  0  0  0  0  0
    4.0787    3.4279   -0.4845 O   0  0  0  0  0  0  0  0  0  0  0  0
    0.6594    0.1129    0.2738 C   0  0  0  0  0  0  0  0  0  0  0  0
    0.5711   -0.0891    1.5123 O   0  0  0  0  0  0  0  0  0  0  0  0
   -0.6067    0.0265   -0.3597 N   0  0  0  0  0  0  0  0  0  0  0  0
   -1.8559   -0.2654    0.3627 C   0  0  2  0  0  0  0  0  0  0  0  0
   -2.3884   -1.4827   -0.2463 C   0  0  0  0  0  0  0  0  0  0  0  0
   -1.4309   -1.5512   -1.0620 O   0  0  0  0  0  0  0  0  0  0  0  0
   -3.5150   -2.3259   -0.0685 N   0  0  0  0  0  0  0  0  0  0  0  0
   -4.6592   -2.3099    0.8570 C   0  0  0  0  0  0  0  0  0  0  0  0
   -3.4695   -3.4272   -1.0452 C   0  0  0  0  0  0  0  0  0  0  0  0
   -2.6889    0.9688    0.1816 C   0  0  0  0  0  0  0  0  0  0  0  0
   -2.9015    1.1591   -1.2948 C   0  0  0  0  0  0  0  0  0  0  0  0
   -1.8784    2.1552    0.6771 C   0  0  0  0  0  0  0  0  0  0  0  0
   -3.9788    0.9771    0.9565 C   0  0  0  0  0  0  0  0  0  0  0  0
    1.9365   -0.3351   -1.3829 H   0  0  0  0  0  0  0  0  0  0  0  0
    3.9505    0.6482   -0.4973 H   0  0  0  0  0  0  0  0  0  0  0  0
    3.1559    1.2730    0.9517 H   0  0  0  0  0  0  0  0  0  0  0  0
    2.5729   -1.2741    1.4789 H   0  0  0  0  0  0  0  0  0  0  0  0
    3.6100   -1.6659    0.1124 H   0  0  0  0  0  0  0  0  0  0  0  0
    5.4882   -0.5164    0.9821 H   0  0  0  0  0  0  0  0  0  0  0  0
    4.5751   -0.0556    2.4870 H   0  0  0  0  0  0  0  0  0  0  0  0
    5.7082   -2.7264    1.7083 H   0  0  0  0  0  0  0  0  0  0  0  0
    5.2819   -2.0274    3.3497 H   0  0  0  0  0  0  0  0  0  0  0  0
    4.0155   -2.7727    2.2739 H   0  0  0  0  0  0  0  0  0  0  0  0
    1.3666    2.5437   -0.4620 H   0  0  0  0  0  0  0  0  0  0  0  0
    0.6694    1.6290   -1.8615 H   0  0  0  0  0  0  0  0  0  0  0  0
    2.8399    2.7171   -3.9702 H   0  0  0  0  0  0  0  0  0  0  0  0
    4.5681    3.3009   -2.0420 H   0  0  0  0  0  0  0  0  0  0  0  0
   -0.6830    0.1773   -1.4094 H   0  0  0  0  0  0  0  0  0  0  0  0
   -1.6130   -0.3689    1.4296 H   0  0  0  0  0  0  0  0  0  0  0  0
   -4.9117   -3.3543    1.1565 H   0  0  0  0  0  0  0  0  0  0  0  0
   -4.3895   -1.7658    1.7884 H   0  0  0  0  0  0  0  0  0  0  0  0
   -5.5657   -1.8777    0.4036 H   0  0  0  0  0  0  0  0  0  0  0  0
   -2.5003   -3.9377   -0.8668 H   0  0  0  0  0  0  0  0  0  0  0  0
   -3.4234   -2.9355   -2.0473 H   0  0  0  0  0  0  0  0  0  0  0  0
   -4.3244   -4.0933   -0.9337 H   0  0  0  0  0  0  0  0  0  0  0  0
   -3.0818    0.1884   -1.7868 H   0  0  0  0  0  0  0  0  0  0  0  0
   -2.0227    1.6954   -1.6956 H   0  0  0  0  0  0  0  0  0  0  0  0
   -3.7571    1.8731   -1.3956 H   0  0  0  0  0  0  0  0  0  0  0  0
   -2.3510    3.0627    0.2014 H   0  0  0  0  0  0  0  0  0  0  0  0
   -0.8299    2.0705    0.3801 H   0  0  0  0  0  0  0  0  0  0  0  0
   -2.0006    2.2716    1.7782 H   0  0  0  0  0  0  0  0  0  0  0  0
   -3.8936    0.5719    1.9609 H   0  0  0  0  0  0  0  0  0  0  0  0
   -4.7648    0.5347    0.3146 H   0  0  0  0  0  0  0  0  0  0  0  0
   -4.2892    2.0542    1.0923 H   0  0  0  0  0  0  0  0  0  0  0  0
  1  2  1  0
  2  3  1  0
  3  4  1  0
  4  5  1  0
  1  6  1  0
  6  7  1  0
  7  8  1  0
  7  9  1  0
  9 10  2  0
  1 11  1  0
 11 12  2  0
 11 13  1  0
 13 14  1  0
 14 15  1  0
 15 16  2  0
 15 17  1  0
 17 18  1  0
 17 19  1  0
 14 20  1  0
 20 21  1  0
 20 22  1  0
 20 23  1  0
  1 24  1  6
  2 25  1  0
  2 26  1  0
  3 27  1  0
  3 28  1  0
  4 29  1  0
  4 30  1  0
  5 31  1  0
  5 32  1  0
  5 33  1  0
  6 34  1  0
  6 35  1  0
  8 36  1  0
  9 37  1  0
 13 38  1  0
 14 39  1  1
 18 40  1  0
 18 41  1  0
 18 42  1  0
 19 43  1  0
 19 44  1  0
 19 45  1  0
 21 46  1  0
 21 47  1  0
 21 48  1  0
 22 49  1  0
 22 50  1  0
 22 51  1  0
 23 52  1  0
 23 53  1  0
 23 54  1  0
M  END
$$$$
