
     RDKit          3D

 75 79  0  0  0  0  0  0  0  0999 V2000
    1.6098   -2.1701    2.9095 C   0  0  0  0  0  0  0  0  0  0  0  0
    0.7736   -1.3849    2.0847 O   0  0  0  0  0  0  0  0  0  0  0  0
    1.3580   -0.7046    1.0185 C   0  0  0  0  0  0  0  0  0  0  0  0
    2.7100   -0.8140    0.7952 C   0  0  0  0  0  0  0  0  0  0  0  0
    3.3690   -0.1641   -0.2511 C   0  0  0  0  0  0  0  0  0  0  0  0
    4.7683   -0.3369   -0.4318 N   0  0  0  0  0  0  0  0  0  0  0  0
    5.5137    0.5343   -1.3054 C   0  0  0  0  0  0  0  0  0  0  0  0
    6.6810   -0.1525   -1.9959 C   0  0  0  0  0  0  0  0  0  0  0  0
    7.4596   -0.8713   -1.0414 N   0  0  0  0  0  0  0  0  0  0  0  0
    8.0000    0.0254   -0.0620 C   0  0  0  0  0  0  0  0  0  0  0  0
    8.8455   -0.7243    0.9607 C   0  0  2  0  0  0  0  0  0  0  0  0
    9.3413    0.2873    1.9655 C   0  0  0  0  0  0  0  0  0  0  0  0
    9.8834   -1.3468    0.2679 O   0  0  0  0  0  0  0  0  0  0  0  0
    6.6456   -1.9190   -0.5023 C   0  0  0  0  0  0  0  0  0  0  0  0
    5.4543   -1.4127    0.2774 C   0  0  0  0  0  0  0  0  0  0  0  0
    2.5559    0.5996   -1.0462 C   0  0  0  0  0  0  0  0  0  0  0  0
    1.2023    0.7247   -0.8436 C   0  0  0  0  0  0  0  0  0  0  0  0
    0.5687    0.0913    0.1727 C   0  0  0  0  0  0  0  0  0  0  0  0
   -0.8026    0.1521    0.4506 N   0  0  0  0  0  0  0  0  0  0  0  0
   -1.7587    0.9119   -0.2756 C   0  0  0  0  0  0  0  0  0  0  0  0
   -1.5241    1.7075   -1.3032 N   0  0  0  0  0  0  0  0  0  0  0  0
   -2.4986    2.3844   -1.9285 C   0  0  0  0  0  0  0  0  0  0  0  0
   -3.8054    2.2450   -1.4808 C   0  0  0  0  0  0  0  0  0  0  0  0
   -5.0058    2.7966   -1.9040 C   0  0  0  0  0  0  0  0  0  0  0  0
   -5.9733    2.2800   -1.0635 C   0  0  0  0  0  0  0  0  0  0  0  0
   -5.3990    1.4520   -0.1694 C   0  0  0  0  0  0  0  0  0  0  0  0
   -5.9778    0.6491    0.8975 C   0  0  0  0  0  0  0  0  0  0  0  0
   -5.4644    0.8500    2.2062 C   0  0  0  0  0  0  0  0  0  0  0  0
   -5.8941    0.1485    3.2915 C   0  0  0  0  0  0  0  0  0  0  0  0
   -6.8642   -0.7975    3.1358 C   0  0  0  0  0  0  0  0  0  0  0  0
   -7.3704   -1.0086    1.8936 C   0  0  0  0  0  0  0  0  0  0  0  0
   -6.9343   -0.2902    0.7591 C   0  0  0  0  0  0  0  0  0  0  0  0
   -7.4963   -0.6269   -0.4909 N   0  0  0  0  0  0  0  0  0  0  0  0
   -6.8304   -1.6994   -1.2470 C   0  0  0  0  0  0  0  0  0  0  0  0
   -8.8630    0.0759   -1.2147 S   0  0  0  0  0  6  0  0  0  0  0  0
   -8.4544    0.8217   -2.7675 C   0  0  0  0  0  0  0  0  0  0  0  0
   -9.4110    1.1313   -0.2837 O   0  0  0  0  0  0  0  0  0  0  0  0
   -9.9537   -0.9711   -1.4371 O   0  0  0  0  0  0  0  0  0  0  0  0
   -4.0599    1.4499   -0.4500 N   0  0  0  0  0  0  0  0  0  0  0  0
   -3.0593    0.8102    0.1246 N   0  0  0  0  0  0  0  0  0  0  0  0
    1.0360   -2.7391    3.6637 H   0  0  0  0  0  0  0  0  0  0  0  0
    2.3417   -1.5357    3.4616 H   0  0  0  0  0  0  0  0  0  0  0  0
    2.2012   -2.8990    2.3190 H   0  0  0  0  0  0  0  0  0  0  0  0
    3.3356   -1.4246    1.4494 H   0  0  0  0  0  0  0  0  0  0  0  0
    5.8723    1.4490   -0.7504 H   0  0  0  0  0  0  0  0  0  0  0  0
    4.9032    0.9465   -2.1311 H   0  0  0  0  0  0  0  0  0  0  0  0
    6.2375   -0.8012   -2.7812 H   0  0  0  0  0  0  0  0  0  0  0  0
    7.2378    0.6520   -2.5206 H   0  0  0  0  0  0  0  0  0  0  0  0
    8.5927    0.7949   -0.5961 H   0  0  0  0  0  0  0  0  0  0  0  0
    7.2240    0.5642    0.5238 H   0  0  0  0  0  0  0  0  0  0  0  0
    8.1881   -1.4578    1.4593 H   0  0  0  0  0  0  0  0  0  0  0  0
    8.5875    0.3246    2.7833 H   0  0  0  0  0  0  0  0  0  0  0  0
    9.3826    1.2781    1.4828 H   0  0  0  0  0  0  0  0  0  0  0  0
   10.3512   -0.0024    2.3555 H   0  0  0  0  0  0  0  0  0  0  0  0
    9.8028   -1.1979   -0.7204 H   0  0  0  0  0  0  0  0  0  0  0  0
    7.1970   -2.6534    0.1042 H   0  0  0  0  0  0  0  0  0  0  0  0
    6.2173   -2.4764   -1.3874 H   0  0  0  0  0  0  0  0  0  0  0  0
    4.7964   -2.3038    0.4118 H   0  0  0  0  0  0  0  0  0  0  0  0
    5.7779   -1.1065    1.2934 H   0  0  0  0  0  0  0  0  0  0  0  0
    3.0099    1.1430   -1.8947 H   0  0  0  0  0  0  0  0  0  0  0  0
    0.6701    1.3455   -1.5280 H   0  0  0  0  0  0  0  0  0  0  0  0
   -1.1584   -0.4205    1.2788 H   0  0  0  0  0  0  0  0  0  0  0  0
   -2.2712    3.0252   -2.7643 H   0  0  0  0  0  0  0  0  0  0  0  0
   -5.1226    3.4866   -2.7281 H   0  0  0  0  0  0  0  0  0  0  0  0
   -7.0245    2.5693   -1.1636 H   0  0  0  0  0  0  0  0  0  0  0  0
   -4.6844    1.6173    2.2976 H   0  0  0  0  0  0  0  0  0  0  0  0
   -5.4835    0.3262    4.2644 H   0  0  0  0  0  0  0  0  0  0  0  0
   -7.2000   -1.3523    4.0219 H   0  0  0  0  0  0  0  0  0  0  0  0
   -8.1403   -1.7519    1.7359 H   0  0  0  0  0  0  0  0  0  0  0  0
   -7.6636   -2.3546   -1.6337 H   0  0  0  0  0  0  0  0  0  0  0  0
   -6.2552   -1.2601   -2.0949 H   0  0  0  0  0  0  0  0  0  0  0  0
   -6.2050   -2.3056   -0.5688 H   0  0  0  0  0  0  0  0  0  0  0  0
   -7.3832    0.6755   -2.9991 H   0  0  0  0  0  0  0  0  0  0  0  0
   -8.6995    1.9129   -2.7477 H   0  0  0  0  0  0  0  0  0  0  0  0
   -9.0107    0.3359   -3.6111 H   0  0  0  0  0  0  0  0  0  0  0  0
  1  2  1  0
  2  3  1  0
  3  4  2  0
  4  5  1  0
  5  6  1  0
  6  7  1  0
  7  8  1  0
  8  9  1  0
  9 10  1  0
 10 11  1  0
 11 12  1  0
 11 13  1  0
  9 14  1  0
 14 15  1  0
  5 16  2  0
 16 17  1  0
 17 18  2  0
 18 19  1  0
 19 20  1  0
 20 21  1  0
 21 22  2  0
 22 23  1  0
 23 24  2  0
 24 25  1  0
 25 26  2  0
 26 27  1  0
 27 28  2  0
 28 29  1  0
 29 30  2  0
 30 31  1  0
 31 32  2  0
 32 33  1  0
 33 34  1  0
 33 35  1  0
 35 36  1  0
 35 37  2  0
 35 38  2  0
 26 39  1  0
 39 40  1  0
 18  3  1  0
 40 20  2  0
 15  6  1  0
 39 23  1  0
 32 27  1  0
  1 41  1  0
  1 42  1  0
  1 43  1  0
  4 44  1  0
  7 45  1  0
  7 46  1  0
  8 47  1  0
  8 48  1  0
 10 49  1  0
 10 50  1  0
 11 51  1  1
 12 52  1  0
 12 53  1  0
 12 54  1  0
 13 55  1  0
 14 56  1  0
 14 57  1  0
 15 58  1  0
 15 59  1  0
 16 60  1  0
 17 61  1  0
 19 62  1  0
 22 63  1  0
 24 64  1  0
 25 65  1  0
 28 66  1  0
 29 67  1  0
 30 68  1  0
 31 69  1  0
 34 70  1  0
 34 71  1  0
 34 72  1  0
 36 73  1  0
 36 74  1  0
 36 75  1  0
M  END
$$$$
