
     RDKit          3D

 42 44  0  0  0  0  0  0  0  0999 V2000
   -4.2687    1.3465   -0.0507 C   0  0  0  0  0  0  0  0  0  0  0  0
   -3.2179    0.9944    0.9967 C   0  0  0  0  0  0  0  0  0  0  0  0
   -3.8929    0.0692    1.9879 C   0  0  0  0  0  0  0  0  0  0  0  0
   -2.7656    2.2731    1.6229 C   0  0  0  0  0  0  0  0  0  0  0  0
   -2.1266    0.2962    0.3303 N   0  0  0  0  0  0  0  0  0  0  0  0
   -0.8812    0.7205    0.3065 N   0  0  0  0  0  0  0  0  0  0  0  0
   -0.1169   -0.1630   -0.3990 C   0  0  0  0  0  0  0  0  0  0  0  0
    1.3215   -0.0290   -0.6238 C   0  0  0  0  0  0  0  0  0  0  0  0
    1.8912   -0.1089   -1.8636 C   0  0  0  0  0  0  0  0  0  0  0  0
    3.2102   -0.0100   -2.0673 N   0  0  0  0  0  0  0  0  0  0  0  0
    4.0166    0.1768   -1.0133 C   0  0  0  0  0  0  0  0  0  0  0  0
    5.3740    0.2784   -1.2260 C   0  0  0  0  0  0  0  0  0  0  0  0
    6.2241    0.4700   -0.1669 C   0  0  0  0  0  0  0  0  0  0  0  0
    7.5415    0.5691   -0.3698 F   0  0  0  0  0  0  0  0  0  0  0  0
    5.7071    0.5582    1.0970 C   0  0  0  0  0  0  0  0  0  0  0  0
    4.3532    0.4575    1.3160 C   0  0  0  0  0  0  0  0  0  0  0  0
    3.5024    0.2674    0.2709 C   0  0  0  0  0  0  0  0  0  0  0  0
    2.1478    0.1660    0.4851 C   0  0  0  0  0  0  0  0  0  0  0  0
   -0.9158   -1.1872   -0.8359 C   0  0  0  0  0  0  0  0  0  0  0  0
   -0.6374   -2.3843   -1.6003 C   0  0  0  0  0  0  0  0  0  0  0  0
    0.6372   -2.7930   -2.0579 N   0  0  0  0  0  0  0  0  0  0  0  0
   -1.5957   -3.1442   -1.8936 O   0  0  0  0  0  0  0  0  0  0  0  0
   -2.1814   -0.8425   -0.3444 C   0  0  0  0  0  0  0  0  0  0  0  0
   -3.3855   -1.5902   -0.5256 N   0  0  0  0  0  0  0  0  0  0  0  0
   -3.7037    1.6732   -0.9469 H   0  0  0  0  0  0  0  0  0  0  0  0
   -4.8041    0.4246   -0.2886 H   0  0  0  0  0  0  0  0  0  0  0  0
   -4.9233    2.1602    0.3206 H   0  0  0  0  0  0  0  0  0  0  0  0
   -4.8424   -0.3539    1.5959 H   0  0  0  0  0  0  0  0  0  0  0  0
   -3.2074   -0.7150    2.3674 H   0  0  0  0  0  0  0  0  0  0  0  0
   -4.1813    0.6780    2.8808 H   0  0  0  0  0  0  0  0  0  0  0  0
   -3.0245    3.1808    1.0238 H   0  0  0  0  0  0  0  0  0  0  0  0
   -3.2631    2.4069    2.5999 H   0  0  0  0  0  0  0  0  0  0  0  0
   -1.6443    2.3166    1.7238 H   0  0  0  0  0  0  0  0  0  0  0  0
    1.2313   -0.2409   -2.7196 H   0  0  0  0  0  0  0  0  0  0  0  0
    5.8066    0.2105   -2.2294 H   0  0  0  0  0  0  0  0  0  0  0  0
    6.3290    0.7099    1.9794 H   0  0  0  0  0  0  0  0  0  0  0  0
    3.9504    0.5296    2.3317 H   0  0  0  0  0  0  0  0  0  0  0  0
    1.7613    0.2373    1.4799 H   0  0  0  0  0  0  0  0  0  0  0  0
    1.3569   -3.2685   -1.4746 H   0  0  0  0  0  0  0  0  0  0  0  0
    0.8813   -2.6071   -3.0539 H   0  0  0  0  0  0  0  0  0  0  0  0
   -3.8622   -1.6110   -1.4633 H   0  0  0  0  0  0  0  0  0  0  0  0
   -3.8020   -2.1219    0.2706 H   0  0  0  0  0  0  0  0  0  0  0  0
  1  2  1  0
  2  3  1  0
  2  4  1  0
  2  5  1  0
  5  6  1  0
  6  7  2  0
  7  8  1  0
  8  9  2  0
  9 10  1  0
 10 11  2  0
 11 12  1  0
 12 13  2  0
 13 14  1  0
 13 15  1  0
 15 16  2  0
 16 17  1  0
 17 18  2  0
  7 19  1  0
 19 20  1  0
 20 21  1  0
 20 22  2  0
 19 23  2  0
 23 24  1  0
 23  5  1  0
 18  8  1  0
 17 11  1  0
  1 25  1  0
  1 26  1  0
  1 27  1  0
  3 28  1  0
  3 29  1  0
  3 30  1  0
  4 31  1  0
  4 32  1  0
  4 33  1  0
  9 34  1  0
 12 35  1  0
 15 36  1  0
 16 37  1  0
 18 38  1  0
 21 39  1  0
 21 40  1  0
 24 41  1  0
 24 42  1  0
M  END
$$$$
