
     RDKit          3D

 53 58  0  0  0  0  0  0  0  0999 V2000
   -4.6318    0.8613   -1.2101 C   0  0  0  0  0  0  0  0  0  0  0  0
   -3.6609    0.5407   -0.1337 C   0  0  0  0  0  0  0  0  0  0  0  0
   -2.3554    0.2240   -0.4419 C   0  0  0  0  0  0  0  0  0  0  0  0
   -1.4578   -0.0709    0.5449 C   0  0  0  0  0  0  0  0  0  0  0  0
   -0.0774   -0.3999    0.2336 N   0  0  0  0  0  0  0  0  0  0  0  0
    0.3727   -1.7125   -0.0557 C   0  0  0  0  0  0  0  0  0  0  0  0
   -0.3413   -2.7551   -0.1142 O   0  0  0  0  0  0  0  0  0  0  0  0
    1.8040   -1.6752   -0.2783 C   0  0  0  0  0  0  0  0  0  0  0  0
    2.2013   -0.3776   -0.1285 C   0  0  0  0  0  0  0  0  0  0  0  0
    3.5987   -0.3028   -0.3316 C   0  0  0  0  0  0  0  0  0  0  0  0
    4.4050    0.9458   -0.2524 C   0  0  0  0  0  0  0  0  0  0  0  0
    4.2238    1.7347   -1.3974 O   0  0  0  0  0  0  0  0  0  0  0  0
    3.9767   -1.5428   -0.5921 N   0  0  0  0  0  0  0  0  0  0  0  0
    2.9319   -2.3894   -0.5689 N   0  0  0  0  0  0  0  0  0  0  0  0
    2.9831   -3.7913   -0.8054 C   0  0  0  0  0  0  0  0  0  0  0  0
    1.9667   -4.5826   -1.5068 C   0  0  0  0  0  0  0  0  0  0  0  0
    2.1971   -4.8028   -0.0805 C   0  0  0  0  0  0  0  0  0  0  0  0
    1.0410    0.4568    0.1778 C   0  0  1  0  0  0  0  0  0  0  0  0
    0.9138    1.6410   -0.6531 C   0  0  0  0  0  0  0  0  0  0  0  0
    1.2934    2.8673   -0.1754 C   0  0  0  0  0  0  0  0  0  0  0  0
    1.1873    4.0228   -0.9646 C   0  0  0  0  0  0  0  0  0  0  0  0
    0.6917    3.9284   -2.2480 C   0  0  0  0  0  0  0  0  0  0  0  0
    0.5659    5.3841   -3.2217 Cl  0  0  0  0  0  0  0  0  0  0  0  0
    0.3123    2.6992   -2.7238 C   0  0  0  0  0  0  0  0  0  0  0  0
    0.4210    1.5480   -1.9297 C   0  0  0  0  0  0  0  0  0  0  0  0
   -1.9064   -0.0392    1.8441 C   0  0  0  0  0  0  0  0  0  0  0  0
   -3.2038    0.2766    2.1307 N   0  0  0  0  0  0  0  0  0  0  0  0
   -3.8621    0.3711    3.2961 C   0  0  0  0  0  0  0  0  0  0  0  0
   -3.2089    0.1171    4.6214 C   0  0  0  0  0  0  0  0  0  0  0  0
   -5.1445    0.7160    3.0732 N   0  0  0  0  0  0  0  0  0  0  0  0
   -5.2788    0.8352    1.7646 N   0  0  0  0  0  0  0  0  0  0  0  0
   -4.1069    0.5710    1.1774 C   0  0  0  0  0  0  0  0  0  0  0  0
   -4.6851    0.0456   -1.9583 H   0  0  0  0  0  0  0  0  0  0  0  0
   -5.6564    0.9708   -0.8011 H   0  0  0  0  0  0  0  0  0  0  0  0
   -4.3852    1.8402   -1.6934 H   0  0  0  0  0  0  0  0  0  0  0  0
   -2.0746    0.2133   -1.4763 H   0  0  0  0  0  0  0  0  0  0  0  0
    5.4843    0.6147   -0.3002 H   0  0  0  0  0  0  0  0  0  0  0  0
    4.2880    1.4940    0.6803 H   0  0  0  0  0  0  0  0  0  0  0  0
    3.4871    1.3500   -1.9694 H   0  0  0  0  0  0  0  0  0  0  0  0
    4.0421   -4.1478   -1.0332 H   0  0  0  0  0  0  0  0  0  0  0  0
    1.1501   -4.0279   -1.9656 H   0  0  0  0  0  0  0  0  0  0  0  0
    2.2924   -5.4192   -2.2043 H   0  0  0  0  0  0  0  0  0  0  0  0
    2.6947   -5.7853    0.2007 H   0  0  0  0  0  0  0  0  0  0  0  0
    1.5293   -4.5001    0.7408 H   0  0  0  0  0  0  0  0  0  0  0  0
    1.1753    0.8409    1.2563 H   0  0  0  0  0  0  0  0  0  0  0  0
    1.6924    3.0394    0.8151 H   0  0  0  0  0  0  0  0  0  0  0  0
    1.4798    4.9977   -0.6101 H   0  0  0  0  0  0  0  0  0  0  0  0
   -0.0743    2.6318   -3.7273 H   0  0  0  0  0  0  0  0  0  0  0  0
    0.0951    0.6327   -2.4021 H   0  0  0  0  0  0  0  0  0  0  0  0
   -1.2325   -0.2644    2.6395 H   0  0  0  0  0  0  0  0  0  0  0  0
   -2.5007   -0.7089    4.4842 H   0  0  0  0  0  0  0  0  0  0  0  0
   -2.6642    1.0318    4.9082 H   0  0  0  0  0  0  0  0  0  0  0  0
   -3.9889   -0.1483    5.3664 H   0  0  0  0  0  0  0  0  0  0  0  0
  1  2  1  0
  2  3  2  0
  3  4  1  0
  4  5  1  0
  5  6  1  0
  6  7  2  0
  6  8  1  0
  8  9  2  0
  9 10  1  0
 10 11  1  0
 11 12  1  0
 10 13  2  0
 13 14  1  0
 14 15  1  0
 15 16  1  0
 16 17  1  0
  9 18  1  0
 18 19  1  0
 19 20  2  0
 20 21  1  0
 21 22  2  0
 22 23  1  0
 22 24  1  0
 24 25  2  0
  4 26  2  0
 26 27  1  0
 27 28  1  0
 28 29  1  0
 28 30  2  0
 30 31  1  0
 31 32  2  0
 32  2  1  0
 18  5  1  0
 25 19  1  0
 32 27  1  0
 14  8  1  0
 17 15  1  0
  1 33  1  0
  1 34  1  0
  1 35  1  0
  3 36  1  0
 11 37  1  0
 11 38  1  0
 12 39  1  0
 15 40  1  0
 16 41  1  0
 16 42  1  0
 17 43  1  0
 17 44  1  0
 18 45  1  1
 20 46  1  0
 21 47  1  0
 24 48  1  0
 25 49  1  0
 26 50  1  0
 29 51  1  0
 29 52  1  0
 29 53  1  0
M  END
$$$$
