
     RDKit          3D

 43 46  0  0  0  0  0  0  0  0999 V2000
    5.6049    2.0161   -0.5294 C   0  0  0  0  0  0  0  0  0  0  0  0
    4.7277    0.8631   -0.4713 N   0  0  0  0  0  0  0  0  0  0  0  0
    3.4034    0.7869   -0.5640 C   0  0  0  0  0  0  0  0  0  0  0  0
    2.9918   -0.5276   -0.4528 C   0  0  0  0  0  0  0  0  0  0  0  0
    1.6310   -1.1007   -0.4939 C   0  0  1  0  0  0  0  0  0  0  0  0
    0.9196   -1.0358    0.8374 C   0  0  0  0  0  0  0  0  0  0  0  0
   -0.5594   -1.2897    0.4964 C   0  0  1  0  0  0  0  0  0  0  0  0
   -1.2268   -1.7692    1.7137 C   0  0  0  0  0  0  0  0  0  0  0  0
   -2.0007   -0.4770    2.7021 S   0  0  0  0  0  0  0  0  0  0  0  0
   -1.3035    1.0590    2.1213 C   0  0  0  0  0  0  0  0  0  0  0  0
   -1.1535    2.1774    2.9789 N   0  0  0  0  0  0  0  0  0  0  0  0
   -0.9470    1.0963    0.8912 N   0  0  0  0  0  0  0  0  0  0  0  0
   -1.0573    0.0115   -0.0647 C   0  0  2  0  0  0  0  0  0  0  0  0
   -2.4497   -0.0430   -0.5744 C   0  0  0  0  0  0  0  0  0  0  0  0
   -3.4181    0.8627   -0.1242 C   0  0  0  0  0  0  0  0  0  0  0  0
   -4.7177    0.8136   -0.5964 C   0  0  0  0  0  0  0  0  0  0  0  0
   -5.1138   -0.1094   -1.5134 C   0  0  0  0  0  0  0  0  0  0  0  0
   -6.3824   -0.1865   -1.9990 F   0  0  0  0  0  0  0  0  0  0  0  0
   -4.1956   -1.0108   -1.9769 C   0  0  0  0  0  0  0  0  0  0  0  0
   -2.8916   -0.9567   -1.4990 C   0  0  0  0  0  0  0  0  0  0  0  0
   -2.0480   -1.8681   -2.0035 F   0  0  0  0  0  0  0  0  0  0  0  0
   -0.0587    0.3646   -1.1775 C   0  0  0  0  0  0  0  0  0  0  0  0
    0.8137   -0.6351   -1.4755 O   0  0  0  0  0  0  0  0  0  0  0  0
    4.1694   -1.2393   -0.2859 C   0  0  0  0  0  0  0  0  0  0  0  0
    5.1821   -0.3652   -0.3035 N   0  0  0  0  0  0  0  0  0  0  0  0
    6.2778    1.9482   -1.3904 H   0  0  0  0  0  0  0  0  0  0  0  0
    6.2603    2.0692    0.3803 H   0  0  0  0  0  0  0  0  0  0  0  0
    5.0631    2.9629   -0.5795 H   0  0  0  0  0  0  0  0  0  0  0  0
    2.7556    1.6400   -0.7057 H   0  0  0  0  0  0  0  0  0  0  0  0
    1.7380   -2.2125   -0.6913 H   0  0  0  0  0  0  0  0  0  0  0  0
    1.0549   -0.0790    1.3463 H   0  0  0  0  0  0  0  0  0  0  0  0
    1.2964   -1.8374    1.4891 H   0  0  0  0  0  0  0  0  0  0  0  0
   -0.5765   -2.0468   -0.3022 H   0  0  0  0  0  0  0  0  0  0  0  0
   -1.9706   -2.5741    1.4450 H   0  0  0  0  0  0  0  0  0  0  0  0
   -0.4998   -2.3007    2.3951 H   0  0  0  0  0  0  0  0  0  0  0  0
   -0.2124    2.4272    3.3118 H   0  0  0  0  0  0  0  0  0  0  0  0
   -1.9641    2.7517    3.2811 H   0  0  0  0  0  0  0  0  0  0  0  0
   -3.1287    1.6080    0.6028 H   0  0  0  0  0  0  0  0  0  0  0  0
   -5.4505    1.5289   -0.2301 H   0  0  0  0  0  0  0  0  0  0  0  0
   -4.4947   -1.7478   -2.7034 H   0  0  0  0  0  0  0  0  0  0  0  0
   -0.6953    0.5037   -2.1031 H   0  0  0  0  0  0  0  0  0  0  0  0
    0.4039    1.3502   -1.0152 H   0  0  0  0  0  0  0  0  0  0  0  0
    4.2232   -2.3049   -0.1663 H   0  0  0  0  0  0  0  0  0  0  0  0
  1  2  1  0
  2  3  1  0
  3  4  2  0
  4  5  1  0
  5  6  1  0
  6  7  1  0
  7  8  1  0
  8  9  1  0
  9 10  1  0
 10 11  1  0
 10 12  2  0
 12 13  1  0
 13 14  1  6
 14 15  2  0
 15 16  1  0
 16 17  2  0
 17 18  1  0
 17 19  1  0
 19 20  2  0
 20 21  1  0
 13 22  1  0
 22 23  1  0
  4 24  1  0
 24 25  2  0
 25  2  1  0
 23  5  1  0
 13  7  1  0
 20 14  1  0
  1 26  1  0
  1 27  1  0
  1 28  1  0
  3 29  1  0
  5 30  1  6
  6 31  1  0
  6 32  1  0
  7 33  1  6
  8 34  1  0
  8 35  1  0
 11 36  1  0
 11 37  1  0
 15 38  1  0
 16 39  1  0
 19 40  1  0
 22 41  1  0
 22 42  1  0
 24 43  1  0
M  END
$$$$
