
     RDKit          3D

 55 59  0  0  0  0  0  0  0  0999 V2000
   -3.7789    2.6221    2.3798 N   0  0  0  0  0  0  0  0  0  0  0  0
   -4.6672    1.8199    1.6206 C   0  0  0  0  0  0  0  0  0  0  0  0
   -6.0400    1.8165    1.8582 C   0  0  0  0  0  0  0  0  0  0  0  0
   -6.9141    1.0350    1.1197 C   0  0  0  0  0  0  0  0  0  0  0  0
   -6.4252    0.2294    0.1141 C   0  0  0  0  0  0  0  0  0  0  0  0
   -7.3477   -0.6094   -0.6817 C   0  0  0  0  0  0  0  0  0  0  0  0
   -7.0587   -1.4796   -1.7271 C   0  0  0  0  0  0  0  0  0  0  0  0
   -8.0712   -2.1216   -2.2824 C   0  0  0  0  0  0  0  0  0  0  0  0
   -9.3513   -1.9624   -1.8750 C   0  0  0  0  0  0  0  0  0  0  0  0
   -9.1026   -0.7258   -0.5054 S   0  0  0  0  0  0  0  0  0  0  0  0
   -5.0827    0.2398   -0.1101 C   0  0  0  0  0  0  0  0  0  0  0  0
   -4.2075    1.0177    0.6240 C   0  0  0  0  0  0  0  0  0  0  0  0
   -2.8252    0.9509    0.3050 N   0  0  0  0  0  0  0  0  0  0  0  0
   -2.0193   -0.0061    0.9623 C   0  0  0  0  0  0  0  0  0  0  0  0
   -2.5604   -0.7650    1.8081 O   0  0  0  0  0  0  0  0  0  0  0  0
   -0.6167   -0.1012    0.6639 C   0  0  0  0  0  0  0  0  0  0  0  0
    0.1501   -1.0600    1.3380 C   0  0  0  0  0  0  0  0  0  0  0  0
    1.4913   -1.1420    1.0439 C   0  0  0  0  0  0  0  0  0  0  0  0
    2.0941   -0.3152    0.1141 C   0  0  0  0  0  0  0  0  0  0  0  0
    3.4732   -0.4220   -0.1676 N   0  0  0  0  0  0  0  0  0  0  0  0
    4.3259   -1.3869    0.4876 C   0  0  0  0  0  0  0  0  0  0  0  0
    5.7321   -1.3213   -0.1201 C   0  0  0  0  0  0  0  0  0  0  0  0
    6.2805    0.0637   -0.1787 C   0  0  0  0  0  0  0  0  0  0  0  0
    5.2465    1.1213   -0.4631 C   0  0  0  0  0  0  0  0  0  0  0  0
    4.0687    0.4572   -1.1422 C   0  0  0  0  0  0  0  0  0  0  0  0
    7.3396    0.1578   -1.2619 C   0  0  0  0  0  0  0  0  0  0  0  0
    8.5912    0.2167   -0.5386 N   0  0  0  0  0  0  0  0  0  0  0  0
    8.3107    0.2817    0.8415 C   0  0  0  0  0  0  0  0  0  0  0  0
    9.1245    0.2218    1.8061 O   0  0  0  0  0  0  0  0  0  0  0  0
    6.9419    0.4294    1.0314 O   0  0  0  0  0  0  0  0  0  0  0  0
    1.3415    0.5905   -0.5148 N   0  0  0  0  0  0  0  0  0  0  0  0
    0.0321    0.6819   -0.2381 C   0  0  0  0  0  0  0  0  0  0  0  0
   -3.8865    2.6713    3.3948 H   0  0  0  0  0  0  0  0  0  0  0  0
   -3.0206    3.1600    1.9153 H   0  0  0  0  0  0  0  0  0  0  0  0
   -6.3965    2.4562    2.6510 H   0  0  0  0  0  0  0  0  0  0  0  0
   -7.9776    1.0773    1.3548 H   0  0  0  0  0  0  0  0  0  0  0  0
   -5.9879   -1.5704   -2.0195 H   0  0  0  0  0  0  0  0  0  0  0  0
   -7.8986   -2.8469   -3.1416 H   0  0  0  0  0  0  0  0  0  0  0  0
  -10.2834   -2.3411   -2.1437 H   0  0  0  0  0  0  0  0  0  0  0  0
   -4.6964   -0.3960   -0.9036 H   0  0  0  0  0  0  0  0  0  0  0  0
   -2.4762    1.6324   -0.4169 H   0  0  0  0  0  0  0  0  0  0  0  0
   -0.3153   -1.7148    2.0712 H   0  0  0  0  0  0  0  0  0  0  0  0
    2.1022   -1.8958    1.5718 H   0  0  0  0  0  0  0  0  0  0  0  0
    4.4375   -1.2037    1.5571 H   0  0  0  0  0  0  0  0  0  0  0  0
    3.9707   -2.4243    0.3606 H   0  0  0  0  0  0  0  0  0  0  0  0
    5.7806   -1.8357   -1.0912 H   0  0  0  0  0  0  0  0  0  0  0  0
    6.3732   -1.9079    0.5843 H   0  0  0  0  0  0  0  0  0  0  0  0
    4.8520    1.5778    0.4898 H   0  0  0  0  0  0  0  0  0  0  0  0
    5.6614    1.9368   -1.0934 H   0  0  0  0  0  0  0  0  0  0  0  0
    4.4716   -0.1223   -2.0097 H   0  0  0  0  0  0  0  0  0  0  0  0
    3.3442    1.1683   -1.5657 H   0  0  0  0  0  0  0  0  0  0  0  0
    7.2905   -0.6894   -1.9502 H   0  0  0  0  0  0  0  0  0  0  0  0
    7.2012    1.0786   -1.8876 H   0  0  0  0  0  0  0  0  0  0  0  0
    9.5233    0.2101   -0.9917 H   0  0  0  0  0  0  0  0  0  0  0  0
   -0.5446    1.4447   -0.7837 H   0  0  0  0  0  0  0  0  0  0  0  0
  1  2  1  0
  2  3  2  0
  3  4  1  0
  4  5  2  0
  5  6  1  0
  6  7  2  0
  7  8  1  0
  8  9  2  0
  9 10  1  0
  5 11  1  0
 11 12  2  0
 12 13  1  0
 13 14  1  0
 14 15  2  0
 14 16  1  0
 16 17  2  0
 17 18  1  0
 18 19  2  0
 19 20  1  0
 20 21  1  0
 21 22  1  0
 22 23  1  0
 23 24  1  0
 24 25  1  0
 23 26  1  0
 26 27  1  0
 27 28  1  0
 28 29  2  0
 28 30  1  0
 19 31  1  0
 31 32  2  0
 12  2  1  0
 32 16  1  0
 10  6  1  0
 25 20  1  0
 30 23  1  0
  1 33  1  0
  1 34  1  0
  3 35  1  0
  4 36  1  0
  7 37  1  0
  8 38  1  0
  9 39  1  0
 11 40  1  0
 13 41  1  0
 17 42  1  0
 18 43  1  0
 21 44  1  0
 21 45  1  0
 22 46  1  0
 22 47  1  0
 24 48  1  0
 24 49  1  0
 25 50  1  0
 25 51  1  0
 26 52  1  0
 26 53  1  0
 27 54  1  0
 32 55  1  0
M  END
$$$$
