
     RDKit          3D

109112  0  0  0  0  0  0  0  0999 V2000
   -1.2399   -3.6715    1.3687 C   0  0  0  0  0  0  0  0  0  0  0  0
   -1.3537   -2.2365    1.7635 C   0  0  0  0  0  0  0  0  0  0  0  0
   -1.6291   -2.2257    3.2832 C   0  0  0  0  0  0  0  0  0  0  0  0
   -0.1084   -1.4390    1.5773 C   0  0  0  0  0  0  0  0  0  0  0  0
    0.4733   -1.3302    0.2246 C   0  0  2  0  0  0  0  0  0  0  0  0
    1.6992   -0.5028    0.3969 N   0  0  0  0  0  0  0  0  0  0  0  0
    2.9989   -1.0211    0.1132 C   0  0  0  0  0  0  0  0  0  0  0  0
    2.9326   -2.2382   -0.2878 O   0  0  0  0  0  0  0  0  0  0  0  0
    4.2660   -0.3192    0.2424 C   0  0  2  0  0  0  0  0  0  0  0  0
    5.2386   -0.8823    1.2313 C   0  0  0  0  0  0  0  0  0  0  0  0
    5.6067   -2.2864    0.8828 C   0  0  0  0  0  0  0  0  0  0  0  0
    6.6028   -2.7815    1.9133 C   0  0  0  0  0  0  0  0  0  0  0  0
    6.0666   -3.3972    3.0540 C   0  0  0  0  0  0  0  0  0  0  0  0
    6.9712   -3.8465    3.9904 C   0  0  0  0  0  0  0  0  0  0  0  0
    8.3280   -3.6998    3.8186 C   0  0  0  0  0  0  0  0  0  0  0  0
    8.7870   -3.0922    2.6881 C   0  0  0  0  0  0  0  0  0  0  0  0
    7.9472   -2.6129    1.6982 C   0  0  0  0  0  0  0  0  0  0  0  0
    4.0812    1.0890    0.6509 N   0  0  0  0  0  0  0  0  0  0  0  0
    4.5672    2.1311   -0.1919 C   0  0  0  0  0  0  0  0  0  0  0  0
    5.1489    1.8060   -1.2783 O   0  0  0  0  0  0  0  0  0  0  0  0
    4.3471    3.5101    0.2821 C   0  0  0  0  0  0  0  0  0  0  0  0
    4.8650    4.5242   -0.6178 N   0  0  0  0  0  0  0  0  0  0  0  0
    4.1120    4.5481   -1.8341 C   0  0  0  0  0  0  0  0  0  0  0  0
    4.5830    5.6682   -2.7250 C   0  0  0  0  0  0  0  0  0  0  0  0
    5.9468    5.8830   -2.6019 O   0  0  0  0  0  0  0  0  0  0  0  0
    6.6421    4.7607   -2.1999 C   0  0  0  0  0  0  0  0  0  0  0  0
    6.2870    4.4872   -0.7697 C   0  0  0  0  0  0  0  0  0  0  0  0
   -0.3351   -0.7529   -0.8451 C   0  0  0  0  0  0  0  0  0  0  0  0
   -0.0027    0.3148   -1.4594 O   0  0  0  0  0  0  0  0  0  0  0  0
   -1.5284   -1.1861   -1.3919 N   0  0  0  0  0  0  0  0  0  0  0  0
   -2.6512   -1.1479   -2.2728 C   0  0  1  0  0  0  0  0  0  0  0  0
   -2.7781   -2.4094   -3.0388 C   0  0  0  0  0  0  0  0  0  0  0  0
   -3.8802   -2.5045   -3.9862 C   0  0  0  0  0  0  0  0  0  0  0  0
   -3.6001   -1.9975   -5.2610 C   0  0  0  0  0  0  0  0  0  0  0  0
   -4.5566   -2.0369   -6.2719 C   0  0  0  0  0  0  0  0  0  0  0  0
   -5.7981   -2.5689   -6.0590 C   0  0  0  0  0  0  0  0  0  0  0  0
   -6.0185   -3.0511   -4.7907 C   0  0  0  0  0  0  0  0  0  0  0  0
   -5.1361   -3.0494   -3.7469 C   0  0  0  0  0  0  0  0  0  0  0  0
   -3.8814   -0.6754   -1.5693 C   0  0  0  0  0  0  0  0  0  0  0  0
   -5.0984   -0.9029   -1.8092 O   0  0  0  0  0  0  0  0  0  0  0  0
   -3.6567    0.1963   -0.4279 N   0  0  0  0  0  0  0  0  0  0  0  0
   -4.8301    0.6806    0.3177 C   0  0  1  0  0  0  0  0  0  0  0  0
   -4.4706    1.7447    1.2745 C   0  0  0  0  0  0  0  0  0  0  0  0
   -3.4859    1.3700    2.3464 C   0  0  0  0  0  0  0  0  0  0  0  0
   -3.2882    2.6518    3.1734 C   0  0  0  0  0  0  0  0  0  0  0  0
   -4.0680    0.3761    3.3266 C   0  0  0  0  0  0  0  0  0  0  0  0
   -5.7092    1.3903   -0.7403 C   0  0  0  0  0  0  0  0  0  0  0  0
   -5.4250    1.6920   -1.8855 O   0  0  0  0  0  0  0  0  0  0  0  0
   -7.0785    1.7195   -0.2472 C   0  0  1  0  0  0  0  0  0  0  0  0
   -7.5143    1.4038    1.1454 C   0  0  0  0  0  0  0  0  0  0  0  0
   -7.7112    2.9247   -0.8921 C   0  0  0  0  0  0  0  0  0  0  0  0
   -8.1194    1.6169   -1.1891 O   0  0  0  0  0  0  0  0  0  0  0  0
   -2.0962   -4.0229    0.7520 H   0  0  0  0  0  0  0  0  0  0  0  0
   -1.2103   -4.3222    2.2629 H   0  0  0  0  0  0  0  0  0  0  0  0
   -0.2726   -3.8042    0.8457 H   0  0  0  0  0  0  0  0  0  0  0  0
   -2.2483   -1.7991    1.3163 H   0  0  0  0  0  0  0  0  0  0  0  0
   -2.7073   -2.1242    3.4278 H   0  0  0  0  0  0  0  0  0  0  0  0
   -1.3272   -3.2101    3.7179 H   0  0  0  0  0  0  0  0  0  0  0  0
   -1.0624   -1.3863    3.7273 H   0  0  0  0  0  0  0  0  0  0  0  0
    0.6480   -1.8842    2.2948 H   0  0  0  0  0  0  0  0  0  0  0  0
   -0.2869   -0.4222    2.0183 H   0  0  0  0  0  0  0  0  0  0  0  0
    0.7711   -2.3492   -0.1102 H   0  0  0  0  0  0  0  0  0  0  0  0
    1.6409    0.4791    0.7311 H   0  0  0  0  0  0  0  0  0  0  0  0
    4.7898   -0.2791   -0.7433 H   0  0  0  0  0  0  0  0  0  0  0  0
    6.1080   -0.2091    1.3286 H   0  0  0  0  0  0  0  0  0  0  0  0
    4.7283   -0.9065    2.2186 H   0  0  0  0  0  0  0  0  0  0  0  0
    6.1512   -2.3304   -0.0891 H   0  0  0  0  0  0  0  0  0  0  0  0
    4.7432   -2.9750    0.8809 H   0  0  0  0  0  0  0  0  0  0  0  0
    4.9995   -3.5277    3.2168 H   0  0  0  0  0  0  0  0  0  0  0  0
    6.6865   -4.3378    4.9133 H   0  0  0  0  0  0  0  0  0  0  0  0
    9.0336   -4.0491    4.5481 H   0  0  0  0  0  0  0  0  0  0  0  0
    9.8530   -2.9392    2.4795 H   0  0  0  0  0  0  0  0  0  0  0  0
    8.2656   -2.1273    0.7892 H   0  0  0  0  0  0  0  0  0  0  0  0
    3.5867    1.2256    1.5653 H   0  0  0  0  0  0  0  0  0  0  0  0
    3.2917    3.7626    0.4987 H   0  0  0  0  0  0  0  0  0  0  0  0
    4.9086    3.6239    1.2457 H   0  0  0  0  0  0  0  0  0  0  0  0
    3.0528    4.8149   -1.5537 H   0  0  0  0  0  0  0  0  0  0  0  0
    4.1428    3.5854   -2.3970 H   0  0  0  0  0  0  0  0  0  0  0  0
    4.3635    5.3836   -3.7651 H   0  0  0  0  0  0  0  0  0  0  0  0
    4.0031    6.6107   -2.5251 H   0  0  0  0  0  0  0  0  0  0  0  0
    6.4081    3.8496   -2.7831 H   0  0  0  0  0  0  0  0  0  0  0  0
    7.7191    5.0070   -2.2642 H   0  0  0  0  0  0  0  0  0  0  0  0
    6.6362    3.4391   -0.5393 H   0  0  0  0  0  0  0  0  0  0  0  0
    6.8389    5.1184   -0.0420 H   0  0  0  0  0  0  0  0  0  0  0  0
   -1.8248   -2.0698   -0.9049 H   0  0  0  0  0  0  0  0  0  0  0  0
   -2.3996   -0.2748   -2.9855 H   0  0  0  0  0  0  0  0  0  0  0  0
   -1.7864   -2.5619   -3.5587 H   0  0  0  0  0  0  0  0  0  0  0  0
   -2.7972   -3.2668   -2.3008 H   0  0  0  0  0  0  0  0  0  0  0  0
   -2.6396   -1.5495   -5.5348 H   0  0  0  0  0  0  0  0  0  0  0  0
   -4.3273   -1.6371   -7.2642 H   0  0  0  0  0  0  0  0  0  0  0  0
   -6.5618   -2.6148   -6.8202 H   0  0  0  0  0  0  0  0  0  0  0  0
   -7.0176   -3.4848   -4.6108 H   0  0  0  0  0  0  0  0  0  0  0  0
   -5.3269   -3.4377   -2.7594 H   0  0  0  0  0  0  0  0  0  0  0  0
   -2.7161    0.5216   -0.0725 H   0  0  0  0  0  0  0  0  0  0  0  0
   -5.4129   -0.1764    0.6006 H   0  0  0  0  0  0  0  0  0  0  0  0
   -3.9256    2.5509    0.6682 H   0  0  0  0  0  0  0  0  0  0  0  0
   -5.2887    2.3058    1.7469 H   0  0  0  0  0  0  0  0  0  0  0  0
   -2.5214    1.0320    1.9755 H   0  0  0  0  0  0  0  0  0  0  0  0
   -4.2800    2.8516    3.6484 H   0  0  0  0  0  0  0  0  0  0  0  0
   -3.1089    3.5131    2.4974 H   0  0  0  0  0  0  0  0  0  0  0  0
   -2.5460    2.5300    3.9645 H   0  0  0  0  0  0  0  0  0  0  0  0
   -3.2481    0.1122    4.0282 H   0  0  0  0  0  0  0  0  0  0  0  0
   -4.4316   -0.5456    2.8741 H   0  0  0  0  0  0  0  0  0  0  0  0
   -4.8180    0.9019    3.9712 H   0  0  0  0  0  0  0  0  0  0  0  0
   -8.5165    0.8629    1.1497 H   0  0  0  0  0  0  0  0  0  0  0  0
   -7.6894    2.2940    1.7639 H   0  0  0  0  0  0  0  0  0  0  0  0
   -6.8664    0.6611    1.6931 H   0  0  0  0  0  0  0  0  0  0  0  0
   -7.2196    3.4075   -1.7727 H   0  0  0  0  0  0  0  0  0  0  0  0
   -8.4342    3.5573   -0.3364 H   0  0  0  0  0  0  0  0  0  0  0  0
  1  2  1  0
  2  3  1  0
  2  4  1  0
  4  5  1  0
  5  6  1  0
  6  7  1  0
  7  8  2  0
  7  9  1  0
  9 10  1  0
 10 11  1  0
 11 12  1  0
 12 13  2  0
 13 14  1  0
 14 15  2  0
 15 16  1  0
 16 17  2  0
  9 18  1  0
 18 19  1  0
 19 20  2  0
 19 21  1  0
 21 22  1  0
 22 23  1  0
 23 24  1  0
 24 25  1  0
 25 26  1  0
 26 27  1  0
  5 28  1  0
 28 29  2  0
 28 30  1  0
 30 31  1  0
 31 32  1  0
 32 33  1  0
 33 34  2  0
 34 35  1  0
 35 36  2  0
 36 37  1  0
 37 38  2  0
 31 39  1  0
 39 40  2  0
 39 41  1  0
 41 42  1  0
 42 43  1  0
 43 44  1  0
 44 45  1  0
 44 46  1  0
 42 47  1  0
 47 48  2  0
 47 49  1  0
 49 50  1  1
 49 51  1  0
 51 52  1  0
 17 12  1  0
 27 22  1  0
 38 33  1  0
 52 49  1  0
  1 53  1  0
  1 54  1  0
  1 55  1  0
  2 56  1  0
  3 57  1  0
  3 58  1  0
  3 59  1  0
  4 60  1  0
  4 61  1  0
  5 62  1  6
  6 63  1  0
  9 64  1  6
 10 65  1  0
 10 66  1  0
 11 67  1  0
 11 68  1  0
 13 69  1  0
 14 70  1  0
 15 71  1  0
 16 72  1  0
 17 73  1  0
 18 74  1  0
 21 75  1  0
 21 76  1  0
 23 77  1  0
 23 78  1  0
 24 79  1  0
 24 80  1  0
 26 81  1  0
 26 82  1  0
 27 83  1  0
 27 84  1  0
 30 85  1  0
 31 86  1  6
 32 87  1  0
 32 88  1  0
 34 89  1  0
 35 90  1  0
 36 91  1  0
 37 92  1  0
 38 93  1  0
 41 94  1  0
 42 95  1  1
 43 96  1  0
 43 97  1  0
 44 98  1  0
 45 99  1  0
 45100  1  0
 45101  1  0
 46102  1  0
 46103  1  0
 46104  1  0
 50105  1  0
 50106  1  0
 50107  1  0
 51108  1  0
 51109  1  0
M  END
$$$$
