
     RDKit          3D

 43 44  0  0  0  0  0  0  0  0999 V2000
   -7.1259    0.7003    0.6210 C   0  0  0  0  0  0  0  0  0  0  0  0
   -5.9152    0.0599    0.0539 C   0  0  0  0  0  0  0  0  0  0  0  0
   -4.7734    0.8208   -0.1975 C   0  0  0  0  0  0  0  0  0  0  0  0
   -3.6688    0.2231   -0.7176 N   0  0  0  0  0  0  0  0  0  0  0  0
   -2.5696    1.1232   -0.9249 C   0  0  2  0  0  0  0  0  0  0  0  0
   -1.3881    0.4982   -1.3161 O   0  0  0  0  0  0  0  0  0  0  0  0
   -0.3701    1.3480   -0.9657 C   0  0  2  0  0  0  0  0  0  0  0  0
    0.9293    0.6047   -0.6771 C   0  0  0  0  0  0  0  0  0  0  0  0
    0.7454   -0.2919    0.3740 O   0  0  0  0  0  0  0  0  0  0  0  0
    2.1662   -1.1460    0.7349 P   0  0  1  0  0  5  0  0  0  0  0  0
    2.8011   -0.7096    2.2171 O   0  0  0  0  0  0  0  0  0  0  0  0
    1.8330   -2.6339    0.7699 O   0  0  0  0  0  0  0  0  0  0  0  0
    3.2748   -0.7880   -0.4692 O   0  0  0  0  0  0  0  0  0  0  0  0
    4.8048   -0.6535    0.2340 P   0  0  2  0  0  5  0  0  0  0  0  0
    4.9605   -1.7455    1.5237 O   0  0  0  0  0  0  0  0  0  0  0  0
    5.0011    0.7749    0.7494 O   0  0  0  0  0  0  0  0  0  0  0  0
    5.9467   -1.0370   -0.9566 O   0  0  0  0  0  0  0  0  0  0  0  0
    7.4869   -0.7073   -0.3213 P   0  0  0  0  0  0  0  0  0  0  0  0
    8.5780   -1.7522   -1.0632 O   0  0  0  0  0  0  0  0  0  0  0  0
    7.8715    0.8809   -0.7781 O   0  0  0  0  0  0  0  0  0  0  0  0
    7.4495   -0.8736    1.1771 O   0  0  0  0  0  0  0  0  0  0  0  0
   -0.7999    1.8987    0.3661 C   0  0  0  0  0  0  0  0  0  0  0  0
   -2.1283    1.7552    0.3735 C   0  0  0  0  0  0  0  0  0  0  0  0
   -3.7243   -1.0863   -0.9697 C   0  0  0  0  0  0  0  0  0  0  0  0
   -2.6605   -1.5623   -1.4500 O   0  0  0  0  0  0  0  0  0  0  0  0
   -4.8072   -1.8206   -0.7339 N   0  0  0  0  0  0  0  0  0  0  0  0
   -5.9456   -1.3072   -0.2191 C   0  0  0  0  0  0  0  0  0  0  0  0
   -6.9830   -1.9632    0.0167 O   0  0  0  0  0  0  0  0  0  0  0  0
   -6.9974    1.8169    0.5549 H   0  0  0  0  0  0  0  0  0  0  0  0
   -7.2361    0.5014    1.7262 H   0  0  0  0  0  0  0  0  0  0  0  0
   -8.0604    0.4509    0.0904 H   0  0  0  0  0  0  0  0  0  0  0  0
   -4.8294    1.8772    0.0420 H   0  0  0  0  0  0  0  0  0  0  0  0
   -2.8389    1.9742   -1.5834 H   0  0  0  0  0  0  0  0  0  0  0  0
   -0.1944    2.1389   -1.7152 H   0  0  0  0  0  0  0  0  0  0  0  0
    1.2019    0.0958   -1.6179 H   0  0  0  0  0  0  0  0  0  0  0  0
    1.7461    1.3239   -0.4662 H   0  0  0  0  0  0  0  0  0  0  0  0
    2.6798    0.2521    2.4408 H   0  0  0  0  0  0  0  0  0  0  0  0
    5.3174   -1.3113    2.3480 H   0  0  0  0  0  0  0  0  0  0  0  0
    8.2394   -2.6813   -0.9809 H   0  0  0  0  0  0  0  0  0  0  0  0
    8.0127    1.4491    0.0202 H   0  0  0  0  0  0  0  0  0  0  0  0
   -0.3381    2.3377    1.2296 H   0  0  0  0  0  0  0  0  0  0  0  0
   -2.8859    1.9972    1.0986 H   0  0  0  0  0  0  0  0  0  0  0  0
   -4.8058   -2.8326   -0.9445 H   0  0  0  0  0  0  0  0  0  0  0  0
  1  2  1  0
  2  3  2  0
  3  4  1  0
  4  5  1  0
  5  6  1  0
  6  7  1  0
  7  8  1  0
  8  9  1  0
 10  9  1  6
 10 11  1  0
 10 12  2  0
 10 13  1  0
 14 13  1  6
 14 15  1  0
 14 16  2  0
 14 17  1  0
 17 18  1  0
 18 19  1  0
 18 20  1  0
 18 21  2  0
  7 22  1  0
 22 23  2  0
  4 24  1  0
 24 25  2  0
 24 26  1  0
 26 27  1  0
 27 28  2  0
 27  2  1  0
 23  5  1  0
  1 29  1  0
  1 30  1  0
  1 31  1  0
  3 32  1  0
  5 33  1  6
  7 34  1  6
  8 35  1  0
  8 36  1  0
 11 37  1  0
 15 38  1  0
 19 39  1  0
 20 40  1  0
 22 41  1  0
 23 42  1  0
 26 43  1  0
M  END
$$$$
