
     RDKit          3D

 37 39  0  0  0  0  0  0  0  0999 V2000
   -2.8331    2.4158   -0.4976 C   0  0  0  0  0  0  0  0  0  0  0  0
   -3.1426    1.1139    0.0941 C   0  0  0  0  0  0  0  0  0  0  0  0
   -4.3231    0.8592    0.7521 C   0  0  0  0  0  0  0  0  0  0  0  0
   -4.5969   -0.3738    1.3031 C   0  0  0  0  0  0  0  0  0  0  0  0
   -3.6769   -1.3413    1.1861 N   0  0  0  0  0  0  0  0  0  0  0  0
   -2.5039   -1.1708    0.5603 C   0  0  0  0  0  0  0  0  0  0  0  0
   -1.5939   -2.2091    0.4721 C   0  0  0  0  0  0  0  0  0  0  0  0
   -1.9152   -3.4643    1.0537 N   0  0  0  0  0  0  0  0  0  0  0  0
   -0.4147   -1.9482   -0.1873 C   0  0  0  0  0  0  0  0  0  0  0  0
   -0.1271   -0.7205   -0.7433 C   0  0  0  0  0  0  0  0  0  0  0  0
    1.1393   -0.4700   -1.4415 C   0  0  0  0  0  0  0  0  0  0  0  0
    2.2031    0.0261   -0.5440 C   0  0  0  0  0  0  0  0  0  0  0  0
    2.0382    0.2340    0.7923 C   0  0  0  0  0  0  0  0  0  0  0  0
    3.0454    0.6880    1.5606 N   0  0  0  0  0  0  0  0  0  0  0  0
    4.2647    0.9549    1.0254 C   0  0  0  0  0  0  0  0  0  0  0  0
    5.3120    1.4363    1.8726 N   0  0  0  0  0  0  0  0  0  0  0  0
    4.4393    0.7551   -0.2841 N   0  0  0  0  0  0  0  0  0  0  0  0
    3.4399    0.2961   -1.0904 C   0  0  0  0  0  0  0  0  0  0  0  0
    3.7006    0.1070   -2.4797 N   0  0  0  0  0  0  0  0  0  0  0  0
   -1.0429    0.2905   -0.6430 C   0  0  0  0  0  0  0  0  0  0  0  0
   -2.2296    0.0844    0.0015 C   0  0  0  0  0  0  0  0  0  0  0  0
   -3.7656    3.0233   -0.4760 H   0  0  0  0  0  0  0  0  0  0  0  0
   -2.0991    3.0072    0.1255 H   0  0  0  0  0  0  0  0  0  0  0  0
   -2.5241    2.3742   -1.5603 H   0  0  0  0  0  0  0  0  0  0  0  0
   -5.0437    1.6417    0.8354 H   0  0  0  0  0  0  0  0  0  0  0  0
   -5.5533   -0.5575    1.8285 H   0  0  0  0  0  0  0  0  0  0  0  0
   -2.3028   -4.2245    0.4266 H   0  0  0  0  0  0  0  0  0  0  0  0
   -1.8005   -3.6980    2.0469 H   0  0  0  0  0  0  0  0  0  0  0  0
    0.3114   -2.7599   -0.2634 H   0  0  0  0  0  0  0  0  0  0  0  0
    0.9663    0.2998   -2.2177 H   0  0  0  0  0  0  0  0  0  0  0  0
    1.4637   -1.3959   -1.9681 H   0  0  0  0  0  0  0  0  0  0  0  0
    1.0840    0.0347    1.2604 H   0  0  0  0  0  0  0  0  0  0  0  0
    5.5784    0.9637    2.7417 H   0  0  0  0  0  0  0  0  0  0  0  0
    5.8018    2.3036    1.5632 H   0  0  0  0  0  0  0  0  0  0  0  0
    4.1474   -0.7286   -2.8829 H   0  0  0  0  0  0  0  0  0  0  0  0
    3.4234    0.8652   -3.1578 H   0  0  0  0  0  0  0  0  0  0  0  0
   -0.8702    1.2878   -1.0651 H   0  0  0  0  0  0  0  0  0  0  0  0
  1  2  1  0
  2  3  2  0
  3  4  1  0
  4  5  2  0
  5  6  1  0
  6  7  2  0
  7  8  1  0
  7  9  1  0
  9 10  2  0
 10 11  1  0
 11 12  1  0
 12 13  2  0
 13 14  1  0
 14 15  2  0
 15 16  1  0
 15 17  1  0
 17 18  2  0
 18 19  1  0
 10 20  1  0
 20 21  2  0
 21  2  1  0
 21  6  1  0
 18 12  1  0
  1 22  1  0
  1 23  1  0
  1 24  1  0
  3 25  1  0
  4 26  1  0
  8 27  1  0
  8 28  1  0
  9 29  1  0
 11 30  1  0
 11 31  1  0
 13 32  1  0
 16 33  1  0
 16 34  1  0
 19 35  1  0
 19 36  1  0
 20 37  1  0
M  END
$$$$
