
     RDKit          3D

 68 73  0  0  0  0  0  0  0  0999 V2000
   -7.9131   -2.7796    0.2871 C   0  0  0  0  0  0  0  0  0  0  0  0
   -6.4995   -2.5355    0.1451 N   0  0  0  0  0  0  0  0  0  0  0  0
   -5.7270   -3.3468   -0.7551 C   0  0  0  0  0  0  0  0  0  0  0  0
   -5.8892   -1.5126    0.8900 C   0  0  0  0  0  0  0  0  0  0  0  0
   -6.5571   -0.7925    1.6983 O   0  0  0  0  0  0  0  0  0  0  0  0
   -4.4618   -1.2719    0.7320 C   0  0  0  0  0  0  0  0  0  0  0  0
   -3.4275   -2.1278    1.0452 C   0  0  0  0  0  0  0  0  0  0  0  0
   -2.2365   -1.4952    0.7153 C   0  0  0  0  0  0  0  0  0  0  0  0
   -0.9521   -1.9156    0.8262 C   0  0  0  0  0  0  0  0  0  0  0  0
    0.0118   -1.0823    0.4146 N   0  0  0  0  0  0  0  0  0  0  0  0
   -0.2427    0.1226   -0.0912 C   0  0  0  0  0  0  0  0  0  0  0  0
    0.7839    0.9683   -0.5250 N   0  0  0  0  0  0  0  0  0  0  0  0
    2.1675    0.7911   -0.3453 C   0  0  0  0  0  0  0  0  0  0  0  0
    2.7834   -0.1872    0.3708 C   0  0  0  0  0  0  0  0  0  0  0  0
    4.1823   -0.2396    0.4161 C   0  0  0  0  0  0  0  0  0  0  0  0
    4.9755    0.6713   -0.2433 C   0  0  0  0  0  0  0  0  0  0  0  0
    6.3837    0.6310   -0.1763 N   0  0  0  0  0  0  0  0  0  0  0  0
    7.1678    0.7322   -1.3941 C   0  0  0  0  0  0  0  0  0  0  0  0
    8.5276    0.0842   -1.1855 C   0  0  0  0  0  0  0  0  0  0  0  0
    8.4403   -1.3514   -0.7549 C   0  0  0  0  0  0  0  0  0  0  0  0
    8.6616   -1.3200    0.7523 C   0  0  0  0  0  0  0  0  0  0  0  0
    8.4543    0.1579    1.0709 C   0  0  0  0  0  0  0  0  0  0  0  0
    6.9975    0.5117    1.1225 C   0  0  0  0  0  0  0  0  0  0  0  0
    9.1512    0.7855   -0.0523 N   0  0  0  0  0  0  0  0  0  0  0  0
    4.3108    1.6189   -0.9371 N   0  0  0  0  0  0  0  0  0  0  0  0
    3.0061    1.6696   -0.9804 N   0  0  0  0  0  0  0  0  0  0  0  0
   -1.5506    0.5199   -0.1886 N   0  0  0  0  0  0  0  0  0  0  0  0
   -2.5730   -0.2623    0.2047 C   0  0  0  0  0  0  0  0  0  0  0  0
   -3.9144   -0.1352    0.2200 N   0  0  0  0  0  0  0  0  0  0  0  0
   -4.6373    1.0325   -0.1996 C   0  0  0  0  0  0  0  0  0  0  0  0
   -4.5817    1.3467   -1.6543 C   0  0  0  0  0  0  0  0  0  0  0  0
   -5.3115    2.6648   -1.8659 C   0  0  0  0  0  0  0  0  0  0  0  0
   -6.0689    3.1174   -0.6435 C   0  0  0  0  0  0  0  0  0  0  0  0
   -5.1980    3.2762    0.5774 C   0  0  0  0  0  0  0  0  0  0  0  0
   -4.0936    2.2648    0.5444 C   0  0  0  0  0  0  0  0  0  0  0  0
   -8.3731   -1.9943    0.9490 H   0  0  0  0  0  0  0  0  0  0  0  0
   -8.1247   -3.7848    0.7022 H   0  0  0  0  0  0  0  0  0  0  0  0
   -8.3738   -2.6591   -0.7219 H   0  0  0  0  0  0  0  0  0  0  0  0
   -5.2619   -4.2270   -0.2607 H   0  0  0  0  0  0  0  0  0  0  0  0
   -4.8915   -2.7397   -1.1564 H   0  0  0  0  0  0  0  0  0  0  0  0
   -6.3230   -3.7184   -1.6179 H   0  0  0  0  0  0  0  0  0  0  0  0
   -3.5093   -3.1264    1.4768 H   0  0  0  0  0  0  0  0  0  0  0  0
   -0.6728   -2.8901    1.2329 H   0  0  0  0  0  0  0  0  0  0  0  0
    0.4574    1.8417   -1.0489 H   0  0  0  0  0  0  0  0  0  0  0  0
    2.2014   -0.9041    0.8974 H   0  0  0  0  0  0  0  0  0  0  0  0
    4.6022   -1.0391    1.0001 H   0  0  0  0  0  0  0  0  0  0  0  0
    6.6645    0.1457   -2.1991 H   0  0  0  0  0  0  0  0  0  0  0  0
    7.3371    1.7909   -1.6738 H   0  0  0  0  0  0  0  0  0  0  0  0
    9.1877    0.2078   -2.0461 H   0  0  0  0  0  0  0  0  0  0  0  0
    7.4665   -1.8248   -0.9910 H   0  0  0  0  0  0  0  0  0  0  0  0
    9.2873   -1.9132   -1.1953 H   0  0  0  0  0  0  0  0  0  0  0  0
    7.9332   -1.9326    1.3079 H   0  0  0  0  0  0  0  0  0  0  0  0
    9.6845   -1.5934    1.0425 H   0  0  0  0  0  0  0  0  0  0  0  0
    8.9235    0.4091    2.0333 H   0  0  0  0  0  0  0  0  0  0  0  0
    6.9199    1.5110    1.6389 H   0  0  0  0  0  0  0  0  0  0  0  0
    6.4346   -0.1991    1.7630 H   0  0  0  0  0  0  0  0  0  0  0  0
   10.1587    0.5333    0.0473 H   0  0  0  0  0  0  0  0  0  0  0  0
   -5.7166    0.9171    0.0757 H   0  0  0  0  0  0  0  0  0  0  0  0
   -4.9346    0.5622   -2.3248 H   0  0  0  0  0  0  0  0  0  0  0  0
   -3.5101    1.5459   -1.9403 H   0  0  0  0  0  0  0  0  0  0  0  0
   -6.0622    2.4912   -2.6605 H   0  0  0  0  0  0  0  0  0  0  0  0
   -4.6428    3.4646   -2.2515 H   0  0  0  0  0  0  0  0  0  0  0  0
   -6.4735    4.1263   -0.8824 H   0  0  0  0  0  0  0  0  0  0  0  0
   -6.9282    2.4513   -0.5052 H   0  0  0  0  0  0  0  0  0  0  0  0
   -4.8097    4.2927    0.7205 H   0  0  0  0  0  0  0  0  0  0  0  0
   -5.8386    3.0229    1.4666 H   0  0  0  0  0  0  0  0  0  0  0  0
   -3.7291    1.9661    1.5479 H   0  0  0  0  0  0  0  0  0  0  0  0
   -3.2525    2.6549   -0.0388 H   0  0  0  0  0  0  0  0  0  0  0  0
  1  2  1  0
  2  3  1  0
  2  4  1  0
  4  5  2  0
  4  6  1  0
  6  7  2  0
  7  8  1  0
  8  9  2  0
  9 10  1  0
 10 11  2  0
 11 12  1  0
 12 13  1  0
 13 14  2  0
 14 15  1  0
 15 16  2  0
 16 17  1  0
 17 18  1  0
 18 19  1  0
 19 20  1  0
 20 21  1  0
 21 22  1  0
 22 23  1  0
 22 24  1  0
 16 25  1  0
 25 26  2  0
 11 27  1  0
 27 28  2  0
 28 29  1  0
 29 30  1  0
 30 31  1  0
 31 32  1  0
 32 33  1  0
 33 34  1  0
 34 35  1  0
 29  6  1  0
 35 30  1  0
 28  8  1  0
 26 13  1  0
 23 17  1  0
 24 19  1  0
  1 36  1  0
  1 37  1  0
  1 38  1  0
  3 39  1  0
  3 40  1  0
  3 41  1  0
  7 42  1  0
  9 43  1  0
 12 44  1  0
 14 45  1  0
 15 46  1  0
 18 47  1  0
 18 48  1  0
 19 49  1  0
 20 50  1  0
 20 51  1  0
 21 52  1  0
 21 53  1  0
 22 54  1  0
 23 55  1  0
 23 56  1  0
 24 57  1  0
 30 58  1  0
 31 59  1  0
 31 60  1  0
 32 61  1  0
 32 62  1  0
 33 63  1  0
 33 64  1  0
 34 65  1  0
 34 66  1  0
 35 67  1  0
 35 68  1  0
M  END
$$$$
