
     RDKit          3D

 52 55  0  0  0  0  0  0  0  0999 V2000
   -1.8885   -1.6436    2.0934 C   0  0  0  0  0  0  0  0  0  0  0  0
   -1.4693   -0.2428    1.6453 C   0  0  0  0  0  0  0  0  0  0  0  0
   -0.0488   -0.1145    2.0664 C   0  0  0  0  0  0  0  0  0  0  0  0
    0.9954    0.1292    1.1758 C   0  0  0  0  0  0  0  0  0  0  0  0
    2.2955    0.2428    1.5454 C   0  0  0  0  0  0  0  0  0  0  0  0
    3.3718    0.4902    0.6582 N   0  0  0  0  0  0  0  0  0  0  0  0
    3.3323    0.6641   -0.7294 C   0  0  0  0  0  0  0  0  0  0  0  0
    2.2284    0.6028   -1.3134 O   0  0  0  0  0  0  0  0  0  0  0  0
    4.5382    0.9142   -1.5128 C   0  0  0  0  0  0  0  0  0  0  0  0
    4.5201    1.0864   -2.8642 C   0  0  0  0  0  0  0  0  0  0  0  0
    5.6658    1.3236   -3.6037 C   0  0  0  0  0  0  0  0  0  0  0  0
    6.8458    1.3794   -2.9049 C   0  0  0  0  0  0  0  0  0  0  0  0
    7.9826    1.6107   -3.6071 F   0  0  0  0  0  0  0  0  0  0  0  0
    6.8763    1.2084   -1.5506 C   0  0  0  0  0  0  0  0  0  0  0  0
    5.7118    0.9778   -0.8800 N   0  0  0  0  0  0  0  0  0  0  0  0
    2.5569    0.0989    2.9193 C   0  0  0  0  0  0  0  0  0  0  0  0
    1.5527   -0.1416    3.8243 C   0  0  0  0  0  0  0  0  0  0  0  0
    0.2334   -0.2509    3.4032 C   0  0  0  0  0  0  0  0  0  0  0  0
   -0.6896   -0.4813    4.3636 F   0  0  0  0  0  0  0  0  0  0  0  0
   -1.5382   -0.1391    0.1589 C   0  0  0  0  0  0  0  0  0  0  0  0
   -2.9280   -0.3322   -0.4245 C   0  0  0  0  0  0  0  0  0  0  0  0
   -3.2054    0.7983   -1.3923 C   0  0  0  0  0  0  0  0  0  0  0  0
   -4.1986    0.4455   -2.4465 C   0  0  0  0  0  0  0  0  0  0  0  0
   -3.6111   -0.6096   -3.1846 O   0  0  0  0  0  0  0  0  0  0  0  0
   -3.7267   -1.7273   -2.3819 C   0  0  0  0  0  0  0  0  0  0  0  0
   -3.0155   -1.6645   -1.0790 C   0  0  0  0  0  0  0  0  0  0  0  0
   -4.1892   -0.1408    0.9028 S   0  0  0  0  0  0  0  0  0  0  0  0
   -3.4410    0.9377    2.1017 C   0  0  0  0  0  0  0  0  0  0  0  0
   -4.2201    1.9148    2.7414 N   0  0  0  0  0  0  0  0  0  0  0  0
   -2.2017    0.7944    2.3524 N   0  0  0  0  0  0  0  0  0  0  0  0
   -1.8318   -2.3493    1.2229 H   0  0  0  0  0  0  0  0  0  0  0  0
   -1.2070   -2.0765    2.8413 H   0  0  0  0  0  0  0  0  0  0  0  0
   -2.9156   -1.6867    2.4737 H   0  0  0  0  0  0  0  0  0  0  0  0
    0.7122    0.2258    0.1543 H   0  0  0  0  0  0  0  0  0  0  0  0
    4.3681    0.5604    1.0699 H   0  0  0  0  0  0  0  0  0  0  0  0
    3.5647    1.0359   -3.3889 H   0  0  0  0  0  0  0  0  0  0  0  0
    5.6768    1.4616   -4.6629 H   0  0  0  0  0  0  0  0  0  0  0  0
    7.7979    1.2496   -0.9860 H   0  0  0  0  0  0  0  0  0  0  0  0
    3.5993    0.1877    3.2331 H   0  0  0  0  0  0  0  0  0  0  0  0
    1.8083   -0.2449    4.8758 H   0  0  0  0  0  0  0  0  0  0  0  0
   -0.8682   -0.9605   -0.2334 H   0  0  0  0  0  0  0  0  0  0  0  0
   -1.1773    0.8720   -0.1164 H   0  0  0  0  0  0  0  0  0  0  0  0
   -2.2295    1.0049   -1.9115 H   0  0  0  0  0  0  0  0  0  0  0  0
   -3.4491    1.7344   -0.8533 H   0  0  0  0  0  0  0  0  0  0  0  0
   -4.3932    1.3248   -3.0602 H   0  0  0  0  0  0  0  0  0  0  0  0
   -5.0931    0.0076   -1.9648 H   0  0  0  0  0  0  0  0  0  0  0  0
   -3.2707   -2.5768   -2.9720 H   0  0  0  0  0  0  0  0  0  0  0  0
   -4.7874   -2.0370   -2.2415 H   0  0  0  0  0  0  0  0  0  0  0  0
   -3.5928   -2.3342   -0.3731 H   0  0  0  0  0  0  0  0  0  0  0  0
   -2.0120   -2.1373   -1.1568 H   0  0  0  0  0  0  0  0  0  0  0  0
   -4.0669    2.9379    2.5763 H   0  0  0  0  0  0  0  0  0  0  0  0
   -4.9681    1.5894    3.3965 H   0  0  0  0  0  0  0  0  0  0  0  0
  1  2  1  0
  2  3  1  0
  3  4  2  0
  4  5  1  0
  5  6  1  0
  6  7  1  0
  7  8  2  0
  7  9  1  0
  9 10  2  0
 10 11  1  0
 11 12  2  0
 12 13  1  0
 12 14  1  0
 14 15  2  0
  5 16  2  0
 16 17  1  0
 17 18  2  0
 18 19  1  0
  2 20  1  0
 20 21  1  0
 21 22  1  0
 22 23  1  0
 23 24  1  0
 24 25  1  0
 25 26  1  0
 21 27  1  0
 27 28  1  0
 28 29  1  0
 28 30  2  0
 30  2  1  0
 18  3  1  0
 26 21  1  0
 15  9  1  0
  1 31  1  0
  1 32  1  0
  1 33  1  0
  4 34  1  0
  6 35  1  0
 10 36  1  0
 11 37  1  0
 14 38  1  0
 16 39  1  0
 17 40  1  0
 20 41  1  0
 20 42  1  0
 22 43  1  0
 22 44  1  0
 23 45  1  0
 23 46  1  0
 25 47  1  0
 25 48  1  0
 26 49  1  0
 26 50  1  0
 29 51  1  0
 29 52  1  0
M  END
$$$$
