
     RDKit          3D

 47 49  0  0  0  0  0  0  0  0999 V2000
   -6.8135   -0.9094    0.4702 C   0  0  0  0  0  0  0  0  0  0  0  0
   -5.7225   -1.4280    1.0531 O   0  0  0  0  0  0  0  0  0  0  0  0
   -4.4883   -1.3172    0.5488 C   0  0  0  0  0  0  0  0  0  0  0  0
   -3.9345    0.0798    0.3211 C   0  0  2  0  0  0  0  0  0  0  0  0
   -4.6297    0.7685   -0.8215 C   0  0  0  0  0  0  0  0  0  0  0  0
   -3.5407    1.2666   -1.7214 C   0  0  0  0  0  0  0  0  0  0  0  0
   -2.2791    1.0340   -0.9592 C   0  0  0  0  0  0  0  0  0  0  0  0
   -2.5558   -0.1350   -0.1342 N   0  0  0  0  0  0  0  0  0  0  0  0
   -1.5372   -0.0419    1.2632 S   0  0  0  0  0  6  0  0  0  0  0  0
   -1.7446    1.3013    1.9029 O   0  0  0  0  0  0  0  0  0  0  0  0
   -1.8008   -1.1372    2.2172 O   0  0  0  0  0  0  0  0  0  0  0  0
    0.1395   -0.0771    0.6961 C   0  0  0  0  0  0  0  0  0  0  0  0
    0.8008   -1.2533    0.5493 C   0  0  0  0  0  0  0  0  0  0  0  0
    2.1275   -1.2878    0.1012 C   0  0  0  0  0  0  0  0  0  0  0  0
    2.9821   -3.1705   -0.1099 I   0  0  0  0  0  0  0  0  0  0  0  0
    2.8086   -0.1333   -0.2050 C   0  0  0  0  0  0  0  0  0  0  0  0
    2.1187    1.0443   -0.0495 C   0  0  0  0  0  0  0  0  0  0  0  0
    0.8084    1.0866    0.3921 C   0  0  0  0  0  0  0  0  0  0  0  0
    2.9772    2.1615   -0.4263 C   0  0  0  0  0  0  0  0  0  0  0  0
    2.6942    3.3923   -0.4162 O   0  0  0  0  0  0  0  0  0  0  0  0
    4.2246    1.5415   -0.8137 C   0  0  0  0  0  0  0  0  0  0  0  0
    5.2251    2.1872   -1.2101 O   0  0  0  0  0  0  0  0  0  0  0  0
    4.1497    0.1107   -0.6839 N   0  0  0  0  0  0  0  0  0  0  0  0
    5.1761   -0.8485   -0.9563 C   0  0  0  0  0  0  0  0  0  0  0  0
    6.0795   -1.2295    0.1511 C   0  0  0  0  0  0  0  0  0  0  0  0
    6.8313   -0.0768    0.7337 C   0  0  0  0  0  0  0  0  0  0  0  0
    5.9874    0.8426    1.2835 F   0  0  0  0  0  0  0  0  0  0  0  0
   -6.7564    0.1946    0.4230 H   0  0  0  0  0  0  0  0  0  0  0  0
   -7.0535   -1.3444   -0.5396 H   0  0  0  0  0  0  0  0  0  0  0  0
   -7.7672   -1.1018    1.0496 H   0  0  0  0  0  0  0  0  0  0  0  0
   -4.3203   -1.9492   -0.3691 H   0  0  0  0  0  0  0  0  0  0  0  0
   -3.7750   -1.7882    1.2965 H   0  0  0  0  0  0  0  0  0  0  0  0
   -3.9584    0.6304    1.2623 H   0  0  0  0  0  0  0  0  0  0  0  0
   -5.1412    1.6658   -0.4050 H   0  0  0  0  0  0  0  0  0  0  0  0
   -5.3217    0.0800   -1.3666 H   0  0  0  0  0  0  0  0  0  0  0  0
   -3.6823    2.3375   -2.0052 H   0  0  0  0  0  0  0  0  0  0  0  0
   -3.5199    0.6281   -2.6577 H   0  0  0  0  0  0  0  0  0  0  0  0
   -2.1578    1.9057   -0.2519 H   0  0  0  0  0  0  0  0  0  0  0  0
   -1.3915    0.9123   -1.5787 H   0  0  0  0  0  0  0  0  0  0  0  0
    0.2591   -2.1686    0.7935 H   0  0  0  0  0  0  0  0  0  0  0  0
    0.2821    2.0285    0.5081 H   0  0  0  0  0  0  0  0  0  0  0  0
    4.8360   -1.6985   -1.5844 H   0  0  0  0  0  0  0  0  0  0  0  0
    5.8678   -0.3231   -1.6998 H   0  0  0  0  0  0  0  0  0  0  0  0
    5.6259   -1.7542    1.0149 H   0  0  0  0  0  0  0  0  0  0  0  0
    6.8715   -1.8989   -0.3122 H   0  0  0  0  0  0  0  0  0  0  0  0
    7.5731    0.3641    0.0403 H   0  0  0  0  0  0  0  0  0  0  0  0
    7.4458   -0.4912    1.5855 H   0  0  0  0  0  0  0  0  0  0  0  0
  1  2  1  0
  2  3  1  0
  3  4  1  0
  4  5  1  0
  5  6  1  0
  6  7  1  0
  7  8  1  0
  8  9  1  0
  9 10  2  0
  9 11  2  0
  9 12  1  0
 12 13  2  0
 13 14  1  0
 14 15  1  0
 14 16  2  0
 16 17  1  0
 17 18  2  0
 17 19  1  0
 19 20  2  0
 19 21  1  0
 21 22  2  0
 21 23  1  0
 23 24  1  0
 24 25  1  0
 25 26  1  0
 26 27  1  0
  8  4  1  0
 18 12  1  0
 23 16  1  0
  1 28  1  0
  1 29  1  0
  1 30  1  0
  3 31  1  0
  3 32  1  0
  4 33  1  1
  5 34  1  0
  5 35  1  0
  6 36  1  0
  6 37  1  0
  7 38  1  0
  7 39  1  0
 13 40  1  0
 18 41  1  0
 24 42  1  0
 24 43  1  0
 25 44  1  0
 25 45  1  0
 26 46  1  0
 26 47  1  0
M  END
$$$$
