
     RDKit          3D

 64 64  0  0  0  0  0  0  0  0999 V2000
    6.5807   -2.0256    0.9902 C   0  0  1  0  0  0  0  0  0  0  0  0
    5.6495   -2.7530    0.2187 N   0  0  0  0  0  0  0  0  0  0  0  0
    6.4319   -0.5531    1.0582 C   0  0  0  0  0  0  0  0  0  0  0  0
    5.1287   -0.0878    1.6439 C   0  0  0  0  0  0  0  0  0  0  0  0
    3.9288   -0.5003    0.9234 C   0  0  0  0  0  0  0  0  0  0  0  0
    3.3242   -1.7212    0.7387 O   0  0  0  0  0  0  0  0  0  0  0  0
    3.2747    0.4343    0.3262 N   0  0  0  0  0  0  0  0  0  0  0  0
    2.0844    0.3229   -0.4411 C   0  0  1  0  0  0  0  0  0  0  0  0
    0.8498    0.1701    0.4242 C   0  0  0  0  0  0  0  0  0  0  0  0
   -0.5676    0.0411   -0.6896 S   0  0  0  0  0  0  0  0  0  0  0  0
   -2.1142   -0.1351    0.2705 C   0  0  1  0  0  0  0  0  0  0  0  0
   -2.3295    1.1557    1.0227 C   0  0  0  0  0  0  0  0  0  0  0  0
   -3.3028    1.8639    0.0948 C   0  0  2  0  0  0  0  0  0  0  0  0
   -4.0658    2.7869    0.7763 O   0  0  0  0  0  0  0  0  0  0  0  0
   -4.0525    0.8664   -0.4858 O   0  0  0  0  0  0  0  0  0  0  0  0
   -3.2674   -0.2360   -0.7116 C   0  0  2  0  0  0  0  0  0  0  0  0
   -3.9605   -1.5584   -0.5083 C   0  0  0  0  0  0  0  0  0  0  0  0
   -5.1023   -1.7546   -1.4336 C   0  0  0  0  0  0  0  0  0  0  0  0
   -6.2086   -0.7622   -1.3361 C   0  0  0  0  0  0  0  0  0  0  0  0
   -6.8231   -0.7561    0.0522 C   0  0  0  0  0  0  0  0  0  0  0  0
   -7.3649   -2.1516    0.3143 C   0  0  0  0  0  0  0  0  0  0  0  0
    1.9078    1.5671   -1.2381 C   0  0  0  0  0  0  0  0  0  0  0  0
    0.7707    1.5949   -2.0448 O   0  0  0  0  0  0  0  0  0  0  0  0
    2.7553    2.5502   -1.1807 N   0  0  0  0  0  0  0  0  0  0  0  0
    2.4879    3.7101   -1.9954 C   0  0  0  0  0  0  0  0  0  0  0  0
    1.2276    4.3918   -1.6120 C   0  0  0  0  0  0  0  0  0  0  0  0
    0.8762    5.5232   -2.3361 O   0  0  0  0  0  0  0  0  0  0  0  0
    0.4282    4.0414   -0.6780 O   0  0  0  0  0  0  0  0  0  0  0  0
    6.6721   -2.6205    2.3744 C   0  0  0  0  0  0  0  0  0  0  0  0
    7.5734   -1.9732    3.2329 O   0  0  0  0  0  0  0  0  0  0  0  0
    6.0260   -3.6263    2.8229 O   0  0  0  0  0  0  0  0  0  0  0  0
    7.6053   -2.2252    0.5479 H   0  0  0  0  0  0  0  0  0  0  0  0
    5.8668   -2.8339   -0.7942 H   0  0  0  0  0  0  0  0  0  0  0  0
    5.3163   -3.6462    0.6395 H   0  0  0  0  0  0  0  0  0  0  0  0
    7.2865   -0.0748    1.6249 H   0  0  0  0  0  0  0  0  0  0  0  0
    6.5019   -0.0918    0.0288 H   0  0  0  0  0  0  0  0  0  0  0  0
    5.1191    1.0174    1.8013 H   0  0  0  0  0  0  0  0  0  0  0  0
    5.0695   -0.4840    2.7086 H   0  0  0  0  0  0  0  0  0  0  0  0
    2.9724   -2.0466   -0.1519 H   0  0  0  0  0  0  0  0  0  0  0  0
    2.1427   -0.5015   -1.1733 H   0  0  0  0  0  0  0  0  0  0  0  0
    0.8954   -0.7618    1.0424 H   0  0  0  0  0  0  0  0  0  0  0  0
    0.7333    1.0159    1.1011 H   0  0  0  0  0  0  0  0  0  0  0  0
   -2.0554   -1.0043    0.9386 H   0  0  0  0  0  0  0  0  0  0  0  0
   -1.3977    1.7139    1.1848 H   0  0  0  0  0  0  0  0  0  0  0  0
   -2.8538    0.9293    1.9802 H   0  0  0  0  0  0  0  0  0  0  0  0
   -2.6851    2.3330   -0.7029 H   0  0  0  0  0  0  0  0  0  0  0  0
   -4.1732    2.4330    1.7051 H   0  0  0  0  0  0  0  0  0  0  0  0
   -2.8951   -0.1430   -1.7631 H   0  0  0  0  0  0  0  0  0  0  0  0
   -3.2239   -2.3834   -0.7351 H   0  0  0  0  0  0  0  0  0  0  0  0
   -4.2193   -1.7239    0.5646 H   0  0  0  0  0  0  0  0  0  0  0  0
   -4.7011   -1.7301   -2.4725 H   0  0  0  0  0  0  0  0  0  0  0  0
   -5.5529   -2.7599   -1.2860 H   0  0  0  0  0  0  0  0  0  0  0  0
   -6.9925   -1.0757   -2.0929 H   0  0  0  0  0  0  0  0  0  0  0  0
   -5.9497    0.2633   -1.6113 H   0  0  0  0  0  0  0  0  0  0  0  0
   -6.0725   -0.4589    0.8022 H   0  0  0  0  0  0  0  0  0  0  0  0
   -7.6537   -0.0238    0.1147 H   0  0  0  0  0  0  0  0  0  0  0  0
   -7.7348   -2.5450   -0.6547 H   0  0  0  0  0  0  0  0  0  0  0  0
   -8.1641   -2.0622    1.0784 H   0  0  0  0  0  0  0  0  0  0  0  0
   -6.5148   -2.7478    0.7061 H   0  0  0  0  0  0  0  0  0  0  0  0
    0.7278    2.2858   -2.8002 H   0  0  0  0  0  0  0  0  0  0  0  0
    2.4263    3.4424   -3.0841 H   0  0  0  0  0  0  0  0  0  0  0  0
    3.3885    4.3704   -1.9009 H   0  0  0  0  0  0  0  0  0  0  0  0
    0.1619    6.1822   -2.0358 H   0  0  0  0  0  0  0  0  0  0  0  0
    7.8071   -2.4676    4.0971 H   0  0  0  0  0  0  0  0  0  0  0  0
  1  2  1  0
  1  3  1  0
  3  4  1  0
  4  5  1  0
  5  6  1  0
  5  7  2  3
  7  8  1  0
  8  9  1  0
  9 10  1  0
 10 11  1  0
 11 12  1  0
 12 13  1  0
 13 14  1  0
 13 15  1  0
 15 16  1  0
 16 17  1  0
 17 18  1  0
 18 19  1  0
 19 20  1  0
 20 21  1  0
  8 22  1  0
 22 23  1  0
 22 24  2  3
 24 25  1  0
 25 26  1  0
 26 27  1  0
 26 28  2  0
  1 29  1  0
 29 30  1  0
 29 31  2  0
 16 11  1  0
  1 32  1  6
  2 33  1  0
  2 34  1  0
  3 35  1  0
  3 36  1  0
  4 37  1  0
  4 38  1  0
  6 39  1  0
  8 40  1  6
  9 41  1  0
  9 42  1  0
 11 43  1  1
 12 44  1  0
 12 45  1  0
 13 46  1  6
 14 47  1  0
 16 48  1  6
 17 49  1  0
 17 50  1  0
 18 51  1  0
 18 52  1  0
 19 53  1  0
 19 54  1  0
 20 55  1  0
 20 56  1  0
 21 57  1  0
 21 58  1  0
 21 59  1  0
 23 60  1  0
 25 61  1  0
 25 62  1  0
 27 63  1  0
 30 64  1  0
M  END
$$$$
