
     RDKit          3D

 68 72  0  0  0  0  0  0  0  0999 V2000
    7.2507    2.6521   -0.5317 C   0  0  0  0  0  0  0  0  0  0  0  0
    7.0752    1.1389   -0.3914 C   0  0  0  0  0  0  0  0  0  0  0  0
    7.7890    0.4945   -1.5383 C   0  0  0  0  0  0  0  0  0  0  0  0
    7.7390    0.6644    0.8976 C   0  0  0  0  0  0  0  0  0  0  0  0
    5.6913    0.8876   -0.3795 O   0  0  0  0  0  0  0  0  0  0  0  0
    5.1226   -0.3512   -0.2681 C   0  0  0  0  0  0  0  0  0  0  0  0
    5.8641   -1.3566   -0.1677 O   0  0  0  0  0  0  0  0  0  0  0  0
    3.7193   -0.5431   -0.2618 N   0  0  0  0  0  0  0  0  0  0  0  0
    2.7751    0.5528   -0.3723 C   0  0  0  0  0  0  0  0  0  0  0  0
    1.4266   -0.0424   -0.7176 C   0  0  0  0  0  0  0  0  0  0  0  0
    0.9791   -0.8433    0.5080 C   0  0  0  0  0  0  0  0  0  0  0  0
   -0.2856   -1.4803    0.2878 N   0  0  0  0  0  0  0  0  0  0  0  0
   -0.5168   -2.7663    0.0810 N   0  0  0  0  0  0  0  0  0  0  0  0
   -1.8349   -2.9899   -0.0857 C   0  0  0  0  0  0  0  0  0  0  0  0
   -2.4773   -1.7779    0.0210 C   0  0  0  0  0  0  0  0  0  0  0  0
   -3.7768   -1.3192   -0.0452 C   0  0  0  0  0  0  0  0  0  0  0  0
   -4.8172   -2.2429   -0.2879 N   0  0  0  0  0  0  0  0  0  0  0  0
   -4.8281   -2.9761   -1.5310 C   0  0  0  0  0  0  0  0  0  0  0  0
   -5.4200   -4.3575   -1.3454 C   0  0  0  0  0  0  0  0  0  0  0  0
   -5.4141   -4.6666    0.0062 O   0  0  0  0  0  0  0  0  0  0  0  0
   -6.3192   -3.8645    0.7117 C   0  0  0  0  0  0  0  0  0  0  0  0
   -5.8356   -2.4248    0.7206 C   0  0  0  0  0  0  0  0  0  0  0  0
   -4.0094    0.0081    0.1218 N   0  0  0  0  0  0  0  0  0  0  0  0
   -3.0483    0.9051    0.3482 C   0  0  0  0  0  0  0  0  0  0  0  0
   -3.3381    2.3253    0.5230 C   0  0  0  0  0  0  0  0  0  0  0  0
   -2.3431    3.2496    0.7582 C   0  0  0  0  0  0  0  0  0  0  0  0
   -2.6597    4.5938    0.9197 C   0  0  0  0  0  0  0  0  0  0  0  0
   -3.9559    5.0652    0.8551 C   0  0  0  0  0  0  0  0  0  0  0  0
   -4.2734    6.4421    1.0211 N   0  0  0  0  0  0  0  0  0  0  0  0
   -4.9474    4.1277    0.6184 C   0  0  0  0  0  0  0  0  0  0  0  0
   -4.6366    2.7866    0.4568 C   0  0  0  0  0  0  0  0  0  0  0  0
   -1.7784    0.4685    0.4143 N   0  0  0  0  0  0  0  0  0  0  0  0
   -1.4789   -0.8520    0.2552 C   0  0  0  0  0  0  0  0  0  0  0  0
    2.0443   -1.8509    0.8850 C   0  0  0  0  0  0  0  0  0  0  0  0
    3.1668   -1.8691   -0.1421 C   0  0  0  0  0  0  0  0  0  0  0  0
    6.9056    2.9225   -1.5572 H   0  0  0  0  0  0  0  0  0  0  0  0
    8.3329    2.9077   -0.4612 H   0  0  0  0  0  0  0  0  0  0  0  0
    6.6194    3.1956    0.1714 H   0  0  0  0  0  0  0  0  0  0  0  0
    7.2083    0.4840   -2.4767 H   0  0  0  0  0  0  0  0  0  0  0  0
    8.0444   -0.5549   -1.2485 H   0  0  0  0  0  0  0  0  0  0  0  0
    8.7702    1.0245   -1.6920 H   0  0  0  0  0  0  0  0  0  0  0  0
    7.9989   -0.4127    0.7368 H   0  0  0  0  0  0  0  0  0  0  0  0
    8.7001    1.2200    0.9984 H   0  0  0  0  0  0  0  0  0  0  0  0
    7.0781    0.7578    1.7597 H   0  0  0  0  0  0  0  0  0  0  0  0
    3.0937    1.3164   -1.1011 H   0  0  0  0  0  0  0  0  0  0  0  0
    2.6774    0.9996    0.6341 H   0  0  0  0  0  0  0  0  0  0  0  0
    1.4983   -0.7143   -1.6111 H   0  0  0  0  0  0  0  0  0  0  0  0
    0.6536    0.7452   -0.8603 H   0  0  0  0  0  0  0  0  0  0  0  0
    0.9431   -0.0979    1.3477 H   0  0  0  0  0  0  0  0  0  0  0  0
   -2.3366   -3.9374   -0.2704 H   0  0  0  0  0  0  0  0  0  0  0  0
   -5.4591   -2.3905   -2.2557 H   0  0  0  0  0  0  0  0  0  0  0  0
   -3.7978   -3.0282   -1.9218 H   0  0  0  0  0  0  0  0  0  0  0  0
   -4.8294   -5.1338   -1.8793 H   0  0  0  0  0  0  0  0  0  0  0  0
   -6.4902   -4.3409   -1.7048 H   0  0  0  0  0  0  0  0  0  0  0  0
   -7.3252   -3.8819    0.2839 H   0  0  0  0  0  0  0  0  0  0  0  0
   -6.3566   -4.2466    1.7603 H   0  0  0  0  0  0  0  0  0  0  0  0
   -6.6792   -1.7345    0.5231 H   0  0  0  0  0  0  0  0  0  0  0  0
   -5.4022   -2.1454    1.6973 H   0  0  0  0  0  0  0  0  0  0  0  0
   -1.3219    2.8920    0.8110 H   0  0  0  0  0  0  0  0  0  0  0  0
   -1.8627    5.2978    1.1028 H   0  0  0  0  0  0  0  0  0  0  0  0
   -4.8593    6.8256    1.7929 H   0  0  0  0  0  0  0  0  0  0  0  0
   -3.8994    7.1266    0.3283 H   0  0  0  0  0  0  0  0  0  0  0  0
   -5.9876    4.4525    0.5592 H   0  0  0  0  0  0  0  0  0  0  0  0
   -5.4107    2.0392    0.2695 H   0  0  0  0  0  0  0  0  0  0  0  0
    1.6281   -2.8891    0.9407 H   0  0  0  0  0  0  0  0  0  0  0  0
    2.5002   -1.6426    1.8731 H   0  0  0  0  0  0  0  0  0  0  0  0
    2.7991   -2.2582   -1.1206 H   0  0  0  0  0  0  0  0  0  0  0  0
    3.9186   -2.5859    0.2253 H   0  0  0  0  0  0  0  0  0  0  0  0
  1  2  1  0
  2  3  1  0
  2  4  1  0
  2  5  1  0
  5  6  1  0
  6  7  2  0
  6  8  1  0
  8  9  1  0
  9 10  1  0
 10 11  1  0
 11 12  1  0
 12 13  1  0
 13 14  2  0
 14 15  1  0
 15 16  2  0
 16 17  1  0
 17 18  1  0
 18 19  1  0
 19 20  1  0
 20 21  1  0
 21 22  1  0
 16 23  1  0
 23 24  2  0
 24 25  1  0
 25 26  2  0
 26 27  1  0
 27 28  2  0
 28 29  1  0
 28 30  1  0
 30 31  2  0
 24 32  1  0
 32 33  2  0
 11 34  1  0
 34 35  1  0
 35  8  1  0
 33 12  1  0
 33 15  1  0
 22 17  1  0
 31 25  1  0
  1 36  1  0
  1 37  1  0
  1 38  1  0
  3 39  1  0
  3 40  1  0
  3 41  1  0
  4 42  1  0
  4 43  1  0
  4 44  1  0
  9 45  1  0
  9 46  1  0
 10 47  1  0
 10 48  1  0
 11 49  1  0
 14 50  1  0
 18 51  1  0
 18 52  1  0
 19 53  1  0
 19 54  1  0
 21 55  1  0
 21 56  1  0
 22 57  1  0
 22 58  1  0
 26 59  1  0
 27 60  1  0
 29 61  1  0
 29 62  1  0
 30 63  1  0
 31 64  1  0
 34 65  1  0
 34 66  1  0
 35 67  1  0
 35 68  1  0
M  END
$$$$
