
     RDKit          3D

 20 21  0  0  0  0  0  0  0  0999 V2000
    2.6318   -1.8011   -0.2668 O   0  0  0  0  0  0  0  0  0  0  0  0
    1.7886   -0.7297   -0.1564 C   0  0  0  0  0  0  0  0  0  0  0  0
    0.4329   -0.9573   -0.1301 C   0  0  0  0  0  0  0  0  0  0  0  0
   -0.0659   -2.2087   -0.2119 N   0  0  0  0  0  0  0  0  0  0  0  0
   -1.4003   -2.4254   -0.1855 C   0  0  0  0  0  0  0  0  0  0  0  0
   -2.3026   -1.3596   -0.0726 C   0  0  0  0  0  0  0  0  0  0  0  0
   -1.7457   -0.0994    0.0081 C   0  0  0  0  0  0  0  0  0  0  0  0
   -0.3864    0.1471   -0.0170 C   0  0  0  0  0  0  0  0  0  0  0  0
    0.1285    1.4204    0.0659 C   0  0  0  0  0  0  0  0  0  0  0  0
    1.4911    1.6600    0.0401 C   0  0  0  0  0  0  0  0  0  0  0  0
    2.2958    0.5442   -0.0733 C   0  0  0  0  0  0  0  0  0  0  0  0
   -0.7039    2.5393    0.1818 N   0  0  0  0  0  4  0  0  0  0  0  0
   -1.9556    3.0002   -0.1252 O   0  0  0  0  0  1  0  0  0  0  0  0
   -0.4347    3.6285    0.7148 O   0  0  0  0  0  0  0  0  0  0  0  0
    2.5591   -2.5414    0.4219 H   0  0  0  0  0  0  0  0  0  0  0  0
   -1.8714   -3.4014   -0.2462 H   0  0  0  0  0  0  0  0  0  0  0  0
   -3.3730   -1.4764   -0.0475 H   0  0  0  0  0  0  0  0  0  0  0  0
   -2.4252    0.7291    0.0953 H   0  0  0  0  0  0  0  0  0  0  0  0
    1.9492    2.6382    0.1011 H   0  0  0  0  0  0  0  0  0  0  0  0
    3.3877    0.6935   -0.0967 H   0  0  0  0  0  0  0  0  0  0  0  0
  1  2  1  0
  2  3  2  0
  3  4  1  0
  4  5  2  0
  5  6  1  0
  6  7  2  0
  7  8  1  0
  8  9  2  0
  9 10  1  0
 10 11  2  0
  9 12  1  0
 12 13  1  0
 12 14  2  0
 11  2  1  0
  8  3  1  0
  1 15  1  0
  5 16  1  0
  6 17  1  0
  7 18  1  0
 10 19  1  0
 11 20  1  0
M  CHG  2  12   1  13  -1
M  END
$$$$
