
     RDKit          3D

 52 56  0  0  0  0  0  0  0  0999 V2000
   -3.6264   -2.0680   -3.2741 C   0  0  0  0  0  0  0  0  0  0  0  0
   -3.3682   -0.9841   -2.2918 C   0  0  0  0  0  0  0  0  0  0  0  0
   -4.3165   -0.7004   -1.3071 C   0  0  0  0  0  0  0  0  0  0  0  0
   -4.1294    0.2758   -0.3925 N   0  0  0  0  0  0  0  0  0  0  0  0
   -4.8578    0.7387    0.6292 C   0  0  0  0  0  0  0  0  0  0  0  0
   -6.1499    0.3095    1.1002 C   0  0  0  0  0  0  0  0  0  0  0  0
   -6.9877   -0.6534    0.6667 C   0  0  0  0  0  0  0  0  0  0  0  0
   -8.1071   -0.6548    1.4792 N   0  0  0  0  0  0  0  0  0  0  0  0
   -7.9964    0.2687    2.3987 N   0  0  0  0  0  0  0  0  0  0  0  0
   -6.8241    0.8749    2.2031 C   0  0  0  0  0  0  0  0  0  0  0  0
   -4.0957    1.7705    1.1922 C   0  0  0  0  0  0  0  0  0  0  0  0
   -2.9773    1.8650    0.4910 N   0  0  0  0  0  0  0  0  0  0  0  0
   -2.9530    0.9645   -0.4957 C   0  0  0  0  0  0  0  0  0  0  0  0
   -1.9935    0.7156   -1.4507 C   0  0  0  0  0  0  0  0  0  0  0  0
   -0.7920    1.4700   -1.4972 N   0  0  0  0  0  0  0  0  0  0  0  0
    0.3260    1.0533   -0.6902 C   0  0  0  0  0  0  0  0  0  0  0  0
    0.8437    1.8842    0.2612 C   0  0  0  0  0  0  0  0  0  0  0  0
    1.9197    1.4507    1.0338 C   0  0  0  0  0  0  0  0  0  0  0  0
    2.4863    0.2046    0.8730 C   0  0  0  0  0  0  0  0  0  0  0  0
    3.5846   -0.2342    1.6723 C   0  0  0  0  0  0  0  0  0  0  0  0
    3.4081   -0.6725    2.8285 O   0  0  0  0  0  0  0  0  0  0  0  0
    4.9165   -0.1785    1.1575 N   0  0  0  0  0  0  0  0  0  0  0  0
    5.1274    0.3247   -0.1671 C   0  0  0  0  0  0  0  0  0  0  0  0
    6.1206   -0.5613   -0.8924 C   0  0  0  0  0  0  0  0  0  0  0  0
    7.3312   -0.7286   -0.1732 N   0  0  0  0  0  0  0  0  0  0  0  0
    7.2674   -0.9099    1.2251 C   0  0  0  0  0  0  0  0  0  0  0  0
    6.0230   -0.6157    1.9502 C   0  0  0  0  0  0  0  0  0  0  0  0
    1.9510   -0.6210   -0.0929 C   0  0  0  0  0  0  0  0  0  0  0  0
    0.8832   -0.1908   -0.8597 C   0  0  0  0  0  0  0  0  0  0  0  0
    0.3355   -0.9939   -1.8243 F   0  0  0  0  0  0  0  0  0  0  0  0
   -2.2423   -0.2681   -2.3294 N   0  0  0  0  0  0  0  0  0  0  0  0
   -3.1854   -3.0025   -2.8511 H   0  0  0  0  0  0  0  0  0  0  0  0
   -3.2167   -1.8409   -4.2720 H   0  0  0  0  0  0  0  0  0  0  0  0
   -4.7168   -2.2145   -3.3574 H   0  0  0  0  0  0  0  0  0  0  0  0
   -5.1991   -1.2800   -1.2972 H   0  0  0  0  0  0  0  0  0  0  0  0
   -6.9258   -1.3526   -0.1368 H   0  0  0  0  0  0  0  0  0  0  0  0
   -8.7156    0.4813    3.1512 H   0  0  0  0  0  0  0  0  0  0  0  0
   -6.4259    1.6827    2.7906 H   0  0  0  0  0  0  0  0  0  0  0  0
   -4.4425    2.3322    2.0461 H   0  0  0  0  0  0  0  0  0  0  0  0
   -0.7067    2.3025   -2.0932 H   0  0  0  0  0  0  0  0  0  0  0  0
    0.4041    2.8701    0.3968 H   0  0  0  0  0  0  0  0  0  0  0  0
    2.3307    2.1141    1.7909 H   0  0  0  0  0  0  0  0  0  0  0  0
    5.4445    1.3729   -0.1653 H   0  0  0  0  0  0  0  0  0  0  0  0
    4.1696    0.2280   -0.7490 H   0  0  0  0  0  0  0  0  0  0  0  0
    6.3631   -0.0255   -1.8507 H   0  0  0  0  0  0  0  0  0  0  0  0
    5.6408   -1.5106   -1.2110 H   0  0  0  0  0  0  0  0  0  0  0  0
    8.1135   -0.1334   -0.4931 H   0  0  0  0  0  0  0  0  0  0  0  0
    7.5344   -1.9941    1.4695 H   0  0  0  0  0  0  0  0  0  0  0  0
    8.1168   -0.3430    1.7355 H   0  0  0  0  0  0  0  0  0  0  0  0
    5.7157   -1.4481    2.6595 H   0  0  0  0  0  0  0  0  0  0  0  0
    6.2204    0.2346    2.6789 H   0  0  0  0  0  0  0  0  0  0  0  0
    2.3738   -1.6089   -0.2457 H   0  0  0  0  0  0  0  0  0  0  0  0
  1  2  1  0
  2  3  2  0
  3  4  1  0
  4  5  1  0
  5  6  1  0
  6  7  1  0
  7  8  2  0
  8  9  1  0
  9 10  1  0
  5 11  2  0
 11 12  1  0
 12 13  2  0
 13 14  1  0
 14 15  1  0
 15 16  1  0
 16 17  2  0
 17 18  1  0
 18 19  2  0
 19 20  1  0
 20 21  2  0
 20 22  1  0
 22 23  1  0
 23 24  1  0
 24 25  1  0
 25 26  1  0
 26 27  1  0
 19 28  1  0
 28 29  2  0
 29 30  1  0
 14 31  2  0
 31  2  1  0
 13  4  1  0
 29 16  1  0
 10  6  2  0
 27 22  1  0
  1 32  1  0
  1 33  1  0
  1 34  1  0
  3 35  1  0
  7 36  1  0
  9 37  1  0
 10 38  1  0
 11 39  1  0
 15 40  1  0
 17 41  1  0
 18 42  1  0
 23 43  1  0
 23 44  1  0
 24 45  1  0
 24 46  1  0
 25 47  1  0
 26 48  1  0
 26 49  1  0
 27 50  1  0
 27 51  1  0
 28 52  1  0
M  END
$$$$
