
     RDKit          3D

 53 55  0  0  0  0  0  0  0  0999 V2000
    8.2021   -1.4959    1.7583 O   0  0  0  0  0  0  0  0  0  0  0  0
    7.4139   -0.5032    1.8564 C   0  0  0  0  0  0  0  0  0  0  0  0
    6.1912   -0.5248    1.0770 C   0  0  0  0  0  0  0  0  0  0  0  0
    5.3274    0.4686    1.1239 C   0  0  0  0  0  0  0  0  0  0  0  0
    4.1044    0.4755    0.3591 C   0  0  0  0  0  0  0  0  0  0  0  0
    3.2470    1.5673    0.4478 C   0  0  0  0  0  0  0  0  0  0  0  0
    2.0882    1.5695   -0.2889 C   0  0  0  0  0  0  0  0  0  0  0  0
    1.7129    0.5445   -1.1231 C   0  0  0  0  0  0  0  0  0  0  0  0
    0.5341    0.5567   -1.9476 C   0  0  0  0  0  0  0  0  0  0  0  0
   -0.7369    0.1798   -1.4830 N   0  0  0  0  0  0  0  0  0  0  0  0
   -0.9201   -0.9730   -0.7123 C   0  0  0  0  0  0  0  0  0  0  0  0
   -0.3833   -0.8376    0.6698 C   0  0  0  0  0  0  0  0  0  0  0  0
   -0.6166   -2.0438    1.3784 O   0  0  0  0  0  0  0  0  0  0  0  0
   -1.7510    0.3943   -2.5025 C   0  0  0  0  0  0  0  0  0  0  0  0
   -3.0873   -0.0905   -2.1514 C   0  0  0  0  0  0  0  0  0  0  0  0
   -3.7286    0.4991   -0.9512 C   0  0  0  0  0  0  0  0  0  0  0  0
   -3.3881    1.5880   -0.1880 C   0  0  0  0  0  0  0  0  0  0  0  0
   -4.3014    1.7055    0.7864 N   0  0  0  0  0  0  0  0  0  0  0  0
   -5.2159    0.7413    0.6872 C   0  0  0  0  0  0  0  0  0  0  0  0
   -6.3615    0.3780    1.4072 C   0  0  0  0  0  0  0  0  0  0  0  0
   -7.1075   -0.7039    1.0377 C   0  0  0  0  0  0  0  0  0  0  0  0
   -6.7883   -1.4969   -0.0495 C   0  0  0  0  0  0  0  0  0  0  0  0
   -5.6605   -1.1338   -0.7537 C   0  0  0  0  0  0  0  0  0  0  0  0
   -4.8882   -0.0376   -0.3952 C   0  0  0  0  0  0  0  0  0  0  0  0
    2.5887   -0.5471   -1.1982 C   0  0  0  0  0  0  0  0  0  0  0  0
    3.7541   -0.5662   -0.4674 C   0  0  0  0  0  0  0  0  0  0  0  0
    7.7808    0.5607    2.7211 N   0  0  0  0  0  0  0  0  0  0  0  0
    8.9570    0.4732    3.4094 O   0  0  0  0  0  0  0  0  0  0  0  0
    6.0324   -1.3935    0.4591 H   0  0  0  0  0  0  0  0  0  0  0  0
    5.5078    1.3507    1.7612 H   0  0  0  0  0  0  0  0  0  0  0  0
    3.5033    2.4187    1.1079 H   0  0  0  0  0  0  0  0  0  0  0  0
    1.4162    2.4454   -0.2059 H   0  0  0  0  0  0  0  0  0  0  0  0
    0.4039    1.6174   -2.3657 H   0  0  0  0  0  0  0  0  0  0  0  0
    0.8192    0.0011   -2.9104 H   0  0  0  0  0  0  0  0  0  0  0  0
   -0.5216   -1.9137   -1.1606 H   0  0  0  0  0  0  0  0  0  0  0  0
   -2.0241   -1.1623   -0.5866 H   0  0  0  0  0  0  0  0  0  0  0  0
   -0.9871   -0.0758    1.2339 H   0  0  0  0  0  0  0  0  0  0  0  0
    0.6706   -0.6445    0.7692 H   0  0  0  0  0  0  0  0  0  0  0  0
   -0.8134   -1.8498    2.3382 H   0  0  0  0  0  0  0  0  0  0  0  0
   -1.8028    1.4985   -2.6746 H   0  0  0  0  0  0  0  0  0  0  0  0
   -1.4631   -0.0432   -3.4781 H   0  0  0  0  0  0  0  0  0  0  0  0
   -3.1934   -1.2227   -2.1486 H   0  0  0  0  0  0  0  0  0  0  0  0
   -3.8246    0.1701   -3.0037 H   0  0  0  0  0  0  0  0  0  0  0  0
   -2.5438    2.2221   -0.3514 H   0  0  0  0  0  0  0  0  0  0  0  0
   -4.3567    2.4318    1.5613 H   0  0  0  0  0  0  0  0  0  0  0  0
   -6.6197    0.9954    2.2632 H   0  0  0  0  0  0  0  0  0  0  0  0
   -8.0000   -0.9942    1.5919 H   0  0  0  0  0  0  0  0  0  0  0  0
   -7.3609   -2.3540   -0.3590 H   0  0  0  0  0  0  0  0  0  0  0  0
   -5.3637   -1.7299   -1.6272 H   0  0  0  0  0  0  0  0  0  0  0  0
    2.3559   -1.4033   -1.8422 H   0  0  0  0  0  0  0  0  0  0  0  0
    4.4098   -1.4580   -0.5623 H   0  0  0  0  0  0  0  0  0  0  0  0
    7.1644    1.3802    2.8194 H   0  0  0  0  0  0  0  0  0  0  0  0
    9.6247    0.9793    2.8633 H   0  0  0  0  0  0  0  0  0  0  0  0
  1  2  2  0
  2  3  1  0
  3  4  2  0
  4  5  1  0
  5  6  2  0
  6  7  1  0
  7  8  2  0
  8  9  1  0
  9 10  1  0
 10 11  1  0
 11 12  1  0
 12 13  1  0
 10 14  1  0
 14 15  1  0
 15 16  1  0
 16 17  2  0
 17 18  1  0
 18 19  1  0
 19 20  2  0
 20 21  1  0
 21 22  2  0
 22 23  1  0
 23 24  2  0
  8 25  1  0
 25 26  2  0
  2 27  1  0
 27 28  1  0
 26  5  1  0
 24 16  1  0
 24 19  1  0
  3 29  1  0
  4 30  1  0
  6 31  1  0
  7 32  1  0
  9 33  1  0
  9 34  1  0
 11 35  1  0
 11 36  1  0
 12 37  1  0
 12 38  1  0
 13 39  1  0
 14 40  1  0
 14 41  1  0
 15 42  1  0
 15 43  1  0
 17 44  1  0
 18 45  1  0
 20 46  1  0
 21 47  1  0
 22 48  1  0
 23 49  1  0
 25 50  1  0
 26 51  1  0
 27 52  1  0
 28 53  1  0
M  END
$$$$
