
     RDKit          3D

 53 55  0  0  0  0  0  0  0  0999 V2000
    9.4303    0.2852   -0.3944 C   0  0  0  0  0  0  0  0  0  0  0  0
    8.5386    0.8570   -1.4865 C   0  0  0  0  0  0  0  0  0  0  0  0
    7.1991    0.4760   -1.3457 O   0  0  0  0  0  0  0  0  0  0  0  0
    6.4082    0.7580   -0.2505 C   0  0  0  0  0  0  0  0  0  0  0  0
    6.9310    1.4063    0.6914 O   0  0  0  0  0  0  0  0  0  0  0  0
    5.0124    0.3374   -0.1508 C   0  0  0  0  0  0  0  0  0  0  0  0
    4.4161   -0.3740   -1.1691 C   0  0  0  0  0  0  0  0  0  0  0  0
    3.0812   -0.7882   -1.0975 C   0  0  0  0  0  0  0  0  0  0  0  0
    2.4836   -1.5293   -2.1742 C   0  0  0  0  0  0  0  0  0  0  0  0
    2.0092   -2.1277   -3.0672 N   0  0  0  0  0  0  0  0  0  0  0  0
    2.3785   -0.4546    0.0410 C   0  0  0  0  0  0  0  0  0  0  0  0
    1.0166   -0.8535    0.1615 N   0  0  0  0  0  0  0  0  0  0  0  0
   -0.2085   -0.6324   -0.5565 C   0  0  0  0  0  0  0  0  0  0  0  0
   -0.8179   -1.8055    0.1810 C   0  0  0  0  0  0  0  0  0  0  0  0
   -2.1313   -1.3988    0.7635 C   0  0  0  0  0  0  0  0  0  0  0  0
   -2.3527   -1.4400    1.9868 O   0  0  0  0  0  0  0  0  0  0  0  0
   -3.1973   -0.9401   -0.0835 N   0  0  0  0  0  0  0  0  0  0  0  0
   -4.7227   -0.4640    0.5535 S   0  0  0  0  0  6  0  0  0  0  0  0
   -4.5339    0.6584    1.5056 O   0  0  0  0  0  0  0  0  0  0  0  0
   -5.3363   -1.6723    1.2092 O   0  0  0  0  0  0  0  0  0  0  0  0
   -5.7441    0.0321   -0.8377 C   0  0  0  0  0  0  0  0  0  0  0  0
   -7.0767    0.4513   -0.3133 C   0  0  0  0  0  0  0  0  0  0  0  0
   -7.2714    1.7720    0.0311 C   0  0  0  0  0  0  0  0  0  0  0  0
   -8.4975    2.1664    0.5154 C   0  0  0  0  0  0  0  0  0  0  0  0
   -9.5167    1.2351    0.6503 C   0  0  0  0  0  0  0  0  0  0  0  0
   -9.3343   -0.0860    0.3099 C   0  0  0  0  0  0  0  0  0  0  0  0
   -8.1005   -0.4572   -0.1721 C   0  0  0  0  0  0  0  0  0  0  0  0
    0.3425   -1.6941    1.1375 C   0  0  0  0  0  0  0  0  0  0  0  0
    2.9663    0.2351    1.0219 N   0  0  0  0  0  0  0  0  0  0  0  0
    4.2608    0.6420    0.9629 C   0  0  0  0  0  0  0  0  0  0  0  0
    4.8468    1.4055    2.0921 C   0  0  0  0  0  0  0  0  0  0  0  0
   10.0482    1.0460    0.0857 H   0  0  0  0  0  0  0  0  0  0  0  0
   10.0367   -0.5815   -0.7764 H   0  0  0  0  0  0  0  0  0  0  0  0
    8.7509   -0.1306    0.3800 H   0  0  0  0  0  0  0  0  0  0  0  0
    8.9013    0.4159   -2.4560 H   0  0  0  0  0  0  0  0  0  0  0  0
    8.6733    1.9668   -1.5669 H   0  0  0  0  0  0  0  0  0  0  0  0
    5.0010   -0.6138   -2.0414 H   0  0  0  0  0  0  0  0  0  0  0  0
   -0.1890   -0.8280   -1.6365 H   0  0  0  0  0  0  0  0  0  0  0  0
   -0.7107    0.3514   -0.3590 H   0  0  0  0  0  0  0  0  0  0  0  0
   -0.8614   -2.7442   -0.3758 H   0  0  0  0  0  0  0  0  0  0  0  0
   -2.9934   -0.9129   -1.1006 H   0  0  0  0  0  0  0  0  0  0  0  0
   -5.9161   -0.8003   -1.5199 H   0  0  0  0  0  0  0  0  0  0  0  0
   -5.2803    0.8662   -1.3791 H   0  0  0  0  0  0  0  0  0  0  0  0
   -6.5040    2.5285   -0.0587 H   0  0  0  0  0  0  0  0  0  0  0  0
   -8.7170    3.1951    0.8059 H   0  0  0  0  0  0  0  0  0  0  0  0
  -10.4886    1.5375    1.0321 H   0  0  0  0  0  0  0  0  0  0  0  0
  -10.1657   -0.7660    0.4368 H   0  0  0  0  0  0  0  0  0  0  0  0
   -7.9775   -1.5078   -0.4356 H   0  0  0  0  0  0  0  0  0  0  0  0
    0.1315   -1.2120    2.0993 H   0  0  0  0  0  0  0  0  0  0  0  0
    0.8760   -2.6617    1.2243 H   0  0  0  0  0  0  0  0  0  0  0  0
    5.1476    2.4432    1.7889 H   0  0  0  0  0  0  0  0  0  0  0  0
    5.6821    0.8601    2.5893 H   0  0  0  0  0  0  0  0  0  0  0  0
    4.0759    1.5479    2.8781 H   0  0  0  0  0  0  0  0  0  0  0  0
  1  2  1  0
  2  3  1  0
  3  4  1  0
  4  5  2  0
  4  6  1  0
  6  7  2  0
  7  8  1  0
  8  9  1  0
  9 10  3  0
  8 11  2  0
 11 12  1  0
 12 13  1  0
 13 14  1  0
 14 15  1  0
 15 16  2  0
 15 17  1  0
 17 18  1  0
 18 19  2  0
 18 20  2  0
 18 21  1  0
 21 22  1  0
 22 23  2  0
 23 24  1  0
 24 25  2  0
 25 26  1  0
 26 27  2  0
 14 28  1  0
 11 29  1  0
 29 30  2  0
 30 31  1  0
 30  6  1  0
 28 12  1  0
 27 22  1  0
  1 32  1  0
  1 33  1  0
  1 34  1  0
  2 35  1  0
  2 36  1  0
  7 37  1  0
 13 38  1  0
 13 39  1  0
 14 40  1  0
 17 41  1  0
 21 42  1  0
 21 43  1  0
 23 44  1  0
 24 45  1  0
 25 46  1  0
 26 47  1  0
 27 48  1  0
 28 49  1  0
 28 50  1  0
 31 51  1  0
 31 52  1  0
 31 53  1  0
M  END
$$$$
