
     RDKit          3D

 60 64  0  0  0  0  0  0  0  0999 V2000
    1.7287   -1.0891   -3.3893 O   0  0  0  0  0  0  0  0  0  0  0  0
    2.2284   -1.2197   -2.2499 C   0  0  0  0  0  0  0  0  0  0  0  0
    3.5851   -1.6084   -1.8927 C   0  0  0  0  0  0  0  0  0  0  0  0
    4.5239   -1.8903   -2.6767 O   0  0  0  0  0  0  0  0  0  0  0  0
    3.6872   -1.6203   -0.4765 N   0  0  0  0  0  0  0  0  0  0  0  0
    4.8781   -1.9547    0.3229 C   0  0  0  0  0  0  0  0  0  0  0  0
    5.6571   -0.7395    0.5721 C   0  0  0  0  0  0  0  0  0  0  0  0
    6.6623   -0.2447   -0.2201 C   0  0  0  0  0  0  0  0  0  0  0  0
    7.0969    0.8735    0.3775 N   0  0  0  0  0  0  0  0  0  0  0  0
    8.1545    1.7061   -0.1310 C   0  0  0  0  0  0  0  0  0  0  0  0
    7.5772    2.7766   -1.0548 C   0  0  0  0  0  0  0  0  0  0  0  0
    8.6156    3.5652   -1.5312 F   0  0  0  0  0  0  0  0  0  0  0  0
    6.4086    1.0922    1.4991 N   0  0  0  0  0  0  0  0  0  0  0  0
    5.5399    0.1105    1.6077 N   0  0  0  0  0  0  0  0  0  0  0  0
    2.4088   -1.2436    0.0139 C   0  0  0  0  0  0  0  0  0  0  0  0
    1.9744   -1.1012    1.3383 C   0  0  0  0  0  0  0  0  0  0  0  0
    0.6692   -0.7199    1.5785 C   0  0  0  0  0  0  0  0  0  0  0  0
   -0.2380   -0.4697    0.5697 C   0  0  0  0  0  0  0  0  0  0  0  0
   -1.9069    0.0144    0.9204 S   0  0  0  0  0  6  0  0  0  0  0  0
   -1.8579    0.6806    2.2887 O   0  0  0  0  0  0  0  0  0  0  0  0
   -2.2749    1.0429   -0.0651 O   0  0  0  0  0  0  0  0  0  0  0  0
   -2.8592   -1.3690    0.9536 N   0  0  0  0  0  0  0  0  0  0  0  0
   -2.4101   -2.2588    2.0056 C   0  0  0  0  0  0  0  0  0  0  0  0
   -3.6512   -2.6273    2.8000 C   0  0  0  0  0  0  0  0  0  0  0  0
   -4.6105   -1.4675    2.4906 C   0  0  0  0  0  0  0  0  0  0  0  0
   -4.2538   -1.2390    1.0422 C   0  0  1  0  0  0  0  0  0  0  0  0
   -4.8906    0.0018    0.5526 C   0  0  0  0  0  0  0  0  0  0  0  0
   -4.6760    0.2629   -0.8084 O   0  0  0  0  0  0  0  0  0  0  0  0
   -5.1915    1.3727   -1.4454 C   0  0  0  0  0  0  0  0  0  0  0  0
   -4.9628    1.5996   -2.7822 C   0  0  0  0  0  0  0  0  0  0  0  0
   -5.4579    2.6939   -3.4583 C   0  0  0  0  0  0  0  0  0  0  0  0
   -6.2286    3.6072   -2.7312 C   0  0  0  0  0  0  0  0  0  0  0  0
   -6.4776    3.4139   -1.3963 C   0  0  0  0  0  0  0  0  0  0  0  0
   -5.9611    2.3083   -0.7725 C   0  0  0  0  0  0  0  0  0  0  0  0
    0.1938   -0.6110   -0.7299 C   0  0  0  0  0  0  0  0  0  0  0  0
    1.5083   -0.9952   -0.9905 C   0  0  0  0  0  0  0  0  0  0  0  0
    5.4436   -2.7759   -0.1211 H   0  0  0  0  0  0  0  0  0  0  0  0
    4.4743   -2.3364    1.2984 H   0  0  0  0  0  0  0  0  0  0  0  0
    7.0434   -0.6608   -1.1476 H   0  0  0  0  0  0  0  0  0  0  0  0
    8.8630    1.0709   -0.7129 H   0  0  0  0  0  0  0  0  0  0  0  0
    8.7130    2.1817    0.7015 H   0  0  0  0  0  0  0  0  0  0  0  0
    7.0254    2.2878   -1.8697 H   0  0  0  0  0  0  0  0  0  0  0  0
    6.8741    3.4014   -0.4672 H   0  0  0  0  0  0  0  0  0  0  0  0
    2.6875   -1.2981    2.1352 H   0  0  0  0  0  0  0  0  0  0  0  0
    0.3342   -0.6066    2.6015 H   0  0  0  0  0  0  0  0  0  0  0  0
   -1.7428   -1.7520    2.7422 H   0  0  0  0  0  0  0  0  0  0  0  0
   -1.9744   -3.1920    1.6337 H   0  0  0  0  0  0  0  0  0  0  0  0
   -3.4699   -2.7301    3.8692 H   0  0  0  0  0  0  0  0  0  0  0  0
   -4.1111   -3.5525    2.3922 H   0  0  0  0  0  0  0  0  0  0  0  0
   -5.6555   -1.7632    2.5904 H   0  0  0  0  0  0  0  0  0  0  0  0
   -4.3324   -0.5650    3.0661 H   0  0  0  0  0  0  0  0  0  0  0  0
   -4.7200   -2.0927    0.4647 H   0  0  0  0  0  0  0  0  0  0  0  0
   -6.0031   -0.1251    0.6788 H   0  0  0  0  0  0  0  0  0  0  0  0
   -4.6528    0.8987    1.1948 H   0  0  0  0  0  0  0  0  0  0  0  0
   -4.3666    0.8870   -3.3312 H   0  0  0  0  0  0  0  0  0  0  0  0
   -5.2745    2.8700   -4.5155 H   0  0  0  0  0  0  0  0  0  0  0  0
   -6.6301    4.4700   -3.2256 H   0  0  0  0  0  0  0  0  0  0  0  0
   -7.0716    4.1320   -0.8662 H   0  0  0  0  0  0  0  0  0  0  0  0
   -6.1556    2.1448    0.2970 H   0  0  0  0  0  0  0  0  0  0  0  0
   -0.4877   -0.4234   -1.5403 H   0  0  0  0  0  0  0  0  0  0  0  0
  1  2  2  0
  2  3  1  0
  3  4  2  0
  3  5  1  0
  5  6  1  0
  6  7  1  0
  7  8  2  0
  8  9  1  0
  9 10  1  0
 10 11  1  0
 11 12  1  0
  9 13  1  0
 13 14  2  0
  5 15  1  0
 15 16  2  0
 16 17  1  0
 17 18  2  0
 18 19  1  0
 19 20  2  0
 19 21  2  0
 19 22  1  0
 22 23  1  0
 23 24  1  0
 24 25  1  0
 25 26  1  0
 26 27  1  0
 27 28  1  0
 28 29  1  0
 29 30  2  0
 30 31  1  0
 31 32  2  0
 32 33  1  0
 33 34  2  0
 18 35  1  0
 35 36  2  0
 36  2  1  0
 14  7  1  0
 36 15  1  0
 26 22  1  0
 34 29  1  0
  6 37  1  0
  6 38  1  0
  8 39  1  0
 10 40  1  0
 10 41  1  0
 11 42  1  0
 11 43  1  0
 16 44  1  0
 17 45  1  0
 23 46  1  0
 23 47  1  0
 24 48  1  0
 24 49  1  0
 25 50  1  0
 25 51  1  0
 26 52  1  6
 27 53  1  0
 27 54  1  0
 30 55  1  0
 31 56  1  0
 32 57  1  0
 33 58  1  0
 34 59  1  0
 35 60  1  0
M  END
$$$$
