
     RDKit          3D

 51 55  0  0  0  0  0  0  0  0999 V2000
    3.3943   -4.3108   -0.5936 C   0  0  0  0  0  0  0  0  0  0  0  0
    3.0916   -3.7278    0.7893 C   0  0  0  0  0  0  0  0  0  0  0  0
    3.0663   -2.2850    0.6249 N   0  0  0  0  0  0  0  0  0  0  0  0
    4.0762   -1.4401    0.7407 N   0  0  0  0  0  0  0  0  0  0  0  0
    3.6709   -0.1815    0.5189 C   0  0  0  0  0  0  0  0  0  0  0  0
    4.4714    1.0657    0.5492 C   0  0  0  0  0  0  0  0  0  0  0  0
    2.2883   -0.2954    0.2463 C   0  0  0  0  0  0  0  0  0  0  0  0
    1.9359   -1.6022    0.3161 C   0  0  0  0  0  0  0  0  0  0  0  0
    0.5056   -1.6716    0.0118 C   0  0  0  0  0  0  0  0  0  0  0  0
   -0.1215   -2.8043    0.0051 O   0  0  0  0  0  0  0  0  0  0  0  0
    0.0108   -0.3767   -0.2449 N   0  0  0  0  0  0  0  0  0  0  0  0
   -1.3615   -0.0899   -0.6209 C   0  0  0  0  0  0  0  0  0  0  0  0
   -1.7531    1.2057   -0.8763 C   0  0  0  0  0  0  0  0  0  0  0  0
   -3.0423    1.5335   -1.2344 C   0  0  0  0  0  0  0  0  0  0  0  0
   -3.4491    2.9457   -1.5074 C   0  0  0  0  0  0  0  0  0  0  0  0
   -3.9711    0.5165   -1.3389 C   0  0  0  0  0  0  0  0  0  0  0  0
   -5.2835    0.4640   -1.6563 N   0  0  0  0  0  0  0  0  0  0  0  0
   -5.7090   -0.7789   -1.6092 N   0  0  0  0  0  0  0  0  0  0  0  0
   -4.6652   -1.5681   -1.2550 C   0  0  0  0  0  0  0  0  0  0  0  0
   -4.7019   -3.0397   -1.0841 C   0  0  0  0  0  0  0  0  0  0  0  0
   -3.6079   -0.7555   -1.0935 N   0  0  0  0  0  0  0  0  0  0  0  0
   -2.3446   -1.0361   -0.7475 C   0  0  0  0  0  0  0  0  0  0  0  0
    1.0932    0.4879   -0.0635 C   0  0  0  0  0  0  0  0  0  0  0  0
    0.9355    1.7120    0.6873 C   0  0  0  0  0  0  0  0  0  0  0  0
    0.1610    1.7118    1.8109 C   0  0  0  0  0  0  0  0  0  0  0  0
    0.0130    2.8833    2.5554 C   0  0  0  0  0  0  0  0  0  0  0  0
    0.6435    4.0510    2.1688 C   0  0  0  0  0  0  0  0  0  0  0  0
    0.4494    5.5332    3.1212 Cl  0  0  0  0  0  0  0  0  0  0  0  0
    1.4287    4.0657    1.0357 C   0  0  0  0  0  0  0  0  0  0  0  0
    1.5485    2.8702    0.3209 C   0  0  0  0  0  0  0  0  0  0  0  0
    2.3391    2.9767   -0.8012 F   0  0  0  0  0  0  0  0  0  0  0  0
    3.0479   -5.3526   -0.6477 H   0  0  0  0  0  0  0  0  0  0  0  0
    4.4974   -4.2061   -0.7230 H   0  0  0  0  0  0  0  0  0  0  0  0
    2.8564   -3.6711   -1.3230 H   0  0  0  0  0  0  0  0  0  0  0  0
    3.8594   -4.0460    1.5296 H   0  0  0  0  0  0  0  0  0  0  0  0
    2.0903   -4.0998    1.0645 H   0  0  0  0  0  0  0  0  0  0  0  0
    4.5694    1.4948   -0.4877 H   0  0  0  0  0  0  0  0  0  0  0  0
    5.5135    0.8783    0.8726 H   0  0  0  0  0  0  0  0  0  0  0  0
    4.0697    1.8118    1.2688 H   0  0  0  0  0  0  0  0  0  0  0  0
   -1.0356    1.9784   -0.7971 H   0  0  0  0  0  0  0  0  0  0  0  0
   -3.4985    3.4551   -0.5136 H   0  0  0  0  0  0  0  0  0  0  0  0
   -2.7125    3.4775   -2.1358 H   0  0  0  0  0  0  0  0  0  0  0  0
   -4.4532    2.9732   -1.9292 H   0  0  0  0  0  0  0  0  0  0  0  0
   -3.9047   -3.5340   -1.6898 H   0  0  0  0  0  0  0  0  0  0  0  0
   -5.6555   -3.4506   -1.4270 H   0  0  0  0  0  0  0  0  0  0  0  0
   -4.4945   -3.3095   -0.0322 H   0  0  0  0  0  0  0  0  0  0  0  0
   -2.1196   -2.0746   -0.5647 H   0  0  0  0  0  0  0  0  0  0  0  0
    1.2985    0.8689   -1.1376 H   0  0  0  0  0  0  0  0  0  0  0  0
   -0.3767    0.8478    2.2002 H   0  0  0  0  0  0  0  0  0  0  0  0
   -0.5880    2.9258    3.4467 H   0  0  0  0  0  0  0  0  0  0  0  0
    1.9242    4.9732    0.7272 H   0  0  0  0  0  0  0  0  0  0  0  0
  1  2  1  0
  2  3  1  0
  3  4  1  0
  4  5  2  0
  5  6  1  0
  5  7  1  0
  7  8  2  0
  8  9  1  0
  9 10  2  0
  9 11  1  0
 11 12  1  0
 12 13  1  0
 13 14  2  0
 14 15  1  0
 14 16  1  0
 16 17  2  0
 17 18  1  0
 18 19  2  0
 19 20  1  0
 19 21  1  0
 21 22  1  0
 11 23  1  0
 23 24  1  0
 24 25  2  0
 25 26  1  0
 26 27  2  0
 27 28  1  0
 27 29  1  0
 29 30  2  0
 30 31  1  0
  8  3  1  0
 22 12  2  0
 30 24  1  0
 23  7  1  0
 21 16  1  0
  1 32  1  0
  1 33  1  0
  1 34  1  0
  2 35  1  0
  2 36  1  0
  6 37  1  0
  6 38  1  0
  6 39  1  0
 13 40  1  0
 15 41  1  0
 15 42  1  0
 15 43  1  0
 20 44  1  0
 20 45  1  0
 20 46  1  0
 22 47  1  0
 23 48  1  0
 25 49  1  0
 26 50  1  0
 29 51  1  0
M  END
$$$$
