
     RDKit          3D

 46 48  0  0  0  0  0  0  0  0999 V2000
    7.7467   -0.4908    1.2337 C   0  0  0  0  0  0  0  0  0  0  0  0
    6.9262    0.2421    0.3453 O   0  0  0  0  0  0  0  0  0  0  0  0
    5.5583    0.0385    0.4105 C   0  0  0  0  0  0  0  0  0  0  0  0
    4.9861   -0.8330    1.2909 C   0  0  0  0  0  0  0  0  0  0  0  0
    3.6202   -1.0417    1.3620 C   0  0  0  0  0  0  0  0  0  0  0  0
    2.7949   -0.3412    0.5081 C   0  0  0  0  0  0  0  0  0  0  0  0
    1.4435   -0.5424    0.5727 C   0  0  0  0  0  0  0  0  0  0  0  0
    0.5939    0.1298   -0.2545 C   0  0  0  0  0  0  0  0  0  0  0  0
   -0.8467   -0.0280   -0.2846 C   0  0  0  0  0  0  0  0  0  0  0  0
   -1.7026    1.0089   -0.2022 N   0  0  0  0  0  0  0  0  0  0  0  0
   -2.9568    0.6080   -0.2649 N   0  0  0  0  0  0  0  0  0  0  0  0
   -4.1658    1.4161   -0.2106 C   0  0  0  0  0  0  0  0  0  0  0  0
   -3.8320    2.7419    0.4744 C   0  0  0  0  0  0  0  0  0  0  0  0
   -5.2586    0.7632    0.5828 C   0  0  0  0  0  0  0  0  0  0  0  0
   -4.6588    1.7733   -1.5987 C   0  0  0  0  0  0  0  0  0  0  0  0
   -2.9379   -0.7221   -0.3923 C   0  0  0  0  0  0  0  0  0  0  0  0
   -4.0419   -1.6022   -0.4976 N   0  0  0  0  0  0  0  0  0  0  0  0
   -1.6100   -1.1571   -0.4092 C   0  0  0  0  0  0  0  0  0  0  0  0
   -1.1666   -2.5345   -0.5508 C   0  0  0  0  0  0  0  0  0  0  0  0
    0.1931   -2.8833   -0.6298 N   0  0  0  0  0  0  0  0  0  0  0  0
   -2.0236   -3.4495   -0.6076 O   0  0  0  0  0  0  0  0  0  0  0  0
    1.1951    1.0237   -1.1552 C   0  0  0  0  0  0  0  0  0  0  0  0
    2.5223    1.2048   -1.2000 N   0  0  0  0  0  0  0  0  0  0  0  0
    3.3611    0.5538   -0.3984 C   0  0  0  0  0  0  0  0  0  0  0  0
    4.7100    0.7311   -0.4373 C   0  0  0  0  0  0  0  0  0  0  0  0
    7.7027   -1.5478    0.9353 H   0  0  0  0  0  0  0  0  0  0  0  0
    7.3344   -0.3488    2.2515 H   0  0  0  0  0  0  0  0  0  0  0  0
    8.7950   -0.1311    1.1622 H   0  0  0  0  0  0  0  0  0  0  0  0
    5.6085   -1.4019    1.9789 H   0  0  0  0  0  0  0  0  0  0  0  0
    3.1943   -1.7481    2.0799 H   0  0  0  0  0  0  0  0  0  0  0  0
    1.0736   -1.2313    1.3069 H   0  0  0  0  0  0  0  0  0  0  0  0
   -4.8002    3.2460    0.6877 H   0  0  0  0  0  0  0  0  0  0  0  0
   -3.2933    2.5896    1.4247 H   0  0  0  0  0  0  0  0  0  0  0  0
   -3.2449    3.4005   -0.1785 H   0  0  0  0  0  0  0  0  0  0  0  0
   -4.8953   -0.0832    1.1974 H   0  0  0  0  0  0  0  0  0  0  0  0
   -5.7564    1.4839    1.2867 H   0  0  0  0  0  0  0  0  0  0  0  0
   -6.0725    0.3924   -0.0762 H   0  0  0  0  0  0  0  0  0  0  0  0
   -5.3171    1.0027   -2.0083 H   0  0  0  0  0  0  0  0  0  0  0  0
   -3.8016    2.0074   -2.2698 H   0  0  0  0  0  0  0  0  0  0  0  0
   -5.2466    2.7177   -1.4929 H   0  0  0  0  0  0  0  0  0  0  0  0
   -4.0901   -2.4230    0.1453 H   0  0  0  0  0  0  0  0  0  0  0  0
   -4.8035   -1.4780   -1.1754 H   0  0  0  0  0  0  0  0  0  0  0  0
    0.6557   -3.3536    0.2002 H   0  0  0  0  0  0  0  0  0  0  0  0
    0.7910   -2.7142   -1.4503 H   0  0  0  0  0  0  0  0  0  0  0  0
    0.5854    1.5887   -1.8374 H   0  0  0  0  0  0  0  0  0  0  0  0
    5.1309    1.4228   -1.1398 H   0  0  0  0  0  0  0  0  0  0  0  0
  1  2  1  0
  2  3  1  0
  3  4  2  0
  4  5  1  0
  5  6  2  0
  6  7  1  0
  7  8  2  0
  8  9  1  0
  9 10  2  0
 10 11  1  0
 11 12  1  0
 12 13  1  0
 12 14  1  0
 12 15  1  0
 11 16  1  0
 16 17  1  0
 16 18  2  0
 18 19  1  0
 19 20  1  0
 19 21  2  0
  8 22  1  0
 22 23  2  0
 23 24  1  0
 24 25  2  0
 25  3  1  0
 24  6  1  0
 18  9  1  0
  1 26  1  0
  1 27  1  0
  1 28  1  0
  4 29  1  0
  5 30  1  0
  7 31  1  0
 13 32  1  0
 13 33  1  0
 13 34  1  0
 14 35  1  0
 14 36  1  0
 14 37  1  0
 15 38  1  0
 15 39  1  0
 15 40  1  0
 17 41  1  0
 17 42  1  0
 20 43  1  0
 20 44  1  0
 22 45  1  0
 25 46  1  0
M  END
$$$$
