
     RDKit          3D

 45 48  0  0  0  0  0  0  0  0999 V2000
   -9.1148   -0.2316    0.5789 C   0  0  0  0  0  0  0  0  0  0  0  0
   -7.9316    0.5399    0.5452 O   0  0  0  0  0  0  0  0  0  0  0  0
   -6.6964   -0.0396    0.2782 C   0  0  0  0  0  0  0  0  0  0  0  0
   -6.6509   -1.3940    0.0452 C   0  0  0  0  0  0  0  0  0  0  0  0
   -5.4197   -1.9336   -0.2141 C   0  0  0  0  0  0  0  0  0  0  0  0
   -4.2403   -1.1592   -0.2463 C   0  0  0  0  0  0  0  0  0  0  0  0
   -2.7200   -1.9677   -0.5633 Cl  0  0  0  0  0  0  0  0  0  0  0  0
   -4.2773    0.1851   -0.0169 C   0  0  0  0  0  0  0  0  0  0  0  0
   -2.9050    1.2648   -0.0511 S   0  0  0  0  0  6  0  0  0  0  0  0
   -3.3769    2.6477    0.3244 O   0  0  0  0  0  0  0  0  0  0  0  0
   -2.3401    1.3344   -1.4604 O   0  0  0  0  0  0  0  0  0  0  0  0
   -1.6474    0.8083    0.9995 N   0  0  0  0  0  0  0  0  0  0  0  0
   -0.2939    0.5496    0.6067 C   0  0  0  0  0  0  0  0  0  0  0  0
    0.7116    0.8592    1.5472 C   0  0  0  0  0  0  0  0  0  0  0  0
    2.0150    0.6338    1.2876 C   0  0  0  0  0  0  0  0  0  0  0  0
    2.4121    0.0802    0.0644 C   0  0  0  0  0  0  0  0  0  0  0  0
    3.8350   -0.1287   -0.1297 C   0  0  0  0  0  0  0  0  0  0  0  0
    4.2883   -0.6662   -1.3029 C   0  0  0  0  0  0  0  0  0  0  0  0
    5.6108   -0.8758   -1.5197 N   0  0  0  0  0  0  0  0  0  0  0  0
    6.5121   -0.5601   -0.5856 C   0  0  0  0  0  0  0  0  0  0  0  0
    7.9024   -0.6584   -0.5254 C   0  0  0  0  0  0  0  0  0  0  0  0
    8.7805   -1.1912   -1.5984 C   0  0  0  0  0  0  0  0  0  0  0  0
    8.2243   -0.1733    0.6869 N   0  0  0  0  0  0  0  0  0  0  0  0
    7.1494    0.2003    1.3426 N   0  0  0  0  0  0  0  0  0  0  0  0
    6.0307   -0.0197    0.5886 C   0  0  0  0  0  0  0  0  0  0  0  0
    4.7294    0.1929    0.8168 N   0  0  0  0  0  0  0  0  0  0  0  0
    1.4350   -0.2178   -0.8439 C   0  0  0  0  0  0  0  0  0  0  0  0
    0.0769    0.0109   -0.5892 C   0  0  0  0  0  0  0  0  0  0  0  0
   -5.5569    0.7198    0.2486 C   0  0  0  0  0  0  0  0  0  0  0  0
   -8.9461   -1.1187    1.2572 H   0  0  0  0  0  0  0  0  0  0  0  0
   -9.9756    0.3592    0.9026 H   0  0  0  0  0  0  0  0  0  0  0  0
   -9.2558   -0.6730   -0.4412 H   0  0  0  0  0  0  0  0  0  0  0  0
   -7.5441   -1.9993    0.0664 H   0  0  0  0  0  0  0  0  0  0  0  0
   -5.3515   -2.9862   -0.3997 H   0  0  0  0  0  0  0  0  0  0  0  0
   -1.8410    0.6911    2.0469 H   0  0  0  0  0  0  0  0  0  0  0  0
    0.3925    1.2889    2.4941 H   0  0  0  0  0  0  0  0  0  0  0  0
    2.7900    0.8780    2.0254 H   0  0  0  0  0  0  0  0  0  0  0  0
    3.6515   -0.9624   -2.1355 H   0  0  0  0  0  0  0  0  0  0  0  0
    8.4224   -0.8481   -2.6092 H   0  0  0  0  0  0  0  0  0  0  0  0
    8.6601   -2.2907   -1.6083 H   0  0  0  0  0  0  0  0  0  0  0  0
    9.8103   -0.8527   -1.4961 H   0  0  0  0  0  0  0  0  0  0  0  0
    7.1691    0.6063    2.3048 H   0  0  0  0  0  0  0  0  0  0  0  0
    1.7214   -0.6457   -1.7935 H   0  0  0  0  0  0  0  0  0  0  0  0
   -0.6426   -0.2269   -1.3590 H   0  0  0  0  0  0  0  0  0  0  0  0
   -5.6026    1.7727    0.4311 H   0  0  0  0  0  0  0  0  0  0  0  0
  1  2  1  0
  2  3  1  0
  3  4  2  0
  4  5  1  0
  5  6  2  0
  6  7  1  0
  6  8  1  0
  8  9  1  0
  9 10  2  0
  9 11  2  0
  9 12  1  0
 12 13  1  0
 13 14  2  0
 14 15  1  0
 15 16  2  0
 16 17  1  0
 17 18  2  0
 18 19  1  0
 19 20  2  0
 20 21  1  0
 21 22  1  0
 21 23  2  0
 23 24  1  0
 24 25  1  0
 25 26  2  0
 16 27  1  0
 27 28  2  0
  8 29  2  0
 29  3  1  0
 28 13  1  0
 26 17  1  0
 25 20  1  0
  1 30  1  0
  1 31  1  0
  1 32  1  0
  4 33  1  0
  5 34  1  0
 12 35  1  0
 14 36  1  0
 15 37  1  0
 18 38  1  0
 22 39  1  0
 22 40  1  0
 22 41  1  0
 24 42  1  0
 27 43  1  0
 28 44  1  0
 29 45  1  0
M  END
$$$$
