
     RDKit          3D

 68 72  0  0  0  0  0  0  0  0999 V2000
    0.2169    4.7531    1.3511 C   0  0  0  0  0  0  0  0  0  0  0  0
    0.1427    3.7978    2.5074 C   0  0  0  0  0  0  0  0  0  0  0  0
   -0.2729    2.4008    2.0244 C   0  0  0  0  0  0  0  0  0  0  0  0
   -1.6063    2.5093    1.3823 C   0  0  0  0  0  0  0  0  0  0  0  0
   -2.1444    1.2151    0.8487 C   0  0  0  0  0  0  0  0  0  0  0  0
   -2.9866    0.4123    1.5366 N   0  0  0  0  0  0  0  0  0  0  0  0
   -3.2949   -0.6801    0.8774 N   0  0  0  0  0  0  0  0  0  0  0  0
   -4.1659   -1.7467    1.3189 C   0  0  0  0  0  0  0  0  0  0  0  0
   -5.4003   -1.8576    0.7059 C   0  0  0  0  0  0  0  0  0  0  0  0
   -6.3109   -2.8225    1.0339 C   0  0  0  0  0  0  0  0  0  0  0  0
   -5.9599   -3.7234    2.0324 C   0  0  0  0  0  0  0  0  0  0  0  0
   -4.7223   -3.6181    2.6522 C   0  0  0  0  0  0  0  0  0  0  0  0
   -4.3305   -4.7682    3.8941 Cl  0  0  0  0  0  0  0  0  0  0  0  0
   -3.8127   -2.6235    2.2971 C   0  0  0  0  0  0  0  0  0  0  0  0
   -2.6362   -0.6121   -0.3005 C   0  0  0  0  0  0  0  0  0  0  0  0
   -2.7221   -1.6502   -1.3170 C   0  0  0  0  0  0  0  0  0  0  0  0
   -3.4554   -2.6672   -1.0749 O   0  0  0  0  0  0  0  0  0  0  0  0
   -2.0432   -1.5812   -2.5335 O   0  0  0  0  0  0  0  0  0  0  0  0
   -2.2138   -2.6584   -3.4336 C   0  0  0  0  0  0  0  0  0  0  0  0
   -3.6605   -2.7731   -3.7831 C   0  0  0  0  0  0  0  0  0  0  0  0
   -1.9024    0.5794   -0.3410 C   0  0  0  0  0  0  0  0  0  0  0  0
   -1.0906    0.9957   -1.4974 C   0  0  0  0  0  0  0  0  0  0  0  0
    0.3707    0.8379   -1.3589 C   0  0  0  0  0  0  0  0  0  0  0  0
    1.2220    1.9406   -1.3297 C   0  0  0  0  0  0  0  0  0  0  0  0
    2.5853    1.7942   -1.1967 C   0  0  0  0  0  0  0  0  0  0  0  0
    3.1834    0.5581   -1.0857 C   0  0  0  0  0  0  0  0  0  0  0  0
    4.6469    0.4307   -0.9538 C   0  0  0  0  0  0  0  0  0  0  0  0
    5.4360    0.7367   -2.0590 C   0  0  0  0  0  0  0  0  0  0  0  0
    6.7967    0.6432   -2.0397 C   0  0  0  0  0  0  0  0  0  0  0  0
    7.4390    0.2320   -0.8926 C   0  0  0  0  0  0  0  0  0  0  0  0
    6.6416   -0.0720    0.2088 C   0  0  0  0  0  0  0  0  0  0  0  0
    5.2696    0.0242    0.1837 C   0  0  0  0  0  0  0  0  0  0  0  0
    4.4966   -0.3004    1.3718 C   0  0  0  0  0  0  0  0  0  0  0  0
    3.1643   -0.2449    1.5250 N   0  0  0  0  0  0  0  0  0  0  0  0
    2.8719   -0.6160    2.7515 N   0  0  0  0  0  0  0  0  0  0  0  0
    4.0047   -0.8972    3.3496 N   0  0  0  0  0  0  0  0  0  0  0  0
    5.0222   -0.7139    2.5301 N   0  0  0  0  0  0  0  0  0  0  0  0
    2.3520   -0.5406   -1.1133 C   0  0  0  0  0  0  0  0  0  0  0  0
    0.9806   -0.3913   -1.2470 C   0  0  0  0  0  0  0  0  0  0  0  0
   -0.7938    5.0991    1.0859 H   0  0  0  0  0  0  0  0  0  0  0  0
    0.7748    4.3706    0.4852 H   0  0  0  0  0  0  0  0  0  0  0  0
    0.7622    5.6590    1.7187 H   0  0  0  0  0  0  0  0  0  0  0  0
   -0.7000    4.1414    3.1592 H   0  0  0  0  0  0  0  0  0  0  0  0
    1.0869    3.7438    3.0828 H   0  0  0  0  0  0  0  0  0  0  0  0
    0.5157    2.0539    1.3488 H   0  0  0  0  0  0  0  0  0  0  0  0
   -0.2824    1.7372    2.9255 H   0  0  0  0  0  0  0  0  0  0  0  0
   -1.5491    3.2731    0.5793 H   0  0  0  0  0  0  0  0  0  0  0  0
   -2.3202    2.9172    2.1321 H   0  0  0  0  0  0  0  0  0  0  0  0
   -5.6599   -1.1405   -0.0774 H   0  0  0  0  0  0  0  0  0  0  0  0
   -7.2557   -2.8531    0.5160 H   0  0  0  0  0  0  0  0  0  0  0  0
   -6.6855   -4.4844    2.2882 H   0  0  0  0  0  0  0  0  0  0  0  0
   -2.8699   -2.5589    2.7828 H   0  0  0  0  0  0  0  0  0  0  0  0
   -1.6378   -2.4740   -4.3654 H   0  0  0  0  0  0  0  0  0  0  0  0
   -1.8684   -3.5815   -2.9160 H   0  0  0  0  0  0  0  0  0  0  0  0
   -4.1910   -3.5492   -3.1818 H   0  0  0  0  0  0  0  0  0  0  0  0
   -3.7348   -3.1334   -4.8409 H   0  0  0  0  0  0  0  0  0  0  0  0
   -4.2097   -1.8305   -3.6317 H   0  0  0  0  0  0  0  0  0  0  0  0
   -1.2955    2.1208   -1.6554 H   0  0  0  0  0  0  0  0  0  0  0  0
   -1.4629    0.5894   -2.4769 H   0  0  0  0  0  0  0  0  0  0  0  0
    0.7686    2.9116   -1.4164 H   0  0  0  0  0  0  0  0  0  0  0  0
    3.2624    2.6571   -1.1726 H   0  0  0  0  0  0  0  0  0  0  0  0
    4.9158    1.0592   -2.9550 H   0  0  0  0  0  0  0  0  0  0  0  0
    7.4028    0.8878   -2.9169 H   0  0  0  0  0  0  0  0  0  0  0  0
    8.5165    0.1556   -0.8719 H   0  0  0  0  0  0  0  0  0  0  0  0
    7.1783   -0.3963    1.1072 H   0  0  0  0  0  0  0  0  0  0  0  0
    6.0518   -0.8589    2.7290 H   0  0  0  0  0  0  0  0  0  0  0  0
    2.8177   -1.5337   -1.0257 H   0  0  0  0  0  0  0  0  0  0  0  0
    0.3521   -1.2854   -1.2624 H   0  0  0  0  0  0  0  0  0  0  0  0
  1  2  1  0
  2  3  1  0
  3  4  1  0
  4  5  1  0
  5  6  2  0
  6  7  1  0
  7  8  1  0
  8  9  2  0
  9 10  1  0
 10 11  2  0
 11 12  1  0
 12 13  1  0
 12 14  2  0
  7 15  1  0
 15 16  1  0
 16 17  2  0
 16 18  1  0
 18 19  1  0
 19 20  1  0
 15 21  2  0
 21 22  1  0
 22 23  1  0
 23 24  2  0
 24 25  1  0
 25 26  2  0
 26 27  1  0
 27 28  2  0
 28 29  1  0
 29 30  2  0
 30 31  1  0
 31 32  2  0
 32 33  1  0
 33 34  2  0
 34 35  1  0
 35 36  2  0
 36 37  1  0
 26 38  1  0
 38 39  2  0
 21  5  1  0
 39 23  1  0
 14  8  1  0
 32 27  1  0
 37 33  1  0
  1 40  1  0
  1 41  1  0
  1 42  1  0
  2 43  1  0
  2 44  1  0
  3 45  1  0
  3 46  1  0
  4 47  1  0
  4 48  1  0
  9 49  1  0
 10 50  1  0
 11 51  1  0
 14 52  1  0
 19 53  1  0
 19 54  1  0
 20 55  1  0
 20 56  1  0
 20 57  1  0
 22 58  1  0
 22 59  1  0
 24 60  1  0
 25 61  1  0
 28 62  1  0
 29 63  1  0
 30 64  1  0
 31 65  1  0
 37 66  1  0
 38 67  1  0
 39 68  1  0
M  END
$$$$
