
     RDKit          3D

 67 70  0  0  0  0  0  0  0  0999 V2000
   -5.8071   -7.1962    0.7870 C   0  0  0  0  0  0  0  0  0  0  0  0
   -4.8762   -6.1039    0.3062 C   0  0  0  0  0  0  0  0  0  0  0  0
   -4.5711   -5.2161    1.4075 N   0  0  0  0  0  0  0  0  0  0  0  0
   -3.6988   -4.1204    1.1280 C   0  0  0  0  0  0  0  0  0  0  0  0
   -2.3797   -4.3053    1.2864 N   0  0  0  0  0  0  0  0  0  0  0  0
   -1.5173   -3.3090    1.0340 C   0  0  0  0  0  0  0  0  0  0  0  0
   -1.9649   -2.0334    0.5941 C   0  0  0  0  0  0  0  0  0  0  0  0
   -0.9264   -1.1362    0.1697 C   0  0  0  0  0  0  0  0  0  0  0  0
   -1.0906   -0.2950   -0.7225 O   0  0  0  0  0  0  0  0  0  0  0  0
    0.3914   -1.1446    0.7554 N   0  0  0  0  0  0  0  0  0  0  0  0
    1.4095   -0.2302    0.3030 C   0  0  0  0  0  0  0  0  0  0  0  0
    1.5675    1.0106    0.8763 C   0  0  0  0  0  0  0  0  0  0  0  0
    2.5287    1.9138    0.4725 C   0  0  0  0  0  0  0  0  0  0  0  0
    3.3551    1.5190   -0.5607 C   0  0  0  0  0  0  0  0  0  0  0  0
    4.5974    2.5907   -1.1385 S   0  0  0  0  0  6  0  0  0  0  0  0
    4.1741    4.0223   -0.9886 O   0  0  0  0  0  0  0  0  0  0  0  0
    4.9075    2.3263   -2.5657 O   0  0  0  0  0  0  0  0  0  0  0  0
    6.0304    2.2699   -0.2166 N   0  0  0  0  0  0  0  0  0  0  0  0
    6.4311    0.9091   -0.4387 C   0  0  0  0  0  0  0  0  0  0  0  0
    7.7600    0.5818    0.1706 C   0  0  0  0  0  0  0  0  0  0  0  0
    8.6430    1.6473    0.1937 O   0  0  0  0  0  0  0  0  0  0  0  0
    8.3695    2.5786   -0.8038 C   0  0  0  0  0  0  0  0  0  0  0  0
    7.0194    3.2368   -0.5945 C   0  0  0  0  0  0  0  0  0  0  0  0
    3.2056    0.2841   -1.1387 C   0  0  0  0  0  0  0  0  0  0  0  0
    2.2477   -0.5844   -0.7178 C   0  0  0  0  0  0  0  0  0  0  0  0
   -3.2876   -1.8490    0.4428 C   0  0  0  0  0  0  0  0  0  0  0  0
   -3.9093   -0.6268    0.2060 N   0  0  0  0  0  0  0  0  0  0  0  0
   -3.4835    0.7085    0.2350 C   0  0  1  0  0  0  0  0  0  0  0  0
   -3.5885    1.4620   -1.0877 C   0  0  0  0  0  0  0  0  0  0  0  0
   -2.8612    2.7886   -0.8452 C   0  0  0  0  0  0  0  0  0  0  0  0
   -3.6554    3.6025    0.1271 C   0  0  2  0  0  0  0  0  0  0  0  0
   -2.8156    4.6397    0.5859 O   0  0  0  0  0  0  0  0  0  0  0  0
   -4.1409    2.8641    1.3257 C   0  0  0  0  0  0  0  0  0  0  0  0
   -4.5893    1.4668    1.0924 C   0  0  0  0  0  0  0  0  0  0  0  0
   -4.1216   -2.9397    0.7236 N   0  0  0  0  0  0  0  0  0  0  0  0
   -6.5246   -7.4908   -0.0090 H   0  0  0  0  0  0  0  0  0  0  0  0
   -6.3334   -6.8071    1.6815 H   0  0  0  0  0  0  0  0  0  0  0  0
   -5.1836   -8.0488    1.1237 H   0  0  0  0  0  0  0  0  0  0  0  0
   -5.3130   -5.5259   -0.5453 H   0  0  0  0  0  0  0  0  0  0  0  0
   -3.9090   -6.5225   -0.0405 H   0  0  0  0  0  0  0  0  0  0  0  0
   -4.9588   -5.3517    2.3663 H   0  0  0  0  0  0  0  0  0  0  0  0
   -0.4633   -3.4647    1.1571 H   0  0  0  0  0  0  0  0  0  0  0  0
    0.5593   -1.8286    1.5123 H   0  0  0  0  0  0  0  0  0  0  0  0
    0.8969    1.3029    1.6982 H   0  0  0  0  0  0  0  0  0  0  0  0
    2.6367    2.9023    0.9465 H   0  0  0  0  0  0  0  0  0  0  0  0
    5.6660    0.2586    0.0670 H   0  0  0  0  0  0  0  0  0  0  0  0
    6.4029    0.6162   -1.5064 H   0  0  0  0  0  0  0  0  0  0  0  0
    7.6369    0.0961    1.1557 H   0  0  0  0  0  0  0  0  0  0  0  0
    8.2387   -0.2018   -0.4847 H   0  0  0  0  0  0  0  0  0  0  0  0
    8.4495    2.1526   -1.8246 H   0  0  0  0  0  0  0  0  0  0  0  0
    9.1418    3.3755   -0.7268 H   0  0  0  0  0  0  0  0  0  0  0  0
    7.1563    3.9775    0.2196 H   0  0  0  0  0  0  0  0  0  0  0  0
    6.7587    3.7414   -1.5567 H   0  0  0  0  0  0  0  0  0  0  0  0
    3.8859    0.0214   -1.9526 H   0  0  0  0  0  0  0  0  0  0  0  0
    2.1459   -1.5434   -1.1805 H   0  0  0  0  0  0  0  0  0  0  0  0
   -4.9656   -0.7221   -0.0841 H   0  0  0  0  0  0  0  0  0  0  0  0
   -2.5478    0.9668    0.7296 H   0  0  0  0  0  0  0  0  0  0  0  0
   -4.6629    1.7675   -1.2646 H   0  0  0  0  0  0  0  0  0  0  0  0
   -3.1916    0.9102   -1.9376 H   0  0  0  0  0  0  0  0  0  0  0  0
   -1.8628    2.5052   -0.4276 H   0  0  0  0  0  0  0  0  0  0  0  0
   -2.7594    3.3565   -1.7850 H   0  0  0  0  0  0  0  0  0  0  0  0
   -4.4728    4.1067   -0.4406 H   0  0  0  0  0  0  0  0  0  0  0  0
   -3.2400    5.5283    0.4847 H   0  0  0  0  0  0  0  0  0  0  0  0
   -3.4021    2.9137    2.1544 H   0  0  0  0  0  0  0  0  0  0  0  0
   -5.0361    3.4302    1.7159 H   0  0  0  0  0  0  0  0  0  0  0  0
   -5.5197    1.3363    0.5513 H   0  0  0  0  0  0  0  0  0  0  0  0
   -4.5814    0.9092    2.0436 H   0  0  0  0  0  0  0  0  0  0  0  0
  1  2  1  0
  2  3  1  0
  3  4  1  0
  4  5  2  0
  5  6  1  0
  6  7  2  0
  7  8  1  0
  8  9  2  0
  8 10  1  0
 10 11  1  0
 11 12  2  0
 12 13  1  0
 13 14  2  0
 14 15  1  0
 15 16  2  0
 15 17  2  0
 15 18  1  0
 18 19  1  0
 19 20  1  0
 20 21  1  0
 21 22  1  0
 22 23  1  0
 14 24  1  0
 24 25  2  0
  7 26  1  0
 26 27  1  0
 27 28  1  0
 28 29  1  0
 29 30  1  0
 30 31  1  0
 31 32  1  0
 31 33  1  0
 33 34  1  0
 26 35  2  0
 35  4  1  0
 25 11  1  0
 34 28  1  0
 23 18  1  0
  1 36  1  0
  1 37  1  0
  1 38  1  0
  2 39  1  0
  2 40  1  0
  3 41  1  0
  6 42  1  0
 10 43  1  0
 12 44  1  0
 13 45  1  0
 19 46  1  0
 19 47  1  0
 20 48  1  0
 20 49  1  0
 22 50  1  0
 22 51  1  0
 23 52  1  0
 23 53  1  0
 24 54  1  0
 25 55  1  0
 27 56  1  0
 28 57  1  1
 29 58  1  0
 29 59  1  0
 30 60  1  0
 30 61  1  0
 31 62  1  6
 32 63  1  0
 33 64  1  0
 33 65  1  0
 34 66  1  0
 34 67  1  0
M  END
$$$$
