
     RDKit          3D

 57 59  0  0  0  0  0  0  0  0999 V2000
   -1.5043   -2.9186    0.1326 C   0  0  0  0  0  0  0  0  0  0  0  0
   -2.7921   -2.2831    0.6046 C   0  0  0  0  0  0  0  0  0  0  0  0
   -3.1600   -0.9781   -0.0225 C   0  0  2  0  0  0  0  0  0  0  0  0
   -2.4168    0.1698    0.2074 N   0  0  0  0  0  0  0  0  0  0  0  0
   -1.0838    0.4700   -0.0769 C   0  0  0  0  0  0  0  0  0  0  0  0
   -0.1333   -0.3859   -0.4242 N   0  0  0  0  0  0  0  0  0  0  0  0
    1.1234   -0.2081   -0.7626 C   0  0  0  0  0  0  0  0  0  0  0  0
    2.0799   -1.1214   -1.1364 N   0  0  0  0  0  0  0  0  0  0  0  0
    3.0325   -2.0310   -1.5087 C   0  0  0  0  0  0  0  0  0  0  0  0
    3.9711   -2.2918   -0.3252 C   0  0  0  0  0  0  0  0  0  0  0  0
    3.7706   -3.3515    0.4899 C   0  0  0  0  0  0  0  0  0  0  0  0
    4.6792   -3.4810    1.5937 C   0  0  0  0  0  0  0  0  0  0  0  0
    5.6391   -2.5472    1.7131 C   0  0  0  0  0  0  0  0  0  0  0  0
    5.8409   -1.5025    0.9172 N   0  0  0  0  0  0  0  0  0  0  0  0
    4.9546   -1.3887   -0.1547 C   0  0  0  0  0  0  0  0  0  0  0  0
    1.5203    1.1756   -0.7496 C   0  0  0  0  0  0  0  0  0  0  0  0
    2.7033    1.7183   -1.0230 N   0  0  0  0  0  0  0  0  0  0  0  0
    2.5421    3.0658   -0.8378 C   0  0  0  0  0  0  0  0  0  0  0  0
    1.2787    3.2945   -0.4617 N   0  0  0  0  0  0  0  0  0  0  0  0
    0.7412    4.5704   -0.1652 C   0  0  0  0  0  0  0  0  0  0  0  0
    1.1453    5.5253   -1.2676 C   0  0  0  0  0  0  0  0  0  0  0  0
    1.3163    5.0171    1.1836 C   0  0  0  0  0  0  0  0  0  0  0  0
    0.5881    2.1076   -0.3981 C   0  0  0  0  0  0  0  0  0  0  0  0
   -0.6509    1.7890   -0.0807 N   0  0  0  0  0  0  0  0  0  0  0  0
   -4.6636   -0.8023   -0.1403 C   0  0  0  0  0  0  0  0  0  0  0  0
   -5.2033   -2.1223   -0.6898 C   0  0  0  0  0  0  0  0  0  0  0  0
   -5.4037   -0.4293    1.0615 C   0  0  0  0  0  0  0  0  0  0  0  0
   -4.8685    0.1286   -1.1832 O   0  0  0  0  0  0  0  0  0  0  0  0
   -1.3455   -2.7022   -0.9545 H   0  0  0  0  0  0  0  0  0  0  0  0
   -0.6116   -2.7515    0.7032 H   0  0  0  0  0  0  0  0  0  0  0  0
   -1.6458   -4.0807    0.1924 H   0  0  0  0  0  0  0  0  0  0  0  0
   -3.5766   -3.0229    0.7157 H   0  0  0  0  0  0  0  0  0  0  0  0
   -2.5148   -2.0438    1.7280 H   0  0  0  0  0  0  0  0  0  0  0  0
   -2.9095   -1.2145   -1.1676 H   0  0  0  0  0  0  0  0  0  0  0  0
   -2.9161    1.0430    0.6927 H   0  0  0  0  0  0  0  0  0  0  0  0
    1.3413   -2.1404   -0.6099 H   0  0  0  0  0  0  0  0  0  0  0  0
    3.7237   -1.6744   -2.3432 H   0  0  0  0  0  0  0  0  0  0  0  0
    2.6771   -2.9970   -1.8644 H   0  0  0  0  0  0  0  0  0  0  0  0
    3.0101   -4.0964    0.3902 H   0  0  0  0  0  0  0  0  0  0  0  0
    4.5473   -4.3332    2.2739 H   0  0  0  0  0  0  0  0  0  0  0  0
    6.3258   -2.6910    2.5956 H   0  0  0  0  0  0  0  0  0  0  0  0
    5.0894   -0.5617   -0.8120 H   0  0  0  0  0  0  0  0  0  0  0  0
    3.3344    3.7563   -0.9980 H   0  0  0  0  0  0  0  0  0  0  0  0
   -0.3612    4.5987   -0.1069 H   0  0  0  0  0  0  0  0  0  0  0  0
    2.2585    5.6951   -1.2553 H   0  0  0  0  0  0  0  0  0  0  0  0
    0.8989    5.0312   -2.2207 H   0  0  0  0  0  0  0  0  0  0  0  0
    0.5672    6.4787   -1.2181 H   0  0  0  0  0  0  0  0  0  0  0  0
    0.7148    4.5447    2.0010 H   0  0  0  0  0  0  0  0  0  0  0  0
    1.2067    6.1032    1.2885 H   0  0  0  0  0  0  0  0  0  0  0  0
    2.3480    4.6785    1.3477 H   0  0  0  0  0  0  0  0  0  0  0  0
   -5.9531   -1.9277   -1.5159 H   0  0  0  0  0  0  0  0  0  0  0  0
   -5.7576   -2.6885    0.0759 H   0  0  0  0  0  0  0  0  0  0  0  0
   -4.4121   -2.7719   -1.0983 H   0  0  0  0  0  0  0  0  0  0  0  0
   -5.8859   -1.3905    1.4605 H   0  0  0  0  0  0  0  0  0  0  0  0
   -4.7452   -0.1281    1.9323 H   0  0  0  0  0  0  0  0  0  0  0  0
   -6.2665    0.2315    0.9031 H   0  0  0  0  0  0  0  0  0  0  0  0
   -4.1880   -0.1337   -1.8699 H   0  0  0  0  0  0  0  0  0  0  0  0
  1  2  1  0
  2  3  1  0
  3  4  1  0
  4  5  1  0
  5  6  2  0
  6  7  1  0
  7  8  1  0
  8  9  1  0
  9 10  1  0
 10 11  2  0
 11 12  1  0
 12 13  2  0
 13 14  1  0
 14 15  2  0
  7 16  2  0
 16 17  1  0
 17 18  2  0
 18 19  1  0
 19 20  1  0
 20 21  1  0
 20 22  1  0
 19 23  1  0
 23 24  2  0
  3 25  1  0
 25 26  1  0
 25 27  1  0
 25 28  1  0
 24  5  1  0
 15 10  1  0
 23 16  1  0
  1 29  1  0
  1 30  1  0
  1 31  1  0
  2 32  1  0
  2 33  1  0
  3 34  1  6
  4 35  1  0
  8 36  1  0
  9 37  1  0
  9 38  1  0
 11 39  1  0
 12 40  1  0
 13 41  1  0
 15 42  1  0
 18 43  1  0
 20 44  1  0
 21 45  1  0
 21 46  1  0
 21 47  1  0
 22 48  1  0
 22 49  1  0
 22 50  1  0
 26 51  1  0
 26 52  1  0
 26 53  1  0
 27 54  1  0
 27 55  1  0
 27 56  1  0
 28 57  1  0
M  END
$$$$
