
     RDKit          3D

 50 54  0  0  0  0  0  0  0  0999 V2000
    7.7172    2.3371   -0.3530 C   0  0  0  0  0  0  0  0  0  0  0  0
    6.3241    2.1231    0.1216 C   0  0  0  0  0  0  0  0  0  0  0  0
    5.6869    3.1887    0.7245 C   0  0  0  0  0  0  0  0  0  0  0  0
    4.4312    3.0167    1.1600 N   0  0  0  0  0  0  0  0  0  0  0  0
    3.7828    1.8259    1.0199 C   0  0  0  0  0  0  0  0  0  0  0  0
    4.4051    0.7596    0.4224 C   0  0  0  0  0  0  0  0  0  0  0  0
    3.7605   -0.5288    0.2406 C   0  0  0  0  0  0  0  0  0  0  0  0
    4.2840   -1.7600    0.5285 N   0  0  0  0  0  0  0  0  0  0  0  0
    3.4354   -2.7113    0.2201 N   0  0  0  0  0  0  0  0  0  0  0  0
    2.3406   -2.1433   -0.2738 C   0  0  0  0  0  0  0  0  0  0  0  0
    2.5465   -0.7907   -0.2580 N   0  0  0  0  0  0  0  0  0  0  0  0
    1.4658    0.0369   -0.7472 C   0  0  0  0  0  0  0  0  0  0  0  0
    0.2008   -0.5434   -0.0712 C   0  0  0  0  0  0  0  0  0  0  0  0
   -0.0636   -1.8501   -0.6159 N   0  0  0  0  0  0  0  0  0  0  0  0
   -1.3699   -2.2328   -0.9556 C   0  0  0  0  0  0  0  0  0  0  0  0
   -1.5417   -3.4134   -1.4472 O   0  0  0  0  0  0  0  0  0  0  0  0
   -2.5131   -1.3687   -0.7755 C   0  0  0  0  0  0  0  0  0  0  0  0
   -3.4958   -1.7724    0.1214 C   0  0  0  0  0  0  0  0  0  0  0  0
   -4.6169   -1.0067    0.3497 C   0  0  0  0  0  0  0  0  0  0  0  0
   -4.7721    0.1987   -0.3310 C   0  0  0  0  0  0  0  0  0  0  0  0
   -5.9381    1.0054   -0.1029 C   0  0  0  0  0  0  0  0  0  0  0  0
   -6.3651    2.2178   -0.5652 C   0  0  0  0  0  0  0  0  0  0  0  0
   -7.5304    2.7021   -0.1343 C   0  0  0  0  0  0  0  0  0  0  0  0
   -8.2904    2.0210    0.7451 C   0  0  0  0  0  0  0  0  0  0  0  0
   -7.2912    0.5303    1.0204 S   0  0  0  0  0  0  0  0  0  0  0  0
   -3.7978    0.5849   -1.2118 C   0  0  0  0  0  0  0  0  0  0  0  0
   -2.6572   -0.1879   -1.4485 C   0  0  0  0  0  0  0  0  0  0  0  0
    1.0816   -2.7329   -0.7905 C   0  0  2  0  0  0  0  0  0  0  0  0
    0.8450   -4.1147   -0.2347 C   0  0  0  0  0  0  0  0  0  0  0  0
    5.6847    0.9603   -0.0131 N   0  0  0  0  0  0  0  0  0  0  0  0
    8.4050    1.9376    0.4455 H   0  0  0  0  0  0  0  0  0  0  0  0
    7.9307    3.4213   -0.4463 H   0  0  0  0  0  0  0  0  0  0  0  0
    7.9379    1.7827   -1.2844 H   0  0  0  0  0  0  0  0  0  0  0  0
    6.2155    4.1505    0.8355 H   0  0  0  0  0  0  0  0  0  0  0  0
    2.7826    1.7780    1.4011 H   0  0  0  0  0  0  0  0  0  0  0  0
    1.5063    1.0828   -0.4742 H   0  0  0  0  0  0  0  0  0  0  0  0
    1.3568   -0.0368   -1.8523 H   0  0  0  0  0  0  0  0  0  0  0  0
    0.5025   -0.6371    1.0110 H   0  0  0  0  0  0  0  0  0  0  0  0
   -0.6165    0.1704   -0.1583 H   0  0  0  0  0  0  0  0  0  0  0  0
   -3.3552   -2.7180    0.6471 H   0  0  0  0  0  0  0  0  0  0  0  0
   -5.3841   -1.3113    1.0416 H   0  0  0  0  0  0  0  0  0  0  0  0
   -5.6763    2.7417   -1.3044 H   0  0  0  0  0  0  0  0  0  0  0  0
   -7.8982    3.7016   -0.5057 H   0  0  0  0  0  0  0  0  0  0  0  0
   -9.2223    2.2021    1.2130 H   0  0  0  0  0  0  0  0  0  0  0  0
   -3.9364    1.5337   -1.7377 H   0  0  0  0  0  0  0  0  0  0  0  0
   -1.9153    0.1598   -2.1578 H   0  0  0  0  0  0  0  0  0  0  0  0
    1.1826   -2.8844   -1.9091 H   0  0  0  0  0  0  0  0  0  0  0  0
    1.8084   -4.5178    0.1052 H   0  0  0  0  0  0  0  0  0  0  0  0
    0.1532   -4.1050    0.6360 H   0  0  0  0  0  0  0  0  0  0  0  0
    0.4739   -4.8029   -1.0296 H   0  0  0  0  0  0  0  0  0  0  0  0
  1  2  1  0
  2  3  2  0
  3  4  1  0
  4  5  2  0
  5  6  1  0
  6  7  1  0
  7  8  2  0
  8  9  1  0
  9 10  2  0
 10 11  1  0
 11 12  1  0
 12 13  1  0
 13 14  1  0
 14 15  1  0
 15 16  2  0
 15 17  1  0
 17 18  2  0
 18 19  1  0
 19 20  2  0
 20 21  1  0
 21 22  2  0
 22 23  1  0
 23 24  2  0
 24 25  1  0
 20 26  1  0
 26 27  2  0
 14 28  1  0
 28 29  1  0
  6 30  2  0
 30  2  1  0
 11  7  1  0
 27 17  1  0
 28 10  1  0
 25 21  1  0
  1 31  1  0
  1 32  1  0
  1 33  1  0
  3 34  1  0
  5 35  1  0
 12 36  1  0
 12 37  1  0
 13 38  1  0
 13 39  1  0
 18 40  1  0
 19 41  1  0
 22 42  1  0
 23 43  1  0
 24 44  1  0
 26 45  1  0
 27 46  1  0
 28 47  1  6
 29 48  1  0
 29 49  1  0
 29 50  1  0
M  END
$$$$
