
     RDKit          3D

 48 49  0  0  0  0  0  0  0  0999 V2000
    0.7395    0.6706    1.1724 O   0  0  0  0  0  0  0  0  0  0  0  0
    0.9360    1.6296    0.3224 C   0  0  0  0  0  0  0  0  0  0  0  0
    2.0838    1.2730   -0.3841 N   0  0  0  0  0  0  0  0  0  0  0  0
    2.9146    0.0647   -0.1342 C   0  0  2  0  0  0  0  0  0  0  0  0
    4.3158    0.4872    0.0471 C   0  0  0  0  0  0  0  0  0  0  0  0
    4.5975    1.7069   -0.0273 O   0  0  0  0  0  0  0  0  0  0  0  0
    5.3527   -0.3970    0.2980 O   0  0  0  0  0  0  0  0  0  0  0  0
    2.8478   -0.9161   -1.2856 C   0  0  0  0  0  0  0  0  0  0  0  0
    1.4545   -1.4841   -1.4391 C   0  0  0  0  0  0  0  0  0  0  0  0
    1.0481   -2.3137   -0.2462 C   0  0  0  0  0  0  0  0  0  0  0  0
   -0.4473   -2.4763   -0.3446 C   0  0  0  0  0  0  0  0  0  0  0  0
   -0.9501   -3.1332    0.9674 C   0  0  0  0  0  0  0  0  0  0  0  0
   -2.4370   -2.7208    1.0607 C   0  0  0  0  0  0  0  0  0  0  0  0
   -2.5247   -1.2215    0.8320 C   0  0  0  0  0  0  0  0  0  0  0  0
   -3.3716   -0.9785   -0.2718 C   0  0  0  0  0  0  0  0  0  0  0  0
   -3.5517    0.2637   -0.8157 C   0  0  0  0  0  0  0  0  0  0  0  0
   -2.8410    1.2628   -0.2050 C   0  0  0  0  0  0  0  0  0  0  0  0
   -1.9798    1.0710    0.9035 C   0  0  0  0  0  0  0  0  0  0  0  0
   -1.8289   -0.2024    1.4322 C   0  0  0  0  0  0  0  0  0  0  0  0
   -1.2917    2.3395    1.2684 C   0  0  0  0  0  0  0  0  0  0  0  0
   -0.0598    2.6748    0.4081 C   0  0  2  0  0  0  0  0  0  0  0  0
   -0.4791    3.2492   -0.8965 C   0  0  0  0  0  0  0  0  0  0  0  0
   -1.6628    4.6400   -0.6858 S   0  0  0  0  0  0  0  0  0  0  0  0
    2.4960    1.7876   -1.1381 H   0  0  0  0  0  0  0  0  0  0  0  0
    2.6173   -0.4206    0.8099 H   0  0  0  0  0  0  0  0  0  0  0  0
    6.1204   -0.1498    0.9410 H   0  0  0  0  0  0  0  0  0  0  0  0
    3.2354   -0.4220   -2.1888 H   0  0  0  0  0  0  0  0  0  0  0  0
    3.5171   -1.7661   -1.0739 H   0  0  0  0  0  0  0  0  0  0  0  0
    1.3568   -2.1321   -2.3285 H   0  0  0  0  0  0  0  0  0  0  0  0
    0.7170   -0.6683   -1.5520 H   0  0  0  0  0  0  0  0  0  0  0  0
    1.2842   -1.9263    0.7276 H   0  0  0  0  0  0  0  0  0  0  0  0
    1.4550   -3.3668   -0.3687 H   0  0  0  0  0  0  0  0  0  0  0  0
   -0.7474   -3.1015   -1.2101 H   0  0  0  0  0  0  0  0  0  0  0  0
   -0.9601   -1.5015   -0.4689 H   0  0  0  0  0  0  0  0  0  0  0  0
   -0.9233   -4.1963    0.8296 H   0  0  0  0  0  0  0  0  0  0  0  0
   -0.3763   -2.8020    1.8092 H   0  0  0  0  0  0  0  0  0  0  0  0
   -2.8280   -3.1142    1.9682 H   0  0  0  0  0  0  0  0  0  0  0  0
   -2.9215   -3.2692    0.2362 H   0  0  0  0  0  0  0  0  0  0  0  0
   -3.9431   -1.7992   -0.7473 H   0  0  0  0  0  0  0  0  0  0  0  0
   -4.2034    0.4455   -1.6608 H   0  0  0  0  0  0  0  0  0  0  0  0
   -2.9975    2.2673   -0.6263 H   0  0  0  0  0  0  0  0  0  0  0  0
   -1.2065   -0.3578    2.3802 H   0  0  0  0  0  0  0  0  0  0  0  0
   -1.9905    3.2284    0.9723 H   0  0  0  0  0  0  0  0  0  0  0  0
   -1.1542    2.6062    2.3236 H   0  0  0  0  0  0  0  0  0  0  0  0
    0.3934    3.6052    0.9599 H   0  0  0  0  0  0  0  0  0  0  0  0
    0.4268    3.6871   -1.4283 H   0  0  0  0  0  0  0  0  0  0  0  0
   -0.8794    2.5289   -1.6316 H   0  0  0  0  0  0  0  0  0  0  0  0
   -1.3530    5.3483    0.4896 H   0  0  0  0  0  0  0  0  0  0  0  0
  1  2  2  0
  2  3  1  0
  3  4  1  0
  4  5  1  0
  5  6  2  0
  5  7  1  0
  4  8  1  0
  8  9  1  0
  9 10  1  0
 10 11  1  0
 11 12  1  0
 12 13  1  0
 13 14  1  0
 14 15  1  0
 15 16  2  0
 16 17  1  0
 17 18  2  0
 18 19  1  0
 18 20  1  0
 20 21  1  0
 21 22  1  0
 22 23  1  0
 21  2  1  0
 19 14  2  0
  3 24  1  0
  4 25  1  1
  7 26  1  0
  8 27  1  0
  8 28  1  0
  9 29  1  0
  9 30  1  0
 10 31  1  0
 10 32  1  0
 11 33  1  0
 11 34  1  0
 12 35  1  0
 12 36  1  0
 13 37  1  0
 13 38  1  0
 15 39  1  0
 16 40  1  0
 17 41  1  0
 19 42  1  0
 20 43  1  0
 20 44  1  0
 21 45  1  1
 22 46  1  0
 22 47  1  0
 23 48  1  0
M  END
$$$$
