
     RDKit          3D

 30 32  0  0  0  0  0  0  0  0999 V2000
   -0.2765   -1.7972   -0.1193 O   0  0  0  0  0  0  0  0  0  0  0  0
   -0.5025   -0.5639   -0.2007 C   0  0  0  0  0  0  0  0  0  0  0  0
    0.4944    0.3864   -0.1707 C   0  0  0  0  0  0  0  0  0  0  0  0
    1.8701    0.0430   -0.0440 C   0  0  0  0  0  0  0  0  0  0  0  0
    2.6978    0.7380    0.8386 C   0  0  0  0  0  0  0  0  0  0  0  0
    4.0365    0.4289    0.9844 C   0  0  0  0  0  0  0  0  0  0  0  0
    4.5775   -0.5998    0.2349 C   0  0  0  0  0  0  0  0  0  0  0  0
    5.9296   -0.9137    0.3805 O   0  0  0  0  0  0  0  0  0  0  0  0
    3.7471   -1.2727   -0.6289 C   0  0  0  0  0  0  0  0  0  0  0  0
    2.4118   -0.9824   -0.7903 C   0  0  0  0  0  0  0  0  0  0  0  0
    0.1076    1.7015   -0.2691 C   0  0  0  0  0  0  0  0  0  0  0  0
   -1.1591    2.0611   -0.3879 O   0  0  0  0  0  0  0  0  0  0  0  0
   -2.1380    1.1984   -0.4211 C   0  0  0  0  0  0  0  0  0  0  0  0
   -3.4635    1.5509   -0.5442 C   0  0  0  0  0  0  0  0  0  0  0  0
   -4.4912    0.6306   -0.5783 C   0  0  0  0  0  0  0  0  0  0  0  0
   -5.8300    1.0470   -0.7058 O   0  0  0  0  0  0  0  0  0  0  0  0
   -4.1618   -0.7055   -0.4834 C   0  0  0  0  0  0  0  0  0  0  0  0
   -2.8418   -1.0952   -0.3587 C   0  0  0  0  0  0  0  0  0  0  0  0
   -2.4943   -2.4377   -0.2620 O   0  0  0  0  0  0  0  0  0  0  0  0
   -1.8124   -0.1488   -0.3259 C   0  0  0  0  0  0  0  0  0  0  0  0
    2.3315    1.5505    1.4499 H   0  0  0  0  0  0  0  0  0  0  0  0
    4.6753    0.9828    1.6812 H   0  0  0  0  0  0  0  0  0  0  0  0
    6.6608   -0.5129   -0.1710 H   0  0  0  0  0  0  0  0  0  0  0  0
    4.2159   -2.0814   -1.2043 H   0  0  0  0  0  0  0  0  0  0  0  0
    1.8297   -1.5706   -1.4999 H   0  0  0  0  0  0  0  0  0  0  0  0
    0.8436    2.4866   -0.2512 H   0  0  0  0  0  0  0  0  0  0  0  0
   -3.7298    2.5932   -0.6190 H   0  0  0  0  0  0  0  0  0  0  0  0
   -6.2403    1.5037    0.1226 H   0  0  0  0  0  0  0  0  0  0  0  0
   -4.9595   -1.4340   -0.5090 H   0  0  0  0  0  0  0  0  0  0  0  0
   -2.3283   -2.7870    0.6805 H   0  0  0  0  0  0  0  0  0  0  0  0
  1  2  2  0
  2  3  1  0
  3  4  1  0
  4  5  2  0
  5  6  1  0
  6  7  2  0
  7  8  1  0
  7  9  1  0
  9 10  2  0
  3 11  2  0
 11 12  1  0
 12 13  1  0
 13 14  2  0
 14 15  1  0
 15 16  1  0
 15 17  2  0
 17 18  1  0
 18 19  1  0
 18 20  2  0
 20  2  1  0
 10  4  1  0
 20 13  1  0
  5 21  1  0
  6 22  1  0
  8 23  1  0
  9 24  1  0
 10 25  1  0
 11 26  1  0
 14 27  1  0
 16 28  1  0
 17 29  1  0
 19 30  1  0
M  END
$$$$
