
     RDKit          3D

 42 45  0  0  0  0  0  0  0  0999 V2000
   -0.9274    1.3925    1.5172 C   0  0  0  0  0  0  0  0  0  0  0  0
   -0.0898    0.6577    0.5444 C   0  0  0  0  0  0  0  0  0  0  0  0
    1.2504    0.7096    0.6477 N   0  0  0  0  0  0  0  0  0  0  0  0
    2.0530    0.0587   -0.2125 C   0  0  0  0  0  0  0  0  0  0  0  0
    3.4793    0.1143   -0.1022 N   0  0  0  0  0  0  0  0  0  0  0  0
    4.4390   -0.5268   -0.9450 C   0  0  0  0  0  0  0  0  0  0  0  0
    5.7010   -0.6169   -0.1513 C   0  0  0  0  0  0  0  0  0  0  0  0
    5.4359    0.0496    1.1762 C   0  0  2  0  0  0  0  0  0  0  0  0
    5.2179   -0.9099    2.1762 O   0  0  0  0  0  0  0  0  0  0  0  0
    4.2034    0.8517    0.9123 C   0  0  0  0  0  0  0  0  0  0  0  0
    1.4562   -0.6491   -1.1841 N   0  0  0  0  0  0  0  0  0  0  0  0
    0.1232   -0.7379   -1.3371 C   0  0  0  0  0  0  0  0  0  0  0  0
   -0.6887   -0.0742   -0.4598 C   0  0  0  0  0  0  0  0  0  0  0  0
   -2.1454   -0.0931   -0.5215 C   0  0  0  0  0  0  0  0  0  0  0  0
   -2.8989    0.8067   -1.2274 C   0  0  0  0  0  0  0  0  0  0  0  0
   -4.2678    0.7867   -1.2838 C   0  0  0  0  0  0  0  0  0  0  0  0
   -5.0860    1.7625   -2.0493 C   0  0  0  0  0  0  0  0  0  0  0  0
   -6.3117    1.2696   -2.3799 F   0  0  0  0  0  0  0  0  0  0  0  0
   -4.3512    2.1234   -3.1667 F   0  0  0  0  0  0  0  0  0  0  0  0
   -5.1687    2.9124   -1.2586 F   0  0  0  0  0  0  0  0  0  0  0  0
   -4.9298   -0.1999   -0.5871 C   0  0  0  0  0  0  0  0  0  0  0  0
   -4.2081   -1.1447    0.1504 C   0  0  0  0  0  0  0  0  0  0  0  0
   -4.6166   -2.1831    0.8986 N   0  0  0  0  0  0  0  0  0  0  0  0
   -3.5256   -2.7699    1.3901 N   0  0  0  0  0  0  0  0  0  0  0  0
   -2.4211   -2.1303    0.9736 C   0  0  0  0  0  0  0  0  0  0  0  0
   -2.8159   -1.0773    0.1729 C   0  0  0  0  0  0  0  0  0  0  0  0
   -0.3329    1.5816    2.4298 H   0  0  0  0  0  0  0  0  0  0  0  0
   -1.8040    0.7453    1.8068 H   0  0  0  0  0  0  0  0  0  0  0  0
   -1.3573    2.3197    1.1182 H   0  0  0  0  0  0  0  0  0  0  0  0
    4.6541    0.0659   -1.8706 H   0  0  0  0  0  0  0  0  0  0  0  0
    4.1107   -1.5711   -1.2157 H   0  0  0  0  0  0  0  0  0  0  0  0
    6.5393   -0.0842   -0.6423 H   0  0  0  0  0  0  0  0  0  0  0  0
    5.9820   -1.6698    0.0596 H   0  0  0  0  0  0  0  0  0  0  0  0
    6.2431    0.7536    1.4670 H   0  0  0  0  0  0  0  0  0  0  0  0
    4.8253   -0.4140    2.9436 H   0  0  0  0  0  0  0  0  0  0  0  0
    3.6087    0.8733    1.8557 H   0  0  0  0  0  0  0  0  0  0  0  0
    4.4046    1.8877    0.5788 H   0  0  0  0  0  0  0  0  0  0  0  0
   -0.3421   -1.3205   -2.1361 H   0  0  0  0  0  0  0  0  0  0  0  0
   -2.3882    1.5805   -1.7742 H   0  0  0  0  0  0  0  0  0  0  0  0
   -6.0062   -0.2629   -0.5964 H   0  0  0  0  0  0  0  0  0  0  0  0
   -5.6250   -2.4521    1.0455 H   0  0  0  0  0  0  0  0  0  0  0  0
   -1.4184   -2.4152    1.2367 H   0  0  0  0  0  0  0  0  0  0  0  0
  1  2  1  0
  2  3  2  0
  3  4  1  0
  4  5  1  0
  5  6  1  0
  6  7  1  0
  7  8  1  0
  8  9  1  0
  8 10  1  0
  4 11  2  0
 11 12  1  0
 12 13  2  0
 13 14  1  0
 14 15  2  0
 15 16  1  0
 16 17  1  0
 17 18  1  0
 17 19  1  0
 17 20  1  0
 16 21  2  0
 21 22  1  0
 22 23  1  0
 23 24  1  0
 24 25  2  0
 25 26  1  0
 13  2  1  0
 26 14  1  0
 10  5  1  0
 26 22  2  0
  1 27  1  0
  1 28  1  0
  1 29  1  0
  6 30  1  0
  6 31  1  0
  7 32  1  0
  7 33  1  0
  8 34  1  1
  9 35  1  0
 10 36  1  0
 10 37  1  0
 12 38  1  0
 15 39  1  0
 21 40  1  0
 23 41  1  0
 25 42  1  0
M  END
$$$$
