
     RDKit          3D

 50 54  0  0  0  0  0  0  0  0999 V2000
    7.9159    4.0389   -0.1039 Cl  0  0  0  0  0  0  0  0  0  0  0  0
    6.6479    2.8257    0.0429 C   0  0  0  0  0  0  0  0  0  0  0  0
    6.3640    2.0260   -1.0434 C   0  0  0  0  0  0  0  0  0  0  0  0
    5.3872    1.0838   -0.9465 C   0  0  0  0  0  0  0  0  0  0  0  0
    4.6774    0.9178    0.2231 C   0  0  0  0  0  0  0  0  0  0  0  0
    3.6321   -0.1193    0.2653 C   0  0  0  0  0  0  0  0  0  0  0  0
    2.8609   -0.3736    1.3796 C   0  0  0  0  0  0  0  0  0  0  0  0
    1.9976   -1.3988    1.0569 C   0  0  0  0  0  0  0  0  0  0  0  0
    2.2820   -1.7273   -0.2491 C   0  0  0  0  0  0  0  0  0  0  0  0
    1.6379   -2.7584   -1.0544 C   0  0  0  0  0  0  0  0  0  0  0  0
    2.2176   -3.7931   -1.6875 N   0  0  0  0  0  0  0  0  0  0  0  0
    1.3118   -4.5311   -2.3273 C   0  0  0  0  0  0  0  0  0  0  0  0
    0.0825   -3.9506   -2.1010 C   0  0  0  0  0  0  0  0  0  0  0  0
    0.3246   -2.8705   -1.3192 N   0  0  0  0  0  0  0  0  0  0  0  0
   -0.6350   -1.9375   -0.8105 C   0  0  0  0  0  0  0  0  0  0  0  0
   -1.3148   -2.1705    0.3642 C   0  0  0  0  0  0  0  0  0  0  0  0
   -2.2572   -1.2682    0.8768 C   0  0  0  0  0  0  0  0  0  0  0  0
   -2.5398   -0.1033    0.2162 C   0  0  0  0  0  0  0  0  0  0  0  0
   -3.4849    0.8225    0.7214 N   0  0  0  0  0  0  0  0  0  0  0  0
   -3.8822    2.0031   -0.0652 C   0  0  0  0  0  0  0  0  0  0  0  0
   -5.2556    2.3753    0.4534 C   0  0  0  0  0  0  0  0  0  0  0  0
   -6.0820    1.2405    0.7278 N   0  0  0  0  0  0  0  0  0  0  0  0
   -5.5829    0.3492    1.7344 C   0  0  0  0  0  0  0  0  0  0  0  0
   -4.1106    0.6952    2.0010 C   0  0  0  0  0  0  0  0  0  0  0  0
   -1.8530    0.1404   -0.9783 C   0  0  0  0  0  0  0  0  0  0  0  0
   -0.9276   -0.7606   -1.4680 C   0  0  0  0  0  0  0  0  0  0  0  0
    3.2516   -0.9383   -0.6553 O   0  0  0  0  0  0  0  0  0  0  0  0
    4.9600    1.7105    1.2975 C   0  0  0  0  0  0  0  0  0  0  0  0
    5.9524    2.6751    1.2145 C   0  0  0  0  0  0  0  0  0  0  0  0
    6.9264    2.1615   -1.9620 H   0  0  0  0  0  0  0  0  0  0  0  0
    5.1893    0.4697   -1.8241 H   0  0  0  0  0  0  0  0  0  0  0  0
    2.9472    0.1624    2.3310 H   0  0  0  0  0  0  0  0  0  0  0  0
    1.2547   -1.8394    1.7155 H   0  0  0  0  0  0  0  0  0  0  0  0
    1.4945   -5.4180   -2.9148 H   0  0  0  0  0  0  0  0  0  0  0  0
   -0.9043   -4.2575   -2.4540 H   0  0  0  0  0  0  0  0  0  0  0  0
   -1.0967   -3.1043    0.9058 H   0  0  0  0  0  0  0  0  0  0  0  0
   -2.7546   -1.5111    1.7968 H   0  0  0  0  0  0  0  0  0  0  0  0
   -3.9926    1.6782   -1.1109 H   0  0  0  0  0  0  0  0  0  0  0  0
   -3.2046    2.8435    0.0687 H   0  0  0  0  0  0  0  0  0  0  0  0
   -5.7596    2.9404   -0.3748 H   0  0  0  0  0  0  0  0  0  0  0  0
   -5.1976    3.0726    1.2986 H   0  0  0  0  0  0  0  0  0  0  0  0
   -7.0340    1.5941    0.9644 H   0  0  0  0  0  0  0  0  0  0  0  0
   -5.6064   -0.7013    1.4018 H   0  0  0  0  0  0  0  0  0  0  0  0
   -6.1472    0.5303    2.6730 H   0  0  0  0  0  0  0  0  0  0  0  0
   -3.6419    0.0176    2.7111 H   0  0  0  0  0  0  0  0  0  0  0  0
   -4.1696    1.7364    2.4388 H   0  0  0  0  0  0  0  0  0  0  0  0
   -2.0923    1.0661   -1.4807 H   0  0  0  0  0  0  0  0  0  0  0  0
   -0.4010   -0.5597   -2.3968 H   0  0  0  0  0  0  0  0  0  0  0  0
    4.4072    1.5889    2.2246 H   0  0  0  0  0  0  0  0  0  0  0  0
    6.2052    3.3267    2.0539 H   0  0  0  0  0  0  0  0  0  0  0  0
  1  2  1  0
  2  3  2  0
  3  4  1  0
  4  5  2  0
  5  6  1  0
  6  7  2  0
  7  8  1  0
  8  9  2  0
  9 10  1  0
 10 11  2  0
 11 12  1  0
 12 13  2  0
 13 14  1  0
 14 15  1  0
 15 16  2  0
 16 17  1  0
 17 18  2  0
 18 19  1  0
 19 20  1  0
 20 21  1  0
 21 22  1  0
 22 23  1  0
 23 24  1  0
 18 25  1  0
 25 26  2  0
  9 27  1  0
  5 28  1  0
 28 29  2  0
 29  2  1  0
 27  6  1  0
 14 10  1  0
 26 15  1  0
 24 19  1  0
  3 30  1  0
  4 31  1  0
  7 32  1  0
  8 33  1  0
 12 34  1  0
 13 35  1  0
 16 36  1  0
 17 37  1  0
 20 38  1  0
 20 39  1  0
 21 40  1  0
 21 41  1  0
 22 42  1  0
 23 43  1  0
 23 44  1  0
 24 45  1  0
 24 46  1  0
 25 47  1  0
 26 48  1  0
 28 49  1  0
 29 50  1  0
M  END
$$$$
