
     RDKit          3D

 27 30  0  0  0  0  0  0  0  0999 V2000
    0.8520    3.4217   -0.8152 O   0  0  0  0  0  0  0  0  0  0  0  0
    0.9246    2.2047   -0.5283 C   0  0  0  0  0  0  0  0  0  0  0  0
    2.1608    1.4500   -0.4189 C   0  0  0  0  0  0  0  0  0  0  0  0
    3.4992    1.7222   -0.5610 C   0  0  0  0  0  0  0  0  0  0  0  0
    4.4593    0.7549   -0.3849 C   0  0  0  0  0  0  0  0  0  0  0  0
    4.0797   -0.5141   -0.0595 C   0  0  0  0  0  0  0  0  0  0  0  0
    2.7664   -0.8227    0.0899 C   0  0  0  0  0  0  0  0  0  0  0  0
    1.7868    0.1523   -0.0870 C   0  0  0  0  0  0  0  0  0  0  0  0
    0.3622    0.0684    0.0150 N   0  0  0  0  0  0  0  0  0  0  0  0
   -0.1705    1.2819   -0.2446 C   0  0  0  0  0  0  0  0  0  0  0  0
   -1.5183    1.4220   -0.2006 N   0  0  0  0  0  0  0  0  0  0  0  0
   -2.3354    0.3904    0.0932 C   0  0  0  0  0  0  0  0  0  0  0  0
   -3.7046    0.5146    0.1423 C   0  0  0  0  0  0  0  0  0  0  0  0
   -4.5552   -0.5287    0.4407 C   0  0  0  0  0  0  0  0  0  0  0  0
   -3.9809   -1.7702    0.7047 C   0  0  0  0  0  0  0  0  0  0  0  0
   -2.6088   -1.9180    0.6611 C   0  0  0  0  0  0  0  0  0  0  0  0
   -1.7943   -0.8410    0.3566 C   0  0  0  0  0  0  0  0  0  0  0  0
   -0.4063   -0.9917    0.3128 C   0  0  0  0  0  0  0  0  0  0  0  0
    0.0663   -2.1404    0.5604 O   0  0  0  0  0  0  0  0  0  0  0  0
    3.7919    2.7332   -0.8197 H   0  0  0  0  0  0  0  0  0  0  0  0
    5.5090    0.9703   -0.4968 H   0  0  0  0  0  0  0  0  0  0  0  0
    4.8308   -1.2834    0.0813 H   0  0  0  0  0  0  0  0  0  0  0  0
    2.5034   -1.8372    0.3477 H   0  0  0  0  0  0  0  0  0  0  0  0
   -4.1535    1.4811   -0.0631 H   0  0  0  0  0  0  0  0  0  0  0  0
   -5.6354   -0.4217    0.4773 H   0  0  0  0  0  0  0  0  0  0  0  0
   -4.6057   -2.6423    0.9492 H   0  0  0  0  0  0  0  0  0  0  0  0
   -2.1233   -2.8558    0.8575 H   0  0  0  0  0  0  0  0  0  0  0  0
  1  2  2  0
  2  3  1  0
  3  4  2  0
  4  5  1  0
  5  6  2  0
  6  7  1  0
  7  8  2  0
  8  9  1  0
  9 10  1  0
 10 11  2  0
 11 12  1  0
 12 13  2  0
 13 14  1  0
 14 15  2  0
 15 16  1  0
 16 17  2  0
 17 18  1  0
 18 19  2  0
 10  2  1  0
 17 12  1  0
  8  3  1  0
 18  9  1  0
  4 20  1  0
  5 21  1  0
  6 22  1  0
  7 23  1  0
 13 24  1  0
 14 25  1  0
 15 26  1  0
 16 27  1  0
M  END
$$$$
