
     RDKit          3D

 98101  0  0  0  0  0  0  0  0999 V2000
    9.7695   -0.2337   -2.2192 C   0  0  0  0  0  0  0  0  0  0  0  0
    9.9178   -0.9636   -0.9039 C   0  0  0  0  0  0  0  0  0  0  0  0
   11.1074   -0.4798   -0.1260 C   0  0  0  0  0  0  0  0  0  0  0  0
    8.7040   -0.7623   -0.0872 C   0  0  0  0  0  0  0  0  0  0  0  0
    7.7066   -1.3692    0.3075 N   0  0  0  0  0  0  0  0  0  0  0  0
    6.7390   -0.9586    1.0668 C   0  0  0  0  0  0  0  0  0  0  0  0
    5.5384   -1.8288    1.4893 C   0  0  0  0  0  0  0  0  0  0  0  0
    4.5048   -1.5653    0.5281 N   0  0  0  0  0  0  0  0  0  0  0  0
    4.4614   -2.3782   -0.6779 C   0  0  0  0  0  0  0  0  0  0  0  0
    3.5283   -0.5532    0.6994 C   0  0  0  0  0  0  0  0  0  0  0  0
    3.6037    0.1408    1.7452 O   0  0  0  0  0  0  0  0  0  0  0  0
    2.4772   -0.2607   -0.2072 N   0  0  0  0  0  0  0  0  0  0  0  0
    1.5555    0.8009    0.0959 C   0  0  2  0  0  0  0  0  0  0  0  0
    0.2190    0.2729    0.5183 C   0  0  0  0  0  0  0  0  0  0  0  0
   -0.0546   -0.9544    0.4747 O   0  0  0  0  0  0  0  0  0  0  0  0
   -0.8108    1.1260    0.9942 N   0  0  0  0  0  0  0  0  0  0  0  0
   -2.1387    0.5975    1.4180 C   0  0  1  0  0  0  0  0  0  0  0  0
   -2.1079    0.4222    2.9221 C   0  0  0  0  0  0  0  0  0  0  0  0
   -1.0499   -0.4696    3.3895 C   0  0  0  0  0  0  0  0  0  0  0  0
    0.1898    0.1353    3.6912 C   0  0  0  0  0  0  0  0  0  0  0  0
    1.2472   -0.6166    4.1329 C   0  0  0  0  0  0  0  0  0  0  0  0
    1.1719   -1.9830    4.3080 C   0  0  0  0  0  0  0  0  0  0  0  0
   -0.0343   -2.5822    4.0159 C   0  0  0  0  0  0  0  0  0  0  0  0
   -1.1022   -1.8124    3.5682 C   0  0  0  0  0  0  0  0  0  0  0  0
   -3.0907    1.5798    0.9250 C   0  0  0  0  0  0  0  0  0  0  0  0
   -4.5237    1.5629    1.0496 C   0  0  2  0  0  0  0  0  0  0  0  0
   -5.0809    1.5190    2.3276 O   0  0  0  0  0  0  0  0  0  0  0  0
   -5.3985    0.8245    0.0869 C   0  0  2  0  0  0  0  0  0  0  0  0
   -6.0518   -0.3856    0.5440 C   0  0  0  0  0  0  0  0  0  0  0  0
   -5.4231   -1.5764    1.0199 C   0  0  0  0  0  0  0  0  0  0  0  0
   -4.9449   -2.6217    0.2609 C   0  0  0  0  0  0  0  0  0  0  0  0
   -4.3964   -3.7530    0.8114 C   0  0  0  0  0  0  0  0  0  0  0  0
   -4.2945   -3.9022    2.1993 C   0  0  0  0  0  0  0  0  0  0  0  0
   -4.7604   -2.8818    2.9609 C   0  0  0  0  0  0  0  0  0  0  0  0
   -5.3076   -1.7536    2.3888 C   0  0  0  0  0  0  0  0  0  0  0  0
   -4.8706    0.8258   -1.2596 N   0  0  0  0  0  0  0  0  0  0  0  0
   -5.3870    1.6925   -2.2427 C   0  0  0  0  0  0  0  0  0  0  0  0
   -6.3411    2.5194   -2.0074 O   0  0  0  0  0  0  0  0  0  0  0  0
   -4.8881    1.7119   -3.5529 O   0  0  0  0  0  0  0  0  0  0  0  0
   -5.3692    2.5627   -4.5435 C   0  0  0  0  0  0  0  0  0  0  0  0
   -6.7989    2.4212   -4.8736 C   0  0  0  0  0  0  0  0  0  0  0  0
   -7.5070    1.6815   -5.7509 C   0  0  0  0  0  0  0  0  0  0  0  0
   -8.8016    1.8422   -5.7473 N   0  0  0  0  0  0  0  0  0  0  0  0
   -9.4688    2.5551   -5.0752 C   0  0  0  0  0  0  0  0  0  0  0  0
   -8.1229    3.3807   -4.0247 S   0  0  0  0  0  0  0  0  0  0  0  0
    1.4395    1.8225   -0.9962 C   0  0  0  0  0  0  0  0  0  0  0  0
    2.8110    2.4238   -1.2155 C   0  0  0  0  0  0  0  0  0  0  0  0
    0.8195    1.3279   -2.2564 C   0  0  0  0  0  0  0  0  0  0  0  0
    6.8401    0.3687    1.5033 C   0  0  0  0  0  0  0  0  0  0  0  0
    8.3825    0.8852    0.7334 S   0  0  0  0  0  0  0  0  0  0  0  0
   10.7511    0.2337   -2.4266 H   0  0  0  0  0  0  0  0  0  0  0  0
    9.4339   -0.9295   -3.0038 H   0  0  0  0  0  0  0  0  0  0  0  0
    8.9502    0.5193   -2.1218 H   0  0  0  0  0  0  0  0  0  0  0  0
    9.9545   -2.0429   -1.1457 H   0  0  0  0  0  0  0  0  0  0  0  0
   11.5519   -1.3017    0.4437 H   0  0  0  0  0  0  0  0  0  0  0  0
   11.8238    0.0135   -0.8182 H   0  0  0  0  0  0  0  0  0  0  0  0
   10.7411    0.2749    0.6176 H   0  0  0  0  0  0  0  0  0  0  0  0
    5.8656   -2.8955    1.4924 H   0  0  0  0  0  0  0  0  0  0  0  0
    5.2606   -1.5527    2.5047 H   0  0  0  0  0  0  0  0  0  0  0  0
    5.2235   -3.1793   -0.6683 H   0  0  0  0  0  0  0  0  0  0  0  0
    3.4558   -2.7822   -0.8281 H   0  0  0  0  0  0  0  0  0  0  0  0
    4.6845   -1.6987   -1.5510 H   0  0  0  0  0  0  0  0  0  0  0  0
    2.4286   -0.8474   -1.0706 H   0  0  0  0  0  0  0  0  0  0  0  0
    1.9376    1.3353    0.9790 H   0  0  0  0  0  0  0  0  0  0  0  0
   -0.5995    2.1500    1.0335 H   0  0  0  0  0  0  0  0  0  0  0  0
   -2.2424   -0.3721    0.9594 H   0  0  0  0  0  0  0  0  0  0  0  0
   -3.0692   -0.0963    3.1919 H   0  0  0  0  0  0  0  0  0  0  0  0
   -2.1444    1.3647    3.4895 H   0  0  0  0  0  0  0  0  0  0  0  0
    0.3142    1.1941    3.5779 H   0  0  0  0  0  0  0  0  0  0  0  0
    2.2213   -0.1593    4.3701 H   0  0  0  0  0  0  0  0  0  0  0  0
    1.9963   -2.5833    4.6536 H   0  0  0  0  0  0  0  0  0  0  0  0
   -0.1659   -3.6495    4.1317 H   0  0  0  0  0  0  0  0  0  0  0  0
   -2.0115   -2.3240    3.3553 H   0  0  0  0  0  0  0  0  0  0  0  0
   -2.8537    1.7159   -0.1848 H   0  0  0  0  0  0  0  0  0  0  0  0
   -2.7193    2.5868    1.3296 H   0  0  0  0  0  0  0  0  0  0  0  0
   -4.7534    2.7210    0.8448 H   0  0  0  0  0  0  0  0  0  0  0  0
   -4.4591    1.8471    3.0025 H   0  0  0  0  0  0  0  0  0  0  0  0
   -6.2824    1.5675   -0.0321 H   0  0  0  0  0  0  0  0  0  0  0  0
   -6.8095   -0.0669    1.3466 H   0  0  0  0  0  0  0  0  0  0  0  0
   -6.8013   -0.7622   -0.2422 H   0  0  0  0  0  0  0  0  0  0  0  0
   -5.0101   -2.5356   -0.7864 H   0  0  0  0  0  0  0  0  0  0  0  0
   -4.0325   -4.5542    0.2009 H   0  0  0  0  0  0  0  0  0  0  0  0
   -3.8637   -4.7900    2.6374 H   0  0  0  0  0  0  0  0  0  0  0  0
   -4.6823   -2.9998    4.0472 H   0  0  0  0  0  0  0  0  0  0  0  0
   -5.6522   -1.0054    3.1069 H   0  0  0  0  0  0  0  0  0  0  0  0
   -4.0785    0.1823   -1.5644 H   0  0  0  0  0  0  0  0  0  0  0  0
   -5.1950    3.6287   -4.2066 H   0  0  0  0  0  0  0  0  0  0  0  0
   -4.7744    2.4429   -5.4775 H   0  0  0  0  0  0  0  0  0  0  0  0
   -6.9901    0.9738   -6.4367 H   0  0  0  0  0  0  0  0  0  0  0  0
  -10.4986    2.8897   -4.8523 H   0  0  0  0  0  0  0  0  0  0  0  0
    0.7989    2.6581   -0.5950 H   0  0  0  0  0  0  0  0  0  0  0  0
    3.0315    3.1420   -0.4006 H   0  0  0  0  0  0  0  0  0  0  0  0
    3.6017    1.6551   -1.1932 H   0  0  0  0  0  0  0  0  0  0  0  0
    2.9062    2.9146   -2.2140 H   0  0  0  0  0  0  0  0  0  0  0  0
    0.1189    2.1073   -2.6572 H   0  0  0  0  0  0  0  0  0  0  0  0
    0.2342    0.4063   -2.1689 H   0  0  0  0  0  0  0  0  0  0  0  0
    1.6209    1.2625   -3.0381 H   0  0  0  0  0  0  0  0  0  0  0  0
    6.1746    0.9843    2.1531 H   0  0  0  0  0  0  0  0  0  0  0  0
  1  2  1  0
  2  3  1  0
  2  4  1  0
  4  5  2  0
  5  6  1  0
  6  7  1  0
  7  8  1  0
  8  9  1  0
  8 10  1  0
 10 11  2  0
 10 12  1  0
 12 13  1  0
 13 14  1  0
 14 15  2  0
 14 16  1  0
 16 17  1  0
 17 18  1  0
 18 19  1  0
 19 20  2  0
 20 21  1  0
 21 22  2  0
 22 23  1  0
 23 24  2  0
 17 25  1  0
 25 26  1  0
 26 27  1  0
 26 28  1  0
 28 29  1  0
 29 30  1  0
 30 31  2  0
 31 32  1  0
 32 33  2  0
 33 34  1  0
 34 35  2  0
 28 36  1  0
 36 37  1  0
 37 38  2  0
 37 39  1  0
 39 40  1  0
 40 41  1  0
 41 42  2  0
 42 43  1  0
 43 44  2  0
 44 45  1  0
 13 46  1  0
 46 47  1  0
 46 48  1  0
  6 49  2  0
 49 50  1  0
 50  4  1  0
 24 19  1  0
 35 30  1  0
 45 41  1  0
  1 51  1  0
  1 52  1  0
  1 53  1  0
  2 54  1  0
  3 55  1  0
  3 56  1  0
  3 57  1  0
  7 58  1  0
  7 59  1  0
  9 60  1  0
  9 61  1  0
  9 62  1  0
 12 63  1  0
 13 64  1  1
 16 65  1  0
 17 66  1  6
 18 67  1  0
 18 68  1  0
 20 69  1  0
 21 70  1  0
 22 71  1  0
 23 72  1  0
 24 73  1  0
 25 74  1  0
 25 75  1  0
 26 76  1  6
 27 77  1  0
 28 78  1  6
 29 79  1  0
 29 80  1  0
 31 81  1  0
 32 82  1  0
 33 83  1  0
 34 84  1  0
 35 85  1  0
 36 86  1  0
 40 87  1  0
 40 88  1  0
 42 89  1  0
 44 90  1  0
 46 91  1  0
 47 92  1  0
 47 93  1  0
 47 94  1  0
 48 95  1  0
 48 96  1  0
 48 97  1  0
 49 98  1  0
M  END
$$$$
