
     RDKit          3D

126129  0  0  0  0  0  0  0  0999 V2000
    4.1180    6.8436    1.3391 C   0  0  0  0  0  0  0  0  0  0  0  0
    4.2860    6.2431    2.7287 C   0  0  0  0  0  0  0  0  0  0  0  0
    3.9731    4.7876    2.7442 C   0  0  0  0  0  0  0  0  0  0  0  0
    4.8368    3.9908    1.8247 C   0  0  2  0  0  0  0  0  0  0  0  0
    4.4863    2.5749    1.8635 N   0  0  0  0  0  0  0  0  0  0  0  0
    4.0247    1.8443    0.7403 C   0  0  0  0  0  0  0  0  0  0  0  0
    3.9218    2.4589   -0.3413 O   0  0  0  0  0  0  0  0  0  0  0  0
    3.6637    0.4080    0.8017 C   0  0  2  0  0  0  0  0  0  0  0  0
    4.9033   -0.4568    0.7629 C   0  0  0  0  0  0  0  0  0  0  0  0
    4.7787   -1.2468   -0.5305 C   0  0  1  0  0  0  0  0  0  0  0  0
    5.4446   -2.4527   -0.4753 O   0  0  0  0  0  0  0  0  0  0  0  0
    6.3625   -2.6943   -1.4522 C   0  0  0  0  0  0  0  0  0  0  0  0
    6.9366   -4.0573   -1.1719 C   0  0  0  0  0  0  0  0  0  0  0  0
    6.3037   -5.1483   -1.7247 C   0  0  0  0  0  0  0  0  0  0  0  0
    6.7359   -6.4523   -1.5401 C   0  0  0  0  0  0  0  0  0  0  0  0
    7.8731   -6.6384   -0.7490 C   0  0  0  0  0  0  0  0  0  0  0  0
    8.3174   -7.9472   -0.5569 C   0  0  0  0  0  0  0  0  0  0  0  0
    9.4463   -8.1039    0.2310 C   0  0  0  0  0  0  0  0  0  0  0  0
   10.0807   -7.0148    0.7848 C   0  0  0  0  0  0  0  0  0  0  0  0
    9.6343   -5.7335    0.5886 C   0  0  0  0  0  0  0  0  0  0  0  0
    8.5135   -5.5540   -0.1911 C   0  0  0  0  0  0  0  0  0  0  0  0
    8.0538   -4.2474   -0.3951 C   0  0  0  0  0  0  0  0  0  0  0  0
    3.2995   -1.3736   -0.5983 C   0  0  0  0  0  0  0  0  0  0  0  0
    2.8363   -0.0538   -0.2736 N   0  0  0  0  0  0  0  0  0  0  0  0
    1.7757    0.6960   -0.8415 C   0  0  0  0  0  0  0  0  0  0  0  0
    1.5068    1.8151   -0.2939 O   0  0  0  0  0  0  0  0  0  0  0  0
    0.9238    0.3639   -1.9870 C   0  0  1  0  0  0  0  0  0  0  0  0
   -0.2928    1.2288   -1.9652 N   0  0  0  0  0  0  0  0  0  0  0  0
   -1.5844    0.7191   -1.7211 C   0  0  0  0  0  0  0  0  0  0  0  0
   -1.5588   -0.5657   -1.5360 O   0  0  0  0  0  0  0  0  0  0  0  0
   -2.8501    1.4229   -1.6590 C   0  0  1  0  0  0  0  0  0  0  0  0
   -3.9114    0.4299   -1.4819 N   0  0  0  0  0  0  0  0  0  0  0  0
   -4.4434    0.0329   -0.2429 C   0  0  0  0  0  0  0  0  0  0  0  0
   -4.0760    0.4593    0.8626 O   0  0  0  0  0  0  0  0  0  0  0  0
   -5.5528   -0.9947   -0.2403 C   0  0  1  0  0  0  0  0  0  0  0  0
   -5.1624   -2.2251   -0.9849 C   0  0  0  0  0  0  0  0  0  0  0  0
   -6.2932   -3.2143   -0.9760 C   0  0  0  0  0  0  0  0  0  0  0  0
   -7.4875   -2.7191   -1.6620 C   0  0  0  0  0  0  0  0  0  0  0  0
   -7.5005   -1.6510   -2.2926 O   0  0  0  0  0  0  0  0  0  0  0  0
   -8.6999   -3.4296   -1.6467 O   0  0  0  0  0  0  0  0  0  0  0  0
   -5.9505   -1.2689    1.1348 N   0  0  0  0  0  0  0  0  0  0  0  0
   -7.2612   -1.0185    1.5976 C   0  0  0  0  0  0  0  0  0  0  0  0
   -8.0524   -0.5418    0.6935 O   0  0  0  0  0  0  0  0  0  0  0  0
   -7.7437   -1.2448    2.9498 C   0  0  2  0  0  0  0  0  0  0  0  0
   -7.6671   -2.6521    3.3977 C   0  0  0  0  0  0  0  0  0  0  0  0
   -6.2816   -3.1584    3.4082 C   0  0  0  0  0  0  0  0  0  0  0  0
   -5.9413   -4.0560    2.6055 O   0  0  0  0  0  0  0  0  0  0  0  0
   -5.3143   -2.6768    4.2864 O   0  0  0  0  0  0  0  0  0  0  0  0
   -9.1184   -0.7593    3.0989 N   0  0  0  0  0  0  0  0  0  0  0  0
   -9.4220    0.3229    3.9621 C   0  0  0  0  0  0  0  0  0  0  0  0
  -10.7898    0.8549    4.1500 C   0  0  0  0  0  0  0  0  0  0  0  0
   -8.4324    0.8274    4.5838 O   0  0  0  0  0  0  0  0  0  0  0  0
   -2.9674    2.5190   -0.6139 C   0  0  0  0  0  0  0  0  0  0  0  0
   -4.3441    3.1653   -0.6607 C   0  0  0  0  0  0  0  0  0  0  0  0
   -4.6908    3.7185   -2.0082 C   0  0  0  0  0  0  0  0  0  0  0  0
   -3.6571    4.5803   -2.6485 C   0  0  0  0  0  0  0  0  0  0  0  0
   -2.2462    4.2775   -2.2705 C   0  0  0  0  0  0  0  0  0  0  0  0
   -2.0690    3.7105   -0.9024 C   0  0  0  0  0  0  0  0  0  0  0  0
    1.5033    0.6541   -3.3366 C   0  0  0  0  0  0  0  0  0  0  0  0
    2.7655   -0.0405   -3.6923 C   0  0  0  0  0  0  0  0  0  0  0  0
    1.6128    2.1741   -3.5620 C   0  0  0  0  0  0  0  0  0  0  0  0
    6.2474    4.0820    2.2346 C   0  0  0  0  0  0  0  0  0  0  0  0
    6.8722    5.1694    2.2723 O   0  0  0  0  0  0  0  0  0  0  0  0
    6.9716    2.9592    2.6059 O   0  0  0  0  0  0  0  0  0  0  0  0
    3.2633    6.3821    0.8074 H   0  0  0  0  0  0  0  0  0  0  0  0
    5.0628    6.7485    0.7652 H   0  0  0  0  0  0  0  0  0  0  0  0
    3.9338    7.9334    1.4671 H   0  0  0  0  0  0  0  0  0  0  0  0
    3.5111    6.8044    3.3523 H   0  0  0  0  0  0  0  0  0  0  0  0
    5.2772    6.5365    3.0972 H   0  0  0  0  0  0  0  0  0  0  0  0
    3.9879    4.3635    3.7810 H   0  0  0  0  0  0  0  0  0  0  0  0
    2.8869    4.6998    2.4406 H   0  0  0  0  0  0  0  0  0  0  0  0
    4.7342    4.4162    0.8167 H   0  0  0  0  0  0  0  0  0  0  0  0
    4.5814    2.0738    2.7710 H   0  0  0  0  0  0  0  0  0  0  0  0
    3.1298    0.1519    1.7424 H   0  0  0  0  0  0  0  0  0  0  0  0
    4.9264   -1.1926    1.5988 H   0  0  0  0  0  0  0  0  0  0  0  0
    5.8378    0.1048    0.8173 H   0  0  0  0  0  0  0  0  0  0  0  0
    5.1446   -0.6787   -1.3884 H   0  0  0  0  0  0  0  0  0  0  0  0
    5.8414   -2.7634   -2.4267 H   0  0  0  0  0  0  0  0  0  0  0  0
    7.2081   -1.9773   -1.4764 H   0  0  0  0  0  0  0  0  0  0  0  0
    5.4148   -4.9732   -2.3427 H   0  0  0  0  0  0  0  0  0  0  0  0
    6.2083   -7.2823   -1.9937 H   0  0  0  0  0  0  0  0  0  0  0  0
    7.7937   -8.7751   -1.0057 H   0  0  0  0  0  0  0  0  0  0  0  0
    9.8299   -9.1000    0.4091 H   0  0  0  0  0  0  0  0  0  0  0  0
   10.9693   -7.1634    1.4038 H   0  0  0  0  0  0  0  0  0  0  0  0
   10.1051   -4.8593    1.0073 H   0  0  0  0  0  0  0  0  0  0  0  0
    8.5566   -3.4244    0.0415 H   0  0  0  0  0  0  0  0  0  0  0  0
    2.9998   -2.0021    0.3153 H   0  0  0  0  0  0  0  0  0  0  0  0
    2.9039   -1.8281   -1.5040 H   0  0  0  0  0  0  0  0  0  0  0  0
    0.6447   -0.6948   -1.9266 H   0  0  0  0  0  0  0  0  0  0  0  0
   -0.1192    2.2174   -2.1538 H   0  0  0  0  0  0  0  0  0  0  0  0
   -3.1602    1.9793   -2.5973 H   0  0  0  0  0  0  0  0  0  0  0  0
   -4.3130   -0.0274   -2.3421 H   0  0  0  0  0  0  0  0  0  0  0  0
   -6.3883   -0.4989   -0.7533 H   0  0  0  0  0  0  0  0  0  0  0  0
   -4.9529   -1.9220   -2.0414 H   0  0  0  0  0  0  0  0  0  0  0  0
   -4.2143   -2.6735   -0.6166 H   0  0  0  0  0  0  0  0  0  0  0  0
   -5.9558   -4.2048   -1.3760 H   0  0  0  0  0  0  0  0  0  0  0  0
   -6.6146   -3.4568    0.0780 H   0  0  0  0  0  0  0  0  0  0  0  0
   -9.5723   -2.9140   -1.7616 H   0  0  0  0  0  0  0  0  0  0  0  0
   -5.2119   -1.6415    1.7505 H   0  0  0  0  0  0  0  0  0  0  0  0
   -7.0652   -0.6488    3.6353 H   0  0  0  0  0  0  0  0  0  0  0  0
   -8.1058   -2.6919    4.4392 H   0  0  0  0  0  0  0  0  0  0  0  0
   -8.3404   -3.3287    2.8118 H   0  0  0  0  0  0  0  0  0  0  0  0
   -4.3599   -2.5614    3.9729 H   0  0  0  0  0  0  0  0  0  0  0  0
   -9.8791   -1.2124    2.5652 H   0  0  0  0  0  0  0  0  0  0  0  0
  -11.1999    1.2856    3.2067 H   0  0  0  0  0  0  0  0  0  0  0  0
  -11.5083    0.0775    4.4773 H   0  0  0  0  0  0  0  0  0  0  0  0
  -10.7596    1.6019    4.9757 H   0  0  0  0  0  0  0  0  0  0  0  0
   -2.7677    2.2042    0.4060 H   0  0  0  0  0  0  0  0  0  0  0  0
   -4.2588    4.0572    0.0335 H   0  0  0  0  0  0  0  0  0  0  0  0
   -5.1593    2.5785   -0.2761 H   0  0  0  0  0  0  0  0  0  0  0  0
   -4.9939    2.8617   -2.6472 H   0  0  0  0  0  0  0  0  0  0  0  0
   -5.6492    4.2986   -1.8577 H   0  0  0  0  0  0  0  0  0  0  0  0
   -3.7917    4.5268   -3.7500 H   0  0  0  0  0  0  0  0  0  0  0  0
   -3.8741    5.6367   -2.3799 H   0  0  0  0  0  0  0  0  0  0  0  0
   -1.8541    3.5441   -3.0022 H   0  0  0  0  0  0  0  0  0  0  0  0
   -1.5982    5.1739   -2.3487 H   0  0  0  0  0  0  0  0  0  0  0  0
   -2.4706    4.5214   -0.1994 H   0  0  0  0  0  0  0  0  0  0  0  0
   -1.0387    3.6016   -0.5967 H   0  0  0  0  0  0  0  0  0  0  0  0
    0.7357    0.3338   -4.1050 H   0  0  0  0  0  0  0  0  0  0  0  0
    2.5360   -1.1405   -3.7360 H   0  0  0  0  0  0  0  0  0  0  0  0
    3.1225    0.1940   -4.7214 H   0  0  0  0  0  0  0  0  0  0  0  0
    3.6079    0.1474   -3.0240 H   0  0  0  0  0  0  0  0  0  0  0  0
    0.7213    2.5983   -4.0212 H   0  0  0  0  0  0  0  0  0  0  0  0
    2.4644    2.3294   -4.2715 H   0  0  0  0  0  0  0  0  0  0  0  0
    1.8105    2.6989   -2.6059 H   0  0  0  0  0  0  0  0  0  0  0  0
    7.7789    3.0120    3.2360 H   0  0  0  0  0  0  0  0  0  0  0  0
  1  2  1  0
  2  3  1  0
  3  4  1  0
  4  5  1  0
  5  6  1  0
  6  7  2  0
  6  8  1  0
  8  9  1  0
  9 10  1  0
 10 11  1  0
 11 12  1  0
 12 13  1  0
 13 14  2  0
 14 15  1  0
 15 16  2  0
 16 17  1  0
 17 18  2  0
 18 19  1  0
 19 20  2  0
 20 21  1  0
 21 22  2  0
 10 23  1  0
 23 24  1  0
 24 25  1  0
 25 26  2  0
 25 27  1  0
 27 28  1  0
 28 29  1  0
 29 30  2  0
 29 31  1  0
 31 32  1  0
 32 33  1  0
 33 34  2  0
 33 35  1  0
 35 36  1  0
 36 37  1  0
 37 38  1  0
 38 39  2  0
 38 40  1  0
 35 41  1  0
 41 42  1  0
 42 43  2  0
 42 44  1  0
 44 45  1  0
 45 46  1  0
 46 47  2  0
 46 48  1  0
 44 49  1  0
 49 50  1  0
 50 51  1  0
 50 52  2  0
 31 53  1  0
 53 54  1  0
 54 55  1  0
 55 56  1  0
 56 57  1  0
 57 58  1  0
 27 59  1  0
 59 60  1  0
 59 61  1  0
  4 62  1  0
 62 63  2  0
 62 64  1  0
 24  8  1  0
 58 53  1  0
 22 13  1  0
 21 16  1  0
  1 65  1  0
  1 66  1  0
  1 67  1  0
  2 68  1  0
  2 69  1  0
  3 70  1  0
  3 71  1  0
  4 72  1  6
  5 73  1  0
  8 74  1  1
  9 75  1  0
  9 76  1  0
 10 77  1  6
 12 78  1  0
 12 79  1  0
 14 80  1  0
 15 81  1  0
 17 82  1  0
 18 83  1  0
 19 84  1  0
 20 85  1  0
 22 86  1  0
 23 87  1  0
 23 88  1  0
 27 89  1  6
 28 90  1  0
 31 91  1  6
 32 92  1  0
 35 93  1  6
 36 94  1  0
 36 95  1  0
 37 96  1  0
 37 97  1  0
 40 98  1  0
 41 99  1  0
 44100  1  1
 45101  1  0
 45102  1  0
 48103  1  0
 49104  1  0
 51105  1  0
 51106  1  0
 51107  1  0
 53108  1  0
 54109  1  0
 54110  1  0
 55111  1  0
 55112  1  0
 56113  1  0
 56114  1  0
 57115  1  0
 57116  1  0
 58117  1  0
 58118  1  0
 59119  1  0
 60120  1  0
 60121  1  0
 60122  1  0
 61123  1  0
 61124  1  0
 61125  1  0
 64126  1  0
M  END
$$$$
