
     RDKit          3D

 43 46  0  0  0  0  0  0  0  0999 V2000
    1.3459   -0.6126    3.0455 C   0  0  0  0  0  0  0  0  0  0  0  0
    1.6843   -1.0536    1.7068 N   0  0  0  0  0  0  0  0  0  0  0  0
    3.0513   -1.0255    1.3236 C   0  0  0  0  0  0  0  0  0  0  0  0
    4.0516   -0.5893    2.1714 C   0  0  0  0  0  0  0  0  0  0  0  0
    5.3758   -0.5620    1.8087 C   0  0  0  0  0  0  0  0  0  0  0  0
    5.7281   -0.9818    0.5597 C   0  0  0  0  0  0  0  0  0  0  0  0
    4.7688   -1.4098   -0.2791 N   0  0  0  0  0  0  0  0  0  0  0  0
    3.4732   -1.4390    0.0688 C   0  0  0  0  0  0  0  0  0  0  0  0
    0.7168   -1.5098    0.7665 C   0  0  0  0  0  0  0  0  0  0  0  0
    0.0660   -0.6459   -0.0885 C   0  0  0  0  0  0  0  0  0  0  0  0
   -0.8753   -1.0468   -1.0083 C   0  0  0  0  0  0  0  0  0  0  0  0
   -1.5436   -0.2041   -1.8713 C   0  0  0  0  0  0  0  0  0  0  0  0
   -1.2275    1.1801   -1.8141 N   0  0  0  0  0  0  0  0  0  0  0  0
   -1.9001    2.0762   -0.9516 C   0  0  0  0  0  0  0  0  0  0  0  0
   -2.8657    1.5690   -0.0947 C   0  0  0  0  0  0  0  0  0  0  0  0
   -3.5570    2.3906    0.7671 C   0  0  0  0  0  0  0  0  0  0  0  0
   -3.2585    3.7354    0.7511 C   0  0  0  0  0  0  0  0  0  0  0  0
   -3.9019    4.5916    1.5719 F   0  0  0  0  0  0  0  0  0  0  0  0
   -2.3021    4.2678   -0.0913 C   0  0  0  0  0  0  0  0  0  0  0  0
   -1.9075    5.9750   -0.1286 Cl  0  0  0  0  0  0  0  0  0  0  0  0
   -1.6293    3.4142   -0.9410 C   0  0  0  0  0  0  0  0  0  0  0  0
   -2.4847   -0.6862   -2.7683 C   0  0  0  0  0  0  0  0  0  0  0  0
   -3.1783    0.1945   -3.6558 C   0  0  0  0  0  0  0  0  0  0  0  0
   -3.7573    0.9080   -4.3640 N   0  0  0  0  0  0  0  0  0  0  0  0
   -2.7735   -2.0291   -2.8168 C   0  0  0  0  0  0  0  0  0  0  0  0
   -2.1142   -2.8421   -1.9696 N   0  0  0  0  0  0  0  0  0  0  0  0
   -1.1900   -2.3900   -1.0838 C   0  0  0  0  0  0  0  0  0  0  0  0
   -0.5343   -3.2518   -0.2243 C   0  0  0  0  0  0  0  0  0  0  0  0
    0.3794   -2.8185    0.6602 N   0  0  0  0  0  0  0  0  0  0  0  0
    1.8931   -1.1722    3.8218 H   0  0  0  0  0  0  0  0  0  0  0  0
    0.2657   -0.7268    3.2625 H   0  0  0  0  0  0  0  0  0  0  0  0
    1.5585    0.4908    3.0651 H   0  0  0  0  0  0  0  0  0  0  0  0
    3.7565   -0.2565    3.1684 H   0  0  0  0  0  0  0  0  0  0  0  0
    6.1239   -0.2150    2.4969 H   0  0  0  0  0  0  0  0  0  0  0  0
    6.7789   -0.9767    0.2310 H   0  0  0  0  0  0  0  0  0  0  0  0
    2.6951   -1.7831   -0.6049 H   0  0  0  0  0  0  0  0  0  0  0  0
    0.3104    0.4045   -0.0310 H   0  0  0  0  0  0  0  0  0  0  0  0
   -0.4638    1.5872   -2.4298 H   0  0  0  0  0  0  0  0  0  0  0  0
   -3.0848    0.5145   -0.0966 H   0  0  0  0  0  0  0  0  0  0  0  0
   -4.3215    1.9920    1.4460 H   0  0  0  0  0  0  0  0  0  0  0  0
   -0.8794    3.8319   -1.6025 H   0  0  0  0  0  0  0  0  0  0  0  0
   -3.5178   -2.4293   -3.5232 H   0  0  0  0  0  0  0  0  0  0  0  0
   -0.7556   -4.3174   -0.2539 H   0  0  0  0  0  0  0  0  0  0  0  0
  1  2  1  0
  2  3  1  0
  3  4  2  0
  4  5  1  0
  5  6  2  0
  6  7  1  0
  7  8  2  0
  2  9  1  0
  9 10  2  0
 10 11  1  0
 11 12  2  0
 12 13  1  0
 13 14  1  0
 14 15  2  0
 15 16  1  0
 16 17  2  0
 17 18  1  0
 17 19  1  0
 19 20  1  0
 19 21  2  0
 12 22  1  0
 22 23  1  0
 23 24  3  0
 22 25  2  0
 25 26  1  0
 26 27  2  0
 27 28  1  0
 28 29  2  0
  8  3  1  0
 29  9  1  0
 27 11  1  0
 21 14  1  0
  1 30  1  0
  1 31  1  0
  1 32  1  0
  4 33  1  0
  5 34  1  0
  6 35  1  0
  8 36  1  0
 10 37  1  0
 13 38  1  0
 15 39  1  0
 16 40  1  0
 21 41  1  0
 25 42  1  0
 28 43  1  0
M  END
$$$$
