
     RDKit          3D

 54 57  0  0  0  0  0  0  0  0999 V2000
   -1.1046   -2.4814    0.8767 C   0  0  0  0  0  0  0  0  0  0  0  0
   -2.1822   -2.2472   -0.0923 C   0  0  0  0  0  0  0  0  0  0  0  0
   -3.3020   -3.0803    0.0015 C   0  0  0  0  0  0  0  0  0  0  0  0
   -4.3666   -2.9443   -0.8533 C   0  0  0  0  0  0  0  0  0  0  0  0
   -4.3029   -1.9635   -1.8090 C   0  0  0  0  0  0  0  0  0  0  0  0
   -5.3484   -1.8087   -2.6741 F   0  0  0  0  0  0  0  0  0  0  0  0
   -3.2044   -1.1720   -1.8765 C   0  0  0  0  0  0  0  0  0  0  0  0
   -2.0928   -1.2623   -1.0353 C   0  0  0  0  0  0  0  0  0  0  0  0
   -0.9693   -0.3854   -1.2725 C   0  0  0  0  0  0  0  0  0  0  0  0
   -0.5798    0.5949   -0.3269 N   0  0  0  0  0  0  0  0  0  0  0  0
    0.4422    0.4954    0.5479 C   0  0  0  0  0  0  0  0  0  0  0  0
    1.4579   -0.4916    0.6169 N   0  0  0  0  0  0  0  0  0  0  0  0
    1.7671   -1.1398    1.8706 C   0  0  0  0  0  0  0  0  0  0  0  0
    3.1729   -0.7570    2.2271 C   0  0  0  0  0  0  0  0  0  0  0  0
    4.1794   -0.9385    1.1366 C   0  0  0  0  0  0  0  0  0  0  0  0
    3.7411   -0.6666   -0.2435 C   0  0  1  0  0  0  0  0  0  0  0  0
    4.1039    0.7478   -0.6633 C   0  0  0  0  0  0  0  0  0  0  0  0
    4.4450   -1.5609   -1.1472 N   0  0  0  0  0  0  0  0  0  0  0  0
    2.2705   -0.8683   -0.5172 C   0  0  0  0  0  0  0  0  0  0  0  0
    0.4734    1.6091    1.3708 C   0  0  0  0  0  0  0  0  0  0  0  0
   -0.5408    2.4212    1.0025 C   0  0  0  0  0  0  0  0  0  0  0  0
   -0.9076    3.6282    1.4949 N   0  0  0  0  0  0  0  0  0  0  0  0
   -1.9642    4.2289    0.9095 C   0  0  0  0  0  0  0  0  0  0  0  0
   -2.6029    3.6460   -0.1051 N   0  0  0  0  0  0  0  0  0  0  0  0
   -3.7267    4.3605   -0.6850 C   0  0  0  0  0  0  0  0  0  0  0  0
   -2.2528    2.4277   -0.6199 C   0  0  0  0  0  0  0  0  0  0  0  0
   -2.9017    1.9523   -1.5735 O   0  0  0  0  0  0  0  0  0  0  0  0
   -1.1802    1.7827   -0.0470 C   0  0  0  0  0  0  0  0  0  0  0  0
   -1.3340   -3.4083    1.4819 H   0  0  0  0  0  0  0  0  0  0  0  0
   -1.0344   -1.6802    1.6441 H   0  0  0  0  0  0  0  0  0  0  0  0
   -0.1516   -2.7186    0.3660 H   0  0  0  0  0  0  0  0  0  0  0  0
   -3.3539   -3.8536    0.7516 H   0  0  0  0  0  0  0  0  0  0  0  0
   -5.2462   -3.6114   -0.7713 H   0  0  0  0  0  0  0  0  0  0  0  0
   -3.1741   -0.4256   -2.6496 H   0  0  0  0  0  0  0  0  0  0  0  0
   -1.0702    0.1441   -2.2625 H   0  0  0  0  0  0  0  0  0  0  0  0
   -0.0745   -1.0707   -1.4870 H   0  0  0  0  0  0  0  0  0  0  0  0
    1.1085   -0.8188    2.7041 H   0  0  0  0  0  0  0  0  0  0  0  0
    1.7330   -2.2464    1.7340 H   0  0  0  0  0  0  0  0  0  0  0  0
    3.4731   -1.4344    3.0786 H   0  0  0  0  0  0  0  0  0  0  0  0
    3.1837    0.2696    2.6362 H   0  0  0  0  0  0  0  0  0  0  0  0
    4.6586   -1.9426    1.2309 H   0  0  0  0  0  0  0  0  0  0  0  0
    5.0279   -0.2226    1.3750 H   0  0  0  0  0  0  0  0  0  0  0  0
    4.5918    0.7594   -1.6714 H   0  0  0  0  0  0  0  0  0  0  0  0
    4.8463    1.1705    0.0622 H   0  0  0  0  0  0  0  0  0  0  0  0
    3.2014    1.3862   -0.7485 H   0  0  0  0  0  0  0  0  0  0  0  0
    4.6387   -1.0988   -2.0709 H   0  0  0  0  0  0  0  0  0  0  0  0
    5.3438   -1.8386   -0.7168 H   0  0  0  0  0  0  0  0  0  0  0  0
    2.0579   -0.2520   -1.4212 H   0  0  0  0  0  0  0  0  0  0  0  0
    2.0751   -1.9238   -0.7531 H   0  0  0  0  0  0  0  0  0  0  0  0
    1.1853    1.7871    2.1628 H   0  0  0  0  0  0  0  0  0  0  0  0
   -2.2526    5.1878    1.3055 H   0  0  0  0  0  0  0  0  0  0  0  0
   -4.4474    3.6558   -1.1468 H   0  0  0  0  0  0  0  0  0  0  0  0
   -3.2889    5.0704   -1.4285 H   0  0  0  0  0  0  0  0  0  0  0  0
   -4.2204    4.9883    0.0815 H   0  0  0  0  0  0  0  0  0  0  0  0
  1  2  1  0
  2  3  2  0
  3  4  1  0
  4  5  2  0
  5  6  1  0
  5  7  1  0
  7  8  2  0
  8  9  1  0
  9 10  1  0
 10 11  1  0
 11 12  1  0
 12 13  1  0
 13 14  1  0
 14 15  1  0
 15 16  1  0
 16 17  1  0
 16 18  1  6
 16 19  1  0
 11 20  2  0
 20 21  1  0
 21 22  1  0
 22 23  2  0
 23 24  1  0
 24 25  1  0
 24 26  1  0
 26 27  2  0
 26 28  1  0
  8  2  1  0
 28 10  1  0
 19 12  1  0
 28 21  2  0
  1 29  1  0
  1 30  1  0
  1 31  1  0
  3 32  1  0
  4 33  1  0
  7 34  1  0
  9 35  1  0
  9 36  1  0
 13 37  1  0
 13 38  1  0
 14 39  1  0
 14 40  1  0
 15 41  1  0
 15 42  1  0
 17 43  1  0
 17 44  1  0
 17 45  1  0
 18 46  1  0
 18 47  1  0
 19 48  1  0
 19 49  1  0
 20 50  1  0
 23 51  1  0
 25 52  1  0
 25 53  1  0
 25 54  1  0
M  END
$$$$
