
     RDKit          3D

 47 49  0  0  0  0  0  0  0  0999 V2000
   -3.0868    3.1975   -1.5248 C   0  0  0  0  0  0  0  0  0  0  0  0
   -3.7390    2.1472   -0.8355 O   0  0  0  0  0  0  0  0  0  0  0  0
   -3.0255    0.9722   -0.6504 C   0  0  0  0  0  0  0  0  0  0  0  0
   -1.7365    0.8017   -1.1049 C   0  0  0  0  0  0  0  0  0  0  0  0
   -1.0182   -0.3871   -0.9162 C   0  0  0  0  0  0  0  0  0  0  0  0
    0.3158   -0.4525   -1.4742 C   0  0  0  0  0  0  0  0  0  0  0  0
    1.4314   -0.6567   -0.8189 C   0  0  0  0  0  0  0  0  0  0  0  0
    1.4585   -0.8500    0.6479 C   0  0  0  0  0  0  0  0  0  0  0  0
    2.5369    0.0433    1.2603 C   0  0  0  0  0  0  0  0  0  0  0  0
    1.9611    1.4439    1.2973 C   0  0  0  0  0  0  0  0  0  0  0  0
    3.8340   -0.0351    0.5862 C   0  0  0  0  0  0  0  0  0  0  0  0
    5.0211    0.2546    1.2934 C   0  0  0  0  0  0  0  0  0  0  0  0
    6.2628    0.2144    0.7206 C   0  0  0  0  0  0  0  0  0  0  0  0
    6.3571   -0.1252   -0.6101 C   0  0  0  0  0  0  0  0  0  0  0  0
    5.2109   -0.4120   -1.3189 C   0  0  0  0  0  0  0  0  0  0  0  0
    3.9413   -0.3710   -0.7322 C   0  0  0  0  0  0  0  0  0  0  0  0
    2.7511   -0.6960   -1.4974 C   0  0  0  0  0  0  0  0  0  0  0  0
    2.8042   -1.0068   -2.7068 O   0  0  0  0  0  0  0  0  0  0  0  0
   -1.6821   -1.3754   -0.2493 C   0  0  0  0  0  0  0  0  0  0  0  0
   -0.8696   -3.0724    0.0173 Br  0  0  0  0  0  0  0  0  0  0  0  0
   -2.9806   -1.2337    0.2219 C   0  0  0  0  0  0  0  0  0  0  0  0
   -3.6276   -2.2618    0.9000 O   0  0  0  0  0  0  0  0  0  0  0  0
   -3.4977   -2.3204    2.3201 C   0  0  0  0  0  0  0  0  0  0  0  0
   -3.6630   -0.0513    0.0222 C   0  0  0  0  0  0  0  0  0  0  0  0
   -4.9662    0.1293    0.4795 O   0  0  0  0  0  0  0  0  0  0  0  0
   -6.0029   -0.2405   -0.4324 C   0  0  0  0  0  0  0  0  0  0  0  0
   -2.7120    2.7770   -2.4943 H   0  0  0  0  0  0  0  0  0  0  0  0
   -2.2023    3.5256   -0.9509 H   0  0  0  0  0  0  0  0  0  0  0  0
   -3.7767    4.0328   -1.7610 H   0  0  0  0  0  0  0  0  0  0  0  0
   -1.2606    1.6242   -1.6306 H   0  0  0  0  0  0  0  0  0  0  0  0
    0.3983   -0.3140   -2.5809 H   0  0  0  0  0  0  0  0  0  0  0  0
    0.4815   -0.5353    1.0463 H   0  0  0  0  0  0  0  0  0  0  0  0
    1.6855   -1.8572    0.9873 H   0  0  0  0  0  0  0  0  0  0  0  0
    2.6979   -0.2501    2.3274 H   0  0  0  0  0  0  0  0  0  0  0  0
    1.8620    1.8490    0.2805 H   0  0  0  0  0  0  0  0  0  0  0  0
    2.5295    2.1065    1.9847 H   0  0  0  0  0  0  0  0  0  0  0  0
    0.9143    1.3299    1.6909 H   0  0  0  0  0  0  0  0  0  0  0  0
    4.9162    0.5175    2.3344 H   0  0  0  0  0  0  0  0  0  0  0  0
    7.1599    0.4490    1.3153 H   0  0  0  0  0  0  0  0  0  0  0  0
    7.3403   -0.1639   -1.0912 H   0  0  0  0  0  0  0  0  0  0  0  0
    5.2359   -0.6857   -2.3740 H   0  0  0  0  0  0  0  0  0  0  0  0
   -2.6322   -2.9677    2.5433 H   0  0  0  0  0  0  0  0  0  0  0  0
   -4.3991   -2.7935    2.7783 H   0  0  0  0  0  0  0  0  0  0  0  0
   -3.3899   -1.2966    2.7574 H   0  0  0  0  0  0  0  0  0  0  0  0
   -5.8083    0.2020   -1.4325 H   0  0  0  0  0  0  0  0  0  0  0  0
   -6.9910    0.1330   -0.1103 H   0  0  0  0  0  0  0  0  0  0  0  0
   -6.0396   -1.3385   -0.5147 H   0  0  0  0  0  0  0  0  0  0  0  0
  1  2  1  0
  2  3  1  0
  3  4  2  0
  4  5  1  0
  5  6  1  0
  6  7  2  0
  7  8  1  0
  8  9  1  0
  9 10  1  0
  9 11  1  0
 11 12  2  0
 12 13  1  0
 13 14  2  0
 14 15  1  0
 15 16  2  0
 16 17  1  0
 17 18  2  0
  5 19  2  0
 19 20  1  0
 19 21  1  0
 21 22  1  0
 22 23  1  0
 21 24  2  0
 24 25  1  0
 25 26  1  0
 24  3  1  0
 17  7  1  0
 16 11  1  0
  1 27  1  0
  1 28  1  0
  1 29  1  0
  4 30  1  0
  6 31  1  0
  8 32  1  0
  8 33  1  0
  9 34  1  0
 10 35  1  0
 10 36  1  0
 10 37  1  0
 12 38  1  0
 13 39  1  0
 14 40  1  0
 15 41  1  0
 23 42  1  0
 23 43  1  0
 23 44  1  0
 26 45  1  0
 26 46  1  0
 26 47  1  0
M  END
$$$$
