
     RDKit          3D

 43 45  0  0  0  0  0  0  0  0999 V2000
    6.2012    1.1377   -0.1120 C   0  0  0  0  0  0  0  0  0  0  0  0
    4.7075    1.0614   -0.0500 C   0  0  0  0  0  0  0  0  0  0  0  0
    4.0021    1.3416   -1.1963 C   0  0  0  0  0  0  0  0  0  0  0  0
    2.6002    1.2850   -1.1939 C   0  0  0  0  0  0  0  0  0  0  0  0
    1.9224    0.9487   -0.0443 C   0  0  0  0  0  0  0  0  0  0  0  0
    0.1499    0.8591    0.0261 S   0  0  0  0  0  0  0  0  0  0  0  0
   -0.3371   -0.8061   -0.3925 C   0  0  0  0  0  0  0  0  0  0  0  0
    0.6013   -1.7884   -0.7046 C   0  0  0  0  0  0  0  0  0  0  0  0
    0.2375   -3.0691   -1.0271 C   0  0  0  0  0  0  0  0  0  0  0  0
   -1.0909   -3.4010   -1.0450 C   0  0  0  0  0  0  0  0  0  0  0  0
   -2.0527   -2.4539   -0.7410 C   0  0  0  0  0  0  0  0  0  0  0  0
   -1.6601   -1.1725   -0.4199 C   0  0  0  0  0  0  0  0  0  0  0  0
   -2.6270   -0.1920   -0.1067 N   0  0  0  0  0  0  0  0  0  0  0  0
   -2.6976    0.9976   -0.9222 C   0  0  0  0  0  0  0  0  0  0  0  0
   -4.0838    1.3048   -1.3882 C   0  0  0  0  0  0  0  0  0  0  0  0
   -5.0987    0.6457   -0.6030 N   0  0  0  0  0  0  0  0  0  0  0  0
   -4.7394    0.5033    0.7884 C   0  0  0  0  0  0  0  0  0  0  0  0
   -3.5180   -0.3653    0.9893 C   0  0  0  0  0  0  0  0  0  0  0  0
    2.6515    0.6742    1.0847 C   0  0  0  0  0  0  0  0  0  0  0  0
    1.9363    0.3130    2.3214 C   0  0  0  0  0  0  0  0  0  0  0  0
    4.0396    0.7255    1.0999 C   0  0  0  0  0  0  0  0  0  0  0  0
    6.4480    1.9967   -0.7498 H   0  0  0  0  0  0  0  0  0  0  0  0
    6.5812    1.3203    0.9018 H   0  0  0  0  0  0  0  0  0  0  0  0
    6.6247    0.1940   -0.5371 H   0  0  0  0  0  0  0  0  0  0  0  0
    4.4958    1.6116   -2.1269 H   0  0  0  0  0  0  0  0  0  0  0  0
    2.0366    1.5050   -2.0955 H   0  0  0  0  0  0  0  0  0  0  0  0
    1.6459   -1.5104   -0.6859 H   0  0  0  0  0  0  0  0  0  0  0  0
    0.9805   -3.8009   -1.2619 H   0  0  0  0  0  0  0  0  0  0  0  0
   -1.4409   -4.3957   -1.2919 H   0  0  0  0  0  0  0  0  0  0  0  0
   -3.1111   -2.7003   -0.7505 H   0  0  0  0  0  0  0  0  0  0  0  0
   -2.3372    1.8385   -0.3072 H   0  0  0  0  0  0  0  0  0  0  0  0
   -2.0286    0.9143   -1.8255 H   0  0  0  0  0  0  0  0  0  0  0  0
   -4.2602    2.3928   -1.3437 H   0  0  0  0  0  0  0  0  0  0  0  0
   -4.2532    0.9703   -2.4532 H   0  0  0  0  0  0  0  0  0  0  0  0
   -5.4355   -0.2484   -1.0210 H   0  0  0  0  0  0  0  0  0  0  0  0
   -4.4946    1.5171    1.1694 H   0  0  0  0  0  0  0  0  0  0  0  0
   -5.6103    0.0455    1.3003 H   0  0  0  0  0  0  0  0  0  0  0  0
   -3.8663   -1.4230    1.1225 H   0  0  0  0  0  0  0  0  0  0  0  0
   -3.0371   -0.0236    1.9461 H   0  0  0  0  0  0  0  0  0  0  0  0
    2.4692    0.8112    3.1714 H   0  0  0  0  0  0  0  0  0  0  0  0
    1.9226   -0.7769    2.5253 H   0  0  0  0  0  0  0  0  0  0  0  0
    0.9000    0.6994    2.3536 H   0  0  0  0  0  0  0  0  0  0  0  0
    4.6265    0.5130    1.9769 H   0  0  0  0  0  0  0  0  0  0  0  0
  1  2  1  0
  2  3  2  0
  3  4  1  0
  4  5  2  0
  5  6  1  0
  6  7  1  0
  7  8  2  0
  8  9  1  0
  9 10  2  0
 10 11  1  0
 11 12  2  0
 12 13  1  0
 13 14  1  0
 14 15  1  0
 15 16  1  0
 16 17  1  0
 17 18  1  0
  5 19  1  0
 19 20  1  0
 19 21  2  0
 21  2  1  0
 12  7  1  0
 18 13  1  0
  1 22  1  0
  1 23  1  0
  1 24  1  0
  3 25  1  0
  4 26  1  0
  8 27  1  0
  9 28  1  0
 10 29  1  0
 11 30  1  0
 14 31  1  0
 14 32  1  0
 15 33  1  0
 15 34  1  0
 16 35  1  0
 17 36  1  0
 17 37  1  0
 18 38  1  0
 18 39  1  0
 20 40  1  0
 20 41  1  0
 20 42  1  0
 21 43  1  0
M  END
$$$$
