
     RDKit          3D

 46 49  0  0  0  0  0  0  0  0999 V2000
    5.6182    2.8777   -0.2480 O   0  0  0  0  0  0  0  0  0  0  0  0
    5.8944    1.8049    0.3485 C   0  0  0  0  0  0  0  0  0  0  0  0
    7.2204    1.6751    0.8286 N   0  0  0  0  0  0  0  0  0  0  0  0
    8.1474    2.6692    0.6493 O   0  0  0  0  0  0  0  0  0  0  0  0
    4.8626    0.7926    0.5033 C   0  0  0  0  0  0  0  0  0  0  0  0
    5.0858   -0.4044    1.1418 C   0  0  0  0  0  0  0  0  0  0  0  0
    4.0626   -1.3557    1.2707 C   0  0  0  0  0  0  0  0  0  0  0  0
    2.8049   -1.1404    0.7720 C   0  0  0  0  0  0  0  0  0  0  0  0
    2.5856    0.0801    0.1232 C   0  0  0  0  0  0  0  0  0  0  0  0
    3.5764    1.0104   -0.0057 C   0  0  0  0  0  0  0  0  0  0  0  0
    1.2070    0.3261   -0.4416 C   0  0  0  0  0  0  0  0  0  0  0  0
    0.7084   -0.9425   -1.0976 C   0  0  2  0  0  0  0  0  0  0  0  0
   -0.6600   -0.7210   -1.5115 N   0  0  0  0  0  0  0  0  0  0  0  0
   -1.6707   -0.4644   -0.5451 C   0  0  0  0  0  0  0  0  0  0  0  0
   -1.3978   -0.4298    0.7642 N   0  0  0  0  0  0  0  0  0  0  0  0
   -2.3431   -0.1901    1.6630 C   0  0  0  0  0  0  0  0  0  0  0  0
   -3.6380    0.0266    1.2077 C   0  0  0  0  0  0  0  0  0  0  0  0
   -3.9558   -0.0011   -0.1256 C   0  0  0  0  0  0  0  0  0  0  0  0
   -5.2942    0.2200   -0.6402 C   0  0  0  0  0  0  0  0  0  0  0  0
   -6.3355    0.4743    0.2027 C   0  0  0  0  0  0  0  0  0  0  0  0
   -7.6036    0.6783   -0.3664 C   0  0  0  0  0  0  0  0  0  0  0  0
   -7.7956    0.6254   -1.7199 C   0  0  0  0  0  0  0  0  0  0  0  0
   -6.7505    0.3731   -2.5218 N   0  0  0  0  0  0  0  0  0  0  0  0
   -5.5291    0.1751   -1.9963 C   0  0  0  0  0  0  0  0  0  0  0  0
   -2.9333   -0.2535   -0.9946 N   0  0  0  0  0  0  0  0  0  0  0  0
    0.7641   -2.1517   -0.2476 C   0  0  0  0  0  0  0  0  0  0  0  0
    1.6982   -2.1157    0.8980 C   0  0  0  0  0  0  0  0  0  0  0  0
    7.4699    0.7925    1.3263 H   0  0  0  0  0  0  0  0  0  0  0  0
    8.6502    2.5315   -0.1987 H   0  0  0  0  0  0  0  0  0  0  0  0
    6.0699   -0.6303    1.5592 H   0  0  0  0  0  0  0  0  0  0  0  0
    4.2941   -2.2757    1.7803 H   0  0  0  0  0  0  0  0  0  0  0  0
    3.4341    1.9674   -0.5047 H   0  0  0  0  0  0  0  0  0  0  0  0
    0.5878    0.7230    0.3500 H   0  0  0  0  0  0  0  0  0  0  0  0
    1.2998    1.0903   -1.2443 H   0  0  0  0  0  0  0  0  0  0  0  0
    1.3683   -1.1255   -1.9870 H   0  0  0  0  0  0  0  0  0  0  0  0
   -0.8648   -0.7582   -2.5349 H   0  0  0  0  0  0  0  0  0  0  0  0
   -2.0808   -0.1713    2.7031 H   0  0  0  0  0  0  0  0  0  0  0  0
   -4.4052    0.2225    1.9586 H   0  0  0  0  0  0  0  0  0  0  0  0
   -6.2460    0.5277    1.2678 H   0  0  0  0  0  0  0  0  0  0  0  0
   -8.4236    0.8791    0.3060 H   0  0  0  0  0  0  0  0  0  0  0  0
   -8.7820    0.7842   -2.1615 H   0  0  0  0  0  0  0  0  0  0  0  0
   -4.7184   -0.0245   -2.6774 H   0  0  0  0  0  0  0  0  0  0  0  0
   -0.2691   -2.4074    0.1126 H   0  0  0  0  0  0  0  0  0  0  0  0
    1.0730   -3.0239   -0.8919 H   0  0  0  0  0  0  0  0  0  0  0  0
    1.0994   -1.8770    1.8281 H   0  0  0  0  0  0  0  0  0  0  0  0
    2.1146   -3.1464    1.0974 H   0  0  0  0  0  0  0  0  0  0  0  0
  1  2  2  0
  2  3  1  0
  3  4  1  0
  2  5  1  0
  5  6  2  0
  6  7  1  0
  7  8  2  0
  8  9  1  0
  9 10  2  0
  9 11  1  0
 11 12  1  0
 12 13  1  0
 13 14  1  0
 14 15  2  0
 15 16  1  0
 16 17  2  0
 17 18  1  0
 18 19  1  0
 19 20  2  0
 20 21  1  0
 21 22  2  0
 22 23  1  0
 23 24  2  0
 18 25  2  0
 12 26  1  0
 26 27  1  0
 10  5  1  0
 25 14  1  0
 27  8  1  0
 24 19  1  0
  3 28  1  0
  4 29  1  0
  6 30  1  0
  7 31  1  0
 10 32  1  0
 11 33  1  0
 11 34  1  0
 12 35  1  6
 13 36  1  0
 16 37  1  0
 17 38  1  0
 20 39  1  0
 21 40  1  0
 22 41  1  0
 24 42  1  0
 26 43  1  0
 26 44  1  0
 27 45  1  0
 27 46  1  0
M  END
$$$$
