
     RDKit          3D

 40 40  0  0  0  0  0  0  0  0999 V2000
    4.3662   -0.0027    1.9572 C   0  0  0  0  0  0  0  0  0  0  0  0
    3.2498   -1.0153    2.0695 C   0  0  0  0  0  0  0  0  0  0  0  0
    3.1858   -1.9053    0.9204 N   0  0  0  0  0  0  0  0  0  0  0  0
    3.8885   -3.1530    0.8254 C   0  0  0  0  0  0  0  0  0  0  0  0
    2.3735   -1.5106   -0.1783 C   0  0  0  0  0  0  0  0  0  0  0  0
    1.8566   -0.3972    0.1184 O   0  0  0  0  0  0  0  0  0  0  0  0
    1.5772   -1.1095   -1.2392 O   0  0  0  0  0  0  0  0  0  0  0  0
    0.8569    0.0944   -1.2269 C   0  0  0  0  0  0  0  0  0  0  0  0
    1.3782    1.2864   -1.6875 C   0  0  0  0  0  0  0  0  0  0  0  0
    0.6250    2.4307   -1.6498 C   0  0  0  0  0  0  0  0  0  0  0  0
   -0.6414    2.2990   -1.1364 C   0  0  0  0  0  0  0  0  0  0  0  0
   -1.2570    1.1371   -0.6463 C   0  0  0  0  0  0  0  0  0  0  0  0
   -0.4265    0.0396   -0.7236 C   0  0  0  0  0  0  0  0  0  0  0  0
   -2.6385    1.1972   -0.1272 C   0  0  2  0  0  0  0  0  0  0  0  0
   -2.6978    1.4286    1.3787 C   0  0  0  0  0  0  0  0  0  0  0  0
   -3.5164    0.1652   -0.5859 N   0  0  0  0  0  0  0  0  0  0  0  0
   -4.8947    0.5971   -0.2843 C   0  0  0  0  0  0  0  0  0  0  0  0
   -3.3382   -1.1259   -0.0142 C   0  0  0  0  0  0  0  0  0  0  0  0
    4.7169    0.1449    0.9249 H   0  0  0  0  0  0  0  0  0  0  0  0
    5.2237   -0.3637    2.5664 H   0  0  0  0  0  0  0  0  0  0  0  0
    4.0596    1.0031    2.3216 H   0  0  0  0  0  0  0  0  0  0  0  0
    3.3545   -1.6218    2.9870 H   0  0  0  0  0  0  0  0  0  0  0  0
    2.2989   -0.4242    2.1690 H   0  0  0  0  0  0  0  0  0  0  0  0
    3.9327   -3.6131    1.8312 H   0  0  0  0  0  0  0  0  0  0  0  0
    4.9391   -3.0496    0.4784 H   0  0  0  0  0  0  0  0  0  0  0  0
    3.3404   -3.8508    0.1659 H   0  0  0  0  0  0  0  0  0  0  0  0
    2.3788    1.3122   -2.0761 H   0  0  0  0  0  0  0  0  0  0  0  0
    0.9685    3.3855   -1.9904 H   0  0  0  0  0  0  0  0  0  0  0  0
   -1.2530    3.2158   -1.1033 H   0  0  0  0  0  0  0  0  0  0  0  0
   -0.8246   -0.8960   -0.3637 H   0  0  0  0  0  0  0  0  0  0  0  0
   -3.0954    2.1554   -0.5398 H   0  0  0  0  0  0  0  0  0  0  0  0
   -2.1398    2.3952    1.5437 H   0  0  0  0  0  0  0  0  0  0  0  0
   -2.3131    0.6044    1.9728 H   0  0  0  0  0  0  0  0  0  0  0  0
   -3.7411    1.6347    1.6893 H   0  0  0  0  0  0  0  0  0  0  0  0
   -5.1745    0.2443    0.7239 H   0  0  0  0  0  0  0  0  0  0  0  0
   -5.5395    0.1138   -1.0389 H   0  0  0  0  0  0  0  0  0  0  0  0
   -4.9800    1.7049   -0.2767 H   0  0  0  0  0  0  0  0  0  0  0  0
   -4.3549   -1.5324    0.2663 H   0  0  0  0  0  0  0  0  0  0  0  0
   -2.7917   -1.1359    0.9602 H   0  0  0  0  0  0  0  0  0  0  0  0
   -2.9527   -1.8825   -0.7307 H   0  0  0  0  0  0  0  0  0  0  0  0
  1  2  1  0
  2  3  1  0
  3  4  1  0
  3  5  1  0
  5  6  2  0
  5  7  1  0
  7  8  1  0
  8  9  2  0
  9 10  1  0
 10 11  2  0
 11 12  1  0
 12 13  2  0
 12 14  1  0
 14 15  1  0
 14 16  1  0
 16 17  1  0
 16 18  1  0
 13  8  1  0
  1 19  1  0
  1 20  1  0
  1 21  1  0
  2 22  1  0
  2 23  1  0
  4 24  1  0
  4 25  1  0
  4 26  1  0
  9 27  1  0
 10 28  1  0
 11 29  1  0
 13 30  1  0
 14 31  1  6
 15 32  1  0
 15 33  1  0
 15 34  1  0
 17 35  1  0
 17 36  1  0
 17 37  1  0
 18 38  1  0
 18 39  1  0
 18 40  1  0
M  END
$$$$
