
     RDKit          3D

 61 65  0  0  0  0  0  0  0  0999 V2000
   -5.4668   -0.0597   -1.8155 C   0  0  0  0  0  0  0  0  0  0  0  0
   -4.8130    0.3504   -0.4763 C   0  0  1  0  0  0  0  0  0  0  0  0
   -3.4976    0.2513   -0.5393 O   0  0  0  0  0  0  0  0  0  0  0  0
   -2.3958   -0.3043   -0.0883 C   0  0  0  0  0  0  0  0  0  0  0  0
   -1.1395    0.0915   -0.6588 C   0  0  0  0  0  0  0  0  0  0  0  0
    0.0343   -0.4388   -0.2436 C   0  0  0  0  0  0  0  0  0  0  0  0
    1.3093   -0.0132   -0.8485 C   0  0  0  0  0  0  0  0  0  0  0  0
    1.5458    0.3973   -2.1429 C   0  0  0  0  0  0  0  0  0  0  0  0
    2.8516    0.7026   -2.2944 N   0  0  0  0  0  0  0  0  0  0  0  0
    3.4506    0.4932   -1.1174 N   0  0  0  0  0  0  0  0  0  0  0  0
    4.8610    0.7031   -0.8529 C   0  0  0  0  0  0  0  0  0  0  0  0
    5.5218   -0.5582   -0.3435 C   0  0  0  0  0  0  0  0  0  0  0  0
    6.8129   -0.8488   -1.0763 C   0  0  0  0  0  0  0  0  0  0  0  0
    7.6451    0.2964   -1.2541 N   0  0  0  0  0  0  0  0  0  0  0  0
    8.4559    0.6046   -0.1017 C   0  0  0  0  0  0  0  0  0  0  0  0
    6.9854    1.4557   -1.7661 C   0  0  0  0  0  0  0  0  0  0  0  0
    5.5679    1.0830   -2.1346 C   0  0  0  0  0  0  0  0  0  0  0  0
    2.5359    0.0582   -0.2224 C   0  0  0  0  0  0  0  0  0  0  0  0
    0.0087   -1.3774    0.7482 C   0  0  0  0  0  0  0  0  0  0  0  0
   -1.1787   -1.7954    1.3336 C   0  0  0  0  0  0  0  0  0  0  0  0
   -1.4469   -2.6915    2.3086 N   0  0  0  0  0  0  0  0  0  0  0  0
   -2.7435   -2.7306    2.5068 N   0  0  0  0  0  0  0  0  0  0  0  0
   -3.4097   -3.5750    3.4754 C   0  0  0  0  0  0  0  0  0  0  0  0
   -3.3756   -1.8657    1.6738 C   0  0  0  0  0  0  0  0  0  0  0  0
   -2.3860   -1.2675    0.9249 C   0  0  0  0  0  0  0  0  0  0  0  0
   -5.3177    1.7895   -0.2142 C   0  0  1  0  0  0  0  0  0  0  0  0
   -6.8272    1.7151   -0.1320 C   0  0  0  0  0  0  0  0  0  0  0  0
   -6.9858    0.8659    1.0360 N   0  0  0  0  0  0  0  0  0  0  0  0
   -5.9741    1.2599    1.9530 C   0  0  0  0  0  0  0  0  0  0  0  0
   -5.9796    0.9135    3.1598 O   0  0  0  0  0  0  0  0  0  0  0  0
   -4.9681    2.1165    1.2287 C   0  0  0  0  0  0  0  0  0  0  0  0
   -5.5257    0.7916   -2.5049 H   0  0  0  0  0  0  0  0  0  0  0  0
   -6.4812   -0.4131   -1.6054 H   0  0  0  0  0  0  0  0  0  0  0  0
   -4.8020   -0.8096   -2.2500 H   0  0  0  0  0  0  0  0  0  0  0  0
   -5.3564   -0.2425    0.2767 H   0  0  0  0  0  0  0  0  0  0  0  0
   -1.2040    0.8478   -1.4476 H   0  0  0  0  0  0  0  0  0  0  0  0
    0.7454    0.4451   -2.8886 H   0  0  0  0  0  0  0  0  0  0  0  0
    5.0161    1.5426   -0.1309 H   0  0  0  0  0  0  0  0  0  0  0  0
    4.8652   -1.4544   -0.5000 H   0  0  0  0  0  0  0  0  0  0  0  0
    5.7657   -0.4734    0.7351 H   0  0  0  0  0  0  0  0  0  0  0  0
    6.6099   -1.4005   -2.0147 H   0  0  0  0  0  0  0  0  0  0  0  0
    7.3860   -1.5732   -0.4291 H   0  0  0  0  0  0  0  0  0  0  0  0
    8.7240    1.6872   -0.1520 H   0  0  0  0  0  0  0  0  0  0  0  0
    9.4150    0.0439   -0.0917 H   0  0  0  0  0  0  0  0  0  0  0  0
    7.9160    0.4418    0.8557 H   0  0  0  0  0  0  0  0  0  0  0  0
    7.5201    1.9456   -2.6096 H   0  0  0  0  0  0  0  0  0  0  0  0
    6.9041    2.1967   -0.9326 H   0  0  0  0  0  0  0  0  0  0  0  0
    5.5575    0.1902   -2.8080 H   0  0  0  0  0  0  0  0  0  0  0  0
    5.0118    1.9351   -2.5768 H   0  0  0  0  0  0  0  0  0  0  0  0
    2.7920   -0.1771    0.8012 H   0  0  0  0  0  0  0  0  0  0  0  0
    0.9411   -1.8039    1.0837 H   0  0  0  0  0  0  0  0  0  0  0  0
   -3.3845   -3.0814    4.4772 H   0  0  0  0  0  0  0  0  0  0  0  0
   -4.4454   -3.7225    3.1566 H   0  0  0  0  0  0  0  0  0  0  0  0
   -2.8287   -4.5257    3.5204 H   0  0  0  0  0  0  0  0  0  0  0  0
   -4.4258   -1.6847    1.6094 H   0  0  0  0  0  0  0  0  0  0  0  0
   -4.9351    2.5026   -0.9382 H   0  0  0  0  0  0  0  0  0  0  0  0
   -7.2665    2.7200    0.0988 H   0  0  0  0  0  0  0  0  0  0  0  0
   -7.3167    1.3373   -1.0280 H   0  0  0  0  0  0  0  0  0  0  0  0
   -7.7160    0.1309    1.1245 H   0  0  0  0  0  0  0  0  0  0  0  0
   -3.9391    1.8247    1.4824 H   0  0  0  0  0  0  0  0  0  0  0  0
   -5.2230    3.1568    1.4356 H   0  0  0  0  0  0  0  0  0  0  0  0
  1  2  1  0
  2  3  1  0
  3  4  1  0
  4  5  2  0
  5  6  1  0
  6  7  1  0
  7  8  1  0
  8  9  2  0
  9 10  1  0
 10 11  1  0
 11 12  1  0
 12 13  1  0
 13 14  1  0
 14 15  1  0
 14 16  1  0
 16 17  1  0
 10 18  1  0
  6 19  2  0
 19 20  1  0
 20 21  2  0
 21 22  1  0
 22 23  1  0
 22 24  1  0
 24 25  2  0
  2 26  1  0
 26 27  1  0
 27 28  1  0
 28 29  1  0
 29 30  2  0
 29 31  1  0
 25  4  1  0
 31 26  1  0
 18  7  2  0
 25 20  1  0
 17 11  1  0
  1 32  1  0
  1 33  1  0
  1 34  1  0
  2 35  1  1
  5 36  1  0
  8 37  1  0
 11 38  1  0
 12 39  1  0
 12 40  1  0
 13 41  1  0
 13 42  1  0
 15 43  1  0
 15 44  1  0
 15 45  1  0
 16 46  1  0
 16 47  1  0
 17 48  1  0
 17 49  1  0
 18 50  1  0
 19 51  1  0
 23 52  1  0
 23 53  1  0
 23 54  1  0
 24 55  1  0
 26 56  1  6
 27 57  1  0
 27 58  1  0
 28 59  1  0
 31 60  1  0
 31 61  1  0
M  END
$$$$
