
     RDKit          3D

 59 61  0  0  0  0  0  0  0  0999 V2000
    5.8438   -2.6633    0.9975 C   0  0  0  0  0  0  0  0  0  0  0  0
    6.4023   -1.8035    0.0342 N   0  0  0  0  0  0  0  0  0  0  0  0
    7.5502   -1.0637    0.5174 C   0  0  0  0  0  0  0  0  0  0  0  0
    5.6000   -1.1271   -0.8902 C   0  0  0  0  0  0  0  0  0  0  0  0
    4.7202   -0.0289   -0.4256 C   0  0  0  0  0  0  0  0  0  0  0  0
    3.9927    0.5365   -1.6631 C   0  0  0  0  0  0  0  0  0  0  0  0
    3.3129    1.7744   -1.1401 C   0  0  0  0  0  0  0  0  0  0  0  0
    2.0713    1.3615   -0.3952 C   0  0  0  0  0  0  0  0  0  0  0  0
    0.9383    1.3590   -1.3756 C   0  0  0  0  0  0  0  0  0  0  0  0
   -0.3828    0.9946   -0.7546 N   0  0  0  0  0  0  0  0  0  0  0  0
   -1.1040    1.9165   -0.1431 C   0  0  0  0  0  0  0  0  0  0  0  0
   -2.4570    0.9438   -0.3035 N   0  0  0  0  0  0  0  0  0  0  0  0
   -3.6056    1.1124    0.0420 C   0  0  0  0  0  0  0  0  0  0  0  0
   -4.7233    0.1867   -0.1932 N   0  0  0  0  0  0  0  0  0  0  0  0
   -5.2806   -0.4613    0.9602 C   0  0  0  0  0  0  0  0  0  0  0  0
   -6.4952   -1.1999    0.6141 C   0  0  0  0  0  0  0  0  0  0  0  0
   -6.5528   -2.5605    0.5108 C   0  0  0  0  0  0  0  0  0  0  0  0
   -7.7414   -3.2087    0.1591 C   0  0  0  0  0  0  0  0  0  0  0  0
   -8.8860   -2.4656   -0.0886 C   0  0  0  0  0  0  0  0  0  0  0  0
   -8.7971   -1.1096    0.0251 C   0  0  0  0  0  0  0  0  0  0  0  0
   -7.6404   -0.4613    0.3662 C   0  0  0  0  0  0  0  0  0  0  0  0
   -7.6429    1.2975    0.4752 Cl  0  0  0  0  0  0  0  0  0  0  0  0
   -4.0590    2.2492    0.7013 N   0  0  0  0  0  0  0  0  0  0  0  0
   -3.0479    3.1220    0.8938 C   0  0  0  0  0  0  0  0  0  0  0  0
   -1.8382    2.8338    0.4734 C   0  0  0  0  0  0  0  0  0  0  0  0
   -0.7957    3.8989    0.8403 N   0  0  0  0  0  4  0  0  0  0  0  0
   -0.9947    4.4296    1.8946 O   0  0  0  0  0  0  0  0  0  0  0  0
    0.2364    4.1237    0.0300 O   0  0  0  0  0  1  0  0  0  0  0  0
    2.2652    0.0460    0.2552 C   0  0  0  0  0  0  0  0  0  0  0  0
    3.6156   -0.5117    0.4476 C   0  0  0  0  0  0  0  0  0  0  0  0
    5.3923   -2.1446    1.8808 H   0  0  0  0  0  0  0  0  0  0  0  0
    6.6994   -3.3134    1.3782 H   0  0  0  0  0  0  0  0  0  0  0  0
    5.1488   -3.4018    0.5423 H   0  0  0  0  0  0  0  0  0  0  0  0
    7.6403   -1.0895    1.6279 H   0  0  0  0  0  0  0  0  0  0  0  0
    7.5584   -0.0005    0.2182 H   0  0  0  0  0  0  0  0  0  0  0  0
    8.4560   -1.5225    0.0882 H   0  0  0  0  0  0  0  0  0  0  0  0
    6.2555   -0.7709   -1.7506 H   0  0  0  0  0  0  0  0  0  0  0  0
    4.9710   -1.9190   -1.4218 H   0  0  0  0  0  0  0  0  0  0  0  0
    5.2761    0.7944    0.0881 H   0  0  0  0  0  0  0  0  0  0  0  0
    4.6746    0.7320   -2.4907 H   0  0  0  0  0  0  0  0  0  0  0  0
    3.2972   -0.2677   -1.9717 H   0  0  0  0  0  0  0  0  0  0  0  0
    3.1251    2.5099   -1.9358 H   0  0  0  0  0  0  0  0  0  0  0  0
    4.0183    2.2718   -0.4341 H   0  0  0  0  0  0  0  0  0  0  0  0
    1.9305    2.1071    0.4299 H   0  0  0  0  0  0  0  0  0  0  0  0
    0.8260    2.3208   -1.9124 H   0  0  0  0  0  0  0  0  0  0  0  0
    1.1616    0.6139   -2.1509 H   0  0  0  0  0  0  0  0  0  0  0  0
   -0.5250   -0.0299   -0.8427 H   0  0  0  0  0  0  0  0  0  0  0  0
   -5.0938    0.0016   -1.1277 H   0  0  0  0  0  0  0  0  0  0  0  0
   -4.5397   -1.1751    1.3743 H   0  0  0  0  0  0  0  0  0  0  0  0
   -5.4647    0.3036    1.7728 H   0  0  0  0  0  0  0  0  0  0  0  0
   -5.7017   -3.1921    0.6882 H   0  0  0  0  0  0  0  0  0  0  0  0
   -7.8240   -4.2780    0.0605 H   0  0  0  0  0  0  0  0  0  0  0  0
   -9.7910   -2.9855   -0.3638 H   0  0  0  0  0  0  0  0  0  0  0  0
   -9.6916   -0.5230   -0.1712 H   0  0  0  0  0  0  0  0  0  0  0  0
   -3.2673    4.0740    1.4077 H   0  0  0  0  0  0  0  0  0  0  0  0
    1.7382    0.0352    1.2461 H   0  0  0  0  0  0  0  0  0  0  0  0
    1.6680   -0.7238   -0.3372 H   0  0  0  0  0  0  0  0  0  0  0  0
    3.9503   -0.3055    1.5124 H   0  0  0  0  0  0  0  0  0  0  0  0
    3.6070   -1.6423    0.4148 H   0  0  0  0  0  0  0  0  0  0  0  0
  1  2  1  0
  2  3  1  0
  2  4  1  0
  4  5  1  0
  5  6  1  0
  6  7  1  0
  7  8  1  0
  8  9  1  0
  9 10  1  0
 10 11  1  0
 11 12  2  0
 12 13  1  0
 13 14  1  0
 14 15  1  0
 15 16  1  0
 16 17  2  0
 17 18  1  0
 18 19  2  0
 19 20  1  0
 20 21  2  0
 21 22  1  0
 13 23  2  0
 23 24  1  0
 24 25  2  0
 25 26  1  0
 26 27  2  0
 26 28  1  0
  8 29  1  0
 29 30  1  0
 30  5  1  0
 25 11  1  0
 21 16  1  0
  1 31  1  0
  1 32  1  0
  1 33  1  0
  3 34  1  0
  3 35  1  0
  3 36  1  0
  4 37  1  0
  4 38  1  0
  5 39  1  0
  6 40  1  0
  6 41  1  0
  7 42  1  0
  7 43  1  0
  8 44  1  0
  9 45  1  0
  9 46  1  0
 10 47  1  0
 14 48  1  0
 15 49  1  0
 15 50  1  0
 17 51  1  0
 18 52  1  0
 19 53  1  0
 20 54  1  0
 24 55  1  0
 29 56  1  0
 29 57  1  0
 30 58  1  0
 30 59  1  0
M  CHG  2  26   1  28  -1
M  END
$$$$
