
     RDKit          3D

101107  0  0  0  0  0  0  0  0999 V2000
  -11.7281    2.6579    4.5189 C   0  0  0  0  0  0  0  0  0  0  0  0
  -11.1665    1.4622    4.0092 O   0  0  0  0  0  0  0  0  0  0  0  0
  -10.3265    1.5401    2.8900 C   0  0  0  0  0  0  0  0  0  0  0  0
  -10.0483    2.7493    2.2918 C   0  0  0  0  0  0  0  0  0  0  0  0
   -9.2079    2.8311    1.1714 C   0  0  0  0  0  0  0  0  0  0  0  0
   -8.6358    1.7027    0.6368 C   0  0  0  0  0  0  0  0  0  0  0  0
   -7.7779    1.7749   -0.4994 N   0  0  0  0  0  0  0  0  0  0  0  0
   -8.0435    2.1583   -1.7273 N   0  0  0  0  0  0  0  0  0  0  0  0
   -6.9900    2.0850   -2.5439 C   0  0  0  0  0  0  0  0  0  0  0  0
   -6.9288    2.4281   -4.0076 C   0  0  0  0  0  0  0  0  0  0  0  0
   -7.6995    3.6979   -4.2034 C   0  0  0  0  0  0  0  0  0  0  0  0
   -7.7436    1.3114   -4.6848 C   0  0  0  0  0  0  0  0  0  0  0  0
   -5.9394    1.6042   -1.7547 C   0  0  0  0  0  0  0  0  0  0  0  0
   -6.4523    1.4217   -0.5007 C   0  0  0  0  0  0  0  0  0  0  0  0
   -5.7631    0.9234    0.6328 N   0  0  0  0  0  0  0  0  0  0  0  0
   -4.4359    0.4356    0.6199 C   0  0  0  0  0  0  0  0  0  0  0  0
   -3.7776    0.4239   -0.4607 O   0  0  0  0  0  0  0  0  0  0  0  0
   -3.7849   -0.0551    1.7661 N   0  0  0  0  0  0  0  0  0  0  0  0
   -2.4738   -0.5794    1.8095 C   0  0  0  0  0  0  0  0  0  0  0  0
   -1.3340    0.1433    2.0483 C   0  0  0  0  0  0  0  0  0  0  0  0
   -0.0929   -0.4458    2.0849 C   0  0  0  0  0  0  0  0  0  0  0  0
    0.0617   -1.8075    1.8802 C   0  0  0  0  0  0  0  0  0  0  0  0
    1.2931   -2.4259    1.9119 O   0  0  0  0  0  0  0  0  0  0  0  0
    1.8426   -2.9975    0.7696 C   0  0  0  0  0  0  0  0  0  0  0  0
    1.2240   -2.8812   -0.4808 C   0  0  0  0  0  0  0  0  0  0  0  0
    1.8044   -3.4556   -1.5722 C   0  0  0  0  0  0  0  0  0  0  0  0
    2.9580   -4.1312   -1.4723 N   0  0  0  0  0  0  0  0  0  0  0  0
    3.5803   -4.2576   -0.2607 C   0  0  0  0  0  0  0  0  0  0  0  0
    4.7799   -4.9914   -0.2217 N   0  0  0  0  0  0  0  0  0  0  0  0
    6.0590   -4.4381   -0.3594 C   0  0  0  0  0  0  0  0  0  0  0  0
    6.2199   -3.0728   -0.4600 C   0  0  0  0  0  0  0  0  0  0  0  0
    7.4535   -2.4798   -0.6029 C   0  0  0  0  0  0  0  0  0  0  0  0
    7.6114   -1.0231   -0.7027 C   0  0  0  0  0  0  0  0  0  0  0  0
    8.7740   -0.5190   -0.8631 O   0  0  0  0  0  0  0  0  0  0  0  0
    6.5326   -0.1083   -0.6310 N   0  0  0  0  0  0  0  0  0  0  0  0
    6.7209    1.3293   -0.7314 C   0  0  0  0  0  0  0  0  0  0  0  0
    7.5984    1.8709    0.3452 C   0  0  0  0  0  0  0  0  0  0  0  0
    7.7765    3.3172    0.2401 N   0  0  0  0  0  0  0  0  0  0  0  0
    8.5384    3.7158   -0.9049 C   0  0  0  0  0  0  0  0  0  0  0  0
    8.5687    5.2075   -1.0074 C   0  0  0  0  0  0  0  0  0  0  0  0
    8.4750    5.7952    0.2643 O   0  0  0  0  0  0  0  0  0  0  0  0
    9.2606    4.9944    1.1003 C   0  0  0  0  0  0  0  0  0  0  0  0
    8.5283    3.7158    1.4379 C   0  0  0  0  0  0  0  0  0  0  0  0
    8.5678   -3.2674   -0.6477 C   0  0  0  0  0  0  0  0  0  0  0  0
    8.4176   -4.6338   -0.5477 C   0  0  0  0  0  0  0  0  0  0  0  0
    9.5918   -5.5603   -0.5892 C   0  0  0  0  0  0  0  0  0  0  0  0
   10.7351   -4.8619   -0.2648 F   0  0  0  0  0  0  0  0  0  0  0  0
    9.4436   -6.5607    0.3801 F   0  0  0  0  0  0  0  0  0  0  0  0
    9.6817   -6.2072   -1.8017 F   0  0  0  0  0  0  0  0  0  0  0  0
    7.1821   -5.2275   -0.4046 C   0  0  0  0  0  0  0  0  0  0  0  0
    2.9964   -3.6882    0.7937 N   0  0  0  0  0  0  0  0  0  0  0  0
   -1.0754   -2.5677    1.6368 C   0  0  0  0  0  0  0  0  0  0  0  0
   -0.9615   -3.9400    1.4475 C   0  0  0  0  0  0  0  0  0  0  0  0
   -2.1142   -4.6525    1.2251 C   0  0  0  0  0  0  0  0  0  0  0  0
   -3.3555   -4.0662    1.1853 C   0  0  0  0  0  0  0  0  0  0  0  0
   -3.4555   -2.7127    1.3757 C   0  0  0  0  0  0  0  0  0  0  0  0
   -2.3171   -1.9523    1.6039 C   0  0  0  0  0  0  0  0  0  0  0  0
   -8.9244    0.4917    1.2489 C   0  0  0  0  0  0  0  0  0  0  0  0
   -9.7497    0.4106    2.3491 C   0  0  0  0  0  0  0  0  0  0  0  0
  -12.4410    3.0977    3.7923 H   0  0  0  0  0  0  0  0  0  0  0  0
  -12.2909    2.4833    5.4558 H   0  0  0  0  0  0  0  0  0  0  0  0
  -10.9493    3.4271    4.7290 H   0  0  0  0  0  0  0  0  0  0  0  0
  -10.4984    3.6318    2.7139 H   0  0  0  0  0  0  0  0  0  0  0  0
   -9.0198    3.8009    0.7371 H   0  0  0  0  0  0  0  0  0  0  0  0
   -5.8985    2.4290   -4.3569 H   0  0  0  0  0  0  0  0  0  0  0  0
   -8.3188    3.6499   -5.1474 H   0  0  0  0  0  0  0  0  0  0  0  0
   -8.4661    3.8051   -3.3794 H   0  0  0  0  0  0  0  0  0  0  0  0
   -7.0789    4.5940   -4.1673 H   0  0  0  0  0  0  0  0  0  0  0  0
   -8.7349    1.3280   -4.1876 H   0  0  0  0  0  0  0  0  0  0  0  0
   -7.2281    0.3308   -4.5261 H   0  0  0  0  0  0  0  0  0  0  0  0
   -7.8578    1.4908   -5.7555 H   0  0  0  0  0  0  0  0  0  0  0  0
   -4.9441    1.4410   -2.1496 H   0  0  0  0  0  0  0  0  0  0  0  0
   -6.2436    0.8981    1.5822 H   0  0  0  0  0  0  0  0  0  0  0  0
   -4.3501   -0.0170    2.6658 H   0  0  0  0  0  0  0  0  0  0  0  0
   -1.4464    1.2185    2.2110 H   0  0  0  0  0  0  0  0  0  0  0  0
    0.7640    0.1765    2.2773 H   0  0  0  0  0  0  0  0  0  0  0  0
    0.2932   -2.3389   -0.5929 H   0  0  0  0  0  0  0  0  0  0  0  0
    1.3651   -3.3949   -2.5694 H   0  0  0  0  0  0  0  0  0  0  0  0
    4.6915   -6.0276   -0.0796 H   0  0  0  0  0  0  0  0  0  0  0  0
    5.3094   -2.4694   -0.4210 H   0  0  0  0  0  0  0  0  0  0  0  0
    5.5492   -0.4826   -0.4982 H   0  0  0  0  0  0  0  0  0  0  0  0
    7.1312    1.5978   -1.7428 H   0  0  0  0  0  0  0  0  0  0  0  0
    5.7417    1.8371   -0.6698 H   0  0  0  0  0  0  0  0  0  0  0  0
    7.0789    1.7388    1.3424 H   0  0  0  0  0  0  0  0  0  0  0  0
    8.5693    1.3638    0.4652 H   0  0  0  0  0  0  0  0  0  0  0  0
    9.5901    3.3452   -0.7525 H   0  0  0  0  0  0  0  0  0  0  0  0
    8.1422    3.3307   -1.8601 H   0  0  0  0  0  0  0  0  0  0  0  0
    9.4867    5.5800   -1.5380 H   0  0  0  0  0  0  0  0  0  0  0  0
    7.7024    5.5602   -1.6387 H   0  0  0  0  0  0  0  0  0  0  0  0
   10.2035    4.7930    0.5399 H   0  0  0  0  0  0  0  0  0  0  0  0
    9.4726    5.5885    2.0144 H   0  0  0  0  0  0  0  0  0  0  0  0
    9.3084    2.9135    1.5740 H   0  0  0  0  0  0  0  0  0  0  0  0
    7.8880    3.8154    2.3239 H   0  0  0  0  0  0  0  0  0  0  0  0
    9.5794   -2.8760   -0.7588 H   0  0  0  0  0  0  0  0  0  0  0  0
    7.0952   -6.3129   -0.3282 H   0  0  0  0  0  0  0  0  0  0  0  0
   -0.0000   -4.4141    1.4965 H   0  0  0  0  0  0  0  0  0  0  0  0
   -2.0175   -5.7398    1.0739 H   0  0  0  0  0  0  0  0  0  0  0  0
   -4.2654   -4.6612    1.0052 H   0  0  0  0  0  0  0  0  0  0  0  0
   -4.4474   -2.2301    1.3463 H   0  0  0  0  0  0  0  0  0  0  0  0
   -8.4656   -0.3891    0.8149 H   0  0  0  0  0  0  0  0  0  0  0  0
   -9.9727   -0.5446    2.8247 H   0  0  0  0  0  0  0  0  0  0  0  0
  1  2  1  0
  2  3  1  0
  3  4  2  0
  4  5  1  0
  5  6  2  0
  6  7  1  0
  7  8  1  0
  8  9  2  0
  9 10  1  0
 10 11  1  0
 10 12  1  0
  9 13  1  0
 13 14  2  0
 14 15  1  0
 15 16  1  0
 16 17  2  0
 16 18  1  0
 18 19  1  0
 19 20  2  0
 20 21  1  0
 21 22  2  0
 22 23  1  0
 23 24  1  0
 24 25  2  0
 25 26  1  0
 26 27  2  0
 27 28  1  0
 28 29  1  0
 29 30  1  0
 30 31  2  0
 31 32  1  0
 32 33  1  0
 33 34  2  0
 33 35  1  0
 35 36  1  0
 36 37  1  0
 37 38  1  0
 38 39  1  0
 39 40  1  0
 40 41  1  0
 41 42  1  0
 42 43  1  0
 32 44  2  0
 44 45  1  0
 45 46  1  0
 46 47  1  0
 46 48  1  0
 46 49  1  0
 45 50  2  0
 28 51  2  0
 22 52  1  0
 52 53  2  0
 53 54  1  0
 54 55  2  0
 55 56  1  0
 56 57  2  0
  6 58  1  0
 58 59  2  0
 59  3  1  0
 14  7  1  0
 57 19  1  0
 51 24  1  0
 57 52  1  0
 50 30  1  0
 43 38  1  0
  1 60  1  0
  1 61  1  0
  1 62  1  0
  4 63  1  0
  5 64  1  0
 10 65  1  0
 11 66  1  0
 11 67  1  0
 11 68  1  0
 12 69  1  0
 12 70  1  0
 12 71  1  0
 13 72  1  0
 15 73  1  0
 18 74  1  0
 20 75  1  0
 21 76  1  0
 25 77  1  0
 26 78  1  0
 29 79  1  0
 31 80  1  0
 35 81  1  0
 36 82  1  0
 36 83  1  0
 37 84  1  0
 37 85  1  0
 39 86  1  0
 39 87  1  0
 40 88  1  0
 40 89  1  0
 42 90  1  0
 42 91  1  0
 43 92  1  0
 43 93  1  0
 44 94  1  0
 50 95  1  0
 53 96  1  0
 54 97  1  0
 55 98  1  0
 56 99  1  0
 58100  1  0
 59101  1  0
M  END
$$$$
