
     RDKit          3D

 31 33  0  0  0  0  0  0  0  0999 V2000
    5.7315    0.7694   -2.1940 O   0  0  0  0  0  0  0  0  0  0  0  0
    4.8936    0.5327   -1.2901 C   0  0  0  0  0  0  0  0  0  0  0  0
    5.2170   -0.2511   -0.2120 O   0  0  0  0  0  0  0  0  0  0  0  0
    3.5314    1.1225   -1.4099 C   0  0  0  0  0  0  0  0  0  0  0  0
    2.7350    0.7286   -0.2757 N   0  0  0  0  0  0  0  0  0  0  0  0
    2.6430    1.4492    0.9428 C   0  0  0  0  0  0  0  0  0  0  0  0
    3.2387    2.5239    1.2018 O   0  0  0  0  0  0  0  0  0  0  0  0
    1.7456    0.7255    1.8239 C   0  0  0  0  0  0  0  0  0  0  0  0
    1.3961    1.0274    2.9957 O   0  0  0  0  0  0  0  0  0  0  0  0
    1.2920   -0.4363    1.1393 N   0  0  0  0  0  0  0  0  0  0  0  0
    0.3879   -1.4693    1.5955 C   0  0  0  0  0  0  0  0  0  0  0  0
   -0.9862   -1.0282    1.2057 C   0  0  0  0  0  0  0  0  0  0  0  0
   -1.9601   -0.4851    1.4276 N   0  0  0  0  0  0  0  0  0  0  0  0
   -3.0658   -0.2848    0.7584 C   0  0  0  0  0  0  0  0  0  0  0  0
   -4.2352    0.3960    1.0885 C   0  0  0  0  0  0  0  0  0  0  0  0
   -5.2680    0.4548    0.1797 C   0  0  0  0  0  0  0  0  0  0  0  0
   -6.7259    1.3472    0.6877 Cl  0  0  0  0  0  0  0  0  0  0  0  0
   -5.2624   -0.1123   -1.0695 C   0  0  0  0  0  0  0  0  0  0  0  0
   -4.0915   -0.7999   -1.4130 C   0  0  0  0  0  0  0  0  0  0  0  0
   -3.0666   -0.8627   -0.5210 C   0  0  0  0  0  0  0  0  0  0  0  0
   -1.4027   -1.6393   -0.5655 S   0  0  0  0  0  0  0  0  0  0  0  0
    1.9138   -0.4040   -0.1371 C   0  0  0  0  0  0  0  0  0  0  0  0
    1.7650   -1.2705   -1.0506 O   0  0  0  0  0  0  0  0  0  0  0  0
    6.1398   -0.6779   -0.1099 H   0  0  0  0  0  0  0  0  0  0  0  0
    3.0766    0.8514   -2.3837 H   0  0  0  0  0  0  0  0  0  0  0  0
    3.6656    2.2276   -1.4337 H   0  0  0  0  0  0  0  0  0  0  0  0
    0.6916   -2.4190    1.1224 H   0  0  0  0  0  0  0  0  0  0  0  0
    0.4519   -1.6102    2.7022 H   0  0  0  0  0  0  0  0  0  0  0  0
   -4.3508    0.8919    2.0694 H   0  0  0  0  0  0  0  0  0  0  0  0
   -6.0947   -0.0239   -1.7110 H   0  0  0  0  0  0  0  0  0  0  0  0
   -4.0060   -1.2738   -2.3756 H   0  0  0  0  0  0  0  0  0  0  0  0
  1  2  2  0
  2  3  1  0
  2  4  1  0
  4  5  1  0
  5  6  1  0
  6  7  2  0
  6  8  1  0
  8  9  2  0
  8 10  1  0
 10 11  1  0
 11 12  1  0
 12 13  2  0
 13 14  1  0
 14 15  2  0
 15 16  1  0
 16 17  1  0
 16 18  2  0
 18 19  1  0
 19 20  2  0
 20 21  1  0
 10 22  1  0
 22 23  2  0
 22  5  1  0
 21 12  1  0
 20 14  1  0
  3 24  1  0
  4 25  1  0
  4 26  1  0
 11 27  1  0
 11 28  1  0
 15 29  1  0
 18 30  1  0
 19 31  1  0
M  END
$$$$
