
     RDKit          3D

 76 80  0  0  0  0  0  0  0  0999 V2000
   -3.4061    5.8804    0.1516 C   0  0  0  0  0  0  0  0  0  0  0  0
   -3.8051    4.4419    0.2339 C   0  0  0  0  0  0  0  0  0  0  0  0
   -4.3087    3.8957    1.3970 C   0  0  0  0  0  0  0  0  0  0  0  0
   -4.6842    2.5584    1.4870 C   0  0  0  0  0  0  0  0  0  0  0  0
   -4.5589    1.7319    0.3936 C   0  0  0  0  0  0  0  0  0  0  0  0
   -4.9249    0.3569    0.4209 N   0  0  0  0  0  0  0  0  0  0  0  0
   -6.0013   -0.1350   -0.1986 N   0  0  0  0  0  0  0  0  0  0  0  0
   -6.0777   -1.4605    0.0121 C   0  0  0  0  0  0  0  0  0  0  0  0
   -7.0935   -2.4277   -0.4726 C   0  0  0  0  0  0  0  0  0  0  0  0
   -6.7121   -3.0188   -1.8103 C   0  0  0  0  0  0  0  0  0  0  0  0
   -7.2791   -3.5627    0.5430 C   0  0  0  0  0  0  0  0  0  0  0  0
   -8.4486   -1.7668   -0.6051 C   0  0  0  0  0  0  0  0  0  0  0  0
   -4.9718   -1.7712    0.8095 C   0  0  0  0  0  0  0  0  0  0  0  0
   -4.2644   -0.6129    1.0520 C   0  0  0  0  0  0  0  0  0  0  0  0
   -3.0750   -0.4314    1.8087 N   0  0  0  0  0  0  0  0  0  0  0  0
   -1.7816   -0.5291    1.2291 C   0  0  0  0  0  0  0  0  0  0  0  0
   -1.7109   -0.7891   -0.0056 O   0  0  0  0  0  0  0  0  0  0  0  0
   -0.6173   -0.3371    2.0285 N   0  0  0  0  0  0  0  0  0  0  0  0
    0.6813   -0.4318    1.4590 C   0  0  0  0  0  0  0  0  0  0  0  0
    1.3051    0.6900    0.9242 C   0  0  0  0  0  0  0  0  0  0  0  0
    2.5663    0.6397    0.3639 C   0  0  0  0  0  0  0  0  0  0  0  0
    3.2538   -0.5522    0.3198 C   0  0  0  0  0  0  0  0  0  0  0  0
    4.5220   -0.6859   -0.2250 O   0  0  0  0  0  0  0  0  0  0  0  0
    5.2254    0.4071   -0.7895 C   0  0  0  0  0  0  0  0  0  0  0  0
    6.5469   -0.1048   -1.2720 C   0  0  0  0  0  0  0  0  0  0  0  0
    7.3870    0.8733   -1.8729 N   0  0  0  0  0  0  0  0  0  0  0  0
    8.6173    0.2429   -2.2862 C   0  0  0  0  0  0  0  0  0  0  0  0
    9.7743    0.5160   -1.3830 C   0  0  0  0  0  0  0  0  0  0  0  0
   10.0140    1.8596   -1.1623 O   0  0  0  0  0  0  0  0  0  0  0  0
    8.9445    2.6617   -1.5744 C   0  0  0  0  0  0  0  0  0  0  0  0
    7.6855    2.0035   -1.0589 C   0  0  0  0  0  0  0  0  0  0  0  0
    2.6394   -1.6670    0.8486 C   0  0  0  0  0  0  0  0  0  0  0  0
    3.2979   -2.8827    0.8233 C   0  0  0  0  0  0  0  0  0  0  0  0
    2.7012   -4.0109    1.3474 C   0  0  0  0  0  0  0  0  0  0  0  0
    1.4290   -3.9221    1.9043 C   0  0  0  0  0  0  0  0  0  0  0  0
    0.7422   -2.7258    1.9468 C   0  0  0  0  0  0  0  0  0  0  0  0
    1.3637   -1.6169    1.4157 C   0  0  0  0  0  0  0  0  0  0  0  0
   -4.0556    2.2760   -0.7698 C   0  0  0  0  0  0  0  0  0  0  0  0
   -3.6788    3.6189   -0.8596 C   0  0  0  0  0  0  0  0  0  0  0  0
   -2.3003    5.9900    0.1125 H   0  0  0  0  0  0  0  0  0  0  0  0
   -3.7331    6.4096    1.0683 H   0  0  0  0  0  0  0  0  0  0  0  0
   -3.8591    6.3852   -0.7202 H   0  0  0  0  0  0  0  0  0  0  0  0
   -4.4074    4.5581    2.2673 H   0  0  0  0  0  0  0  0  0  0  0  0
   -5.0762    2.1331    2.3930 H   0  0  0  0  0  0  0  0  0  0  0  0
   -7.3944   -3.8921   -1.9996 H   0  0  0  0  0  0  0  0  0  0  0  0
   -6.8764   -2.3250   -2.6416 H   0  0  0  0  0  0  0  0  0  0  0  0
   -5.6895   -3.4494   -1.7879 H   0  0  0  0  0  0  0  0  0  0  0  0
   -7.9652   -4.3297    0.1414 H   0  0  0  0  0  0  0  0  0  0  0  0
   -6.3296   -4.0581    0.7785 H   0  0  0  0  0  0  0  0  0  0  0  0
   -7.6699   -3.1207    1.4927 H   0  0  0  0  0  0  0  0  0  0  0  0
   -8.8671   -1.5607    0.4167 H   0  0  0  0  0  0  0  0  0  0  0  0
   -9.1487   -2.4815   -1.0761 H   0  0  0  0  0  0  0  0  0  0  0  0
   -8.4151   -0.8514   -1.2238 H   0  0  0  0  0  0  0  0  0  0  0  0
   -4.6926   -2.7539    1.1891 H   0  0  0  0  0  0  0  0  0  0  0  0
   -3.1020   -0.2129    2.8448 H   0  0  0  0  0  0  0  0  0  0  0  0
   -0.7103   -0.1199    3.0654 H   0  0  0  0  0  0  0  0  0  0  0  0
    0.7631    1.6220    0.9605 H   0  0  0  0  0  0  0  0  0  0  0  0
    3.0503    1.5187   -0.0528 H   0  0  0  0  0  0  0  0  0  0  0  0
    5.4269    1.2031   -0.0395 H   0  0  0  0  0  0  0  0  0  0  0  0
    4.5861    0.8081   -1.5975 H   0  0  0  0  0  0  0  0  0  0  0  0
    6.3754   -0.9317   -1.9700 H   0  0  0  0  0  0  0  0  0  0  0  0
    7.0837   -0.5133   -0.3810 H   0  0  0  0  0  0  0  0  0  0  0  0
    8.4808   -0.8503   -2.3476 H   0  0  0  0  0  0  0  0  0  0  0  0
    8.9209    0.5744   -3.3214 H   0  0  0  0  0  0  0  0  0  0  0  0
   10.6908    0.1244   -1.9142 H   0  0  0  0  0  0  0  0  0  0  0  0
    9.7314   -0.0807   -0.4319 H   0  0  0  0  0  0  0  0  0  0  0  0
    9.0959    3.6560   -1.1122 H   0  0  0  0  0  0  0  0  0  0  0  0
    8.9863    2.7180   -2.6661 H   0  0  0  0  0  0  0  0  0  0  0  0
    6.8418    2.7123   -0.9417 H   0  0  0  0  0  0  0  0  0  0  0  0
    7.9164    1.6347   -0.0271 H   0  0  0  0  0  0  0  0  0  0  0  0
    4.2807   -2.9190    0.3859 H   0  0  0  0  0  0  0  0  0  0  0  0
    3.2585   -4.9383    1.3036 H   0  0  0  0  0  0  0  0  0  0  0  0
    0.9898   -4.8184    2.3046 H   0  0  0  0  0  0  0  0  0  0  0  0
   -0.2462   -2.6987    2.3888 H   0  0  0  0  0  0  0  0  0  0  0  0
   -3.9449    1.6452   -1.6522 H   0  0  0  0  0  0  0  0  0  0  0  0
   -3.2920    4.0017   -1.7828 H   0  0  0  0  0  0  0  0  0  0  0  0
  1  2  1  0
  2  3  2  0
  3  4  1  0
  4  5  2  0
  5  6  1  0
  6  7  1  0
  7  8  2  0
  8  9  1  0
  9 10  1  0
  9 11  1  0
  9 12  1  0
  8 13  1  0
 13 14  2  0
 14 15  1  0
 15 16  1  0
 16 17  2  0
 16 18  1  0
 18 19  1  0
 19 20  2  0
 20 21  1  0
 21 22  2  0
 22 23  1  0
 23 24  1  0
 24 25  1  0
 25 26  1  0
 26 27  1  0
 27 28  1  0
 28 29  1  0
 29 30  1  0
 30 31  1  0
 22 32  1  0
 32 33  2  0
 33 34  1  0
 34 35  2  0
 35 36  1  0
 36 37  2  0
  5 38  1  0
 38 39  2  0
 39  2  1  0
 14  6  1  0
 37 19  1  0
 31 26  1  0
 37 32  1  0
  1 40  1  0
  1 41  1  0
  1 42  1  0
  3 43  1  0
  4 44  1  0
 10 45  1  0
 10 46  1  0
 10 47  1  0
 11 48  1  0
 11 49  1  0
 11 50  1  0
 12 51  1  0
 12 52  1  0
 12 53  1  0
 13 54  1  0
 15 55  1  0
 18 56  1  0
 20 57  1  0
 21 58  1  0
 24 59  1  0
 24 60  1  0
 25 61  1  0
 25 62  1  0
 27 63  1  0
 27 64  1  0
 28 65  1  0
 28 66  1  0
 30 67  1  0
 30 68  1  0
 31 69  1  0
 31 70  1  0
 33 71  1  0
 34 72  1  0
 35 73  1  0
 36 74  1  0
 38 75  1  0
 39 76  1  0
M  END
$$$$
