
     RDKit          3D

 44 47  0  0  0  0  0  0  0  0999 V2000
   -4.8299    0.9390    1.6957 C   0  0  0  0  0  0  0  0  0  0  0  0
   -5.0858    0.6884    0.3074 N   0  0  0  0  0  0  0  0  0  0  0  0
   -6.2685    0.9828   -0.3081 C   0  0  0  0  0  0  0  0  0  0  0  0
   -6.1286    0.6032   -1.6080 C   0  0  0  0  0  0  0  0  0  0  0  0
   -4.9042    0.1054   -1.7392 N   0  0  0  0  0  0  0  0  0  0  0  0
   -4.2342    0.1486   -0.5544 C   0  0  0  0  0  0  0  0  0  0  0  0
   -2.8485   -0.3317   -0.3765 C   0  0  2  0  0  0  0  0  0  0  0  0
   -1.8851    0.8224   -0.4572 C   0  0  0  0  0  0  0  0  0  0  0  0
   -0.4995    0.3608   -0.2819 N   0  0  0  0  0  0  0  0  0  0  0  0
    0.5870    1.2721   -0.3194 C   0  0  0  0  0  0  0  0  0  0  0  0
    0.3228    2.4858   -0.5074 O   0  0  0  0  0  0  0  0  0  0  0  0
    1.9782    0.8080   -0.1433 C   0  0  0  0  0  0  0  0  0  0  0  0
    3.1218    1.5753   -0.1563 C   0  0  0  0  0  0  0  0  0  0  0  0
    4.2310    0.7713    0.0437 C   0  0  0  0  0  0  0  0  0  0  0  0
    5.5860    0.9760    0.1250 C   0  0  0  0  0  0  0  0  0  0  0  0
    6.4417   -0.0744    0.3385 C   0  0  0  0  0  0  0  0  0  0  0  0
    7.9236    0.1016    0.4340 C   0  0  0  0  0  0  0  0  0  0  0  0
    8.5466   -0.8247   -0.3836 F   0  0  0  0  0  0  0  0  0  0  0  0
    8.2758    1.3846    0.0896 F   0  0  0  0  0  0  0  0  0  0  0  0
    8.2675   -0.1078    1.7563 F   0  0  0  0  0  0  0  0  0  0  0  0
    5.9103   -1.3463    0.4703 C   0  0  0  0  0  0  0  0  0  0  0  0
    4.5507   -1.5562    0.3894 C   0  0  0  0  0  0  0  0  0  0  0  0
    3.6766   -0.5084    0.1748 C   0  0  0  0  0  0  0  0  0  0  0  0
    2.3739   -0.4233    0.0579 O   0  0  0  0  0  0  0  0  0  0  0  0
   -2.5292   -1.2859   -1.4156 N   0  0  0  0  0  0  0  0  0  0  0  0
   -3.0119   -2.5439   -0.9649 C   0  0  0  0  0  0  0  0  0  0  0  0
   -3.2932   -3.5320   -1.7162 O   0  0  0  0  0  0  0  0  0  0  0  0
   -3.1066   -2.4567    0.4513 N   0  0  0  0  0  0  0  0  0  0  0  0
   -2.6777   -1.1397    0.8410 C   0  0  0  0  0  0  0  0  0  0  0  0
   -2.2626   -0.8109    1.9722 O   0  0  0  0  0  0  0  0  0  0  0  0
   -5.6401    1.5797    2.1539 H   0  0  0  0  0  0  0  0  0  0  0  0
   -4.8701   -0.0071    2.3066 H   0  0  0  0  0  0  0  0  0  0  0  0
   -3.8944    1.5055    1.8702 H   0  0  0  0  0  0  0  0  0  0  0  0
   -7.1471    1.4249    0.1239 H   0  0  0  0  0  0  0  0  0  0  0  0
   -6.8467    0.6747   -2.4087 H   0  0  0  0  0  0  0  0  0  0  0  0
   -1.9515    1.2451   -1.4741 H   0  0  0  0  0  0  0  0  0  0  0  0
   -2.0457    1.5661    0.3458 H   0  0  0  0  0  0  0  0  0  0  0  0
   -0.2879   -0.6506   -0.1259 H   0  0  0  0  0  0  0  0  0  0  0  0
    3.1619    2.6472   -0.3004 H   0  0  0  0  0  0  0  0  0  0  0  0
    5.9996    1.9602    0.0232 H   0  0  0  0  0  0  0  0  0  0  0  0
    6.6158   -2.1672    0.6401 H   0  0  0  0  0  0  0  0  0  0  0  0
    4.1588   -2.5769    0.4980 H   0  0  0  0  0  0  0  0  0  0  0  0
   -2.0435   -1.0471   -2.2955 H   0  0  0  0  0  0  0  0  0  0  0  0
   -3.4369   -3.2382    1.0769 H   0  0  0  0  0  0  0  0  0  0  0  0
  1  2  1  0
  2  3  1  0
  3  4  2  0
  4  5  1  0
  5  6  2  0
  6  7  1  0
  7  8  1  1
  8  9  1  0
  9 10  1  0
 10 11  2  0
 10 12  1  0
 12 13  2  0
 13 14  1  0
 14 15  2  0
 15 16  1  0
 16 17  1  0
 17 18  1  0
 17 19  1  0
 17 20  1  0
 16 21  2  0
 21 22  1  0
 22 23  2  0
 23 24  1  0
  7 25  1  0
 25 26  1  0
 26 27  2  0
 26 28  1  0
 28 29  1  0
 29 30  2  0
  6  2  1  0
 29  7  1  0
 24 12  1  0
 23 14  1  0
  1 31  1  0
  1 32  1  0
  1 33  1  0
  3 34  1  0
  4 35  1  0
  8 36  1  0
  8 37  1  0
  9 38  1  0
 13 39  1  0
 15 40  1  0
 21 41  1  0
 22 42  1  0
 25 43  1  0
 28 44  1  0
M  END
$$$$
