
     RDKit          3D

 59 62  0  0  0  0  0  0  0  0999 V2000
   -3.2061   -6.0034   -0.2408 C   0  0  0  0  0  0  0  0  0  0  0  0
   -3.3748   -4.6677    0.4291 C   0  0  0  0  0  0  0  0  0  0  0  0
   -2.7724   -3.6448   -0.4347 N   0  0  0  0  0  0  0  0  0  0  0  0
   -2.7740   -2.2748   -0.0685 C   0  0  0  0  0  0  0  0  0  0  0  0
   -3.3189   -1.9608    1.0415 O   0  0  0  0  0  0  0  0  0  0  0  0
   -2.1581   -1.2632   -0.9605 C   0  0  2  0  0  0  0  0  0  0  0  0
   -0.6745   -1.5517   -1.0342 C   0  0  0  0  0  0  0  0  0  0  0  0
   -0.0945   -0.5754   -0.0640 C   0  0  1  0  0  0  0  0  0  0  0  0
    1.3059   -0.3553   -0.2227 N   0  0  0  0  0  0  0  0  0  0  0  0
    2.2211   -0.5806    0.8445 C   0  0  0  0  0  0  0  0  0  0  0  0
    1.7947   -0.9800    1.9474 O   0  0  0  0  0  0  0  0  0  0  0  0
    3.6310   -0.3437    0.6364 C   0  0  0  0  0  0  0  0  0  0  0  0
    4.2221    0.0932   -0.5214 C   0  0  0  0  0  0  0  0  0  0  0  0
    5.5770    0.1831   -0.2833 C   0  0  0  0  0  0  0  0  0  0  0  0
    6.5900    0.6192   -1.2762 C   0  0  0  0  0  0  0  0  0  0  0  0
    7.9426    0.5631   -0.5782 C   0  0  0  0  0  0  0  0  0  0  0  0
    5.7490   -0.1977    0.9911 N   0  0  0  0  0  0  0  0  0  0  0  0
    4.5926   -0.5142    1.5486 N   0  0  0  0  0  0  0  0  0  0  0  0
    4.4534   -0.9697    2.9379 C   0  0  0  0  0  0  0  0  0  0  0  0
   -0.9376    0.6625   -0.2971 C   0  0  0  0  0  0  0  0  0  0  0  0
   -2.2599    0.0641   -0.3986 N   0  0  0  0  0  0  0  0  0  0  0  0
   -3.4509    0.7129    0.0038 C   0  0  0  0  0  0  0  0  0  0  0  0
   -4.5402    0.1079   -0.1267 O   0  0  0  0  0  0  0  0  0  0  0  0
   -3.4568    2.0570    0.5637 C   0  0  0  0  0  0  0  0  0  0  0  0
   -3.3445    2.4087    1.9137 C   0  0  0  0  0  0  0  0  0  0  0  0
   -3.3911    3.7140    2.0268 O   0  0  0  0  0  0  0  0  0  0  0  0
   -3.5285    4.2728    0.8335 C   0  0  0  0  0  0  0  0  0  0  0  0
   -3.6269    5.5834    0.4023 C   0  0  0  0  0  0  0  0  0  0  0  0
   -3.7655    5.8420   -0.9409 C   0  0  0  0  0  0  0  0  0  0  0  0
   -3.8111    4.8364   -1.8892 C   0  0  0  0  0  0  0  0  0  0  0  0
   -3.7132    3.5211   -1.4658 C   0  0  0  0  0  0  0  0  0  0  0  0
   -3.5726    3.2605   -0.1022 C   0  0  0  0  0  0  0  0  0  0  0  0
   -3.0933   -5.8508   -1.3503 H   0  0  0  0  0  0  0  0  0  0  0  0
   -2.2894   -6.4747    0.1873 H   0  0  0  0  0  0  0  0  0  0  0  0
   -4.0996   -6.6128   -0.0215 H   0  0  0  0  0  0  0  0  0  0  0  0
   -4.4626   -4.4211    0.5897 H   0  0  0  0  0  0  0  0  0  0  0  0
   -2.9077   -4.6824    1.4278 H   0  0  0  0  0  0  0  0  0  0  0  0
   -2.3214   -3.9092   -1.3544 H   0  0  0  0  0  0  0  0  0  0  0  0
   -2.5476   -1.3168   -1.9950 H   0  0  0  0  0  0  0  0  0  0  0  0
   -0.2695   -1.4473   -2.0572 H   0  0  0  0  0  0  0  0  0  0  0  0
   -0.4857   -2.6166   -0.7432 H   0  0  0  0  0  0  0  0  0  0  0  0
   -0.2907   -0.9253    0.9716 H   0  0  0  0  0  0  0  0  0  0  0  0
    1.6912   -0.0156   -1.1535 H   0  0  0  0  0  0  0  0  0  0  0  0
    3.7101    0.3284   -1.4657 H   0  0  0  0  0  0  0  0  0  0  0  0
    6.5901   -0.0608   -2.1741 H   0  0  0  0  0  0  0  0  0  0  0  0
    6.3488    1.6563   -1.5823 H   0  0  0  0  0  0  0  0  0  0  0  0
    8.3098   -0.4672   -0.5335 H   0  0  0  0  0  0  0  0  0  0  0  0
    7.7771    1.0181    0.4266 H   0  0  0  0  0  0  0  0  0  0  0  0
    8.6132    1.2344   -1.1777 H   0  0  0  0  0  0  0  0  0  0  0  0
    5.3321   -0.6403    3.5388 H   0  0  0  0  0  0  0  0  0  0  0  0
    3.5653   -0.4952    3.3940 H   0  0  0  0  0  0  0  0  0  0  0  0
    4.3304   -2.0719    2.9843 H   0  0  0  0  0  0  0  0  0  0  0  0
   -0.8212    1.3176    0.5673 H   0  0  0  0  0  0  0  0  0  0  0  0
   -0.6576    1.2141   -1.2031 H   0  0  0  0  0  0  0  0  0  0  0  0
   -3.2371    1.6590    2.7006 H   0  0  0  0  0  0  0  0  0  0  0  0
   -3.5899    6.3596    1.1546 H   0  0  0  0  0  0  0  0  0  0  0  0
   -3.8408    6.8783   -1.2548 H   0  0  0  0  0  0  0  0  0  0  0  0
   -3.9207    5.0413   -2.9495 H   0  0  0  0  0  0  0  0  0  0  0  0
   -3.7404    2.6820   -2.1419 H   0  0  0  0  0  0  0  0  0  0  0  0
  1  2  1  0
  2  3  1  0
  3  4  1  0
  4  5  2  0
  4  6  1  0
  6  7  1  0
  7  8  1  0
  8  9  1  0
  9 10  1  0
 10 11  2  0
 10 12  1  0
 12 13  2  0
 13 14  1  0
 14 15  1  0
 15 16  1  0
 14 17  2  0
 17 18  1  0
 18 19  1  0
  8 20  1  0
 20 21  1  0
 21 22  1  0
 22 23  2  0
 22 24  1  0
 24 25  2  0
 25 26  1  0
 26 27  1  0
 27 28  2  0
 28 29  1  0
 29 30  2  0
 30 31  1  0
 31 32  2  0
 21  6  1  0
 32 24  1  0
 18 12  1  0
 32 27  1  0
  1 33  1  0
  1 34  1  0
  1 35  1  0
  2 36  1  0
  2 37  1  0
  3 38  1  0
  6 39  1  6
  7 40  1  0
  7 41  1  0
  8 42  1  1
  9 43  1  0
 13 44  1  0
 15 45  1  0
 15 46  1  0
 16 47  1  0
 16 48  1  0
 16 49  1  0
 19 50  1  0
 19 51  1  0
 19 52  1  0
 20 53  1  0
 20 54  1  0
 25 55  1  0
 28 56  1  0
 29 57  1  0
 30 58  1  0
 31 59  1  0
M  END
$$$$
