
     RDKit          3D

 56 58  0  0  0  0  0  0  0  0999 V2000
    1.6858    1.5640   -3.9588 C   0  0  0  0  0  0  0  0  0  0  0  0
    1.1782    1.3270   -2.7701 C   0  0  0  0  0  0  0  0  0  0  0  0
   -0.2983    1.5743   -2.6600 C   0  0  0  0  0  0  0  0  0  0  0  0
    2.0475    0.9600   -1.6842 C   0  0  0  0  0  0  0  0  0  0  0  0
    3.4400    1.1345   -1.7937 C   0  0  0  0  0  0  0  0  0  0  0  0
    4.2941    0.8219   -0.8048 N   0  0  0  0  0  0  0  0  0  0  0  0
    3.8878    0.3191    0.3656 C   0  0  0  0  0  0  0  0  0  0  0  0
    4.8166   -0.0147    1.4316 C   0  0  0  0  0  0  0  0  0  0  0  0
    4.4324   -0.5301    2.6401 C   0  0  0  0  0  0  0  0  0  0  0  0
    5.3969   -0.8233    3.6127 C   0  0  0  0  0  0  0  0  0  0  0  0
    4.9016   -1.4803    5.1515 Cl  0  0  0  0  0  0  0  0  0  0  0  0
    6.7345   -0.5990    3.3688 C   0  0  0  0  0  0  0  0  0  0  0  0
    7.1020   -0.0790    2.1448 C   0  0  0  0  0  0  0  0  0  0  0  0
    6.1531    0.2076    1.1928 C   0  0  0  0  0  0  0  0  0  0  0  0
    6.5912    0.7193    0.0066 F   0  0  0  0  0  0  0  0  0  0  0  0
    2.5412    0.1247    0.5312 C   0  0  0  0  0  0  0  0  0  0  0  0
    1.6322    0.4497   -0.5082 C   0  0  0  0  0  0  0  0  0  0  0  0
    0.2299    0.1858   -0.2431 N   0  0  0  0  0  0  0  0  0  0  0  0
   -0.3629   -0.8664   -0.9917 C   0  0  0  0  0  0  0  0  0  0  0  0
    0.4495   -1.6170   -1.8726 C   0  0  0  0  0  0  0  0  0  0  0  0
   -0.0904   -2.6332   -2.6195 C   0  0  0  0  0  0  0  0  0  0  0  0
   -1.3919   -2.9099   -2.5087 N   0  0  0  0  0  0  0  0  0  0  0  0
   -2.1849   -2.1967   -1.6655 C   0  0  0  0  0  0  0  0  0  0  0  0
   -1.6907   -1.1513   -0.8808 C   0  0  0  0  0  0  0  0  0  0  0  0
   -2.5555   -0.4110   -0.0047 C   0  0  0  0  0  0  0  0  0  0  0  0
   -2.2383    0.5583    0.7307 O   0  0  0  0  0  0  0  0  0  0  0  0
   -3.9446   -0.7510    0.1008 N   0  0  0  0  0  0  0  0  0  0  0  0
   -4.8330   -0.0174    0.9774 C   0  0  0  0  0  0  0  0  0  0  0  0
   -4.8781    1.4620    0.5839 C   0  0  0  0  0  0  0  0  0  0  0  0
   -6.2341   -0.5427    0.8004 C   0  0  0  0  0  0  0  0  0  0  0  0
   -4.4674   -0.1150    2.4153 C   0  0  0  0  0  0  0  0  0  0  0  0
   -5.4197    0.6457    3.1315 O   0  0  0  0  0  0  0  0  0  0  0  0
    2.7056    1.4330   -4.1829 H   0  0  0  0  0  0  0  0  0  0  0  0
    1.0467    1.9079   -4.7512 H   0  0  0  0  0  0  0  0  0  0  0  0
   -0.4405    2.5383   -3.2731 H   0  0  0  0  0  0  0  0  0  0  0  0
   -0.9131    0.8104   -3.1200 H   0  0  0  0  0  0  0  0  0  0  0  0
   -0.5488    1.8633   -1.6291 H   0  0  0  0  0  0  0  0  0  0  0  0
    3.8158    1.5544   -2.7257 H   0  0  0  0  0  0  0  0  0  0  0  0
    3.3947   -0.7213    2.8724 H   0  0  0  0  0  0  0  0  0  0  0  0
    7.4925   -0.8241    4.1196 H   0  0  0  0  0  0  0  0  0  0  0  0
    8.1481    0.1054    1.9318 H   0  0  0  0  0  0  0  0  0  0  0  0
    2.1091   -0.2752    1.4365 H   0  0  0  0  0  0  0  0  0  0  0  0
   -0.2089    0.7770    0.4659 H   0  0  0  0  0  0  0  0  0  0  0  0
    1.4972   -1.3991   -1.9536 H   0  0  0  0  0  0  0  0  0  0  0  0
    0.5199   -3.2230   -3.3047 H   0  0  0  0  0  0  0  0  0  0  0  0
   -3.2350   -2.4373   -1.5922 H   0  0  0  0  0  0  0  0  0  0  0  0
   -4.3476   -1.5192   -0.4362 H   0  0  0  0  0  0  0  0  0  0  0  0
   -5.8653    1.8463    0.8672 H   0  0  0  0  0  0  0  0  0  0  0  0
   -4.7629    1.5221   -0.5123 H   0  0  0  0  0  0  0  0  0  0  0  0
   -4.0498    2.0215    1.0919 H   0  0  0  0  0  0  0  0  0  0  0  0
   -6.9867    0.2901    0.7787 H   0  0  0  0  0  0  0  0  0  0  0  0
   -6.4734   -1.2936    1.5783 H   0  0  0  0  0  0  0  0  0  0  0  0
   -6.3032   -1.0261   -0.1994 H   0  0  0  0  0  0  0  0  0  0  0  0
   -4.6026   -1.1596    2.7903 H   0  0  0  0  0  0  0  0  0  0  0  0
   -3.4906    0.3041    2.6861 H   0  0  0  0  0  0  0  0  0  0  0  0
   -5.4259    1.5889    2.8426 H   0  0  0  0  0  0  0  0  0  0  0  0
  1  2  2  3
  2  3  1  0
  2  4  1  0
  4  5  2  0
  5  6  1  0
  6  7  2  0
  7  8  1  0
  8  9  2  0
  9 10  1  0
 10 11  1  0
 10 12  2  0
 12 13  1  0
 13 14  2  0
 14 15  1  0
  7 16  1  0
 16 17  2  0
 17 18  1  0
 18 19  1  0
 19 20  2  0
 20 21  1  0
 21 22  2  0
 22 23  1  0
 23 24  2  0
 24 25  1  0
 25 26  2  0
 25 27  1  0
 27 28  1  0
 28 29  1  0
 28 30  1  0
 28 31  1  0
 31 32  1  0
 17  4  1  0
 24 19  1  0
 14  8  1  0
  1 33  1  0
  1 34  1  0
  3 35  1  0
  3 36  1  0
  3 37  1  0
  5 38  1  0
  9 39  1  0
 12 40  1  0
 13 41  1  0
 16 42  1  0
 18 43  1  0
 20 44  1  0
 21 45  1  0
 23 46  1  0
 27 47  1  0
 29 48  1  0
 29 49  1  0
 29 50  1  0
 30 51  1  0
 30 52  1  0
 30 53  1  0
 31 54  1  0
 31 55  1  0
 32 56  1  0
M  END
$$$$
