
     RDKit          3D

 35 37  0  0  0  0  0  0  0  0999 V2000
    4.8809   -1.3448    0.2078 N   0  0  0  0  0  0  0  0  0  0  0  0
    5.2004    0.0520    0.1020 C   0  0  1  0  0  0  0  0  0  0  0  0
    5.0054    0.7863   -1.1719 C   0  0  0  0  0  0  0  0  0  0  0  0
    4.1886    1.1199    0.0937 C   0  0  1  0  0  0  0  0  0  0  0  0
    2.7574    0.8762   -0.0778 C   0  0  0  0  0  0  0  0  0  0  0  0
    1.8502    1.7790    0.4360 C   0  0  0  0  0  0  0  0  0  0  0  0
    0.4871    1.6428    0.3275 C   0  0  0  0  0  0  0  0  0  0  0  0
   -0.0040    0.5365   -0.3352 C   0  0  0  0  0  0  0  0  0  0  0  0
   -1.4053    0.3755   -0.4591 N   0  0  0  0  0  0  0  0  0  0  0  0
   -2.1401   -0.3249    0.5264 C   0  0  0  0  0  0  0  0  0  0  0  0
   -1.5169   -0.7974    1.5094 O   0  0  0  0  0  0  0  0  0  0  0  0
   -3.5756   -0.5044    0.4244 C   0  0  0  0  0  0  0  0  0  0  0  0
   -4.3556   -0.0309   -0.6047 C   0  0  0  0  0  0  0  0  0  0  0  0
   -5.7233   -0.2470   -0.6252 C   0  0  0  0  0  0  0  0  0  0  0  0
   -6.3727   -0.9384    0.3692 C   0  0  0  0  0  0  0  0  0  0  0  0
   -5.6036   -1.4198    1.4087 C   0  0  0  0  0  0  0  0  0  0  0  0
   -4.2451   -1.2037    1.4263 C   0  0  0  0  0  0  0  0  0  0  0  0
    0.8967   -0.3715   -0.8522 C   0  0  0  0  0  0  0  0  0  0  0  0
    2.2455   -0.2276   -0.7395 C   0  0  0  0  0  0  0  0  0  0  0  0
    5.1141   -1.8892   -0.6489 H   0  0  0  0  0  0  0  0  0  0  0  0
    5.2059   -1.7660    1.0809 H   0  0  0  0  0  0  0  0  0  0  0  0
    6.1685    0.3024    0.6201 H   0  0  0  0  0  0  0  0  0  0  0  0
    5.7420    1.5800   -1.4764 H   0  0  0  0  0  0  0  0  0  0  0  0
    4.5060    0.3165   -2.0165 H   0  0  0  0  0  0  0  0  0  0  0  0
    4.4475    2.0711    0.6103 H   0  0  0  0  0  0  0  0  0  0  0  0
    2.2025    2.6698    0.9687 H   0  0  0  0  0  0  0  0  0  0  0  0
   -0.2202    2.3598    0.7358 H   0  0  0  0  0  0  0  0  0  0  0  0
   -1.8685    0.7856   -1.2900 H   0  0  0  0  0  0  0  0  0  0  0  0
   -3.8623    0.5245   -1.4115 H   0  0  0  0  0  0  0  0  0  0  0  0
   -6.3069    0.1364   -1.4448 H   0  0  0  0  0  0  0  0  0  0  0  0
   -7.4449   -1.1093    0.3557 H   0  0  0  0  0  0  0  0  0  0  0  0
   -6.0897   -1.9712    2.2106 H   0  0  0  0  0  0  0  0  0  0  0  0
   -3.6557   -1.5919    2.2559 H   0  0  0  0  0  0  0  0  0  0  0  0
    0.5187   -1.2539   -1.3805 H   0  0  0  0  0  0  0  0  0  0  0  0
    2.9728   -0.9221   -1.1353 H   0  0  0  0  0  0  0  0  0  0  0  0
  1  2  1  0
  2  3  1  0
  3  4  1  0
  4  5  1  0
  5  6  2  0
  6  7  1  0
  7  8  2  0
  8  9  1  0
  9 10  1  0
 10 11  2  0
 10 12  1  0
 12 13  2  0
 13 14  1  0
 14 15  2  0
 15 16  1  0
 16 17  2  0
  8 18  1  0
 18 19  2  0
  4  2  1  0
 19  5  1  0
 17 12  1  0
  1 20  1  0
  1 21  1  0
  2 22  1  1
  3 23  1  0
  3 24  1  0
  4 25  1  1
  6 26  1  0
  7 27  1  0
  9 28  1  0
 13 29  1  0
 14 30  1  0
 15 31  1  0
 16 32  1  0
 17 33  1  0
 18 34  1  0
 19 35  1  0
M  END
$$$$
