
     RDKit          3D

 75 80  0  0  0  0  0  0  0  0999 V2000
   -4.7374   -3.7346   -1.4209 C   0  0  0  0  0  0  0  0  0  0  0  0
   -5.6992   -3.4325   -0.3667 N   0  0  0  0  0  0  0  0  0  0  0  0
   -7.0918   -3.8174   -0.5187 C   0  0  0  0  0  0  0  0  0  0  0  0
   -5.2664   -2.7436    0.8134 C   0  0  0  0  0  0  0  0  0  0  0  0
   -6.1179   -2.5137    1.6970 O   0  0  0  0  0  0  0  0  0  0  0  0
   -3.8461   -2.3305    0.9417 C   0  0  0  0  0  0  0  0  0  0  0  0
   -2.7592   -3.1197    1.2308 C   0  0  0  0  0  0  0  0  0  0  0  0
   -1.6548   -2.2824    1.2277 C   0  0  0  0  0  0  0  0  0  0  0  0
   -0.3184   -2.5639    1.4491 C   0  0  0  0  0  0  0  0  0  0  0  0
    0.5425   -1.5340    1.3685 N   0  0  0  0  0  0  0  0  0  0  0  0
    0.1565   -0.2809    1.0878 C   0  0  0  0  0  0  0  0  0  0  0  0
    1.0836    0.7719    0.9743 N   0  0  0  0  0  0  0  0  0  0  0  0
    2.3266    0.5821    0.2775 C   0  0  0  0  0  0  0  0  0  0  0  0
    2.6781   -0.5863   -0.3521 C   0  0  0  0  0  0  0  0  0  0  0  0
    3.8778   -0.7547   -1.0084 C   0  0  0  0  0  0  0  0  0  0  0  0
    4.7473    0.3487   -1.0052 C   0  0  0  0  0  0  0  0  0  0  0  0
    6.0241    0.2107   -1.6915 C   0  0  0  0  0  0  0  0  0  0  0  0
    5.9691   -0.1445   -2.9083 O   0  0  0  0  0  0  0  0  0  0  0  0
    7.2847    0.4388   -1.0984 N   0  0  0  0  0  0  0  0  0  0  0  0
    8.5189    0.2690   -1.8194 C   0  0  0  0  0  0  0  0  0  0  0  0
    9.5308   -0.3736   -0.8882 C   0  0  0  0  0  0  0  0  0  0  0  0
   10.3383    0.6970   -0.1704 C   0  0  0  0  0  0  0  0  0  0  0  0
    9.6554    0.8448    1.1667 C   0  0  0  0  0  0  0  0  0  0  0  0
    8.4067    0.0276    1.0268 C   0  0  0  0  0  0  0  0  0  0  0  0
    7.3604    0.8647    0.3077 C   0  0  0  0  0  0  0  0  0  0  0  0
    8.8103   -1.0609    0.1589 N   0  0  0  0  0  0  0  0  0  0  0  0
    4.3914    1.5094   -0.3753 C   0  0  0  0  0  0  0  0  0  0  0  0
    3.2112    1.6215    0.2482 N   0  0  0  0  0  0  0  0  0  0  0  0
   -1.1467   -0.0271    0.8772 N   0  0  0  0  0  0  0  0  0  0  0  0
   -2.0767   -1.0088    0.9405 C   0  0  0  0  0  0  0  0  0  0  0  0
   -3.3905   -1.0703    0.7762 N   0  0  0  0  0  0  0  0  0  0  0  0
   -4.2631   -0.0011    0.4705 C   0  0  0  0  0  0  0  0  0  0  0  0
   -4.3742    1.0133    1.4012 C   0  0  0  0  0  0  0  0  0  0  0  0
   -5.2278    2.0629    1.1820 C   0  0  0  0  0  0  0  0  0  0  0  0
   -5.9826    2.1149    0.0303 C   0  0  0  0  0  0  0  0  0  0  0  0
   -6.9052    3.2414   -0.1556 C   0  0  0  0  0  0  0  0  0  0  0  0
   -6.9017    4.1712    1.0442 C   0  0  0  0  0  0  0  0  0  0  0  0
   -8.3111    2.6911   -0.3112 C   0  0  0  0  0  0  0  0  0  0  0  0
   -6.5842    4.0049   -1.3539 C   0  0  0  0  0  0  0  0  0  0  0  0
   -6.3350    4.5853   -2.2958 N   0  0  0  0  0  0  0  0  0  0  0  0
   -5.8733    1.1024   -0.9044 C   0  0  0  0  0  0  0  0  0  0  0  0
   -5.0104    0.0369   -0.6876 C   0  0  0  0  0  0  0  0  0  0  0  0
   -4.2890   -4.7586   -1.2489 H   0  0  0  0  0  0  0  0  0  0  0  0
   -3.9321   -2.9971   -1.5008 H   0  0  0  0  0  0  0  0  0  0  0  0
   -5.3315   -3.8492   -2.3594 H   0  0  0  0  0  0  0  0  0  0  0  0
   -7.7160   -2.8802   -0.5353 H   0  0  0  0  0  0  0  0  0  0  0  0
   -7.2027   -4.2638   -1.5277 H   0  0  0  0  0  0  0  0  0  0  0  0
   -7.3953   -4.4951    0.2895 H   0  0  0  0  0  0  0  0  0  0  0  0
   -2.7697   -4.1852    1.4215 H   0  0  0  0  0  0  0  0  0  0  0  0
   -0.0442   -3.5790    1.6722 H   0  0  0  0  0  0  0  0  0  0  0  0
    0.8790    1.7077    1.4014 H   0  0  0  0  0  0  0  0  0  0  0  0
    1.9894   -1.4223   -0.3499 H   0  0  0  0  0  0  0  0  0  0  0  0
    4.1669   -1.6583   -1.5035 H   0  0  0  0  0  0  0  0  0  0  0  0
    8.3420   -0.4201   -2.6655 H   0  0  0  0  0  0  0  0  0  0  0  0
    8.9415    1.2494   -2.1593 H   0  0  0  0  0  0  0  0  0  0  0  0
   10.2168   -1.0088   -1.4645 H   0  0  0  0  0  0  0  0  0  0  0  0
   11.3868    0.4128   -0.0451 H   0  0  0  0  0  0  0  0  0  0  0  0
   10.2169    1.6582   -0.7369 H   0  0  0  0  0  0  0  0  0  0  0  0
    9.4393    1.9138    1.4050 H   0  0  0  0  0  0  0  0  0  0  0  0
   10.2421    0.3676    1.9974 H   0  0  0  0  0  0  0  0  0  0  0  0
    8.0352   -0.3492    2.0056 H   0  0  0  0  0  0  0  0  0  0  0  0
    6.4072    0.7423    0.8416 H   0  0  0  0  0  0  0  0  0  0  0  0
    7.6096    1.9436    0.2924 H   0  0  0  0  0  0  0  0  0  0  0  0
    7.9356   -1.5103   -0.2344 H   0  0  0  0  0  0  0  0  0  0  0  0
    5.1018    2.3667   -0.3900 H   0  0  0  0  0  0  0  0  0  0  0  0
   -3.7800    0.9838    2.3170 H   0  0  0  0  0  0  0  0  0  0  0  0
   -5.2776    2.8371    1.9457 H   0  0  0  0  0  0  0  0  0  0  0  0
   -5.9053    4.6366    1.2032 H   0  0  0  0  0  0  0  0  0  0  0  0
   -7.6279    4.9846    0.7943 H   0  0  0  0  0  0  0  0  0  0  0  0
   -7.2607    3.6922    1.9548 H   0  0  0  0  0  0  0  0  0  0  0  0
   -9.0065    3.4003    0.1566 H   0  0  0  0  0  0  0  0  0  0  0  0
   -8.4259    1.7178    0.2388 H   0  0  0  0  0  0  0  0  0  0  0  0
   -8.5742    2.5093   -1.3576 H   0  0  0  0  0  0  0  0  0  0  0  0
   -6.4770    1.1656   -1.8063 H   0  0  0  0  0  0  0  0  0  0  0  0
   -4.9345   -0.7419   -1.4184 H   0  0  0  0  0  0  0  0  0  0  0  0
  1  2  1  0
  2  3  1  0
  2  4  1  0
  4  5  2  0
  4  6  1  0
  6  7  2  0
  7  8  1  0
  8  9  2  0
  9 10  1  0
 10 11  2  0
 11 12  1  0
 12 13  1  0
 13 14  2  0
 14 15  1  0
 15 16  2  0
 16 17  1  0
 17 18  2  0
 17 19  1  0
 19 20  1  0
 20 21  1  0
 21 22  1  0
 22 23  1  0
 23 24  1  0
 24 25  1  0
 24 26  1  0
 16 27  1  0
 27 28  2  0
 11 29  1  0
 29 30  2  0
 30 31  1  0
 31 32  1  0
 32 33  2  0
 33 34  1  0
 34 35  2  0
 35 36  1  0
 36 37  1  0
 36 38  1  0
 36 39  1  0
 39 40  3  0
 35 41  1  0
 41 42  2  0
 31  6  1  0
 42 32  1  0
 30  8  1  0
 28 13  1  0
 25 19  1  0
 26 21  1  0
  1 43  1  0
  1 44  1  0
  1 45  1  0
  3 46  1  0
  3 47  1  0
  3 48  1  0
  7 49  1  0
  9 50  1  0
 12 51  1  0
 14 52  1  0
 15 53  1  0
 20 54  1  0
 20 55  1  0
 21 56  1  0
 22 57  1  0
 22 58  1  0
 23 59  1  0
 23 60  1  0
 24 61  1  0
 25 62  1  0
 25 63  1  0
 26 64  1  0
 27 65  1  0
 33 66  1  0
 34 67  1  0
 37 68  1  0
 37 69  1  0
 37 70  1  0
 38 71  1  0
 38 72  1  0
 38 73  1  0
 41 74  1  0
 42 75  1  0
M  END
$$$$
