
     RDKit          3D

 37 40  0  0  0  0  0  0  0  0999 V2000
   -4.6743    1.0253   -0.0617 C   0  0  0  0  0  0  0  0  0  0  0  0
   -3.3172    1.6915    0.0254 C   0  0  0  0  0  0  0  0  0  0  0  0
   -3.0053    2.4607   -1.2499 C   0  0  0  0  0  0  0  0  0  0  0  0
   -2.2659    0.6992    0.1706 N   0  0  0  0  0  0  0  0  0  0  0  0
   -0.9956    0.9037    0.0285 N   0  0  0  0  0  0  0  0  0  0  0  0
   -0.2533   -0.2175    0.2261 C   0  0  0  0  0  0  0  0  0  0  0  0
    1.1958   -0.3033    0.1362 C   0  0  0  0  0  0  0  0  0  0  0  0
    2.0441    0.7726   -0.1710 C   0  0  0  0  0  0  0  0  0  0  0  0
    3.3048    0.2426   -0.1463 C   0  0  0  0  0  0  0  0  0  0  0  0
    4.5596    0.9527   -0.4015 C   0  0  0  0  0  0  0  0  0  0  0  0
    5.6874    0.6361    0.6332 C   0  0  0  0  0  0  0  0  0  0  0  0
    5.7949    0.2482   -0.8078 C   0  0  0  0  0  0  0  0  0  0  0  0
    3.2434   -1.0470    0.1499 O   0  0  0  0  0  0  0  0  0  0  0  0
    1.9900   -1.3452    0.3119 N   0  0  0  0  0  0  0  0  0  0  0  0
   -1.1484   -1.2133    0.5188 C   0  0  0  0  0  0  0  0  0  0  0  0
   -1.0425   -2.5518    0.8135 C   0  0  0  0  0  0  0  0  0  0  0  0
    0.2025   -3.2030    0.8669 N   0  0  0  0  0  0  0  0  0  0  0  0
   -2.1886   -3.2439    1.0565 N   0  0  0  0  0  0  0  0  0  0  0  0
   -3.3801   -2.6315    1.0078 C   0  0  0  0  0  0  0  0  0  0  0  0
   -3.5089   -1.3258    0.7223 N   0  0  0  0  0  0  0  0  0  0  0  0
   -2.4164   -0.6061    0.4771 C   0  0  0  0  0  0  0  0  0  0  0  0
   -4.9075    0.6102    0.9272 H   0  0  0  0  0  0  0  0  0  0  0  0
   -5.4105    1.8650   -0.2189 H   0  0  0  0  0  0  0  0  0  0  0  0
   -4.7706    0.3310   -0.8969 H   0  0  0  0  0  0  0  0  0  0  0  0
   -3.3499    2.4106    0.8545 H   0  0  0  0  0  0  0  0  0  0  0  0
   -3.2802    1.8400   -2.1228 H   0  0  0  0  0  0  0  0  0  0  0  0
   -3.5332    3.4265   -1.2070 H   0  0  0  0  0  0  0  0  0  0  0  0
   -1.8954    2.6509   -1.2129 H   0  0  0  0  0  0  0  0  0  0  0  0
    1.6880    1.7495   -0.3650 H   0  0  0  0  0  0  0  0  0  0  0  0
    4.4788    2.0226   -0.6375 H   0  0  0  0  0  0  0  0  0  0  0  0
    6.2471    1.4945    1.0273 H   0  0  0  0  0  0  0  0  0  0  0  0
    5.4789   -0.1751    1.3498 H   0  0  0  0  0  0  0  0  0  0  0  0
    5.8097   -0.8229   -1.0409 H   0  0  0  0  0  0  0  0  0  0  0  0
    6.5289    0.8381   -1.4014 H   0  0  0  0  0  0  0  0  0  0  0  0
    0.5650   -3.6281   -0.0078 H   0  0  0  0  0  0  0  0  0  0  0  0
    0.7777   -3.2982    1.7381 H   0  0  0  0  0  0  0  0  0  0  0  0
   -4.2530   -3.2588    1.2155 H   0  0  0  0  0  0  0  0  0  0  0  0
  1  2  1  0
  2  3  1  0
  2  4  1  0
  4  5  1  0
  5  6  2  0
  6  7  1  0
  7  8  1  0
  8  9  2  0
  9 10  1  0
 10 11  1  0
 11 12  1  0
  9 13  1  0
 13 14  1  0
  6 15  1  0
 15 16  2  0
 16 17  1  0
 16 18  1  0
 18 19  2  0
 19 20  1  0
 20 21  2  0
 21  4  1  0
 14  7  2  0
 21 15  1  0
 12 10  1  0
  1 22  1  0
  1 23  1  0
  1 24  1  0
  2 25  1  0
  3 26  1  0
  3 27  1  0
  3 28  1  0
  8 29  1  0
 10 30  1  0
 11 31  1  0
 11 32  1  0
 12 33  1  0
 12 34  1  0
 17 35  1  0
 17 36  1  0
 19 37  1  0
M  END
$$$$
