
     RDKit          3D

 52 55  0  0  0  0  0  0  0  0999 V2000
   -1.6294    3.1971    0.2253 C   0  0  0  0  0  0  0  0  0  0  0  0
   -1.3906    1.7975   -0.0614 N   0  0  0  0  0  0  0  0  0  0  0  0
   -2.4399    0.8664   -0.0080 C   0  0  0  0  0  0  0  0  0  0  0  0
   -2.2469   -0.3522   -0.2591 O   0  0  0  0  0  0  0  0  0  0  0  0
   -3.8422    1.2778    0.3507 C   0  0  0  0  0  0  0  0  0  0  0  0
   -4.7498    0.1127    0.3294 C   0  0  0  0  0  0  0  0  0  0  0  0
   -4.9486   -0.6617    1.4456 C   0  0  0  0  0  0  0  0  0  0  0  0
   -5.7974   -1.7649    1.4682 C   0  0  0  0  0  0  0  0  0  0  0  0
   -6.4723   -2.0994    0.3176 C   0  0  0  0  0  0  0  0  0  0  0  0
   -7.3157   -3.1603    0.2667 F   0  0  0  0  0  0  0  0  0  0  0  0
   -6.2806   -1.3313   -0.8051 C   0  0  0  0  0  0  0  0  0  0  0  0
   -5.4377   -0.2324   -0.8350 C   0  0  0  0  0  0  0  0  0  0  0  0
   -0.0475    1.4001   -0.3974 C   0  0  2  0  0  0  0  0  0  0  0  0
    0.0990    0.7479   -1.7377 C   0  0  0  0  0  0  0  0  0  0  0  0
    1.5756    0.7414   -2.0744 C   0  0  0  0  0  0  0  0  0  0  0  0
    2.2749    0.0128   -0.9936 C   0  0  0  0  0  0  0  0  0  0  0  0
    3.4800   -0.6571   -1.0141 C   0  0  0  0  0  0  0  0  0  0  0  0
    4.3919   -0.8056   -2.1863 C   0  0  0  0  0  0  0  0  0  0  0  0
    5.1065    0.4713   -2.3895 C   0  0  0  0  0  0  0  0  0  0  0  0
    4.9112    1.4558   -1.6466 O   0  0  0  0  0  0  0  0  0  0  0  0
    6.0209    0.6018   -3.4244 O   0  0  0  0  0  0  0  0  0  0  0  0
    3.7203   -1.1776    0.2317 C   0  0  0  0  0  0  0  0  0  0  0  0
    4.7739   -1.9273    0.7458 C   0  0  0  0  0  0  0  0  0  0  0  0
    4.7173   -2.3026    2.0625 C   0  0  0  0  0  0  0  0  0  0  0  0
    3.6508   -1.9568    2.8781 C   0  0  0  0  0  0  0  0  0  0  0  0
    2.6222   -1.2143    2.3423 C   0  0  0  0  0  0  0  0  0  0  0  0
    2.6414   -0.8118    1.0060 C   0  0  0  0  0  0  0  0  0  0  0  0
    1.7804   -0.0914    0.2396 N   0  0  0  0  0  0  0  0  0  0  0  0
    0.5186    0.4858    0.6691 C   0  0  0  0  0  0  0  0  0  0  0  0
   -2.1000    3.3558    1.2124 H   0  0  0  0  0  0  0  0  0  0  0  0
   -2.3006    3.6559   -0.5337 H   0  0  0  0  0  0  0  0  0  0  0  0
   -0.6925    3.7893    0.2055 H   0  0  0  0  0  0  0  0  0  0  0  0
   -4.2090    2.0498   -0.3850 H   0  0  0  0  0  0  0  0  0  0  0  0
   -3.8421    1.7991    1.3279 H   0  0  0  0  0  0  0  0  0  0  0  0
   -4.4214   -0.4163    2.3772 H   0  0  0  0  0  0  0  0  0  0  0  0
   -5.9091   -2.3315    2.3786 H   0  0  0  0  0  0  0  0  0  0  0  0
   -6.7974   -1.5749   -1.7147 H   0  0  0  0  0  0  0  0  0  0  0  0
   -5.2787    0.3742   -1.7003 H   0  0  0  0  0  0  0  0  0  0  0  0
    0.6522    2.2890   -0.3975 H   0  0  0  0  0  0  0  0  0  0  0  0
   -0.2358   -0.3043   -1.7674 H   0  0  0  0  0  0  0  0  0  0  0  0
   -0.4630    1.3196   -2.5063 H   0  0  0  0  0  0  0  0  0  0  0  0
    1.7421    0.2889   -3.0735 H   0  0  0  0  0  0  0  0  0  0  0  0
    1.9024    1.8139   -2.0901 H   0  0  0  0  0  0  0  0  0  0  0  0
    3.7972   -1.0830   -3.0776 H   0  0  0  0  0  0  0  0  0  0  0  0
    5.1382   -1.6131   -1.9838 H   0  0  0  0  0  0  0  0  0  0  0  0
    6.3378    1.5028   -3.7448 H   0  0  0  0  0  0  0  0  0  0  0  0
    5.5893   -2.1768    0.0745 H   0  0  0  0  0  0  0  0  0  0  0  0
    5.5388   -2.8841    2.4535 H   0  0  0  0  0  0  0  0  0  0  0  0
    3.6168   -2.2610    3.9237 H   0  0  0  0  0  0  0  0  0  0  0  0
    1.7890   -0.9422    2.9728 H   0  0  0  0  0  0  0  0  0  0  0  0
    0.6812    1.0354    1.6067 H   0  0  0  0  0  0  0  0  0  0  0  0
   -0.2215   -0.3080    0.8729 H   0  0  0  0  0  0  0  0  0  0  0  0
  1  2  1  0
  2  3  1  0
  3  4  2  0
  3  5  1  0
  5  6  1  0
  6  7  2  0
  7  8  1  0
  8  9  2  0
  9 10  1  0
  9 11  1  0
 11 12  2  0
  2 13  1  0
 13 14  1  0
 14 15  1  0
 15 16  1  0
 16 17  2  0
 17 18  1  0
 18 19  1  0
 19 20  2  0
 19 21  1  0
 17 22  1  0
 22 23  2  0
 23 24  1  0
 24 25  2  0
 25 26  1  0
 26 27  2  0
 27 28  1  0
 28 29  1  0
 12  6  1  0
 29 13  1  0
 28 16  1  0
 27 22  1  0
  1 30  1  0
  1 31  1  0
  1 32  1  0
  5 33  1  0
  5 34  1  0
  7 35  1  0
  8 36  1  0
 11 37  1  0
 12 38  1  0
 13 39  1  6
 14 40  1  0
 14 41  1  0
 15 42  1  0
 15 43  1  0
 18 44  1  0
 18 45  1  0
 21 46  1  0
 23 47  1  0
 24 48  1  0
 25 49  1  0
 26 50  1  0
 29 51  1  0
 29 52  1  0
M  END
$$$$
