
     RDKit          3D

 41 43  0  0  0  0  0  0  0  0999 V2000
   -2.0259   -0.5024   -0.1521 C   0  0  2  0  0  0  0  0  0  0  0  0
   -2.7342   -1.5723    0.4429 O   0  0  0  0  0  0  0  0  0  0  0  0
   -3.6067   -2.4119   -0.2014 C   0  0  0  0  0  0  0  0  0  0  0  0
   -4.2808   -3.5034    0.5760 C   0  0  0  0  0  0  0  0  0  0  0  0
   -3.8970   -2.3354   -1.4409 O   0  0  0  0  0  0  0  0  0  0  0  0
   -0.5759   -0.7310    0.0137 C   0  0  0  0  0  0  0  0  0  0  0  0
   -0.7113   -1.8124    0.6295 O   0  0  0  0  0  0  0  0  0  0  0  0
    0.6302   -0.0892   -0.3245 N   0  0  0  0  0  0  0  0  0  0  0  0
    1.9037   -0.5767   -0.0147 C   0  0  0  0  0  0  0  0  0  0  0  0
    2.1019   -1.7477    0.6611 C   0  0  0  0  0  0  0  0  0  0  0  0
    3.3553   -2.2131    0.9577 C   0  0  0  0  0  0  0  0  0  0  0  0
    4.4745   -1.4990    0.5751 C   0  0  0  0  0  0  0  0  0  0  0  0
    4.2481   -0.3187   -0.1066 C   0  0  0  0  0  0  0  0  0  0  0  0
    2.9822    0.1606   -0.4114 C   0  0  0  0  0  0  0  0  0  0  0  0
    2.9466    1.4048   -1.1253 C   0  0  0  0  0  0  0  0  0  0  0  0
    1.8523    1.9110   -1.4415 O   0  0  0  0  0  0  0  0  0  0  0  0
    4.1053    2.1842   -1.5443 C   0  0  0  0  0  0  0  0  0  0  0  0
    4.0324    3.2616   -2.1635 O   0  0  0  0  0  0  0  0  0  0  0  0
    5.3668    1.6278   -1.1954 N   0  0  0  0  0  0  0  0  0  0  0  0
    5.4450    0.3991   -0.4894 C   0  0  0  0  0  0  0  0  0  0  0  0
    6.6170   -0.0317   -0.2146 O   0  0  0  0  0  0  0  0  0  0  0  0
   -2.4964    0.7843    0.4119 C   0  0  0  0  0  0  0  0  0  0  0  0
   -2.7690    1.8844   -0.4073 C   0  0  0  0  0  0  0  0  0  0  0  0
   -3.2091    3.1146    0.0354 C   0  0  0  0  0  0  0  0  0  0  0  0
   -3.3977    3.2799    1.3947 C   0  0  0  0  0  0  0  0  0  0  0  0
   -3.1411    2.2206    2.2417 C   0  0  0  0  0  0  0  0  0  0  0  0
   -3.3643    2.3787    3.9710 Cl  0  0  0  0  0  0  0  0  0  0  0  0
   -2.6995    0.9954    1.7686 C   0  0  0  0  0  0  0  0  0  0  0  0
   -2.3310   -0.5034   -1.2204 H   0  0  0  0  0  0  0  0  0  0  0  0
   -3.7151   -4.4585    0.4776 H   0  0  0  0  0  0  0  0  0  0  0  0
   -5.3232   -3.5780    0.1911 H   0  0  0  0  0  0  0  0  0  0  0  0
   -4.3183   -3.1911    1.6346 H   0  0  0  0  0  0  0  0  0  0  0  0
    0.1919    0.7133   -0.7944 H   0  0  0  0  0  0  0  0  0  0  0  0
    1.3431   -2.4134    1.0245 H   0  0  0  0  0  0  0  0  0  0  0  0
    3.5350   -3.1413    1.4938 H   0  0  0  0  0  0  0  0  0  0  0  0
    5.4777   -1.8612    0.8066 H   0  0  0  0  0  0  0  0  0  0  0  0
    6.2377    2.1199   -1.4567 H   0  0  0  0  0  0  0  0  0  0  0  0
   -2.6191    1.7520   -1.4834 H   0  0  0  0  0  0  0  0  0  0  0  0
   -3.3902    3.9011   -0.6886 H   0  0  0  0  0  0  0  0  0  0  0  0
   -3.7416    4.2283    1.7811 H   0  0  0  0  0  0  0  0  0  0  0  0
   -2.4993    0.1702    2.4250 H   0  0  0  0  0  0  0  0  0  0  0  0
  1  2  1  0
  2  3  1  0
  3  4  1  0
  3  5  2  0
  1  6  1  0
  6  7  2  0
  6  8  1  0
  8  9  1  0
  9 10  2  0
 10 11  1  0
 11 12  2  0
 12 13  1  0
 13 14  2  0
 14 15  1  0
 15 16  2  0
 15 17  1  0
 17 18  2  0
 17 19  1  0
 19 20  1  0
 20 21  2  0
  1 22  1  0
 22 23  2  0
 23 24  1  0
 24 25  2  0
 25 26  1  0
 26 27  1  0
 26 28  2  0
 14  9  1  0
 28 22  1  0
 20 13  1  0
  1 29  1  6
  4 30  1  0
  4 31  1  0
  4 32  1  0
  8 33  1  0
 10 34  1  0
 11 35  1  0
 12 36  1  0
 19 37  1  0
 23 38  1  0
 24 39  1  0
 25 40  1  0
 28 41  1  0
M  END
$$$$
