
     RDKit          3D

 52 55  0  0  0  0  0  0  0  0999 V2000
   -4.3292    1.3042   -2.0866 C   0  0  0  0  0  0  0  0  0  0  0  0
   -3.7504    0.5323   -0.9127 C   0  0  1  0  0  0  0  0  0  0  0  0
   -3.4818    1.2986    0.2076 O   0  0  0  0  0  0  0  0  0  0  0  0
   -2.2677    1.4679    0.8505 C   0  0  0  0  0  0  0  0  0  0  0  0
   -1.0950    0.8770    0.4717 C   0  0  0  0  0  0  0  0  0  0  0  0
    0.0916    1.0851    1.1562 C   0  0  0  0  0  0  0  0  0  0  0  0
    1.3216    0.4355    0.7195 C   0  0  0  0  0  0  0  0  0  0  0  0
    1.5175   -0.7818    0.1123 C   0  0  0  0  0  0  0  0  0  0  0  0
    2.8560   -0.9224   -0.0904 N   0  0  0  0  0  0  0  0  0  0  0  0
    3.5066    0.1266    0.3503 N   0  0  0  0  0  0  0  0  0  0  0  0
    4.9653    0.2837    0.2791 C   0  0  0  0  0  0  0  0  0  0  0  0
    5.4470    0.3717   -1.1298 C   0  0  0  0  0  0  0  0  0  0  0  0
    6.1467   -0.8331   -1.6464 C   0  0  0  0  0  0  0  0  0  0  0  0
    7.0360   -1.4448   -0.6747 N   0  0  0  0  0  0  0  0  0  0  0  0
    6.1589   -1.9307    0.4024 C   0  0  0  0  0  0  0  0  0  0  0  0
    5.6531   -0.7304    1.1273 C   0  0  0  0  0  0  0  0  0  0  0  0
    2.5936    0.9769    0.8526 C   0  0  0  0  0  0  0  0  0  0  0  0
    0.0423    1.9235    2.2500 C   0  0  0  0  0  0  0  0  0  0  0  0
   -1.1049    2.5112    2.6334 N   0  0  0  0  0  0  0  0  0  0  0  0
   -2.2606    2.3042    1.9609 C   0  0  0  0  0  0  0  0  0  0  0  0
   -3.4693    2.9513    2.3974 N   0  0  0  0  0  0  0  0  0  0  0  0
   -4.7413   -0.5125   -0.5593 C   0  0  0  0  0  0  0  0  0  0  0  0
   -4.6235   -1.7886   -1.0629 C   0  0  0  0  0  0  0  0  0  0  0  0
   -3.3079   -2.2503   -2.1332 Cl  0  0  0  0  0  0  0  0  0  0  0  0
   -5.5392   -2.7754   -0.7501 C   0  0  0  0  0  0  0  0  0  0  0  0
   -6.5856   -2.4686    0.0812 C   0  0  0  0  0  0  0  0  0  0  0  0
   -6.7527   -1.2144    0.6119 C   0  0  0  0  0  0  0  0  0  0  0  0
   -7.7996   -0.9259    1.4372 F   0  0  0  0  0  0  0  0  0  0  0  0
   -5.8057   -0.2432    0.2720 C   0  0  0  0  0  0  0  0  0  0  0  0
   -6.0699    1.3428    0.9691 Cl  0  0  0  0  0  0  0  0  0  0  0  0
   -3.5582    1.4956   -2.8634 H   0  0  0  0  0  0  0  0  0  0  0  0
   -4.7328    2.2798   -1.7882 H   0  0  0  0  0  0  0  0  0  0  0  0
   -5.1292    0.7215   -2.5892 H   0  0  0  0  0  0  0  0  0  0  0  0
   -2.8493    0.0121   -1.3214 H   0  0  0  0  0  0  0  0  0  0  0  0
   -1.0830    0.2240   -0.3893 H   0  0  0  0  0  0  0  0  0  0  0  0
    0.7229   -1.4681   -0.1388 H   0  0  0  0  0  0  0  0  0  0  0  0
    5.1779    1.2913    0.7477 H   0  0  0  0  0  0  0  0  0  0  0  0
    4.5569    0.5584   -1.7899 H   0  0  0  0  0  0  0  0  0  0  0  0
    6.1112    1.2613   -1.3117 H   0  0  0  0  0  0  0  0  0  0  0  0
    5.4202   -1.6178   -1.9582 H   0  0  0  0  0  0  0  0  0  0  0  0
    6.8004   -0.5263   -2.5069 H   0  0  0  0  0  0  0  0  0  0  0  0
    7.5431   -2.2119   -1.1327 H   0  0  0  0  0  0  0  0  0  0  0  0
    5.3124   -2.5076   -0.0123 H   0  0  0  0  0  0  0  0  0  0  0  0
    6.7582   -2.5328    1.1129 H   0  0  0  0  0  0  0  0  0  0  0  0
    6.4826   -0.2791    1.7326 H   0  0  0  0  0  0  0  0  0  0  0  0
    4.8996   -1.0919    1.8841 H   0  0  0  0  0  0  0  0  0  0  0  0
    2.8617    1.9273    1.2842 H   0  0  0  0  0  0  0  0  0  0  0  0
    0.9590    2.1018    2.8023 H   0  0  0  0  0  0  0  0  0  0  0  0
   -4.0331    2.5592    3.1882 H   0  0  0  0  0  0  0  0  0  0  0  0
   -3.7779    3.8219    1.9113 H   0  0  0  0  0  0  0  0  0  0  0  0
   -5.4689   -3.7693   -1.1274 H   0  0  0  0  0  0  0  0  0  0  0  0
   -7.3255   -3.2198    0.3493 H   0  0  0  0  0  0  0  0  0  0  0  0
  1  2  1  0
  2  3  1  0
  3  4  1  0
  4  5  2  0
  5  6  1  0
  6  7  1  0
  7  8  1  0
  8  9  2  0
  9 10  1  0
 10 11  1  0
 11 12  1  0
 12 13  1  0
 13 14  1  0
 14 15  1  0
 15 16  1  0
 10 17  1  0
  6 18  2  0
 18 19  1  0
 19 20  2  0
 20 21  1  0
  2 22  1  0
 22 23  2  0
 23 24  1  0
 23 25  1  0
 25 26  2  0
 26 27  1  0
 27 28  1  0
 27 29  2  0
 29 30  1  0
 20  4  1  0
 29 22  1  0
 17  7  2  0
 16 11  1  0
  1 31  1  0
  1 32  1  0
  1 33  1  0
  2 34  1  6
  5 35  1  0
  8 36  1  0
 11 37  1  0
 12 38  1  0
 12 39  1  0
 13 40  1  0
 13 41  1  0
 14 42  1  0
 15 43  1  0
 15 44  1  0
 16 45  1  0
 16 46  1  0
 17 47  1  0
 18 48  1  0
 21 49  1  0
 21 50  1  0
 25 51  1  0
 26 52  1  0
M  END
$$$$
