
     RDKit          3D

 66 70  0  0  0  0  0  0  0  0999 V2000
    2.3851    0.5774   -2.2305 N   0  0  0  0  0  0  0  0  0  0  0  0
    1.5900    0.4581   -1.0410 C   0  0  0  0  0  0  0  0  0  0  0  0
    0.1595    0.7192   -1.2716 C   0  0  0  0  0  0  0  0  0  0  0  0
   -0.1837    1.0060   -2.4621 O   0  0  0  0  0  0  0  0  0  0  0  0
   -0.8388    0.6777   -0.3020 N   0  0  0  0  0  0  0  0  0  0  0  0
   -2.2111    0.9503   -0.6493 C   0  0  1  0  0  0  0  0  0  0  0  0
   -3.0188   -0.3115   -0.3286 C   0  0  0  0  0  0  0  0  0  0  0  0
   -4.4540   -0.0190   -0.6958 C   0  0  0  0  0  0  0  0  0  0  0  0
   -5.3476   -1.0917   -0.4680 N   0  0  0  0  0  0  0  0  0  0  0  0
   -5.6057   -1.4719    0.8653 C   0  0  0  0  0  0  0  0  0  0  0  0
   -4.9368   -2.8113    1.0398 C   0  0  0  0  0  0  0  0  0  0  0  0
   -5.1375   -3.4480   -0.3245 C   0  0  0  0  0  0  0  0  0  0  0  0
   -5.1340   -2.2399   -1.2446 C   0  0  0  0  0  0  0  0  0  0  0  0
   -2.7635    2.1167    0.0647 C   0  0  0  0  0  0  0  0  0  0  0  0
   -3.5023    3.0743   -0.5926 C   0  0  0  0  0  0  0  0  0  0  0  0
   -4.0377    4.1772    0.0332 C   0  0  0  0  0  0  0  0  0  0  0  0
   -3.8230    4.3266    1.3759 C   0  0  0  0  0  0  0  0  0  0  0  0
   -4.5065    5.7351    2.1775 Cl  0  0  0  0  0  0  0  0  0  0  0  0
   -3.0851    3.3843    2.0706 C   0  0  0  0  0  0  0  0  0  0  0  0
   -2.5516    2.2738    1.4160 C   0  0  0  0  0  0  0  0  0  0  0  0
    1.7357   -0.9383   -0.4881 C   0  0  0  0  0  0  0  0  0  0  0  0
    3.0658   -1.1824    0.1640 C   0  0  0  0  0  0  0  0  0  0  0  0
    4.0104   -0.1368   -0.0032 N   0  0  0  0  0  0  0  0  0  0  0  0
    5.3855   -0.2596   -0.2705 C   0  0  0  0  0  0  0  0  0  0  0  0
    5.9636    0.2585   -1.3954 N   0  0  0  0  0  0  0  0  0  0  0  0
    7.2778    0.1263   -1.6297 C   0  0  0  0  0  0  0  0  0  0  0  0
    8.1227   -0.5082   -0.8059 N   0  0  0  0  0  0  0  0  0  0  0  0
    7.6008   -1.0465    0.3351 C   0  0  0  0  0  0  0  0  0  0  0  0
    8.1067   -1.7282    1.3639 N   0  0  0  0  0  0  0  0  0  0  0  0
    7.1582   -2.0385    2.2530 C   0  0  0  0  0  0  0  0  0  0  0  0
    5.9705   -1.5428    1.7973 C   0  0  0  0  0  0  0  0  0  0  0  0
    6.2370   -0.9192    0.5958 C   0  0  0  0  0  0  0  0  0  0  0  0
    3.5480    1.2316    0.1018 C   0  0  0  0  0  0  0  0  0  0  0  0
    2.0569    1.3645    0.0804 C   0  0  0  0  0  0  0  0  0  0  0  0
    2.1530    1.3813   -2.8319 H   0  0  0  0  0  0  0  0  0  0  0  0
    2.2231   -0.3029   -2.7909 H   0  0  0  0  0  0  0  0  0  0  0  0
   -0.6094    0.4505    0.6822 H   0  0  0  0  0  0  0  0  0  0  0  0
   -2.2675    1.1716   -1.7395 H   0  0  0  0  0  0  0  0  0  0  0  0
   -2.8908   -0.5684    0.7442 H   0  0  0  0  0  0  0  0  0  0  0  0
   -2.6410   -1.1402   -0.9354 H   0  0  0  0  0  0  0  0  0  0  0  0
   -4.7944    0.9502   -0.2584 H   0  0  0  0  0  0  0  0  0  0  0  0
   -4.4386    0.1757   -1.8106 H   0  0  0  0  0  0  0  0  0  0  0  0
   -5.2545   -0.7346    1.6268 H   0  0  0  0  0  0  0  0  0  0  0  0
   -6.7039   -1.6085    1.0575 H   0  0  0  0  0  0  0  0  0  0  0  0
   -5.4211   -3.4167    1.8403 H   0  0  0  0  0  0  0  0  0  0  0  0
   -3.8573   -2.6863    1.2053 H   0  0  0  0  0  0  0  0  0  0  0  0
   -6.1603   -3.9198   -0.3858 H   0  0  0  0  0  0  0  0  0  0  0  0
   -4.3343   -4.1489   -0.5805 H   0  0  0  0  0  0  0  0  0  0  0  0
   -5.9689   -2.3521   -2.0006 H   0  0  0  0  0  0  0  0  0  0  0  0
   -4.1673   -2.1630   -1.7908 H   0  0  0  0  0  0  0  0  0  0  0  0
   -3.6712    2.9521   -1.6622 H   0  0  0  0  0  0  0  0  0  0  0  0
   -4.6245    4.9254   -0.5216 H   0  0  0  0  0  0  0  0  0  0  0  0
   -2.9473    3.5540    3.1321 H   0  0  0  0  0  0  0  0  0  0  0  0
   -1.9804    1.5675    2.0161 H   0  0  0  0  0  0  0  0  0  0  0  0
    0.8669   -1.0979    0.1846 H   0  0  0  0  0  0  0  0  0  0  0  0
    1.5756   -1.6270   -1.3443 H   0  0  0  0  0  0  0  0  0  0  0  0
    3.4567   -2.1113   -0.2453 H   0  0  0  0  0  0  0  0  0  0  0  0
    2.8220   -1.2426    1.2597 H   0  0  0  0  0  0  0  0  0  0  0  0
    7.6769    0.5530   -2.5289 H   0  0  0  0  0  0  0  0  0  0  0  0
    9.1191   -1.9828    1.4545 H   0  0  0  0  0  0  0  0  0  0  0  0
    7.2443   -2.5853    3.1925 H   0  0  0  0  0  0  0  0  0  0  0  0
    4.9791   -1.5867    2.2298 H   0  0  0  0  0  0  0  0  0  0  0  0
    4.0015    1.7988   -0.7295 H   0  0  0  0  0  0  0  0  0  0  0  0
    3.9059    1.6433    1.0803 H   0  0  0  0  0  0  0  0  0  0  0  0
    1.8145    2.4101   -0.1205 H   0  0  0  0  0  0  0  0  0  0  0  0
    1.6578    0.9775    1.0397 H   0  0  0  0  0  0  0  0  0  0  0  0
  1  2  1  0
  2  3  1  0
  3  4  2  0
  3  5  1  0
  5  6  1  0
  6  7  1  0
  7  8  1  0
  8  9  1  0
  9 10  1  0
 10 11  1  0
 11 12  1  0
 12 13  1  0
  6 14  1  0
 14 15  2  0
 15 16  1  0
 16 17  2  0
 17 18  1  0
 17 19  1  0
 19 20  2  0
  2 21  1  0
 21 22  1  0
 22 23  1  0
 23 24  1  0
 24 25  2  0
 25 26  1  0
 26 27  2  0
 27 28  1  0
 28 29  1  0
 29 30  1  0
 30 31  2  0
 31 32  1  0
 23 33  1  0
 33 34  1  0
 34  2  1  0
 13  9  1  0
 20 14  1  0
 32 24  1  0
 32 28  2  0
  1 35  1  0
  1 36  1  0
  5 37  1  0
  6 38  1  6
  7 39  1  0
  7 40  1  0
  8 41  1  0
  8 42  1  0
 10 43  1  0
 10 44  1  0
 11 45  1  0
 11 46  1  0
 12 47  1  0
 12 48  1  0
 13 49  1  0
 13 50  1  0
 15 51  1  0
 16 52  1  0
 19 53  1  0
 20 54  1  0
 21 55  1  0
 21 56  1  0
 22 57  1  0
 22 58  1  0
 26 59  1  0
 29 60  1  0
 30 61  1  0
 31 62  1  0
 33 63  1  0
 33 64  1  0
 34 65  1  0
 34 66  1  0
M  END
$$$$
