
     RDKit          3D

 53 56  0  0  0  0  0  0  0  0999 V2000
   -5.6296   -2.2454   -0.1306 C   0  0  0  0  0  0  0  0  0  0  0  0
   -5.0026   -1.2683   -0.7830 O   0  0  0  0  0  0  0  0  0  0  0  0
   -4.2583   -0.3172   -0.2141 C   0  0  0  0  0  0  0  0  0  0  0  0
   -3.0962   -0.7092    0.5961 C   0  0  0  0  0  0  0  0  0  0  0  0
   -3.2829   -1.4419    1.7694 C   0  0  0  0  0  0  0  0  0  0  0  0
   -2.2184   -1.8335    2.5285 C   0  0  0  0  0  0  0  0  0  0  0  0
   -2.3970   -2.5544    3.6822 F   0  0  0  0  0  0  0  0  0  0  0  0
   -0.9327   -1.5314    2.1832 C   0  0  0  0  0  0  0  0  0  0  0  0
   -0.7058   -0.8146    1.0419 C   0  0  0  0  0  0  0  0  0  0  0  0
    0.5706   -0.4924    0.6636 O   0  0  0  0  0  0  0  0  0  0  0  0
    1.6600   -0.8955    1.4450 C   0  0  0  0  0  0  0  0  0  0  0  0
    2.9482   -0.4444    0.8581 C   0  0  0  0  0  0  0  0  0  0  0  0
    3.6483   -1.2430   -0.0537 C   0  0  0  0  0  0  0  0  0  0  0  0
    4.8395   -0.8164   -0.5910 C   0  0  0  0  0  0  0  0  0  0  0  0
    5.3735    0.4030   -0.2480 C   0  0  0  0  0  0  0  0  0  0  0  0
    4.6987    1.2237    0.6597 C   0  0  0  0  0  0  0  0  0  0  0  0
    5.2121    2.4492    1.0201 C   0  0  0  0  0  0  0  0  0  0  0  0
    6.4161    2.9008    0.4889 C   0  0  0  0  0  0  0  0  0  0  0  0
    7.0430    2.0634   -0.3969 C   0  0  0  0  0  0  0  0  0  0  0  0
    8.1481    2.4450   -0.9032 O   0  0  0  0  0  0  0  0  0  0  0  0
    6.5276    0.8603   -0.7433 N   0  0  0  0  0  0  0  0  0  0  0  0
    7.2607    0.0536   -1.6811 C   0  0  0  0  0  0  0  0  0  0  0  0
    3.4998    0.7657    1.1843 C   0  0  0  0  0  0  0  0  0  0  0  0
   -1.7780   -0.4199    0.2761 C   0  0  0  0  0  0  0  0  0  0  0  0
   -5.0164    0.8370    0.4465 C   0  0  0  0  0  0  0  0  0  0  0  0
   -6.0281    1.4061   -0.4884 C   0  0  0  0  0  0  0  0  0  0  0  0
   -5.3564    2.0136   -1.5578 O   0  0  0  0  0  0  0  0  0  0  0  0
   -4.7898    0.9717   -2.2905 C   0  0  0  0  0  0  0  0  0  0  0  0
   -3.6283    0.4353   -1.4372 C   0  0  0  0  0  0  0  0  0  0  0  0
   -6.2064   -2.8531   -0.9112 H   0  0  0  0  0  0  0  0  0  0  0  0
   -6.4010   -1.9493    0.6033 H   0  0  0  0  0  0  0  0  0  0  0  0
   -4.9945   -3.0191    0.3530 H   0  0  0  0  0  0  0  0  0  0  0  0
   -4.2810   -1.6924    2.0964 H   0  0  0  0  0  0  0  0  0  0  0  0
   -0.0986   -1.8517    2.8000 H   0  0  0  0  0  0  0  0  0  0  0  0
    1.5169   -0.4978    2.4754 H   0  0  0  0  0  0  0  0  0  0  0  0
    1.7227   -2.0024    1.5619 H   0  0  0  0  0  0  0  0  0  0  0  0
    3.1937   -2.1900   -0.2939 H   0  0  0  0  0  0  0  0  0  0  0  0
    5.3485   -1.4560   -1.2869 H   0  0  0  0  0  0  0  0  0  0  0  0
    4.6860    3.0721    1.7182 H   0  0  0  0  0  0  0  0  0  0  0  0
    6.8373    3.8496    0.7525 H   0  0  0  0  0  0  0  0  0  0  0  0
    7.8692   -0.7268   -1.1557 H   0  0  0  0  0  0  0  0  0  0  0  0
    6.6214   -0.3990   -2.4708 H   0  0  0  0  0  0  0  0  0  0  0  0
    7.9840    0.6965   -2.2207 H   0  0  0  0  0  0  0  0  0  0  0  0
    2.9825    1.4197    1.8943 H   0  0  0  0  0  0  0  0  0  0  0  0
   -1.5728    0.1578   -0.6402 H   0  0  0  0  0  0  0  0  0  0  0  0
   -5.4114    0.5564    1.4350 H   0  0  0  0  0  0  0  0  0  0  0  0
   -4.2444    1.6224    0.6311 H   0  0  0  0  0  0  0  0  0  0  0  0
   -6.7066    0.6567   -0.9358 H   0  0  0  0  0  0  0  0  0  0  0  0
   -6.6408    2.1642   -0.0001 H   0  0  0  0  0  0  0  0  0  0  0  0
   -5.4778    0.1479   -2.4824 H   0  0  0  0  0  0  0  0  0  0  0  0
   -4.3066    1.3836   -3.2026 H   0  0  0  0  0  0  0  0  0  0  0  0
   -2.9842   -0.2229   -2.0112 H   0  0  0  0  0  0  0  0  0  0  0  0
   -3.1616    1.3326   -0.9958 H   0  0  0  0  0  0  0  0  0  0  0  0
  1  2  1  0
  2  3  1  0
  3  4  1  0
  4  5  2  0
  5  6  1  0
  6  7  1  0
  6  8  2  0
  8  9  1  0
  9 10  1  0
 10 11  1  0
 11 12  1  0
 12 13  2  0
 13 14  1  0
 14 15  2  0
 15 16  1  0
 16 17  1  0
 17 18  2  0
 18 19  1  0
 19 20  2  0
 19 21  1  0
 21 22  1  0
 16 23  2  0
  9 24  2  0
  3 25  1  0
 25 26  1  0
 26 27  1  0
 27 28  1  0
 28 29  1  0
 29  3  1  0
 24  4  1  0
 23 12  1  0
 21 15  1  0
  1 30  1  0
  1 31  1  0
  1 32  1  0
  5 33  1  0
  8 34  1  0
 11 35  1  0
 11 36  1  0
 13 37  1  0
 14 38  1  0
 17 39  1  0
 18 40  1  0
 22 41  1  0
 22 42  1  0
 22 43  1  0
 23 44  1  0
 24 45  1  0
 25 46  1  0
 25 47  1  0
 26 48  1  0
 26 49  1  0
 28 50  1  0
 28 51  1  0
 29 52  1  0
 29 53  1  0
M  END
$$$$
