
     RDKit          3D

 72 76  0  0  0  0  0  0  0  0999 V2000
   -0.2565   -2.7674   -1.3966 O   0  0  0  0  0  0  0  0  0  0  0  0
    0.1606   -1.5903   -1.5630 C   0  0  0  0  0  0  0  0  0  0  0  0
    1.3153   -1.2325   -2.3427 C   0  0  0  0  0  0  0  0  0  0  0  0
    2.1115   -1.9728   -2.9889 O   0  0  0  0  0  0  0  0  0  0  0  0
    1.4469    0.1767   -2.2809 N   0  0  0  0  0  0  0  0  0  0  0  0
    2.4776    0.9726   -2.9263 C   0  0  0  0  0  0  0  0  0  0  0  0
    3.6830    1.1421   -2.0764 C   0  0  0  0  0  0  0  0  0  0  0  0
    4.7213    0.2406   -2.1235 C   0  0  0  0  0  0  0  0  0  0  0  0
    5.8695    0.3788   -1.3327 C   0  0  0  0  0  0  0  0  0  0  0  0
    6.0157    1.4312   -0.4621 C   0  0  0  0  0  0  0  0  0  0  0  0
    7.0931    1.6510    0.3545 O   0  0  0  0  0  0  0  0  0  0  0  0
    8.2210    0.8684    0.5073 C   0  0  0  0  0  0  0  0  0  0  0  0
    7.9765   -0.4940    1.1013 C   0  0  0  0  0  0  0  0  0  0  0  0
    9.1903   -1.1857    1.1971 O   0  0  0  0  0  0  0  0  0  0  0  0
    8.9435   -2.4433    1.7486 C   0  0  0  0  0  0  0  0  0  0  0  0
   10.2491   -3.2041    1.8592 C   0  0  0  0  0  0  0  0  0  0  0  0
   11.1328   -2.4975    2.6798 F   0  0  0  0  0  0  0  0  0  0  0  0
    4.9434    2.3477   -0.4252 C   0  0  0  0  0  0  0  0  0  0  0  0
    3.8280    2.1986   -1.2052 C   0  0  0  0  0  0  0  0  0  0  0  0
    0.3856    0.6904   -1.4719 C   0  0  0  0  0  0  0  0  0  0  0  0
    0.0194    1.9664   -1.0732 C   0  0  0  0  0  0  0  0  0  0  0  0
   -1.0704    2.2346   -0.2718 C   0  0  0  0  0  0  0  0  0  0  0  0
   -1.8412    1.1816    0.1595 C   0  0  0  0  0  0  0  0  0  0  0  0
   -3.2210    1.4977    1.1752 S   0  0  0  0  0  6  0  0  0  0  0  0
   -3.4103    0.4284    2.2112 O   0  0  0  0  0  0  0  0  0  0  0  0
   -2.8828    2.7532    1.9802 O   0  0  0  0  0  0  0  0  0  0  0  0
   -4.6415    1.7879    0.3511 N   0  0  0  0  0  0  0  0  0  0  0  0
   -4.7050    2.8983   -0.5166 C   0  0  0  0  0  0  0  0  0  0  0  0
   -6.0571    2.6932   -1.2129 C   0  0  0  0  0  0  0  0  0  0  0  0
   -6.0185    1.1930   -1.4134 C   0  0  0  0  0  0  0  0  0  0  0  0
   -5.5179    0.7619    0.0112 C   0  0  1  0  0  0  0  0  0  0  0  0
   -4.9643   -0.5946   -0.2032 C   0  0  0  0  0  0  0  0  0  0  0  0
   -5.9805   -1.4948   -0.4894 O   0  0  0  0  0  0  0  0  0  0  0  0
   -6.9433   -1.8551    0.4284 C   0  0  0  0  0  0  0  0  0  0  0  0
   -7.0051   -1.4286    1.7320 C   0  0  0  0  0  0  0  0  0  0  0  0
   -8.0255   -1.8409    2.5950 C   0  0  0  0  0  0  0  0  0  0  0  0
   -9.0092   -2.6880    2.1864 C   0  0  0  0  0  0  0  0  0  0  0  0
   -8.9770   -3.1340    0.8925 C   0  0  0  0  0  0  0  0  0  0  0  0
   -7.9769   -2.7288    0.0469 C   0  0  0  0  0  0  0  0  0  0  0  0
   -1.5175   -0.1029   -0.2102 C   0  0  0  0  0  0  0  0  0  0  0  0
   -0.4094   -0.3633   -1.0238 C   0  0  0  0  0  0  0  0  0  0  0  0
    2.7334    0.4870   -3.8989 H   0  0  0  0  0  0  0  0  0  0  0  0
    2.0463    1.9610   -3.1715 H   0  0  0  0  0  0  0  0  0  0  0  0
    4.6322   -0.6008   -2.8016 H   0  0  0  0  0  0  0  0  0  0  0  0
    6.6711   -0.3522   -1.4316 H   0  0  0  0  0  0  0  0  0  0  0  0
    8.7108    0.6539   -0.4981 H   0  0  0  0  0  0  0  0  0  0  0  0
    8.9580    1.3904    1.1667 H   0  0  0  0  0  0  0  0  0  0  0  0
    7.5804   -0.2819    2.1426 H   0  0  0  0  0  0  0  0  0  0  0  0
    7.2078   -1.0696    0.6101 H   0  0  0  0  0  0  0  0  0  0  0  0
    8.2621   -3.0483    1.1095 H   0  0  0  0  0  0  0  0  0  0  0  0
    8.5333   -2.3664    2.7827 H   0  0  0  0  0  0  0  0  0  0  0  0
   10.1010   -4.1921    2.3040 H   0  0  0  0  0  0  0  0  0  0  0  0
   10.7474   -3.2916    0.8684 H   0  0  0  0  0  0  0  0  0  0  0  0
    5.0379    3.1900    0.2566 H   0  0  0  0  0  0  0  0  0  0  0  0
    2.9943    2.9170   -1.1735 H   0  0  0  0  0  0  0  0  0  0  0  0
    0.6198    2.8264   -1.4072 H   0  0  0  0  0  0  0  0  0  0  0  0
   -1.3052    3.2712    0.0077 H   0  0  0  0  0  0  0  0  0  0  0  0
   -3.9531    2.8917   -1.3484 H   0  0  0  0  0  0  0  0  0  0  0  0
   -4.7125    3.8735    0.0259 H   0  0  0  0  0  0  0  0  0  0  0  0
   -6.8396    2.9906   -0.4849 H   0  0  0  0  0  0  0  0  0  0  0  0
   -6.1149    3.2362   -2.1653 H   0  0  0  0  0  0  0  0  0  0  0  0
   -5.2290    0.9755   -2.1540 H   0  0  0  0  0  0  0  0  0  0  0  0
   -6.9892    0.7483   -1.6186 H   0  0  0  0  0  0  0  0  0  0  0  0
   -6.4391    0.7398    0.6006 H   0  0  0  0  0  0  0  0  0  0  0  0
   -4.2365   -0.6468   -1.0492 H   0  0  0  0  0  0  0  0  0  0  0  0
   -4.4124   -1.0070    0.6692 H   0  0  0  0  0  0  0  0  0  0  0  0
   -6.2537   -0.7811    2.1677 H   0  0  0  0  0  0  0  0  0  0  0  0
   -8.0594   -1.4914    3.6260 H   0  0  0  0  0  0  0  0  0  0  0  0
   -9.8109   -3.0145    2.8568 H   0  0  0  0  0  0  0  0  0  0  0  0
   -9.7650   -3.8177    0.5539 H   0  0  0  0  0  0  0  0  0  0  0  0
   -7.9819   -3.1013   -0.9707 H   0  0  0  0  0  0  0  0  0  0  0  0
   -2.0864   -0.9658    0.0992 H   0  0  0  0  0  0  0  0  0  0  0  0
  1  2  2  0
  2  3  1  0
  3  4  2  0
  3  5  1  0
  5  6  1  0
  6  7  1  0
  7  8  2  0
  8  9  1  0
  9 10  2  0
 10 11  1  0
 11 12  1  0
 12 13  1  0
 13 14  1  0
 14 15  1  0
 15 16  1  0
 16 17  1  0
 10 18  1  0
 18 19  2  0
  5 20  1  0
 20 21  2  0
 21 22  1  0
 22 23  2  0
 23 24  1  0
 24 25  2  0
 24 26  2  0
 24 27  1  0
 27 28  1  0
 28 29  1  0
 29 30  1  0
 30 31  1  0
 31 32  1  0
 32 33  1  0
 33 34  1  0
 34 35  2  0
 35 36  1  0
 36 37  2  0
 37 38  1  0
 38 39  2  0
 23 40  1  0
 40 41  2  0
 41  2  1  0
 19  7  1  0
 41 20  1  0
 31 27  1  0
 39 34  1  0
  6 42  1  0
  6 43  1  0
  8 44  1  0
  9 45  1  0
 12 46  1  0
 12 47  1  0
 13 48  1  0
 13 49  1  0
 15 50  1  0
 15 51  1  0
 16 52  1  0
 16 53  1  0
 18 54  1  0
 19 55  1  0
 21 56  1  0
 22 57  1  0
 28 58  1  0
 28 59  1  0
 29 60  1  0
 29 61  1  0
 30 62  1  0
 30 63  1  0
 31 64  1  1
 32 65  1  0
 32 66  1  0
 35 67  1  0
 36 68  1  0
 37 69  1  0
 38 70  1  0
 39 71  1  0
 40 72  1  0
M  END
$$$$
