
     RDKit          3D

 47 49  0  0  0  0  0  0  0  0999 V2000
   -2.0727    1.3400   -3.0069 O   0  0  0  0  0  0  0  0  0  0  0  0
   -2.8168    0.2520   -2.2377 S   0  0  0  0  0  6  0  0  0  0  0  0
   -3.5732   -0.5506   -3.2840 O   0  0  0  0  0  0  0  0  0  0  0  0
   -1.6307   -0.7736   -1.5883 N   0  0  0  0  0  0  0  0  0  0  0  0
   -0.7727   -0.0201   -0.7046 C   0  0  0  0  0  0  0  0  0  0  0  0
    0.3155   -0.8786   -0.0895 C   0  0  0  0  0  0  0  0  0  0  0  0
    1.1325   -1.4689   -1.1249 N   0  0  0  0  0  0  0  0  0  0  0  0
    2.1914   -2.2320   -0.5148 C   0  0  0  0  0  0  0  0  0  0  0  0
    3.1552   -1.2749    0.1346 C   0  0  0  0  0  0  0  0  0  0  0  0
    4.4105   -1.2479   -0.2607 C   0  0  0  0  0  0  0  0  0  0  0  0
    5.4217   -0.3735    0.2856 C   0  0  0  0  0  0  0  0  0  0  0  0
    6.7136   -0.4572   -0.2344 C   0  0  0  0  0  0  0  0  0  0  0  0
    7.7148    0.3506    0.2351 C   0  0  0  0  0  0  0  0  0  0  0  0
    7.4716    1.2812    1.2474 C   0  0  0  0  0  0  0  0  0  0  0  0
    8.8862    2.3923    1.8760 Br  0  0  0  0  0  0  0  0  0  0  0  0
    6.1882    1.3390    1.7383 C   0  0  0  0  0  0  0  0  0  0  0  0
    5.1559    0.5415    1.2902 C   0  0  0  0  0  0  0  0  0  0  0  0
   -3.8864    0.9857   -1.1054 C   0  0  0  0  0  0  0  0  0  0  0  0
   -3.8515    2.3717   -0.9476 C   0  0  0  0  0  0  0  0  0  0  0  0
   -4.6643    3.0393   -0.0378 C   0  0  0  0  0  0  0  0  0  0  0  0
   -5.5420    2.3323    0.7458 C   0  0  0  0  0  0  0  0  0  0  0  0
   -5.5807    0.9626    0.5930 C   0  0  0  0  0  0  0  0  0  0  0  0
   -6.4753    0.2865    1.3870 C   0  0  0  0  0  0  0  0  0  0  0  0
   -6.5488   -1.0554    1.2627 N   0  0  0  0  0  0  0  0  0  0  0  0
   -5.7652   -1.7191    0.3808 C   0  0  0  0  0  0  0  0  0  0  0  0
   -4.8575   -1.0795   -0.4319 C   0  0  0  0  0  0  0  0  0  0  0  0
   -4.7683    0.2944   -0.3168 C   0  0  0  0  0  0  0  0  0  0  0  0
   -1.9146   -1.6767   -1.2270 H   0  0  0  0  0  0  0  0  0  0  0  0
   -0.3776    0.8855   -1.1742 H   0  0  0  0  0  0  0  0  0  0  0  0
   -1.3911    0.3276    0.1756 H   0  0  0  0  0  0  0  0  0  0  0  0
    0.8819   -0.2871    0.6236 H   0  0  0  0  0  0  0  0  0  0  0  0
   -0.2322   -1.6832    0.4812 H   0  0  0  0  0  0  0  0  0  0  0  0
    0.5385   -2.1148   -1.7169 H   0  0  0  0  0  0  0  0  0  0  0  0
    2.6875   -2.8264   -1.2907 H   0  0  0  0  0  0  0  0  0  0  0  0
    1.7460   -2.8207    0.2978 H   0  0  0  0  0  0  0  0  0  0  0  0
    2.8405   -0.6125    0.9184 H   0  0  0  0  0  0  0  0  0  0  0  0
    4.6771   -1.9346   -1.0466 H   0  0  0  0  0  0  0  0  0  0  0  0
    6.9078   -1.1783   -1.0213 H   0  0  0  0  0  0  0  0  0  0  0  0
    8.7001    0.2414   -0.2058 H   0  0  0  0  0  0  0  0  0  0  0  0
    6.0267    2.0773    2.5294 H   0  0  0  0  0  0  0  0  0  0  0  0
    4.1702    0.6400    1.7226 H   0  0  0  0  0  0  0  0  0  0  0  0
   -3.1761    2.9630   -1.5439 H   0  0  0  0  0  0  0  0  0  0  0  0
   -4.6344    4.1066    0.0804 H   0  0  0  0  0  0  0  0  0  0  0  0
   -6.1863    2.8357    1.4616 H   0  0  0  0  0  0  0  0  0  0  0  0
   -7.1153    0.8197    2.1045 H   0  0  0  0  0  0  0  0  0  0  0  0
   -5.8649   -2.7999    0.3203 H   0  0  0  0  0  0  0  0  0  0  0  0
   -4.2351   -1.6004   -1.1462 H   0  0  0  0  0  0  0  0  0  0  0  0
  1  2  2  0
  2  3  2  0
  2  4  1  0
  4  5  1  0
  5  6  1  0
  6  7  1  0
  7  8  1  0
  8  9  1  0
  9 10  2  0
 10 11  1  0
 11 12  2  0
 12 13  1  0
 13 14  2  0
 14 15  1  0
 14 16  1  0
 16 17  2  0
  2 18  1  0
 18 19  2  0
 19 20  1  0
 20 21  2  0
 21 22  1  0
 22 23  2  0
 23 24  1  0
 24 25  2  0
 25 26  1  0
 26 27  2  0
 17 11  1  0
 27 18  1  0
 27 22  1  0
  4 28  1  0
  5 29  1  0
  5 30  1  0
  6 31  1  0
  6 32  1  0
  7 33  1  0
  8 34  1  0
  8 35  1  0
  9 36  1  0
 10 37  1  0
 12 38  1  0
 13 39  1  0
 16 40  1  0
 17 41  1  0
 19 42  1  0
 20 43  1  0
 21 44  1  0
 23 45  1  0
 25 46  1  0
 26 47  1  0
M  END
$$$$
