
     RDKit          3D

 37 39  0  0  0  0  0  0  0  0999 V2000
   -3.3875    1.6860    0.8810 C   0  0  0  0  0  0  0  0  0  0  0  0
   -3.8116    0.4587    0.1473 C   0  0  0  0  0  0  0  0  0  0  0  0
   -4.8636   -0.3272    0.8955 C   0  0  0  0  0  0  0  0  0  0  0  0
   -4.3396    0.8119   -1.0953 O   0  0  0  0  0  0  0  0  0  0  0  0
   -2.6702   -0.4626   -0.1294 C   0  0  0  0  0  0  0  0  0  0  0  0
   -2.8640   -1.6528   -0.7974 C   0  0  0  0  0  0  0  0  0  0  0  0
   -1.8308   -2.4860   -1.0477 N   0  0  0  0  0  0  0  0  0  0  0  0
   -0.5887   -2.1618   -0.6445 C   0  0  0  0  0  0  0  0  0  0  0  0
   -0.3046   -0.9917    0.0296 C   0  0  0  0  0  0  0  0  0  0  0  0
    1.0173   -0.6491    0.4574 N   0  0  0  0  0  0  0  0  0  0  0  0
    1.4672   -0.7355    1.6998 N   0  0  0  0  0  0  0  0  0  0  0  0
    2.7391   -0.3443    1.7790 C   0  0  0  0  0  0  0  0  0  0  0  0
    3.1576    0.0243    0.5095 C   0  0  0  0  0  0  0  0  0  0  0  0
    4.3391    0.5000   -0.0234 C   0  0  0  0  0  0  0  0  0  0  0  0
    5.5037    0.7107    0.8464 C   0  0  0  0  0  0  0  0  0  0  0  0
    6.5750    1.1879    0.1153 F   0  0  0  0  0  0  0  0  0  0  0  0
    5.9276   -0.4509    1.4605 F   0  0  0  0  0  0  0  0  0  0  0  0
    5.1823    1.6888    1.7954 F   0  0  0  0  0  0  0  0  0  0  0  0
    4.4333    0.7796   -1.3714 C   0  0  0  0  0  0  0  0  0  0  0  0
    3.3186    0.5702   -2.1615 C   0  0  0  0  0  0  0  0  0  0  0  0
    2.1321    0.0939   -1.6341 C   0  0  0  0  0  0  0  0  0  0  0  0
    2.0350   -0.1857   -0.2915 C   0  0  0  0  0  0  0  0  0  0  0  0
   -1.3902   -0.1490    0.2752 C   0  0  0  0  0  0  0  0  0  0  0  0
   -4.3340    2.1900    1.2362 H   0  0  0  0  0  0  0  0  0  0  0  0
   -2.7993    1.4983    1.7812 H   0  0  0  0  0  0  0  0  0  0  0  0
   -2.8786    2.4193    0.2558 H   0  0  0  0  0  0  0  0  0  0  0  0
   -4.5006   -0.6532    1.8848 H   0  0  0  0  0  0  0  0  0  0  0  0
   -5.8149    0.2558    0.9648 H   0  0  0  0  0  0  0  0  0  0  0  0
   -5.1148   -1.2436    0.3222 H   0  0  0  0  0  0  0  0  0  0  0  0
   -4.9163    0.0672   -1.3825 H   0  0  0  0  0  0  0  0  0  0  0  0
   -3.8473   -1.9349   -1.1301 H   0  0  0  0  0  0  0  0  0  0  0  0
    0.2184   -2.8479   -0.8588 H   0  0  0  0  0  0  0  0  0  0  0  0
    3.4064   -0.2887    2.6291 H   0  0  0  0  0  0  0  0  0  0  0  0
    5.3671    1.1567   -1.7982 H   0  0  0  0  0  0  0  0  0  0  0  0
    3.3564    0.7784   -3.2213 H   0  0  0  0  0  0  0  0  0  0  0  0
    1.2509   -0.0763   -2.2341 H   0  0  0  0  0  0  0  0  0  0  0  0
   -1.1707    0.7637    0.8005 H   0  0  0  0  0  0  0  0  0  0  0  0
  1  2  1  0
  2  3  1  0
  2  4  1  0
  2  5  1  0
  5  6  2  0
  6  7  1  0
  7  8  2  0
  8  9  1  0
  9 10  1  0
 10 11  1  0
 11 12  2  0
 12 13  1  0
 13 14  2  0
 14 15  1  0
 15 16  1  0
 15 17  1  0
 15 18  1  0
 14 19  1  0
 19 20  2  0
 20 21  1  0
 21 22  2  0
  9 23  2  0
 23  5  1  0
 22 10  1  0
 22 13  1  0
  1 24  1  0
  1 25  1  0
  1 26  1  0
  3 27  1  0
  3 28  1  0
  3 29  1  0
  4 30  1  0
  6 31  1  0
  8 32  1  0
 12 33  1  0
 19 34  1  0
 20 35  1  0
 21 36  1  0
 23 37  1  0
M  END
$$$$
