
     RDKit          3D

 56 58  0  0  0  0  0  0  0  0999 V2000
   -1.3210   -0.5368   -0.4808 C   0  0  2  0  0  0  0  0  0  0  0  0
   -2.3580    0.1204   -1.3625 C   0  0  0  0  0  0  0  0  0  0  0  0
   -3.7202    0.0307   -0.8281 C   0  0  0  0  0  0  0  0  0  0  0  0
   -4.4667   -1.0747   -1.1937 C   0  0  0  0  0  0  0  0  0  0  0  0
   -5.7583   -1.2460   -0.7416 C   0  0  0  0  0  0  0  0  0  0  0  0
   -6.3196   -0.2856    0.0994 C   0  0  0  0  0  0  0  0  0  0  0  0
   -5.5683    0.8153    0.4601 C   0  0  0  0  0  0  0  0  0  0  0  0
   -4.2804    0.9776    0.0040 C   0  0  0  0  0  0  0  0  0  0  0  0
   -7.7005   -0.5379    0.5397 C   0  0  0  0  0  0  0  0  0  0  0  0
   -8.5920   -1.2562   -0.3051 N   0  0  0  0  0  0  0  0  0  0  0  0
   -8.0591   -0.0856    1.7067 N   0  0  0  0  0  0  0  0  0  0  0  0
   -1.2915    0.1018    0.8870 C   0  0  0  0  0  0  0  0  0  0  0  0
   -0.7543    1.4956    0.8523 C   0  0  0  0  0  0  0  0  0  0  0  0
    0.7587    1.5394    0.9439 C   0  0  0  0  0  0  0  0  0  0  0  0
    1.3898    1.3288   -0.3892 C   0  0  0  0  0  0  0  0  0  0  0  0
    1.3847   -0.0681   -0.8872 C   0  0  1  0  0  0  0  0  0  0  0  0
    2.1472   -1.0576   -0.0553 C   0  0  0  0  0  0  0  0  0  0  0  0
    3.5857   -0.7072    0.0606 C   0  0  0  0  0  0  0  0  0  0  0  0
    4.4353   -1.2307   -0.9166 C   0  0  0  0  0  0  0  0  0  0  0  0
    5.8054   -0.9971   -0.9487 C   0  0  0  0  0  0  0  0  0  0  0  0
    6.3355   -0.2035    0.0460 C   0  0  0  0  0  0  0  0  0  0  0  0
    5.5305    0.3239    1.0169 C   0  0  0  0  0  0  0  0  0  0  0  0
    4.1737    0.0787    1.0287 C   0  0  0  0  0  0  0  0  0  0  0  0
    7.7802    0.0248   -0.0136 C   0  0  0  0  0  0  0  0  0  0  0  0
    8.5556    1.1413    0.4178 N   0  0  0  0  0  0  0  0  0  0  0  0
    8.6099   -0.8287   -0.5069 N   0  0  0  0  0  0  0  0  0  0  0  0
   -0.0086   -0.4970   -1.1530 C   0  0  0  0  0  0  0  0  0  0  0  0
   -0.2541   -0.9921   -2.2629 O   0  0  0  0  0  0  0  0  0  0  0  0
   -1.6151   -1.6018   -0.3685 H   0  0  0  0  0  0  0  0  0  0  0  0
   -2.0599    1.1716   -1.6203 H   0  0  0  0  0  0  0  0  0  0  0  0
   -2.2821   -0.4229   -2.3486 H   0  0  0  0  0  0  0  0  0  0  0  0
   -4.0664   -1.8384   -1.8425 H   0  0  0  0  0  0  0  0  0  0  0  0
   -6.3199   -2.1276   -1.0478 H   0  0  0  0  0  0  0  0  0  0  0  0
   -6.0219    1.5385    1.1067 H   0  0  0  0  0  0  0  0  0  0  0  0
   -3.7074    1.8463    0.2963 H   0  0  0  0  0  0  0  0  0  0  0  0
   -9.0859   -1.2198   -1.2010 H   0  0  0  0  0  0  0  0  0  0  0  0
   -9.0003   -1.0312   -1.2380 H   0  0  0  0  0  0  0  0  0  0  0  0
   -7.3118    0.4237    2.2263 H   0  0  0  0  0  0  0  0  0  0  0  0
   -2.3357    0.1343    1.2601 H   0  0  0  0  0  0  0  0  0  0  0  0
   -0.7487   -0.5369    1.6239 H   0  0  0  0  0  0  0  0  0  0  0  0
   -1.1365    2.0941    1.7297 H   0  0  0  0  0  0  0  0  0  0  0  0
   -1.0501    2.0177   -0.0654 H   0  0  0  0  0  0  0  0  0  0  0  0
    1.0007    2.6065    1.2266 H   0  0  0  0  0  0  0  0  0  0  0  0
    1.1505    0.9446    1.7702 H   0  0  0  0  0  0  0  0  0  0  0  0
    2.4212    1.7874   -0.4155 H   0  0  0  0  0  0  0  0  0  0  0  0
    0.8157    1.9384   -1.1174 H   0  0  0  0  0  0  0  0  0  0  0  0
    1.9077   -0.0475   -1.8865 H   0  0  0  0  0  0  0  0  0  0  0  0
    2.0416   -2.0469   -0.5462 H   0  0  0  0  0  0  0  0  0  0  0  0
    1.7567   -1.1659    0.9731 H   0  0  0  0  0  0  0  0  0  0  0  0
    4.0242   -1.8621   -1.7110 H   0  0  0  0  0  0  0  0  0  0  0  0
    6.3979   -1.4331   -1.7318 H   0  0  0  0  0  0  0  0  0  0  0  0
    5.9787    0.9420    1.7823 H   0  0  0  0  0  0  0  0  0  0  0  0
    3.5022    0.4759    1.7775 H   0  0  0  0  0  0  0  0  0  0  0  0
    8.9325    1.8765   -0.2251 H   0  0  0  0  0  0  0  0  0  0  0  0
    8.5406    0.8855    1.4465 H   0  0  0  0  0  0  0  0  0  0  0  0
    8.2312   -1.7224   -0.8800 H   0  0  0  0  0  0  0  0  0  0  0  0
  1  2  1  0
  2  3  1  0
  3  4  2  0
  4  5  1  0
  5  6  2  0
  6  7  1  0
  7  8  2  0
  6  9  1  0
  9 10  1  0
  9 11  2  3
  1 12  1  0
 12 13  1  0
 13 14  1  0
 14 15  1  0
 15 16  1  0
 16 17  1  0
 17 18  1  0
 18 19  2  0
 19 20  1  0
 20 21  2  0
 21 22  1  0
 22 23  2  0
 21 24  1  0
 24 25  1  0
 24 26  2  3
 16 27  1  0
 27 28  2  0
 27  1  1  0
  8  3  1  0
 23 18  1  0
  1 29  1  1
  2 30  1  0
  2 31  1  0
  4 32  1  0
  5 33  1  0
  7 34  1  0
  8 35  1  0
 10 36  1  0
 10 37  1  0
 11 38  1  0
 12 39  1  0
 12 40  1  0
 13 41  1  0
 13 42  1  0
 14 43  1  0
 14 44  1  0
 15 45  1  0
 15 46  1  0
 16 47  1  6
 17 48  1  0
 17 49  1  0
 19 50  1  0
 20 51  1  0
 22 52  1  0
 23 53  1  0
 25 54  1  0
 25 55  1  0
 26 56  1  0
M  END
$$$$
