
     RDKit          3D

 59 63  0  0  0  0  0  0  0  0999 V2000
    0.2415    2.1695    1.2892 C   0  0  0  0  0  0  0  0  0  0  0  0
   -0.9460    1.3620    0.9227 C   0  0  0  0  0  0  0  0  0  0  0  0
   -2.1905    1.6313    1.4449 C   0  0  0  0  0  0  0  0  0  0  0  0
   -3.3098    0.8645    1.0943 C   0  0  0  0  0  0  0  0  0  0  0  0
   -4.6141    1.1416    1.6677 C   0  0  0  0  0  0  0  0  0  0  0  0
   -4.7131    1.3683    2.9619 N   0  0  0  0  0  0  0  0  0  0  0  0
   -6.0589    1.6198    3.3499 C   0  0  0  0  0  0  0  0  0  0  0  0
   -6.8294    1.7199    2.0893 C   0  0  0  0  0  0  0  0  0  0  0  0
   -5.8731    1.2449    1.0750 N   0  0  0  0  0  0  0  0  0  0  0  0
   -6.1932    0.9586   -0.2942 C   0  0  0  0  0  0  0  0  0  0  0  0
   -3.0714   -0.1544    0.2088 C   0  0  0  0  0  0  0  0  0  0  0  0
   -1.8405   -0.4521   -0.3333 C   0  0  0  0  0  0  0  0  0  0  0  0
   -1.3836   -1.3965   -1.2110 N   0  0  0  0  0  0  0  0  0  0  0  0
   -0.0475   -1.2435   -1.4123 C   0  0  0  0  0  0  0  0  0  0  0  0
    0.8062   -2.0544   -2.2722 C   0  0  0  0  0  0  0  0  0  0  0  0
    2.1472   -1.8166   -2.3978 C   0  0  0  0  0  0  0  0  0  0  0  0
    2.7841   -0.7579   -1.7025 N   0  0  0  0  0  0  0  0  0  0  0  0
    4.2332   -0.5803   -1.8933 C   0  0  0  0  0  0  0  0  0  0  0  0
    4.7481    0.5919   -1.1031 C   0  0  0  0  0  0  0  0  0  0  0  0
    4.0978    1.7702   -1.5290 O   0  0  0  0  0  0  0  0  0  0  0  0
    4.5479    0.4400    0.3567 C   0  0  0  0  0  0  0  0  0  0  0  0
    4.7471    1.5337    1.1662 C   0  0  0  0  0  0  0  0  0  0  0  0
    4.5719    1.4474    2.5463 C   0  0  0  0  0  0  0  0  0  0  0  0
    4.1943    0.2411    3.0831 C   0  0  0  0  0  0  0  0  0  0  0  0
    3.9994   -0.8443    2.2604 C   0  0  0  0  0  0  0  0  0  0  0  0
    3.5118   -2.4176    2.9112 Cl  0  0  0  0  0  0  0  0  0  0  0  0
    4.1700   -0.7764    0.8739 C   0  0  0  0  0  0  0  0  0  0  0  0
    2.9366   -2.6298   -3.2369 C   0  0  0  0  0  0  0  0  0  0  0  0
    2.4006   -3.6595   -3.9377 C   0  0  0  0  0  0  0  0  0  0  0  0
    1.0866   -3.8886   -3.8119 N   0  0  0  0  0  0  0  0  0  0  0  0
    0.3129   -3.1154   -3.0082 C   0  0  0  0  0  0  0  0  0  0  0  0
   -0.8883   -3.4030   -2.9565 O   0  0  0  0  0  0  0  0  0  0  0  0
    0.2685   -0.1974   -0.6398 N   0  0  0  0  0  0  0  0  0  0  0  0
   -0.7581    0.3140    0.0252 C   0  0  0  0  0  0  0  0  0  0  0  0
    0.6353    1.8077    2.2789 H   0  0  0  0  0  0  0  0  0  0  0  0
    1.0369    2.0348    0.5288 H   0  0  0  0  0  0  0  0  0  0  0  0
   -0.0007    3.2570    1.3440 H   0  0  0  0  0  0  0  0  0  0  0  0
   -2.3651    2.4320    2.1364 H   0  0  0  0  0  0  0  0  0  0  0  0
   -6.1814    2.5735    3.9223 H   0  0  0  0  0  0  0  0  0  0  0  0
   -6.3710    0.7620    4.0025 H   0  0  0  0  0  0  0  0  0  0  0  0
   -7.6594    0.9814    2.0808 H   0  0  0  0  0  0  0  0  0  0  0  0
   -7.1764    2.7465    1.8451 H   0  0  0  0  0  0  0  0  0  0  0  0
   -7.3233    1.0828   -0.3981 H   0  0  0  0  0  0  0  0  0  0  0  0
   -5.8085    1.7723   -0.9884 H   0  0  0  0  0  0  0  0  0  0  0  0
   -6.0212   -0.0609   -0.6434 H   0  0  0  0  0  0  0  0  0  0  0  0
   -3.8889   -0.8141   -0.1116 H   0  0  0  0  0  0  0  0  0  0  0  0
   -2.0264   -2.1025   -1.6271 H   0  0  0  0  0  0  0  0  0  0  0  0
    2.3548   -0.0900   -1.0726 H   0  0  0  0  0  0  0  0  0  0  0  0
    4.7065   -1.5265   -1.6374 H   0  0  0  0  0  0  0  0  0  0  0  0
    4.4667   -0.3629   -2.9639 H   0  0  0  0  0  0  0  0  0  0  0  0
    5.8257    0.7466   -1.2982 H   0  0  0  0  0  0  0  0  0  0  0  0
    3.2199    1.8697   -1.0736 H   0  0  0  0  0  0  0  0  0  0  0  0
    5.0424    2.4873    0.7731 H   0  0  0  0  0  0  0  0  0  0  0  0
    4.7274    2.3038    3.1669 H   0  0  0  0  0  0  0  0  0  0  0  0
    4.0501    0.1422    4.1647 H   0  0  0  0  0  0  0  0  0  0  0  0
    4.0058   -1.6451    0.2660 H   0  0  0  0  0  0  0  0  0  0  0  0
    3.9795   -2.4330   -3.3251 H   0  0  0  0  0  0  0  0  0  0  0  0
    2.9926   -4.3101   -4.5999 H   0  0  0  0  0  0  0  0  0  0  0  0
    0.6907   -4.6859   -4.3571 H   0  0  0  0  0  0  0  0  0  0  0  0
  1  2  1  0
  2  3  2  0
  3  4  1  0
  4  5  1  0
  5  6  2  0
  6  7  1  0
  7  8  1  0
  8  9  1  0
  9 10  1  0
  4 11  2  0
 11 12  1  0
 12 13  1  0
 13 14  1  0
 14 15  1  0
 15 16  2  0
 16 17  1  0
 17 18  1  0
 18 19  1  0
 19 20  1  0
 19 21  1  0
 21 22  2  0
 22 23  1  0
 23 24  2  0
 24 25  1  0
 25 26  1  0
 25 27  2  0
 16 28  1  0
 28 29  2  0
 29 30  1  0
 30 31  1  0
 31 32  2  0
 14 33  2  0
 33 34  1  0
 34  2  1  0
  9  5  1  0
 34 12  2  0
 31 15  1  0
 27 21  1  0
  1 35  1  0
  1 36  1  0
  1 37  1  0
  3 38  1  0
  7 39  1  0
  7 40  1  0
  8 41  1  0
  8 42  1  0
 10 43  1  0
 10 44  1  0
 10 45  1  0
 11 46  1  0
 13 47  1  0
 17 48  1  0
 18 49  1  0
 18 50  1  0
 19 51  1  0
 20 52  1  0
 22 53  1  0
 23 54  1  0
 24 55  1  0
 27 56  1  0
 28 57  1  0
 29 58  1  0
 30 59  1  0
M  END
$$$$
