
     RDKit          3D

 75 80  0  0  0  0  0  0  0  0999 V2000
   -7.3816   -4.5269   -0.2008 C   0  0  0  0  0  0  0  0  0  0  0  0
   -6.2545   -3.6261   -0.4134 N   0  0  0  0  0  0  0  0  0  0  0  0
   -6.1535   -2.7742    0.7439 C   0  0  1  0  0  0  0  0  0  0  0  0
   -5.9221   -3.6375    1.9473 C   0  0  0  0  0  0  0  0  0  0  0  0
   -5.0912   -1.7858    0.5272 C   0  0  0  0  0  0  0  0  0  0  0  0
   -4.8678   -0.9528    1.4463 O   0  0  0  0  0  0  0  0  0  0  0  0
   -4.3649   -1.8009   -0.6886 N   0  0  0  0  0  0  0  0  0  0  0  0
   -3.3310   -0.8539   -0.9260 C   0  0  0  0  0  0  0  0  0  0  0  0
   -3.6376    0.3600   -1.5263 C   0  0  0  0  0  0  0  0  0  0  0  0
   -2.6578    1.3014   -1.7728 C   0  0  0  0  0  0  0  0  0  0  0  0
   -1.3727    0.9642   -1.3902 C   0  0  0  0  0  0  0  0  0  0  0  0
   -0.2769    1.9032   -1.6201 C   0  0  0  0  0  0  0  0  0  0  0  0
   -0.0080    3.0230   -0.8624 C   0  0  0  0  0  0  0  0  0  0  0  0
   -0.6975    3.5247    0.3171 C   0  0  0  0  0  0  0  0  0  0  0  0
   -2.0026    3.9412    0.3701 C   0  0  0  0  0  0  0  0  0  0  0  0
   -2.5871    4.4078    1.5275 C   0  0  0  0  0  0  0  0  0  0  0  0
   -1.8659    4.4686    2.6764 N   0  0  0  0  0  0  0  0  0  0  0  0
   -0.5887    4.0711    2.6654 C   0  0  0  0  0  0  0  0  0  0  0  0
    0.1306    4.1403    3.8430 O   0  0  0  0  0  0  0  0  0  0  0  0
   -0.3435    4.5916    5.0773 C   0  0  0  0  0  0  0  0  0  0  0  0
    0.0151    3.6000    1.5139 C   0  0  0  0  0  0  0  0  0  0  0  0
    1.0829    3.5789   -1.4602 N   0  0  0  0  0  0  0  0  0  0  0  0
    1.4339    2.8210   -2.5153 C   0  0  0  0  0  0  0  0  0  0  0  0
    2.4601    2.9738   -3.4204 C   0  0  0  0  0  0  0  0  0  0  0  0
    2.6115    2.0519   -4.4247 C   0  0  0  0  0  0  0  0  0  0  0  0
    3.6963    2.1829   -5.4117 C   0  0  0  0  0  0  0  0  0  0  0  0
    1.7239    0.9717   -4.5159 C   0  0  0  0  0  0  0  0  0  0  0  0
    0.7011    0.8355   -3.5994 C   0  0  0  0  0  0  0  0  0  0  0  0
    0.6080    1.7746   -2.6388 N   0  0  0  0  0  0  0  0  0  0  0  0
   -1.0664   -0.2468   -0.7905 C   0  0  0  0  0  0  0  0  0  0  0  0
    0.2917   -0.5732   -0.3829 C   0  0  0  0  0  0  0  0  0  0  0  0
    1.4176   -0.8400   -0.0379 C   0  0  0  0  0  0  0  0  0  0  0  0
    2.7509   -1.1809    0.3663 C   0  0  0  0  0  0  0  0  0  0  0  0
    3.8752   -0.5006   -0.0461 C   0  0  0  0  0  0  0  0  0  0  0  0
    5.1494   -0.8513    0.3584 C   0  0  0  0  0  0  0  0  0  0  0  0
    5.3135   -1.9082    1.1970 C   0  0  0  0  0  0  0  0  0  0  0  0
    6.5923   -2.2440    1.5903 C   0  0  0  0  0  0  0  0  0  0  0  0
    7.7442   -1.4524    1.0951 C   0  0  0  0  0  0  0  0  0  0  0  0
    6.7883   -3.2867    2.4205 N   0  0  0  0  0  0  0  0  0  0  0  0
    5.7281   -3.9923    2.8590 C   0  0  0  0  0  0  0  0  0  0  0  0
    4.4255   -3.6765    2.4790 C   0  0  0  0  0  0  0  0  0  0  0  0
    4.2076   -2.6131    1.6302 C   0  0  0  0  0  0  0  0  0  0  0  0
    2.9244   -2.2510    1.2161 C   0  0  0  0  0  0  0  0  0  0  0  0
   -2.0513   -1.1345   -0.5693 N   0  0  0  0  0  0  0  0  0  0  0  0
   -7.6771   -5.0493   -1.1333 H   0  0  0  0  0  0  0  0  0  0  0  0
   -7.0915   -5.2731    0.5631 H   0  0  0  0  0  0  0  0  0  0  0  0
   -8.2624   -3.9661    0.2228 H   0  0  0  0  0  0  0  0  0  0  0  0
   -5.4217   -4.2329   -0.5449 H   0  0  0  0  0  0  0  0  0  0  0  0
   -7.1092   -2.2040    0.9162 H   0  0  0  0  0  0  0  0  0  0  0  0
   -6.8776   -3.7756    2.4895 H   0  0  0  0  0  0  0  0  0  0  0  0
   -5.2096   -3.1743    2.6716 H   0  0  0  0  0  0  0  0  0  0  0  0
   -5.5111   -4.6458    1.6850 H   0  0  0  0  0  0  0  0  0  0  0  0
   -4.6125   -2.5245   -1.3980 H   0  0  0  0  0  0  0  0  0  0  0  0
   -4.6432    0.5941   -1.8110 H   0  0  0  0  0  0  0  0  0  0  0  0
   -2.8734    2.2609   -2.2427 H   0  0  0  0  0  0  0  0  0  0  0  0
   -2.6043    3.9089   -0.5211 H   0  0  0  0  0  0  0  0  0  0  0  0
   -3.6123    4.7374    1.5862 H   0  0  0  0  0  0  0  0  0  0  0  0
   -0.2294    5.7029    5.1063 H   0  0  0  0  0  0  0  0  0  0  0  0
    0.3700    4.2175    5.8560 H   0  0  0  0  0  0  0  0  0  0  0  0
   -1.3568    4.2596    5.3269 H   0  0  0  0  0  0  0  0  0  0  0  0
    1.0511    3.2847    1.5358 H   0  0  0  0  0  0  0  0  0  0  0  0
    3.1199    3.8144   -3.3197 H   0  0  0  0  0  0  0  0  0  0  0  0
    3.5747    3.1311   -5.9548 H   0  0  0  0  0  0  0  0  0  0  0  0
    3.7442    1.2970   -6.0739 H   0  0  0  0  0  0  0  0  0  0  0  0
    4.6737    2.2324   -4.8549 H   0  0  0  0  0  0  0  0  0  0  0  0
    1.8135    0.2269   -5.2947 H   0  0  0  0  0  0  0  0  0  0  0  0
    0.0021    0.0111   -3.6464 H   0  0  0  0  0  0  0  0  0  0  0  0
    3.7652    0.3431   -0.7117 H   0  0  0  0  0  0  0  0  0  0  0  0
    5.9918   -0.2662   -0.0092 H   0  0  0  0  0  0  0  0  0  0  0  0
    8.7044   -1.9632    1.3440 H   0  0  0  0  0  0  0  0  0  0  0  0
    7.7749   -0.4544    1.6071 H   0  0  0  0  0  0  0  0  0  0  0  0
    7.7296   -1.3432   -0.0104 H   0  0  0  0  0  0  0  0  0  0  0  0
    5.9269   -4.8219    3.5243 H   0  0  0  0  0  0  0  0  0  0  0  0
    3.5824   -4.2484    2.8358 H   0  0  0  0  0  0  0  0  0  0  0  0
    2.1177   -2.8564    1.6031 H   0  0  0  0  0  0  0  0  0  0  0  0
  1  2  1  0
  2  3  1  0
  3  4  1  0
  3  5  1  0
  5  6  2  0
  5  7  1  0
  7  8  1  0
  8  9  2  0
  9 10  1  0
 10 11  2  0
 11 12  1  0
 12 13  2  0
 13 14  1  0
 14 15  2  0
 15 16  1  0
 16 17  2  0
 17 18  1  0
 18 19  1  0
 19 20  1  0
 18 21  2  0
 13 22  1  0
 22 23  2  0
 23 24  1  0
 24 25  2  0
 25 26  1  0
 25 27  1  0
 27 28  2  0
 28 29  1  0
 11 30  1  0
 30 31  1  0
 31 32  3  0
 32 33  1  0
 33 34  2  0
 34 35  1  0
 35 36  2  0
 36 37  1  0
 37 38  1  0
 37 39  2  0
 39 40  1  0
 40 41  2  0
 41 42  1  0
 42 43  2  0
 30 44  2  0
 44  8  1  0
 29 12  1  0
 43 33  1  0
 21 14  1  0
 29 23  1  0
 42 36  1  0
  1 45  1  0
  1 46  1  0
  1 47  1  0
  2 48  1  0
  3 49  1  1
  4 50  1  0
  4 51  1  0
  4 52  1  0
  7 53  1  0
  9 54  1  0
 10 55  1  0
 15 56  1  0
 16 57  1  0
 20 58  1  0
 20 59  1  0
 20 60  1  0
 21 61  1  0
 24 62  1  0
 26 63  1  0
 26 64  1  0
 26 65  1  0
 27 66  1  0
 28 67  1  0
 34 68  1  0
 35 69  1  0
 38 70  1  0
 38 71  1  0
 38 72  1  0
 40 73  1  0
 41 74  1  0
 43 75  1  0
M  END
$$$$
