
     RDKit          3D

 41 43  0  0  0  0  0  0  0  0999 V2000
   -1.8390   -0.4346    0.4848 O   0  0  0  0  0  0  0  0  0  0  0  0
   -2.1226   -0.4685   -0.7258 C   0  0  0  0  0  0  0  0  0  0  0  0
   -1.1161   -0.9557   -1.7238 C   0  0  0  0  0  0  0  0  0  0  0  0
    0.1560   -1.3480   -1.0371 C   0  0  0  0  0  0  0  0  0  0  0  0
    1.1528   -0.4889   -0.8281 N   0  0  0  0  0  0  0  0  0  0  0  0
    2.3145   -0.8065   -0.2126 C   0  0  0  0  0  0  0  0  0  0  0  0
    3.3477    0.1594   -0.0172 N   0  0  0  0  0  0  0  0  0  0  0  0
    3.1322    1.4967   -0.4909 C   0  0  0  0  0  0  0  0  0  0  0  0
    4.5107    2.0880   -0.8094 C   0  0  0  0  0  0  0  0  0  0  0  0
    5.2125    2.0533    0.4106 O   0  0  0  0  0  0  0  0  0  0  0  0
    5.6263    0.7671    0.6651 C   0  0  0  0  0  0  0  0  0  0  0  0
    4.5521   -0.2543    0.6437 C   0  0  0  0  0  0  0  0  0  0  0  0
    2.4525   -2.1123    0.2182 C   0  0  0  0  0  0  0  0  0  0  0  0
    1.4466   -3.0072    0.0152 C   0  0  0  0  0  0  0  0  0  0  0  0
    1.6133   -4.1983    0.4267 O   0  0  0  0  0  0  0  0  0  0  0  0
    0.3165   -2.6129   -0.6076 N   0  0  0  0  0  0  0  0  0  0  0  0
   -3.3780   -0.0575   -1.1961 N   0  0  0  0  0  0  0  0  0  0  0  0
   -4.3495    0.4085   -0.2704 C   0  0  0  0  0  0  0  0  0  0  0  0
   -4.4228    1.7427    0.0622 C   0  0  0  0  0  0  0  0  0  0  0  0
   -5.3609    2.2128    0.9600 C   0  0  0  0  0  0  0  0  0  0  0  0
   -6.2639    1.3602    1.5604 C   0  0  0  0  0  0  0  0  0  0  0  0
   -7.1971    1.8083    2.4497 F   0  0  0  0  0  0  0  0  0  0  0  0
   -6.1712    0.0284    1.2117 C   0  0  0  0  0  0  0  0  0  0  0  0
   -7.3006   -1.0883    1.9524 Cl  0  0  0  0  0  0  0  0  0  0  0  0
   -5.2427   -0.4601    0.3183 C   0  0  0  0  0  0  0  0  0  0  0  0
   -0.9142   -0.1959   -2.5075 H   0  0  0  0  0  0  0  0  0  0  0  0
   -1.5899   -1.8217   -2.2348 H   0  0  0  0  0  0  0  0  0  0  0  0
    2.7348    2.1483    0.3415 H   0  0  0  0  0  0  0  0  0  0  0  0
    2.5351    1.5750   -1.3992 H   0  0  0  0  0  0  0  0  0  0  0  0
    5.0230    1.4372   -1.5151 H   0  0  0  0  0  0  0  0  0  0  0  0
    4.3361    3.1151   -1.1627 H   0  0  0  0  0  0  0  0  0  0  0  0
    6.3883    0.5123   -0.1255 H   0  0  0  0  0  0  0  0  0  0  0  0
    6.1969    0.7711    1.6191 H   0  0  0  0  0  0  0  0  0  0  0  0
    4.8998   -1.1914    0.1189 H   0  0  0  0  0  0  0  0  0  0  0  0
    4.2861   -0.5406    1.6970 H   0  0  0  0  0  0  0  0  0  0  0  0
    3.3831   -2.4134    0.7245 H   0  0  0  0  0  0  0  0  0  0  0  0
   -0.4321   -3.3226   -0.7464 H   0  0  0  0  0  0  0  0  0  0  0  0
   -3.5903   -0.0970   -2.2270 H   0  0  0  0  0  0  0  0  0  0  0  0
   -3.7216    2.4544   -0.3940 H   0  0  0  0  0  0  0  0  0  0  0  0
   -5.4059    3.2667    1.2117 H   0  0  0  0  0  0  0  0  0  0  0  0
   -5.1985   -1.5296    0.0642 H   0  0  0  0  0  0  0  0  0  0  0  0
  1  2  2  0
  2  3  1  0
  3  4  1  0
  4  5  2  0
  5  6  1  0
  6  7  1  0
  7  8  1  0
  8  9  1  0
  9 10  1  0
 10 11  1  0
 11 12  1  0
  6 13  2  0
 13 14  1  0
 14 15  2  0
 14 16  1  0
  2 17  1  0
 17 18  1  0
 18 19  2  0
 19 20  1  0
 20 21  2  0
 21 22  1  0
 21 23  1  0
 23 24  1  0
 23 25  2  0
 16  4  1  0
 25 18  1  0
 12  7  1  0
  3 26  1  0
  3 27  1  0
  8 28  1  0
  8 29  1  0
  9 30  1  0
  9 31  1  0
 11 32  1  0
 11 33  1  0
 12 34  1  0
 12 35  1  0
 13 36  1  0
 16 37  1  0
 17 38  1  0
 19 39  1  0
 20 40  1  0
 25 41  1  0
M  END
$$$$
