
     RDKit          3D

 72 75  0  0  0  0  0  0  0  0999 V2000
    7.2708    1.8061    3.8275 C   0  0  0  0  0  0  0  0  0  0  0  0
    5.9883    1.3853    3.1298 C   0  0  0  0  0  0  0  0  0  0  0  0
    6.3157    0.1357    2.3365 C   0  0  0  0  0  0  0  0  0  0  0  0
    5.0937   -0.3742    1.6007 C   0  0  0  0  0  0  0  0  0  0  0  0
    4.5387    0.6205    0.6278 C   0  0  0  0  0  0  0  0  0  0  0  0
    3.3517   -0.0055    0.0037 N   0  0  0  0  0  0  0  0  0  0  0  0
    2.1245    0.1858    0.6151 C   0  0  0  0  0  0  0  0  0  0  0  0
    2.2143    0.8140    1.7716 O   0  0  0  0  0  0  0  0  0  0  0  0
    0.8167   -0.1529    0.2499 N   0  0  0  0  0  0  0  0  0  0  0  0
   -0.2650    0.1712    1.1792 C   0  0  0  0  0  0  0  0  0  0  0  0
   -1.6090    0.2961    0.5389 C   0  0  0  0  0  0  0  0  0  0  0  0
   -1.8816   -0.7459   -0.4089 N   0  0  0  0  0  0  0  0  0  0  0  0
   -3.1310   -0.9259   -0.9956 C   0  0  0  0  0  0  0  0  0  0  0  0
   -3.1606   -1.9121   -1.8563 O   0  0  0  0  0  0  0  0  0  0  0  0
   -4.3244   -0.2034   -0.7852 N   0  0  0  0  0  0  0  0  0  0  0  0
   -5.4701   -0.5872   -1.5788 C   0  0  0  0  0  0  0  0  0  0  0  0
   -5.6154    0.0556   -2.7868 C   0  0  0  0  0  0  0  0  0  0  0  0
   -6.6863   -0.2379   -3.6332 C   0  0  0  0  0  0  0  0  0  0  0  0
   -7.5856   -1.1885   -3.2175 C   0  0  0  0  0  0  0  0  0  0  0  0
   -7.4169   -1.8164   -2.0053 C   0  0  0  0  0  0  0  0  0  0  0  0
   -6.3532   -1.5359   -1.1463 C   0  0  0  0  0  0  0  0  0  0  0  0
   -4.5704    0.8329    0.1268 C   0  0  0  0  0  0  0  0  0  0  0  0
   -4.3215    2.1728   -0.0848 C   0  0  0  0  0  0  0  0  0  0  0  0
   -4.6218    3.1313    0.8569 C   0  0  0  0  0  0  0  0  0  0  0  0
   -5.1879    2.7928    2.0596 C   0  0  0  0  0  0  0  0  0  0  0  0
   -5.4526    1.4614    2.3091 C   0  0  0  0  0  0  0  0  0  0  0  0
   -5.1503    0.5069    1.3639 C   0  0  0  0  0  0  0  0  0  0  0  0
   -0.7784   -1.6252   -0.7405 C   0  0  0  0  0  0  0  0  0  0  0  0
    0.4872   -0.7758   -0.9858 C   0  0  1  0  0  0  0  0  0  0  0  0
    0.2438    0.2006   -2.0623 C   0  0  0  0  0  0  0  0  0  0  0  0
    0.4046    1.4177   -1.8479 O   0  0  0  0  0  0  0  0  0  0  0  0
   -0.1619   -0.2140   -3.3117 O   0  0  0  0  0  0  0  0  0  0  0  0
    3.5740   -0.7312   -1.1771 C   0  0  0  0  0  0  0  0  0  0  0  0
    3.8800   -2.1021   -1.1730 C   0  0  0  0  0  0  0  0  0  0  0  0
    4.1238   -2.8058   -2.3248 C   0  0  0  0  0  0  0  0  0  0  0  0
    4.0780   -2.1885   -3.5483 C   0  0  0  0  0  0  0  0  0  0  0  0
    3.7819   -0.8452   -3.5959 C   0  0  0  0  0  0  0  0  0  0  0  0
    3.5408   -0.1561   -2.4391 C   0  0  0  0  0  0  0  0  0  0  0  0
    7.2118    2.8222    4.2169 H   0  0  0  0  0  0  0  0  0  0  0  0
    7.3438    1.1240    4.7257 H   0  0  0  0  0  0  0  0  0  0  0  0
    8.1413    1.5909    3.1957 H   0  0  0  0  0  0  0  0  0  0  0  0
    5.2219    1.2035    3.8921 H   0  0  0  0  0  0  0  0  0  0  0  0
    5.7209    2.2060    2.4442 H   0  0  0  0  0  0  0  0  0  0  0  0
    6.6310   -0.6734    3.0280 H   0  0  0  0  0  0  0  0  0  0  0  0
    7.1007    0.3512    1.5850 H   0  0  0  0  0  0  0  0  0  0  0  0
    4.2818   -0.6554    2.2932 H   0  0  0  0  0  0  0  0  0  0  0  0
    5.4289   -1.3083    1.0912 H   0  0  0  0  0  0  0  0  0  0  0  0
    5.2666    0.9187   -0.1502 H   0  0  0  0  0  0  0  0  0  0  0  0
    4.1773    1.5436    1.1152 H   0  0  0  0  0  0  0  0  0  0  0  0
   -0.0020    1.1913    1.5764 H   0  0  0  0  0  0  0  0  0  0  0  0
   -0.2613   -0.4876    2.0660 H   0  0  0  0  0  0  0  0  0  0  0  0
   -1.5957    1.2754   -0.0225 H   0  0  0  0  0  0  0  0  0  0  0  0
   -2.3634    0.3480    1.3377 H   0  0  0  0  0  0  0  0  0  0  0  0
   -4.9265    0.8100   -3.1474 H   0  0  0  0  0  0  0  0  0  0  0  0
   -6.7914    0.2715   -4.5792 H   0  0  0  0  0  0  0  0  0  0  0  0
   -8.4354   -1.4358   -3.8674 H   0  0  0  0  0  0  0  0  0  0  0  0
   -8.1216   -2.5709   -1.6609 H   0  0  0  0  0  0  0  0  0  0  0  0
   -6.2088   -2.0131   -0.2053 H   0  0  0  0  0  0  0  0  0  0  0  0
   -3.8699    2.4570   -1.0384 H   0  0  0  0  0  0  0  0  0  0  0  0
   -4.4096    4.1588    0.6473 H   0  0  0  0  0  0  0  0  0  0  0  0
   -5.4243    3.5512    2.8042 H   0  0  0  0  0  0  0  0  0  0  0  0
   -5.8991    1.2231    3.2678 H   0  0  0  0  0  0  0  0  0  0  0  0
   -5.3704   -0.5360    1.5896 H   0  0  0  0  0  0  0  0  0  0  0  0
   -0.5266   -2.2339    0.1560 H   0  0  0  0  0  0  0  0  0  0  0  0
   -0.9768   -2.3003   -1.5836 H   0  0  0  0  0  0  0  0  0  0  0  0
    1.2278   -1.4887   -1.3352 H   0  0  0  0  0  0  0  0  0  0  0  0
   -0.2278    0.3892   -4.1207 H   0  0  0  0  0  0  0  0  0  0  0  0
    3.9100   -2.5970   -0.1879 H   0  0  0  0  0  0  0  0  0  0  0  0
    4.3509   -3.8520   -2.2447 H   0  0  0  0  0  0  0  0  0  0  0  0
    4.2721   -2.7458   -4.4805 H   0  0  0  0  0  0  0  0  0  0  0  0
    3.7346   -0.3076   -4.5445 H   0  0  0  0  0  0  0  0  0  0  0  0
    3.3044    0.9130   -2.4586 H   0  0  0  0  0  0  0  0  0  0  0  0
  1  2  1  0
  2  3  1  0
  3  4  1  0
  4  5  1  0
  5  6  1  0
  6  7  1  0
  7  8  2  0
  7  9  1  0
  9 10  1  0
 10 11  1  0
 11 12  1  0
 12 13  1  0
 13 14  2  0
 13 15  1  0
 15 16  1  0
 16 17  2  0
 17 18  1  0
 18 19  2  0
 19 20  1  0
 20 21  2  0
 15 22  1  0
 22 23  2  0
 23 24  1  0
 24 25  2  0
 25 26  1  0
 26 27  2  0
 12 28  1  0
 28 29  1  0
 29 30  1  0
 30 31  2  0
 30 32  1  0
  6 33  1  0
 33 34  2  0
 34 35  1  0
 35 36  2  0
 36 37  1  0
 37 38  2  0
 29  9  1  0
 38 33  1  0
 21 16  1  0
 27 22  1  0
  1 39  1  0
  1 40  1  0
  1 41  1  0
  2 42  1  0
  2 43  1  0
  3 44  1  0
  3 45  1  0
  4 46  1  0
  4 47  1  0
  5 48  1  0
  5 49  1  0
 10 50  1  0
 10 51  1  0
 11 52  1  0
 11 53  1  0
 17 54  1  0
 18 55  1  0
 19 56  1  0
 20 57  1  0
 21 58  1  0
 23 59  1  0
 24 60  1  0
 25 61  1  0
 26 62  1  0
 27 63  1  0
 28 64  1  0
 28 65  1  0
 29 66  1  6
 32 67  1  0
 34 68  1  0
 35 69  1  0
 36 70  1  0
 37 71  1  0
 38 72  1  0
M  END
$$$$
