
     RDKit          3D

 45 47  0  0  0  0  0  0  0  0999 V2000
   -7.5948   -0.5523    1.1840 C   0  0  0  0  0  0  0  0  0  0  0  0
   -7.2370   -0.5024   -0.2848 C   0  0  0  0  0  0  0  0  0  0  0  0
   -5.8329   -0.0081   -0.3944 C   0  0  0  0  0  0  0  0  0  0  0  0
   -5.4917    1.3196   -0.5076 C   0  0  0  0  0  0  0  0  0  0  0  0
   -4.2106    1.7334   -0.6049 N   0  0  0  0  0  0  0  0  0  0  0  0
   -3.1945    0.8325   -0.5940 C   0  0  0  0  0  0  0  0  0  0  0  0
   -1.7542    1.1965   -0.6962 C   0  0  0  0  0  0  0  0  0  0  0  0
   -1.1570    1.4283    0.6542 C   0  0  0  0  0  0  0  0  0  0  0  0
    0.1861    1.7692    0.6554 O   0  0  0  0  0  0  0  0  0  0  0  0
    1.1843    0.9654    0.2045 C   0  0  0  0  0  0  0  0  0  0  0  0
    2.3687    1.6773    0.3571 C   0  0  0  0  0  0  0  0  0  0  0  0
    3.6236    1.1615   -0.0044 C   0  0  0  0  0  0  0  0  0  0  0  0
    3.7142   -0.1267   -0.5458 C   0  0  0  0  0  0  0  0  0  0  0  0
    4.9476   -0.7935   -0.9673 C   0  0  0  0  0  0  0  0  0  0  0  0
    5.6251   -1.5927    0.0970 C   0  0  0  0  0  0  0  0  0  0  0  0
    7.1256   -2.3182   -0.6720 S   0  0  0  0  0  0  0  0  0  0  0  0
    8.2461   -0.9841   -0.2106 C   0  0  0  0  0  0  0  0  0  0  0  0
    9.4481   -0.9309   -0.5802 O   0  0  0  0  0  0  0  0  0  0  0  0
    7.4522   -0.1214    0.5968 N   0  0  0  0  0  0  0  0  0  0  0  0
    6.3056   -0.7339    1.1196 C   0  0  0  0  0  0  0  0  0  0  0  0
    5.8725   -0.5942    2.3163 O   0  0  0  0  0  0  0  0  0  0  0  0
    2.5186   -0.8403   -0.6974 C   0  0  0  0  0  0  0  0  0  0  0  0
    1.3328   -0.2728   -0.3224 C   0  0  0  0  0  0  0  0  0  0  0  0
   -3.5086   -0.5083   -0.4814 C   0  0  0  0  0  0  0  0  0  0  0  0
   -4.8240   -0.9427   -0.3807 C   0  0  0  0  0  0  0  0  0  0  0  0
   -6.7597   -1.1069    1.6922 H   0  0  0  0  0  0  0  0  0  0  0  0
   -8.5064   -1.1599    1.3168 H   0  0  0  0  0  0  0  0  0  0  0  0
   -7.6974    0.4659    1.5667 H   0  0  0  0  0  0  0  0  0  0  0  0
   -7.9092    0.1792   -0.8377 H   0  0  0  0  0  0  0  0  0  0  0  0
   -7.3334   -1.5185   -0.7090 H   0  0  0  0  0  0  0  0  0  0  0  0
   -6.3046    2.0418   -0.5164 H   0  0  0  0  0  0  0  0  0  0  0  0
   -1.2857    0.4635   -1.3289 H   0  0  0  0  0  0  0  0  0  0  0  0
   -1.6874    2.1722   -1.2374 H   0  0  0  0  0  0  0  0  0  0  0  0
   -1.6972    2.3077    1.1259 H   0  0  0  0  0  0  0  0  0  0  0  0
   -1.3787    0.5215    1.2763 H   0  0  0  0  0  0  0  0  0  0  0  0
    2.5639    2.6851    0.7491 H   0  0  0  0  0  0  0  0  0  0  0  0
    4.5848    1.6113    0.0667 H   0  0  0  0  0  0  0  0  0  0  0  0
    4.7425   -1.4779   -1.8171 H   0  0  0  0  0  0  0  0  0  0  0  0
    5.7079   -0.0761   -1.3753 H   0  0  0  0  0  0  0  0  0  0  0  0
    5.0030   -2.3625    0.5553 H   0  0  0  0  0  0  0  0  0  0  0  0
    7.7335    0.8896    0.7664 H   0  0  0  0  0  0  0  0  0  0  0  0
    2.4476   -1.8434   -1.1021 H   0  0  0  0  0  0  0  0  0  0  0  0
    0.4018   -0.7946   -0.4103 H   0  0  0  0  0  0  0  0  0  0  0  0
   -2.7152   -1.2535   -0.4699 H   0  0  0  0  0  0  0  0  0  0  0  0
   -5.0561   -2.0057   -0.2923 H   0  0  0  0  0  0  0  0  0  0  0  0
  1  2  1  0
  2  3  1  0
  3  4  2  0
  4  5  1  0
  5  6  2  0
  6  7  1  0
  7  8  1  0
  8  9  1  0
  9 10  1  0
 10 11  2  0
 11 12  1  0
 12 13  2  0
 13 14  1  0
 14 15  1  0
 15 16  1  0
 16 17  1  0
 17 18  2  0
 17 19  1  0
 19 20  1  0
 20 21  2  0
 13 22  1  0
 22 23  2  0
  6 24  1  0
 24 25  2  0
 25  3  1  0
 23 10  1  0
 20 15  1  0
  1 26  1  0
  1 27  1  0
  1 28  1  0
  2 29  1  0
  2 30  1  0
  4 31  1  0
  7 32  1  0
  7 33  1  0
  8 34  1  0
  8 35  1  0
 11 36  1  0
 12 37  1  0
 14 38  1  0
 14 39  1  0
 15 40  1  0
 19 41  1  0
 22 42  1  0
 23 43  1  0
 24 44  1  0
 25 45  1  0
M  END
$$$$
