
     RDKit          3D

 48 48  0  0  0  0  0  0  0  0999 V2000
   -3.6913    1.6734    0.8639 C   0  0  2  0  0  0  0  0  0  0  0  0
   -4.2310    2.6375   -0.1746 C   0  0  0  0  0  0  0  0  0  0  0  0
   -3.3487    0.4348    0.1962 N   0  0  0  0  0  0  0  0  0  0  0  0
   -2.0108   -0.0217    0.1746 C   0  0  0  0  0  0  0  0  0  0  0  0
   -0.9024    0.4282    0.6438 O   0  0  0  0  0  0  0  0  0  0  0  0
   -1.0698   -1.0440   -0.2532 C   0  0  1  0  0  0  0  0  0  0  0  0
    0.2879   -0.6721    0.1757 N   0  0  0  0  0  0  0  0  0  0  0  0
    1.3015   -0.3625   -0.7996 C   0  0  0  0  0  0  0  0  0  0  0  0
    1.0267   -0.4097   -2.0214 O   0  0  0  0  0  0  0  0  0  0  0  0
    2.6887    0.0191   -0.4261 C   0  0  1  0  0  0  0  0  0  0  0  0
    3.6236   -0.8891   -1.1484 O   0  0  0  0  0  0  0  0  0  0  0  0
    3.5496    0.5817   -1.3558 C   0  0  2  0  0  0  0  0  0  0  0  0
    4.8619    1.1668   -0.9800 C   0  0  0  0  0  0  0  0  0  0  0  0
    5.5077    1.9106   -1.7843 O   0  0  0  0  0  0  0  0  0  0  0  0
    5.3320    0.8636    0.2672 O   0  0  0  0  0  0  0  0  0  0  0  0
    6.5593    1.3315    0.7907 C   0  0  0  0  0  0  0  0  0  0  0  0
    6.6031    2.8452    0.8509 C   0  0  0  0  0  0  0  0  0  0  0  0
   -1.3474   -2.4508    0.0935 C   0  0  1  0  0  0  0  0  0  0  0  0
   -1.4477   -2.7430    1.5614 C   0  0  0  0  0  0  0  0  0  0  0  0
   -2.5201   -3.0845   -0.6042 C   0  0  0  0  0  0  0  0  0  0  0  0
   -2.3377   -3.0781   -2.1198 C   0  0  0  0  0  0  0  0  0  0  0  0
   -4.6606    1.4783    1.9729 C   0  0  0  0  0  0  0  0  0  0  0  0
   -5.0292    2.6312    2.6536 O   0  0  0  0  0  0  0  0  0  0  0  0
   -5.1595    0.3630    2.3296 O   0  0  0  0  0  0  0  0  0  0  0  0
   -2.7875    2.1354    1.3049 H   0  0  0  0  0  0  0  0  0  0  0  0
   -3.4044    3.0073   -0.8086 H   0  0  0  0  0  0  0  0  0  0  0  0
   -4.9508    2.1083   -0.8339 H   0  0  0  0  0  0  0  0  0  0  0  0
   -4.7273    3.5113    0.3040 H   0  0  0  0  0  0  0  0  0  0  0  0
   -3.8067   -0.3181   -0.3358 H   0  0  0  0  0  0  0  0  0  0  0  0
   -1.0035   -1.0018   -1.3809 H   0  0  0  0  0  0  0  0  0  0  0  0
    0.6417   -0.5969    1.1545 H   0  0  0  0  0  0  0  0  0  0  0  0
    2.8628    0.0409    0.6652 H   0  0  0  0  0  0  0  0  0  0  0  0
    3.2219    0.8633   -2.3783 H   0  0  0  0  0  0  0  0  0  0  0  0
    7.3625    1.0304    0.0713 H   0  0  0  0  0  0  0  0  0  0  0  0
    6.7734    0.8458    1.7426 H   0  0  0  0  0  0  0  0  0  0  0  0
    6.8881    3.2740   -0.1325 H   0  0  0  0  0  0  0  0  0  0  0  0
    7.4113    3.1387    1.5640 H   0  0  0  0  0  0  0  0  0  0  0  0
    5.6690    3.2857    1.2426 H   0  0  0  0  0  0  0  0  0  0  0  0
   -0.4504   -3.0491   -0.2624 H   0  0  0  0  0  0  0  0  0  0  0  0
   -2.2415   -2.1801    2.0767 H   0  0  0  0  0  0  0  0  0  0  0  0
   -1.6959   -3.8209    1.6678 H   0  0  0  0  0  0  0  0  0  0  0  0
   -0.5061   -2.5918    2.1090 H   0  0  0  0  0  0  0  0  0  0  0  0
   -3.4946   -2.6619   -0.3797 H   0  0  0  0  0  0  0  0  0  0  0  0
   -2.5633   -4.1587   -0.2466 H   0  0  0  0  0  0  0  0  0  0  0  0
   -1.3386   -3.4195   -2.4335 H   0  0  0  0  0  0  0  0  0  0  0  0
   -2.4437   -2.0176   -2.4348 H   0  0  0  0  0  0  0  0  0  0  0  0
   -3.1541   -3.7179   -2.5181 H   0  0  0  0  0  0  0  0  0  0  0  0
   -5.8484    2.6837    3.2563 H   0  0  0  0  0  0  0  0  0  0  0  0
  1  2  1  0
  1  3  1  0
  3  4  1  0
  4  5  2  0
  4  6  1  0
  6  7  1  0
  7  8  1  0
  8  9  2  0
  8 10  1  0
 10 11  1  0
 11 12  1  0
 12 13  1  0
 13 14  2  0
 13 15  1  0
 15 16  1  0
 16 17  1  0
  6 18  1  0
 18 19  1  0
 18 20  1  0
 20 21  1  0
  1 22  1  0
 22 23  1  0
 22 24  2  0
 12 10  1  0
  1 25  1  1
  2 26  1  0
  2 27  1  0
  2 28  1  0
  3 29  1  0
  6 30  1  6
  7 31  1  0
 10 32  1  1
 12 33  1  6
 16 34  1  0
 16 35  1  0
 17 36  1  0
 17 37  1  0
 17 38  1  0
 18 39  1  6
 19 40  1  0
 19 41  1  0
 19 42  1  0
 20 43  1  0
 20 44  1  0
 21 45  1  0
 21 46  1  0
 21 47  1  0
 23 48  1  0
M  END
$$$$
