
     RDKit          3D

 49 51  0  0  0  0  0  0  0  0999 V2000
   -5.0259   -0.8079   -0.1109 C   0  0  0  0  0  0  0  0  0  0  0  0
   -4.1100    0.0337    0.7316 C   0  0  0  0  0  0  0  0  0  0  0  0
   -4.7834    0.3834    2.0725 C   0  0  0  0  0  0  0  0  0  0  0  0
   -2.7975   -0.5856    1.0085 C   0  0  0  0  0  0  0  0  0  0  0  0
   -2.6212   -1.2313    2.2634 N   0  0  0  0  0  0  0  0  0  0  0  0
   -1.8777   -0.5303    0.1429 N   0  0  0  0  0  0  0  0  0  0  0  0
   -1.8691    0.0629   -1.1506 C   0  0  2  0  0  0  0  0  0  0  0  0
   -2.4461   -0.9512   -2.1453 C   0  0  0  0  0  0  0  0  0  0  0  0
   -0.4423    0.3497   -1.5112 C   0  0  0  0  0  0  0  0  0  0  0  0
    0.5887    0.0473   -0.6574 C   0  0  0  0  0  0  0  0  0  0  0  0
    1.9326    0.3066   -0.9726 C   0  0  0  0  0  0  0  0  0  0  0  0
    2.9299   -0.0408   -0.0270 N   0  0  0  0  0  0  0  0  0  0  0  0
    4.3122    0.1326   -0.1469 C   0  0  0  0  0  0  0  0  0  0  0  0
    4.7857    0.6471   -1.1822 O   0  0  0  0  0  0  0  0  0  0  0  0
    5.2472   -0.2810    0.9317 C   0  0  0  0  0  0  0  0  0  0  0  0
    6.6042   -0.0992    0.7886 C   0  0  0  0  0  0  0  0  0  0  0  0
    7.5226   -0.4571    1.7425 C   0  0  0  0  0  0  0  0  0  0  0  0
    7.0367   -1.0298    2.9024 C   0  0  0  0  0  0  0  0  0  0  0  0
    7.9337   -1.3971    3.8728 F   0  0  0  0  0  0  0  0  0  0  0  0
    5.6832   -1.2109    3.0447 C   0  0  0  0  0  0  0  0  0  0  0  0
    4.8093   -0.8398    2.0705 N   0  0  0  0  0  0  0  0  0  0  0  0
    2.1369    0.8844   -2.1969 C   0  0  0  0  0  0  0  0  0  0  0  0
    1.0915    1.1990   -3.0800 C   0  0  0  0  0  0  0  0  0  0  0  0
   -0.2107    0.9293   -2.7344 C   0  0  0  0  0  0  0  0  0  0  0  0
   -1.1926    1.2463   -3.6112 F   0  0  0  0  0  0  0  0  0  0  0  0
   -2.5926    1.3714   -1.2920 C   0  0  0  0  0  0  0  0  0  0  0  0
   -3.8544    1.5779   -0.0842 S   0  0  0  0  0  6  0  0  0  0  0  0
   -5.1434    1.9282   -0.8050 O   0  0  0  0  0  0  0  0  0  0  0  0
   -3.5037    2.6698    0.8953 O   0  0  0  0  0  0  0  0  0  0  0  0
   -6.0595   -0.8073    0.3531 H   0  0  0  0  0  0  0  0  0  0  0  0
   -4.7157   -1.8519   -0.2238 H   0  0  0  0  0  0  0  0  0  0  0  0
   -5.1987   -0.3934   -1.1252 H   0  0  0  0  0  0  0  0  0  0  0  0
   -5.4458    1.2635    1.8975 H   0  0  0  0  0  0  0  0  0  0  0  0
   -3.9473    0.6203    2.7690 H   0  0  0  0  0  0  0  0  0  0  0  0
   -5.3522   -0.5200    2.3745 H   0  0  0  0  0  0  0  0  0  0  0  0
   -2.2236   -0.7052    3.0835 H   0  0  0  0  0  0  0  0  0  0  0  0
   -2.8881   -2.2422    2.3801 H   0  0  0  0  0  0  0  0  0  0  0  0
   -3.3342   -0.5207   -2.6079 H   0  0  0  0  0  0  0  0  0  0  0  0
   -1.6551   -1.1929   -2.8892 H   0  0  0  0  0  0  0  0  0  0  0  0
   -2.7428   -1.8415   -1.5655 H   0  0  0  0  0  0  0  0  0  0  0  0
    0.3869   -0.4121    0.3086 H   0  0  0  0  0  0  0  0  0  0  0  0
    2.6251   -0.4907    0.8987 H   0  0  0  0  0  0  0  0  0  0  0  0
    6.9661    0.3494   -0.1236 H   0  0  0  0  0  0  0  0  0  0  0  0
    8.5876   -0.3169    1.6356 H   0  0  0  0  0  0  0  0  0  0  0  0
    5.3456   -1.6651    3.9737 H   0  0  0  0  0  0  0  0  0  0  0  0
    3.1458    1.1138   -2.5094 H   0  0  0  0  0  0  0  0  0  0  0  0
    1.3249    1.6546   -4.0318 H   0  0  0  0  0  0  0  0  0  0  0  0
   -3.0701    1.4070   -2.3049 H   0  0  0  0  0  0  0  0  0  0  0  0
   -1.8928    2.2440   -1.1696 H   0  0  0  0  0  0  0  0  0  0  0  0
  1  2  1  0
  2  3  1  0
  2  4  1  0
  4  5  1  0
  4  6  2  0
  6  7  1  0
  7  8  1  6
  7  9  1  0
  9 10  2  0
 10 11  1  0
 11 12  1  0
 12 13  1  0
 13 14  2  0
 13 15  1  0
 15 16  2  0
 16 17  1  0
 17 18  2  0
 18 19  1  0
 18 20  1  0
 20 21  2  0
 11 22  2  0
 22 23  1  0
 23 24  2  0
 24 25  1  0
  7 26  1  0
 26 27  1  0
 27 28  2  0
 27 29  2  0
 27  2  1  0
 24  9  1  0
 21 15  1  0
  1 30  1  0
  1 31  1  0
  1 32  1  0
  3 33  1  0
  3 34  1  0
  3 35  1  0
  5 36  1  0
  5 37  1  0
  8 38  1  0
  8 39  1  0
  8 40  1  0
 10 41  1  0
 12 42  1  0
 16 43  1  0
 17 44  1  0
 20 45  1  0
 22 46  1  0
 23 47  1  0
 26 48  1  0
 26 49  1  0
M  END
$$$$
