
     RDKit          3D

 48 52  0  0  0  0  0  0  0  0999 V2000
   -3.7953    5.1989    0.6273 Cl  0  0  0  0  0  0  0  0  0  0  0  0
   -3.2939    3.5302    0.3801 C   0  0  0  0  0  0  0  0  0  0  0  0
   -2.7669    2.7706    1.4137 C   0  0  0  0  0  0  0  0  0  0  0  0
   -2.3671    1.4533    1.2339 C   0  0  0  0  0  0  0  0  0  0  0  0
   -2.4949    0.8636   -0.0230 C   0  0  0  0  0  0  0  0  0  0  0  0
   -3.0160    1.6439   -1.0074 C   0  0  0  0  0  0  0  0  0  0  0  0
   -3.4252    2.9489   -0.8798 C   0  0  0  0  0  0  0  0  0  0  0  0
   -2.0728   -0.5586   -0.2477 C   0  0  0  0  0  0  0  0  0  0  0  0
   -2.8816   -1.4852    0.6201 C   0  0  0  0  0  0  0  0  0  0  0  0
   -3.3250   -2.7224   -0.0869 C   0  0  0  0  0  0  0  0  0  0  0  0
   -2.4952   -3.2099   -1.1230 N   0  0  0  0  0  0  0  0  0  0  0  0
   -1.7892   -2.2767   -1.9172 C   0  0  0  0  0  0  0  0  0  0  0  0
   -2.3561   -0.8793   -1.7021 C   0  0  0  0  0  0  0  0  0  0  0  0
   -0.6286   -0.5981   -0.0371 C   0  0  0  0  0  0  0  0  0  0  0  0
    0.0824    0.2632   -0.8833 C   0  0  0  0  0  0  0  0  0  0  0  0
    1.4574    0.3408   -0.8100 C   0  0  0  0  0  0  0  0  0  0  0  0
    2.1768   -0.4196    0.0908 C   0  0  0  0  0  0  0  0  0  0  0  0
    1.4812   -1.2755    0.9327 C   0  0  0  0  0  0  0  0  0  0  0  0
    0.1149   -1.3306    0.8364 C   0  0  0  0  0  0  0  0  0  0  0  0
    3.6242   -0.4386    0.2768 C   0  0  0  0  0  0  0  0  0  0  0  0
    4.3415    0.7468    0.3264 C   0  0  0  0  0  0  0  0  0  0  0  0
    3.9673    2.0330    0.2328 N   0  0  0  0  0  0  0  0  0  0  0  0
    5.0765    2.8199    0.3470 C   0  0  0  0  0  0  0  0  0  0  0  0
    6.1139    1.9785    0.5098 N   0  0  0  0  0  0  0  0  0  0  0  0
    5.7283    0.6903    0.5060 C   0  0  0  0  0  0  0  0  0  0  0  0
    6.3530   -0.4923    0.6281 N   0  0  0  0  0  0  0  0  0  0  0  0
    5.6364   -1.6405    0.5773 C   0  0  0  0  0  0  0  0  0  0  0  0
    4.2841   -1.6089    0.4030 N   0  0  0  0  0  0  0  0  0  0  0  0
   -2.6666    3.2383    2.4053 H   0  0  0  0  0  0  0  0  0  0  0  0
   -1.9513    0.8507    2.0450 H   0  0  0  0  0  0  0  0  0  0  0  0
   -3.1394    1.2414   -2.0044 H   0  0  0  0  0  0  0  0  0  0  0  0
   -3.8276    3.5168   -1.6849 H   0  0  0  0  0  0  0  0  0  0  0  0
   -3.8224   -0.9129    0.8858 H   0  0  0  0  0  0  0  0  0  0  0  0
   -2.4352   -1.6887    1.6163 H   0  0  0  0  0  0  0  0  0  0  0  0
   -3.3562   -3.5311    0.7030 H   0  0  0  0  0  0  0  0  0  0  0  0
   -4.4080   -2.6469   -0.3927 H   0  0  0  0  0  0  0  0  0  0  0  0
   -2.0925   -4.1434   -1.0282 H   0  0  0  0  0  0  0  0  0  0  0  0
   -0.6993   -2.2510   -1.6724 H   0  0  0  0  0  0  0  0  0  0  0  0
   -1.8741   -2.4886   -2.9975 H   0  0  0  0  0  0  0  0  0  0  0  0
   -3.4401   -0.8854   -1.9126 H   0  0  0  0  0  0  0  0  0  0  0  0
   -1.7764   -0.2266   -2.3821 H   0  0  0  0  0  0  0  0  0  0  0  0
   -0.2829    0.9388   -1.6507 H   0  0  0  0  0  0  0  0  0  0  0  0
    2.1007    0.9689   -1.4135 H   0  0  0  0  0  0  0  0  0  0  0  0
    1.9645   -1.9041    1.6649 H   0  0  0  0  0  0  0  0  0  0  0  0
   -0.4413   -1.9839    1.4746 H   0  0  0  0  0  0  0  0  0  0  0  0
    5.1484    3.9146    0.3174 H   0  0  0  0  0  0  0  0  0  0  0  0
    7.1174    2.2386    0.6292 H   0  0  0  0  0  0  0  0  0  0  0  0
    6.1524   -2.5912    0.6772 H   0  0  0  0  0  0  0  0  0  0  0  0
  1  2  1  0
  2  3  2  0
  3  4  1  0
  4  5  2  0
  5  6  1  0
  6  7  2  0
  5  8  1  0
  8  9  1  0
  9 10  1  0
 10 11  1  0
 11 12  1  0
 12 13  1  0
  8 14  1  0
 14 15  2  0
 15 16  1  0
 16 17  2  0
 17 18  1  0
 18 19  2  0
 17 20  1  0
 20 21  2  0
 21 22  1  0
 22 23  2  0
 23 24  1  0
 24 25  1  0
 25 26  2  0
 26 27  1  0
 27 28  2  0
  7  2  1  0
 13  8  1  0
 19 14  1  0
 28 20  1  0
 25 21  1  0
  3 29  1  0
  4 30  1  0
  6 31  1  0
  7 32  1  0
  9 33  1  0
  9 34  1  0
 10 35  1  0
 10 36  1  0
 11 37  1  0
 12 38  1  0
 12 39  1  0
 13 40  1  0
 13 41  1  0
 15 42  1  0
 16 43  1  0
 18 44  1  0
 19 45  1  0
 23 46  1  0
 24 47  1  0
 27 48  1  0
M  END
$$$$
