
     RDKit          3D

 34 35  0  0  0  0  0  0  0  0999 V2000
    6.5502    0.8272   -0.1973 N   0  0  0  0  0  0  0  0  0  0  0  0
    5.4934    0.1911    1.0058 S   0  0  0  0  0  0  0  0  0  0  0  0
    5.9614   -1.2239    1.2767 O   0  0  0  0  0  0  0  0  0  0  0  0
    5.6041    1.0344    2.2458 O   0  0  0  0  0  0  0  0  0  0  0  0
    3.8462    0.1614    0.4828 C   0  0  0  0  0  0  0  0  0  0  0  0
    3.2056   -0.8959   -0.1250 C   0  0  0  0  0  0  0  0  0  0  0  0
    1.8926   -0.7550   -0.4818 C   0  0  0  0  0  0  0  0  0  0  0  0
    1.1256    0.3639   -0.2921 C   0  0  0  0  0  0  0  0  0  0  0  0
    1.7833    1.3991    0.3123 C   0  0  0  0  0  0  0  0  0  0  0  0
    3.1048    1.3050    0.6907 C   0  0  0  0  0  0  0  0  0  0  0  0
   -0.2674    0.5430   -0.6516 C   0  0  0  0  0  0  0  0  0  0  0  0
   -0.8175    1.6577   -0.4781 O   0  0  0  0  0  0  0  0  0  0  0  0
   -1.1089   -0.4314   -1.1957 N   0  0  0  0  0  0  0  0  0  0  0  0
   -2.4630   -0.6082   -1.6505 C   0  0  0  0  0  0  0  0  0  0  0  0
   -3.5085   -0.3964   -0.6258 C   0  0  0  0  0  0  0  0  0  0  0  0
   -4.0981    0.7554   -0.1656 C   0  0  0  0  0  0  0  0  0  0  0  0
   -3.7256    1.9055   -0.7662 F   0  0  0  0  0  0  0  0  0  0  0  0
   -5.0428    0.7583    0.8344 C   0  0  0  0  0  0  0  0  0  0  0  0
   -5.4634   -0.4219    1.4467 C   0  0  0  0  0  0  0  0  0  0  0  0
   -6.3972   -0.2390    2.4080 F   0  0  0  0  0  0  0  0  0  0  0  0
   -4.8700   -1.5885    0.9833 C   0  0  0  0  0  0  0  0  0  0  0  0
   -3.9283   -1.5649   -0.0166 C   0  0  0  0  0  0  0  0  0  0  0  0
   -3.5049   -2.8456   -0.2826 F   0  0  0  0  0  0  0  0  0  0  0  0
    6.1860    0.6898   -1.1600 H   0  0  0  0  0  0  0  0  0  0  0  0
    6.8944    1.7881    0.0149 H   0  0  0  0  0  0  0  0  0  0  0  0
    3.7832   -1.7923   -0.2892 H   0  0  0  0  0  0  0  0  0  0  0  0
    1.4240   -1.6195   -0.9614 H   0  0  0  0  0  0  0  0  0  0  0  0
    1.2474    2.3354    0.5042 H   0  0  0  0  0  0  0  0  0  0  0  0
    3.5468    2.1878    1.1685 H   0  0  0  0  0  0  0  0  0  0  0  0
   -0.5373   -1.3362   -1.2951 H   0  0  0  0  0  0  0  0  0  0  0  0
   -2.5740   -1.5884   -2.1466 H   0  0  0  0  0  0  0  0  0  0  0  0
   -2.6464    0.1184   -2.5269 H   0  0  0  0  0  0  0  0  0  0  0  0
   -5.4376    1.7499    1.1117 H   0  0  0  0  0  0  0  0  0  0  0  0
   -5.2582   -2.4642    1.5183 H   0  0  0  0  0  0  0  0  0  0  0  0
  1  2  1  0
  2  3  2  0
  2  4  2  0
  2  5  1  0
  5  6  2  0
  6  7  1  0
  7  8  2  0
  8  9  1  0
  9 10  2  0
  8 11  1  0
 11 12  2  0
 11 13  1  0
 13 14  1  0
 14 15  1  0
 15 16  2  0
 16 17  1  0
 16 18  1  0
 18 19  2  0
 19 20  1  0
 19 21  1  0
 21 22  2  0
 22 23  1  0
 10  5  1  0
 22 15  1  0
  1 24  1  0
  1 25  1  0
  6 26  1  0
  7 27  1  0
  9 28  1  0
 10 29  1  0
 13 30  1  0
 14 31  1  0
 14 32  1  0
 18 33  1  0
 21 34  1  0
M  END
$$$$
