
     RDKit          3D

 67 71  0  0  0  0  0  0  0  0999 V2000
   -3.1360   -5.2705   -1.6940 C   0  0  0  0  0  0  0  0  0  0  0  0
   -3.1113   -3.9723   -0.8410 C   0  0  0  0  0  0  0  0  0  0  0  0
   -3.0866   -3.0151   -0.1889 C   0  0  0  0  0  0  0  0  0  0  0  0
   -3.0465   -1.8442    0.6100 C   0  0  2  0  0  0  0  0  0  0  0  0
   -3.2162   -2.2456    2.0026 O   0  0  0  0  0  0  0  0  0  0  0  0
   -4.2885   -0.9913    0.3578 C   0  0  0  0  0  0  0  0  0  0  0  0
   -3.7901    0.3632    0.9484 C   0  0  0  0  0  0  0  0  0  0  0  0
   -2.5076    0.4209    0.2386 C   0  0  1  0  0  0  0  0  0  0  0  0
   -1.4841    1.4076    0.5723 C   0  0  2  0  0  0  0  0  0  0  0  0
   -1.9266    2.8253    0.7692 C   0  0  0  0  0  0  0  0  0  0  0  0
   -2.2599    3.5233   -0.4954 C   0  0  0  0  0  0  0  0  0  0  0  0
   -0.9334    3.6406   -1.2225 C   0  0  0  0  0  0  0  0  0  0  0  0
   -0.4502    4.7373   -1.6701 C   0  0  0  0  0  0  0  0  0  0  0  0
    0.8588    4.7154   -2.3661 C   0  0  0  0  0  0  0  0  0  0  0  0
    1.1971    5.6758   -3.0459 O   0  0  0  0  0  0  0  0  0  0  0  0
    1.7135    3.4788   -2.1886 C   0  0  0  0  0  0  0  0  0  0  0  0
    0.7423    2.3295   -2.4905 C   0  0  0  0  0  0  0  0  0  0  0  0
   -0.2271    2.3454   -1.3498 C   0  0  0  0  0  0  0  0  0  0  0  0
   -0.4969    1.2959   -0.5913 C   0  0  0  0  0  0  0  0  0  0  0  0
    0.0304   -0.0292   -0.8878 C   0  0  1  0  0  0  0  0  0  0  0  0
    1.3260   -0.4031   -0.2772 C   0  0  0  0  0  0  0  0  0  0  0  0
    1.8890   -1.6283   -0.3930 C   0  0  0  0  0  0  0  0  0  0  0  0
    3.0810   -1.9542    0.1743 C   0  0  0  0  0  0  0  0  0  0  0  0
    3.8028   -0.9832    0.9255 C   0  0  0  0  0  0  0  0  0  0  0  0
    5.0116   -1.3073    1.5331 N   0  0  0  0  0  0  0  0  0  0  0  0
    5.8041   -0.3392    2.2361 C   0  0  0  0  0  0  0  0  0  0  0  0
    5.5030   -2.6732    1.4685 C   0  0  0  0  0  0  0  0  0  0  0  0
    3.2406    0.2814    1.0486 C   0  0  0  0  0  0  0  0  0  0  0  0
    2.0161    0.5327    0.4454 C   0  0  0  0  0  0  0  0  0  0  0  0
   -0.9552   -1.1642   -0.6464 C   0  0  0  0  0  0  0  0  0  0  0  0
   -1.8760   -0.9560    0.5097 C   0  0  2  0  0  0  0  0  0  0  0  0
   -1.1469   -1.0068    1.8386 C   0  0  0  0  0  0  0  0  0  0  0  0
   -3.3810   -6.0888   -0.9429 H   0  0  0  0  0  0  0  0  0  0  0  0
   -2.1296   -5.3798   -2.0494 H   0  0  0  0  0  0  0  0  0  0  0  0
   -3.9487   -5.2433   -2.4067 H   0  0  0  0  0  0  0  0  0  0  0  0
   -3.6890   -3.1433    1.9732 H   0  0  0  0  0  0  0  0  0  0  0  0
   -5.1833   -1.3448    0.8525 H   0  0  0  0  0  0  0  0  0  0  0  0
   -4.3486   -0.8612   -0.7394 H   0  0  0  0  0  0  0  0  0  0  0  0
   -3.7538    0.3298    2.0333 H   0  0  0  0  0  0  0  0  0  0  0  0
   -4.4999    1.1235    0.5219 H   0  0  0  0  0  0  0  0  0  0  0  0
   -2.7389    0.4082   -0.8717 H   0  0  0  0  0  0  0  0  0  0  0  0
   -0.8506    1.1313    1.4367 H   0  0  0  0  0  0  0  0  0  0  0  0
   -1.0490    3.3752    1.2108 H   0  0  0  0  0  0  0  0  0  0  0  0
   -2.7627    2.8573    1.4553 H   0  0  0  0  0  0  0  0  0  0  0  0
   -2.9556    2.8993   -1.1172 H   0  0  0  0  0  0  0  0  0  0  0  0
   -2.6628    4.5132   -0.2855 H   0  0  0  0  0  0  0  0  0  0  0  0
   -1.0131    5.6756   -1.5560 H   0  0  0  0  0  0  0  0  0  0  0  0
    1.9737    3.3589   -1.1384 H   0  0  0  0  0  0  0  0  0  0  0  0
    2.5259    3.5623   -2.9133 H   0  0  0  0  0  0  0  0  0  0  0  0
    0.2369    2.5798   -3.4351 H   0  0  0  0  0  0  0  0  0  0  0  0
    1.2973    1.3961   -2.6218 H   0  0  0  0  0  0  0  0  0  0  0  0
    0.2184   -0.1180   -2.0017 H   0  0  0  0  0  0  0  0  0  0  0  0
    1.3894   -2.4062   -0.9551 H   0  0  0  0  0  0  0  0  0  0  0  0
    3.5529   -2.9166    0.0957 H   0  0  0  0  0  0  0  0  0  0  0  0
    6.4280   -0.8631    3.0322 H   0  0  0  0  0  0  0  0  0  0  0  0
    6.5623    0.0749    1.4960 H   0  0  0  0  0  0  0  0  0  0  0  0
    5.2877    0.4979    2.6853 H   0  0  0  0  0  0  0  0  0  0  0  0
    6.5263   -2.7601    1.8578 H   0  0  0  0  0  0  0  0  0  0  0  0
    4.7920   -3.3583    1.9805 H   0  0  0  0  0  0  0  0  0  0  0  0
    5.5358   -2.9544    0.3831 H   0  0  0  0  0  0  0  0  0  0  0  0
    3.7588    1.0441    1.6060 H   0  0  0  0  0  0  0  0  0  0  0  0
    1.6152    1.5695    0.5751 H   0  0  0  0  0  0  0  0  0  0  0  0
   -0.4577   -2.1272   -0.4769 H   0  0  0  0  0  0  0  0  0  0  0  0
   -1.5923   -1.3079   -1.5709 H   0  0  0  0  0  0  0  0  0  0  0  0
   -1.5541   -0.2990    2.5698 H   0  0  0  0  0  0  0  0  0  0  0  0
   -1.3526   -2.0142    2.2881 H   0  0  0  0  0  0  0  0  0  0  0  0
   -0.0546   -1.0003    1.6985 H   0  0  0  0  0  0  0  0  0  0  0  0
  1  2  1  0
  2  3  3  0
  4  3  1  6
  4  5  1  0
  4  6  1  0
  6  7  1  0
  7  8  1  0
  8  9  1  0
  9 10  1  0
 10 11  1  0
 11 12  1  0
 12 13  2  0
 13 14  1  0
 14 15  2  0
 14 16  1  0
 16 17  1  0
 17 18  1  0
 18 19  2  0
 19 20  1  0
 20 21  1  0
 21 22  2  0
 22 23  1  0
 23 24  2  0
 24 25  1  0
 25 26  1  0
 25 27  1  0
 24 28  1  0
 28 29  2  0
 20 30  1  0
 30 31  1  0
 31 32  1  1
 31  4  1  0
 31  8  1  0
 19  9  1  0
 29 21  1  0
 18 12  1  0
  1 33  1  0
  1 34  1  0
  1 35  1  0
  5 36  1  0
  6 37  1  0
  6 38  1  0
  7 39  1  0
  7 40  1  0
  8 41  1  6
  9 42  1  1
 10 43  1  0
 10 44  1  0
 11 45  1  0
 11 46  1  0
 13 47  1  0
 16 48  1  0
 16 49  1  0
 17 50  1  0
 17 51  1  0
 20 52  1  6
 22 53  1  0
 23 54  1  0
 26 55  1  0
 26 56  1  0
 26 57  1  0
 27 58  1  0
 27 59  1  0
 27 60  1  0
 28 61  1  0
 29 62  1  0
 30 63  1  0
 30 64  1  0
 32 65  1  0
 32 66  1  0
 32 67  1  0
M  END
$$$$
