
     RDKit          3D

 44 47  0  0  0  0  0  0  0  0999 V2000
   -1.5121   -1.1615    1.5591 O   0  0  0  0  0  0  0  0  0  0  0  0
   -1.8690   -0.5982    0.3434 C   0  0  2  0  0  0  0  0  0  0  0  0
   -3.2300   -0.0196    0.5151 C   0  0  0  0  0  0  0  0  0  0  0  0
   -3.6937    0.3809    1.7578 C   0  0  0  0  0  0  0  0  0  0  0  0
   -4.9295    0.9409    1.9738 C   0  0  0  0  0  0  0  0  0  0  0  0
   -5.7420    1.1014    0.8532 C   0  0  0  0  0  0  0  0  0  0  0  0
   -6.9734    1.6461    1.0034 F   0  0  0  0  0  0  0  0  0  0  0  0
   -5.2860    0.7033   -0.3911 C   0  0  0  0  0  0  0  0  0  0  0  0
   -6.0685    0.8573   -1.5042 F   0  0  0  0  0  0  0  0  0  0  0  0
   -4.0401    0.1438   -0.5835 C   0  0  0  0  0  0  0  0  0  0  0  0
   -1.7881   -1.6162   -0.7279 C   0  0  0  0  0  0  0  0  0  0  0  0
   -1.3754   -1.2323   -2.0738 C   0  0  0  0  0  0  0  0  0  0  0  0
   -0.9038    0.0686   -2.3234 N   0  0  0  0  0  0  0  0  0  0  0  0
   -1.0373    1.0571   -1.3317 C   0  0  0  0  0  0  0  0  0  0  0  0
   -0.8411    0.4890    0.0814 C   0  0  2  0  0  0  0  0  0  0  0  0
    0.4959   -0.1511    0.0705 C   0  0  0  0  0  0  0  0  0  0  0  0
    0.8359   -1.3801   -0.1402 O   0  0  0  0  0  0  0  0  0  0  0  0
    2.1409   -1.5606   -0.0623 N   0  0  0  0  0  0  0  0  0  0  0  0
    2.7427   -0.3859    0.2201 C   0  0  0  0  0  0  0  0  0  0  0  0
    4.1633   -0.1183    0.3988 C   0  0  0  0  0  0  0  0  0  0  0  0
    4.6400    0.4971    1.5332 C   0  0  0  0  0  0  0  0  0  0  0  0
    5.9865    0.7262    1.6595 C   0  0  0  0  0  0  0  0  0  0  0  0
    6.9249    0.3768    0.7089 C   0  0  0  0  0  0  0  0  0  0  0  0
    6.4367   -0.2485   -0.4419 C   0  0  0  0  0  0  0  0  0  0  0  0
    7.6129   -0.7024   -1.6668 Cl  0  0  0  0  0  0  0  0  0  0  0  0
    5.0942   -0.4758   -0.5661 C   0  0  0  0  0  0  0  0  0  0  0  0
    4.5774   -1.2706   -2.0590 Cl  0  0  0  0  0  0  0  0  0  0  0  0
    1.7022    0.5258    0.3065 C   0  0  0  0  0  0  0  0  0  0  0  0
    1.8618    2.3651    0.6781 Br  0  0  0  0  0  0  0  0  0  0  0  0
   -2.1883   -1.8084    1.8174 H   0  0  0  0  0  0  0  0  0  0  0  0
   -3.0752    0.2633    2.6651 H   0  0  0  0  0  0  0  0  0  0  0  0
   -5.3141    1.2586    2.9287 H   0  0  0  0  0  0  0  0  0  0  0  0
   -3.7188   -0.1470   -1.5833 H   0  0  0  0  0  0  0  0  0  0  0  0
   -2.8305   -2.0647   -0.7935 H   0  0  0  0  0  0  0  0  0  0  0  0
   -1.1966   -2.5065   -0.3401 H   0  0  0  0  0  0  0  0  0  0  0  0
   -0.5562   -1.9412   -2.4132 H   0  0  0  0  0  0  0  0  0  0  0  0
   -2.1724   -1.4556   -2.8470 H   0  0  0  0  0  0  0  0  0  0  0  0
   -0.0893    0.1117   -2.9401 H   0  0  0  0  0  0  0  0  0  0  0  0
   -0.2125    1.7920   -1.4543 H   0  0  0  0  0  0  0  0  0  0  0  0
   -1.9753    1.6551   -1.3629 H   0  0  0  0  0  0  0  0  0  0  0  0
   -0.8994    1.2978    0.8124 H   0  0  0  0  0  0  0  0  0  0  0  0
    3.9734    0.8041    2.3322 H   0  0  0  0  0  0  0  0  0  0  0  0
    6.3510    1.2144    2.5636 H   0  0  0  0  0  0  0  0  0  0  0  0
    7.9789    0.5681    0.8350 H   0  0  0  0  0  0  0  0  0  0  0  0
  2  1  1  1
  2  3  1  0
  3  4  2  0
  4  5  1  0
  5  6  2  0
  6  7  1  0
  6  8  1  0
  8  9  1  0
  8 10  2  0
  2 11  1  0
 11 12  1  0
 12 13  1  0
 13 14  1  0
 14 15  1  0
 15 16  1  0
 16 17  1  0
 17 18  1  0
 18 19  2  0
 19 20  1  0
 20 21  2  0
 21 22  1  0
 22 23  2  0
 23 24  1  0
 24 25  1  0
 24 26  2  0
 26 27  1  0
 19 28  1  0
 28 29  1  0
 15  2  1  0
 28 16  2  0
 10  3  1  0
 26 20  1  0
  1 30  1  0
  4 31  1  0
  5 32  1  0
 10 33  1  0
 11 34  1  0
 11 35  1  0
 12 36  1  0
 12 37  1  0
 13 38  1  0
 14 39  1  0
 14 40  1  0
 15 41  1  1
 21 42  1  0
 22 43  1  0
 23 44  1  0
M  END
$$$$
