
     RDKit          3D

 40 43  0  0  0  0  0  0  0  0999 V2000
    7.0872    0.5190   -0.4315 C   0  0  0  0  0  0  0  0  0  0  0  0
    5.6459    0.3674   -0.5222 N   0  0  0  0  0  0  0  0  0  0  0  0
    4.8826    0.2854    0.6565 C   0  0  0  0  0  0  0  0  0  0  0  0
    5.4881    0.3478    1.7783 O   0  0  0  0  0  0  0  0  0  0  0  0
    3.4390    0.1335    0.5935 C   0  0  0  0  0  0  0  0  0  0  0  0
    2.7301    0.0583    1.7978 C   0  0  0  0  0  0  0  0  0  0  0  0
    1.3667   -0.0855    1.8475 C   0  0  0  0  0  0  0  0  0  0  0  0
    0.6692   -0.1587    0.6682 C   0  0  0  0  0  0  0  0  0  0  0  0
   -0.7169   -0.3049    0.6353 C   0  0  0  0  0  0  0  0  0  0  0  0
   -1.4278   -0.3796   -0.5240 C   0  0  0  0  0  0  0  0  0  0  0  0
   -2.8918   -0.5346   -0.5957 C   0  0  1  0  0  0  0  0  0  0  0  0
   -3.3196   -0.8140   -1.8707 O   0  0  0  0  0  0  0  0  0  0  0  0
   -3.3899   -1.6632    0.3060 C   0  0  0  0  0  0  0  0  0  0  0  0
   -4.8767   -1.2849    0.3770 C   0  0  0  0  0  0  0  0  0  0  0  0
   -4.7777    0.1542    0.5055 N   0  0  0  0  0  0  0  0  0  0  0  0
   -5.4309    1.2215    0.9917 C   0  0  0  0  0  0  0  0  0  0  0  0
   -4.7213    2.3212    0.7488 N   0  0  0  0  0  0  0  0  0  0  0  0
   -3.6035    1.9640    0.1024 C   0  0  0  0  0  0  0  0  0  0  0  0
   -3.6405    0.6121   -0.0484 C   0  0  0  0  0  0  0  0  0  0  0  0
   -0.7321   -0.3058   -1.7239 C   0  0  0  0  0  0  0  0  0  0  0  0
    0.6354   -0.1615   -1.7546 C   0  0  0  0  0  0  0  0  0  0  0  0
    1.3146   -0.0902   -0.5457 C   0  0  0  0  0  0  0  0  0  0  0  0
    2.7074    0.0567   -0.5507 C   0  0  0  0  0  0  0  0  0  0  0  0
    7.4748   -0.2232    0.2732 H   0  0  0  0  0  0  0  0  0  0  0  0
    7.5734    0.4725   -1.4229 H   0  0  0  0  0  0  0  0  0  0  0  0
    7.3076    1.5234   -0.0116 H   0  0  0  0  0  0  0  0  0  0  0  0
    5.2130    0.3230   -1.4501 H   0  0  0  0  0  0  0  0  0  0  0  0
    3.3009    0.1184    2.7209 H   0  0  0  0  0  0  0  0  0  0  0  0
    0.8118   -0.1440    2.7814 H   0  0  0  0  0  0  0  0  0  0  0  0
   -1.2583   -0.3622    1.5703 H   0  0  0  0  0  0  0  0  0  0  0  0
   -3.8233   -0.0449   -2.2339 H   0  0  0  0  0  0  0  0  0  0  0  0
   -3.0127   -1.5370    1.3433 H   0  0  0  0  0  0  0  0  0  0  0  0
   -3.2334   -2.6528   -0.1204 H   0  0  0  0  0  0  0  0  0  0  0  0
   -5.3164   -1.4970   -0.6269 H   0  0  0  0  0  0  0  0  0  0  0  0
   -5.3945   -1.7732    1.1983 H   0  0  0  0  0  0  0  0  0  0  0  0
   -6.3915    1.1871    1.5041 H   0  0  0  0  0  0  0  0  0  0  0  0
   -2.8573    2.7027   -0.2060 H   0  0  0  0  0  0  0  0  0  0  0  0
   -1.2453   -0.3599   -2.6902 H   0  0  0  0  0  0  0  0  0  0  0  0
    1.2039   -0.1008   -2.6727 H   0  0  0  0  0  0  0  0  0  0  0  0
    3.2099    0.1098   -1.5034 H   0  0  0  0  0  0  0  0  0  0  0  0
  1  2  1  0
  2  3  1  0
  3  4  2  0
  3  5  1  0
  5  6  2  0
  6  7  1  0
  7  8  2  0
  8  9  1  0
  9 10  2  0
 10 11  1  0
 11 12  1  6
 11 13  1  0
 13 14  1  0
 14 15  1  0
 15 16  1  0
 16 17  2  0
 17 18  1  0
 18 19  2  0
 10 20  1  0
 20 21  2  0
 21 22  1  0
 22 23  2  0
 23  5  1  0
 22  8  1  0
 19 11  1  0
 19 15  1  0
  1 24  1  0
  1 25  1  0
  1 26  1  0
  2 27  1  0
  6 28  1  0
  7 29  1  0
  9 30  1  0
 12 31  1  0
 13 32  1  0
 13 33  1  0
 14 34  1  0
 14 35  1  0
 16 36  1  0
 18 37  1  0
 20 38  1  0
 21 39  1  0
 23 40  1  0
M  END
$$$$
