
     RDKit          3D

 43 45  0  0  0  0  0  0  0  0999 V2000
    1.5020   -0.8266    0.8851 O   0  0  0  0  0  0  0  0  0  0  0  0
    0.8118   -0.1040    0.1271 C   0  0  0  0  0  0  0  0  0  0  0  0
    1.4886    0.6652   -0.8524 N   0  0  0  0  0  0  0  0  0  0  0  0
    2.9025    0.5797   -0.9256 C   0  0  0  0  0  0  0  0  0  0  0  0
    3.4588   -0.3809   -1.7495 C   0  0  0  0  0  0  0  0  0  0  0  0
    4.8134   -0.5215   -1.8700 C   0  0  0  0  0  0  0  0  0  0  0  0
    5.6480    0.3125   -1.1546 C   0  0  0  0  0  0  0  0  0  0  0  0
    7.0201    0.1807   -1.2675 O   0  0  0  0  0  0  0  0  0  0  0  0
    7.6831   -0.6910   -0.3801 C   0  0  0  0  0  0  0  0  0  0  0  0
    7.1541   -1.9669   -0.5738 F   0  0  0  0  0  0  0  0  0  0  0  0
    7.5365   -0.2956    0.9269 F   0  0  0  0  0  0  0  0  0  0  0  0
    9.0356   -0.7597   -0.6482 F   0  0  0  0  0  0  0  0  0  0  0  0
    5.1128    1.2799   -0.3249 C   0  0  0  0  0  0  0  0  0  0  0  0
    3.7453    1.4187   -0.2059 C   0  0  0  0  0  0  0  0  0  0  0  0
   -0.6013   -0.0888    0.2822 N   0  0  0  0  0  0  0  0  0  0  0  0
   -1.3515    0.7761   -0.6343 C   0  0  0  0  0  0  0  0  0  0  0  0
   -2.6821    1.0134    0.0507 C   0  0  0  0  0  0  0  0  0  0  0  0
   -3.3635   -0.3613    0.0874 C   0  0  0  0  0  0  0  0  0  0  0  0
   -4.7555   -0.1083    0.4695 N   0  0  0  0  0  0  0  0  0  0  0  0
   -5.7896   -0.9545    0.3107 C   0  0  0  0  0  0  0  0  0  0  0  0
   -6.9519   -0.3878    0.7819 C   0  0  0  0  0  0  0  0  0  0  0  0
   -6.6255    0.8591    1.2514 C   0  0  0  0  0  0  0  0  0  0  0  0
   -5.2685    0.9935    1.0420 C   0  0  0  0  0  0  0  0  0  0  0  0
   -2.6496   -1.1929    1.1092 C   0  0  0  0  0  0  0  0  0  0  0  0
   -1.2124   -0.8839    1.2838 C   0  0  0  0  0  0  0  0  0  0  0  0
    0.9602    1.2792   -1.5035 H   0  0  0  0  0  0  0  0  0  0  0  0
    2.8057   -1.0284   -2.3051 H   0  0  0  0  0  0  0  0  0  0  0  0
    5.2135   -1.2848   -2.5248 H   0  0  0  0  0  0  0  0  0  0  0  0
    5.7784    1.9274    0.2306 H   0  0  0  0  0  0  0  0  0  0  0  0
    3.3304    2.1715    0.4397 H   0  0  0  0  0  0  0  0  0  0  0  0
   -0.8740    1.7631   -0.7504 H   0  0  0  0  0  0  0  0  0  0  0  0
   -1.5288    0.2885   -1.6001 H   0  0  0  0  0  0  0  0  0  0  0  0
   -3.2977    1.7689   -0.4339 H   0  0  0  0  0  0  0  0  0  0  0  0
   -2.4696    1.2465    1.1311 H   0  0  0  0  0  0  0  0  0  0  0  0
   -3.3121   -0.7844   -0.9360 H   0  0  0  0  0  0  0  0  0  0  0  0
   -5.7179   -1.9499   -0.1295 H   0  0  0  0  0  0  0  0  0  0  0  0
   -7.9370   -0.8016    0.7986 H   0  0  0  0  0  0  0  0  0  0  0  0
   -7.2659    1.6136    1.7003 H   0  0  0  0  0  0  0  0  0  0  0  0
   -4.6609    1.8704    1.2979 H   0  0  0  0  0  0  0  0  0  0  0  0
   -2.7617   -2.2586    0.8206 H   0  0  0  0  0  0  0  0  0  0  0  0
   -3.2336   -1.0881    2.0704 H   0  0  0  0  0  0  0  0  0  0  0  0
   -0.5970   -1.8260    1.3879 H   0  0  0  0  0  0  0  0  0  0  0  0
   -1.0929   -0.3800    2.2851 H   0  0  0  0  0  0  0  0  0  0  0  0
  1  2  2  0
  2  3  1  0
  3  4  1  0
  4  5  2  0
  5  6  1  0
  6  7  2  0
  7  8  1  0
  8  9  1  0
  9 10  1  0
  9 11  1  0
  9 12  1  0
  7 13  1  0
 13 14  2  0
  2 15  1  0
 15 16  1  0
 16 17  1  0
 17 18  1  0
 18 19  1  0
 19 20  1  0
 20 21  2  0
 21 22  1  0
 22 23  2  0
 18 24  1  0
 24 25  1  0
 14  4  1  0
 25 15  1  0
 23 19  1  0
  3 26  1  0
  5 27  1  0
  6 28  1  0
 13 29  1  0
 14 30  1  0
 16 31  1  0
 16 32  1  0
 17 33  1  0
 17 34  1  0
 18 35  1  0
 20 36  1  0
 21 37  1  0
 22 38  1  0
 23 39  1  0
 24 40  1  0
 24 41  1  0
 25 42  1  0
 25 43  1  0
M  END
$$$$
