
     RDKit          3D

 49 50  0  0  0  0  0  0  0  0999 V2000
   -4.3982    1.5954   -0.3638 C   0  0  0  0  0  0  0  0  0  0  0  0
   -3.3778    0.5699   -0.0860 N   0  0  0  0  0  4  0  0  0  0  0  0
   -2.2563    0.9266   -0.8942 C   0  0  0  0  0  0  0  0  0  0  0  0
   -1.0056    0.1226   -0.6544 C   0  0  0  0  0  0  0  0  0  0  0  0
    0.0360    0.6774   -1.6174 C   0  0  0  0  0  0  0  0  0  0  0  0
    1.3498   -0.0333   -1.4927 C   0  0  0  0  0  0  0  0  0  0  0  0
    1.9421    0.0807   -0.1042 C   0  0  0  0  0  0  0  0  0  0  0  0
    3.2202   -0.6146    0.0048 N   0  0  0  0  0  4  0  0  0  0  0  0
    3.1294   -1.9188   -0.6221 C   0  0  0  0  0  0  0  0  0  0  0  0
    4.3031    0.0840   -0.6434 C   0  0  0  0  0  0  0  0  0  0  0  0
    5.0020    0.9167    0.4073 C   0  0  0  0  0  0  0  0  0  0  0  0
    4.5281    0.3768    1.7256 C   0  0  0  0  0  0  0  0  0  0  0  0
    3.5684   -0.7446    1.3944 C   0  0  0  0  0  0  0  0  0  0  0  0
   -4.0115   -0.6798   -0.4784 C   0  0  0  0  0  0  0  0  0  0  0  0
   -4.7584   -1.1165    0.7682 C   0  0  0  0  0  0  0  0  0  0  0  0
   -3.6917   -0.8289    1.8185 C   0  0  0  0  0  0  0  0  0  0  0  0
   -3.1538    0.5161    1.3211 C   0  0  0  0  0  0  0  0  0  0  0  0
   -5.4198    1.2083   -0.1835 H   0  0  0  0  0  0  0  0  0  0  0  0
   -4.1792    2.4638    0.2990 H   0  0  0  0  0  0  0  0  0  0  0  0
   -4.3315    1.8492   -1.4394 H   0  0  0  0  0  0  0  0  0  0  0  0
   -2.5908    0.8671   -1.9509 H   0  0  0  0  0  0  0  0  0  0  0  0
   -2.0490    2.0029   -0.7221 H   0  0  0  0  0  0  0  0  0  0  0  0
   -1.1461   -0.9501   -0.7302 H   0  0  0  0  0  0  0  0  0  0  0  0
   -0.6150    0.3770    0.3535 H   0  0  0  0  0  0  0  0  0  0  0  0
   -0.3587    0.4424   -2.6336 H   0  0  0  0  0  0  0  0  0  0  0  0
    0.0738    1.7626   -1.5165 H   0  0  0  0  0  0  0  0  0  0  0  0
    1.2361   -1.0624   -1.8231 H   0  0  0  0  0  0  0  0  0  0  0  0
    2.0489    0.4718   -2.1905 H   0  0  0  0  0  0  0  0  0  0  0  0
    2.0495    1.1266    0.2156 H   0  0  0  0  0  0  0  0  0  0  0  0
    1.2455   -0.4288    0.5917 H   0  0  0  0  0  0  0  0  0  0  0  0
    4.0496   -2.4688   -0.2757 H   0  0  0  0  0  0  0  0  0  0  0  0
    2.1932   -2.4602   -0.3805 H   0  0  0  0  0  0  0  0  0  0  0  0
    3.2353   -1.8620   -1.7239 H   0  0  0  0  0  0  0  0  0  0  0  0
    3.9289    0.7423   -1.4424 H   0  0  0  0  0  0  0  0  0  0  0  0
    5.0296   -0.6287   -1.1132 H   0  0  0  0  0  0  0  0  0  0  0  0
    6.1026    0.8448    0.2681 H   0  0  0  0  0  0  0  0  0  0  0  0
    4.7306    1.9887    0.2671 H   0  0  0  0  0  0  0  0  0  0  0  0
    3.9676    1.1880    2.2414 H   0  0  0  0  0  0  0  0  0  0  0  0
    5.3595    0.0585    2.3880 H   0  0  0  0  0  0  0  0  0  0  0  0
    2.6806   -0.6971    2.0797 H   0  0  0  0  0  0  0  0  0  0  0  0
    4.0736   -1.7048    1.6453 H   0  0  0  0  0  0  0  0  0  0  0  0
   -4.7369   -0.5380   -1.2995 H   0  0  0  0  0  0  0  0  0  0  0  0
   -3.3103   -1.4610   -0.7729 H   0  0  0  0  0  0  0  0  0  0  0  0
   -5.6354   -0.4844    0.9776 H   0  0  0  0  0  0  0  0  0  0  0  0
   -5.0705   -2.1617    0.7332 H   0  0  0  0  0  0  0  0  0  0  0  0
   -4.1120   -0.7671    2.8300 H   0  0  0  0  0  0  0  0  0  0  0  0
   -2.9367   -1.6318    1.7739 H   0  0  0  0  0  0  0  0  0  0  0  0
   -2.1392    0.7147    1.6672 H   0  0  0  0  0  0  0  0  0  0  0  0
   -3.7996    1.2685    1.8629 H   0  0  0  0  0  0  0  0  0  0  0  0
  1  2  1  0
  2  3  1  0
  3  4  1  0
  4  5  1  0
  5  6  1  0
  6  7  1  0
  7  8  1  0
  8  9  1  0
  8 10  1  0
 10 11  1  0
 11 12  1  0
 12 13  1  0
  2 14  1  0
 14 15  1  0
 15 16  1  0
 16 17  1  0
 17  2  1  0
 13  8  1  0
  1 18  1  0
  1 19  1  0
  1 20  1  0
  3 21  1  0
  3 22  1  0
  4 23  1  0
  4 24  1  0
  5 25  1  0
  5 26  1  0
  6 27  1  0
  6 28  1  0
  7 29  1  0
  7 30  1  0
  9 31  1  0
  9 32  1  0
  9 33  1  0
 10 34  1  0
 10 35  1  0
 11 36  1  0
 11 37  1  0
 12 38  1  0
 12 39  1  0
 13 40  1  0
 13 41  1  0
 14 42  1  0
 14 43  1  0
 15 44  1  0
 15 45  1  0
 16 46  1  0
 16 47  1  0
 17 48  1  0
 17 49  1  0
M  CHG  2   2   1   8   1
M  END
$$$$
