
     RDKit          3D

 75 80  0  0  0  0  0  0  0  0999 V2000
   -2.1897   -4.5488   -5.3159 C   0  0  0  0  0  0  0  0  0  0  0  0
   -2.0920   -4.5493   -3.8211 C   0  0  0  0  0  0  0  0  0  0  0  0
   -2.5320   -5.6175   -3.1327 N   0  0  0  0  0  0  0  0  0  0  0  0
   -2.4782   -5.6908   -1.8027 C   0  0  0  0  0  0  0  0  0  0  0  0
   -1.9490   -4.6256   -1.1076 C   0  0  0  0  0  0  0  0  0  0  0  0
   -1.4881   -3.5143   -1.7761 C   0  0  0  0  0  0  0  0  0  0  0  0
   -0.9465   -2.4241   -1.0618 N   0  0  0  0  0  0  0  0  0  0  0  0
    0.4729   -2.3450   -0.7480 C   0  0  0  0  0  0  0  0  0  0  0  0
    1.2574   -3.3220   -0.7351 O   0  0  0  0  0  0  0  0  0  0  0  0
    0.7797   -0.9979   -0.4708 N   0  0  0  0  0  0  0  0  0  0  0  0
    2.0676   -0.4620   -0.1183 C   0  0  0  0  0  0  0  0  0  0  0  0
    2.1804    0.8917    0.2041 C   0  0  0  0  0  0  0  0  0  0  0  0
    3.4001    1.4338    0.5351 C   0  0  0  0  0  0  0  0  0  0  0  0
    4.5321    0.6595    0.5566 C   0  0  0  0  0  0  0  0  0  0  0  0
    5.7896    1.3091    0.9119 C   0  0  0  0  0  0  0  0  0  0  0  0
    6.1312    2.5237    0.3043 C   0  0  0  0  0  0  0  0  0  0  0  0
    7.3035    3.1875    0.5888 C   0  0  0  0  0  0  0  0  0  0  0  0
    8.1984    2.6703    1.4985 C   0  0  0  0  0  0  0  0  0  0  0  0
    9.4367    3.3880    1.7878 C   0  0  0  0  0  0  0  0  0  0  0  0
   10.2855    2.9618    2.6073 O   0  0  0  0  0  0  0  0  0  0  0  0
    9.7301    4.5906    1.1574 O   0  0  0  0  0  0  0  0  0  0  0  0
    7.8846    1.4919    2.0993 C   0  0  0  0  0  0  0  0  0  0  0  0
    6.6957    0.8090    1.8174 C   0  0  0  0  0  0  0  0  0  0  0  0
    6.3775   -0.4715    2.4931 C   0  0  0  0  0  0  0  0  0  0  0  0
    4.4317   -0.6667    0.2425 C   0  0  0  0  0  0  0  0  0  0  0  0
    3.2100   -1.2140   -0.0901 C   0  0  0  0  0  0  0  0  0  0  0  0
   -0.4288   -0.2680   -0.6138 C   0  0  0  0  0  0  0  0  0  0  0  0
   -0.5689    0.9508   -0.7895 O   0  0  0  0  0  0  0  0  0  0  0  0
   -1.5843   -1.2396   -0.5185 C   0  0  0  0  0  0  0  0  0  0  0  0
   -2.7452   -0.7699   -1.3299 C   0  0  0  0  0  0  0  0  0  0  0  0
   -3.9172   -0.5846   -0.3529 C   0  0  0  0  0  0  0  0  0  0  0  0
   -3.4768    0.3677    0.6140 N   0  0  0  0  0  0  0  0  0  0  0  0
   -4.4906    1.0974    1.2977 C   0  0  0  0  0  0  0  0  0  0  0  0
   -5.3288    1.9561    0.4188 C   0  0  0  0  0  0  0  0  0  0  0  0
   -5.1435    2.0435   -0.9010 N   0  0  0  0  0  0  0  0  0  0  0  0
   -5.9346    2.8382   -1.6293 C   0  0  0  0  0  0  0  0  0  0  0  0
   -6.9443    3.5770   -1.0564 C   0  0  0  0  0  0  0  0  0  0  0  0
   -7.1508    3.5023    0.2915 C   0  0  0  0  0  0  0  0  0  0  0  0
   -6.3258    2.6774    1.0297 C   0  0  0  0  0  0  0  0  0  0  0  0
   -6.5937    2.6373    2.4937 C   0  0  0  0  0  0  0  0  0  0  0  0
   -2.5138   -0.1879    1.5110 C   0  0  0  0  0  0  0  0  0  0  0  0
   -1.8676   -1.4508    0.9332 C   0  0  0  0  0  0  0  0  0  0  0  0
   -1.5821   -3.5255   -3.1347 N   0  0  0  0  0  0  0  0  0  0  0  0
   -2.9169   -5.2985   -5.6504 H   0  0  0  0  0  0  0  0  0  0  0  0
   -1.1681   -4.6948   -5.7368 H   0  0  0  0  0  0  0  0  0  0  0  0
   -2.5530   -3.5520   -5.6205 H   0  0  0  0  0  0  0  0  0  0  0  0
   -2.8330   -6.5495   -1.2643 H   0  0  0  0  0  0  0  0  0  0  0  0
   -1.9054   -4.6848   -0.0311 H   0  0  0  0  0  0  0  0  0  0  0  0
    1.3260    1.5287    0.2055 H   0  0  0  0  0  0  0  0  0  0  0  0
    3.4646    2.4974    0.7840 H   0  0  0  0  0  0  0  0  0  0  0  0
    5.4383    2.9492   -0.4170 H   0  0  0  0  0  0  0  0  0  0  0  0
    7.5697    4.1303    0.1178 H   0  0  0  0  0  0  0  0  0  0  0  0
   10.7197    4.7608    0.9238 H   0  0  0  0  0  0  0  0  0  0  0  0
    8.5666    1.0609    2.8176 H   0  0  0  0  0  0  0  0  0  0  0  0
    6.8196   -0.3881    3.5236 H   0  0  0  0  0  0  0  0  0  0  0  0
    6.9297   -1.2756    1.9734 H   0  0  0  0  0  0  0  0  0  0  0  0
    5.2933   -0.6609    2.5461 H   0  0  0  0  0  0  0  0  0  0  0  0
    5.2857   -1.3085    0.2430 H   0  0  0  0  0  0  0  0  0  0  0  0
    3.1334   -2.2737   -0.3428 H   0  0  0  0  0  0  0  0  0  0  0  0
   -2.5153    0.2732   -1.6845 H   0  0  0  0  0  0  0  0  0  0  0  0
   -3.0175   -1.4017   -2.1735 H   0  0  0  0  0  0  0  0  0  0  0  0
   -4.8182   -0.2890   -0.8975 H   0  0  0  0  0  0  0  0  0  0  0  0
   -4.1397   -1.5823    0.1117 H   0  0  0  0  0  0  0  0  0  0  0  0
   -3.9904    1.7678    2.0266 H   0  0  0  0  0  0  0  0  0  0  0  0
   -5.1779    0.4386    1.8796 H   0  0  0  0  0  0  0  0  0  0  0  0
   -5.8213    2.9421   -2.7115 H   0  0  0  0  0  0  0  0  0  0  0  0
   -7.5886    4.2267   -1.6624 H   0  0  0  0  0  0  0  0  0  0  0  0
   -7.9334    4.0727    0.7476 H   0  0  0  0  0  0  0  0  0  0  0  0
   -7.6939    2.7153    2.6489 H   0  0  0  0  0  0  0  0  0  0  0  0
   -6.1474    3.5640    2.9546 H   0  0  0  0  0  0  0  0  0  0  0  0
   -6.2617    1.7309    2.9944 H   0  0  0  0  0  0  0  0  0  0  0  0
   -1.6874    0.5354    1.6723 H   0  0  0  0  0  0  0  0  0  0  0  0
   -2.9359   -0.4063    2.5202 H   0  0  0  0  0  0  0  0  0  0  0  0
   -2.4493   -2.3526    1.1636 H   0  0  0  0  0  0  0  0  0  0  0  0
   -0.8844   -1.5642    1.4507 H   0  0  0  0  0  0  0  0  0  0  0  0
  1  2  1  0
  2  3  2  0
  3  4  1  0
  4  5  2  0
  5  6  1  0
  6  7  1  0
  7  8  1  0
  8  9  2  0
  8 10  1  0
 10 11  1  0
 11 12  2  0
 12 13  1  0
 13 14  2  0
 14 15  1  0
 15 16  2  0
 16 17  1  0
 17 18  2  0
 18 19  1  0
 19 20  2  0
 19 21  1  0
 18 22  1  0
 22 23  2  0
 23 24  1  0
 14 25  1  0
 25 26  2  0
 10 27  1  0
 27 28  2  0
 27 29  1  0
 29 30  1  0
 30 31  1  0
 31 32  1  0
 32 33  1  0
 33 34  1  0
 34 35  2  0
 35 36  1  0
 36 37  2  0
 37 38  1  0
 38 39  2  0
 39 40  1  0
 32 41  1  0
 41 42  1  0
  6 43  2  0
 43  2  1  0
 29  7  1  0
 39 34  1  0
 26 11  1  0
 42 29  1  0
 23 15  1  0
  1 44  1  0
  1 45  1  0
  1 46  1  0
  4 47  1  0
  5 48  1  0
 12 49  1  0
 13 50  1  0
 16 51  1  0
 17 52  1  0
 21 53  1  0
 22 54  1  0
 24 55  1  0
 24 56  1  0
 24 57  1  0
 25 58  1  0
 26 59  1  0
 30 60  1  0
 30 61  1  0
 31 62  1  0
 31 63  1  0
 33 64  1  0
 33 65  1  0
 36 66  1  0
 37 67  1  0
 38 68  1  0
 40 69  1  0
 40 70  1  0
 40 71  1  0
 41 72  1  0
 41 73  1  0
 42 74  1  0
 42 75  1  0
M  END
$$$$
