
     RDKit          3D

 47 50  0  0  0  0  0  0  0  0999 V2000
    6.5814   -2.6894   -2.4724 C   0  0  0  0  0  0  0  0  0  0  0  0
    7.1047   -1.6799   -2.0532 C   0  0  0  0  0  0  0  0  0  0  0  0
    7.7329   -0.4547   -1.5350 C   0  0  0  0  0  0  0  0  0  0  0  0
    6.8635    0.6442   -1.7298 O   0  0  0  0  0  0  0  0  0  0  0  0
    5.6071    0.5802   -1.1131 C   0  0  0  0  0  0  0  0  0  0  0  0
    4.7047    1.6079   -1.2539 C   0  0  0  0  0  0  0  0  0  0  0  0
    3.4958    1.5444   -0.6594 N   0  0  0  0  0  0  0  0  0  0  0  0
    3.1151    0.4938    0.0881 C   0  0  0  0  0  0  0  0  0  0  0  0
    1.8033    0.4310    0.7303 C   0  0  0  0  0  0  0  0  0  0  0  0
    1.5085   -0.5734    1.4091 O   0  0  0  0  0  0  0  0  0  0  0  0
    0.8700    1.4683    0.6034 N   0  0  0  0  0  0  0  0  0  0  0  0
   -0.4159    1.4657    1.2003 C   0  0  0  0  0  0  0  0  0  0  0  0
   -0.6354    1.9771    2.4703 C   0  0  0  0  0  0  0  0  0  0  0  0
   -1.9009    1.9582    3.0181 C   0  0  0  0  0  0  0  0  0  0  0  0
   -2.1501    2.4496    4.2557 F   0  0  0  0  0  0  0  0  0  0  0  0
   -2.9219    1.4189    2.2638 C   0  0  0  0  0  0  0  0  0  0  0  0
   -4.1457    1.4129    2.8100 F   0  0  0  0  0  0  0  0  0  0  0  0
   -2.7535    0.8992    0.9992 C   0  0  0  0  0  0  0  0  0  0  0  0
   -3.8229    0.3132    0.1730 C   0  0  1  0  0  0  0  0  0  0  0  0
   -4.9130    1.3042   -0.1661 C   0  0  0  0  0  0  0  0  0  0  0  0
   -5.8408    0.6160   -0.9397 F   0  0  0  0  0  0  0  0  0  0  0  0
   -4.4331    2.3305   -0.9708 F   0  0  0  0  0  0  0  0  0  0  0  0
   -3.2420   -0.1097   -1.0849 N   0  0  0  0  0  0  0  0  0  0  0  0
   -2.8433   -1.2815   -1.3669 C   0  0  0  0  0  0  0  0  0  0  0  0
   -2.2786   -1.5921   -2.6565 N   0  0  0  0  0  0  0  0  0  0  0  0
   -2.9700   -2.2585   -0.3873 O   0  0  0  0  0  0  0  0  0  0  0  0
   -3.8836   -2.1495    0.6635 C   0  0  2  0  0  0  0  0  0  0  0  0
   -5.3057   -1.8201    0.2206 C   0  0  0  0  0  0  0  0  0  0  0  0
   -4.4408   -0.8349    0.9244 C   0  0  2  0  0  0  0  0  0  0  0  0
   -1.4727    0.9377    0.4887 C   0  0  0  0  0  0  0  0  0  0  0  0
    4.0228   -0.5340    0.2265 C   0  0  0  0  0  0  0  0  0  0  0  0
    5.2311   -0.4794   -0.3628 N   0  0  0  0  0  0  0  0  0  0  0  0
    6.1209   -3.5620   -2.8183 H   0  0  0  0  0  0  0  0  0  0  0  0
    8.7144   -0.3184   -1.9865 H   0  0  0  0  0  0  0  0  0  0  0  0
    7.8619   -0.5661   -0.4217 H   0  0  0  0  0  0  0  0  0  0  0  0
    4.9975    2.4735   -1.8602 H   0  0  0  0  0  0  0  0  0  0  0  0
    1.1602    2.3046    0.0182 H   0  0  0  0  0  0  0  0  0  0  0  0
    0.1982    2.3897    3.0226 H   0  0  0  0  0  0  0  0  0  0  0  0
   -5.4507    1.6716    0.7119 H   0  0  0  0  0  0  0  0  0  0  0  0
   -2.3821   -0.8986   -3.4286 H   0  0  0  0  0  0  0  0  0  0  0  0
   -1.7776   -2.4844   -2.8232 H   0  0  0  0  0  0  0  0  0  0  0  0
   -3.7831   -2.9308    1.4522 H   0  0  0  0  0  0  0  0  0  0  0  0
   -5.5336   -1.7035   -0.8447 H   0  0  0  0  0  0  0  0  0  0  0  0
   -6.1371   -2.3151    0.7868 H   0  0  0  0  0  0  0  0  0  0  0  0
   -4.7654   -0.5983    1.9552 H   0  0  0  0  0  0  0  0  0  0  0  0
   -1.2382    0.5511   -0.5029 H   0  0  0  0  0  0  0  0  0  0  0  0
    3.7437   -1.4093    0.8322 H   0  0  0  0  0  0  0  0  0  0  0  0
  1  2  3  0
  2  3  1  0
  3  4  1  0
  4  5  1  0
  5  6  2  0
  6  7  1  0
  7  8  2  0
  8  9  1  0
  9 10  2  0
  9 11  1  0
 11 12  1  0
 12 13  2  0
 13 14  1  0
 14 15  1  0
 14 16  2  0
 16 17  1  0
 16 18  1  0
 18 19  1  0
 19 20  1  6
 20 21  1  0
 20 22  1  0
 19 23  1  0
 23 24  2  0
 24 25  1  0
 24 26  1  0
 26 27  1  0
 27 28  1  0
 28 29  1  0
 18 30  2  0
  8 31  1  0
 31 32  2  0
 32  5  1  0
 30 12  1  0
 29 19  1  0
 29 27  1  0
  1 33  1  0
  3 34  1  0
  3 35  1  0
  6 36  1  0
 11 37  1  0
 13 38  1  0
 20 39  1  0
 25 40  1  0
 25 41  1  0
 27 42  1  1
 28 43  1  0
 28 44  1  0
 29 45  1  1
 30 46  1  0
 31 47  1  0
M  END
$$$$
