
     RDKit          3D

 68 72  0  0  0  0  0  0  0  0999 V2000
   -4.8334   -6.6842   -0.1578 C   0  0  0  0  0  0  0  0  0  0  0  0
   -4.0436   -5.7945   -0.9243 O   0  0  0  0  0  0  0  0  0  0  0  0
   -3.7698   -4.5106   -0.5237 C   0  0  0  0  0  0  0  0  0  0  0  0
   -4.2617   -4.0283    0.6646 C   0  0  0  0  0  0  0  0  0  0  0  0
   -3.9951   -2.7456    1.0786 C   0  0  0  0  0  0  0  0  0  0  0  0
   -3.2070   -1.8995    0.2843 C   0  0  0  0  0  0  0  0  0  0  0  0
   -2.9412   -0.6131    0.6948 C   0  0  0  0  0  0  0  0  0  0  0  0
   -2.1869    0.2541   -0.0311 C   0  0  0  0  0  0  0  0  0  0  0  0
   -1.8102    1.6070    0.3074 C   0  0  0  0  0  0  0  0  0  0  0  0
   -2.1017    2.7094   -0.5171 C   0  0  0  0  0  0  0  0  0  0  0  0
   -1.5877    3.8533    0.0447 C   0  0  0  0  0  0  0  0  0  0  0  0
   -1.6838    5.2047   -0.5127 C   0  0  0  0  0  0  0  0  0  0  0  0
   -1.1250    6.2932    0.1378 C   0  0  0  0  0  0  0  0  0  0  0  0
   -1.2090    7.5616   -0.3791 C   0  0  0  0  0  0  0  0  0  0  0  0
   -0.4904    8.9483    0.4601 Cl  0  0  0  0  0  0  0  0  0  0  0  0
   -1.8679    7.7705   -1.5832 C   0  0  0  0  0  0  0  0  0  0  0  0
   -2.4276    6.6822   -2.2329 C   0  0  0  0  0  0  0  0  0  0  0  0
   -3.2519    6.9958   -3.7552 Cl  0  0  0  0  0  0  0  0  0  0  0  0
   -2.3309    5.4284   -1.6995 C   0  0  0  0  0  0  0  0  0  0  0  0
   -1.0023    3.4538    1.1743 N   0  0  0  0  0  0  0  0  0  0  0  0
   -1.1259    2.1181    1.3439 N   0  0  0  0  0  0  0  0  0  0  0  0
   -0.5299    1.4174    2.4798 C   0  0  1  0  0  0  0  0  0  0  0  0
   -1.4701    0.7004    3.3620 C   0  0  0  0  0  0  0  0  0  0  0  0
    0.6360    0.6023    2.0091 C   0  0  0  0  0  0  0  0  0  0  0  0
    1.8732    1.2390    1.9426 C   0  0  0  0  0  0  0  0  0  0  0  0
    3.0079    0.5644    1.5155 C   0  0  0  0  0  0  0  0  0  0  0  0
    2.9578   -0.7580    1.1416 C   0  0  0  0  0  0  0  0  0  0  0  0
    4.1403   -1.4988    0.6886 C   0  0  0  0  0  0  0  0  0  0  0  0
    3.9709   -2.6842    0.2532 O   0  0  0  0  0  0  0  0  0  0  0  0
    5.4523   -0.9807    0.7065 N   0  0  0  0  0  0  0  0  0  0  0  0
    6.6020   -1.7191    0.2517 C   0  0  0  0  0  0  0  0  0  0  0  0
    6.4325   -2.0296   -1.2193 C   0  0  0  0  0  0  0  0  0  0  0  0
    7.6136   -2.7943   -1.7062 C   0  0  0  0  0  0  0  0  0  0  0  0
    8.5099   -3.0886   -0.8837 O   0  0  0  0  0  0  0  0  0  0  0  0
    7.7679   -3.1936   -3.0194 O   0  0  0  0  0  0  0  0  0  0  0  0
    1.7329   -1.3785    1.2111 C   0  0  0  0  0  0  0  0  0  0  0  0
    0.5808   -0.7067    1.6410 C   0  0  0  0  0  0  0  0  0  0  0  0
   -1.6827   -0.2330   -1.2467 C   0  0  0  0  0  0  0  0  0  0  0  0
   -1.9454   -1.5189   -1.6625 C   0  0  0  0  0  0  0  0  0  0  0  0
   -2.7159   -2.3682   -0.8925 C   0  0  0  0  0  0  0  0  0  0  0  0
   -2.9974   -3.6595   -1.2872 C   0  0  0  0  0  0  0  0  0  0  0  0
   -5.8595   -6.2867   -0.1842 H   0  0  0  0  0  0  0  0  0  0  0  0
   -4.8083   -7.6606   -0.7017 H   0  0  0  0  0  0  0  0  0  0  0  0
   -4.4322   -6.8354    0.8595 H   0  0  0  0  0  0  0  0  0  0  0  0
   -4.8632   -4.6746    1.2720 H   0  0  0  0  0  0  0  0  0  0  0  0
   -4.3973   -2.3901    2.0177 H   0  0  0  0  0  0  0  0  0  0  0  0
   -3.3769   -0.2960    1.6196 H   0  0  0  0  0  0  0  0  0  0  0  0
   -2.6532    2.6054   -1.4453 H   0  0  0  0  0  0  0  0  0  0  0  0
   -0.6098    6.0954    1.0901 H   0  0  0  0  0  0  0  0  0  0  0  0
   -1.9259    8.7642   -1.9730 H   0  0  0  0  0  0  0  0  0  0  0  0
   -2.7847    4.5914   -2.2408 H   0  0  0  0  0  0  0  0  0  0  0  0
   -0.0889    2.2512    3.1350 H   0  0  0  0  0  0  0  0  0  0  0  0
   -1.2446    0.9138    4.4503 H   0  0  0  0  0  0  0  0  0  0  0  0
   -1.5437   -0.3861    3.2195 H   0  0  0  0  0  0  0  0  0  0  0  0
   -2.4796    1.1953    3.2256 H   0  0  0  0  0  0  0  0  0  0  0  0
    1.9174    2.2829    2.2352 H   0  0  0  0  0  0  0  0  0  0  0  0
    3.9623    1.0938    1.4740 H   0  0  0  0  0  0  0  0  0  0  0  0
    5.6142    0.0071    1.0730 H   0  0  0  0  0  0  0  0  0  0  0  0
    6.6429   -2.6527    0.8617 H   0  0  0  0  0  0  0  0  0  0  0  0
    7.5261   -1.1375    0.3866 H   0  0  0  0  0  0  0  0  0  0  0  0
    5.4906   -2.5210   -1.4656 H   0  0  0  0  0  0  0  0  0  0  0  0
    6.4173   -1.0256   -1.7421 H   0  0  0  0  0  0  0  0  0  0  0  0
    8.7063   -3.2920   -3.4005 H   0  0  0  0  0  0  0  0  0  0  0  0
    1.6689   -2.4047    0.9252 H   0  0  0  0  0  0  0  0  0  0  0  0
   -0.3374   -1.2259    1.6846 H   0  0  0  0  0  0  0  0  0  0  0  0
   -1.0699    0.3855   -1.8967 H   0  0  0  0  0  0  0  0  0  0  0  0
   -1.5700   -1.9293   -2.5967 H   0  0  0  0  0  0  0  0  0  0  0  0
   -2.5841   -3.9844   -2.2336 H   0  0  0  0  0  0  0  0  0  0  0  0
  1  2  1  0
  2  3  1  0
  3  4  2  0
  4  5  1  0
  5  6  2  0
  6  7  1  0
  7  8  2  0
  8  9  1  0
  9 10  2  0
 10 11  1  0
 11 12  1  0
 12 13  2  0
 13 14  1  0
 14 15  1  0
 14 16  2  0
 16 17  1  0
 17 18  1  0
 17 19  2  0
 11 20  2  0
 20 21  1  0
 21 22  1  0
 22 23  1  0
 22 24  1  0
 24 25  2  0
 25 26  1  0
 26 27  2  0
 27 28  1  0
 28 29  2  0
 28 30  1  0
 30 31  1  0
 31 32  1  0
 32 33  1  0
 33 34  2  0
 33 35  1  0
 27 36  1  0
 36 37  2  0
  8 38  1  0
 38 39  2  0
 39 40  1  0
 40 41  2  0
 41  3  1  0
 40  6  1  0
 21  9  1  0
 37 24  1  0
 19 12  1  0
  1 42  1  0
  1 43  1  0
  1 44  1  0
  4 45  1  0
  5 46  1  0
  7 47  1  0
 10 48  1  0
 13 49  1  0
 16 50  1  0
 19 51  1  0
 22 52  1  1
 23 53  1  0
 23 54  1  0
 23 55  1  0
 25 56  1  0
 26 57  1  0
 30 58  1  0
 31 59  1  0
 31 60  1  0
 32 61  1  0
 32 62  1  0
 35 63  1  0
 36 64  1  0
 37 65  1  0
 38 66  1  0
 39 67  1  0
 41 68  1  0
M  END
$$$$
