
     RDKit          3D

 41 42  0  0  0  0  0  0  0  0999 V2000
   -2.8968   -1.9127   -1.7872 C   0  0  0  0  0  0  0  0  0  0  0  0
   -2.2710   -1.7673   -0.4287 C   0  0  0  0  0  0  0  0  0  0  0  0
   -1.7367   -3.0865    0.0552 C   0  0  0  0  0  0  0  0  0  0  0  0
   -3.2659   -1.2634    0.5363 C   0  0  0  0  0  0  0  0  0  0  0  0
   -4.0621   -0.8676    1.2855 N   0  0  0  0  0  0  0  0  0  0  0  0
   -1.1553   -0.7837   -0.4189 C   0  0  0  0  0  0  0  0  0  0  0  0
   -1.4118    0.5463   -0.1520 C   0  0  0  0  0  0  0  0  0  0  0  0
   -0.3137    1.3866   -0.1644 C   0  0  0  0  0  0  0  0  0  0  0  0
    0.9789    0.9578   -0.4244 C   0  0  0  0  0  0  0  0  0  0  0  0
    1.2027   -0.3779   -0.6876 C   0  0  0  0  0  0  0  0  0  0  0  0
    2.5724   -0.8410   -0.9646 C   0  0  0  0  0  0  0  0  0  0  0  0
    3.2926   -1.2426    0.2007 N   0  0  0  0  0  0  0  0  0  0  0  0
    4.0369   -0.3722    0.9069 C   0  0  0  0  0  0  0  0  0  0  0  0
    4.6042   -1.0185    1.9528 N   0  0  0  0  0  0  0  0  0  0  0  0
    4.1952   -2.3111    1.8803 C   0  0  0  0  0  0  0  0  0  0  0  0
    3.3916   -2.4191    0.7955 N   0  0  0  0  0  0  0  0  0  0  0  0
    0.1387   -1.2424   -0.6842 C   0  0  0  0  0  0  0  0  0  0  0  0
   -0.4607    2.8432    0.1087 C   0  0  0  0  0  0  0  0  0  0  0  0
   -1.9097    3.2087    0.3806 C   0  0  0  0  0  0  0  0  0  0  0  0
    0.3476    3.1581    1.3468 C   0  0  0  0  0  0  0  0  0  0  0  0
   -0.0150    3.6261   -1.0422 C   0  0  0  0  0  0  0  0  0  0  0  0
    0.3312    4.2410   -1.9385 N   0  0  0  0  0  0  0  0  0  0  0  0
   -2.4273   -2.7285   -2.3508 H   0  0  0  0  0  0  0  0  0  0  0  0
   -3.9634   -2.1726   -1.6375 H   0  0  0  0  0  0  0  0  0  0  0  0
   -2.8522   -0.9385   -2.2902 H   0  0  0  0  0  0  0  0  0  0  0  0
   -1.6163   -3.7472   -0.8367 H   0  0  0  0  0  0  0  0  0  0  0  0
   -2.5246   -3.5421    0.6903 H   0  0  0  0  0  0  0  0  0  0  0  0
   -0.8324   -2.9877    0.6665 H   0  0  0  0  0  0  0  0  0  0  0  0
   -2.4078    0.9237    0.0565 H   0  0  0  0  0  0  0  0  0  0  0  0
    1.8155    1.6444   -0.4259 H   0  0  0  0  0  0  0  0  0  0  0  0
    2.4622   -1.6864   -1.7052 H   0  0  0  0  0  0  0  0  0  0  0  0
    3.0919   -0.0501   -1.5545 H   0  0  0  0  0  0  0  0  0  0  0  0
    4.2388    0.6842    0.7806 H   0  0  0  0  0  0  0  0  0  0  0  0
    4.3306   -3.2333    2.4276 H   0  0  0  0  0  0  0  0  0  0  0  0
    0.3038   -2.3102   -0.8927 H   0  0  0  0  0  0  0  0  0  0  0  0
   -1.8894    4.2679    0.7624 H   0  0  0  0  0  0  0  0  0  0  0  0
   -2.3412    2.6135    1.2090 H   0  0  0  0  0  0  0  0  0  0  0  0
   -2.5215    3.1520   -0.5360 H   0  0  0  0  0  0  0  0  0  0  0  0
   -0.0636    2.5257    2.1569 H   0  0  0  0  0  0  0  0  0  0  0  0
    1.4058    2.9029    1.1387 H   0  0  0  0  0  0  0  0  0  0  0  0
    0.1977    4.2203    1.5844 H   0  0  0  0  0  0  0  0  0  0  0  0
  1  2  1  0
  2  3  1  0
  2  4  1  0
  4  5  3  0
  2  6  1  0
  6  7  2  0
  7  8  1  0
  8  9  2  0
  9 10  1  0
 10 11  1  0
 11 12  1  0
 12 13  1  0
 13 14  2  0
 14 15  1  0
 15 16  2  0
 10 17  2  0
  8 18  1  0
 18 19  1  0
 18 20  1  0
 18 21  1  0
 21 22  3  0
 17  6  1  0
 16 12  1  0
  1 23  1  0
  1 24  1  0
  1 25  1  0
  3 26  1  0
  3 27  1  0
  3 28  1  0
  7 29  1  0
  9 30  1  0
 11 31  1  0
 11 32  1  0
 13 33  1  0
 15 34  1  0
 17 35  1  0
 19 36  1  0
 19 37  1  0
 19 38  1  0
 20 39  1  0
 20 40  1  0
 20 41  1  0
M  END
$$$$
