
     RDKit          3D

 49 52  0  0  0  0  0  0  0  0999 V2000
    7.3764   -2.3796   -0.4728 C   0  0  0  0  0  0  0  0  0  0  0  0
    6.0343   -2.3426   -1.0971 C   0  0  0  0  0  0  0  0  0  0  0  0
    5.8512   -3.0635   -2.1291 O   0  0  0  0  0  0  0  0  0  0  0  0
    4.9821   -1.5444   -0.5835 N   0  0  0  0  0  0  0  0  0  0  0  0
    5.1252   -0.6963    0.5948 C   0  0  0  0  0  0  0  0  0  0  0  0
    3.7721   -0.8967    1.2435 C   0  0  0  0  0  0  0  0  0  0  0  0
    2.8601   -0.6825    0.0266 C   0  0  1  0  0  0  0  0  0  0  0  0
    2.7649    0.6856   -0.1730 O   0  0  0  0  0  0  0  0  0  0  0  0
    1.6794    1.5005   -0.1310 C   0  0  0  0  0  0  0  0  0  0  0  0
    1.8044    2.8533   -0.3625 C   0  0  0  0  0  0  0  0  0  0  0  0
    0.7215    3.6813   -0.3230 N   0  0  0  0  0  0  0  0  0  0  0  0
   -0.5176    3.2347   -0.0593 C   0  0  0  0  0  0  0  0  0  0  0  0
   -0.6842    1.8896    0.1774 C   0  0  0  0  0  0  0  0  0  0  0  0
   -2.0513    1.4015    0.4672 C   0  0  0  0  0  0  0  0  0  0  0  0
   -2.1434   -0.1065    0.4063 C   0  0  0  0  0  0  0  0  0  0  0  0
   -3.5220   -0.4311    0.5615 O   0  0  0  0  0  0  0  0  0  0  0  0
   -4.5256    0.3215   -0.0467 C   0  0  0  0  0  0  0  0  0  0  0  0
   -4.2254    1.5503   -0.5673 C   0  0  0  0  0  0  0  0  0  0  0  0
   -5.2328    2.2815   -1.1662 C   0  0  0  0  0  0  0  0  0  0  0  0
   -6.5236    1.8232   -1.2593 C   0  0  0  0  0  0  0  0  0  0  0  0
   -6.8291    0.5915   -0.7386 C   0  0  0  0  0  0  0  0  0  0  0  0
   -5.8208   -0.1559   -0.1316 C   0  0  0  0  0  0  0  0  0  0  0  0
   -6.1177   -1.4629    0.4277 C   0  0  0  0  0  0  0  0  0  0  0  0
   -5.1184   -2.2428    1.0480 N   0  0  0  0  0  0  0  0  0  0  0  0
   -7.2924   -1.9044    0.3549 O   0  0  0  0  0  0  0  0  0  0  0  0
   -2.9183    2.0046   -0.4684 O   0  0  0  0  0  0  0  0  0  0  0  0
    0.4172    1.0260    0.1406 C   0  0  0  0  0  0  0  0  0  0  0  0
    3.6278   -1.3950   -1.0673 C   0  0  0  0  0  0  0  0  0  0  0  0
    7.2669   -2.4019    0.6356 H   0  0  0  0  0  0  0  0  0  0  0  0
    7.9573   -3.2577   -0.7787 H   0  0  0  0  0  0  0  0  0  0  0  0
    7.8671   -1.4086   -0.7201 H   0  0  0  0  0  0  0  0  0  0  0  0
    5.2004    0.3671    0.3295 H   0  0  0  0  0  0  0  0  0  0  0  0
    5.9014   -1.0328    1.2817 H   0  0  0  0  0  0  0  0  0  0  0  0
    3.6424   -1.8886    1.6710 H   0  0  0  0  0  0  0  0  0  0  0  0
    3.5918   -0.0537    1.9203 H   0  0  0  0  0  0  0  0  0  0  0  0
    1.9076   -1.1581    0.2519 H   0  0  0  0  0  0  0  0  0  0  0  0
    2.7943    3.2329   -0.5766 H   0  0  0  0  0  0  0  0  0  0  0  0
   -1.3670    3.9294   -0.0354 H   0  0  0  0  0  0  0  0  0  0  0  0
   -2.3494    1.6885    1.5086 H   0  0  0  0  0  0  0  0  0  0  0  0
   -1.7525   -0.4945   -0.5448 H   0  0  0  0  0  0  0  0  0  0  0  0
   -1.5974   -0.5082    1.2881 H   0  0  0  0  0  0  0  0  0  0  0  0
   -4.9645    3.2466   -1.5673 H   0  0  0  0  0  0  0  0  0  0  0  0
   -7.2928    2.4000   -1.7256 H   0  0  0  0  0  0  0  0  0  0  0  0
   -7.8167    0.1782   -0.7795 H   0  0  0  0  0  0  0  0  0  0  0  0
   -4.5304   -2.9505    0.5665 H   0  0  0  0  0  0  0  0  0  0  0  0
   -4.9604   -2.0948    2.0697 H   0  0  0  0  0  0  0  0  0  0  0  0
    0.2519   -0.0063    0.3281 H   0  0  0  0  0  0  0  0  0  0  0  0
    3.5594   -0.8929   -2.0428 H   0  0  0  0  0  0  0  0  0  0  0  0
    3.1967   -2.4350   -1.1112 H   0  0  0  0  0  0  0  0  0  0  0  0
  1  2  1  0
  2  3  2  0
  2  4  1  0
  4  5  1  0
  5  6  1  0
  6  7  1  0
  7  8  1  0
  8  9  1  0
  9 10  2  0
 10 11  1  0
 11 12  2  0
 12 13  1  0
 13 14  1  0
 14 15  1  0
 15 16  1  0
 16 17  1  0
 17 18  2  0
 18 19  1  0
 19 20  2  0
 20 21  1  0
 21 22  2  0
 22 23  1  0
 23 24  1  0
 23 25  2  0
 18 26  1  0
 13 27  2  0
  7 28  1  0
 28  4  1  0
 27  9  1  0
 26 14  1  0
 22 17  1  0
  1 29  1  0
  1 30  1  0
  1 31  1  0
  5 32  1  0
  5 33  1  0
  6 34  1  0
  6 35  1  0
  7 36  1  1
 10 37  1  0
 12 38  1  0
 14 39  1  0
 15 40  1  0
 15 41  1  0
 19 42  1  0
 20 43  1  0
 21 44  1  0
 24 45  1  0
 24 46  1  0
 27 47  1  0
 28 48  1  0
 28 49  1  0
M  END
$$$$
