
     RDKit          3D

 75 75  0  0  0  0  0  0  0  0999 V2000
   -3.8467    4.9985    1.5383 C   0  0  0  0  0  0  0  0  0  0  0  0
   -2.4864    4.6236    1.1071 C   0  0  0  0  0  0  0  0  0  0  0  0
   -2.2615    3.5869    0.2991 C   0  0  0  0  0  0  0  0  0  0  0  0
   -3.4805    2.8683   -0.1093 N   0  0  0  0  0  0  0  0  0  0  0  0
   -3.5495    1.4785   -0.1399 C   0  0  0  0  0  0  0  0  0  0  0  0
   -2.3674    1.0591    0.2507 O   0  0  0  0  0  0  0  0  0  0  0  0
   -4.4460    0.3462   -0.4508 C   0  0  1  0  0  0  0  0  0  0  0  0
   -5.3946    0.5575   -1.5419 C   0  0  0  0  0  0  0  0  0  0  0  0
   -6.5135    1.9510   -1.1984 S   0  0  0  0  0  0  0  0  0  0  0  0
   -3.5278   -0.8369   -0.7266 N   0  0  0  0  0  0  0  0  0  0  0  0
   -2.8873   -1.4998    0.2812 C   0  0  0  0  0  0  0  0  0  0  0  0
   -3.3397   -1.0480    1.4304 O   0  0  0  0  0  0  0  0  0  0  0  0
   -1.8475   -2.5623    0.4044 C   0  0  1  0  0  0  0  0  0  0  0  0
   -2.2842   -3.8728   -0.1470 C   0  0  0  0  0  0  0  0  0  0  0  0
   -1.3215   -4.9840   -0.0736 C   0  0  0  0  0  0  0  0  0  0  0  0
   -3.5145   -4.2897    0.6803 C   0  0  0  0  0  0  0  0  0  0  0  0
   -0.5549   -2.0911   -0.2802 C   0  0  0  0  0  0  0  0  0  0  0  0
    0.6393   -2.6225    0.3350 C   0  0  0  0  0  0  0  0  0  0  0  0
    0.4645   -3.2740    1.4147 O   0  0  0  0  0  0  0  0  0  0  0  0
    2.0528   -2.5566   -0.0489 C   0  0  0  0  0  0  0  0  0  0  0  0
    2.6687   -1.3103    0.6174 C   0  0  1  0  0  0  0  0  0  0  0  0
    4.1586   -1.4606    0.6736 C   0  0  0  0  0  0  0  0  0  0  0  0
    4.8175   -2.2723   -0.1194 C   0  0  0  0  0  0  0  0  0  0  0  0
    6.2798   -2.4272   -0.0746 C   0  0  0  0  0  0  0  0  0  0  0  0
    6.9874   -1.5620    0.9329 C   0  0  0  0  0  0  0  0  0  0  0  0
    6.8003    0.1993    0.6604 S   0  0  0  0  0  0  0  0  0  0  0  0
    2.3864   -0.2295   -0.2850 O   0  0  0  0  0  0  0  0  0  0  0  0
    1.5162    0.7765   -0.0136 C   0  0  0  0  0  0  0  0  0  0  0  0
    0.9171    0.7005    1.1175 O   0  0  0  0  0  0  0  0  0  0  0  0
    1.2006    1.9370   -0.9146 C   0  0  2  0  0  0  0  0  0  0  0  0
    2.1607    3.0652   -0.6197 C   0  0  0  0  0  0  0  0  0  0  0  0
    1.8833    4.2430   -1.4956 C   0  0  0  0  0  0  0  0  0  0  0  0
    3.5995    2.5739   -0.7914 C   0  0  0  0  0  0  0  0  0  0  0  0
   -0.2148    2.2642   -0.7791 N   0  0  0  0  0  0  0  0  0  0  0  0
   -0.8981    3.1911   -0.0345 C   0  0  0  0  0  0  0  0  0  0  0  0
   -0.0014    3.9461    0.5534 O   0  0  0  0  0  0  0  0  0  0  0  0
   -4.4611    4.0853    1.6884 H   0  0  0  0  0  0  0  0  0  0  0  0
   -4.3779    5.6127    0.7820 H   0  0  0  0  0  0  0  0  0  0  0  0
   -3.8028    5.5923    2.4713 H   0  0  0  0  0  0  0  0  0  0  0  0
   -1.6399    5.2345    1.4768 H   0  0  0  0  0  0  0  0  0  0  0  0
   -4.2139    3.5218   -0.3392 H   0  0  0  0  0  0  0  0  0  0  0  0
   -4.9626    0.0199    0.4809 H   0  0  0  0  0  0  0  0  0  0  0  0
   -4.9363    0.7180   -2.5423 H   0  0  0  0  0  0  0  0  0  0  0  0
   -6.0775   -0.3335   -1.6536 H   0  0  0  0  0  0  0  0  0  0  0  0
   -6.8564    2.0054    0.1657 H   0  0  0  0  0  0  0  0  0  0  0  0
   -3.5323   -0.9783   -1.7069 H   0  0  0  0  0  0  0  0  0  0  0  0
   -1.6073   -2.6860    1.4620 H   0  0  0  0  0  0  0  0  0  0  0  0
   -2.6969   -3.7276   -1.1936 H   0  0  0  0  0  0  0  0  0  0  0  0
   -1.1543   -5.3686    0.9309 H   0  0  0  0  0  0  0  0  0  0  0  0
   -0.3966   -4.7550   -0.6590 H   0  0  0  0  0  0  0  0  0  0  0  0
   -1.7464   -5.8803   -0.6410 H   0  0  0  0  0  0  0  0  0  0  0  0
   -3.6601   -5.3760    0.6607 H   0  0  0  0  0  0  0  0  0  0  0  0
   -4.3970   -3.6945    0.4178 H   0  0  0  0  0  0  0  0  0  0  0  0
   -3.2563   -4.0238    1.7348 H   0  0  0  0  0  0  0  0  0  0  0  0
   -0.6012   -2.3840   -1.3623 H   0  0  0  0  0  0  0  0  0  0  0  0
   -0.5983   -1.0140   -0.2599 H   0  0  0  0  0  0  0  0  0  0  0  0
    2.1768   -2.4282   -1.1549 H   0  0  0  0  0  0  0  0  0  0  0  0
    2.6269   -3.4672    0.2109 H   0  0  0  0  0  0  0  0  0  0  0  0
    2.2263   -1.2260    1.5735 H   0  0  0  0  0  0  0  0  0  0  0  0
    4.7095   -0.8858    1.4016 H   0  0  0  0  0  0  0  0  0  0  0  0
    4.2716   -2.8528   -0.8358 H   0  0  0  0  0  0  0  0  0  0  0  0
    6.5757   -3.4883    0.1986 H   0  0  0  0  0  0  0  0  0  0  0  0
    6.7560   -2.2764   -1.0726 H   0  0  0  0  0  0  0  0  0  0  0  0
    6.6661   -1.7950    1.9684 H   0  0  0  0  0  0  0  0  0  0  0  0
    8.0648   -1.8472    0.8835 H   0  0  0  0  0  0  0  0  0  0  0  0
    6.9776    0.5331   -0.7062 H   0  0  0  0  0  0  0  0  0  0  0  0
    1.4169    1.6840   -1.9657 H   0  0  0  0  0  0  0  0  0  0  0  0
    2.0831    3.3386    0.4335 H   0  0  0  0  0  0  0  0  0  0  0  0
    1.8791    5.2046   -0.9247 H   0  0  0  0  0  0  0  0  0  0  0  0
    0.9004    4.1360   -1.9873 H   0  0  0  0  0  0  0  0  0  0  0  0
    2.6606    4.2887   -2.3096 H   0  0  0  0  0  0  0  0  0  0  0  0
    3.9323    2.0853    0.1456 H   0  0  0  0  0  0  0  0  0  0  0  0
    3.6988    1.8500   -1.6096 H   0  0  0  0  0  0  0  0  0  0  0  0
    4.2255    3.4858   -0.9214 H   0  0  0  0  0  0  0  0  0  0  0  0
   -0.6681    1.6255   -1.4678 H   0  0  0  0  0  0  0  0  0  0  0  0
  1  2  1  0
  2  3  2  0
  3  4  1  0
  4  5  1  0
  5  6  2  0
  5  7  1  0
  7  8  1  0
  8  9  1  0
  7 10  1  0
 10 11  1  0
 11 12  2  0
 11 13  1  0
 13 14  1  0
 14 15  1  0
 14 16  1  0
 13 17  1  0
 17 18  1  0
 18 19  2  0
 18 20  1  0
 20 21  1  0
 21 22  1  0
 22 23  2  0
 23 24  1  0
 24 25  1  0
 25 26  1  0
 21 27  1  0
 27 28  1  0
 28 29  2  0
 28 30  1  0
 30 31  1  0
 31 32  1  0
 31 33  1  0
 30 34  1  0
 34 35  1  0
 35 36  2  0
 35  3  1  0
  1 37  1  0
  1 38  1  0
  1 39  1  0
  2 40  1  0
  4 41  1  0
  7 42  1  1
  8 43  1  0
  8 44  1  0
  9 45  1  0
 10 46  1  0
 13 47  1  1
 14 48  1  0
 15 49  1  0
 15 50  1  0
 15 51  1  0
 16 52  1  0
 16 53  1  0
 16 54  1  0
 17 55  1  0
 17 56  1  0
 20 57  1  0
 20 58  1  0
 21 59  1  1
 22 60  1  0
 23 61  1  0
 24 62  1  0
 24 63  1  0
 25 64  1  0
 25 65  1  0
 26 66  1  0
 30 67  1  6
 31 68  1  0
 32 69  1  0
 32 70  1  0
 32 71  1  0
 33 72  1  0
 33 73  1  0
 33 74  1  0
 34 75  1  0
M  END
$$$$
