
     RDKit          3D

 33 35  0  0  0  0  0  0  0  0999 V2000
    5.1600    1.3954   -0.2350 C   0  0  0  0  0  0  0  0  0  0  0  0
    3.8955    1.9779   -0.2176 O   0  0  0  0  0  0  0  0  0  0  0  0
    2.6943    1.2877   -0.2464 C   0  0  0  0  0  0  0  0  0  0  0  0
    2.6103   -0.0902   -0.2967 C   0  0  0  0  0  0  0  0  0  0  0  0
    1.4360   -0.7750   -0.3268 C   0  0  0  0  0  0  0  0  0  0  0  0
    0.2325   -0.0550   -0.3059 C   0  0  0  0  0  0  0  0  0  0  0  0
    0.3137    1.3124   -0.2526 C   0  0  0  0  0  0  0  0  0  0  0  0
    1.5271    2.0134   -0.2235 C   0  0  0  0  0  0  0  0  0  0  0  0
    1.5312    3.7526   -0.1604 Cl  0  0  0  0  0  0  0  0  0  0  0  0
   -0.9966   -0.7752   -0.2045 C   0  0  0  0  0  0  0  0  0  0  0  0
   -2.3289   -0.1788   -0.1611 C   0  0  0  0  0  0  0  0  0  0  0  0
   -2.6813    1.0508   -0.5526 C   0  0  0  0  0  0  0  0  0  0  0  0
   -3.9374    1.6019   -0.3502 C   0  0  0  0  0  0  0  0  0  0  0  0
   -4.8895    0.8485    0.2861 C   0  0  0  0  0  0  0  0  0  0  0  0
   -6.4806    1.5095    0.5579 Cl  0  0  0  0  0  0  0  0  0  0  0  0
   -4.5780   -0.4293    0.7063 C   0  0  0  0  0  0  0  0  0  0  0  0
   -5.8226   -1.3770    1.5194 Cl  0  0  0  0  0  0  0  0  0  0  0  0
   -3.3343   -0.9373    0.4928 C   0  0  0  0  0  0  0  0  0  0  0  0
   -0.9125   -2.0742   -0.1109 N   0  0  0  0  0  0  0  0  0  0  0  0
    0.2118   -2.9072   -0.0926 C   0  0  0  0  0  0  0  0  0  0  0  0
    1.5122   -2.2472   -0.3880 C   0  0  0  0  0  0  0  0  0  0  0  0
    5.2293    0.4151    0.2547 H   0  0  0  0  0  0  0  0  0  0  0  0
    5.6220    1.3982   -1.2649 H   0  0  0  0  0  0  0  0  0  0  0  0
    5.8391    2.0760    0.3579 H   0  0  0  0  0  0  0  0  0  0  0  0
    3.5705   -0.6299   -0.3119 H   0  0  0  0  0  0  0  0  0  0  0  0
   -0.5523    1.9221   -0.1500 H   0  0  0  0  0  0  0  0  0  0  0  0
   -2.0200    1.6886   -1.1661 H   0  0  0  0  0  0  0  0  0  0  0  0
   -4.1614    2.6275   -0.6963 H   0  0  0  0  0  0  0  0  0  0  0  0
   -3.0768   -1.9551    0.8248 H   0  0  0  0  0  0  0  0  0  0  0  0
    0.2365   -3.4275    0.9137 H   0  0  0  0  0  0  0  0  0  0  0  0
    0.0131   -3.7689   -0.8011 H   0  0  0  0  0  0  0  0  0  0  0  0
    1.8574   -2.6062   -1.4008 H   0  0  0  0  0  0  0  0  0  0  0  0
    2.2796   -2.6438    0.3395 H   0  0  0  0  0  0  0  0  0  0  0  0
  1  2  1  0
  2  3  1  0
  3  4  2  0
  4  5  1  0
  5  6  2  0
  6  7  1  0
  7  8  2  0
  8  9  1  0
  6 10  1  0
 10 11  1  0
 11 12  2  0
 12 13  1  0
 13 14  2  0
 14 15  1  0
 14 16  1  0
 16 17  1  0
 16 18  2  0
 10 19  2  0
 19 20  1  0
 20 21  1  0
  8  3  1  0
 18 11  1  0
 21  5  1  0
  1 22  1  0
  1 23  1  0
  1 24  1  0
  4 25  1  0
  7 26  1  0
 12 27  1  0
 13 28  1  0
 18 29  1  0
 20 30  1  0
 20 31  1  0
 21 32  1  0
 21 33  1  0
M  END
$$$$
