
     RDKit          3D

 55 58  0  0  0  0  0  0  0  0999 V2000
    2.6977    0.3295    4.4815 C   0  0  0  0  0  0  0  0  0  0  0  0
    2.6757    0.1871    3.0037 C   0  0  0  0  0  0  0  0  0  0  0  0
    3.7609    0.3387    2.2861 N   0  0  0  0  0  0  0  0  0  0  0  0
    3.4817    0.1558    0.9287 N   0  0  0  0  0  0  0  0  0  0  0  0
    2.0958   -0.1358    0.7958 C   0  0  0  0  0  0  0  0  0  0  0  0
    1.4399   -0.3649   -0.2436 O   0  0  0  0  0  0  0  0  0  0  0  0
    1.5333   -0.1236    2.1407 C   0  0  0  0  0  0  0  0  0  0  0  0
    0.3299   -0.3268    2.5605 N   0  0  0  0  0  0  0  0  0  0  0  0
   -0.6386   -0.6123    1.5914 N   0  0  0  0  0  0  0  0  0  0  0  0
   -1.9507   -0.0438    1.7802 C   0  0  0  0  0  0  0  0  0  0  0  0
   -2.9868   -0.2667    0.8731 C   0  0  0  0  0  0  0  0  0  0  0  0
   -2.7589   -1.0585   -0.2490 O   0  0  0  0  0  0  0  0  0  0  0  0
   -4.2365    0.2771    1.0565 C   0  0  0  0  0  0  0  0  0  0  0  0
   -4.4513    1.0635    2.1773 C   0  0  0  0  0  0  0  0  0  0  0  0
   -3.4711    1.3200    3.1072 C   0  0  0  0  0  0  0  0  0  0  0  0
   -2.2434    0.7573    2.8823 C   0  0  0  0  0  0  0  0  0  0  0  0
   -5.3386    0.0799    0.1546 C   0  0  0  0  0  0  0  0  0  0  0  0
   -6.5581   -0.2174    0.7703 C   0  0  0  0  0  0  0  0  0  0  0  0
   -7.7152   -0.4355    0.0488 C   0  0  0  0  0  0  0  0  0  0  0  0
   -7.6973   -0.3635   -1.3370 C   0  0  0  0  0  0  0  0  0  0  0  0
   -6.4985   -0.0706   -1.9549 C   0  0  0  0  0  0  0  0  0  0  0  0
   -5.3290    0.1500   -1.2302 C   0  0  0  0  0  0  0  0  0  0  0  0
   -6.4058    0.0213   -3.4118 C   0  0  0  0  0  0  0  0  0  0  0  0
   -7.5486   -0.1918   -4.1715 O   0  0  0  0  0  0  0  0  0  0  0  0
   -5.3785    0.2805   -4.1081 O   0  0  0  0  0  0  0  0  0  0  0  0
    4.4356    0.2497   -0.1238 C   0  0  0  0  0  0  0  0  0  0  0  0
    4.6623    1.4671   -0.7438 C   0  0  0  0  0  0  0  0  0  0  0  0
    5.5937    1.5438   -1.7668 C   0  0  0  0  0  0  0  0  0  0  0  0
    6.3198    0.4338   -2.2022 C   0  0  0  0  0  0  0  0  0  0  0  0
    7.3171    0.5802   -3.3174 C   0  0  0  0  0  0  0  0  0  0  0  0
    6.0961   -0.7768   -1.5875 C   0  0  0  0  0  0  0  0  0  0  0  0
    6.8603   -1.9845   -2.0336 C   0  0  0  0  0  0  0  0  0  0  0  0
    5.1717   -0.8415   -0.5757 C   0  0  0  0  0  0  0  0  0  0  0  0
    3.1134   -0.6101    4.8996 H   0  0  0  0  0  0  0  0  0  0  0  0
    3.3277    1.2111    4.7158 H   0  0  0  0  0  0  0  0  0  0  0  0
    1.6850    0.5533    4.8670 H   0  0  0  0  0  0  0  0  0  0  0  0
   -0.5061   -1.1900    0.7546 H   0  0  0  0  0  0  0  0  0  0  0  0
   -3.3432   -1.8642   -0.4477 H   0  0  0  0  0  0  0  0  0  0  0  0
   -5.4330    1.5024    2.3400 H   0  0  0  0  0  0  0  0  0  0  0  0
   -3.6977    1.9348    3.9518 H   0  0  0  0  0  0  0  0  0  0  0  0
   -1.4317    0.9343    3.5965 H   0  0  0  0  0  0  0  0  0  0  0  0
   -6.6837   -0.2975    1.8411 H   0  0  0  0  0  0  0  0  0  0  0  0
   -8.6644   -0.6662    0.5138 H   0  0  0  0  0  0  0  0  0  0  0  0
   -8.5573   -0.5203   -1.9804 H   0  0  0  0  0  0  0  0  0  0  0  0
   -4.3750    0.3803   -1.6652 H   0  0  0  0  0  0  0  0  0  0  0  0
   -7.5598   -0.2325   -5.1850 H   0  0  0  0  0  0  0  0  0  0  0  0
    4.1180    2.3637   -0.4374 H   0  0  0  0  0  0  0  0  0  0  0  0
    5.7956    2.4663   -2.2689 H   0  0  0  0  0  0  0  0  0  0  0  0
    7.1174    1.5203   -3.8629 H   0  0  0  0  0  0  0  0  0  0  0  0
    8.3565    0.6650   -2.8891 H   0  0  0  0  0  0  0  0  0  0  0  0
    7.3470   -0.3187   -3.9689 H   0  0  0  0  0  0  0  0  0  0  0  0
    6.3934   -2.8781   -1.5382 H   0  0  0  0  0  0  0  0  0  0  0  0
    7.8979   -1.9077   -1.6104 H   0  0  0  0  0  0  0  0  0  0  0  0
    6.8505   -2.1089   -3.1254 H   0  0  0  0  0  0  0  0  0  0  0  0
    4.9849   -1.7878   -0.0824 H   0  0  0  0  0  0  0  0  0  0  0  0
  1  2  1  0
  2  3  2  0
  3  4  1  0
  4  5  1  0
  5  6  2  0
  5  7  1  0
  7  8  2  0
  8  9  1  0
  9 10  1  0
 10 11  2  0
 11 12  1  0
 11 13  1  0
 13 14  2  0
 14 15  1  0
 15 16  2  0
 13 17  1  0
 17 18  2  0
 18 19  1  0
 19 20  2  0
 20 21  1  0
 21 22  2  0
 21 23  1  0
 23 24  1  0
 23 25  2  0
  4 26  1  0
 26 27  2  0
 27 28  1  0
 28 29  2  0
 29 30  1  0
 29 31  1  0
 31 32  1  0
 31 33  2  0
  7  2  1  0
 16 10  1  0
 22 17  1  0
 33 26  1  0
  1 34  1  0
  1 35  1  0
  1 36  1  0
  9 37  1  0
 12 38  1  0
 14 39  1  0
 15 40  1  0
 16 41  1  0
 18 42  1  0
 19 43  1  0
 20 44  1  0
 22 45  1  0
 24 46  1  0
 27 47  1  0
 28 48  1  0
 30 49  1  0
 30 50  1  0
 30 51  1  0
 32 52  1  0
 32 53  1  0
 32 54  1  0
 33 55  1  0
M  END
$$$$
