
     RDKit          3D

 46 49  0  0  0  0  0  0  0  0999 V2000
   -3.4754    2.7600    0.7013 C   0  0  0  0  0  0  0  0  0  0  0  0
   -2.6869    1.9745   -0.3453 C   0  0  1  0  0  0  0  0  0  0  0  0
   -1.3111    2.5346   -0.3915 C   0  0  0  0  0  0  0  0  0  0  0  0
   -0.2655    1.6268   -0.2630 O   0  0  0  0  0  0  0  0  0  0  0  0
   -0.4274    0.2852   -0.0185 C   0  0  0  0  0  0  0  0  0  0  0  0
   -1.6857   -0.2415    0.0684 C   0  0  0  0  0  0  0  0  0  0  0  0
   -2.7401    0.5538   -0.0854 N   0  0  0  0  0  0  0  0  0  0  0  0
   -3.9619   -0.0020    0.0070 C   0  0  0  0  0  0  0  0  0  0  0  0
   -4.1529   -1.3438    0.2514 C   0  0  0  0  0  0  0  0  0  0  0  0
   -5.5063   -1.9142    0.3455 C   0  0  0  0  0  0  0  0  0  0  0  0
   -5.6375   -3.2665    0.5922 O   0  0  0  0  0  0  0  0  0  0  0  0
   -6.5614   -1.2524    0.2162 O   0  0  0  0  0  0  0  0  0  0  0  0
   -3.0292   -2.1510    0.4079 C   0  0  0  0  0  0  0  0  0  0  0  0
   -3.1950   -3.3877    0.6332 O   0  0  0  0  0  0  0  0  0  0  0  0
   -1.7770   -1.5952    0.3157 C   0  0  0  0  0  0  0  0  0  0  0  0
   -0.7017   -2.4116    0.4735 C   0  0  0  0  0  0  0  0  0  0  0  0
    0.5692   -1.8818    0.3862 C   0  0  0  0  0  0  0  0  0  0  0  0
    1.6305   -2.6973    0.5437 F   0  0  0  0  0  0  0  0  0  0  0  0
    0.6836   -0.5328    0.1399 C   0  0  0  0  0  0  0  0  0  0  0  0
    1.9905    0.0240    0.0479 N   0  0  0  0  0  0  0  0  0  0  0  0
    2.6202    0.5246    1.2490 C   0  0  0  0  0  0  0  0  0  0  0  0
    4.1106    0.5518    1.1004 C   0  0  0  0  0  0  0  0  0  0  0  0
    4.6100   -0.4759    0.2261 N   0  0  0  0  0  0  0  0  0  0  0  0
    6.0458   -0.3505    0.1909 C   0  0  0  0  0  0  0  0  0  0  0  0
    4.1082   -0.3924   -1.1109 C   0  0  0  0  0  0  0  0  0  0  0  0
    2.6803    0.0925   -1.2085 C   0  0  0  0  0  0  0  0  0  0  0  0
   -3.9727    3.6005    0.1930 H   0  0  0  0  0  0  0  0  0  0  0  0
   -4.1571    2.0958    1.2362 H   0  0  0  0  0  0  0  0  0  0  0  0
   -2.7526    3.2468    1.4195 H   0  0  0  0  0  0  0  0  0  0  0  0
   -3.1772    2.1516   -1.3410 H   0  0  0  0  0  0  0  0  0  0  0  0
   -1.1400    3.3190    0.4026 H   0  0  0  0  0  0  0  0  0  0  0  0
   -1.1348    3.1063   -1.3465 H   0  0  0  0  0  0  0  0  0  0  0  0
   -4.8826    0.5863   -0.1078 H   0  0  0  0  0  0  0  0  0  0  0  0
   -6.5537   -3.6840    0.6660 H   0  0  0  0  0  0  0  0  0  0  0  0
   -0.8502   -3.4770    0.6675 H   0  0  0  0  0  0  0  0  0  0  0  0
    2.2616    1.5537    1.4561 H   0  0  0  0  0  0  0  0  0  0  0  0
    2.2974   -0.1045    2.0922 H   0  0  0  0  0  0  0  0  0  0  0  0
    4.5554    0.3779    2.1024 H   0  0  0  0  0  0  0  0  0  0  0  0
    4.4972    1.5269    0.7500 H   0  0  0  0  0  0  0  0  0  0  0  0
    6.2848    0.7414    0.1968 H   0  0  0  0  0  0  0  0  0  0  0  0
    6.5060   -0.8073    1.0873 H   0  0  0  0  0  0  0  0  0  0  0  0
    6.4719   -0.7580   -0.7411 H   0  0  0  0  0  0  0  0  0  0  0  0
    4.7775    0.2972   -1.6710 H   0  0  0  0  0  0  0  0  0  0  0  0
    4.2279   -1.3818   -1.6016 H   0  0  0  0  0  0  0  0  0  0  0  0
    2.6530    1.1376   -1.5651 H   0  0  0  0  0  0  0  0  0  0  0  0
    2.1541   -0.5597   -1.9457 H   0  0  0  0  0  0  0  0  0  0  0  0
  1  2  1  0
  2  3  1  0
  3  4  1  0
  4  5  1  0
  5  6  2  0
  6  7  1  0
  7  8  1  0
  8  9  2  0
  9 10  1  0
 10 11  1  0
 10 12  2  0
  9 13  1  0
 13 14  2  0
 13 15  1  0
 15 16  2  0
 16 17  1  0
 17 18  1  0
 17 19  2  0
 19 20  1  0
 20 21  1  0
 21 22  1  0
 22 23  1  0
 23 24  1  0
 23 25  1  0
 25 26  1  0
  7  2  1  0
 26 20  1  0
 19  5  1  0
 15  6  1  0
  1 27  1  0
  1 28  1  0
  1 29  1  0
  2 30  1  6
  3 31  1  0
  3 32  1  0
  8 33  1  0
 11 34  1  0
 16 35  1  0
 21 36  1  0
 21 37  1  0
 22 38  1  0
 22 39  1  0
 24 40  1  0
 24 41  1  0
 24 42  1  0
 25 43  1  0
 25 44  1  0
 26 45  1  0
 26 46  1  0
M  END
$$$$
