
     RDKit          3D

 52 56  0  0  0  0  0  0  0  0999 V2000
    3.8303    3.8110   -2.3600 O   0  0  0  0  0  0  0  0  0  0  0  0
    2.6668    3.3204   -2.1831 C   0  0  0  0  0  0  0  0  0  0  0  0
    1.4973    3.8800   -2.5727 N   0  0  0  0  0  0  0  0  0  0  0  0
    0.5443    3.0496   -2.1969 N   0  0  0  0  0  0  0  0  0  0  0  0
    1.0753    1.9724   -1.5763 C   0  0  0  0  0  0  0  0  0  0  0  0
    0.3345    0.8663   -1.0360 C   0  0  0  0  0  0  0  0  0  0  0  0
    0.7549   -0.4398   -1.1035 C   0  0  0  0  0  0  0  0  0  0  0  0
    0.0272   -1.4796   -0.5785 C   0  0  0  0  0  0  0  0  0  0  0  0
   -1.1667   -1.2296    0.0411 N   0  0  0  0  0  0  0  0  0  0  0  0
   -1.6276    0.0187    0.1379 C   0  0  0  0  0  0  0  0  0  0  0  0
   -2.8882    0.2513    0.7958 N   0  0  0  0  0  0  0  0  0  0  0  0
   -3.6852   -0.7918    1.3511 C   0  0  0  0  0  0  0  0  0  0  0  0
   -4.9152   -0.1845    2.0071 C   0  0  0  0  0  0  0  0  0  0  0  0
   -6.1922   -0.7354    1.4323 C   0  0  0  0  0  0  0  0  0  0  0  0
   -6.3095   -0.5286   -0.0590 C   0  0  0  0  0  0  0  0  0  0  0  0
   -4.9912   -0.8267   -0.7265 C   0  0  0  0  0  0  0  0  0  0  0  0
   -4.1680   -1.6866    0.2110 C   0  0  0  0  0  0  0  0  0  0  0  0
   -0.8953    1.0564   -0.3894 C   0  0  0  0  0  0  0  0  0  0  0  0
    2.3896    2.1503   -1.5733 N   0  0  0  0  0  0  0  0  0  0  0  0
    3.3160    1.2312   -1.0082 C   0  0  0  0  0  0  0  0  0  0  0  0
    4.2742    0.6740   -1.8285 C   0  0  0  0  0  0  0  0  0  0  0  0
    5.2077   -0.2345   -1.3219 C   0  0  0  0  0  0  0  0  0  0  0  0
    5.1991   -0.6002    0.0090 C   0  0  0  0  0  0  0  0  0  0  0  0
    6.1261   -1.5037    0.5169 C   0  0  0  0  0  0  0  0  0  0  0  0
    6.1268   -1.8761    1.8446 C   0  0  0  0  0  0  0  0  0  0  0  0
    5.1655   -1.3152    2.6606 C   0  0  0  0  0  0  0  0  0  0  0  0
    4.2458   -0.4188    2.1567 C   0  0  0  0  0  0  0  0  0  0  0  0
    4.2405   -0.0428    0.8294 C   0  0  0  0  0  0  0  0  0  0  0  0
    3.3238    0.8535    0.3175 C   0  0  0  0  0  0  0  0  0  0  0  0
    1.3452    4.7843   -3.0715 H   0  0  0  0  0  0  0  0  0  0  0  0
    1.6874   -0.6505   -1.5857 H   0  0  0  0  0  0  0  0  0  0  0  0
    0.3898   -2.4821   -0.6522 H   0  0  0  0  0  0  0  0  0  0  0  0
   -3.2213    1.2492    0.8599 H   0  0  0  0  0  0  0  0  0  0  0  0
   -3.1142   -1.4374    2.0327 H   0  0  0  0  0  0  0  0  0  0  0  0
   -4.8792   -0.4940    3.0708 H   0  0  0  0  0  0  0  0  0  0  0  0
   -4.8941    0.9271    1.9789 H   0  0  0  0  0  0  0  0  0  0  0  0
   -6.3082   -1.7883    1.7391 H   0  0  0  0  0  0  0  0  0  0  0  0
   -7.0222   -0.1899    1.9711 H   0  0  0  0  0  0  0  0  0  0  0  0
   -6.7035    0.4785   -0.3061 H   0  0  0  0  0  0  0  0  0  0  0  0
   -7.0378   -1.2893   -0.4647 H   0  0  0  0  0  0  0  0  0  0  0  0
   -4.4532    0.1094   -0.8928 H   0  0  0  0  0  0  0  0  0  0  0  0
   -5.1224   -1.3193   -1.7170 H   0  0  0  0  0  0  0  0  0  0  0  0
   -4.7908   -2.5373    0.6082 H   0  0  0  0  0  0  0  0  0  0  0  0
   -3.3256   -2.0823   -0.3804 H   0  0  0  0  0  0  0  0  0  0  0  0
   -1.2861    2.0572   -0.3002 H   0  0  0  0  0  0  0  0  0  0  0  0
    4.3143    0.9319   -2.8666 H   0  0  0  0  0  0  0  0  0  0  0  0
    5.9682   -0.6822   -1.9531 H   0  0  0  0  0  0  0  0  0  0  0  0
    6.8812   -1.9458   -0.1186 H   0  0  0  0  0  0  0  0  0  0  0  0
    6.8349   -2.5759    2.2671 H   0  0  0  0  0  0  0  0  0  0  0  0
    5.1641   -1.6101    3.7179 H   0  0  0  0  0  0  0  0  0  0  0  0
    3.4894    0.0224    2.7991 H   0  0  0  0  0  0  0  0  0  0  0  0
    2.5774    1.2832    0.9716 H   0  0  0  0  0  0  0  0  0  0  0  0
  1  2  2  0
  2  3  1  0
  3  4  1  0
  4  5  2  0
  5  6  1  0
  6  7  2  0
  7  8  1  0
  8  9  2  0
  9 10  1  0
 10 11  1  0
 11 12  1  0
 12 13  1  0
 13 14  1  0
 14 15  1  0
 15 16  1  0
 16 17  1  0
 10 18  2  0
  5 19  1  0
 19 20  1  0
 20 21  2  0
 21 22  1  0
 22 23  2  0
 23 24  1  0
 24 25  2  0
 25 26  1  0
 26 27  2  0
 27 28  1  0
 28 29  2  0
 19  2  1  0
 29 20  1  0
 18  6  1  0
 28 23  1  0
 17 12  1  0
  3 30  1  0
  7 31  1  0
  8 32  1  0
 11 33  1  0
 12 34  1  0
 13 35  1  0
 13 36  1  0
 14 37  1  0
 14 38  1  0
 15 39  1  0
 15 40  1  0
 16 41  1  0
 16 42  1  0
 17 43  1  0
 17 44  1  0
 18 45  1  0
 21 46  1  0
 22 47  1  0
 24 48  1  0
 25 49  1  0
 26 50  1  0
 27 51  1  0
 29 52  1  0
M  END
$$$$
