
     RDKit          3D

 19 19  0  0  0  0  0  0  0  0999 V2000
    2.6687    1.4360   -0.4981 O   0  0  0  0  0  0  0  0  0  0  0  0
    2.8434    0.5704    0.3964 C   0  0  0  0  0  0  0  0  0  0  0  0
    2.1319   -0.6490    0.3653 N   0  0  0  0  0  0  0  0  0  0  0  0
    1.1571   -1.0669   -0.6283 C   0  0  0  0  0  0  0  0  0  0  0  0
   -0.1062   -0.3677   -0.3735 C   0  0  0  0  0  0  0  0  0  0  0  0
   -1.0174   -0.9642    0.4929 C   0  0  0  0  0  0  0  0  0  0  0  0
   -2.2499   -0.4534    0.8448 C   0  0  0  0  0  0  0  0  0  0  0  0
   -2.6006    0.7678    0.2751 C   0  0  0  0  0  0  0  0  0  0  0  0
   -1.7410    1.4097   -0.5915 C   0  0  0  0  0  0  0  0  0  0  0  0
   -0.5241    0.8382   -0.8972 C   0  0  0  0  0  0  0  0  0  0  0  0
    3.5554    0.8133    1.1716 H   0  0  0  0  0  0  0  0  0  0  0  0
    2.3666   -1.2943    1.1706 H   0  0  0  0  0  0  0  0  0  0  0  0
    0.9920   -2.1555   -0.5167 H   0  0  0  0  0  0  0  0  0  0  0  0
    1.5910   -0.8300   -1.6240 H   0  0  0  0  0  0  0  0  0  0  0  0
   -0.7539   -1.9307    0.9513 H   0  0  0  0  0  0  0  0  0  0  0  0
   -2.8886   -0.9991    1.5315 H   0  0  0  0  0  0  0  0  0  0  0  0
   -3.5686    1.1802    0.5441 H   0  0  0  0  0  0  0  0  0  0  0  0
   -2.0125    2.3697   -1.0412 H   0  0  0  0  0  0  0  0  0  0  0  0
    0.1566    1.3256   -1.5731 H   0  0  0  0  0  0  0  0  0  0  0  0
  1  2  2  0
  2  3  1  0
  3  4  1  0
  4  5  1  0
  5  6  2  0
  6  7  1  0
  7  8  2  0
  8  9  1  0
  9 10  2  0
 10  5  1  0
  2 11  1  0
  3 12  1  0
  4 13  1  0
  4 14  1  0
  6 15  1  0
  7 16  1  0
  8 17  1  0
  9 18  1  0
 10 19  1  0
M  END
$$$$
