
     RDKit          3D

 61 64  0  0  0  0  0  0  0  0999 V2000
   -4.9929   -0.3127    2.8705 O   0  0  0  0  0  0  0  0  0  0  0  0
   -5.7404   -0.9235    1.8624 C   0  0  0  0  0  0  0  0  0  0  0  0
   -4.7994   -1.4931    0.8231 C   0  0  0  0  0  0  0  0  0  0  0  0
   -5.5278   -2.1646   -0.2907 C   0  0  0  0  0  0  0  0  0  0  0  0
   -6.5878   -2.9056    0.2697 O   0  0  0  0  0  0  0  0  0  0  0  0
   -6.1236   -1.2151   -1.2749 C   0  0  0  0  0  0  0  0  0  0  0  0
   -7.2357   -0.5482   -0.7291 O   0  0  0  0  0  0  0  0  0  0  0  0
   -5.1608   -0.2207   -1.8263 C   0  0  0  0  0  0  0  0  0  0  0  0
   -4.6928   -0.6560   -3.0742 O   0  0  0  0  0  0  0  0  0  0  0  0
   -4.0372    0.0706   -0.9057 C   0  0  0  0  0  0  0  0  0  0  0  0
   -3.0065    0.9175   -1.0596 N   0  0  0  0  0  0  0  0  0  0  0  0
   -2.2161    0.8706    0.0217 C   0  0  0  0  0  0  0  0  0  0  0  0
   -0.9711    1.6450    0.2641 C   0  0  0  0  0  0  0  0  0  0  0  0
   -0.7078    2.5247   -0.9177 C   0  0  0  0  0  0  0  0  0  0  0  0
    0.5478    3.3524   -0.7520 C   0  0  0  0  0  0  0  0  0  0  0  0
    1.6969    2.4394   -0.5844 C   0  0  0  0  0  0  0  0  0  0  0  0
    2.3742    2.0216   -1.7324 C   0  0  0  0  0  0  0  0  0  0  0  0
    3.4657    1.1624   -1.6478 C   0  0  0  0  0  0  0  0  0  0  0  0
    3.8842    0.7172   -0.4125 C   0  0  0  0  0  0  0  0  0  0  0  0
    5.0487   -0.1992   -0.3258 C   0  0  0  0  0  0  0  0  0  0  0  0
    4.6212   -1.5024    0.3170 C   0  0  0  0  0  0  0  0  0  0  0  0
    5.8329   -2.4184    0.3124 C   0  0  0  0  0  0  0  0  0  0  0  0
    6.9376   -1.8478    1.1450 C   0  0  0  0  0  0  0  0  0  0  0  0
    7.2879   -0.4277    0.7735 C   0  0  0  0  0  0  0  0  0  0  0  0
    6.0652    0.4362    0.5961 C   0  0  0  0  0  0  0  0  0  0  0  0
    3.2081    1.1363    0.7114 C   0  0  0  0  0  0  0  0  0  0  0  0
    2.1208    1.9903    0.6476 C   0  0  0  0  0  0  0  0  0  0  0  0
   -2.7634   -0.0311    0.8821 C   0  0  0  0  0  0  0  0  0  0  0  0
   -3.8922   -0.5168    0.2898 N   0  0  0  0  0  0  0  0  0  0  0  0
   -5.2957    0.6083    3.0656 H   0  0  0  0  0  0  0  0  0  0  0  0
   -6.3069   -1.7409    2.3130 H   0  0  0  0  0  0  0  0  0  0  0  0
   -6.4366   -0.1782    1.4353 H   0  0  0  0  0  0  0  0  0  0  0  0
   -4.2035   -2.2918    1.3528 H   0  0  0  0  0  0  0  0  0  0  0  0
   -4.8272   -2.8383   -0.8293 H   0  0  0  0  0  0  0  0  0  0  0  0
   -7.2681   -3.0039   -0.4200 H   0  0  0  0  0  0  0  0  0  0  0  0
   -6.5234   -1.8101   -2.1213 H   0  0  0  0  0  0  0  0  0  0  0  0
   -7.4153    0.2664   -1.2809 H   0  0  0  0  0  0  0  0  0  0  0  0
   -5.7227    0.7395   -2.0102 H   0  0  0  0  0  0  0  0  0  0  0  0
   -4.8998   -1.6236   -3.1750 H   0  0  0  0  0  0  0  0  0  0  0  0
   -1.1182    2.2080    1.2035 H   0  0  0  0  0  0  0  0  0  0  0  0
   -0.1078    0.9661    0.4251 H   0  0  0  0  0  0  0  0  0  0  0  0
   -0.6637    1.8870   -1.8147 H   0  0  0  0  0  0  0  0  0  0  0  0
   -1.5398    3.2425   -1.0722 H   0  0  0  0  0  0  0  0  0  0  0  0
    0.4139    4.0363    0.1035 H   0  0  0  0  0  0  0  0  0  0  0  0
    0.7361    3.9880   -1.6399 H   0  0  0  0  0  0  0  0  0  0  0  0
    2.0696    2.3536   -2.7138 H   0  0  0  0  0  0  0  0  0  0  0  0
    3.9906    0.8374   -2.5247 H   0  0  0  0  0  0  0  0  0  0  0  0
    5.4448   -0.4129   -1.3182 H   0  0  0  0  0  0  0  0  0  0  0  0
    3.7913   -1.9890   -0.2237 H   0  0  0  0  0  0  0  0  0  0  0  0
    4.3701   -1.3098    1.3865 H   0  0  0  0  0  0  0  0  0  0  0  0
    5.5342   -3.3859    0.7716 H   0  0  0  0  0  0  0  0  0  0  0  0
    6.1989   -2.5513   -0.7274 H   0  0  0  0  0  0  0  0  0  0  0  0
    6.7425   -1.9673    2.2115 H   0  0  0  0  0  0  0  0  0  0  0  0
    7.8579   -2.4640    0.9237 H   0  0  0  0  0  0  0  0  0  0  0  0
    7.8783    0.0003    1.6109 H   0  0  0  0  0  0  0  0  0  0  0  0
    7.9142   -0.3557   -0.1312 H   0  0  0  0  0  0  0  0  0  0  0  0
    5.5749    0.7015    1.5304 H   0  0  0  0  0  0  0  0  0  0  0  0
    6.3965    1.3784    0.1037 H   0  0  0  0  0  0  0  0  0  0  0  0
    3.5416    0.7836    1.6742 H   0  0  0  0  0  0  0  0  0  0  0  0
    1.5941    2.3162    1.5298 H   0  0  0  0  0  0  0  0  0  0  0  0
   -2.3560   -0.2916    1.8465 H   0  0  0  0  0  0  0  0  0  0  0  0
  1  2  1  0
  2  3  1  0
  3  4  1  0
  4  5  1  0
  4  6  1  0
  6  7  1  0
  6  8  1  0
  8  9  1  0
  8 10  1  0
 10 11  2  0
 11 12  1  0
 12 13  1  0
 13 14  1  0
 14 15  1  0
 15 16  1  0
 16 17  2  0
 17 18  1  0
 18 19  2  0
 19 20  1  0
 20 21  1  0
 21 22  1  0
 22 23  1  0
 23 24  1  0
 24 25  1  0
 19 26  1  0
 26 27  2  0
 12 28  2  0
 28 29  1  0
 29  3  1  0
 29 10  1  0
 27 16  1  0
 25 20  1  0
  1 30  1  0
  2 31  1  0
  2 32  1  0
  3 33  1  0
  4 34  1  0
  5 35  1  0
  6 36  1  0
  7 37  1  0
  8 38  1  0
  9 39  1  0
 13 40  1  0
 13 41  1  0
 14 42  1  0
 14 43  1  0
 15 44  1  0
 15 45  1  0
 17 46  1  0
 18 47  1  0
 20 48  1  0
 21 49  1  0
 21 50  1  0
 22 51  1  0
 22 52  1  0
 23 53  1  0
 23 54  1  0
 24 55  1  0
 24 56  1  0
 25 57  1  0
 25 58  1  0
 26 59  1  0
 27 60  1  0
 28 61  1  0
M  END
$$$$
