
     RDKit          3D

 50 53  0  0  0  0  0  0  0  0999 V2000
    6.3904   -1.6955   -0.8013 N   0  0  0  0  0  0  0  0  0  0  0  0
    5.7823   -0.7482    0.0404 C   0  0  0  0  0  0  0  0  0  0  0  0
    4.4563   -0.8462    0.2247 N   0  0  0  0  0  0  0  0  0  0  0  0
    3.7453   -0.0144    0.9983 C   0  0  0  0  0  0  0  0  0  0  0  0
    2.3480   -0.1487    1.1676 N   0  0  0  0  0  0  0  0  0  0  0  0
    1.6119   -1.1988    0.5006 C   0  0  0  0  0  0  0  0  0  0  0  0
    1.7225   -1.0498   -1.0007 C   0  0  0  0  0  0  0  0  0  0  0  0
    1.1876    0.2360   -1.3712 N   0  0  0  0  0  0  0  0  0  0  0  0
   -0.1676    0.5844   -1.1473 C   0  0  0  0  0  0  0  0  0  0  0  0
   -0.5614    1.8325   -1.5254 N   0  0  0  0  0  0  0  0  0  0  0  0
   -1.8228    2.1975   -1.3387 C   0  0  0  0  0  0  0  0  0  0  0  0
   -2.7317    1.3307   -0.7692 C   0  0  0  0  0  0  0  0  0  0  0  0
   -4.1203    1.7881   -0.5956 C   0  0  0  0  0  0  0  0  0  0  0  0
   -5.1510    1.1107   -0.0857 N   0  0  0  0  0  0  0  0  0  0  0  0
   -6.2404    1.8773   -0.1086 C   0  0  0  0  0  0  0  0  0  0  0  0
   -5.8661    3.0834   -0.6575 C   0  0  0  0  0  0  0  0  0  0  0  0
   -4.5607    3.0087   -0.9498 N   0  0  0  0  0  0  0  0  0  0  0  0
   -2.3403    0.0656   -0.3834 C   0  0  0  0  0  0  0  0  0  0  0  0
   -3.2796   -0.8711    0.2357 C   0  0  0  0  0  0  0  0  0  0  0  0
   -3.7618   -0.6649    1.5192 C   0  0  0  0  0  0  0  0  0  0  0  0
   -4.6381   -1.5488    2.0764 C   0  0  0  0  0  0  0  0  0  0  0  0
   -5.0930   -2.6723    1.4276 C   0  0  0  0  0  0  0  0  0  0  0  0
   -6.2170   -3.8172    2.1262 Cl  0  0  0  0  0  0  0  0  0  0  0  0
   -4.6119   -2.8799    0.1443 C   0  0  0  0  0  0  0  0  0  0  0  0
   -3.7259   -1.9937   -0.4291 C   0  0  0  0  0  0  0  0  0  0  0  0
   -3.1207   -2.2712   -2.0676 Cl  0  0  0  0  0  0  0  0  0  0  0  0
   -1.0518   -0.2573   -0.5937 N   0  0  0  0  0  0  0  0  0  0  0  0
    4.4225    1.0061    1.6450 C   0  0  0  0  0  0  0  0  0  0  0  0
    5.7833    1.1353    1.4779 C   0  0  0  0  0  0  0  0  0  0  0  0
    6.4674    0.2587    0.6752 C   0  0  0  0  0  0  0  0  0  0  0  0
    7.8696    0.3518    0.4726 N   0  0  0  0  0  4  0  0  0  0  0  0
    8.6207    0.8651    1.3528 O   0  0  0  0  0  0  0  0  0  0  0  0
    8.4042   -0.1283   -0.7041 O   0  0  0  0  0  1  0  0  0  0  0  0
    6.6751   -2.6111   -0.4164 H   0  0  0  0  0  0  0  0  0  0  0  0
    6.5554   -1.4865   -1.7969 H   0  0  0  0  0  0  0  0  0  0  0  0
    1.7826    0.4932    1.7731 H   0  0  0  0  0  0  0  0  0  0  0  0
    2.0565   -2.1879    0.8070 H   0  0  0  0  0  0  0  0  0  0  0  0
    0.5644   -1.2482    0.8022 H   0  0  0  0  0  0  0  0  0  0  0  0
    1.1010   -1.8868   -1.4433 H   0  0  0  0  0  0  0  0  0  0  0  0
    2.7549   -1.1925   -1.3649 H   0  0  0  0  0  0  0  0  0  0  0  0
    1.8507    0.9209   -1.8227 H   0  0  0  0  0  0  0  0  0  0  0  0
   -2.0820    3.2080   -1.6601 H   0  0  0  0  0  0  0  0  0  0  0  0
   -7.2600    1.6128    0.2418 H   0  0  0  0  0  0  0  0  0  0  0  0
   -6.5443    3.9360   -0.8139 H   0  0  0  0  0  0  0  0  0  0  0  0
   -4.0037    3.8033   -1.3874 H   0  0  0  0  0  0  0  0  0  0  0  0
   -3.4019    0.2304    2.0419 H   0  0  0  0  0  0  0  0  0  0  0  0
   -5.0055   -1.3728    3.0807 H   0  0  0  0  0  0  0  0  0  0  0  0
   -4.9508   -3.7537   -0.3931 H   0  0  0  0  0  0  0  0  0  0  0  0
    3.8420    1.6683    2.2642 H   0  0  0  0  0  0  0  0  0  0  0  0
    6.3157    1.9408    1.9889 H   0  0  0  0  0  0  0  0  0  0  0  0
  1  2  1  0
  2  3  2  0
  3  4  1  0
  4  5  1  0
  5  6  1  0
  6  7  1  0
  7  8  1  0
  8  9  1  0
  9 10  2  0
 10 11  1  0
 11 12  2  0
 12 13  1  0
 13 14  2  0
 14 15  1  0
 15 16  2  0
 16 17  1  0
 12 18  1  0
 18 19  1  0
 19 20  2  0
 20 21  1  0
 21 22  2  0
 22 23  1  0
 22 24  1  0
 24 25  2  0
 25 26  1  0
 18 27  2  0
  4 28  2  0
 28 29  1  0
 29 30  2  0
 30 31  1  0
 31 32  2  0
 31 33  1  0
 30  2  1  0
 27  9  1  0
 17 13  1  0
 25 19  1  0
  1 34  1  0
  1 35  1  0
  5 36  1  0
  6 37  1  0
  6 38  1  0
  7 39  1  0
  7 40  1  0
  8 41  1  0
 11 42  1  0
 15 43  1  0
 16 44  1  0
 17 45  1  0
 20 46  1  0
 21 47  1  0
 24 48  1  0
 28 49  1  0
 29 50  1  0
M  CHG  2  31   1  33  -1
M  END
$$$$
