
     RDKit          3D

105110  0  0  0  0  0  0  0  0999 V2000
    2.0697    0.7832    0.3350 C   0  0  2  0  0  0  0  0  0  0  0  0
    3.2722    1.0994    1.1469 C   0  0  0  0  0  0  0  0  0  0  0  0
    4.2975    0.4779    0.1756 C   0  0  1  0  0  0  0  0  0  0  0  0
    3.8430    0.9505   -1.1873 C   0  0  2  0  0  0  0  0  0  0  0  0
    4.6747    2.0314   -1.5629 O   0  0  0  0  0  0  0  0  0  0  0  0
    5.3939    2.0446   -2.7498 C   0  0  0  0  0  0  0  0  0  0  0  0
    6.2286    3.2615   -3.0029 C   0  0  0  0  0  0  0  0  0  0  0  0
    5.2514    1.0283   -3.4630 O   0  0  0  0  0  0  0  0  0  0  0  0
    2.4063    1.3917   -1.0089 C   0  0  2  0  0  0  0  0  0  0  0  0
    2.3982    2.8957   -0.9754 C   0  0  0  0  0  0  0  0  0  0  0  0
    1.4376    0.8503   -1.9981 C   0  0  0  0  0  0  0  0  0  0  0  0
    0.2035    0.2379   -1.4826 C   0  0  0  0  0  0  0  0  0  0  0  0
   -0.2152    0.5187   -0.0832 C   0  0  1  0  0  0  0  0  0  0  0  0
    0.7768    1.3496    0.7166 C   0  0  1  0  0  0  0  0  0  0  0  0
    0.4170    1.3287    2.1628 C   0  0  0  0  0  0  0  0  0  0  0  0
   -0.9700    1.9801    2.2572 C   0  0  0  0  0  0  0  0  0  0  0  0
   -1.9161    1.0111    1.5524 C   0  0  1  0  0  0  0  0  0  0  0  0
   -3.3324    1.4092    1.8805 C   0  0  0  0  0  0  0  0  0  0  0  0
   -4.2903    0.8891    0.8063 C   0  0  2  0  0  0  0  0  0  0  0  0
   -5.5222    0.6737    1.4374 O   0  0  0  0  0  0  0  0  0  0  0  0
   -6.6807    1.3689    1.1282 C   0  0  0  0  0  0  0  0  0  0  0  0
   -7.9787    1.1115    1.8241 C   0  0  0  0  0  0  0  0  0  0  0  0
   -6.7138    2.2647    0.2384 O   0  0  0  0  0  0  0  0  0  0  0  0
   -3.6908   -0.3902    0.2963 C   0  0  2  0  0  0  0  0  0  0  0  0
   -2.5332   -0.0047   -0.5972 C   0  0  0  0  0  0  0  0  0  0  0  0
   -1.6334    1.0219    0.0630 C   0  0  2  0  0  0  0  0  0  0  0  0
   -1.8279    2.3855   -0.5212 C   0  0  0  0  0  0  0  0  0  0  0  0
   -4.5647   -1.2335   -0.4099 N   0  0  0  0  0  0  0  0  0  0  0  0
   -5.1806   -0.7358   -1.5938 C   0  0  0  0  0  0  0  0  0  0  0  0
   -6.2304   -1.6794   -2.1402 C   0  0  0  0  0  0  0  0  0  0  0  0
   -6.6167   -2.7035   -1.2232 N   0  0  0  0  0  4  0  0  0  0  0  0
   -7.5355   -3.5906   -1.8712 C   0  0  0  0  0  0  0  0  0  0  0  0
   -7.2894   -2.1619   -0.0400 C   0  0  0  0  0  0  0  0  0  0  0  0
   -5.4931   -3.4788   -0.7320 C   0  0  0  0  0  0  0  0  0  0  0  0
   -4.3101   -2.6295   -0.3982 C   0  0  0  0  0  0  0  0  0  0  0  0
    5.6275    0.7993    0.5338 N   0  0  0  0  0  0  0  0  0  0  0  0
    6.5560    0.1936   -0.3663 C   0  0  0  0  0  0  0  0  0  0  0  0
    7.4481   -0.8407    0.3300 C   0  0  0  0  0  0  0  0  0  0  0  0
    6.6875   -1.8441    1.0079 N   0  0  0  0  0  4  0  0  0  0  0  0
    6.0213   -2.7271    0.0591 C   0  0  0  0  0  0  0  0  0  0  0  0
    7.6092   -2.6851    1.7556 C   0  0  0  0  0  0  0  0  0  0  0  0
    5.7771   -1.2116    1.9304 C   0  0  0  0  0  0  0  0  0  0  0  0
    5.8689    0.2847    1.8547 C   0  0  0  0  0  0  0  0  0  0  0  0
    2.0779   -0.3210    0.1693 H   0  0  0  0  0  0  0  0  0  0  0  0
    3.4733    2.1511    1.3391 H   0  0  0  0  0  0  0  0  0  0  0  0
    3.2062    0.5478    2.0892 H   0  0  0  0  0  0  0  0  0  0  0  0
    4.0449   -0.6170    0.1919 H   0  0  0  0  0  0  0  0  0  0  0  0
    3.8802    0.1631   -1.9655 H   0  0  0  0  0  0  0  0  0  0  0  0
    7.0734    3.2123   -2.2580 H   0  0  0  0  0  0  0  0  0  0  0  0
    5.7056    4.1985   -2.7880 H   0  0  0  0  0  0  0  0  0  0  0  0
    6.6993    3.2488   -4.0075 H   0  0  0  0  0  0  0  0  0  0  0  0
    2.4569    3.3479    0.0136 H   0  0  0  0  0  0  0  0  0  0  0  0
    1.4774    3.2554   -1.5075 H   0  0  0  0  0  0  0  0  0  0  0  0
    3.2410    3.3385   -1.5669 H   0  0  0  0  0  0  0  0  0  0  0  0
    1.1881    1.6950   -2.6929 H   0  0  0  0  0  0  0  0  0  0  0  0
    2.0112    0.1463   -2.6500 H   0  0  0  0  0  0  0  0  0  0  0  0
    0.2450   -0.8732   -1.6907 H   0  0  0  0  0  0  0  0  0  0  0  0
   -0.6696    0.5552   -2.1232 H   0  0  0  0  0  0  0  0  0  0  0  0
   -0.2280   -0.4575    0.4735 H   0  0  0  0  0  0  0  0  0  0  0  0
    0.6397    2.3912    0.3611 H   0  0  0  0  0  0  0  0  0  0  0  0
    1.1141    1.9916    2.7067 H   0  0  0  0  0  0  0  0  0  0  0  0
    0.3775    0.3050    2.5466 H   0  0  0  0  0  0  0  0  0  0  0  0
   -0.9567    2.9570    1.7684 H   0  0  0  0  0  0  0  0  0  0  0  0
   -1.2812    2.0839    3.3094 H   0  0  0  0  0  0  0  0  0  0  0  0
   -1.6331    0.0127    1.9547 H   0  0  0  0  0  0  0  0  0  0  0  0
   -3.3379    2.5111    1.9560 H   0  0  0  0  0  0  0  0  0  0  0  0
   -3.5827    0.9984    2.8642 H   0  0  0  0  0  0  0  0  0  0  0  0
   -4.3295    1.6780    0.0266 H   0  0  0  0  0  0  0  0  0  0  0  0
   -8.4230    2.0380    2.2316 H   0  0  0  0  0  0  0  0  0  0  0  0
   -8.7434    0.6920    1.1224 H   0  0  0  0  0  0  0  0  0  0  0  0
   -7.8537    0.3375    2.6212 H   0  0  0  0  0  0  0  0  0  0  0  0
   -3.3417   -0.9525    1.1967 H   0  0  0  0  0  0  0  0  0  0  0  0
   -1.9748   -0.9001   -0.9576 H   0  0  0  0  0  0  0  0  0  0  0  0
   -2.9546    0.4800   -1.4968 H   0  0  0  0  0  0  0  0  0  0  0  0
   -2.3810    3.0747    0.1738 H   0  0  0  0  0  0  0  0  0  0  0  0
   -2.5066    2.2897   -1.4175 H   0  0  0  0  0  0  0  0  0  0  0  0
   -0.9005    2.8421   -0.9230 H   0  0  0  0  0  0  0  0  0  0  0  0
   -5.5502    0.2850   -1.5329 H   0  0  0  0  0  0  0  0  0  0  0  0
   -4.3654   -0.7004   -2.3741 H   0  0  0  0  0  0  0  0  0  0  0  0
   -7.1327   -1.0776   -2.3664 H   0  0  0  0  0  0  0  0  0  0  0  0
   -5.9114   -2.1742   -3.0809 H   0  0  0  0  0  0  0  0  0  0  0  0
   -7.0511   -4.2956   -2.5820 H   0  0  0  0  0  0  0  0  0  0  0  0
   -7.9504   -4.2562   -1.0601 H   0  0  0  0  0  0  0  0  0  0  0  0
   -8.4033   -3.0774   -2.3169 H   0  0  0  0  0  0  0  0  0  0  0  0
   -7.7582   -1.1857   -0.2179 H   0  0  0  0  0  0  0  0  0  0  0  0
   -8.0148   -2.8802    0.3711 H   0  0  0  0  0  0  0  0  0  0  0  0
   -6.5266   -2.0039    0.7758 H   0  0  0  0  0  0  0  0  0  0  0  0
   -5.1833   -4.2127   -1.5143 H   0  0  0  0  0  0  0  0  0  0  0  0
   -5.7909   -4.1018    0.1349 H   0  0  0  0  0  0  0  0  0  0  0  0
   -3.4275   -2.8817   -1.0529 H   0  0  0  0  0  0  0  0  0  0  0  0
   -3.9661   -2.8947    0.6318 H   0  0  0  0  0  0  0  0  0  0  0  0
    7.2425    0.9442   -0.8300 H   0  0  0  0  0  0  0  0  0  0  0  0
    6.0672   -0.3406   -1.2056 H   0  0  0  0  0  0  0  0  0  0  0  0
    8.2143   -0.3735    0.9522 H   0  0  0  0  0  0  0  0  0  0  0  0
    8.0032   -1.3536   -0.5069 H   0  0  0  0  0  0  0  0  0  0  0  0
    6.4296   -3.7572    0.0596 H   0  0  0  0  0  0  0  0  0  0  0  0
    6.0768   -2.3687   -0.9843 H   0  0  0  0  0  0  0  0  0  0  0  0
    4.9373   -2.8575    0.3264 H   0  0  0  0  0  0  0  0  0  0  0  0
    8.1584   -3.2921    0.9872 H   0  0  0  0  0  0  0  0  0  0  0  0
    8.3624   -2.0592    2.2554 H   0  0  0  0  0  0  0  0  0  0  0  0
    7.0806   -3.3960    2.4127 H   0  0  0  0  0  0  0  0  0  0  0  0
    4.7831   -1.6352    1.7939 H   0  0  0  0  0  0  0  0  0  0  0  0
    6.0578   -1.4714    2.9936 H   0  0  0  0  0  0  0  0  0  0  0  0
    5.1728    0.7169    2.6085 H   0  0  0  0  0  0  0  0  0  0  0  0
    6.8912    0.5536    2.2375 H   0  0  0  0  0  0  0  0  0  0  0  0
  1  2  1  0
  2  3  1  0
  3  4  1  0
  4  5  1  0
  5  6  1  0
  6  7  1  0
  6  8  2  0
  4  9  1  0
  9 10  1  1
  9 11  1  0
 11 12  1  0
 12 13  1  0
 13 14  1  0
 14 15  1  0
 15 16  1  0
 16 17  1  0
 17 18  1  0
 18 19  1  0
 19 20  1  0
 20 21  1  0
 21 22  1  0
 21 23  2  0
 19 24  1  0
 24 25  1  0
 25 26  1  0
 26 27  1  6
 24 28  1  0
 28 29  1  0
 29 30  1  0
 30 31  1  0
 31 32  1  0
 31 33  1  0
 31 34  1  0
 34 35  1  0
  3 36  1  0
 36 37  1  0
 37 38  1  0
 38 39  1  0
 39 40  1  0
 39 41  1  0
 39 42  1  0
 42 43  1  0
  9  1  1  0
 26 13  1  0
 35 28  1  0
 43 36  1  0
 14  1  1  0
 26 17  1  0
  1 44  1  6
  2 45  1  0
  2 46  1  0
  3 47  1  6
  4 48  1  6
  7 49  1  0
  7 50  1  0
  7 51  1  0
 10 52  1  0
 10 53  1  0
 10 54  1  0
 11 55  1  0
 11 56  1  0
 12 57  1  0
 12 58  1  0
 13 59  1  1
 14 60  1  6
 15 61  1  0
 15 62  1  0
 16 63  1  0
 16 64  1  0
 17 65  1  1
 18 66  1  0
 18 67  1  0
 19 68  1  6
 22 69  1  0
 22 70  1  0
 22 71  1  0
 24 72  1  1
 25 73  1  0
 25 74  1  0
 27 75  1  0
 27 76  1  0
 27 77  1  0
 29 78  1  0
 29 79  1  0
 30 80  1  0
 30 81  1  0
 32 82  1  0
 32 83  1  0
 32 84  1  0
 33 85  1  0
 33 86  1  0
 33 87  1  0
 34 88  1  0
 34 89  1  0
 35 90  1  0
 35 91  1  0
 37 92  1  0
 37 93  1  0
 38 94  1  0
 38 95  1  0
 40 96  1  0
 40 97  1  0
 40 98  1  0
 41 99  1  0
 41100  1  0
 41101  1  0
 42102  1  0
 42103  1  0
 43104  1  0
 43105  1  0
M  CHG  2  31   1  39   1
M  END
$$$$
