
     RDKit          3D

 54 56  0  0  0  0  0  0  0  0999 V2000
    5.2515   -2.7872    1.2814 C   0  0  0  0  0  0  0  0  0  0  0  0
    5.1400   -2.2899   -0.1239 C   0  0  0  0  0  0  0  0  0  0  0  0
    3.6927   -2.1158   -0.5706 C   0  0  0  0  0  0  0  0  0  0  0  0
    2.9625   -1.1408    0.2846 C   0  0  0  0  0  0  0  0  0  0  0  0
    1.5255   -0.9731   -0.1318 C   0  0  0  0  0  0  0  0  0  0  0  0
    1.4568   -0.4653   -1.5284 C   0  0  0  0  0  0  0  0  0  0  0  0
   -0.2363   -0.1769   -2.1331 S   0  0  0  0  0  0  0  0  0  0  0  0
   -0.9823    1.1325   -1.1765 C   0  0  0  0  0  0  0  0  0  0  0  0
   -0.7927    2.4445   -1.5252 N   0  0  0  0  0  0  0  0  0  0  0  0
   -1.3866    3.2326   -0.6310 C   0  0  0  0  0  0  0  0  0  0  0  0
   -1.4342    4.7034   -0.6111 C   0  0  0  0  0  0  0  0  0  0  0  0
   -0.4727    5.4139    0.0786 C   0  0  0  0  0  0  0  0  0  0  0  0
   -0.4898    6.7978    0.1176 C   0  0  0  0  0  0  0  0  0  0  0  0
   -1.5070    7.4329   -0.5610 C   0  0  0  0  0  0  0  0  0  0  0  0
   -1.5344    9.1936   -0.5154 Cl  0  0  0  0  0  0  0  0  0  0  0  0
   -2.4834    6.7248   -1.2610 C   0  0  0  0  0  0  0  0  0  0  0  0
   -2.4397    5.3520   -1.2812 C   0  0  0  0  0  0  0  0  0  0  0  0
   -1.9380    2.4133    0.2585 N   0  0  0  0  0  0  0  0  0  0  0  0
   -1.7045    1.1048   -0.0586 N   0  0  0  0  0  0  0  0  0  0  0  0
   -2.1476    0.0439    0.7620 C   0  0  0  0  0  0  0  0  0  0  0  0
   -2.5398    0.5097    1.9519 O   0  0  0  0  0  0  0  0  0  0  0  0
   -2.2557   -1.3188    0.5805 N   0  0  0  0  0  0  0  0  0  0  0  0
   -2.6970   -2.1139    1.7490 C   0  0  0  0  0  0  0  0  0  0  0  0
   -2.0367   -3.4605    1.7772 C   0  0  0  0  0  0  0  0  0  0  0  0
   -2.2627   -4.2393    0.5160 C   0  0  0  0  0  0  0  0  0  0  0  0
   -2.9915   -3.3546   -0.4527 C   0  0  0  0  0  0  0  0  0  0  0  0
   -2.0961   -2.0735   -0.6125 C   0  0  0  0  0  0  0  0  0  0  0  0
    5.4366   -1.9262    1.9717 H   0  0  0  0  0  0  0  0  0  0  0  0
    4.3594   -3.3824    1.5855 H   0  0  0  0  0  0  0  0  0  0  0  0
    6.1319   -3.4557    1.3620 H   0  0  0  0  0  0  0  0  0  0  0  0
    5.6754   -1.3306   -0.2160 H   0  0  0  0  0  0  0  0  0  0  0  0
    5.5889   -3.0591   -0.7934 H   0  0  0  0  0  0  0  0  0  0  0  0
    3.1950   -3.1132   -0.5241 H   0  0  0  0  0  0  0  0  0  0  0  0
    3.7320   -1.8326   -1.6395 H   0  0  0  0  0  0  0  0  0  0  0  0
    3.4958   -0.1516    0.1746 H   0  0  0  0  0  0  0  0  0  0  0  0
    3.0319   -1.3664    1.3676 H   0  0  0  0  0  0  0  0  0  0  0  0
    1.0015   -1.9531    0.0208 H   0  0  0  0  0  0  0  0  0  0  0  0
    1.0313   -0.2315    0.5655 H   0  0  0  0  0  0  0  0  0  0  0  0
    1.9685    0.5237   -1.5453 H   0  0  0  0  0  0  0  0  0  0  0  0
    2.0177   -1.1039   -2.2358 H   0  0  0  0  0  0  0  0  0  0  0  0
    0.3286    4.8801    0.6118 H   0  0  0  0  0  0  0  0  0  0  0  0
    0.2772    7.3582    0.6679 H   0  0  0  0  0  0  0  0  0  0  0  0
   -3.2565    7.2793   -1.7742 H   0  0  0  0  0  0  0  0  0  0  0  0
   -3.1737    4.7733   -1.8090 H   0  0  0  0  0  0  0  0  0  0  0  0
   -2.4077   -1.5420    2.6418 H   0  0  0  0  0  0  0  0  0  0  0  0
   -3.7812   -2.1777    1.7330 H   0  0  0  0  0  0  0  0  0  0  0  0
   -0.9522   -3.3738    2.0236 H   0  0  0  0  0  0  0  0  0  0  0  0
   -2.4914   -4.0259    2.6152 H   0  0  0  0  0  0  0  0  0  0  0  0
   -2.8724   -5.1634    0.6740 H   0  0  0  0  0  0  0  0  0  0  0  0
   -1.2882   -4.5893    0.1054 H   0  0  0  0  0  0  0  0  0  0  0  0
   -3.0050   -3.8540   -1.4336 H   0  0  0  0  0  0  0  0  0  0  0  0
   -3.9690   -3.0964   -0.0554 H   0  0  0  0  0  0  0  0  0  0  0  0
   -2.5670   -1.5734   -1.5014 H   0  0  0  0  0  0  0  0  0  0  0  0
   -1.1079   -2.5029   -0.7760 H   0  0  0  0  0  0  0  0  0  0  0  0
  1  2  1  0
  2  3  1  0
  3  4  1  0
  4  5  1  0
  5  6  1  0
  6  7  1  0
  7  8  1  0
  8  9  2  0
  9 10  1  0
 10 11  1  0
 11 12  2  0
 12 13  1  0
 13 14  2  0
 14 15  1  0
 14 16  1  0
 16 17  2  0
 10 18  2  0
 18 19  1  0
 19 20  1  0
 20 21  2  0
 20 22  1  0
 22 23  1  0
 23 24  1  0
 24 25  1  0
 25 26  1  0
 26 27  1  0
 19  8  1  0
 27 22  1  0
 17 11  1  0
  1 28  1  0
  1 29  1  0
  1 30  1  0
  2 31  1  0
  2 32  1  0
  3 33  1  0
  3 34  1  0
  4 35  1  0
  4 36  1  0
  5 37  1  0
  5 38  1  0
  6 39  1  0
  6 40  1  0
 12 41  1  0
 13 42  1  0
 16 43  1  0
 17 44  1  0
 23 45  1  0
 23 46  1  0
 24 47  1  0
 24 48  1  0
 25 49  1  0
 25 50  1  0
 26 51  1  0
 26 52  1  0
 27 53  1  0
 27 54  1  0
M  END
$$$$
