
     RDKit          3D

 37 38  0  0  0  0  0  0  0  0999 V2000
    3.1209    1.2341    0.7420 C   0  0  1  0  0  0  0  0  0  0  0  0
    2.6822    1.4383    2.0627 O   0  0  0  0  0  0  0  0  0  0  0  0
    3.6107   -0.1627    0.6201 C   0  0  0  0  0  0  0  0  0  0  0  0
    4.1119   -0.5079   -0.7626 C   0  0  0  0  0  0  0  0  0  0  0  0
    4.5729   -1.9210   -0.7631 C   0  0  0  0  0  0  0  0  0  0  0  0
    4.5516   -2.7958    0.3307 O   0  0  0  0  0  0  0  0  0  0  0  0
    5.0515   -2.5137   -1.7800 O   0  0  0  0  0  0  0  0  0  0  0  0
    2.0749    1.6119   -0.1722 N   0  0  0  0  0  0  0  0  0  0  0  0
    0.7254    1.1820   -0.1962 C   0  0  0  0  0  0  0  0  0  0  0  0
   -0.1767    1.6136   -1.1751 C   0  0  0  0  0  0  0  0  0  0  0  0
   -1.4907    1.2108   -1.1984 C   0  0  0  0  0  0  0  0  0  0  0  0
   -1.9822    0.3499   -0.2413 C   0  0  0  0  0  0  0  0  0  0  0  0
   -1.1340   -0.1055    0.7469 C   0  0  0  0  0  0  0  0  0  0  0  0
    0.1620    0.3324    0.7149 C   0  0  0  0  0  0  0  0  0  0  0  0
   -3.3446   -0.0558   -0.2818 N   0  0  0  0  0  0  0  0  0  0  0  0
   -3.9479   -1.1824   -0.9436 C   0  0  0  0  0  0  0  0  0  0  0  0
   -3.2891   -2.1329   -1.4389 O   0  0  0  0  0  0  0  0  0  0  0  0
   -5.4103   -0.9109   -0.8709 C   0  0  0  0  0  0  0  0  0  0  0  0
   -5.5541   -0.1889    0.4663 C   0  0  0  0  0  0  0  0  0  0  0  0
   -4.3511    0.7071    0.4108 C   0  0  0  0  0  0  0  0  0  0  0  0
   -4.3590    1.8455    0.9002 O   0  0  0  0  0  0  0  0  0  0  0  0
    4.0009    1.9447    0.5747 H   0  0  0  0  0  0  0  0  0  0  0  0
    3.2392    0.8516    2.6322 H   0  0  0  0  0  0  0  0  0  0  0  0
    4.4913   -0.2637    1.2989 H   0  0  0  0  0  0  0  0  0  0  0  0
    2.8581   -0.8999    0.9242 H   0  0  0  0  0  0  0  0  0  0  0  0
    3.3860   -0.3412   -1.5639 H   0  0  0  0  0  0  0  0  0  0  0  0
    4.9825    0.1612   -0.9941 H   0  0  0  0  0  0  0  0  0  0  0  0
    5.3854   -3.3660    0.5280 H   0  0  0  0  0  0  0  0  0  0  0  0
    2.3187    2.3052   -0.9448 H   0  0  0  0  0  0  0  0  0  0  0  0
    0.1924    2.3007   -1.9490 H   0  0  0  0  0  0  0  0  0  0  0  0
   -2.1047    1.6051   -2.0013 H   0  0  0  0  0  0  0  0  0  0  0  0
   -1.5390   -0.7747    1.4809 H   0  0  0  0  0  0  0  0  0  0  0  0
    0.7532   -0.0648    1.5271 H   0  0  0  0  0  0  0  0  0  0  0  0
   -6.0165   -1.8398   -0.8922 H   0  0  0  0  0  0  0  0  0  0  0  0
   -5.7081   -0.1889   -1.6479 H   0  0  0  0  0  0  0  0  0  0  0  0
   -5.3864   -0.8740    1.3050 H   0  0  0  0  0  0  0  0  0  0  0  0
   -6.4774    0.3964    0.5113 H   0  0  0  0  0  0  0  0  0  0  0  0
  1  2  1  0
  1  3  1  0
  3  4  1  0
  4  5  1  0
  5  6  1  0
  5  7  2  0
  1  8  1  0
  8  9  1  0
  9 10  2  0
 10 11  1  0
 11 12  2  0
 12 13  1  0
 13 14  2  0
 12 15  1  0
 15 16  1  0
 16 17  2  0
 16 18  1  0
 18 19  1  0
 19 20  1  0
 20 21  2  0
 14  9  1  0
 20 15  1  0
  1 22  1  6
  2 23  1  0
  3 24  1  0
  3 25  1  0
  4 26  1  0
  4 27  1  0
  6 28  1  0
  8 29  1  0
 10 30  1  0
 11 31  1  0
 13 32  1  0
 14 33  1  0
 18 34  1  0
 18 35  1  0
 19 36  1  0
 19 37  1  0
M  END
$$$$
