
     RDKit          3D

 55 58  0  0  0  0  0  0  0  0999 V2000
   -8.4394    1.3921   -1.0045 C   0  0  0  0  0  0  0  0  0  0  0  0
   -7.2731    1.9753   -0.8931 C   0  0  0  0  0  0  0  0  0  0  0  0
   -6.1942    1.4056   -0.1235 C   0  0  0  0  0  0  0  0  0  0  0  0
   -4.9721    2.0581   -0.0315 C   0  0  0  0  0  0  0  0  0  0  0  0
   -3.9213    1.5419    0.6949 C   0  0  0  0  0  0  0  0  0  0  0  0
   -4.0390    0.3537    1.3623 C   0  0  0  0  0  0  0  0  0  0  0  0
   -2.9202   -0.2335    2.1583 C   0  0  0  0  0  0  0  0  0  0  0  0
   -2.1085   -1.0949    1.3159 N   0  0  0  0  0  0  0  0  0  0  0  0
   -2.3425   -2.4859    1.1327 C   0  0  0  0  0  0  0  0  0  0  0  0
   -3.2770   -3.1490    1.6725 O   0  0  0  0  0  0  0  0  0  0  0  0
   -1.3110   -2.9601    0.2234 C   0  0  0  0  0  0  0  0  0  0  0  0
   -1.2132   -4.1442   -0.1589 O   0  0  0  0  0  0  0  0  0  0  0  0
   -0.4622   -1.8004   -0.1221 C   0  0  0  0  0  0  0  0  0  0  0  0
    0.6425   -1.7193   -0.9428 C   0  0  0  0  0  0  0  0  0  0  0  0
    1.2954   -0.5135   -1.1269 C   0  0  0  0  0  0  0  0  0  0  0  0
    2.6835   -0.4146   -2.1604 S   0  0  0  0  0  6  0  0  0  0  0  0
    2.7226    0.9615   -2.7811 O   0  0  0  0  0  0  0  0  0  0  0  0
    2.5296   -1.4536   -3.2435 O   0  0  0  0  0  0  0  0  0  0  0  0
    4.1640   -0.6968   -1.3769 N   0  0  0  0  0  0  0  0  0  0  0  0
    4.3069   -1.9904   -0.7923 C   0  0  0  0  0  0  0  0  0  0  0  0
    4.5498   -1.8118    0.6829 C   0  0  0  0  0  0  0  0  0  0  0  0
    4.1503   -0.3640    0.9034 C   0  0  0  0  0  0  0  0  0  0  0  0
    4.5179    0.3050   -0.3935 C   0  0  1  0  0  0  0  0  0  0  0  0
    5.9955    0.5558   -0.5159 C   0  0  0  0  0  0  0  0  0  0  0  0
    6.4937    1.4811    0.3469 O   0  0  0  0  0  0  0  0  0  0  0  0
    5.9623    2.7382    0.2501 C   0  0  0  0  0  0  0  0  0  0  0  0
    0.7816    0.5813   -0.4509 C   0  0  0  0  0  0  0  0  0  0  0  0
   -0.3235    0.5038    0.3711 C   0  0  0  0  0  0  0  0  0  0  0  0
   -0.9637   -0.7133    0.5426 C   0  0  0  0  0  0  0  0  0  0  0  0
   -5.2327   -0.3073    1.2867 C   0  0  0  0  0  0  0  0  0  0  0  0
   -6.2896    0.2132    0.5553 C   0  0  0  0  0  0  0  0  0  0  0  0
   -9.2447    1.8349   -1.5896 H   0  0  0  0  0  0  0  0  0  0  0  0
   -8.6678    0.4584   -0.5339 H   0  0  0  0  0  0  0  0  0  0  0  0
   -7.1276    2.9227   -1.4048 H   0  0  0  0  0  0  0  0  0  0  0  0
   -4.8894    3.0031   -0.5666 H   0  0  0  0  0  0  0  0  0  0  0  0
   -2.9820    2.0697    0.7498 H   0  0  0  0  0  0  0  0  0  0  0  0
   -2.3168    0.5525    2.6590 H   0  0  0  0  0  0  0  0  0  0  0  0
   -3.3857   -0.8391    2.9628 H   0  0  0  0  0  0  0  0  0  0  0  0
    0.9728   -2.6307   -1.4314 H   0  0  0  0  0  0  0  0  0  0  0  0
    5.1833   -2.5443   -1.2065 H   0  0  0  0  0  0  0  0  0  0  0  0
    3.4172   -2.6394   -0.9126 H   0  0  0  0  0  0  0  0  0  0  0  0
    3.9025   -2.4747    1.2887 H   0  0  0  0  0  0  0  0  0  0  0  0
    5.5974   -1.9684    0.9808 H   0  0  0  0  0  0  0  0  0  0  0  0
    4.7592   -0.0016    1.7564 H   0  0  0  0  0  0  0  0  0  0  0  0
    3.0775   -0.2990    1.0808 H   0  0  0  0  0  0  0  0  0  0  0  0
    3.9059    1.1999   -0.6048 H   0  0  0  0  0  0  0  0  0  0  0  0
    6.5180   -0.4017   -0.3589 H   0  0  0  0  0  0  0  0  0  0  0  0
    6.1899    0.8633   -1.5705 H   0  0  0  0  0  0  0  0  0  0  0  0
    4.8689    2.7808    0.4297 H   0  0  0  0  0  0  0  0  0  0  0  0
    6.4194    3.3555    1.0711 H   0  0  0  0  0  0  0  0  0  0  0  0
    6.2237    3.2712   -0.6903 H   0  0  0  0  0  0  0  0  0  0  0  0
    1.2964    1.5161   -0.6002 H   0  0  0  0  0  0  0  0  0  0  0  0
   -0.6827    1.3856    0.8740 H   0  0  0  0  0  0  0  0  0  0  0  0
   -5.3522   -1.2639    1.8142 H   0  0  0  0  0  0  0  0  0  0  0  0
   -7.1958   -0.3650    0.5439 H   0  0  0  0  0  0  0  0  0  0  0  0
  1  2  2  3
  2  3  1  0
  3  4  2  0
  4  5  1  0
  5  6  2  0
  6  7  1  0
  7  8  1  0
  8  9  1  0
  9 10  2  0
  9 11  1  0
 11 12  2  0
 11 13  1  0
 13 14  2  0
 14 15  1  0
 15 16  1  0
 16 17  2  0
 16 18  2  0
 16 19  1  0
 19 20  1  0
 20 21  1  0
 21 22  1  0
 22 23  1  0
 23 24  1  0
 24 25  1  0
 25 26  1  0
 15 27  2  0
 27 28  1  0
 28 29  2  0
  6 30  1  0
 30 31  2  0
 31  3  1  0
 29  8  1  0
 29 13  1  0
 23 19  1  0
  1 32  1  0
  1 33  1  0
  2 34  1  0
  4 35  1  0
  5 36  1  0
  7 37  1  0
  7 38  1  0
 14 39  1  0
 20 40  1  0
 20 41  1  0
 21 42  1  0
 21 43  1  0
 22 44  1  0
 22 45  1  0
 23 46  1  6
 24 47  1  0
 24 48  1  0
 26 49  1  0
 26 50  1  0
 26 51  1  0
 27 52  1  0
 28 53  1  0
 30 54  1  0
 31 55  1  0
M  END
$$$$
