
     RDKit          3D

 55 59  0  0  0  0  0  0  0  0999 V2000
   -3.7226    2.4962   -1.3161 C   0  0  0  0  0  0  0  0  0  0  0  0
   -4.3046    1.1750   -1.1721 N   0  0  0  0  0  0  0  0  0  0  0  0
   -5.5031    0.7975   -1.8343 C   0  0  0  0  0  0  0  0  0  0  0  0
   -5.9083    1.4576   -2.8227 O   0  0  0  0  0  0  0  0  0  0  0  0
   -6.2676   -0.3601   -1.3669 C   0  0  0  0  0  0  0  0  0  0  0  0
   -5.4236   -1.4794   -0.8517 C   0  0  0  0  0  0  0  0  0  0  0  0
   -4.1865   -1.0379   -0.1874 C   0  0  0  0  0  0  0  0  0  0  0  0
   -3.5085   -1.9287    0.6396 C   0  0  0  0  0  0  0  0  0  0  0  0
   -2.3441   -1.5413    1.2757 C   0  0  0  0  0  0  0  0  0  0  0  0
   -1.8181   -0.2622    1.1114 C   0  0  0  0  0  0  0  0  0  0  0  0
   -0.6274    0.1086    1.7959 N   0  0  0  0  0  0  0  0  0  0  0  0
   -0.6395    0.4702    3.2033 C   0  0  0  0  0  0  0  0  0  0  0  0
    0.4918   -0.2110    3.9433 C   0  0  0  0  0  0  0  0  0  0  0  0
    1.8041   -0.0112    3.2902 C   0  0  0  0  0  0  0  0  0  0  0  0
    1.7881    0.0634    1.8116 C   0  0  0  0  0  0  0  0  0  0  0  0
    2.9833    0.0749    1.1010 C   0  0  0  0  0  0  0  0  0  0  0  0
    2.9729    0.1420   -0.2799 C   0  0  0  0  0  0  0  0  0  0  0  0
    4.2769    0.1760   -0.9253 C   0  0  0  0  0  0  0  0  0  0  0  0
    4.6764    1.1117   -1.8429 C   0  0  0  0  0  0  0  0  0  0  0  0
    5.9521    0.8097   -2.2224 N   0  0  0  0  0  0  0  0  0  0  0  0
    6.3588   -0.2690   -1.5816 N   0  0  0  0  0  0  0  0  0  0  0  0
    7.6289   -0.9697   -1.6492 C   0  0  0  0  0  0  0  0  0  0  0  0
    5.3427   -0.6822   -0.7723 C   0  0  0  0  0  0  0  0  0  0  0  0
    1.7789    0.1975   -0.9724 C   0  0  0  0  0  0  0  0  0  0  0  0
    1.7414    0.2417   -2.4402 C   0  0  0  0  0  0  0  0  0  0  0  0
    0.9813    1.3120   -2.9096 F   0  0  0  0  0  0  0  0  0  0  0  0
    1.0499   -0.9017   -2.8581 F   0  0  0  0  0  0  0  0  0  0  0  0
    0.5861    0.1871   -0.2782 C   0  0  0  0  0  0  0  0  0  0  0  0
    0.6138    0.1200    1.1082 C   0  0  0  0  0  0  0  0  0  0  0  0
   -2.4821    0.6001    0.3056 C   0  0  0  0  0  0  0  0  0  0  0  0
   -3.6633    0.2272   -0.3479 C   0  0  0  0  0  0  0  0  0  0  0  0
   -4.3600    3.0813   -2.0049 H   0  0  0  0  0  0  0  0  0  0  0  0
   -3.6262    3.0306   -0.3527 H   0  0  0  0  0  0  0  0  0  0  0  0
   -2.7341    2.3495   -1.8099 H   0  0  0  0  0  0  0  0  0  0  0  0
   -7.0160   -0.0347   -0.5984 H   0  0  0  0  0  0  0  0  0  0  0  0
   -6.8524   -0.7617   -2.2343 H   0  0  0  0  0  0  0  0  0  0  0  0
   -5.1851   -2.2047   -1.6771 H   0  0  0  0  0  0  0  0  0  0  0  0
   -6.0719   -2.0733   -0.1425 H   0  0  0  0  0  0  0  0  0  0  0  0
   -3.9243   -2.9280    0.7647 H   0  0  0  0  0  0  0  0  0  0  0  0
   -1.8027   -2.2183    1.9220 H   0  0  0  0  0  0  0  0  0  0  0  0
   -1.5878    0.0812    3.6278 H   0  0  0  0  0  0  0  0  0  0  0  0
   -0.6427    1.5675    3.3607 H   0  0  0  0  0  0  0  0  0  0  0  0
    0.2501   -1.2754    4.0923 H   0  0  0  0  0  0  0  0  0  0  0  0
    0.5207    0.2611    4.9623 H   0  0  0  0  0  0  0  0  0  0  0  0
    2.3788    0.8571    3.6776 H   0  0  0  0  0  0  0  0  0  0  0  0
    2.4588   -0.8988    3.5416 H   0  0  0  0  0  0  0  0  0  0  0  0
    3.8903    0.0290    1.6895 H   0  0  0  0  0  0  0  0  0  0  0  0
    4.1134    1.9740   -2.2340 H   0  0  0  0  0  0  0  0  0  0  0  0
    7.8333   -1.4927   -0.6798 H   0  0  0  0  0  0  0  0  0  0  0  0
    8.4728   -0.2569   -1.7771 H   0  0  0  0  0  0  0  0  0  0  0  0
    7.6596   -1.6928   -2.4808 H   0  0  0  0  0  0  0  0  0  0  0  0
    5.3484   -1.5368   -0.1122 H   0  0  0  0  0  0  0  0  0  0  0  0
    2.7140    0.2025   -2.9408 H   0  0  0  0  0  0  0  0  0  0  0  0
   -0.3712    0.2269   -0.7784 H   0  0  0  0  0  0  0  0  0  0  0  0
   -2.0942    1.5997    0.1625 H   0  0  0  0  0  0  0  0  0  0  0  0
  1  2  1  0
  2  3  1  0
  3  4  2  0
  3  5  1  0
  5  6  1  0
  6  7  1  0
  7  8  2  0
  8  9  1  0
  9 10  2  0
 10 11  1  0
 11 12  1  0
 12 13  1  0
 13 14  1  0
 14 15  1  0
 15 16  2  0
 16 17  1  0
 17 18  1  0
 18 19  1  0
 19 20  2  0
 20 21  1  0
 21 22  1  0
 21 23  1  0
 17 24  2  0
 24 25  1  0
 25 26  1  0
 25 27  1  0
 24 28  1  0
 28 29  2  0
 10 30  1  0
 30 31  2  0
 31  2  1  0
 31  7  1  0
 29 11  1  0
 29 15  1  0
 23 18  2  0
  1 32  1  0
  1 33  1  0
  1 34  1  0
  5 35  1  0
  5 36  1  0
  6 37  1  0
  6 38  1  0
  8 39  1  0
  9 40  1  0
 12 41  1  0
 12 42  1  0
 13 43  1  0
 13 44  1  0
 14 45  1  0
 14 46  1  0
 16 47  1  0
 19 48  1  0
 22 49  1  0
 22 50  1  0
 22 51  1  0
 23 52  1  0
 25 53  1  0
 28 54  1  0
 30 55  1  0
M  END
$$$$
