
     RDKit          3D

 47 50  0  0  0  0  0  0  0  0999 V2000
   10.0473   -1.0208    0.3430 C   0  0  0  0  0  0  0  0  0  0  0  0
    8.5824   -0.8305    0.3041 C   0  0  0  0  0  0  0  0  0  0  0  0
    7.3861   -0.6577    0.2602 C   0  0  0  0  0  0  0  0  0  0  0  0
    5.9666   -0.4456    0.2291 C   0  0  0  0  0  0  0  0  0  0  0  0
    5.3621    0.7122    0.6713 C   0  0  0  0  0  0  0  0  0  0  0  0
    3.9895    0.8697    0.6222 C   0  0  0  0  0  0  0  0  0  0  0  0
    3.1944   -0.1236    0.1315 C   0  0  0  0  0  0  0  0  0  0  0  0
    1.7150    0.0097    0.0647 C   0  0  0  0  0  0  0  0  0  0  0  0
    1.1960    1.0638    0.4702 O   0  0  0  0  0  0  0  0  0  0  0  0
    0.9636   -1.0399   -0.4448 N   0  0  0  0  0  0  0  0  0  0  0  0
   -0.4406   -1.0675   -0.5724 C   0  0  0  0  0  0  0  0  0  0  0  0
   -1.0538   -2.2137   -1.1219 C   0  0  0  0  0  0  0  0  0  0  0  0
   -2.4134   -2.2876   -1.2632 C   0  0  0  0  0  0  0  0  0  0  0  0
   -3.2343   -1.2528   -0.8771 C   0  0  0  0  0  0  0  0  0  0  0  0
   -4.5887   -1.3538   -1.0298 F   0  0  0  0  0  0  0  0  0  0  0  0
   -2.6220   -0.1398   -0.3422 C   0  0  0  0  0  0  0  0  0  0  0  0
   -3.5216    0.9767    0.0804 C   0  0  1  0  0  0  0  0  0  0  0  0
   -2.8268    2.1547    0.6643 C   0  0  0  0  0  0  0  0  0  0  0  0
   -1.9240    2.7847   -0.1586 F   0  0  0  0  0  0  0  0  0  0  0  0
   -2.1851    1.8035    1.8248 F   0  0  0  0  0  0  0  0  0  0  0  0
   -4.2243    1.3632   -1.1280 N   0  0  0  0  0  0  0  0  0  0  0  0
   -5.4756    1.5146   -1.2665 C   0  0  0  0  0  0  0  0  0  0  0  0
   -6.0466    1.8992   -2.5122 N   0  0  0  0  0  0  0  0  0  0  0  0
   -6.2878    1.2935   -0.1591 O   0  0  0  0  0  0  0  0  0  0  0  0
   -5.8538    0.5482    0.9266 C   0  0  2  0  0  0  0  0  0  0  0  0
   -5.2262    1.3048    2.0456 C   0  0  0  0  0  0  0  0  0  0  0  0
   -4.4234    0.4001    1.1451 C   0  0  2  0  0  0  0  0  0  0  0  0
   -1.2579   -0.0358   -0.1873 C   0  0  0  0  0  0  0  0  0  0  0  0
    3.7682   -1.2547   -0.3021 N   0  0  0  0  0  0  0  0  0  0  0  0
    5.1084   -1.4352   -0.2654 C   0  0  0  0  0  0  0  0  0  0  0  0
   10.3630   -1.4567    1.3304 H   0  0  0  0  0  0  0  0  0  0  0  0
   10.5013   -0.0273    0.2800 H   0  0  0  0  0  0  0  0  0  0  0  0
   10.3792   -1.7233   -0.4436 H   0  0  0  0  0  0  0  0  0  0  0  0
    6.0093    1.4873    1.0560 H   0  0  0  0  0  0  0  0  0  0  0  0
    3.5677    1.7770    0.9737 H   0  0  0  0  0  0  0  0  0  0  0  0
    1.4678   -1.9227   -0.7795 H   0  0  0  0  0  0  0  0  0  0  0  0
   -0.4125   -3.0348   -1.4289 H   0  0  0  0  0  0  0  0  0  0  0  0
   -2.8541   -3.1843   -1.6898 H   0  0  0  0  0  0  0  0  0  0  0  0
   -3.6190    2.9408    0.8614 H   0  0  0  0  0  0  0  0  0  0  0  0
   -7.0731    1.8508   -2.6223 H   0  0  0  0  0  0  0  0  0  0  0  0
   -5.4369    2.2200   -3.2862 H   0  0  0  0  0  0  0  0  0  0  0  0
   -6.5531   -0.2862    1.2132 H   0  0  0  0  0  0  0  0  0  0  0  0
   -5.4524    0.9648    3.0922 H   0  0  0  0  0  0  0  0  0  0  0  0
   -5.2070    2.3880    1.9694 H   0  0  0  0  0  0  0  0  0  0  0  0
   -4.0670   -0.5164    1.6815 H   0  0  0  0  0  0  0  0  0  0  0  0
   -0.8381    0.8870    0.2537 H   0  0  0  0  0  0  0  0  0  0  0  0
    5.5511   -2.3402   -0.6135 H   0  0  0  0  0  0  0  0  0  0  0  0
  1  2  1  0
  2  3  3  0
  3  4  1  0
  4  5  2  0
  5  6  1  0
  6  7  2  0
  7  8  1  0
  8  9  2  0
  8 10  1  0
 10 11  1  0
 11 12  2  0
 12 13  1  0
 13 14  2  0
 14 15  1  0
 14 16  1  0
 16 17  1  0
 17 18  1  1
 18 19  1  0
 18 20  1  0
 17 21  1  0
 21 22  2  0
 22 23  1  0
 22 24  1  0
 24 25  1  0
 25 26  1  0
 26 27  1  0
 16 28  2  0
  7 29  1  0
 29 30  2  0
 30  4  1  0
 28 11  1  0
 27 17  1  0
 27 25  1  0
  1 31  1  0
  1 32  1  0
  1 33  1  0
  5 34  1  0
  6 35  1  0
 10 36  1  0
 12 37  1  0
 13 38  1  0
 18 39  1  0
 23 40  1  0
 23 41  1  0
 25 42  1  1
 26 43  1  0
 26 44  1  0
 27 45  1  1
 28 46  1  0
 30 47  1  0
M  END
$$$$
