
     RDKit          3D

 20 20  0  0  0  0  0  0  0  0999 V2000
    0.0978   -1.0235    0.3929 C   0  0  1  0  0  0  0  0  0  0  0  0
    0.3464   -1.4019   -0.9580 O   0  0  0  0  0  0  0  0  0  0  0  0
    1.5138   -0.7482   -1.3626 C   0  0  0  0  0  0  0  0  0  0  0  0
    1.9735   -0.8977   -2.5162 O   0  0  0  0  0  0  0  0  0  0  0  0
    2.0028    0.0449   -0.2634 C   0  0  0  0  0  0  0  0  0  0  0  0
    3.1347    0.8404   -0.2606 O   0  0  0  0  0  0  0  0  0  0  0  0
    1.1875   -0.1036    0.7720 C   0  0  0  0  0  0  0  0  0  0  0  0
    1.2320    0.4486    2.0449 O   0  0  0  0  0  0  0  0  0  0  0  0
   -1.2802   -0.4380    0.5614 C   0  0  1  0  0  0  0  0  0  0  0  0
   -1.4759   -0.0853    1.8887 O   0  0  0  0  0  0  0  0  0  0  0  0
   -1.5738    0.6549   -0.4112 C   0  0  0  0  0  0  0  0  0  0  0  0
   -1.3590    0.2417   -1.7296 O   0  0  0  0  0  0  0  0  0  0  0  0
    0.1863   -1.9615    0.9742 H   0  0  0  0  0  0  0  0  0  0  0  0
    3.3122    1.5496   -0.9513 H   0  0  0  0  0  0  0  0  0  0  0  0
    0.8172    1.3622    2.2016 H   0  0  0  0  0  0  0  0  0  0  0  0
   -1.9882   -1.2795    0.3357 H   0  0  0  0  0  0  0  0  0  0  0  0
   -2.2493    0.5324    1.9313 H   0  0  0  0  0  0  0  0  0  0  0  0
   -1.0217    1.5859   -0.2247 H   0  0  0  0  0  0  0  0  0  0  0  0
   -2.6775    0.8635   -0.3355 H   0  0  0  0  0  0  0  0  0  0  0  0
   -2.1784   -0.1851   -2.0895 H   0  0  0  0  0  0  0  0  0  0  0  0
  1  2  1  0
  2  3  1  0
  3  4  2  0
  3  5  1  0
  5  6  1  0
  5  7  2  0
  7  8  1  0
  1  9  1  0
  9 10  1  0
  9 11  1  0
 11 12  1  0
  7  1  1  0
  1 13  1  1
  6 14  1  0
  8 15  1  0
  9 16  1  6
 10 17  1  0
 11 18  1  0
 11 19  1  0
 12 20  1  0
M  END
$$$$
