
     RDKit          3D

 53 57  0  0  0  0  0  0  0  0999 V2000
    1.0867   -0.2817    2.8258 C   0  0  0  0  0  0  0  0  0  0  0  0
    0.1486   -0.3780    1.7697 O   0  0  0  0  0  0  0  0  0  0  0  0
    0.6222   -0.7841    0.5321 C   0  0  0  0  0  0  0  0  0  0  0  0
    1.9584   -1.0882    0.3220 C   0  0  0  0  0  0  0  0  0  0  0  0
    2.4265   -1.4915   -0.9099 C   0  0  0  0  0  0  0  0  0  0  0  0
    3.7422   -1.7958   -1.1490 C   0  0  0  0  0  0  0  0  0  0  0  0
    4.6335   -1.6881   -0.0473 N   0  0  0  0  0  0  0  0  0  0  0  0
    5.2763   -0.4902    0.3303 C   0  0  0  0  0  0  0  0  0  0  0  0
    5.0794    0.6882   -0.3485 C   0  0  0  0  0  0  0  0  0  0  0  0
    5.7201    1.8526    0.0415 C   0  0  0  0  0  0  0  0  0  0  0  0
    5.4685    3.3678   -0.8294 Cl  0  0  0  0  0  0  0  0  0  0  0  0
    6.5713    1.8300    1.1308 C   0  0  0  0  0  0  0  0  0  0  0  0
    7.4739    3.4111    1.7025 Br  0  0  0  0  0  0  0  0  0  0  0  0
    6.7817    0.6499    1.8277 C   0  0  0  0  0  0  0  0  0  0  0  0
    6.1205   -0.4763    1.3978 C   0  0  0  0  0  0  0  0  0  0  0  0
    6.3321   -1.6283    2.0849 F   0  0  0  0  0  0  0  0  0  0  0  0
    4.1186   -2.1768   -2.3757 N   0  0  0  0  0  0  0  0  0  0  0  0
    3.2622   -2.2817   -3.4140 C   0  0  0  0  0  0  0  0  0  0  0  0
    1.9671   -1.9845   -3.1863 N   0  0  0  0  0  0  0  0  0  0  0  0
    1.5366   -1.5931   -1.9572 C   0  0  0  0  0  0  0  0  0  0  0  0
    0.1950   -1.2853   -1.7345 C   0  0  0  0  0  0  0  0  0  0  0  0
   -0.3008   -0.8798   -0.5146 C   0  0  0  0  0  0  0  0  0  0  0  0
   -1.5985   -0.5690   -0.2467 O   0  0  0  0  0  0  0  0  0  0  0  0
   -2.7079   -0.5842   -1.0744 C   0  0  1  0  0  0  0  0  0  0  0  0
   -3.8431   -1.4338   -0.5310 C   0  0  0  0  0  0  0  0  0  0  0  0
   -4.4702   -0.6814    0.4356 O   0  0  0  0  0  0  0  0  0  0  0  0
   -4.3559    0.6546    0.1192 C   0  0  2  0  0  0  0  0  0  0  0  0
   -5.6051    1.2616   -0.4210 C   0  0  1  0  0  0  0  0  0  0  0  0
   -6.1428    2.2019    0.4577 O   0  0  0  0  0  0  0  0  0  0  0  0
   -7.4363    1.9450    0.8293 C   0  0  0  0  0  0  0  0  0  0  0  0
   -5.1624    1.8836   -1.7210 C   0  0  0  0  0  0  0  0  0  0  0  0
   -4.1244    1.0564   -2.1509 O   0  0  0  0  0  0  0  0  0  0  0  0
   -3.3653    0.7912   -1.0136 C   0  0  2  0  0  0  0  0  0  0  0  0
    0.6112    0.0902    3.7588 H   0  0  0  0  0  0  0  0  0  0  0  0
    1.9762    0.3054    2.5409 H   0  0  0  0  0  0  0  0  0  0  0  0
    1.4273   -1.3210    3.0456 H   0  0  0  0  0  0  0  0  0  0  0  0
    2.6713   -1.0102    1.1513 H   0  0  0  0  0  0  0  0  0  0  0  0
    4.7971   -2.5720    0.4917 H   0  0  0  0  0  0  0  0  0  0  0  0
    4.4184    0.7297   -1.2038 H   0  0  0  0  0  0  0  0  0  0  0  0
    7.4515    0.6719    2.6703 H   0  0  0  0  0  0  0  0  0  0  0  0
    3.6348   -2.5973   -4.3888 H   0  0  0  0  0  0  0  0  0  0  0  0
   -0.4967   -1.3680   -2.5642 H   0  0  0  0  0  0  0  0  0  0  0  0
   -2.5009   -0.8269   -2.1281 H   0  0  0  0  0  0  0  0  0  0  0  0
   -3.5183   -2.4136   -0.1970 H   0  0  0  0  0  0  0  0  0  0  0  0
   -4.5596   -1.5672   -1.3789 H   0  0  0  0  0  0  0  0  0  0  0  0
   -4.0534    1.2288    1.0221 H   0  0  0  0  0  0  0  0  0  0  0  0
   -6.3687    0.4665   -0.6527 H   0  0  0  0  0  0  0  0  0  0  0  0
   -7.7462    2.7548    1.5237 H   0  0  0  0  0  0  0  0  0  0  0  0
   -7.5637    0.9824    1.3793 H   0  0  0  0  0  0  0  0  0  0  0  0
   -8.1559    2.0183   -0.0318 H   0  0  0  0  0  0  0  0  0  0  0  0
   -4.8316    2.9359   -1.5835 H   0  0  0  0  0  0  0  0  0  0  0  0
   -5.9401    1.8744   -2.4954 H   0  0  0  0  0  0  0  0  0  0  0  0
   -2.6614    1.5958   -0.7525 H   0  0  0  0  0  0  0  0  0  0  0  0
  1  2  1  0
  2  3  1  0
  3  4  2  0
  4  5  1  0
  5  6  2  0
  6  7  1  0
  7  8  1  0
  8  9  2  0
  9 10  1  0
 10 11  1  0
 10 12  2  0
 12 13  1  0
 12 14  1  0
 14 15  2  0
 15 16  1  0
  6 17  1  0
 17 18  2  0
 18 19  1  0
 19 20  2  0
 20 21  1  0
 21 22  2  0
 22 23  1  0
 23 24  1  0
 24 25  1  0
 25 26  1  0
 26 27  1  0
 27 28  1  0
 28 29  1  0
 29 30  1  0
 28 31  1  0
 31 32  1  0
 32 33  1  0
 22  3  1  0
 33 24  1  0
 20  5  1  0
 33 27  1  0
 15  8  1  0
  1 34  1  0
  1 35  1  0
  1 36  1  0
  4 37  1  0
  7 38  1  0
  9 39  1  0
 14 40  1  0
 18 41  1  0
 21 42  1  0
 24 43  1  6
 25 44  1  0
 25 45  1  0
 27 46  1  1
 28 47  1  6
 30 48  1  0
 30 49  1  0
 30 50  1  0
 31 51  1  0
 31 52  1  0
 33 53  1  1
M  END
$$$$
