
     RDKit          3D

 35 35  0  0  0  0  0  0  0  0999 V2000
    5.9089   -0.7384    0.4590 O   0  0  0  0  0  0  0  0  0  0  0  0
    5.3415    0.3308    0.1625 C   0  0  0  0  0  0  0  0  0  0  0  0
    6.0907    1.4615   -0.0647 O   0  0  0  0  0  0  0  0  0  0  0  0
    3.8663    0.3597    0.0612 C   0  0  0  0  0  0  0  0  0  0  0  0
    3.2563   -0.9862    0.3497 C   0  0  0  0  0  0  0  0  0  0  0  0
    1.8153   -0.9111    0.2444 N   0  0  0  0  0  0  0  0  0  0  0  0
    1.2080   -0.5463   -0.9815 C   0  0  0  0  0  0  0  0  0  0  0  0
    1.8702   -0.2803   -2.0090 O   0  0  0  0  0  0  0  0  0  0  0  0
   -0.3170   -0.4780   -1.0410 C   0  0  1  0  0  0  0  0  0  0  0  0
   -0.8366   -1.8459   -0.7034 C   0  0  0  0  0  0  0  0  0  0  0  0
   -2.6175   -1.9606   -0.7745 S   0  0  0  0  0  0  0  0  0  0  0  0
   -0.7812    0.5684   -0.0820 C   0  0  0  0  0  0  0  0  0  0  0  0
   -2.2169    0.7832    0.0150 C   0  0  0  0  0  0  0  0  0  0  0  0
   -2.8594    1.6083   -0.9087 C   0  0  0  0  0  0  0  0  0  0  0  0
   -4.2034    1.8614   -0.8207 C   0  0  0  0  0  0  0  0  0  0  0  0
   -4.9536    1.3065    0.1832 C   0  0  0  0  0  0  0  0  0  0  0  0
   -4.3475    0.4917    1.1047 C   0  0  0  0  0  0  0  0  0  0  0  0
   -2.9969    0.2407    1.0119 C   0  0  0  0  0  0  0  0  0  0  0  0
    6.9420    1.6385    0.4566 H   0  0  0  0  0  0  0  0  0  0  0  0
    3.6367    0.7400   -0.9521 H   0  0  0  0  0  0  0  0  0  0  0  0
    3.4547    1.1205    0.7858 H   0  0  0  0  0  0  0  0  0  0  0  0
    3.5913   -1.4207    1.2876 H   0  0  0  0  0  0  0  0  0  0  0  0
    3.5796   -1.7105   -0.4552 H   0  0  0  0  0  0  0  0  0  0  0  0
    1.2150   -1.1314    1.0931 H   0  0  0  0  0  0  0  0  0  0  0  0
   -0.5999   -0.2309   -2.0791 H   0  0  0  0  0  0  0  0  0  0  0  0
   -0.4853   -2.1230    0.3213 H   0  0  0  0  0  0  0  0  0  0  0  0
   -0.3634   -2.6267   -1.3665 H   0  0  0  0  0  0  0  0  0  0  0  0
   -3.0578   -3.1385   -0.1630 H   0  0  0  0  0  0  0  0  0  0  0  0
   -0.3589    0.3853    0.9476 H   0  0  0  0  0  0  0  0  0  0  0  0
   -0.3324    1.5553   -0.3980 H   0  0  0  0  0  0  0  0  0  0  0  0
   -2.2466    2.0354   -1.6929 H   0  0  0  0  0  0  0  0  0  0  0  0
   -4.6938    2.5004   -1.5384 H   0  0  0  0  0  0  0  0  0  0  0  0
   -6.0085    1.4923    0.2697 H   0  0  0  0  0  0  0  0  0  0  0  0
   -4.9392    0.0512    1.9004 H   0  0  0  0  0  0  0  0  0  0  0  0
   -2.5603   -0.4026    1.7608 H   0  0  0  0  0  0  0  0  0  0  0  0
  1  2  2  0
  2  3  1  0
  2  4  1  0
  4  5  1  0
  5  6  1  0
  6  7  1  0
  7  8  2  0
  7  9  1  0
  9 10  1  0
 10 11  1  0
  9 12  1  0
 12 13  1  0
 13 14  2  0
 14 15  1  0
 15 16  2  0
 16 17  1  0
 17 18  2  0
 18 13  1  0
  3 19  1  0
  4 20  1  0
  4 21  1  0
  5 22  1  0
  5 23  1  0
  6 24  1  0
  9 25  1  6
 10 26  1  0
 10 27  1  0
 11 28  1  0
 12 29  1  0
 12 30  1  0
 14 31  1  0
 15 32  1  0
 16 33  1  0
 17 34  1  0
 18 35  1  0
M  END
$$$$
