
     RDKit          3D

 80 83  0  0  0  0  0  0  0  0999 V2000
   -6.1132   -2.6068    3.7479 C   0  0  0  0  0  0  0  0  0  0  0  0
   -5.4865   -1.7053    2.7092 C   0  0  0  0  0  0  0  0  0  0  0  0
   -4.1269   -2.0796    2.4151 N   0  0  0  0  0  0  0  0  0  0  0  0
   -3.3854   -1.3331    1.4771 C   0  0  0  0  0  0  0  0  0  0  0  0
   -2.0915   -1.6956    1.2030 C   0  0  0  0  0  0  0  0  0  0  0  0
   -1.2810   -1.0071    0.2851 C   0  0  0  0  0  0  0  0  0  0  0  0
    0.0562   -1.4887    0.0735 C   0  0  0  0  0  0  0  0  0  0  0  0
    0.5531   -2.3169    0.9230 O   0  0  0  0  0  0  0  0  0  0  0  0
    0.8887   -1.1293   -1.0014 N   0  0  0  0  0  0  0  0  0  0  0  0
    2.2540   -1.6613   -1.1258 C   0  0  1  0  0  0  0  0  0  0  0  0
    2.4443   -2.4360   -2.3997 C   0  0  0  0  0  0  0  0  0  0  0  0
    1.5976   -3.5964   -2.5781 C   0  0  0  0  0  0  0  0  0  0  0  0
    0.3715   -3.4912   -3.1890 C   0  0  0  0  0  0  0  0  0  0  0  0
   -0.4408   -4.6218   -3.3628 C   0  0  0  0  0  0  0  0  0  0  0  0
   -0.0192   -5.8554   -2.9224 C   0  0  0  0  0  0  0  0  0  0  0  0
    1.2012   -5.9584   -2.3148 C   0  0  0  0  0  0  0  0  0  0  0  0
    1.9951   -4.8361   -2.1481 C   0  0  0  0  0  0  0  0  0  0  0  0
    3.1942   -0.4644   -1.1797 C   0  0  2  0  0  0  0  0  0  0  0  0
    4.5137   -0.8587   -1.2931 O   0  0  0  0  0  0  0  0  0  0  0  0
    2.9550    0.4781   -0.0390 C   0  0  0  0  0  0  0  0  0  0  0  0
    3.2599    0.0130    1.2635 N   0  0  0  0  0  0  0  0  0  0  0  0
    4.6594   -0.1321    1.5189 C   0  0  0  0  0  0  0  0  0  0  0  0
    5.3501    1.1864    1.3650 C   0  0  0  0  0  0  0  0  0  0  0  0
    5.9522    1.7521    0.2678 C   0  0  0  0  0  0  0  0  0  0  0  0
    6.4226    2.9662    0.6545 N   0  0  0  0  0  0  0  0  0  0  0  0
    6.1309    3.1577    1.9358 N   0  0  0  0  0  0  0  0  0  0  0  0
    6.4506    4.3242    2.7444 C   0  0  0  0  0  0  0  0  0  0  0  0
    5.3040    5.3028    2.6308 C   0  0  0  0  0  0  0  0  0  0  0  0
    5.4721    2.0872    2.4094 C   0  0  0  0  0  0  0  0  0  0  0  0
   -1.8517    0.0705   -0.3416 C   0  0  0  0  0  0  0  0  0  0  0  0
   -1.1183    0.7931   -1.2336 F   0  0  0  0  0  0  0  0  0  0  0  0
   -3.1720    0.4861   -0.0994 C   0  0  0  0  0  0  0  0  0  0  0  0
   -3.6618    1.6126   -0.7917 N   0  0  0  0  0  0  0  0  0  0  0  0
   -3.5320    2.9707   -0.2581 C   0  0  0  0  0  0  0  0  0  0  0  0
   -4.8111    3.7221   -0.2192 C   0  0  0  0  0  0  0  0  0  0  0  0
   -5.6115    3.7577   -1.4578 C   0  0  0  0  0  0  0  0  0  0  0  0
   -4.9499    3.2166   -2.6776 C   0  0  0  0  0  0  0  0  0  0  0  0
   -4.4622    1.5237   -2.3317 S   0  0  0  0  0  6  0  0  0  0  0  0
   -3.5207    1.0349   -3.3945 O   0  0  0  0  0  0  0  0  0  0  0  0
   -5.6869    0.6937   -2.2077 O   0  0  0  0  0  0  0  0  0  0  0  0
   -3.8885   -0.2410    0.8082 C   0  0  0  0  0  0  0  0  0  0  0  0
   -5.2771   -3.0436    4.3465 H   0  0  0  0  0  0  0  0  0  0  0  0
   -6.7871   -1.9850    4.4026 H   0  0  0  0  0  0  0  0  0  0  0  0
   -6.7457   -3.3647    3.2842 H   0  0  0  0  0  0  0  0  0  0  0  0
   -6.1436   -1.7825    1.7983 H   0  0  0  0  0  0  0  0  0  0  0  0
   -5.5545   -0.6193    2.9955 H   0  0  0  0  0  0  0  0  0  0  0  0
   -3.7080   -2.8897    2.8927 H   0  0  0  0  0  0  0  0  0  0  0  0
   -1.6434   -2.5494    1.6989 H   0  0  0  0  0  0  0  0  0  0  0  0
    0.5335   -0.4807   -1.7305 H   0  0  0  0  0  0  0  0  0  0  0  0
    2.4665   -2.2230   -0.2253 H   0  0  0  0  0  0  0  0  0  0  0  0
    2.2037   -1.7166   -3.2398 H   0  0  0  0  0  0  0  0  0  0  0  0
    3.5015   -2.7076   -2.5774 H   0  0  0  0  0  0  0  0  0  0  0  0
   -0.0167   -2.5582   -3.5560 H   0  0  0  0  0  0  0  0  0  0  0  0
   -1.4046   -4.5773   -3.8360 H   0  0  0  0  0  0  0  0  0  0  0  0
   -0.6612   -6.7392   -3.0624 H   0  0  0  0  0  0  0  0  0  0  0  0
    1.5688   -6.9059   -1.9557 H   0  0  0  0  0  0  0  0  0  0  0  0
    2.9359   -4.9484   -1.6741 H   0  0  0  0  0  0  0  0  0  0  0  0
    2.9521    0.1142   -2.1208 H   0  0  0  0  0  0  0  0  0  0  0  0
    4.7723   -1.0640   -2.2370 H   0  0  0  0  0  0  0  0  0  0  0  0
    1.8735    0.8025   -0.0500 H   0  0  0  0  0  0  0  0  0  0  0  0
    3.5759    1.4031   -0.2222 H   0  0  0  0  0  0  0  0  0  0  0  0
    2.7149   -0.7954    1.6078 H   0  0  0  0  0  0  0  0  0  0  0  0
    5.0923   -0.8840    0.8599 H   0  0  0  0  0  0  0  0  0  0  0  0
    4.7906   -0.4762    2.5947 H   0  0  0  0  0  0  0  0  0  0  0  0
    6.0373    1.3172   -0.7100 H   0  0  0  0  0  0  0  0  0  0  0  0
    6.5362    4.0085    3.7947 H   0  0  0  0  0  0  0  0  0  0  0  0
    7.3725    4.8189    2.3766 H   0  0  0  0  0  0  0  0  0  0  0  0
    4.9156    5.2190    1.5799 H   0  0  0  0  0  0  0  0  0  0  0  0
    5.6962    6.3500    2.7939 H   0  0  0  0  0  0  0  0  0  0  0  0
    4.5265    5.1235    3.3752 H   0  0  0  0  0  0  0  0  0  0  0  0
    5.1042    1.9534    3.4222 H   0  0  0  0  0  0  0  0  0  0  0  0
   -3.1746    2.8521    0.7898 H   0  0  0  0  0  0  0  0  0  0  0  0
   -2.7250    3.4839   -0.8226 H   0  0  0  0  0  0  0  0  0  0  0  0
   -4.5600    4.7704    0.0707 H   0  0  0  0  0  0  0  0  0  0  0  0
   -5.4165    3.3365    0.6539 H   0  0  0  0  0  0  0  0  0  0  0  0
   -6.5704    3.2019   -1.3018 H   0  0  0  0  0  0  0  0  0  0  0  0
   -5.9474    4.8056   -1.7145 H   0  0  0  0  0  0  0  0  0  0  0  0
   -5.6817    3.2295   -3.5079 H   0  0  0  0  0  0  0  0  0  0  0  0
   -4.0635    3.8362   -2.9455 H   0  0  0  0  0  0  0  0  0  0  0  0
   -4.9045    0.0506    1.0191 H   0  0  0  0  0  0  0  0  0  0  0  0
  1  2  1  0
  2  3  1  0
  3  4  1  0
  4  5  2  0
  5  6  1  0
  6  7  1  0
  7  8  2  0
  7  9  1  0
  9 10  1  0
 10 11  1  0
 11 12  1  0
 12 13  2  0
 13 14  1  0
 14 15  2  0
 15 16  1  0
 16 17  2  0
 10 18  1  0
 18 19  1  0
 18 20  1  0
 20 21  1  0
 21 22  1  0
 22 23  1  0
 23 24  1  0
 24 25  2  0
 25 26  1  0
 26 27  1  0
 27 28  1  0
 26 29  1  0
  6 30  2  0
 30 31  1  0
 30 32  1  0
 32 33  1  0
 33 34  1  0
 34 35  1  0
 35 36  1  0
 36 37  1  0
 37 38  1  0
 38 39  2  0
 38 40  2  0
 32 41  2  0
 41  4  1  0
 17 12  1  0
 29 23  2  0
 38 33  1  0
  1 42  1  0
  1 43  1  0
  1 44  1  0
  2 45  1  0
  2 46  1  0
  3 47  1  0
  5 48  1  0
  9 49  1  0
 10 50  1  1
 11 51  1  0
 11 52  1  0
 13 53  1  0
 14 54  1  0
 15 55  1  0
 16 56  1  0
 17 57  1  0
 18 58  1  6
 19 59  1  0
 20 60  1  0
 20 61  1  0
 21 62  1  0
 22 63  1  0
 22 64  1  0
 24 65  1  0
 27 66  1  0
 27 67  1  0
 28 68  1  0
 28 69  1  0
 28 70  1  0
 29 71  1  0
 34 72  1  0
 34 73  1  0
 35 74  1  0
 35 75  1  0
 36 76  1  0
 36 77  1  0
 37 78  1  0
 37 79  1  0
 41 80  1  0
M  END
$$$$
