
     RDKit          3D

 26 25  0  0  0  0  0  0  0  0999 V2000
   -2.6180   -1.3182   -0.8402 N   0  0  0  0  0  0  0  0  0  0  0  0
   -2.5238   -0.3027    0.1658 C   0  0  1  0  0  0  0  0  0  0  0  0
   -1.1263    0.2930    0.1655 C   0  0  0  0  0  0  0  0  0  0  0  0
   -0.1467   -0.8491    0.4631 C   0  0  0  0  0  0  0  0  0  0  0  0
    1.2123   -0.2544    0.4599 C   0  0  0  0  0  0  0  0  0  0  0  0
    2.2372   -0.5556   -0.3123 C   0  0  0  0  0  0  0  0  0  0  0  0
    3.5790    0.2553   -0.0859 B   0  0  0  0  0  4  0  0  0  0  0  0
    3.2072    1.6122    0.3282 O   0  0  0  0  0  0  0  0  0  0  0  0
    4.3135   -0.4337    0.9948 O   0  0  0  0  0  0  0  0  0  0  0  0
    4.3704    0.3199   -1.3173 O   0  0  0  0  0  0  0  0  0  0  0  0
   -3.5524    0.7273   -0.0141 C   0  0  0  0  0  0  0  0  0  0  0  0
   -3.7032    1.8190    0.7981 O   0  0  0  0  0  0  0  0  0  0  0  0
   -4.3525    0.6064   -0.9762 O   0  0  0  0  0  0  0  0  0  0  0  0
   -3.2120   -1.0073   -1.6562 H   0  0  0  0  0  0  0  0  0  0  0  0
   -3.0354   -2.1952   -0.4324 H   0  0  0  0  0  0  0  0  0  0  0  0
   -2.6627   -0.7589    1.1667 H   0  0  0  0  0  0  0  0  0  0  0  0
   -1.0115    1.0187    0.9988 H   0  0  0  0  0  0  0  0  0  0  0  0
   -0.8959    0.7926   -0.7813 H   0  0  0  0  0  0  0  0  0  0  0  0
   -0.2584   -1.6293   -0.3226 H   0  0  0  0  0  0  0  0  0  0  0  0
   -0.4297   -1.2282    1.4688 H   0  0  0  0  0  0  0  0  0  0  0  0
    1.2740    0.5171    1.2239 H   0  0  0  0  0  0  0  0  0  0  0  0
    2.0304   -1.3355   -1.0195 H   0  0  0  0  0  0  0  0  0  0  0  0
    3.8349    2.2608   -0.0789 H   0  0  0  0  0  0  0  0  0  0  0  0
    3.6616   -0.8205    1.6134 H   0  0  0  0  0  0  0  0  0  0  0  0
    3.8893   -0.2066   -2.0180 H   0  0  0  0  0  0  0  0  0  0  0  0
   -4.0813    2.6727    0.4147 H   0  0  0  0  0  0  0  0  0  0  0  0
  1  2  1  0
  2  3  1  0
  3  4  1  0
  4  5  1  0
  5  6  2  0
  6  7  1  0
  7  8  1  0
  7  9  1  0
  7 10  1  0
  2 11  1  0
 11 12  1  0
 11 13  2  0
  1 14  1  0
  1 15  1  0
  2 16  1  1
  3 17  1  0
  3 18  1  0
  4 19  1  0
  4 20  1  0
  5 21  1  0
  6 22  1  0
  8 23  1  0
  9 24  1  0
 10 25  1  0
 12 26  1  0
M  CHG  1   7  -1
M  END
$$$$
