
     RDKit          3D

 15 15  0  0  0  0  0  0  0  0999 V2000
   -2.7529    0.1544   -0.2218 N   0  0  0  0  0  0  0  0  0  0  0  0
   -1.5339   -0.5754   -0.1865 C   0  0  0  0  0  0  0  0  0  0  0  0
   -1.7633   -1.8110   -0.3053 O   0  0  0  0  0  0  0  0  0  0  0  0
   -0.1705   -0.0859   -0.0403 C   0  0  0  0  0  0  0  0  0  0  0  0
    0.7945   -1.0478   -0.0437 C   0  0  0  0  0  0  0  0  0  0  0  0
    2.1195   -0.6311    0.0936 C   0  0  0  0  0  0  0  0  0  0  0  0
    2.3671    0.7399    0.2248 C   0  0  0  0  0  0  0  0  0  0  0  0
    1.3458    1.6428    0.2190 N   0  0  0  0  0  0  0  0  0  0  0  0
    0.0582    1.2636    0.0877 C   0  0  0  0  0  0  0  0  0  0  0  0
   -3.3111    0.7767   -0.8568 H   0  0  0  0  0  0  0  0  0  0  0  0
   -3.2844    0.0502    0.6703 H   0  0  0  0  0  0  0  0  0  0  0  0
    0.5989   -2.1105   -0.1457 H   0  0  0  0  0  0  0  0  0  0  0  0
    2.9091   -1.3708    0.0947 H   0  0  0  0  0  0  0  0  0  0  0  0
    3.3980    1.0568    0.3310 H   0  0  0  0  0  0  0  0  0  0  0  0
   -0.7748    1.9480    0.0787 H   0  0  0  0  0  0  0  0  0  0  0  0
  1  2  1  0
  2  3  2  0
  2  4  1  0
  4  5  2  0
  5  6  1  0
  6  7  2  0
  7  8  1  0
  8  9  2  0
  9  4  1  0
  1 10  1  0
  1 11  1  0
  5 12  1  0
  6 13  1  0
  7 14  1  0
  9 15  1  0
M  END
$$$$
