
     RDKit          3D

 48 51  0  0  0  0  0  0  0  0999 V2000
   -3.3824   -0.7822   -3.9902 N   0  0  0  0  0  0  0  0  0  0  0  0
   -2.0699   -0.4212   -4.3678 C   0  0  0  0  0  0  0  0  0  0  0  0
   -1.7991   -0.4340   -5.6017 O   0  0  0  0  0  0  0  0  0  0  0  0
   -1.0815   -0.0532   -3.3789 C   0  0  0  0  0  0  0  0  0  0  0  0
    0.1904    0.2878   -3.8555 C   0  0  0  0  0  0  0  0  0  0  0  0
    1.1088    0.6276   -2.9618 N   0  0  0  0  0  0  0  0  0  0  0  0
    0.8972    0.6646   -1.6410 C   0  0  0  0  0  0  0  0  0  0  0  0
    1.9480    1.0565   -0.7847 N   0  0  0  0  0  0  0  0  0  0  0  0
    1.8844    1.1060    0.6573 C   0  0  1  0  0  0  0  0  0  0  0  0
    1.7512   -0.3129    1.1799 C   0  0  0  0  0  0  0  0  0  0  0  0
    3.1225   -0.7281    1.7355 C   0  0  0  0  0  0  0  0  0  0  0  0
    4.1377   -0.3779    0.6512 C   0  0  2  0  0  0  0  0  0  0  0  0
    5.3857   -1.0004    1.0097 N   0  0  0  0  0  0  0  0  0  0  0  0
    4.3629    1.1301    0.7002 C   0  0  0  0  0  0  0  0  0  0  0  0
    3.1068    1.8144    1.1760 C   0  0  0  0  0  0  0  0  0  0  0  0
   -0.3483    0.3311   -1.1709 C   0  0  0  0  0  0  0  0  0  0  0  0
   -0.8866    0.2704    0.0584 N   0  0  0  0  0  0  0  0  0  0  0  0
   -2.1721   -0.1103    0.0172 C   0  0  0  0  0  0  0  0  0  0  0  0
   -3.0965   -0.2940    1.1262 C   0  0  0  0  0  0  0  0  0  0  0  0
   -2.6610   -0.0649    2.4078 C   0  0  0  0  0  0  0  0  0  0  0  0
   -3.5706   -0.2491    3.4551 C   0  0  0  0  0  0  0  0  0  0  0  0
   -4.8709   -0.6498    3.2143 C   0  0  0  0  0  0  0  0  0  0  0  0
   -6.0101   -0.8794    4.5401 Cl  0  0  0  0  0  0  0  0  0  0  0  0
   -5.3065   -0.8801    1.9179 C   0  0  0  0  0  0  0  0  0  0  0  0
   -4.3942   -0.6919    0.9106 C   0  0  0  0  0  0  0  0  0  0  0  0
   -2.4315   -0.2938   -1.3411 C   0  0  0  0  0  0  0  0  0  0  0  0
   -1.3268   -0.0262   -2.0615 N   0  0  0  0  0  0  0  0  0  0  0  0
   -4.1455   -0.0467   -3.9061 H   0  0  0  0  0  0  0  0  0  0  0  0
   -3.6728   -1.7665   -3.7774 H   0  0  0  0  0  0  0  0  0  0  0  0
    0.3925    0.2688   -4.9002 H   0  0  0  0  0  0  0  0  0  0  0  0
    2.8607    1.3379   -1.2333 H   0  0  0  0  0  0  0  0  0  0  0  0
    0.9618    1.6765    0.9856 H   0  0  0  0  0  0  0  0  0  0  0  0
    0.9942   -0.4114    1.9737 H   0  0  0  0  0  0  0  0  0  0  0  0
    1.5476   -1.0160    0.3398 H   0  0  0  0  0  0  0  0  0  0  0  0
    3.1414   -1.8155    1.9325 H   0  0  0  0  0  0  0  0  0  0  0  0
    3.3436   -0.1432    2.6541 H   0  0  0  0  0  0  0  0  0  0  0  0
    3.7362   -0.7019   -0.3211 H   0  0  0  0  0  0  0  0  0  0  0  0
    5.5331   -1.9341    0.6133 H   0  0  0  0  0  0  0  0  0  0  0  0
    6.1802   -0.3608    0.8450 H   0  0  0  0  0  0  0  0  0  0  0  0
    5.1634    1.3656    1.4505 H   0  0  0  0  0  0  0  0  0  0  0  0
    4.6369    1.5411   -0.2878 H   0  0  0  0  0  0  0  0  0  0  0  0
    3.1098    2.8386    0.7388 H   0  0  0  0  0  0  0  0  0  0  0  0
    3.0932    1.8911    2.2920 H   0  0  0  0  0  0  0  0  0  0  0  0
   -1.6672    0.2471    2.6648 H   0  0  0  0  0  0  0  0  0  0  0  0
   -3.2796   -0.0826    4.4814 H   0  0  0  0  0  0  0  0  0  0  0  0
   -6.2972   -1.1908    1.6665 H   0  0  0  0  0  0  0  0  0  0  0  0
   -4.7253   -0.8703   -0.1171 H   0  0  0  0  0  0  0  0  0  0  0  0
   -3.3948   -0.6048   -1.6973 H   0  0  0  0  0  0  0  0  0  0  0  0
  1  2  1  0
  2  3  2  0
  2  4  1  0
  4  5  2  0
  5  6  1  0
  6  7  2  0
  7  8  1  0
  8  9  1  0
  9 10  1  0
 10 11  1  0
 11 12  1  0
 12 13  1  0
 12 14  1  0
 14 15  1  0
  7 16  1  0
 16 17  2  0
 17 18  1  0
 18 19  1  0
 19 20  2  0
 20 21  1  0
 21 22  2  0
 22 23  1  0
 22 24  1  0
 24 25  2  0
 18 26  2  0
 26 27  1  0
 27  4  1  0
 15  9  1  0
 27 16  1  0
 25 19  1  0
  1 28  1  0
  1 29  1  0
  5 30  1  0
  8 31  1  0
  9 32  1  6
 10 33  1  0
 10 34  1  0
 11 35  1  0
 11 36  1  0
 12 37  1  6
 13 38  1  0
 13 39  1  0
 14 40  1  0
 14 41  1  0
 15 42  1  0
 15 43  1  0
 20 44  1  0
 21 45  1  0
 24 46  1  0
 25 47  1  0
 26 48  1  0
M  END
$$$$
