
     RDKit          3D

 46 49  0  0  0  0  0  0  0  0999 V2000
    2.4268   -1.4213   -0.3073 O   0  0  0  0  0  0  0  0  0  0  0  0
    1.8454   -0.2785   -0.3892 C   0  0  0  0  0  0  0  0  0  0  0  0
    2.6357    0.7389   -1.1263 C   0  0  1  0  0  0  0  0  0  0  0  0
    2.0084    1.9760   -1.1916 O   0  0  0  0  0  0  0  0  0  0  0  0
    3.9961    0.8957   -0.4584 C   0  0  0  0  0  0  0  0  0  0  0  0
    4.0060    1.3291    0.9576 C   0  0  0  0  0  0  0  0  0  0  0  0
    4.5466    2.2239   -0.1662 C   0  0  0  0  0  0  0  0  0  0  0  0
    0.5739   -0.0697    0.1879 N   0  0  0  0  0  0  0  0  0  0  0  0
   -0.1985    1.1364    0.1743 C   0  0  0  0  0  0  0  0  0  0  0  0
   -1.6064    0.7424    0.5519 C   0  0  0  0  0  0  0  0  0  0  0  0
   -2.7584    1.6744    0.4347 C   0  0  0  0  0  0  0  0  0  0  0  0
   -2.5499    2.9634   -0.0383 C   0  0  0  0  0  0  0  0  0  0  0  0
   -3.5299    3.8944   -0.1849 C   0  0  0  0  0  0  0  0  0  0  0  0
   -3.2178    5.1189   -0.6539 F   0  0  0  0  0  0  0  0  0  0  0  0
   -4.8167    3.5336    0.1596 C   0  0  0  0  0  0  0  0  0  0  0  0
   -5.0532    2.2620    0.6316 C   0  0  0  0  0  0  0  0  0  0  0  0
   -4.0307    1.3120    0.7772 C   0  0  0  0  0  0  0  0  0  0  0  0
   -4.3268    0.0880    1.2433 F   0  0  0  0  0  0  0  0  0  0  0  0
   -1.5638   -0.4946    0.9640 C   0  0  0  0  0  0  0  0  0  0  0  0
   -0.1936   -1.0192    0.9046 C   0  0  1  0  0  0  0  0  0  0  0  0
   -0.1129   -2.3975    0.4008 C   0  0  0  0  0  0  0  0  0  0  0  0
    0.0475   -3.4226    1.3078 C   0  0  0  0  0  0  0  0  0  0  0  0
    0.1346   -4.7524    0.9388 C   0  0  0  0  0  0  0  0  0  0  0  0
    0.0544   -5.0476   -0.4156 C   0  0  0  0  0  0  0  0  0  0  0  0
   -0.1068   -4.0457   -1.3584 C   0  0  0  0  0  0  0  0  0  0  0  0
   -0.1822   -4.3865   -2.7019 O   0  0  0  0  0  0  0  0  0  0  0  0
   -0.1872   -2.7351   -0.9244 C   0  0  0  0  0  0  0  0  0  0  0  0
    2.8133    0.4088   -2.1928 H   0  0  0  0  0  0  0  0  0  0  0  0
    2.0466    2.4635   -0.3317 H   0  0  0  0  0  0  0  0  0  0  0  0
    4.6777    0.0316   -0.7026 H   0  0  0  0  0  0  0  0  0  0  0  0
    4.8107    0.9374    1.6273 H   0  0  0  0  0  0  0  0  0  0  0  0
    3.0637    1.6913    1.4521 H   0  0  0  0  0  0  0  0  0  0  0  0
    3.9757    3.1010   -0.4735 H   0  0  0  0  0  0  0  0  0  0  0  0
    5.6528    2.3213   -0.2589 H   0  0  0  0  0  0  0  0  0  0  0  0
    0.1049    1.8759    0.9443 H   0  0  0  0  0  0  0  0  0  0  0  0
   -0.2466    1.6336   -0.8213 H   0  0  0  0  0  0  0  0  0  0  0  0
   -1.5265    3.2632   -0.3166 H   0  0  0  0  0  0  0  0  0  0  0  0
   -5.6225    4.2664    0.0502 H   0  0  0  0  0  0  0  0  0  0  0  0
   -6.0662    1.9972    0.8962 H   0  0  0  0  0  0  0  0  0  0  0  0
   -2.4629   -1.0521    1.3085 H   0  0  0  0  0  0  0  0  0  0  0  0
    0.1841   -0.9962    1.9703 H   0  0  0  0  0  0  0  0  0  0  0  0
    0.1108   -3.1853    2.3812 H   0  0  0  0  0  0  0  0  0  0  0  0
    0.2606   -5.5550    1.6539 H   0  0  0  0  0  0  0  0  0  0  0  0
    0.1209   -6.0911   -0.7285 H   0  0  0  0  0  0  0  0  0  0  0  0
    0.5747   -4.9920   -3.0516 H   0  0  0  0  0  0  0  0  0  0  0  0
   -0.3124   -1.9376   -1.6353 H   0  0  0  0  0  0  0  0  0  0  0  0
  1  2  2  0
  2  3  1  0
  3  4  1  0
  3  5  1  0
  5  6  1  0
  6  7  1  0
  2  8  1  0
  8  9  1  0
  9 10  1  0
 10 11  1  0
 11 12  2  0
 12 13  1  0
 13 14  1  0
 13 15  2  0
 15 16  1  0
 16 17  2  0
 17 18  1  0
 10 19  2  0
 19 20  1  0
 20 21  1  0
 21 22  2  0
 22 23  1  0
 23 24  2  0
 24 25  1  0
 25 26  1  0
 25 27  2  0
  7  5  1  0
 20  8  1  0
 27 21  1  0
 17 11  1  0
  3 28  1  6
  4 29  1  0
  5 30  1  0
  6 31  1  0
  6 32  1  0
  7 33  1  0
  7 34  1  0
  9 35  1  0
  9 36  1  0
 12 37  1  0
 15 38  1  0
 16 39  1  0
 19 40  1  0
 20 41  1  1
 22 42  1  0
 23 43  1  0
 24 44  1  0
 26 45  1  0
 27 46  1  0
M  END
$$$$
