
     RDKit          3D

 58 61  0  0  0  0  0  0  0  0999 V2000
   -7.8917    0.4120    2.0323 C   0  0  0  0  0  0  0  0  0  0  0  0
   -6.4897    0.0427    1.7960 N   0  0  0  0  0  0  0  0  0  0  0  0
   -6.0680   -1.2979    2.1084 C   0  0  0  0  0  0  0  0  0  0  0  0
   -5.5803    0.9786    1.2722 C   0  0  0  0  0  0  0  0  0  0  0  0
   -5.9945    2.1506    1.0005 O   0  0  0  0  0  0  0  0  0  0  0  0
   -4.1402    0.6225    1.0295 C   0  0  2  0  0  0  0  0  0  0  0  0
   -3.2614    1.6888    0.4427 C   0  0  0  0  0  0  0  0  0  0  0  0
   -3.6619    0.4794   -0.3200 C   0  0  1  0  0  0  0  0  0  0  0  0
   -2.7069   -0.5719   -0.7137 C   0  0  1  0  0  0  0  0  0  0  0  0
   -3.3904   -1.5257   -1.7233 C   0  0  0  0  0  0  0  0  0  0  0  0
   -1.5629    0.0027   -1.5285 C   0  0  0  0  0  0  0  0  0  0  0  0
   -0.2738   -0.3323   -1.1968 C   0  0  0  0  0  0  0  0  0  0  0  0
    0.8363    0.1601   -1.8829 C   0  0  0  0  0  0  0  0  0  0  0  0
    2.1613   -0.2497   -1.4504 C   0  0  0  0  0  0  0  0  0  0  0  0
    3.2134    0.5532   -1.3830 C   0  0  0  0  0  0  0  0  0  0  0  0
    3.0189    1.8366   -1.7471 F   0  0  0  0  0  0  0  0  0  0  0  0
    4.5158    0.1059   -0.9306 C   0  0  0  0  0  0  0  0  0  0  0  0
    5.5373    1.0370   -0.8641 C   0  0  0  0  0  0  0  0  0  0  0  0
    6.7592    0.7378   -0.4566 N   0  0  0  0  0  0  0  0  0  0  0  0
    7.0582   -0.5167   -0.0818 C   0  0  0  0  0  0  0  0  0  0  0  0
    8.2966   -0.9215    0.3500 O   0  0  0  0  0  0  0  0  0  0  0  0
    9.3789   -0.0608    0.4738 C   0  0  0  0  0  0  0  0  0  0  0  0
    9.1320    0.9733    1.5283 C   0  0  0  0  0  0  0  0  0  0  0  0
    8.9315    0.2614    2.7221 F   0  0  0  0  0  0  0  0  0  0  0  0
    8.0901    1.8203    1.3307 F   0  0  0  0  0  0  0  0  0  0  0  0
    6.0147   -1.4609   -0.1512 C   0  0  0  0  0  0  0  0  0  0  0  0
    4.7809   -1.1583   -0.5633 N   0  0  0  0  0  0  0  0  0  0  0  0
    0.5516    1.0096   -2.9222 C   0  0  0  0  0  0  0  0  0  0  0  0
   -0.7363    1.3576   -3.2715 C   0  0  0  0  0  0  0  0  0  0  0  0
   -1.8290    0.8540   -2.5716 C   0  0  0  0  0  0  0  0  0  0  0  0
   -3.1015    1.2036   -2.9219 F   0  0  0  0  0  0  0  0  0  0  0  0
   -2.1288   -1.3961    0.2645 N   0  0  0  0  0  0  0  0  0  0  0  0
   -2.2663   -1.4923    1.5126 C   0  0  0  0  0  0  0  0  0  0  0  0
   -1.5704   -2.4121    2.3268 N   0  0  0  0  0  0  0  0  0  0  0  0
   -3.4212   -0.3930    2.3097 S   0  0  0  0  0  0  0  0  0  0  0  0
   -8.4867   -0.3478    1.4661 H   0  0  0  0  0  0  0  0  0  0  0  0
   -8.0705    1.4441    1.6920 H   0  0  0  0  0  0  0  0  0  0  0  0
   -8.1005    0.2483    3.0982 H   0  0  0  0  0  0  0  0  0  0  0  0
   -6.9697   -1.9515    2.1551 H   0  0  0  0  0  0  0  0  0  0  0  0
   -5.6359   -1.3437    3.1459 H   0  0  0  0  0  0  0  0  0  0  0  0
   -5.3593   -1.7231    1.3556 H   0  0  0  0  0  0  0  0  0  0  0  0
   -2.2812    1.8016    0.8992 H   0  0  0  0  0  0  0  0  0  0  0  0
   -3.7513    2.6719    0.2037 H   0  0  0  0  0  0  0  0  0  0  0  0
   -4.4301    0.7041   -1.1270 H   0  0  0  0  0  0  0  0  0  0  0  0
   -2.9434   -2.5160   -1.7225 H   0  0  0  0  0  0  0  0  0  0  0  0
   -4.4474   -1.6551   -1.3450 H   0  0  0  0  0  0  0  0  0  0  0  0
   -3.4514   -1.0830   -2.7148 H   0  0  0  0  0  0  0  0  0  0  0  0
   -0.0779   -1.0182   -0.3582 H   0  0  0  0  0  0  0  0  0  0  0  0
    2.3615   -1.2898   -1.1468 H   0  0  0  0  0  0  0  0  0  0  0  0
    5.3195    2.0771   -1.1650 H   0  0  0  0  0  0  0  0  0  0  0  0
    9.6448    0.4092   -0.5135 H   0  0  0  0  0  0  0  0  0  0  0  0
   10.3185   -0.5925    0.7759 H   0  0  0  0  0  0  0  0  0  0  0  0
   10.0465    1.6099    1.6372 H   0  0  0  0  0  0  0  0  0  0  0  0
    6.2949   -2.4749    0.1637 H   0  0  0  0  0  0  0  0  0  0  0  0
    1.4100    1.4126   -3.4811 H   0  0  0  0  0  0  0  0  0  0  0  0
   -0.9506    2.0318   -4.0981 H   0  0  0  0  0  0  0  0  0  0  0  0
   -0.5587   -2.5748    2.2016 H   0  0  0  0  0  0  0  0  0  0  0  0
   -2.0825   -2.9304    3.0583 H   0  0  0  0  0  0  0  0  0  0  0  0
  1  2  1  0
  2  3  1  0
  2  4  1  0
  4  5  2  0
  6  4  1  6
  6  7  1  0
  7  8  1  0
  8  9  1  0
  9 10  1  6
  9 11  1  0
 11 12  2  0
 12 13  1  0
 13 14  1  0
 14 15  2  0
 15 16  1  0
 15 17  1  0
 17 18  2  0
 18 19  1  0
 19 20  2  0
 20 21  1  0
 21 22  1  0
 22 23  1  0
 23 24  1  0
 23 25  1  0
 20 26  1  0
 26 27  2  0
 13 28  2  0
 28 29  1  0
 29 30  2  0
 30 31  1  0
  9 32  1  0
 32 33  2  0
 33 34  1  0
 33 35  1  0
  8  6  1  0
 30 11  1  0
 35  6  1  0
 27 17  1  0
  1 36  1  0
  1 37  1  0
  1 38  1  0
  3 39  1  0
  3 40  1  0
  3 41  1  0
  7 42  1  0
  7 43  1  0
  8 44  1  6
 10 45  1  0
 10 46  1  0
 10 47  1  0
 12 48  1  0
 14 49  1  0
 18 50  1  0
 22 51  1  0
 22 52  1  0
 23 53  1  0
 26 54  1  0
 28 55  1  0
 29 56  1  0
 34 57  1  0
 34 58  1  0
M  END
$$$$
