
     RDKit          3D

 29 30  0  0  0  0  0  0  0  0999 V2000
   -4.9129   -1.4311    0.5097 N   0  0  0  0  0  0  0  0  0  0  0  0
   -3.5647   -1.1221    0.2126 C   0  0  0  0  0  0  0  0  0  0  0  0
   -3.2388   -0.9455   -1.0778 N   0  0  0  0  0  0  0  0  0  0  0  0
   -1.9421   -0.6469   -1.3799 C   0  0  0  0  0  0  0  0  0  0  0  0
   -1.5884   -0.4722   -2.5765 O   0  0  0  0  0  0  0  0  0  0  0  0
   -1.0672   -0.5493   -0.3419 N   0  0  0  0  0  0  0  0  0  0  0  0
   -1.3748   -0.7208    0.9335 C   0  0  0  0  0  0  0  0  0  0  0  0
   -2.6827   -1.0243    1.2668 C   0  0  0  0  0  0  0  0  0  0  0  0
    0.2896   -0.2330   -0.7034 C   0  0  1  0  0  0  0  0  0  0  0  0
    0.5406    1.2786   -0.6326 C   0  0  0  0  0  0  0  0  0  0  0  0
    2.0624    1.2526   -0.7921 C   0  0  2  0  0  0  0  0  0  0  0  0
    2.2836    1.1367   -2.1703 O   0  0  0  0  0  0  0  0  0  0  0  0
    2.3891   -0.0283   -0.0513 C   0  0  1  0  0  0  0  0  0  0  0  0
    3.0252    0.3576    1.2758 C   0  0  0  0  0  0  0  0  0  0  0  0
    4.2226    1.0429    1.0975 O   0  0  0  0  0  0  0  0  0  0  0  0
    1.2170   -0.6980    0.1976 O   0  0  0  0  0  0  0  0  0  0  0  0
   -5.7548   -2.0447    0.4548 H   0  0  0  0  0  0  0  0  0  0  0  0
   -5.3752   -0.7003    1.0899 H   0  0  0  0  0  0  0  0  0  0  0  0
   -0.6321   -0.6305    1.7257 H   0  0  0  0  0  0  0  0  0  0  0  0
   -3.0272   -1.1815    2.2775 H   0  0  0  0  0  0  0  0  0  0  0  0
    0.5383   -0.6066   -1.6978 H   0  0  0  0  0  0  0  0  0  0  0  0
    0.3215    1.6461    0.3830 H   0  0  0  0  0  0  0  0  0  0  0  0
    0.0309    1.8306   -1.4313 H   0  0  0  0  0  0  0  0  0  0  0  0
    2.5401    2.1408   -0.3553 H   0  0  0  0  0  0  0  0  0  0  0  0
    2.9336    0.4284   -2.4043 H   0  0  0  0  0  0  0  0  0  0  0  0
    3.0967   -0.6361   -0.6712 H   0  0  0  0  0  0  0  0  0  0  0  0
    2.3236    1.0697    1.7680 H   0  0  0  0  0  0  0  0  0  0  0  0
    3.2186   -0.5425    1.9027 H   0  0  0  0  0  0  0  0  0  0  0  0
    4.1277    2.0296    1.1905 H   0  0  0  0  0  0  0  0  0  0  0  0
  1  2  1  0
  2  3  2  0
  3  4  1  0
  4  5  2  0
  4  6  1  0
  6  7  1  0
  7  8  2  0
  6  9  1  0
  9 10  1  0
 10 11  1  0
 11 12  1  0
 11 13  1  0
 13 14  1  0
 14 15  1  0
 13 16  1  0
  8  2  1  0
 16  9  1  0
  1 17  1  0
  1 18  1  0
  7 19  1  0
  8 20  1  0
  9 21  1  6
 10 22  1  0
 10 23  1  0
 11 24  1  1
 12 25  1  0
 13 26  1  6
 14 27  1  0
 14 28  1  0
 15 29  1  0
M  END
$$$$
