
     RDKit          3D

 63 69  0  0  0  0  0  0  0  0999 V2000
   -1.6850   -0.5395   -2.6705 N   0  0  0  0  0  0  0  0  0  0  0  0
   -0.3329   -0.8909   -2.4209 C   0  0  0  0  0  0  0  0  0  0  0  0
    0.3196   -1.7103   -3.2898 N   0  0  0  0  0  0  0  0  0  0  0  0
    1.6081   -2.0250   -3.0717 C   0  0  0  0  0  0  0  0  0  0  0  0
    2.2731   -1.5259   -1.9775 C   0  0  0  0  0  0  0  0  0  0  0  0
    1.6175   -0.7227   -1.1337 N   0  0  0  0  0  0  0  0  0  0  0  0
    0.2957   -0.3776   -1.3228 C   0  0  0  0  0  0  0  0  0  0  0  0
   -0.0798    0.4570   -0.3005 C   0  0  0  0  0  0  0  0  0  0  0  0
   -1.4043    1.0701   -0.1362 C   0  0  0  0  0  0  0  0  0  0  0  0
   -1.4787    2.4645   -0.0061 C   0  0  0  0  0  0  0  0  0  0  0  0
   -2.6742    3.1073    0.1942 C   0  0  0  0  0  0  0  0  0  0  0  0
   -3.8569    2.4084    0.2765 C   0  0  0  0  0  0  0  0  0  0  0  0
   -5.0612    3.0497    0.4836 C   0  0  0  0  0  0  0  0  0  0  0  0
   -6.1902    2.2576    0.5576 C   0  0  0  0  0  0  0  0  0  0  0  0
   -6.1396    0.8874    0.4333 C   0  0  0  0  0  0  0  0  0  0  0  0
   -7.3261    0.0311    0.5162 C   0  0  0  0  0  0  0  0  0  0  0  0
   -7.1783   -1.3315    0.3856 C   0  0  0  0  0  0  0  0  0  0  0  0
   -8.2865   -2.1783    0.4641 C   0  0  0  0  0  0  0  0  0  0  0  0
   -9.5472   -1.6761    0.6731 C   0  0  0  0  0  0  0  0  0  0  0  0
   -9.6938   -0.3090    0.8041 C   0  0  0  0  0  0  0  0  0  0  0  0
   -8.5731    0.5223    0.7224 C   0  0  0  0  0  0  0  0  0  0  0  0
   -4.9185    0.3317    0.2312 N   0  0  0  0  0  0  0  0  0  0  0  0
   -3.7792    1.0380    0.1485 C   0  0  0  0  0  0  0  0  0  0  0  0
   -2.5618    0.3755   -0.0560 C   0  0  0  0  0  0  0  0  0  0  0  0
    0.9945    0.6023    0.4707 N   0  0  0  0  0  0  0  0  0  0  0  0
    2.0496   -0.1156   -0.0237 C   0  0  0  0  0  0  0  0  0  0  0  0
    3.3345   -0.1084    0.6570 C   0  0  1  0  0  0  0  0  0  0  0  0
    3.9641   -1.4288    1.0331 C   0  0  0  0  0  0  0  0  0  0  0  0
    5.2947   -0.6604    0.9472 C   0  0  1  0  0  0  0  0  0  0  0  0
    6.3571   -1.5491    0.4314 C   0  0  0  0  0  0  0  0  0  0  0  0
    7.6537   -0.9972    0.2892 N   0  0  0  0  0  0  0  0  0  0  0  0
    7.8709    0.0018   -0.7196 C   0  0  0  0  0  0  0  0  0  0  0  0
    8.1604    1.0123    0.3570 C   0  0  0  0  0  0  0  0  0  0  0  0
    8.1556   -0.1628    1.3424 C   0  0  0  0  0  0  0  0  0  0  0  0
    4.5811    0.2320   -0.0719 C   0  0  0  0  0  0  0  0  0  0  0  0
   -2.0028    0.4125   -2.9004 H   0  0  0  0  0  0  0  0  0  0  0  0
   -2.3965   -1.3001   -2.6159 H   0  0  0  0  0  0  0  0  0  0  0  0
    2.1206   -2.6867   -3.7810 H   0  0  0  0  0  0  0  0  0  0  0  0
    3.2974   -1.8058   -1.8467 H   0  0  0  0  0  0  0  0  0  0  0  0
   -0.5510    3.0079   -0.0712 H   0  0  0  0  0  0  0  0  0  0  0  0
   -2.7510    4.1911    0.2975 H   0  0  0  0  0  0  0  0  0  0  0  0
   -5.1003    4.1272    0.5801 H   0  0  0  0  0  0  0  0  0  0  0  0
   -7.1488    2.7338    0.7200 H   0  0  0  0  0  0  0  0  0  0  0  0
   -6.1902   -1.7476    0.2200 H   0  0  0  0  0  0  0  0  0  0  0  0
   -8.1681   -3.2526    0.3599 H   0  0  0  0  0  0  0  0  0  0  0  0
  -10.4243   -2.3008    0.7399 H   0  0  0  0  0  0  0  0  0  0  0  0
  -10.6887    0.1289    0.9728 H   0  0  0  0  0  0  0  0  0  0  0  0
   -8.7687    1.5609    0.8333 H   0  0  0  0  0  0  0  0  0  0  0  0
   -2.5638   -0.7021   -0.1295 H   0  0  0  0  0  0  0  0  0  0  0  0
    3.3331    0.5129    1.6209 H   0  0  0  0  0  0  0  0  0  0  0  0
    3.7340   -1.7312    2.0850 H   0  0  0  0  0  0  0  0  0  0  0  0
    3.8899   -2.2602    0.3435 H   0  0  0  0  0  0  0  0  0  0  0  0
    5.4594   -0.1694    1.9181 H   0  0  0  0  0  0  0  0  0  0  0  0
    6.4279   -2.4974    1.0329 H   0  0  0  0  0  0  0  0  0  0  0  0
    6.0305   -1.8995   -0.5928 H   0  0  0  0  0  0  0  0  0  0  0  0
    7.0356    0.3025   -1.3477 H   0  0  0  0  0  0  0  0  0  0  0  0
    8.7723   -0.1512   -1.3518 H   0  0  0  0  0  0  0  0  0  0  0  0
    7.4010    1.7709    0.5381 H   0  0  0  0  0  0  0  0  0  0  0  0
    9.1725    1.4656    0.3279 H   0  0  0  0  0  0  0  0  0  0  0  0
    9.1547   -0.4239    1.7448 H   0  0  0  0  0  0  0  0  0  0  0  0
    7.4699    0.0801    2.1666 H   0  0  0  0  0  0  0  0  0  0  0  0
    4.9813    1.2627    0.1008 H   0  0  0  0  0  0  0  0  0  0  0  0
    4.7114   -0.1684   -1.0665 H   0  0  0  0  0  0  0  0  0  0  0  0
  1  2  1  0
  2  3  2  0
  3  4  1  0
  4  5  2  0
  5  6  1  0
  6  7  1  0
  7  8  2  0
  8  9  1  0
  9 10  2  0
 10 11  1  0
 11 12  2  0
 12 13  1  0
 13 14  2  0
 14 15  1  0
 15 16  1  0
 16 17  2  0
 17 18  1  0
 18 19  2  0
 19 20  1  0
 20 21  2  0
 15 22  2  0
 22 23  1  0
 23 24  2  0
  8 25  1  0
 25 26  2  0
 26 27  1  0
 27 28  1  0
 28 29  1  0
 29 30  1  0
 30 31  1  0
 31 32  1  0
 32 33  1  0
 33 34  1  0
 29 35  1  0
  7  2  1  0
 24  9  1  0
 35 27  1  0
 26  6  1  0
 34 31  1  0
 23 12  1  0
 21 16  1  0
  1 36  1  0
  1 37  1  0
  4 38  1  0
  5 39  1  0
 10 40  1  0
 11 41  1  0
 13 42  1  0
 14 43  1  0
 17 44  1  0
 18 45  1  0
 19 46  1  0
 20 47  1  0
 21 48  1  0
 24 49  1  0
 27 50  1  1
 28 51  1  0
 28 52  1  0
 29 53  1  1
 30 54  1  0
 30 55  1  0
 32 56  1  0
 32 57  1  0
 33 58  1  0
 33 59  1  0
 34 60  1  0
 34 61  1  0
 35 62  1  0
 35 63  1  0
M  END
$$$$
