
     RDKit          3D

 60 62  0  0  0  0  0  0  0  0999 V2000
   -6.4271   -4.4016    1.0672 C   0  0  0  0  0  0  0  0  0  0  0  0
   -6.8792   -3.8101   -0.2493 C   0  0  0  0  0  0  0  0  0  0  0  0
   -6.3700   -2.3840   -0.3082 C   0  0  0  0  0  0  0  0  0  0  0  0
   -4.8583   -2.4507   -0.2158 C   0  0  0  0  0  0  0  0  0  0  0  0
   -4.3513   -1.0986   -0.2699 N   0  0  0  0  0  0  0  0  0  0  0  0
   -2.9267   -0.8998   -0.1987 C   0  0  0  0  0  0  0  0  0  0  0  0
   -2.1076   -1.9535   -0.0863 N   0  0  0  0  0  0  0  0  0  0  0  0
   -0.7812   -1.7892   -0.0201 C   0  0  0  0  0  0  0  0  0  0  0  0
   -0.1721   -0.5137   -0.0632 C   0  0  0  0  0  0  0  0  0  0  0  0
    1.2855   -0.4654   -0.1285 C   0  0  0  0  0  0  0  0  0  0  0  0
    1.9923    0.3601   -0.6978 O   0  0  0  0  0  0  0  0  0  0  0  0
    2.0586   -1.4795    0.5450 N   0  0  0  0  0  0  0  0  0  0  0  0
    3.4376   -1.5834    0.5871 C   0  0  0  0  0  0  0  0  0  0  0  0
    4.3831   -0.8127   -0.0043 C   0  0  0  0  0  0  0  0  0  0  0  0
    5.7400   -1.0588    0.1582 C   0  0  0  0  0  0  0  0  0  0  0  0
    6.2007   -2.0968    0.9269 C   0  0  0  0  0  0  0  0  0  0  0  0
    7.6556   -2.3461    1.0902 C   0  0  0  0  0  0  0  0  0  0  0  0
    7.8801   -2.9133    2.3493 F   0  0  0  0  0  0  0  0  0  0  0  0
    8.3936   -1.1814    1.0644 F   0  0  0  0  0  0  0  0  0  0  0  0
    8.1203   -3.2703    0.1714 F   0  0  0  0  0  0  0  0  0  0  0  0
    5.2654   -2.9002    1.5424 C   0  0  0  0  0  0  0  0  0  0  0  0
    3.9340   -2.6513    1.3775 C   0  0  0  0  0  0  0  0  0  0  0  0
   -0.9944    0.5498   -0.1720 C   0  0  0  0  0  0  0  0  0  0  0  0
   -0.6258    1.8915   -0.1049 N   0  0  0  0  0  0  0  0  0  0  0  0
    0.5161    2.6921    0.1014 C   0  0  1  0  0  0  0  0  0  0  0  0
    1.2094    3.1642   -1.1274 C   0  0  0  0  0  0  0  0  0  0  0  0
    0.9433    4.5408   -1.6057 C   0  0  0  0  0  0  0  0  0  0  0  0
    0.5882    5.5786   -0.6181 C   0  0  2  0  0  0  0  0  0  0  0  0
    1.2908    6.7504   -0.8881 O   0  0  0  0  0  0  0  0  0  0  0  0
    0.9591    5.0595    0.7764 C   0  0  0  0  0  0  0  0  0  0  0  0
    0.0657    3.8807    0.9803 C   0  0  0  0  0  0  0  0  0  0  0  0
   -2.3742    0.2948   -0.2384 N   0  0  0  0  0  0  0  0  0  0  0  0
   -7.1860   -5.1439    1.3899 H   0  0  0  0  0  0  0  0  0  0  0  0
   -5.4344   -4.8806    0.8815 H   0  0  0  0  0  0  0  0  0  0  0  0
   -6.3480   -3.5787    1.7961 H   0  0  0  0  0  0  0  0  0  0  0  0
   -6.5205   -4.3793   -1.1262 H   0  0  0  0  0  0  0  0  0  0  0  0
   -7.9937   -3.7836   -0.3062 H   0  0  0  0  0  0  0  0  0  0  0  0
   -6.7118   -1.9617   -1.2600 H   0  0  0  0  0  0  0  0  0  0  0  0
   -6.7392   -1.7680    0.5108 H   0  0  0  0  0  0  0  0  0  0  0  0
   -4.4394   -3.0684   -1.0647 H   0  0  0  0  0  0  0  0  0  0  0  0
   -4.5304   -2.9847    0.6977 H   0  0  0  0  0  0  0  0  0  0  0  0
   -5.0037   -0.2964   -0.3579 H   0  0  0  0  0  0  0  0  0  0  0  0
   -0.1114   -2.6293    0.0573 H   0  0  0  0  0  0  0  0  0  0  0  0
    1.4567   -2.1861    1.0557 H   0  0  0  0  0  0  0  0  0  0  0  0
    4.0884    0.0007   -0.6107 H   0  0  0  0  0  0  0  0  0  0  0  0
    6.4947   -0.4345   -0.3206 H   0  0  0  0  0  0  0  0  0  0  0  0
    5.6094   -3.7265    2.1547 H   0  0  0  0  0  0  0  0  0  0  0  0
    3.2564   -3.3302    1.8959 H   0  0  0  0  0  0  0  0  0  0  0  0
   -1.5195    2.5387   -0.2921 H   0  0  0  0  0  0  0  0  0  0  0  0
    1.2267    2.1832    0.7764 H   0  0  0  0  0  0  0  0  0  0  0  0
    0.8947    2.4762   -1.9667 H   0  0  0  0  0  0  0  0  0  0  0  0
    2.3090    3.0372   -1.0573 H   0  0  0  0  0  0  0  0  0  0  0  0
    1.8243    4.9157   -2.2011 H   0  0  0  0  0  0  0  0  0  0  0  0
    0.1140    4.5408   -2.3789 H   0  0  0  0  0  0  0  0  0  0  0  0
   -0.4859    5.8713   -0.6309 H   0  0  0  0  0  0  0  0  0  0  0  0
    0.8097    7.5538   -0.5898 H   0  0  0  0  0  0  0  0  0  0  0  0
    0.7575    5.8018    1.5485 H   0  0  0  0  0  0  0  0  0  0  0  0
    2.0335    4.7624    0.7029 H   0  0  0  0  0  0  0  0  0  0  0  0
   -0.9657    4.1624    0.6982 H   0  0  0  0  0  0  0  0  0  0  0  0
    0.0630    3.6057    2.0468 H   0  0  0  0  0  0  0  0  0  0  0  0
  1  2  1  0
  2  3  1  0
  3  4  1  0
  4  5  1  0
  5  6  1  0
  6  7  2  0
  7  8  1  0
  8  9  2  0
  9 10  1  0
 10 11  2  0
 10 12  1  0
 12 13  1  0
 13 14  2  0
 14 15  1  0
 15 16  2  0
 16 17  1  0
 17 18  1  0
 17 19  1  0
 17 20  1  0
 16 21  1  0
 21 22  2  0
  9 23  1  0
 23 24  1  0
 24 25  1  0
 25 26  1  0
 26 27  1  0
 27 28  1  0
 28 29  1  0
 28 30  1  0
 30 31  1  0
 23 32  2  0
 32  6  1  0
 22 13  1  0
 31 25  1  0
  1 33  1  0
  1 34  1  0
  1 35  1  0
  2 36  1  0
  2 37  1  0
  3 38  1  0
  3 39  1  0
  4 40  1  0
  4 41  1  0
  5 42  1  0
  8 43  1  0
 12 44  1  0
 14 45  1  0
 15 46  1  0
 21 47  1  0
 22 48  1  0
 24 49  1  0
 25 50  1  1
 26 51  1  0
 26 52  1  0
 27 53  1  0
 27 54  1  0
 28 55  1  1
 29 56  1  0
 30 57  1  0
 30 58  1  0
 31 59  1  0
 31 60  1  0
M  END
$$$$
