
     RDKit          3D

 30 31  0  0  0  0  0  0  0  0999 V2000
   -0.8669   -0.5538   -0.2705 C   0  0  1  0  0  0  0  0  0  0  0  0
   -0.4488    0.0934   -1.5263 C   0  0  0  0  0  0  0  0  0  0  0  0
    0.9602    0.2994   -1.6106 N   0  0  0  0  0  0  0  0  0  0  0  0
    1.8120   -0.0116   -0.7398 C   0  0  0  0  0  0  0  0  0  0  0  0
    3.1254    0.2450   -0.9530 N   0  0  0  0  0  0  0  0  0  0  0  0
    4.0688   -0.0740   -0.0416 C   0  0  0  0  0  0  0  0  0  0  0  0
    5.4555    0.1680   -0.2055 N   0  0  0  0  0  0  0  0  0  0  0  0
    3.7073   -0.6704    1.1293 N   0  0  0  0  0  0  0  0  0  0  0  0
    2.4171   -0.9376    1.3702 C   0  0  0  0  0  0  0  0  0  0  0  0
    2.0559   -1.4932    2.4548 O   0  0  0  0  0  0  0  0  0  0  0  0
    1.4424   -0.6105    0.4330 C   0  0  0  0  0  0  0  0  0  0  0  0
    0.2207   -0.8404    0.6113 N   0  0  0  0  0  0  0  0  0  0  0  0
   -1.8546    0.2639    0.5361 C   0  0  1  0  0  0  0  0  0  0  0  0
   -1.2876    1.4301    0.9722 O   0  0  0  0  0  0  0  0  0  0  0  0
   -3.1709    0.4940   -0.0980 C   0  0  2  0  0  0  0  0  0  0  0  0
   -3.9426   -0.7742   -0.3770 C   0  0  0  0  0  0  0  0  0  0  0  0
   -3.1678    1.3310   -1.2078 O   0  0  0  0  0  0  0  0  0  0  0  0
   -1.3476   -1.5332   -0.5350 H   0  0  0  0  0  0  0  0  0  0  0  0
   -0.7188   -0.5400   -2.4199 H   0  0  0  0  0  0  0  0  0  0  0  0
   -0.9199    1.1030   -1.6819 H   0  0  0  0  0  0  0  0  0  0  0  0
    3.4821    0.6945   -1.8143 H   0  0  0  0  0  0  0  0  0  0  0  0
    6.1288   -0.6308   -0.1695 H   0  0  0  0  0  0  0  0  0  0  0  0
    5.9382    1.0902   -0.3682 H   0  0  0  0  0  0  0  0  0  0  0  0
   -2.0381   -0.3588    1.4573 H   0  0  0  0  0  0  0  0  0  0  0  0
   -1.6505    1.6664    1.8515 H   0  0  0  0  0  0  0  0  0  0  0  0
   -3.7977    1.0392    0.6626 H   0  0  0  0  0  0  0  0  0  0  0  0
   -3.4542   -1.4637   -1.0636 H   0  0  0  0  0  0  0  0  0  0  0  0
   -4.9447   -0.4386   -0.7500 H   0  0  0  0  0  0  0  0  0  0  0  0
   -4.1477   -1.2463    0.6074 H   0  0  0  0  0  0  0  0  0  0  0  0
   -3.0559    2.2592   -0.8816 H   0  0  0  0  0  0  0  0  0  0  0  0
  1  2  1  0
  2  3  1  0
  3  4  2  0
  4  5  1  0
  5  6  1  0
  6  7  1  0
  6  8  2  0
  8  9  1  0
  9 10  2  0
  9 11  1  0
 11 12  2  0
  1 13  1  0
 13 14  1  0
 13 15  1  0
 15 16  1  0
 15 17  1  0
 12  1  1  0
 11  4  1  0
  1 18  1  6
  2 19  1  0
  2 20  1  0
  5 21  1  0
  7 22  1  0
  7 23  1  0
 13 24  1  1
 14 25  1  0
 15 26  1  1
 16 27  1  0
 16 28  1  0
 16 29  1  0
 17 30  1  0
M  END
$$$$
