
     RDKit          3D

 53 56  0  0  0  0  0  0  0  0999 V2000
    8.7415   -0.9410    0.5558 O   0  0  0  0  0  0  0  0  0  0  0  0
    8.3141   -0.1206   -0.2949 C   0  0  0  0  0  0  0  0  0  0  0  0
    6.8509    0.0088   -0.4048 C   0  0  0  0  0  0  0  0  0  0  0  0
    6.0408   -0.6989    0.3503 C   0  0  0  0  0  0  0  0  0  0  0  0
    4.5922   -0.6196    0.2918 C   0  0  0  0  0  0  0  0  0  0  0  0
    3.8233   -1.4262    1.1458 C   0  0  0  0  0  0  0  0  0  0  0  0
    2.4545   -1.3906    1.1152 C   0  0  0  0  0  0  0  0  0  0  0  0
    1.7679   -0.5598    0.2434 C   0  0  0  0  0  0  0  0  0  0  0  0
    0.2823   -0.5300    0.1999 C   0  0  0  0  0  0  0  0  0  0  0  0
   -0.3229    0.5946    0.8203 N   0  0  0  0  0  0  0  0  0  0  0  0
   -1.6053    0.4975    1.3380 C   0  0  0  0  0  0  0  0  0  0  0  0
   -2.8130    0.3172    0.4967 C   0  0  0  0  0  0  0  0  0  0  0  0
   -3.9503    0.2732    1.5556 C   0  0  0  0  0  0  0  0  0  0  0  0
   -5.2919    0.0798    0.9639 C   0  0  0  0  0  0  0  0  0  0  0  0
   -5.6332    1.2287    0.0638 C   0  0  0  0  0  0  0  0  0  0  0  0
   -4.5205    1.3042   -0.9807 C   0  0  0  0  0  0  0  0  0  0  0  0
   -4.6076    0.0303   -1.7745 C   0  0  0  0  0  0  0  0  0  0  0  0
   -4.2698   -1.1428   -0.8704 C   0  0  0  0  0  0  0  0  0  0  0  0
   -5.2662   -1.2585    0.2330 C   0  0  0  0  0  0  0  0  0  0  0  0
   -2.8786   -0.9258   -0.3194 C   0  0  0  0  0  0  0  0  0  0  0  0
   -3.1674    1.5056   -0.3696 C   0  0  0  0  0  0  0  0  0  0  0  0
    2.4928    0.2295   -0.5918 C   0  0  0  0  0  0  0  0  0  0  0  0
    1.9056    1.0857   -1.4899 F   0  0  0  0  0  0  0  0  0  0  0  0
    3.8913    0.1981   -0.5656 C   0  0  0  0  0  0  0  0  0  0  0  0
    9.1514    0.6621   -1.1268 N   0  0  0  0  0  0  0  0  0  0  0  0
   10.4963    0.4666   -0.9501 O   0  0  0  0  0  0  0  0  0  0  0  0
    6.4497    0.7044   -1.1261 H   0  0  0  0  0  0  0  0  0  0  0  0
    6.4924   -1.3772    1.0538 H   0  0  0  0  0  0  0  0  0  0  0  0
    4.3732   -2.0797    1.8302 H   0  0  0  0  0  0  0  0  0  0  0  0
    1.8724   -2.0059    1.7685 H   0  0  0  0  0  0  0  0  0  0  0  0
   -0.1144   -1.5124    0.4926 H   0  0  0  0  0  0  0  0  0  0  0  0
   -0.0009   -0.4410   -0.9084 H   0  0  0  0  0  0  0  0  0  0  0  0
   -0.0480    1.4717    0.3417 H   0  0  0  0  0  0  0  0  0  0  0  0
   -1.6190   -0.3423    2.0991 H   0  0  0  0  0  0  0  0  0  0  0  0
   -1.8064    1.4743    1.9057 H   0  0  0  0  0  0  0  0  0  0  0  0
   -3.7568   -0.5925    2.2499 H   0  0  0  0  0  0  0  0  0  0  0  0
   -3.8299    1.2119    2.1176 H   0  0  0  0  0  0  0  0  0  0  0  0
   -6.0116    0.0348    1.8155 H   0  0  0  0  0  0  0  0  0  0  0  0
   -6.5774    1.0328   -0.4947 H   0  0  0  0  0  0  0  0  0  0  0  0
   -5.6397    2.1378    0.6642 H   0  0  0  0  0  0  0  0  0  0  0  0
   -4.7078    2.1789   -1.6560 H   0  0  0  0  0  0  0  0  0  0  0  0
   -5.6957   -0.0993   -2.0468 H   0  0  0  0  0  0  0  0  0  0  0  0
   -4.0324    0.0479   -2.6996 H   0  0  0  0  0  0  0  0  0  0  0  0
   -4.2931   -2.0863   -1.4622 H   0  0  0  0  0  0  0  0  0  0  0  0
   -4.8721   -1.9938    0.9905 H   0  0  0  0  0  0  0  0  0  0  0  0
   -6.2706   -1.5475   -0.0714 H   0  0  0  0  0  0  0  0  0  0  0  0
   -2.5644   -1.8221    0.2117 H   0  0  0  0  0  0  0  0  0  0  0  0
   -2.2229   -0.8004   -1.2253 H   0  0  0  0  0  0  0  0  0  0  0  0
   -2.4558    1.6717   -1.1842 H   0  0  0  0  0  0  0  0  0  0  0  0
   -3.2474    2.3864    0.3315 H   0  0  0  0  0  0  0  0  0  0  0  0
    4.4543    0.8436   -1.2526 H   0  0  0  0  0  0  0  0  0  0  0  0
    8.7831    1.3499   -1.8339 H   0  0  0  0  0  0  0  0  0  0  0  0
   10.8630    1.2865   -0.5387 H   0  0  0  0  0  0  0  0  0  0  0  0
  1  2  2  0
  2  3  1  0
  3  4  2  0
  4  5  1  0
  5  6  2  0
  6  7  1  0
  7  8  2  0
  8  9  1  0
  9 10  1  0
 10 11  1  0
 11 12  1  0
 12 13  1  0
 13 14  1  0
 14 15  1  0
 15 16  1  0
 16 17  1  0
 17 18  1  0
 18 19  1  0
 18 20  1  0
 16 21  1  0
  8 22  1  0
 22 23  1  0
 22 24  2  0
  2 25  1  0
 25 26  1  0
 24  5  1  0
 20 12  1  0
 21 12  1  0
 19 14  1  0
  3 27  1  0
  4 28  1  0
  6 29  1  0
  7 30  1  0
  9 31  1  0
  9 32  1  0
 10 33  1  0
 11 34  1  0
 11 35  1  0
 13 36  1  0
 13 37  1  0
 14 38  1  0
 15 39  1  0
 15 40  1  0
 16 41  1  0
 17 42  1  0
 17 43  1  0
 18 44  1  0
 19 45  1  0
 19 46  1  0
 20 47  1  0
 20 48  1  0
 21 49  1  0
 21 50  1  0
 24 51  1  0
 25 52  1  0
 26 53  1  0
M  END
$$$$
