
     RDKit          3D

 53 54  0  0  0  0  0  0  0  0999 V2000
    7.4903    0.0067   -1.9497 C   0  0  0  0  0  0  0  0  0  0  0  0
    6.4110    1.2945   -1.4108 S   0  0  0  0  0  6  0  0  0  0  0  0
    6.2753    2.3334   -2.4930 O   0  0  0  0  0  0  0  0  0  0  0  0
    6.9806    1.9073   -0.1614 O   0  0  0  0  0  0  0  0  0  0  0  0
    4.8527    0.6571   -1.0422 N   0  0  0  0  0  0  0  0  0  0  0  0
    5.0113   -0.3009    0.0418 C   0  0  0  0  0  0  0  0  0  0  0  0
    3.6476   -0.8970    0.4064 C   0  0  0  0  0  0  0  0  0  0  0  0
    2.9508   -1.7222   -1.0044 S   0  0  0  0  0  6  0  0  0  0  0  0
    2.7215   -0.7985   -2.1396 O   0  0  0  0  0  0  0  0  0  0  0  0
    3.8149   -2.8890   -1.3864 O   0  0  0  0  0  0  0  0  0  0  0  0
    1.4168   -2.3663   -0.5139 N   0  0  0  0  0  0  0  0  0  0  0  0
    0.5114   -1.3247   -0.1047 C   0  0  2  0  0  0  0  0  0  0  0  0
    0.0709   -1.6023    1.3101 C   0  0  0  0  0  0  0  0  0  0  0  0
   -1.2990   -2.2002    1.1319 C   0  0  0  0  0  0  0  0  0  0  0  0
   -1.8984   -1.3532    0.0263 C   0  0  1  0  0  0  0  0  0  0  0  0
   -2.2612   -0.0169    0.6356 C   0  0  2  0  0  0  0  0  0  0  0  0
   -3.2140   -0.3048    1.6903 N   0  0  0  0  0  0  0  0  0  0  0  0
   -2.8206    0.9491   -0.2897 C   0  0  0  0  0  0  0  0  0  0  0  0
   -2.1722    1.2825   -1.3082 O   0  0  0  0  0  0  0  0  0  0  0  0
   -4.1018    1.5391   -0.0746 N   0  0  0  0  0  0  0  0  0  0  0  0
   -4.6945    2.5068   -1.0193 C   0  0  0  0  0  0  0  0  0  0  0  0
   -6.1732    2.4970   -0.6801 C   0  0  0  0  0  0  0  0  0  0  0  0
   -6.1283    2.3239    0.8183 C   0  0  0  0  0  0  0  0  0  0  0  0
   -5.0116    1.3432    1.0145 C   0  0  0  0  0  0  0  0  0  0  0  0
   -0.7657   -1.3043   -0.9489 C   0  0  0  0  0  0  0  0  0  0  0  0
    6.9329   -0.6508   -2.6728 H   0  0  0  0  0  0  0  0  0  0  0  0
    8.3654    0.4890   -2.4415 H   0  0  0  0  0  0  0  0  0  0  0  0
    7.7980   -0.6401   -1.1167 H   0  0  0  0  0  0  0  0  0  0  0  0
    4.2732    1.4679   -0.7060 H   0  0  0  0  0  0  0  0  0  0  0  0
    5.6949   -1.1006   -0.3067 H   0  0  0  0  0  0  0  0  0  0  0  0
    5.3881    0.2580    0.9159 H   0  0  0  0  0  0  0  0  0  0  0  0
    3.8047   -1.6264    1.2140 H   0  0  0  0  0  0  0  0  0  0  0  0
    2.9634   -0.1166    0.7670 H   0  0  0  0  0  0  0  0  0  0  0  0
    1.6157   -3.0143    0.2776 H   0  0  0  0  0  0  0  0  0  0  0  0
    0.9693   -0.3122   -0.1818 H   0  0  0  0  0  0  0  0  0  0  0  0
    0.0835   -0.7072    1.9637 H   0  0  0  0  0  0  0  0  0  0  0  0
    0.7797   -2.3350    1.7887 H   0  0  0  0  0  0  0  0  0  0  0  0
   -1.8840   -2.0804    2.0509 H   0  0  0  0  0  0  0  0  0  0  0  0
   -1.1819   -3.2583    0.8211 H   0  0  0  0  0  0  0  0  0  0  0  0
   -2.7969   -1.8665   -0.3638 H   0  0  0  0  0  0  0  0  0  0  0  0
   -1.3377    0.4309    1.0772 H   0  0  0  0  0  0  0  0  0  0  0  0
   -3.6671   -1.2480    1.5732 H   0  0  0  0  0  0  0  0  0  0  0  0
   -2.7428   -0.2536    2.6351 H   0  0  0  0  0  0  0  0  0  0  0  0
   -4.5846    2.1659   -2.0568 H   0  0  0  0  0  0  0  0  0  0  0  0
   -4.3250    3.5305   -0.8292 H   0  0  0  0  0  0  0  0  0  0  0  0
   -6.6893    3.4008   -1.0023 H   0  0  0  0  0  0  0  0  0  0  0  0
   -6.6954    1.6172   -1.1153 H   0  0  0  0  0  0  0  0  0  0  0  0
   -7.0940    1.9001    1.2188 H   0  0  0  0  0  0  0  0  0  0  0  0
   -5.8709    3.2702    1.3407 H   0  0  0  0  0  0  0  0  0  0  0  0
   -5.4045    0.2953    1.0470 H   0  0  0  0  0  0  0  0  0  0  0  0
   -4.4698    1.6084    1.9605 H   0  0  0  0  0  0  0  0  0  0  0  0
   -0.7822   -0.5027   -1.6793 H   0  0  0  0  0  0  0  0  0  0  0  0
   -0.7572   -2.2818   -1.4964 H   0  0  0  0  0  0  0  0  0  0  0  0
  1  2  1  0
  2  3  2  0
  2  4  2  0
  2  5  1  0
  5  6  1  0
  6  7  1  0
  7  8  1  0
  8  9  2  0
  8 10  2  0
  8 11  1  0
 11 12  1  0
 12 13  1  0
 13 14  1  0
 14 15  1  0
 15 16  1  0
 16 17  1  0
 16 18  1  0
 18 19  2  0
 18 20  1  0
 20 21  1  0
 21 22  1  0
 22 23  1  0
 23 24  1  0
 15 25  1  0
 25 12  1  0
 24 20  1  0
  1 26  1  0
  1 27  1  0
  1 28  1  0
  5 29  1  0
  6 30  1  0
  6 31  1  0
  7 32  1  0
  7 33  1  0
 11 34  1  0
 12 35  1  1
 13 36  1  0
 13 37  1  0
 14 38  1  0
 14 39  1  0
 15 40  1  6
 16 41  1  1
 17 42  1  0
 17 43  1  0
 21 44  1  0
 21 45  1  0
 22 46  1  0
 22 47  1  0
 23 48  1  0
 23 49  1  0
 24 50  1  0
 24 51  1  0
 25 52  1  0
 25 53  1  0
M  END
$$$$
