
     RDKit          3D

 33 35  0  0  0  0  0  0  0  0999 V2000
    5.6550    0.0100    1.2100 C   0  0  0  0  0  0  0  0  0  0  0  0
    5.0929   -0.4293    0.0039 O   0  0  0  0  0  0  0  0  0  0  0  0
    3.7179   -0.3796   -0.2417 C   0  0  0  0  0  0  0  0  0  0  0  0
    3.2342   -0.8266   -1.4453 C   0  0  0  0  0  0  0  0  0  0  0  0
    1.8747   -0.7722   -1.6757 C   0  0  0  0  0  0  0  0  0  0  0  0
    0.9839   -0.2848   -0.7398 C   0  0  0  0  0  0  0  0  0  0  0  0
   -0.3776   -0.2367   -0.9858 C   0  0  0  0  0  0  0  0  0  0  0  0
   -1.2770    0.2522   -0.0487 C   0  0  0  0  0  0  0  0  0  0  0  0
   -2.7067    0.2904   -0.3365 C   0  0  0  0  0  0  0  0  0  0  0  0
   -3.1966    0.7467   -1.5522 C   0  0  0  0  0  0  0  0  0  0  0  0
   -4.4870    0.7973   -1.8525 N   0  0  0  0  0  0  0  0  0  0  0  0
   -5.4109    0.3941   -0.9604 C   0  0  0  0  0  0  0  0  0  0  0  0
   -4.9573   -0.0634    0.2535 C   0  0  0  0  0  0  0  0  0  0  0  0
   -3.6245   -0.1292    0.5979 C   0  0  0  0  0  0  0  0  0  0  0  0
   -3.1563   -0.5969    1.8394 N   0  0  0  0  0  0  0  0  0  0  0  0
   -0.7639    0.6943    1.1509 C   0  0  0  0  0  0  0  0  0  0  0  0
    0.5988    0.6566    1.4221 C   0  0  0  0  0  0  0  0  0  0  0  0
    1.4812    0.1643    0.4724 C   0  0  0  0  0  0  0  0  0  0  0  0
    2.8466    0.1095    0.7035 C   0  0  0  0  0  0  0  0  0  0  0  0
    5.5738   -0.7709    2.0090 H   0  0  0  0  0  0  0  0  0  0  0  0
    5.2330    0.9741    1.5309 H   0  0  0  0  0  0  0  0  0  0  0  0
    6.7538    0.1484    1.0173 H   0  0  0  0  0  0  0  0  0  0  0  0
    3.9001   -1.2161   -2.2054 H   0  0  0  0  0  0  0  0  0  0  0  0
    1.5382   -1.1352   -2.6380 H   0  0  0  0  0  0  0  0  0  0  0  0
   -0.7430   -0.5922   -1.9380 H   0  0  0  0  0  0  0  0  0  0  0  0
   -2.4490    1.0715   -2.2706 H   0  0  0  0  0  0  0  0  0  0  0  0
   -6.4654    0.4439   -1.2271 H   0  0  0  0  0  0  0  0  0  0  0  0
   -5.6833   -0.3916    0.9832 H   0  0  0  0  0  0  0  0  0  0  0  0
   -2.5137   -1.3822    1.9994 H   0  0  0  0  0  0  0  0  0  0  0  0
   -3.4989   -0.0902    2.7028 H   0  0  0  0  0  0  0  0  0  0  0  0
   -1.4019    1.0866    1.9251 H   0  0  0  0  0  0  0  0  0  0  0  0
    1.0091    1.0002    2.3578 H   0  0  0  0  0  0  0  0  0  0  0  0
    3.2196    0.4571    1.6384 H   0  0  0  0  0  0  0  0  0  0  0  0
  1  2  1  0
  2  3  1  0
  3  4  2  0
  4  5  1  0
  5  6  2  0
  6  7  1  0
  7  8  2  0
  8  9  1  0
  9 10  2  0
 10 11  1  0
 11 12  2  0
 12 13  1  0
 13 14  2  0
 14 15  1  0
  8 16  1  0
 16 17  2  0
 17 18  1  0
 18 19  2  0
 19  3  1  0
 18  6  1  0
 14  9  1  0
  1 20  1  0
  1 21  1  0
  1 22  1  0
  4 23  1  0
  5 24  1  0
  7 25  1  0
 10 26  1  0
 12 27  1  0
 13 28  1  0
 15 29  1  0
 15 30  1  0
 16 31  1  0
 17 32  1  0
 19 33  1  0
M  END
$$$$
