
     RDKit          3D

 39 40  0  0  0  0  0  0  0  0999 V2000
    1.1859   -1.7390    1.0084 C   0  0  0  0  0  0  0  0  0  0  0  0
    0.6854   -0.3884    0.5466 C   0  0  1  0  0  0  0  0  0  0  0  0
    1.3459    0.0358   -0.7455 C   0  0  0  0  0  0  0  0  0  0  0  0
    2.8214    0.1132   -0.5095 C   0  0  0  0  0  0  0  0  0  0  0  0
    3.3102    1.3352   -0.0810 C   0  0  0  0  0  0  0  0  0  0  0  0
    4.6556    1.5280    0.1701 C   0  0  0  0  0  0  0  0  0  0  0  0
    5.5333    0.4950   -0.0054 C   0  0  0  0  0  0  0  0  0  0  0  0
    5.0528   -0.7354   -0.4352 C   0  0  0  0  0  0  0  0  0  0  0  0
    3.7101   -0.9418   -0.6898 C   0  0  0  0  0  0  0  0  0  0  0  0
   -0.7387   -0.4212    0.4661 N   0  0  0  0  0  0  0  0  0  0  0  0
   -1.2897   -0.7174    1.7442 C   0  0  0  0  0  0  0  0  0  0  0  0
   -1.3564    0.6173   -0.2817 C   0  0  0  0  0  0  0  0  0  0  0  0
   -2.8186    0.5889   -0.3540 C   0  0  0  0  0  0  0  0  0  0  0  0
   -3.7190    1.2135    0.4855 C   0  0  0  0  0  0  0  0  0  0  0  0
   -5.0858    1.1165    0.3293 C   0  0  0  0  0  0  0  0  0  0  0  0
   -5.6212    0.3716   -0.6998 C   0  0  0  0  0  0  0  0  0  0  0  0
   -4.7823   -0.2812   -1.5792 C   0  0  0  0  0  0  0  0  0  0  0  0
   -3.4240   -0.1509   -1.3775 C   0  0  0  0  0  0  0  0  0  0  0  0
    1.2282   -2.4044    0.1087 H   0  0  0  0  0  0  0  0  0  0  0  0
    0.4888   -2.2333    1.7010 H   0  0  0  0  0  0  0  0  0  0  0  0
    2.1668   -1.6445    1.5075 H   0  0  0  0  0  0  0  0  0  0  0  0
    0.9437    0.3986    1.3021 H   0  0  0  0  0  0  0  0  0  0  0  0
    1.1712   -0.7490   -1.5169 H   0  0  0  0  0  0  0  0  0  0  0  0
    0.9942    1.0019   -1.1015 H   0  0  0  0  0  0  0  0  0  0  0  0
    2.6915    2.2152    0.0872 H   0  0  0  0  0  0  0  0  0  0  0  0
    5.0856    2.4611    0.5055 H   0  0  0  0  0  0  0  0  0  0  0  0
    6.5949    0.5535    0.1652 H   0  0  0  0  0  0  0  0  0  0  0  0
    5.7354   -1.5782   -0.5832 H   0  0  0  0  0  0  0  0  0  0  0  0
    3.2790   -1.8726   -1.0247 H   0  0  0  0  0  0  0  0  0  0  0  0
   -0.5249   -0.6223    2.5706 H   0  0  0  0  0  0  0  0  0  0  0  0
   -2.1398   -0.1278    2.0768 H   0  0  0  0  0  0  0  0  0  0  0  0
   -1.5079   -1.8261    1.7449 H   0  0  0  0  0  0  0  0  0  0  0  0
   -0.9919    0.6061   -1.3415 H   0  0  0  0  0  0  0  0  0  0  0  0
   -1.0390    1.5932    0.1465 H   0  0  0  0  0  0  0  0  0  0  0  0
   -3.2931    1.7990    1.2883 H   0  0  0  0  0  0  0  0  0  0  0  0
   -5.7397    1.6368    1.0305 H   0  0  0  0  0  0  0  0  0  0  0  0
   -6.6919    0.3034   -0.8115 H   0  0  0  0  0  0  0  0  0  0  0  0
   -5.1425   -0.8795   -2.4048 H   0  0  0  0  0  0  0  0  0  0  0  0
   -2.7736   -0.6707   -2.0780 H   0  0  0  0  0  0  0  0  0  0  0  0
  1  2  1  0
  2  3  1  0
  3  4  1  0
  4  5  2  0
  5  6  1  0
  6  7  2  0
  7  8  1  0
  8  9  2  0
  2 10  1  0
 10 11  1  0
 10 12  1  0
 12 13  1  0
 13 14  2  0
 14 15  1  0
 15 16  2  0
 16 17  1  0
 17 18  2  0
  9  4  1  0
 18 13  1  0
  1 19  1  0
  1 20  1  0
  1 21  1  0
  2 22  1  1
  3 23  1  0
  3 24  1  0
  5 25  1  0
  6 26  1  0
  7 27  1  0
  8 28  1  0
  9 29  1  0
 11 30  1  0
 11 31  1  0
 11 32  1  0
 12 33  1  0
 12 34  1  0
 14 35  1  0
 15 36  1  0
 16 37  1  0
 17 38  1  0
 18 39  1  0
M  END
$$$$
