
     RDKit          3D

 63 65  0  0  0  0  0  0  0  0999 V2000
   -3.5208    1.6111   -3.1529 O   0  0  0  0  0  0  0  0  0  0  0  0
   -3.2210    0.6650   -2.1612 C   0  0  0  0  0  0  0  0  0  0  0  0
   -3.5900    1.2839   -0.8429 C   0  0  1  0  0  0  0  0  0  0  0  0
   -5.0379    1.7256   -0.7870 C   0  0  1  0  0  0  0  0  0  0  0  0
   -5.2991    2.8431   -1.5517 O   0  0  0  0  0  0  0  0  0  0  0  0
   -5.8511    0.5184   -1.1943 C   0  0  2  0  0  0  0  0  0  0  0  0
   -7.1908    0.9214   -1.1926 O   0  0  0  0  0  0  0  0  0  0  0  0
   -5.5648   -0.5702   -0.2128 C   0  0  1  0  0  0  0  0  0  0  0  0
   -5.4532   -1.8014   -0.9014 O   0  0  0  0  0  0  0  0  0  0  0  0
   -4.4551   -0.3430    0.7199 C   0  0  0  0  0  0  0  0  0  0  0  0
   -3.3413    0.4292    0.2887 N   0  0  0  0  0  0  0  0  0  0  0  0
   -2.7403    1.2260    1.3116 C   0  0  0  0  0  0  0  0  0  0  0  0
   -2.0349    0.5275    2.4010 C   0  0  0  0  0  0  0  0  0  0  0  0
   -1.5488    1.5200    3.2783 F   0  0  0  0  0  0  0  0  0  0  0  0
   -2.7772   -0.3333    3.1354 F   0  0  0  0  0  0  0  0  0  0  0  0
   -0.8069   -0.1993    1.9125 C   0  0  0  0  0  0  0  0  0  0  0  0
   -1.0673   -1.2508    0.8810 C   0  0  0  0  0  0  0  0  0  0  0  0
    0.2855   -1.8931    0.5166 C   0  0  0  0  0  0  0  0  0  0  0  0
    0.7723   -2.4270    1.6892 O   0  0  0  0  0  0  0  0  0  0  0  0
    2.0018   -3.0491    1.5297 C   0  0  0  0  0  0  0  0  0  0  0  0
    3.0644   -2.1541    1.0431 C   0  0  0  0  0  0  0  0  0  0  0  0
    3.8756   -1.4313    1.9134 C   0  0  0  0  0  0  0  0  0  0  0  0
    4.8628   -0.6016    1.4226 C   0  0  0  0  0  0  0  0  0  0  0  0
    5.0786   -0.4609    0.0482 C   0  0  0  0  0  0  0  0  0  0  0  0
    6.1251    0.4201   -0.4431 C   0  0  0  0  0  0  0  0  0  0  0  0
    7.2910    0.6190    0.2786 C   0  0  0  0  0  0  0  0  0  0  0  0
    8.2951    1.4502   -0.1703 C   0  0  0  0  0  0  0  0  0  0  0  0
    8.1688    2.1225   -1.3742 C   0  0  0  0  0  0  0  0  0  0  0  0
    7.0195    1.9368   -2.1023 C   0  0  0  0  0  0  0  0  0  0  0  0
    6.0159    1.0970   -1.6387 C   0  0  0  0  0  0  0  0  0  0  0  0
    4.2493   -1.1975   -0.7704 C   0  0  0  0  0  0  0  0  0  0  0  0
    3.2538   -2.0355   -0.3158 C   0  0  0  0  0  0  0  0  0  0  0  0
   -3.5708    1.1515   -4.0491 H   0  0  0  0  0  0  0  0  0  0  0  0
   -2.1114    0.5496   -2.1630 H   0  0  0  0  0  0  0  0  0  0  0  0
   -3.6463   -0.3176   -2.3480 H   0  0  0  0  0  0  0  0  0  0  0  0
   -2.9873    2.2373   -0.7699 H   0  0  0  0  0  0  0  0  0  0  0  0
   -5.2637    1.9027    0.3044 H   0  0  0  0  0  0  0  0  0  0  0  0
   -5.9693    3.3938   -1.0387 H   0  0  0  0  0  0  0  0  0  0  0  0
   -5.6094    0.2261   -2.2388 H   0  0  0  0  0  0  0  0  0  0  0  0
   -7.2425    1.7071   -1.8063 H   0  0  0  0  0  0  0  0  0  0  0  0
   -6.5107   -0.7010    0.3965 H   0  0  0  0  0  0  0  0  0  0  0  0
   -4.9066   -2.4421   -0.3837 H   0  0  0  0  0  0  0  0  0  0  0  0
   -4.0643   -1.3493    1.0398 H   0  0  0  0  0  0  0  0  0  0  0  0
   -4.8272    0.1216    1.6809 H   0  0  0  0  0  0  0  0  0  0  0  0
   -2.0296    1.9283    0.7853 H   0  0  0  0  0  0  0  0  0  0  0  0
   -3.5427    1.9162    1.6965 H   0  0  0  0  0  0  0  0  0  0  0  0
   -0.0969    0.5394    1.4735 H   0  0  0  0  0  0  0  0  0  0  0  0
   -0.2704   -0.6106    2.8035 H   0  0  0  0  0  0  0  0  0  0  0  0
   -1.7192   -2.0729    1.2212 H   0  0  0  0  0  0  0  0  0  0  0  0
   -1.4001   -0.8049   -0.0962 H   0  0  0  0  0  0  0  0  0  0  0  0
    0.0536   -2.6422   -0.2652 H   0  0  0  0  0  0  0  0  0  0  0  0
    0.9689   -1.0811    0.1387 H   0  0  0  0  0  0  0  0  0  0  0  0
    1.8357   -3.8704    0.7765 H   0  0  0  0  0  0  0  0  0  0  0  0
    2.3239   -3.5568    2.4535 H   0  0  0  0  0  0  0  0  0  0  0  0
    3.6939   -1.5536    2.9747 H   0  0  0  0  0  0  0  0  0  0  0  0
    5.4582   -0.0677    2.1509 H   0  0  0  0  0  0  0  0  0  0  0  0
    7.3798    0.0876    1.2168 H   0  0  0  0  0  0  0  0  0  0  0  0
    9.2084    1.6075    0.3942 H   0  0  0  0  0  0  0  0  0  0  0  0
    8.9390    2.7871   -1.7630 H   0  0  0  0  0  0  0  0  0  0  0  0
    6.8960    2.4496   -3.0451 H   0  0  0  0  0  0  0  0  0  0  0  0
    5.1319    0.9810   -2.2446 H   0  0  0  0  0  0  0  0  0  0  0  0
    4.4011   -1.1018   -1.8356 H   0  0  0  0  0  0  0  0  0  0  0  0
    2.6187   -2.6013   -1.0176 H   0  0  0  0  0  0  0  0  0  0  0  0
  1  2  1  0
  2  3  1  0
  3  4  1  0
  4  5  1  0
  4  6  1  0
  6  7  1  0
  6  8  1  0
  8  9  1  0
  8 10  1  0
 10 11  1  0
 11 12  1  0
 12 13  1  0
 13 14  1  0
 13 15  1  0
 13 16  1  0
 16 17  1  0
 17 18  1  0
 18 19  1  0
 19 20  1  0
 20 21  1  0
 21 22  2  0
 22 23  1  0
 23 24  2  0
 24 25  1  0
 25 26  2  0
 26 27  1  0
 27 28  2  0
 28 29  1  0
 29 30  2  0
 24 31  1  0
 31 32  2  0
 11  3  1  0
 32 21  1  0
 30 25  1  0
  1 33  1  0
  2 34  1  0
  2 35  1  0
  3 36  1  1
  4 37  1  1
  5 38  1  0
  6 39  1  6
  7 40  1  0
  8 41  1  1
  9 42  1  0
 10 43  1  0
 10 44  1  0
 12 45  1  0
 12 46  1  0
 16 47  1  0
 16 48  1  0
 17 49  1  0
 17 50  1  0
 18 51  1  0
 18 52  1  0
 20 53  1  0
 20 54  1  0
 22 55  1  0
 23 56  1  0
 26 57  1  0
 27 58  1  0
 28 59  1  0
 29 60  1  0
 30 61  1  0
 31 62  1  0
 32 63  1  0
M  END
$$$$
