
     RDKit          3D

 38 39  0  0  0  0  0  0  0  0999 V2000
    2.0722    0.5538    3.0363 C   0  0  0  0  0  0  0  0  0  0  0  0
    1.3741    0.5721    1.6783 C   0  0  0  0  0  0  0  0  0  0  0  0
    0.1149    0.7993    1.5942 N   0  0  0  0  0  0  0  0  0  0  0  0
   -0.5228    0.8180    0.3899 C   0  0  0  0  0  0  0  0  0  0  0  0
   -1.8832    1.0486    0.1207 N   0  0  0  0  0  0  0  0  0  0  0  0
   -2.8544   -0.0061    0.0700 C   0  0  0  0  0  0  0  0  0  0  0  0
   -2.3815   -1.1734    0.2897 O   0  0  0  0  0  0  0  0  0  0  0  0
   -4.2774    0.2386   -0.2119 C   0  0  1  0  0  0  0  0  0  0  0  0
   -4.4988    0.8764   -1.5507 C   0  0  0  0  0  0  0  0  0  0  0  0
   -5.0146   -1.0773   -0.0763 C   0  0  0  0  0  0  0  0  0  0  0  0
   -6.4945   -0.9188   -0.3509 C   0  0  0  0  0  0  0  0  0  0  0  0
   -6.7456   -0.4545   -1.6118 F   0  0  0  0  0  0  0  0  0  0  0  0
   -7.0432   -2.2014   -0.2494 F   0  0  0  0  0  0  0  0  0  0  0  0
   -7.1116   -0.1642    0.6344 F   0  0  0  0  0  0  0  0  0  0  0  0
    0.8023    0.4822   -0.6865 S   0  0  0  0  0  0  0  0  0  0  0  0
    2.0949    0.3411    0.5095 C   0  0  0  0  0  0  0  0  0  0  0  0
    3.4590    0.0590    0.1759 C   0  0  0  0  0  0  0  0  0  0  0  0
    4.4557   -0.0469    1.0648 C   0  0  0  0  0  0  0  0  0  0  0  0
    5.7808   -0.3287    0.6670 C   0  0  0  0  0  0  0  0  0  0  0  0
    6.0907   -0.5044   -0.6545 C   0  0  0  0  0  0  0  0  0  0  0  0
    7.4243   -0.7921   -1.0996 N   0  0  0  0  0  0  0  0  0  0  0  0
    5.0789   -0.3942   -1.5263 N   0  0  0  0  0  0  0  0  0  0  0  0
    3.8206   -0.1292   -1.1777 C   0  0  0  0  0  0  0  0  0  0  0  0
    1.2868    0.7388    3.8245 H   0  0  0  0  0  0  0  0  0  0  0  0
    2.4306   -0.4613    3.2651 H   0  0  0  0  0  0  0  0  0  0  0  0
    2.7695    1.3812    3.1436 H   0  0  0  0  0  0  0  0  0  0  0  0
   -2.1856    2.0245   -0.0464 H   0  0  0  0  0  0  0  0  0  0  0  0
   -4.7450    0.9260    0.5494 H   0  0  0  0  0  0  0  0  0  0  0  0
   -3.6439    1.5909   -1.7101 H   0  0  0  0  0  0  0  0  0  0  0  0
   -5.4102    1.4876   -1.5748 H   0  0  0  0  0  0  0  0  0  0  0  0
   -4.4318    0.1549   -2.3884 H   0  0  0  0  0  0  0  0  0  0  0  0
   -4.9192   -1.4467    0.9611 H   0  0  0  0  0  0  0  0  0  0  0  0
   -4.6271   -1.8477   -0.7488 H   0  0  0  0  0  0  0  0  0  0  0  0
    4.2972    0.0782    2.1262 H   0  0  0  0  0  0  0  0  0  0  0  0
    6.5564   -0.4050    1.4273 H   0  0  0  0  0  0  0  0  0  0  0  0
    7.8671   -1.7230   -0.9839 H   0  0  0  0  0  0  0  0  0  0  0  0
    7.9942   -0.0504   -1.5625 H   0  0  0  0  0  0  0  0  0  0  0  0
    3.0201   -0.0458   -1.9100 H   0  0  0  0  0  0  0  0  0  0  0  0
  1  2  1  0
  2  3  1  0
  3  4  2  0
  4  5  1  0
  5  6  1  0
  6  7  2  0
  6  8  1  0
  8  9  1  0
  8 10  1  0
 10 11  1  0
 11 12  1  0
 11 13  1  0
 11 14  1  0
  4 15  1  0
 15 16  1  0
 16 17  1  0
 17 18  2  0
 18 19  1  0
 19 20  2  0
 20 21  1  0
 20 22  1  0
 22 23  2  0
 16  2  2  0
 23 17  1  0
  1 24  1  0
  1 25  1  0
  1 26  1  0
  5 27  1  0
  8 28  1  1
  9 29  1  0
  9 30  1  0
  9 31  1  0
 10 32  1  0
 10 33  1  0
 18 34  1  0
 19 35  1  0
 21 36  1  0
 21 37  1  0
 23 38  1  0
M  END
$$$$
