
     RDKit          3D

 57 59  0  0  0  0  0  0  0  0999 V2000
    7.1429   -0.7531    0.0669 N   0  0  0  0  0  4  0  0  0  0  0  0
    6.2377   -0.0689    0.9898 C   0  0  0  0  0  0  0  0  0  0  0  0
    5.2185    0.6523    0.1299 C   0  0  0  0  0  0  0  0  0  0  0  0
    4.2264    1.3981    0.9831 C   0  0  0  0  0  0  0  0  0  0  0  0
    3.2267    2.1085    0.1271 C   0  0  0  0  0  0  0  0  0  0  0  0
    2.4467    1.1758   -0.7516 C   0  0  0  0  0  0  0  0  0  0  0  0
    1.6572    0.1375    0.0096 C   0  0  0  0  0  0  0  0  0  0  0  0
    0.9235   -0.7236   -0.9645 C   0  0  0  0  0  0  0  0  0  0  0  0
    0.0814   -1.7945   -0.3909 C   0  0  0  0  0  0  0  0  0  0  0  0
   -1.0256   -1.4105    0.4279 N   0  0  0  0  0  0  0  0  0  0  0  0
   -2.2807   -0.8107    0.1665 C   0  0  0  0  0  0  0  0  0  0  0  0
   -2.7652    0.4750    0.1132 C   0  0  0  0  0  0  0  0  0  0  0  0
   -1.7113    1.4731    0.4101 C   0  0  0  0  0  0  0  0  0  0  0  0
   -2.2750    2.8404    0.5977 C   0  0  0  0  0  0  0  0  0  0  0  0
   -3.7535    2.8251    0.9293 C   0  0  0  0  0  0  0  0  0  0  0  0
   -4.5082    2.1394   -0.2159 C   0  0  0  0  0  0  0  0  0  0  0  0
   -4.0787    0.7242   -0.1826 C   0  0  0  0  0  0  0  0  0  0  0  0
   -4.9816   -0.2367   -0.4387 N   0  0  0  0  0  4  0  0  0  0  0  0
   -4.5513   -1.5097   -0.3973 C   0  0  0  0  0  0  0  0  0  0  0  0
   -5.5248   -2.4472   -0.6687 C   0  0  0  0  0  0  0  0  0  0  0  0
   -5.1769   -3.7770   -0.6492 C   0  0  0  0  0  0  0  0  0  0  0  0
   -3.8941   -4.1658   -0.3672 C   0  0  0  0  0  0  0  0  0  0  0  0
   -2.9740   -3.1778   -0.1059 C   0  0  0  0  0  0  0  0  0  0  0  0
   -3.2181   -1.8198   -0.0998 C   0  0  0  0  0  0  0  0  0  0  0  0
    7.6746   -1.5022    0.5506 H   0  0  0  0  0  0  0  0  0  0  0  0
    6.5332   -1.1773   -0.6880 H   0  0  0  0  0  0  0  0  0  0  0  0
    7.7743   -0.0493   -0.3995 H   0  0  0  0  0  0  0  0  0  0  0  0
    5.7618   -0.8404    1.6018 H   0  0  0  0  0  0  0  0  0  0  0  0
    6.8494    0.6193    1.5795 H   0  0  0  0  0  0  0  0  0  0  0  0
    5.7436    1.3632   -0.5410 H   0  0  0  0  0  0  0  0  0  0  0  0
    4.6685   -0.0885   -0.4819 H   0  0  0  0  0  0  0  0  0  0  0  0
    3.7156    0.6786    1.6600 H   0  0  0  0  0  0  0  0  0  0  0  0
    4.7566    2.1360    1.6433 H   0  0  0  0  0  0  0  0  0  0  0  0
    3.7538    2.8426   -0.5217 H   0  0  0  0  0  0  0  0  0  0  0  0
    2.5290    2.7405    0.7386 H   0  0  0  0  0  0  0  0  0  0  0  0
    3.1261    0.7488   -1.5036 H   0  0  0  0  0  0  0  0  0  0  0  0
    1.6950    1.7739   -1.3376 H   0  0  0  0  0  0  0  0  0  0  0  0
    0.9644    0.6302    0.6852 H   0  0  0  0  0  0  0  0  0  0  0  0
    2.4305   -0.4524    0.5795 H   0  0  0  0  0  0  0  0  0  0  0  0
    1.7175   -1.2268   -1.5904 H   0  0  0  0  0  0  0  0  0  0  0  0
    0.3890   -0.0427   -1.6605 H   0  0  0  0  0  0  0  0  0  0  0  0
   -0.3456   -2.3694   -1.2714 H   0  0  0  0  0  0  0  0  0  0  0  0
    0.7585   -2.5006    0.1480 H   0  0  0  0  0  0  0  0  0  0  0  0
   -0.9701   -1.5774    1.4552 H   0  0  0  0  0  0  0  0  0  0  0  0
   -1.2548    1.1623    1.3931 H   0  0  0  0  0  0  0  0  0  0  0  0
   -0.9719    1.4902   -0.4175 H   0  0  0  0  0  0  0  0  0  0  0  0
   -2.1692    3.3956   -0.3579 H   0  0  0  0  0  0  0  0  0  0  0  0
   -1.7537    3.3452    1.4255 H   0  0  0  0  0  0  0  0  0  0  0  0
   -4.0931    3.8768    0.9516 H   0  0  0  0  0  0  0  0  0  0  0  0
   -3.9882    2.2877    1.8488 H   0  0  0  0  0  0  0  0  0  0  0  0
   -4.1710    2.6106   -1.1466 H   0  0  0  0  0  0  0  0  0  0  0  0
   -5.5927    2.2468   -0.0051 H   0  0  0  0  0  0  0  0  0  0  0  0
   -5.9574    0.0537   -0.6536 H   0  0  0  0  0  0  0  0  0  0  0  0
   -6.5322   -2.2014   -0.8930 H   0  0  0  0  0  0  0  0  0  0  0  0
   -5.9227   -4.5302   -0.8588 H   0  0  0  0  0  0  0  0  0  0  0  0
   -3.5916   -5.2001   -0.3445 H   0  0  0  0  0  0  0  0  0  0  0  0
   -1.9692   -3.4974    0.1143 H   0  0  0  0  0  0  0  0  0  0  0  0
  1  2  1  0
  2  3  1  0
  3  4  1  0
  4  5  1  0
  5  6  1  0
  6  7  1  0
  7  8  1  0
  8  9  1  0
  9 10  1  0
 10 11  1  0
 11 12  2  0
 12 13  1  0
 13 14  1  0
 14 15  1  0
 15 16  1  0
 16 17  1  0
 17 18  2  0
 18 19  1  0
 19 20  2  0
 20 21  1  0
 21 22  2  0
 22 23  1  0
 23 24  2  0
 24 11  1  0
 17 12  1  0
 24 19  1  0
  1 25  1  0
  1 26  1  0
  1 27  1  0
  2 28  1  0
  2 29  1  0
  3 30  1  0
  3 31  1  0
  4 32  1  0
  4 33  1  0
  5 34  1  0
  5 35  1  0
  6 36  1  0
  6 37  1  0
  7 38  1  0
  7 39  1  0
  8 40  1  0
  8 41  1  0
  9 42  1  0
  9 43  1  0
 10 44  1  0
 13 45  1  0
 13 46  1  0
 14 47  1  0
 14 48  1  0
 15 49  1  0
 15 50  1  0
 16 51  1  0
 16 52  1  0
 18 53  1  0
 20 54  1  0
 21 55  1  0
 22 56  1  0
 23 57  1  0
M  CHG  2   1   1  18   1
M  END
$$$$
