
     RDKit          3D

 46 47  0  0  0  0  0  0  0  0999 V2000
    1.8926    2.5931   -1.6623 O   0  0  0  0  0  0  0  0  0  0  0  0
    1.5024    2.5811   -0.4704 C   0  0  0  0  0  0  0  0  0  0  0  0
    0.8364    1.4276    0.1408 C   0  0  0  0  0  0  0  0  0  0  0  0
    0.6874    0.2379   -0.7720 C   0  0  1  0  0  0  0  0  0  0  0  0
    1.9512   -0.3552   -1.2635 C   0  0  0  0  0  0  0  0  0  0  0  0
    2.8880   -0.8800   -0.2643 C   0  0  0  0  0  0  0  0  0  0  0  0
    2.9159   -2.2234    0.0333 C   0  0  0  0  0  0  0  0  0  0  0  0
    3.7877   -2.7465    0.9976 C   0  0  0  0  0  0  0  0  0  0  0  0
    4.6426   -1.8961    1.6678 C   0  0  0  0  0  0  0  0  0  0  0  0
    4.5957   -0.5683    1.3531 C   0  0  0  0  0  0  0  0  0  0  0  0
    3.7467   -0.0376    0.4101 C   0  0  0  0  0  0  0  0  0  0  0  0
   -0.3110   -0.6941   -0.2675 C   0  0  0  0  0  0  0  0  0  0  0  0
    0.0698   -1.8033    0.2475 O   0  0  0  0  0  0  0  0  0  0  0  0
   -1.6878   -0.4505   -0.3119 N   0  0  0  0  0  0  0  0  0  0  0  0
   -2.2668    0.7161   -0.8816 C   0  0  0  0  0  0  0  0  0  0  0  0
   -3.1414    1.4050    0.1526 C   0  0  0  0  0  0  0  0  0  0  0  0
   -4.1622    0.4407    0.7256 C   0  0  0  0  0  0  0  0  0  0  0  0
   -3.5319   -0.8068    1.2489 C   0  0  0  0  0  0  0  0  0  0  0  0
   -2.6054   -1.4325    0.2555 C   0  0  1  0  0  0  0  0  0  0  0  0
   -3.3775   -2.1200   -0.8081 C   0  0  0  0  0  0  0  0  0  0  0  0
   -3.2427   -1.8853   -2.0286 O   0  0  0  0  0  0  0  0  0  0  0  0
   -4.3092   -3.0836   -0.4492 O   0  0  0  0  0  0  0  0  0  0  0  0
    1.7179    3.7462    0.3267 N   0  0  0  0  0  0  0  0  0  0  0  0
    2.3310    4.8080   -0.2361 O   0  0  0  0  0  0  0  0  0  0  0  0
    1.4478    1.0973    1.0488 H   0  0  0  0  0  0  0  0  0  0  0  0
   -0.1574    1.7027    0.5241 H   0  0  0  0  0  0  0  0  0  0  0  0
    0.1968    0.6963   -1.7131 H   0  0  0  0  0  0  0  0  0  0  0  0
    2.4885    0.3835   -1.9187 H   0  0  0  0  0  0  0  0  0  0  0  0
    1.6419   -1.1702   -1.9968 H   0  0  0  0  0  0  0  0  0  0  0  0
    2.3003   -2.9721   -0.4556 H   0  0  0  0  0  0  0  0  0  0  0  0
    3.8014   -3.8033    1.2248 H   0  0  0  0  0  0  0  0  0  0  0  0
    5.3314   -2.2837    2.4248 H   0  0  0  0  0  0  0  0  0  0  0  0
    5.2714    0.1121    1.8805 H   0  0  0  0  0  0  0  0  0  0  0  0
    3.7917    1.0476    0.2270 H   0  0  0  0  0  0  0  0  0  0  0  0
   -1.5761    1.4529   -1.2845 H   0  0  0  0  0  0  0  0  0  0  0  0
   -2.9038    0.4051   -1.7647 H   0  0  0  0  0  0  0  0  0  0  0  0
   -3.6848    2.2456   -0.3018 H   0  0  0  0  0  0  0  0  0  0  0  0
   -2.4967    1.7332    0.9842 H   0  0  0  0  0  0  0  0  0  0  0  0
   -4.9424    0.1883   -0.0307 H   0  0  0  0  0  0  0  0  0  0  0  0
   -4.6638    0.9620    1.5676 H   0  0  0  0  0  0  0  0  0  0  0  0
   -2.9747   -0.5882    2.1839 H   0  0  0  0  0  0  0  0  0  0  0  0
   -4.3230   -1.5351    1.4886 H   0  0  0  0  0  0  0  0  0  0  0  0
   -2.0111   -2.1964    0.7796 H   0  0  0  0  0  0  0  0  0  0  0  0
   -4.5922   -3.8088   -1.0994 H   0  0  0  0  0  0  0  0  0  0  0  0
    1.4077    3.7679    1.3133 H   0  0  0  0  0  0  0  0  0  0  0  0
    1.7180    5.5906   -0.3399 H   0  0  0  0  0  0  0  0  0  0  0  0
  1  2  2  0
  2  3  1  0
  3  4  1  0
  4  5  1  0
  5  6  1  0
  6  7  2  0
  7  8  1  0
  8  9  2  0
  9 10  1  0
 10 11  2  0
  4 12  1  0
 12 13  2  0
 12 14  1  0
 14 15  1  0
 15 16  1  0
 16 17  1  0
 17 18  1  0
 18 19  1  0
 19 20  1  0
 20 21  2  0
 20 22  1  0
  2 23  1  0
 23 24  1  0
 11  6  1  0
 19 14  1  0
  3 25  1  0
  3 26  1  0
  4 27  1  6
  5 28  1  0
  5 29  1  0
  7 30  1  0
  8 31  1  0
  9 32  1  0
 10 33  1  0
 11 34  1  0
 15 35  1  0
 15 36  1  0
 16 37  1  0
 16 38  1  0
 17 39  1  0
 17 40  1  0
 18 41  1  0
 18 42  1  0
 19 43  1  1
 22 44  1  0
 23 45  1  0
 24 46  1  0
M  END
$$$$
