
     RDKit          3D

 41 42  0  0  0  0  0  0  0  0999 V2000
    3.4845   -3.0594    0.0158 C   0  0  0  0  0  0  0  0  0  0  0  0
    3.4412   -1.6987   -0.3540 O   0  0  0  0  0  0  0  0  0  0  0  0
    2.4169   -0.8206   -0.0063 C   0  0  0  0  0  0  0  0  0  0  0  0
    1.4920   -1.3122    0.6774 O   0  0  0  0  0  0  0  0  0  0  0  0
    2.4696    0.5346   -0.4267 N   0  0  0  0  0  0  0  0  0  0  0  0
    3.6305    0.9414   -1.2282 C   0  0  0  0  0  0  0  0  0  0  0  0
    4.6786    1.3979   -0.2846 C   0  0  0  0  0  0  0  0  0  0  0  0
    4.4404    1.3456    0.9517 O   0  0  0  0  0  0  0  0  0  0  0  0
    5.9163    1.8843   -0.6696 O   0  0  0  0  0  0  0  0  0  0  0  0
    1.5122    1.5181   -0.1427 C   0  0  0  0  0  0  0  0  0  0  0  0
    1.6581    2.7096   -0.6022 O   0  0  0  0  0  0  0  0  0  0  0  0
    0.3086    1.3402    0.6575 C   0  0  0  0  0  0  0  0  0  0  0  0
    0.3276    1.8261    1.9658 C   0  0  0  0  0  0  0  0  0  0  0  0
    1.4712    2.4191    2.4240 F   0  0  0  0  0  0  0  0  0  0  0  0
   -0.7645    1.7211    2.7983 C   0  0  0  0  0  0  0  0  0  0  0  0
   -1.9096    1.1186    2.3240 C   0  0  0  0  0  0  0  0  0  0  0  0
   -1.9640    0.6256    1.0338 C   0  0  0  0  0  0  0  0  0  0  0  0
   -3.1289    0.0333    0.6141 C   0  0  0  0  0  0  0  0  0  0  0  0
   -4.3071   -0.0795    1.4917 C   0  0  0  0  0  0  0  0  0  0  0  0
   -4.8038    1.1273    1.9190 F   0  0  0  0  0  0  0  0  0  0  0  0
   -4.0397   -0.8406    2.6126 F   0  0  0  0  0  0  0  0  0  0  0  0
   -5.3529   -0.7237    0.8432 F   0  0  0  0  0  0  0  0  0  0  0  0
   -3.2014   -0.4724   -0.6845 C   0  0  0  0  0  0  0  0  0  0  0  0
   -4.3894   -1.0627   -1.0673 O   0  0  0  0  0  0  0  0  0  0  0  0
   -4.6062   -1.6150   -2.3484 C   0  0  0  0  0  0  0  0  0  0  0  0
   -2.0858   -0.3475   -1.4858 C   0  0  0  0  0  0  0  0  0  0  0  0
   -0.9114    0.2431   -1.0812 C   0  0  0  0  0  0  0  0  0  0  0  0
   -0.8430    0.7412    0.2023 C   0  0  0  0  0  0  0  0  0  0  0  0
    3.8192   -3.1871    1.0625 H   0  0  0  0  0  0  0  0  0  0  0  0
    2.5691   -3.6015   -0.2250 H   0  0  0  0  0  0  0  0  0  0  0  0
    4.2988   -3.5095   -0.6313 H   0  0  0  0  0  0  0  0  0  0  0  0
    3.9772    0.0540   -1.7767 H   0  0  0  0  0  0  0  0  0  0  0  0
    3.3610    1.7786   -1.9043 H   0  0  0  0  0  0  0  0  0  0  0  0
    6.7499    1.6204   -0.1195 H   0  0  0  0  0  0  0  0  0  0  0  0
   -0.7536    2.0969    3.8087 H   0  0  0  0  0  0  0  0  0  0  0  0
   -2.7777    1.0320    2.9703 H   0  0  0  0  0  0  0  0  0  0  0  0
   -5.3684   -2.4354   -2.3094 H   0  0  0  0  0  0  0  0  0  0  0  0
   -4.9572   -0.8418   -3.0794 H   0  0  0  0  0  0  0  0  0  0  0  0
   -3.6597   -2.0960   -2.6619 H   0  0  0  0  0  0  0  0  0  0  0  0
   -2.1516   -0.7405   -2.4960 H   0  0  0  0  0  0  0  0  0  0  0  0
   -0.0470    0.3350   -1.7177 H   0  0  0  0  0  0  0  0  0  0  0  0
  1  2  1  0
  2  3  1  0
  3  4  2  0
  3  5  1  0
  5  6  1  0
  6  7  1  0
  7  8  2  0
  7  9  1  0
  5 10  1  0
 10 11  2  0
 10 12  1  0
 12 13  2  0
 13 14  1  0
 13 15  1  0
 15 16  2  0
 16 17  1  0
 17 18  2  0
 18 19  1  0
 19 20  1  0
 19 21  1  0
 19 22  1  0
 18 23  1  0
 23 24  1  0
 24 25  1  0
 23 26  2  0
 26 27  1  0
 27 28  2  0
 28 12  1  0
 28 17  1  0
  1 29  1  0
  1 30  1  0
  1 31  1  0
  6 32  1  0
  6 33  1  0
  9 34  1  0
 15 35  1  0
 16 36  1  0
 25 37  1  0
 25 38  1  0
 25 39  1  0
 26 40  1  0
 27 41  1  0
M  END
$$$$
