
     RDKit          3D

 69 72  0  0  0  0  0  0  0  0999 V2000
   -3.8010   -0.7050    0.7083 C   0  0  2  0  0  0  0  0  0  0  0  0
   -4.8772   -1.7240    0.2346 C   0  0  0  0  0  0  0  0  0  0  0  0
   -4.4310    0.6258    0.4356 C   0  0  0  0  0  0  0  0  0  0  0  0
   -5.7295    0.6468    1.2661 C   0  0  0  0  0  0  0  0  0  0  0  0
   -6.3615    1.9760    1.0000 C   0  0  0  0  0  0  0  0  0  0  0  0
   -5.8798    2.9893    0.1729 O   0  0  0  0  0  0  0  0  0  0  0  0
   -7.4592    2.2592    1.5670 O   0  0  0  0  0  0  0  0  0  0  0  0
   -2.5884   -1.0405   -0.0726 C   0  0  1  0  0  0  0  0  0  0  0  0
   -2.7323   -0.9105   -1.5640 C   0  0  0  0  0  0  0  0  0  0  0  0
   -1.3349   -0.7437   -2.1229 C   0  0  0  0  0  0  0  0  0  0  0  0
   -0.4563   -0.9014   -0.9272 C   0  0  1  0  0  0  0  0  0  0  0  0
    0.8007   -0.1321   -0.9413 C   0  0  2  0  0  0  0  0  0  0  0  0
    1.6633   -0.6111   -2.1036 C   0  0  2  0  0  0  0  0  0  0  0  0
    1.4813   -1.9943   -2.2621 O   0  0  0  0  0  0  0  0  0  0  0  0
    3.1317   -0.2885   -1.8986 C   0  0  0  0  0  0  0  0  0  0  0  0
    3.2527    0.8150   -0.8897 C   0  0  2  0  0  0  0  0  0  0  0  0
    4.5947    1.5057   -0.8993 C   0  0  0  0  0  0  0  0  0  0  0  0
    5.6179    0.9171    0.0000 C   0  0  2  0  0  0  0  0  0  0  0  0
    6.7447    0.6276   -0.8052 O   0  0  0  0  0  0  0  0  0  0  0  0
    5.2362   -0.3632    0.6470 C   0  0  0  0  0  0  0  0  0  0  0  0
    3.8619   -0.4590    1.1965 C   0  0  0  0  0  0  0  0  0  0  0  0
    2.8195    0.3652    0.4881 C   0  0  1  0  0  0  0  0  0  0  0  0
    2.6385    1.6227    1.3055 C   0  0  0  0  0  0  0  0  0  0  0  0
    1.5612   -0.4430    0.3249 C   0  0  1  0  0  0  0  0  0  0  0  0
    0.7695   -0.4521    1.5757 C   0  0  0  0  0  0  0  0  0  0  0  0
   -0.5974   -1.0734    1.4465 C   0  0  2  0  0  0  0  0  0  0  0  0
   -0.4952   -2.4367    1.2810 O   0  0  0  0  0  0  0  0  0  0  0  0
   -1.2970   -0.4267    0.2631 C   0  0  2  0  0  0  0  0  0  0  0  0
   -1.2959    1.0424    0.4577 C   0  0  0  0  0  0  0  0  0  0  0  0
   -3.6591   -0.9179    1.7802 H   0  0  0  0  0  0  0  0  0  0  0  0
   -4.3850   -2.6299   -0.1811 H   0  0  0  0  0  0  0  0  0  0  0  0
   -5.4391   -1.2876   -0.6141 H   0  0  0  0  0  0  0  0  0  0  0  0
   -5.5709   -1.9582    1.0478 H   0  0  0  0  0  0  0  0  0  0  0  0
   -4.7599    0.6701   -0.6105 H   0  0  0  0  0  0  0  0  0  0  0  0
   -3.8975    1.5119    0.7406 H   0  0  0  0  0  0  0  0  0  0  0  0
   -5.4902    0.6137    2.3477 H   0  0  0  0  0  0  0  0  0  0  0  0
   -6.4331   -0.1239    0.9390 H   0  0  0  0  0  0  0  0  0  0  0  0
   -6.1312    3.9520    0.2854 H   0  0  0  0  0  0  0  0  0  0  0  0
   -2.4143   -2.1778    0.0652 H   0  0  0  0  0  0  0  0  0  0  0  0
   -3.3038   -0.0233   -1.8932 H   0  0  0  0  0  0  0  0  0  0  0  0
   -3.2728   -1.7819   -1.9866 H   0  0  0  0  0  0  0  0  0  0  0  0
   -1.1877    0.1555   -2.7207 H   0  0  0  0  0  0  0  0  0  0  0  0
   -1.1507   -1.6332   -2.7786 H   0  0  0  0  0  0  0  0  0  0  0  0
   -0.2021   -1.9836   -0.7564 H   0  0  0  0  0  0  0  0  0  0  0  0
    0.6170    0.9219   -1.1352 H   0  0  0  0  0  0  0  0  0  0  0  0
    1.3278   -0.1212   -3.0323 H   0  0  0  0  0  0  0  0  0  0  0  0
    1.6660   -2.2057   -3.2139 H   0  0  0  0  0  0  0  0  0  0  0  0
    3.5924    0.0464   -2.8471 H   0  0  0  0  0  0  0  0  0  0  0  0
    3.6156   -1.2311   -1.5678 H   0  0  0  0  0  0  0  0  0  0  0  0
    2.5313    1.6173   -1.2003 H   0  0  0  0  0  0  0  0  0  0  0  0
    4.8951    1.5643   -1.9762 H   0  0  0  0  0  0  0  0  0  0  0  0
    4.4765    2.5803   -0.5952 H   0  0  0  0  0  0  0  0  0  0  0  0
    6.0030    1.6369    0.7734 H   0  0  0  0  0  0  0  0  0  0  0  0
    7.4989    1.2352   -0.6413 H   0  0  0  0  0  0  0  0  0  0  0  0
    5.9512   -0.5148    1.5016 H   0  0  0  0  0  0  0  0  0  0  0  0
    5.4848   -1.2231   -0.0414 H   0  0  0  0  0  0  0  0  0  0  0  0
    3.5608   -1.5384    1.1271 H   0  0  0  0  0  0  0  0  0  0  0  0
    3.8163   -0.2448    2.2934 H   0  0  0  0  0  0  0  0  0  0  0  0
    3.6454    2.1361    1.2650 H   0  0  0  0  0  0  0  0  0  0  0  0
    1.9418    2.3468    0.8746 H   0  0  0  0  0  0  0  0  0  0  0  0
    2.5005    1.4290    2.3959 H   0  0  0  0  0  0  0  0  0  0  0  0
    1.9244   -1.5079    0.1741 H   0  0  0  0  0  0  0  0  0  0  0  0
    1.3127   -1.1246    2.3061 H   0  0  0  0  0  0  0  0  0  0  0  0
    0.7050    0.5112    2.1207 H   0  0  0  0  0  0  0  0  0  0  0  0
   -1.1624   -0.8441    2.3699 H   0  0  0  0  0  0  0  0  0  0  0  0
    0.3166   -2.7801    1.7602 H   0  0  0  0  0  0  0  0  0  0  0  0
   -1.7172    1.2157    1.4931 H   0  0  0  0  0  0  0  0  0  0  0  0
   -1.7962    1.5962   -0.3297 H   0  0  0  0  0  0  0  0  0  0  0  0
   -0.2473    1.4248    0.5767 H   0  0  0  0  0  0  0  0  0  0  0  0
  1  2  1  0
  1  3  1  0
  3  4  1  0
  4  5  1  0
  5  6  1  0
  5  7  2  0
  1  8  1  0
  8  9  1  0
  9 10  1  0
 10 11  1  0
 11 12  1  0
 12 13  1  0
 13 14  1  0
 13 15  1  0
 15 16  1  0
 16 17  1  0
 17 18  1  0
 18 19  1  0
 18 20  1  0
 20 21  1  0
 21 22  1  0
 22 23  1  1
 22 24  1  0
 24 25  1  0
 25 26  1  0
 26 27  1  0
 26 28  1  0
 28 29  1  1
 28  8  1  0
 28 11  1  0
 24 12  1  0
 22 16  1  0
  1 30  1  1
  2 31  1  0
  2 32  1  0
  2 33  1  0
  3 34  1  0
  3 35  1  0
  4 36  1  0
  4 37  1  0
  6 38  1  0
  8 39  1  6
  9 40  1  0
  9 41  1  0
 10 42  1  0
 10 43  1  0
 11 44  1  1
 12 45  1  6
 13 46  1  6
 14 47  1  0
 15 48  1  0
 15 49  1  0
 16 50  1  6
 17 51  1  0
 17 52  1  0
 18 53  1  1
 19 54  1  0
 20 55  1  0
 20 56  1  0
 21 57  1  0
 21 58  1  0
 23 59  1  0
 23 60  1  0
 23 61  1  0
 24 62  1  6
 25 63  1  0
 25 64  1  0
 26 65  1  1
 27 66  1  0
 29 67  1  0
 29 68  1  0
 29 69  1  0
M  END
$$$$
