
     RDKit          3D

 42 45  0  0  0  0  0  0  0  0999 V2000
    6.7385   -1.7584    1.1475 C   0  0  0  0  0  0  0  0  0  0  0  0
    6.8514   -0.8799    0.0027 N   0  0  0  0  0  0  0  0  0  0  0  0
    5.2497   -0.5541   -0.5673 S   0  0  0  0  0  0  0  0  0  0  0  0
    4.5205   -1.8462   -0.8412 O   0  0  0  0  0  0  0  0  0  0  0  0
    5.2668    0.3477   -1.7655 O   0  0  0  0  0  0  0  0  0  0  0  0
    4.3494    0.2658    0.7268 C   0  0  0  0  0  0  0  0  0  0  0  0
    2.9751    0.5453    0.2377 C   0  0  0  0  0  0  0  0  0  0  0  0
    2.7297    1.7494   -0.4072 C   0  0  0  0  0  0  0  0  0  0  0  0
    1.5288    2.1383   -0.9045 C   0  0  0  0  0  0  0  0  0  0  0  0
    0.4796    1.2528   -0.7472 C   0  0  0  0  0  0  0  0  0  0  0  0
   -0.7986    1.6072   -1.2478 N   0  0  0  0  0  0  0  0  0  0  0  0
   -2.0423    0.9530   -1.2523 N   0  0  0  0  0  0  0  0  0  0  0  0
   -2.7465    0.8745   -0.1754 C   0  0  0  0  0  0  0  0  0  0  0  0
   -2.4471    1.3932    1.1614 C   0  0  0  0  0  0  0  0  0  0  0  0
   -1.4011    2.0241    1.4639 O   0  0  0  0  0  0  0  0  0  0  0  0
   -3.5511    1.0355    1.9819 N   0  0  0  0  0  0  0  0  0  0  0  0
   -4.5481    0.3197    1.2705 C   0  0  0  0  0  0  0  0  0  0  0  0
   -4.0396    0.2435    0.0016 C   0  0  0  0  0  0  0  0  0  0  0  0
   -4.7834   -0.4080   -0.9636 C   0  0  0  0  0  0  0  0  0  0  0  0
   -6.0941   -1.0393   -0.7535 C   0  0  0  0  0  0  0  0  0  0  0  0
   -6.5187   -0.9110    0.5453 C   0  0  0  0  0  0  0  0  0  0  0  0
   -5.7753   -0.2669    1.4839 C   0  0  0  0  0  0  0  0  0  0  0  0
   -6.6136   -1.6050   -1.8365 N   0  0  0  0  0  0  0  0  0  0  0  0
   -6.1813   -1.6680   -2.9087 C   0  0  0  0  0  0  0  0  0  0  0  0
   -4.4950   -0.7522   -2.7958 S   0  0  0  0  0  0  0  0  0  0  0  0
    0.6428    0.0441   -0.1213 C   0  0  0  0  0  0  0  0  0  0  0  0
    1.9008   -0.3049    0.3715 C   0  0  0  0  0  0  0  0  0  0  0  0
    6.1227   -2.6363    0.8331 H   0  0  0  0  0  0  0  0  0  0  0  0
    6.2700   -1.2182    2.0033 H   0  0  0  0  0  0  0  0  0  0  0  0
    7.7554   -2.0637    1.4965 H   0  0  0  0  0  0  0  0  0  0  0  0
    7.3104    0.0120    0.2242 H   0  0  0  0  0  0  0  0  0  0  0  0
    4.3826   -0.3072    1.6688 H   0  0  0  0  0  0  0  0  0  0  0  0
    4.8644    1.2376    0.8927 H   0  0  0  0  0  0  0  0  0  0  0  0
    3.5599    2.4422   -0.5279 H   0  0  0  0  0  0  0  0  0  0  0  0
    1.3528    3.0805   -1.4050 H   0  0  0  0  0  0  0  0  0  0  0  0
   -0.9624    2.5211   -1.7314 H   0  0  0  0  0  0  0  0  0  0  0  0
   -3.6563    1.2601    3.0164 H   0  0  0  0  0  0  0  0  0  0  0  0
   -7.4660   -1.3276    0.8438 H   0  0  0  0  0  0  0  0  0  0  0  0
   -6.1629   -0.1919    2.5136 H   0  0  0  0  0  0  0  0  0  0  0  0
   -6.5824   -2.1340   -3.8532 H   0  0  0  0  0  0  0  0  0  0  0  0
   -0.1396   -0.6861    0.0298 H   0  0  0  0  0  0  0  0  0  0  0  0
    2.1540   -1.2407    0.8888 H   0  0  0  0  0  0  0  0  0  0  0  0
  1  2  1  0
  2  3  1  0
  3  4  2  0
  3  5  2  0
  3  6  1  0
  6  7  1  0
  7  8  2  0
  8  9  1  0
  9 10  2  0
 10 11  1  0
 11 12  1  0
 12 13  2  0
 13 14  1  0
 14 15  2  0
 14 16  1  0
 16 17  1  0
 17 18  2  0
 18 19  1  0
 19 20  2  0
 20 21  1  0
 21 22  2  0
 20 23  1  0
 23 24  2  0
 24 25  1  0
 10 26  1  0
 26 27  2  0
 27  7  1  0
 18 13  1  0
 25 19  1  0
 22 17  1  0
  1 28  1  0
  1 29  1  0
  1 30  1  0
  2 31  1  0
  6 32  1  0
  6 33  1  0
  8 34  1  0
  9 35  1  0
 11 36  1  0
 16 37  1  0
 21 38  1  0
 22 39  1  0
 24 40  1  0
 26 41  1  0
 27 42  1  0
M  END
$$$$
