
     RDKit          3D

 49 52  0  0  0  0  0  0  0  0999 V2000
    0.9387   -0.0276    2.0023 O   0  0  0  0  0  0  0  0  0  0  0  0
    1.0835   -0.1455    0.7439 C   0  0  0  0  0  0  0  0  0  0  0  0
   -0.0692   -0.3045   -0.0337 N   0  0  0  0  0  0  0  0  0  0  0  0
   -1.4144   -0.3434    0.5027 C   0  0  0  0  0  0  0  0  0  0  0  0
   -2.0845   -1.6230    0.2216 C   0  0  0  0  0  0  0  0  0  0  0  0
   -2.0055   -2.1785   -1.0361 C   0  0  0  0  0  0  0  0  0  0  0  0
   -2.6402   -3.3769   -1.2776 C   0  0  0  0  0  0  0  0  0  0  0  0
   -3.3538   -4.0475   -0.3122 C   0  0  0  0  0  0  0  0  0  0  0  0
   -3.4393   -3.5036    0.9442 C   0  0  0  0  0  0  0  0  0  0  0  0
   -4.3449   -4.3484    2.1808 Cl  0  0  0  0  0  0  0  0  0  0  0  0
   -2.8026   -2.3047    1.1807 C   0  0  0  0  0  0  0  0  0  0  0  0
   -2.2319    0.8461    0.0439 C   0  0  0  0  0  0  0  0  0  0  0  0
   -3.6276    0.8222    0.5894 C   0  0  0  0  0  0  0  0  0  0  0  0
   -4.2028    2.2138    0.5780 C   0  0  0  0  0  0  0  0  0  0  0  0
   -3.6252    3.0370   -0.4629 N   0  0  0  0  0  0  0  0  0  0  0  0
   -2.2198    3.2604   -0.3063 C   0  0  0  0  0  0  0  0  0  0  0  0
   -1.5916    2.1458    0.4833 C   0  0  0  0  0  0  0  0  0  0  0  0
    2.4398   -0.1064    0.2011 C   0  0  0  0  0  0  0  0  0  0  0  0
    2.7077   -0.2237   -1.1386 C   0  0  0  0  0  0  0  0  0  0  0  0
    4.0288   -0.1790   -1.6013 C   0  0  0  0  0  0  0  0  0  0  0  0
    5.0942   -0.0181   -0.7436 C   0  0  0  0  0  0  0  0  0  0  0  0
    6.4062    0.0314   -1.1538 C   0  0  0  0  0  0  0  0  0  0  0  0
    7.4309    0.1906   -0.2846 N   0  0  0  0  0  0  0  0  0  0  0  0
    7.2058    0.3080    1.0269 C   0  0  0  0  0  0  0  0  0  0  0  0
    5.8980    0.2615    1.4635 C   0  0  0  0  0  0  0  0  0  0  0  0
    4.8315    0.0998    0.5980 C   0  0  0  0  0  0  0  0  0  0  0  0
    3.5251    0.0537    1.0374 C   0  0  0  0  0  0  0  0  0  0  0  0
    0.0347   -0.4023   -1.0664 H   0  0  0  0  0  0  0  0  0  0  0  0
   -1.3110   -0.2225    1.6198 H   0  0  0  0  0  0  0  0  0  0  0  0
   -1.4558   -1.6884   -1.8285 H   0  0  0  0  0  0  0  0  0  0  0  0
   -2.5958   -3.8437   -2.2672 H   0  0  0  0  0  0  0  0  0  0  0  0
   -3.8351   -4.9924   -0.5615 H   0  0  0  0  0  0  0  0  0  0  0  0
   -2.8984   -1.9074    2.2008 H   0  0  0  0  0  0  0  0  0  0  0  0
   -2.3119    0.8837   -1.0693 H   0  0  0  0  0  0  0  0  0  0  0  0
   -3.6652    0.4758    1.6571 H   0  0  0  0  0  0  0  0  0  0  0  0
   -4.2890    0.1827   -0.0420 H   0  0  0  0  0  0  0  0  0  0  0  0
   -5.2918    2.1588    0.3714 H   0  0  0  0  0  0  0  0  0  0  0  0
   -4.1245    2.6996    1.5898 H   0  0  0  0  0  0  0  0  0  0  0  0
   -4.1046    3.9737   -0.3917 H   0  0  0  0  0  0  0  0  0  0  0  0
   -1.9817    4.2241    0.1880 H   0  0  0  0  0  0  0  0  0  0  0  0
   -1.7394    3.2382   -1.3253 H   0  0  0  0  0  0  0  0  0  0  0  0
   -0.4912    2.1370    0.3570 H   0  0  0  0  0  0  0  0  0  0  0  0
   -1.7566    2.2923    1.5892 H   0  0  0  0  0  0  0  0  0  0  0  0
    1.9111   -0.3507   -1.8454 H   0  0  0  0  0  0  0  0  0  0  0  0
    4.2547   -0.2713   -2.6666 H   0  0  0  0  0  0  0  0  0  0  0  0
    6.5885   -0.0650   -2.2286 H   0  0  0  0  0  0  0  0  0  0  0  0
    8.0541    0.4332    1.6819 H   0  0  0  0  0  0  0  0  0  0  0  0
    5.7225    0.3564    2.5191 H   0  0  0  0  0  0  0  0  0  0  0  0
    3.3498    0.1486    2.0931 H   0  0  0  0  0  0  0  0  0  0  0  0
  1  2  2  0
  2  3  1  0
  3  4  1  0
  4  5  1  0
  5  6  2  0
  6  7  1  0
  7  8  2  0
  8  9  1  0
  9 10  1  0
  9 11  2  0
  4 12  1  0
 12 13  1  0
 13 14  1  0
 14 15  1  0
 15 16  1  0
 16 17  1  0
  2 18  1  0
 18 19  2  0
 19 20  1  0
 20 21  2  0
 21 22  1  0
 22 23  2  0
 23 24  1  0
 24 25  2  0
 25 26  1  0
 26 27  2  0
 11  5  1  0
 17 12  1  0
 27 18  1  0
 26 21  1  0
  3 28  1  0
  4 29  1  0
  6 30  1  0
  7 31  1  0
  8 32  1  0
 11 33  1  0
 12 34  1  0
 13 35  1  0
 13 36  1  0
 14 37  1  0
 14 38  1  0
 15 39  1  0
 16 40  1  0
 16 41  1  0
 17 42  1  0
 17 43  1  0
 19 44  1  0
 20 45  1  0
 22 46  1  0
 24 47  1  0
 25 48  1  0
 27 49  1  0
M  END
$$$$
