
     RDKit          3D

 87 86  0  0  0  0  0  0  0  0999 V2000
  -14.1636   -0.9945   -0.6672 C   0  0  0  0  0  0  0  0  0  0  0  0
  -13.8377   -0.3047    0.6279 C   0  0  0  0  0  0  0  0  0  0  0  0
  -14.1998   -0.2210    1.8251 O   0  0  0  0  0  0  0  0  0  0  0  0
  -12.7264    0.5324    0.3460 N   0  0  0  0  0  0  0  0  0  0  0  0
  -13.1114    0.6357    1.6601 O   0  0  0  0  0  0  0  0  0  0  0  0
  -11.5952    1.3039   -0.1919 C   0  0  0  0  0  0  0  0  0  0  0  0
  -10.3772    0.4157    0.0158 C   0  0  0  0  0  0  0  0  0  0  0  0
   -9.1193    1.0741   -0.4914 C   0  0  0  0  0  0  0  0  0  0  0  0
   -7.9354    0.1566   -0.2634 C   0  0  0  0  0  0  0  0  0  0  0  0
   -7.7154   -0.1698    1.1775 C   0  0  0  0  0  0  0  0  0  0  0  0
   -6.5943   -1.0419    1.4357 N   0  0  0  0  0  0  0  0  0  0  0  0
   -5.2238   -0.7632    1.1024 C   0  0  0  0  0  0  0  0  0  0  0  0
   -4.9563    0.3461    0.5251 O   0  0  0  0  0  0  0  0  0  0  0  0
   -4.1534   -1.7407    1.4236 C   0  0  0  0  0  0  0  0  0  0  0  0
   -2.8405   -1.1662    0.9402 C   0  0  0  0  0  0  0  0  0  0  0  0
   -2.5378    0.1338    1.5779 C   0  0  0  0  0  0  0  0  0  0  0  0
   -2.1334    1.2342    2.0538 O   0  0  0  0  0  0  0  0  0  0  0  0
   -1.2103    0.5106    1.2392 N   0  0  0  0  0  0  0  0  0  0  0  0
   -1.2387    1.7009    1.9076 O   0  0  0  0  0  0  0  0  0  0  0  0
    0.0483    0.1436    0.5440 C   0  0  0  0  0  0  0  0  0  0  0  0
   -0.0918    0.6635   -0.8391 C   0  0  0  0  0  0  0  0  0  0  0  0
    0.9895    0.5651   -1.8136 C   0  0  0  0  0  0  0  0  0  0  0  0
    1.4948   -0.7532   -2.2319 C   0  0  0  0  0  0  0  0  0  0  0  0
    2.1288   -1.5597   -1.1475 C   0  0  0  0  0  0  0  0  0  0  0  0
    3.2256   -0.7914   -0.5693 N   0  0  0  0  0  0  0  0  0  0  0  0
    4.3514   -0.4255   -1.3529 C   0  0  0  0  0  0  0  0  0  0  0  0
    4.5559   -0.6961   -2.5620 O   0  0  0  0  0  0  0  0  0  0  0  0
    5.4245    0.3628   -0.6959 C   0  0  0  0  0  0  0  0  0  0  0  0
    6.5979    0.2729   -1.6879 C   0  0  0  0  0  0  0  0  0  0  0  0
    7.7571    1.0104   -1.2192 C   0  0  0  0  0  0  0  0  0  0  0  0
    7.5692    2.0021   -0.4814 O   0  0  0  0  0  0  0  0  0  0  0  0
    9.0582    1.5360   -0.9160 N   0  0  0  0  0  0  0  0  0  0  0  0
    9.1074    2.6161   -0.1452 O   0  0  0  0  0  0  0  0  0  0  0  0
   10.1373    0.7504   -1.5331 C   0  0  0  0  0  0  0  0  0  0  0  0
   10.4925   -0.3117   -0.5069 C   0  0  0  0  0  0  0  0  0  0  0  0
   10.9567    0.3711    0.7559 C   0  0  0  0  0  0  0  0  0  0  0  0
   11.2991   -0.6901    1.7692 C   0  0  0  0  0  0  0  0  0  0  0  0
   12.3826   -1.6141    1.3076 C   0  0  0  0  0  0  0  0  0  0  0  0
   13.6355   -0.9704    1.0092 N   0  0  0  0  0  0  0  0  0  0  0  0
  -13.2643   -1.5187   -1.0595 H   0  0  0  0  0  0  0  0  0  0  0  0
  -14.9222   -1.7870   -0.4728 H   0  0  0  0  0  0  0  0  0  0  0  0
  -14.5095   -0.2385   -1.3833 H   0  0  0  0  0  0  0  0  0  0  0  0
  -12.2876    0.9220    2.1473 H   0  0  0  0  0  0  0  0  0  0  0  0
  -11.7800    1.5733   -1.2310 H   0  0  0  0  0  0  0  0  0  0  0  0
  -11.5054    2.1981    0.4344 H   0  0  0  0  0  0  0  0  0  0  0  0
  -10.3355    0.2423    1.1173 H   0  0  0  0  0  0  0  0  0  0  0  0
  -10.5489   -0.5716   -0.4544 H   0  0  0  0  0  0  0  0  0  0  0  0
   -9.0024    2.0347    0.0651 H   0  0  0  0  0  0  0  0  0  0  0  0
   -9.2299    1.2499   -1.5757 H   0  0  0  0  0  0  0  0  0  0  0  0
   -7.0166    0.5793   -0.7198 H   0  0  0  0  0  0  0  0  0  0  0  0
   -8.1564   -0.8127   -0.7990 H   0  0  0  0  0  0  0  0  0  0  0  0
   -8.5963   -0.6134    1.6707 H   0  0  0  0  0  0  0  0  0  0  0  0
   -7.5410    0.7957    1.7410 H   0  0  0  0  0  0  0  0  0  0  0  0
   -6.7348   -1.9840    1.9077 H   0  0  0  0  0  0  0  0  0  0  0  0
   -4.3202   -2.6742    0.8501 H   0  0  0  0  0  0  0  0  0  0  0  0
   -4.1268   -2.0074    2.5114 H   0  0  0  0  0  0  0  0  0  0  0  0
   -2.0133   -1.8924    1.0222 H   0  0  0  0  0  0  0  0  0  0  0  0
   -2.9986   -0.9912   -0.1654 H   0  0  0  0  0  0  0  0  0  0  0  0
   -0.5734    2.3141    1.4624 H   0  0  0  0  0  0  0  0  0  0  0  0
    0.8541    0.5672    1.1435 H   0  0  0  0  0  0  0  0  0  0  0  0
    0.1185   -0.9667    0.6130 H   0  0  0  0  0  0  0  0  0  0  0  0
   -0.3687    1.7740   -0.7863 H   0  0  0  0  0  0  0  0  0  0  0  0
   -1.0374    0.1457   -1.2476 H   0  0  0  0  0  0  0  0  0  0  0  0
    1.8416    1.2431   -1.4592 H   0  0  0  0  0  0  0  0  0  0  0  0
    0.7149    1.1161   -2.7916 H   0  0  0  0  0  0  0  0  0  0  0  0
    0.6314   -1.3076   -2.7043 H   0  0  0  0  0  0  0  0  0  0  0  0
    2.2788   -0.5989   -3.0526 H   0  0  0  0  0  0  0  0  0  0  0  0
    2.7024   -2.4205   -1.6924 H   0  0  0  0  0  0  0  0  0  0  0  0
    1.4891   -2.0781   -0.4763 H   0  0  0  0  0  0  0  0  0  0  0  0
    3.1515   -0.5252    0.4334 H   0  0  0  0  0  0  0  0  0  0  0  0
    5.1263    1.4250   -0.5551 H   0  0  0  0  0  0  0  0  0  0  0  0
    5.6967   -0.0717    0.2877 H   0  0  0  0  0  0  0  0  0  0  0  0
    6.1661    0.7158   -2.6355 H   0  0  0  0  0  0  0  0  0  0  0  0
    6.7336   -0.7859   -1.9153 H   0  0  0  0  0  0  0  0  0  0  0  0
    9.4340    3.4299   -0.5979 H   0  0  0  0  0  0  0  0  0  0  0  0
   11.0342    1.3876   -1.6715 H   0  0  0  0  0  0  0  0  0  0  0  0
    9.8093    0.2521   -2.4479 H   0  0  0  0  0  0  0  0  0  0  0  0
   11.3202   -0.9144   -0.9428 H   0  0  0  0  0  0  0  0  0  0  0  0
    9.6132   -0.9414   -0.2539 H   0  0  0  0  0  0  0  0  0  0  0  0
   11.8361    1.0283    0.5699 H   0  0  0  0  0  0  0  0  0  0  0  0
   10.1599    1.0040    1.1737 H   0  0  0  0  0  0  0  0  0  0  0  0
   10.3798   -1.2835    1.9480 H   0  0  0  0  0  0  0  0  0  0  0  0
   11.5641   -0.1961    2.7393 H   0  0  0  0  0  0  0  0  0  0  0  0
   12.5723   -2.3236    2.1616 H   0  0  0  0  0  0  0  0  0  0  0  0
   12.0038   -2.2179    0.4643 H   0  0  0  0  0  0  0  0  0  0  0  0
   13.7967   -0.1055    1.5339 H   0  0  0  0  0  0  0  0  0  0  0  0
   14.3897   -1.6755    1.1647 H   0  0  0  0  0  0  0  0  0  0  0  0
  1  2  1  0
  2  3  2  0
  2  4  1  0
  4  5  1  0
  4  6  1  0
  6  7  1  0
  7  8  1  0
  8  9  1  0
  9 10  1  0
 10 11  1  0
 11 12  1  0
 12 13  2  0
 12 14  1  0
 14 15  1  0
 15 16  1  0
 16 17  2  0
 16 18  1  0
 18 19  1  0
 18 20  1  0
 20 21  1  0
 21 22  1  0
 22 23  1  0
 23 24  1  0
 24 25  1  0
 25 26  1  0
 26 27  2  0
 26 28  1  0
 28 29  1  0
 29 30  1  0
 30 31  2  0
 30 32  1  0
 32 33  1  0
 32 34  1  0
 34 35  1  0
 35 36  1  0
 36 37  1  0
 37 38  1  0
 38 39  1  0
  1 40  1  0
  1 41  1  0
  1 42  1  0
  5 43  1  0
  6 44  1  0
  6 45  1  0
  7 46  1  0
  7 47  1  0
  8 48  1  0
  8 49  1  0
  9 50  1  0
  9 51  1  0
 10 52  1  0
 10 53  1  0
 11 54  1  0
 14 55  1  0
 14 56  1  0
 15 57  1  0
 15 58  1  0
 19 59  1  0
 20 60  1  0
 20 61  1  0
 21 62  1  0
 21 63  1  0
 22 64  1  0
 22 65  1  0
 23 66  1  0
 23 67  1  0
 24 68  1  0
 24 69  1  0
 25 70  1  0
 28 71  1  0
 28 72  1  0
 29 73  1  0
 29 74  1  0
 33 75  1  0
 34 76  1  0
 34 77  1  0
 35 78  1  0
 35 79  1  0
 36 80  1  0
 36 81  1  0
 37 82  1  0
 37 83  1  0
 38 84  1  0
 38 85  1  0
 39 86  1  0
 39 87  1  0
M  END
$$$$
