
     RDKit          3D

 51 54  0  0  0  0  0  0  0  0999 V2000
   -1.8850    1.5882    2.3404 C   0  0  0  0  0  0  0  0  0  0  0  0
   -1.5535    2.0978    1.0638 O   0  0  0  0  0  0  0  0  0  0  0  0
   -2.4112    1.7933    0.0103 C   0  0  0  0  0  0  0  0  0  0  0  0
   -3.5418    1.0283    0.1901 C   0  0  0  0  0  0  0  0  0  0  0  0
   -4.4122    0.7090   -0.8258 C   0  0  0  0  0  0  0  0  0  0  0  0
   -5.6011   -0.0988   -0.6208 C   0  0  0  0  0  0  0  0  0  0  0  0
   -6.6852    0.2913   -1.0926 O   0  0  0  0  0  0  0  0  0  0  0  0
   -5.5370   -1.3063    0.0998 N   0  0  0  0  0  0  0  0  0  0  0  0
   -4.3184   -1.8331    0.6822 C   0  0  0  0  0  0  0  0  0  0  0  0
   -6.7375   -2.0947    0.2902 C   0  0  0  0  0  0  0  0  0  0  0  0
   -4.0938    1.2086   -2.0944 C   0  0  0  0  0  0  0  0  0  0  0  0
   -2.9667    1.9749   -2.2903 C   0  0  0  0  0  0  0  0  0  0  0  0
   -2.1052    2.2826   -1.2502 C   0  0  0  0  0  0  0  0  0  0  0  0
   -0.9501    3.0673   -1.4109 N   0  0  0  0  0  0  0  0  0  0  0  0
    0.3745    2.6196   -1.1608 C   0  0  0  0  0  0  0  0  0  0  0  0
    0.6856    1.3340   -0.7816 C   0  0  0  0  0  0  0  0  0  0  0  0
    1.9965    0.9234   -0.5354 C   0  0  0  0  0  0  0  0  0  0  0  0
    2.5768   -0.2236   -0.1661 N   0  0  0  0  0  0  0  0  0  0  0  0
    3.9037   -0.0992   -0.0630 C   0  0  0  0  0  0  0  0  0  0  0  0
    4.8749   -1.1319    0.3164 C   0  0  0  0  0  0  0  0  0  0  0  0
    4.6413   -2.4433    0.6475 C   0  0  0  0  0  0  0  0  0  0  0  0
    5.8356   -2.9918    0.9188 N   0  0  0  0  0  0  0  0  0  0  0  0
    6.8170   -2.1163    0.7828 N   0  0  0  0  0  0  0  0  0  0  0  0
    8.2302   -2.3701    0.9970 C   0  0  0  0  0  0  0  0  0  0  0  0
    6.2373   -0.9628    0.4108 C   0  0  0  0  0  0  0  0  0  0  0  0
    4.2032    1.2024   -0.3833 C   0  0  0  0  0  0  0  0  0  0  0  0
    3.0142    1.8326   -0.6758 C   0  0  0  0  0  0  0  0  0  0  0  0
    2.6886    3.1046   -1.0530 C   0  0  0  0  0  0  0  0  0  0  0  0
    1.4072    3.4704   -1.2840 N   0  0  0  0  0  0  0  0  0  0  0  0
   -1.1456    1.8851    3.1099 H   0  0  0  0  0  0  0  0  0  0  0  0
   -1.8686    0.4604    2.3266 H   0  0  0  0  0  0  0  0  0  0  0  0
   -2.9138    1.8751    2.5892 H   0  0  0  0  0  0  0  0  0  0  0  0
   -3.7553    0.6609    1.1832 H   0  0  0  0  0  0  0  0  0  0  0  0
   -4.3270   -1.5896    1.7745 H   0  0  0  0  0  0  0  0  0  0  0  0
   -4.3074   -2.9607    0.6252 H   0  0  0  0  0  0  0  0  0  0  0  0
   -3.4029   -1.4984    0.1675 H   0  0  0  0  0  0  0  0  0  0  0  0
   -6.5511   -3.1477    0.5151 H   0  0  0  0  0  0  0  0  0  0  0  0
   -7.2909   -1.6722    1.1609 H   0  0  0  0  0  0  0  0  0  0  0  0
   -7.4183   -2.0420   -0.5844 H   0  0  0  0  0  0  0  0  0  0  0  0
   -4.7777    0.9568   -2.8906 H   0  0  0  0  0  0  0  0  0  0  0  0
   -2.7389    2.3497   -3.2753 H   0  0  0  0  0  0  0  0  0  0  0  0
   -1.0817    4.0686   -1.7443 H   0  0  0  0  0  0  0  0  0  0  0  0
   -0.0887    0.6010   -0.6697 H   0  0  0  0  0  0  0  0  0  0  0  0
    2.0289   -1.0974    0.0131 H   0  0  0  0  0  0  0  0  0  0  0  0
    3.6572   -2.9089    0.6722 H   0  0  0  0  0  0  0  0  0  0  0  0
    8.7933   -1.4358    0.8056 H   0  0  0  0  0  0  0  0  0  0  0  0
    8.3575   -2.5780    2.0964 H   0  0  0  0  0  0  0  0  0  0  0  0
    8.6080   -3.2039    0.3963 H   0  0  0  0  0  0  0  0  0  0  0  0
    6.8236   -0.0536    0.2256 H   0  0  0  0  0  0  0  0  0  0  0  0
    5.2013    1.6347   -0.3966 H   0  0  0  0  0  0  0  0  0  0  0  0
    3.5102    3.8234   -1.1624 H   0  0  0  0  0  0  0  0  0  0  0  0
  1  2  1  0
  2  3  1  0
  3  4  2  0
  4  5  1  0
  5  6  1  0
  6  7  2  0
  6  8  1  0
  8  9  1  0
  8 10  1  0
  5 11  2  0
 11 12  1  0
 12 13  2  0
 13 14  1  0
 14 15  1  0
 15 16  2  0
 16 17  1  0
 17 18  1  0
 18 19  1  0
 19 20  1  0
 20 21  1  0
 21 22  2  0
 22 23  1  0
 23 24  1  0
 23 25  1  0
 19 26  2  0
 26 27  1  0
 27 28  1  0
 28 29  2  0
 13  3  1  0
 29 15  1  0
 27 17  2  0
 25 20  2  0
  1 30  1  0
  1 31  1  0
  1 32  1  0
  4 33  1  0
  9 34  1  0
  9 35  1  0
  9 36  1  0
 10 37  1  0
 10 38  1  0
 10 39  1  0
 11 40  1  0
 12 41  1  0
 14 42  1  0
 16 43  1  0
 18 44  1  0
 21 45  1  0
 24 46  1  0
 24 47  1  0
 24 48  1  0
 25 49  1  0
 26 50  1  0
 28 51  1  0
M  END
$$$$
