
     RDKit          3D

 64 68  0  0  0  0  0  0  0  0999 V2000
   -5.5361   -1.0219    2.2457 C   0  0  0  0  0  0  0  0  0  0  0  0
   -6.3605   -0.2321    1.2930 C   0  0  0  0  0  0  0  0  0  0  0  0
   -6.0177   -0.4272   -0.1532 C   0  0  1  0  0  0  0  0  0  0  0  0
   -6.9342    0.4363   -0.9792 C   0  0  0  0  0  0  0  0  0  0  0  0
   -6.2605    1.2269   -1.8945 O   0  0  0  0  0  0  0  0  0  0  0  0
   -5.3368    2.0896   -1.3357 C   0  0  0  0  0  0  0  0  0  0  0  0
   -4.3902    1.3801   -0.3809 C   0  0  0  0  0  0  0  0  0  0  0  0
   -4.6293   -0.0476   -0.4380 N   0  0  0  0  0  0  0  0  0  0  0  0
   -3.6448   -1.0137   -0.7373 C   0  0  0  0  0  0  0  0  0  0  0  0
   -4.0030   -2.2260   -0.7467 O   0  0  0  0  0  0  0  0  0  0  0  0
   -2.2393   -0.6970   -1.0352 C   0  0  2  0  0  0  0  0  0  0  0  0
   -1.3127   -1.8867   -1.2747 C   0  0  0  0  0  0  0  0  0  0  0  0
   -1.1676   -1.0008   -0.0902 C   0  0  1  0  0  0  0  0  0  0  0  0
   -0.1161    0.0389    0.0626 C   0  0  1  0  0  0  0  0  0  0  0  0
   -0.7202    1.3130    0.6830 C   0  0  0  0  0  0  0  0  0  0  0  0
    0.9591   -0.3818    1.0083 C   0  0  0  0  0  0  0  0  0  0  0  0
    2.2642   -0.3880    0.5873 C   0  0  0  0  0  0  0  0  0  0  0  0
    3.3220   -0.7556    1.3878 C   0  0  0  0  0  0  0  0  0  0  0  0
    4.7186   -0.7560    0.9529 C   0  0  0  0  0  0  0  0  0  0  0  0
    5.2168    0.1919    0.1674 C   0  0  0  0  0  0  0  0  0  0  0  0
    4.3833    1.1830   -0.2313 F   0  0  0  0  0  0  0  0  0  0  0  0
    6.6020    0.1804   -0.2583 C   0  0  0  0  0  0  0  0  0  0  0  0
    7.1321    1.1522   -1.0648 C   0  0  0  0  0  0  0  0  0  0  0  0
    8.4432    1.1374   -1.4662 C   0  0  0  0  0  0  0  0  0  0  0  0
    9.2654    0.0977   -1.0394 C   0  0  0  0  0  0  0  0  0  0  0  0
   10.6493    0.0657   -1.4529 C   0  0  0  0  0  0  0  0  0  0  0  0
   11.7721    0.0417   -1.7792 N   0  0  0  0  0  0  0  0  0  0  0  0
    8.7100   -0.8662   -0.2303 C   0  0  0  0  0  0  0  0  0  0  0  0
    7.4105   -0.8123    0.1418 N   0  0  0  0  0  0  0  0  0  0  0  0
    3.0580   -1.1411    2.6888 C   0  0  0  0  0  0  0  0  0  0  0  0
    1.7365   -1.1395    3.1296 C   0  0  0  0  0  0  0  0  0  0  0  0
    0.6881   -0.7654    2.3070 C   0  0  0  0  0  0  0  0  0  0  0  0
   -0.5819   -0.7786    2.7886 F   0  0  0  0  0  0  0  0  0  0  0  0
    0.5316    0.3632   -1.1866 N   0  0  0  0  0  0  0  0  0  0  0  0
   -0.0604    0.6735   -2.2685 C   0  0  0  0  0  0  0  0  0  0  0  0
    0.6314    0.9780   -3.4398 N   0  0  0  0  0  0  0  0  0  0  0  0
   -1.8444    0.6630   -2.1884 S   0  0  0  0  0  0  0  0  0  0  0  0
   -5.1036   -0.3686    3.0598 H   0  0  0  0  0  0  0  0  0  0  0  0
   -6.1485   -1.7813    2.8125 H   0  0  0  0  0  0  0  0  0  0  0  0
   -4.6961   -1.5670    1.8241 H   0  0  0  0  0  0  0  0  0  0  0  0
   -6.3346    0.8316    1.6035 H   0  0  0  0  0  0  0  0  0  0  0  0
   -7.4224   -0.5607    1.4105 H   0  0  0  0  0  0  0  0  0  0  0  0
   -6.1017   -1.5060   -0.3915 H   0  0  0  0  0  0  0  0  0  0  0  0
   -7.5820   -0.2483   -1.5649 H   0  0  0  0  0  0  0  0  0  0  0  0
   -7.6162    1.0207   -0.3333 H   0  0  0  0  0  0  0  0  0  0  0  0
   -5.8116    2.9831   -0.8609 H   0  0  0  0  0  0  0  0  0  0  0  0
   -4.7108    2.4850   -2.1622 H   0  0  0  0  0  0  0  0  0  0  0  0
   -4.7534    1.6891    0.6466 H   0  0  0  0  0  0  0  0  0  0  0  0
   -3.3533    1.6844   -0.4595 H   0  0  0  0  0  0  0  0  0  0  0  0
   -1.7815   -2.8805   -1.1782 H   0  0  0  0  0  0  0  0  0  0  0  0
   -0.5426   -1.8519   -2.0477 H   0  0  0  0  0  0  0  0  0  0  0  0
   -1.5427   -1.5082    0.8578 H   0  0  0  0  0  0  0  0  0  0  0  0
   -0.9738    2.0408   -0.1136 H   0  0  0  0  0  0  0  0  0  0  0  0
   -1.6732    1.0201    1.1632 H   0  0  0  0  0  0  0  0  0  0  0  0
   -0.0420    1.6939    1.4366 H   0  0  0  0  0  0  0  0  0  0  0  0
    2.5060   -0.0923   -0.4331 H   0  0  0  0  0  0  0  0  0  0  0  0
    5.4151   -1.5366    1.2543 H   0  0  0  0  0  0  0  0  0  0  0  0
    6.5138    1.9790   -1.4146 H   0  0  0  0  0  0  0  0  0  0  0  0
    8.8664    1.8966   -2.0989 H   0  0  0  0  0  0  0  0  0  0  0  0
    9.3438   -1.6716    0.1015 H   0  0  0  0  0  0  0  0  0  0  0  0
    3.8620   -1.4375    3.3501 H   0  0  0  0  0  0  0  0  0  0  0  0
    1.5191   -1.4387    4.1428 H   0  0  0  0  0  0  0  0  0  0  0  0
    1.1313    0.2771   -4.0430 H   0  0  0  0  0  0  0  0  0  0  0  0
    0.6935    1.9727   -3.8005 H   0  0  0  0  0  0  0  0  0  0  0  0
  1  2  1  0
  2  3  1  0
  3  4  1  0
  4  5  1  0
  5  6  1  0
  6  7  1  0
  7  8  1  0
  8  9  1  0
  9 10  2  0
 11  9  1  1
 11 12  1  0
 12 13  1  0
 13 14  1  0
 14 15  1  1
 14 16  1  0
 16 17  2  0
 17 18  1  0
 18 19  1  0
 19 20  2  0
 20 21  1  0
 20 22  1  0
 22 23  2  0
 23 24  1  0
 24 25  2  0
 25 26  1  0
 26 27  3  0
 25 28  1  0
 28 29  2  0
 18 30  2  0
 30 31  1  0
 31 32  2  0
 32 33  1  0
 14 34  1  0
 34 35  2  0
 35 36  1  0
 35 37  1  0
  8  3  1  0
 13 11  1  0
 32 16  1  0
 37 11  1  0
 29 22  1  0
  1 38  1  0
  1 39  1  0
  1 40  1  0
  2 41  1  0
  2 42  1  0
  3 43  1  6
  4 44  1  0
  4 45  1  0
  6 46  1  0
  6 47  1  0
  7 48  1  0
  7 49  1  0
 12 50  1  0
 12 51  1  0
 13 52  1  1
 15 53  1  0
 15 54  1  0
 15 55  1  0
 17 56  1  0
 19 57  1  0
 23 58  1  0
 24 59  1  0
 28 60  1  0
 30 61  1  0
 31 62  1  0
 36 63  1  0
 36 64  1  0
M  END
$$$$
