
     RDKit          3D

 52 56  0  0  0  0  0  0  0  0999 V2000
   -3.6581    1.7498    2.5274 C   0  0  0  0  0  0  0  0  0  0  0  0
   -3.7360    1.7219    1.0431 C   0  0  0  0  0  0  0  0  0  0  0  0
   -3.3160    0.6718    0.2900 C   0  0  0  0  0  0  0  0  0  0  0  0
   -2.8172   -0.5215    0.8515 N   0  0  0  0  0  0  0  0  0  0  0  0
   -2.5207   -1.6773    0.0614 C   0  0  0  0  0  0  0  0  0  0  0  0
   -3.5830   -2.4819   -0.3032 C   0  0  0  0  0  0  0  0  0  0  0  0
   -4.9341   -2.0765    0.0917 C   0  0  0  0  0  0  0  0  0  0  0  0
   -5.9727   -1.7470    0.4018 N   0  0  0  0  0  0  0  0  0  0  0  0
   -3.4669   -3.6302   -1.0269 C   0  0  0  0  0  0  0  0  0  0  0  0
   -2.1948   -3.9754   -1.3986 N   0  0  0  0  0  0  0  0  0  0  0  0
   -1.1555   -3.1978   -1.0478 C   0  0  0  0  0  0  0  0  0  0  0  0
    0.5952   -3.4030   -1.3841 S   0  0  0  0  0  0  0  0  0  0  0  0
    1.0920   -1.9054   -0.5213 C   0  0  0  0  0  0  0  0  0  0  0  0
    2.4990   -1.4790   -0.4246 C   0  0  0  0  0  0  0  0  0  0  0  0
    3.4693   -2.1440   -0.9637 C   0  0  0  0  0  0  0  0  0  0  0  0
    4.8792   -1.9118   -0.9874 C   0  0  0  0  0  0  0  0  0  0  0  0
    5.5740   -2.8118   -1.6762 O   0  0  0  0  0  0  0  0  0  0  0  0
    5.6761   -0.9175   -0.4237 N   0  0  0  0  0  0  0  0  0  0  0  0
    7.1386   -0.8231   -0.6138 C   0  0  0  0  0  0  0  0  0  0  0  0
    7.5766   -0.5238    0.8042 C   0  0  0  0  0  0  0  0  0  0  0  0
    6.6313    0.6362    1.1080 C   0  0  0  0  0  0  0  0  0  0  0  0
    5.3324    0.1622    0.4363 C   0  0  0  0  0  0  0  0  0  0  0  0
   -0.0364   -1.4101   -0.0806 C   0  0  0  0  0  0  0  0  0  0  0  0
   -1.2155   -2.0372   -0.3246 C   0  0  0  0  0  0  0  0  0  0  0  0
   -3.4194    0.7093   -1.1143 C   0  0  0  0  0  0  0  0  0  0  0  0
   -3.9480    1.8197   -1.7052 C   0  0  0  0  0  0  0  0  0  0  0  0
   -4.3712    2.8761   -0.9546 C   0  0  0  0  0  0  0  0  0  0  0  0
   -4.9288    4.0647   -1.2691 N   0  0  0  0  0  0  0  0  0  0  0  0
   -5.1776    4.7616   -0.1521 C   0  0  0  0  0  0  0  0  0  0  0  0
   -4.7701    4.0054    0.9235 C   0  0  0  0  0  0  0  0  0  0  0  0
   -4.2684    2.8330    0.4243 C   0  0  0  0  0  0  0  0  0  0  0  0
   -3.6314    0.7489    2.9795 H   0  0  0  0  0  0  0  0  0  0  0  0
   -2.7561    2.3487    2.8348 H   0  0  0  0  0  0  0  0  0  0  0  0
   -4.5968    2.2394    2.9424 H   0  0  0  0  0  0  0  0  0  0  0  0
   -2.6609   -0.5414    1.8950 H   0  0  0  0  0  0  0  0  0  0  0  0
   -4.2838   -4.2542   -1.3076 H   0  0  0  0  0  0  0  0  0  0  0  0
    2.7064   -0.5910    0.1084 H   0  0  0  0  0  0  0  0  0  0  0  0
    3.1086   -3.0684   -1.5006 H   0  0  0  0  0  0  0  0  0  0  0  0
    7.5845   -1.7375   -0.9932 H   0  0  0  0  0  0  0  0  0  0  0  0
    7.3633    0.0847   -1.2025 H   0  0  0  0  0  0  0  0  0  0  0  0
    7.3447   -1.3541    1.4757 H   0  0  0  0  0  0  0  0  0  0  0  0
    8.5955   -0.1426    0.8600 H   0  0  0  0  0  0  0  0  0  0  0  0
    7.0109    1.5312    0.6059 H   0  0  0  0  0  0  0  0  0  0  0  0
    6.4195    0.7739    2.1694 H   0  0  0  0  0  0  0  0  0  0  0  0
    4.6256   -0.1825    1.2155 H   0  0  0  0  0  0  0  0  0  0  0  0
    4.9441    1.0436   -0.1427 H   0  0  0  0  0  0  0  0  0  0  0  0
   -0.0242   -0.4466    0.5057 H   0  0  0  0  0  0  0  0  0  0  0  0
   -3.0738   -0.1343   -1.7012 H   0  0  0  0  0  0  0  0  0  0  0  0
   -4.0270    1.8637   -2.7972 H   0  0  0  0  0  0  0  0  0  0  0  0
   -5.1426    4.4039   -2.2355 H   0  0  0  0  0  0  0  0  0  0  0  0
   -5.6184    5.7466   -0.0360 H   0  0  0  0  0  0  0  0  0  0  0  0
   -4.8613    4.3306    1.9683 H   0  0  0  0  0  0  0  0  0  0  0  0
  1  2  1  0
  2  3  2  0
  3  4  1  0
  4  5  1  0
  5  6  2  0
  6  7  1  0
  7  8  3  0
  6  9  1  0
  9 10  2  0
 10 11  1  0
 11 12  1  0
 12 13  1  0
 13 14  1  0
 14 15  2  0
 15 16  1  0
 16 17  2  0
 16 18  1  0
 18 19  1  0
 19 20  1  0
 20 21  1  0
 21 22  1  0
 13 23  2  0
 23 24  1  0
  3 25  1  0
 25 26  2  0
 26 27  1  0
 27 28  1  0
 28 29  1  0
 29 30  2  0
 30 31  1  0
 31  2  1  0
 24  5  1  0
 31 27  2  0
 24 11  2  0
 22 18  1  0
  1 32  1  0
  1 33  1  0
  1 34  1  0
  4 35  1  0
  9 36  1  0
 14 37  1  0
 15 38  1  0
 19 39  1  0
 19 40  1  0
 20 41  1  0
 20 42  1  0
 21 43  1  0
 21 44  1  0
 22 45  1  0
 22 46  1  0
 23 47  1  0
 25 48  1  0
 26 49  1  0
 28 50  1  0
 29 51  1  0
 30 52  1  0
M  END
$$$$
