
     RDKit          3D

 26 26  0  0  0  0  0  0  0  0999 V2000
   -3.2856    1.2729    1.1881 C   0  0  0  0  0  0  0  0  0  0  0  0
   -2.3518    0.3976    0.4298 C   0  0  0  0  0  0  0  0  0  0  0  0
   -2.8511   -0.7819   -0.0394 C   0  0  0  0  0  0  0  0  0  0  0  0
   -2.0809   -1.6792   -0.7579 C   0  0  0  0  0  0  0  0  0  0  0  0
   -0.7584   -1.3680   -1.0085 C   0  0  0  0  0  0  0  0  0  0  0  0
   -0.2294   -0.1628   -0.5351 C   0  0  0  0  0  0  0  0  0  0  0  0
    1.1759    0.1492   -0.8113 C   0  0  0  0  0  0  0  0  0  0  0  0
    2.1559   -0.3220    0.2141 C   0  0  2  0  0  0  0  0  0  0  0  0
    1.9738    0.1935    1.5133 N   0  0  0  0  0  0  0  0  0  0  0  0
    3.5126    0.0507   -0.2724 C   0  0  0  0  0  0  0  0  0  0  0  0
    4.0424   -0.2861   -1.5153 O   0  0  0  0  0  0  0  0  0  0  0  0
    4.3887    0.7200    0.3494 O   0  0  0  0  0  0  0  0  0  0  0  0
   -1.0419    0.7134    0.1855 C   0  0  0  0  0  0  0  0  0  0  0  0
   -3.8917    1.8341    0.4481 H   0  0  0  0  0  0  0  0  0  0  0  0
   -3.8956    0.6927    1.9111 H   0  0  0  0  0  0  0  0  0  0  0  0
   -2.6418    2.0480    1.6883 H   0  0  0  0  0  0  0  0  0  0  0  0
   -3.8810   -1.0692    0.1319 H   0  0  0  0  0  0  0  0  0  0  0  0
   -2.4836   -2.6133   -1.1272 H   0  0  0  0  0  0  0  0  0  0  0  0
   -0.1580   -2.0676   -1.5688 H   0  0  0  0  0  0  0  0  0  0  0  0
    1.4513   -0.2359   -1.8091 H   0  0  0  0  0  0  0  0  0  0  0  0
    1.2508    1.2568   -0.8942 H   0  0  0  0  0  0  0  0  0  0  0  0
    2.1256   -1.4390    0.2780 H   0  0  0  0  0  0  0  0  0  0  0  0
    1.5062    1.0897    1.6350 H   0  0  0  0  0  0  0  0  0  0  0  0
    2.0558   -0.4373    2.3121 H   0  0  0  0  0  0  0  0  0  0  0  0
    4.5606    0.3753   -2.1075 H   0  0  0  0  0  0  0  0  0  0  0  0
   -0.6483    1.6683    0.5687 H   0  0  0  0  0  0  0  0  0  0  0  0
  1  2  1  0
  2  3  2  0
  3  4  1  0
  4  5  2  0
  5  6  1  0
  6  7  1  0
  7  8  1  0
  8  9  1  0
  8 10  1  0
 10 11  1  0
 10 12  2  0
  6 13  2  0
 13  2  1  0
  1 14  1  0
  1 15  1  0
  1 16  1  0
  3 17  1  0
  4 18  1  0
  5 19  1  0
  7 20  1  0
  7 21  1  0
  8 22  1  1
  9 23  1  0
  9 24  1  0
 11 25  1  0
 13 26  1  0
M  END
$$$$
