
     RDKit          3D

 55 58  0  0  0  0  0  0  0  0999 V2000
   -6.2561    3.1413    0.8407 C   0  0  0  0  0  0  0  0  0  0  0  0
   -5.8197    2.2867   -0.1993 O   0  0  0  0  0  0  0  0  0  0  0  0
   -4.6871    1.5179    0.0329 C   0  0  0  0  0  0  0  0  0  0  0  0
   -3.9793    1.5452    1.2071 C   0  0  0  0  0  0  0  0  0  0  0  0
   -2.8525    0.7878    1.4522 C   0  0  0  0  0  0  0  0  0  0  0  0
   -2.1863    0.8349    2.6173 N   0  0  0  0  0  0  0  0  0  0  0  0
   -1.0912    0.0897    2.8534 C   0  0  0  0  0  0  0  0  0  0  0  0
   -0.6599   -0.7231    1.8844 N   0  0  0  0  0  0  0  0  0  0  0  0
   -1.2752   -0.8346    0.6682 C   0  0  0  0  0  0  0  0  0  0  0  0
   -0.7217   -1.7097   -0.2964 N   0  0  0  0  0  0  0  0  0  0  0  0
   -0.1135   -1.1962   -1.5016 C   0  0  0  0  0  0  0  0  0  0  0  0
    1.2658   -1.8745   -1.6462 C   0  0  0  0  0  0  0  0  0  0  0  0
    1.5623   -2.4614   -0.3765 N   0  0  0  0  0  0  0  0  0  0  0  0
    2.4722   -2.0772    0.6070 C   0  0  0  0  0  0  0  0  0  0  0  0
    2.5403   -3.0438    1.9949 S   0  0  0  0  0  0  0  0  0  0  0  0
    3.3386   -1.0084    0.6137 N   0  0  0  0  0  0  0  0  0  0  0  0
    3.5379   -0.0236   -0.3734 C   0  0  0  0  0  0  0  0  0  0  0  0
    4.5223    1.0261    0.1528 C   0  0  0  0  0  0  0  0  0  0  0  0
    5.8711    0.8810   -0.0500 C   0  0  0  0  0  0  0  0  0  0  0  0
    6.7445    1.8470    0.4378 C   0  0  0  0  0  0  0  0  0  0  0  0
    6.2603    2.9416    1.1194 C   0  0  0  0  0  0  0  0  0  0  0  0
    4.9075    3.0994    1.3298 C   0  0  0  0  0  0  0  0  0  0  0  0
    4.0664    2.1229    0.8332 C   0  0  0  0  0  0  0  0  0  0  0  0
    0.7082   -3.6790   -0.1058 C   0  0  0  0  0  0  0  0  0  0  0  0
   -0.7260   -3.1352   -0.1057 C   0  0  0  0  0  0  0  0  0  0  0  0
   -2.3956   -0.0647    0.4448 C   0  0  0  0  0  0  0  0  0  0  0  0
   -3.0796   -0.1203   -0.7474 C   0  0  0  0  0  0  0  0  0  0  0  0
   -4.2003    0.6524   -0.9520 C   0  0  0  0  0  0  0  0  0  0  0  0
   -4.8935    0.5972   -2.1589 O   0  0  0  0  0  0  0  0  0  0  0  0
   -4.4306   -0.2653   -3.1782 C   0  0  0  0  0  0  0  0  0  0  0  0
   -7.1254    3.7499    0.5494 H   0  0  0  0  0  0  0  0  0  0  0  0
   -6.4533    2.5253    1.7507 H   0  0  0  0  0  0  0  0  0  0  0  0
   -5.3844    3.7916    1.1134 H   0  0  0  0  0  0  0  0  0  0  0  0
   -4.3429    2.2136    1.9873 H   0  0  0  0  0  0  0  0  0  0  0  0
   -0.5649    0.1495    3.8217 H   0  0  0  0  0  0  0  0  0  0  0  0
   -0.6871   -1.4184   -2.4042 H   0  0  0  0  0  0  0  0  0  0  0  0
    0.0579   -0.1070   -1.4404 H   0  0  0  0  0  0  0  0  0  0  0  0
    1.9785   -1.1375   -1.9761 H   0  0  0  0  0  0  0  0  0  0  0  0
    1.1346   -2.6839   -2.4355 H   0  0  0  0  0  0  0  0  0  0  0  0
    3.9593   -0.8978    1.4928 H   0  0  0  0  0  0  0  0  0  0  0  0
    2.6549    0.5816   -0.6404 H   0  0  0  0  0  0  0  0  0  0  0  0
    3.9824   -0.4062   -1.3392 H   0  0  0  0  0  0  0  0  0  0  0  0
    6.2324    0.0112   -0.5896 H   0  0  0  0  0  0  0  0  0  0  0  0
    7.8055    1.7431    0.2842 H   0  0  0  0  0  0  0  0  0  0  0  0
    6.9521    3.6970    1.5002 H   0  0  0  0  0  0  0  0  0  0  0  0
    4.5725    3.9714    1.8686 H   0  0  0  0  0  0  0  0  0  0  0  0
    3.0047    2.2270    0.9870 H   0  0  0  0  0  0  0  0  0  0  0  0
    0.8456   -4.3206   -0.9935 H   0  0  0  0  0  0  0  0  0  0  0  0
    0.9962   -4.1353    0.8424 H   0  0  0  0  0  0  0  0  0  0  0  0
   -1.1464   -3.4226    0.8987 H   0  0  0  0  0  0  0  0  0  0  0  0
   -1.3091   -3.6636   -0.8939 H   0  0  0  0  0  0  0  0  0  0  0  0
   -2.7260   -0.7838   -1.5116 H   0  0  0  0  0  0  0  0  0  0  0  0
   -3.3432   -0.0201   -3.3160 H   0  0  0  0  0  0  0  0  0  0  0  0
   -5.0173   -0.0468   -4.0941 H   0  0  0  0  0  0  0  0  0  0  0  0
   -4.5059   -1.3284   -2.8601 H   0  0  0  0  0  0  0  0  0  0  0  0
  1  2  1  0
  2  3  1  0
  3  4  2  0
  4  5  1  0
  5  6  2  0
  6  7  1  0
  7  8  2  0
  8  9  1  0
  9 10  1  0
 10 11  1  0
 11 12  1  0
 12 13  1  0
 13 14  1  0
 14 15  2  0
 14 16  1  0
 16 17  1  0
 17 18  1  0
 18 19  2  0
 19 20  1  0
 20 21  2  0
 21 22  1  0
 22 23  2  0
 13 24  1  0
 24 25  1  0
  9 26  2  0
 26 27  1  0
 27 28  2  0
 28 29  1  0
 29 30  1  0
 28  3  1  0
 26  5  1  0
 25 10  1  0
 23 18  1  0
  1 31  1  0
  1 32  1  0
  1 33  1  0
  4 34  1  0
  7 35  1  0
 11 36  1  0
 11 37  1  0
 12 38  1  0
 12 39  1  0
 16 40  1  0
 17 41  1  0
 17 42  1  0
 19 43  1  0
 20 44  1  0
 21 45  1  0
 22 46  1  0
 23 47  1  0
 24 48  1  0
 24 49  1  0
 25 50  1  0
 25 51  1  0
 27 52  1  0
 30 53  1  0
 30 54  1  0
 30 55  1  0
M  END
$$$$
