
     RDKit          3D

 38 41  0  0  0  0  0  0  0  0999 V2000
   -6.0460   -0.3720   -0.2831 C   0  0  0  0  0  0  0  0  0  0  0  0
   -4.8404   -0.8897    0.3544 N   0  0  0  0  0  0  0  0  0  0  0  0
   -4.7859   -1.8849    1.2560 C   0  0  0  0  0  0  0  0  0  0  0  0
   -3.4814   -2.1043    1.6398 C   0  0  0  0  0  0  0  0  0  0  0  0
   -2.7103   -1.2024    0.9401 C   0  0  0  0  0  0  0  0  0  0  0  0
   -1.3648   -0.9102    0.8702 C   0  0  0  0  0  0  0  0  0  0  0  0
   -0.8611    0.0827    0.0506 C   0  0  0  0  0  0  0  0  0  0  0  0
   -1.7827    0.7908   -0.7173 C   0  0  0  0  0  0  0  0  0  0  0  0
   -3.1361    0.5367   -0.6828 C   0  0  0  0  0  0  0  0  0  0  0  0
   -3.5772   -0.4699    0.1582 C   0  0  0  0  0  0  0  0  0  0  0  0
   -1.0241    1.7925   -1.5096 C   0  0  0  0  0  0  0  0  0  0  0  0
    0.2959    1.8808   -0.8189 C   0  0  0  0  0  0  0  0  0  0  0  0
    0.4423    0.5786   -0.2072 N   0  0  0  0  0  0  0  0  0  0  0  0
    1.6579   -0.1403    0.1097 C   0  0  0  0  0  0  0  0  0  0  0  0
    1.6113   -1.2678    0.6424 O   0  0  0  0  0  0  0  0  0  0  0  0
    2.9243    0.4246   -0.1799 N   0  0  0  0  0  0  0  0  0  0  0  0
    4.1891   -0.1560    0.0708 C   0  0  0  0  0  0  0  0  0  0  0  0
    5.2933    0.6229   -0.3166 C   0  0  0  0  0  0  0  0  0  0  0  0
    6.5916    0.2075   -0.1444 C   0  0  0  0  0  0  0  0  0  0  0  0
    6.7809   -1.0255    0.4336 C   0  0  0  0  0  0  0  0  0  0  0  0
    5.7327   -1.7710    0.8043 N   0  0  0  0  0  0  0  0  0  0  0  0
    4.4415   -1.3635    0.6357 C   0  0  0  0  0  0  0  0  0  0  0  0
   -5.9549    0.6952   -0.5529 H   0  0  0  0  0  0  0  0  0  0  0  0
   -6.2468   -0.9160   -1.2433 H   0  0  0  0  0  0  0  0  0  0  0  0
   -6.8972   -0.4845    0.3942 H   0  0  0  0  0  0  0  0  0  0  0  0
   -5.6507   -2.4433    1.6338 H   0  0  0  0  0  0  0  0  0  0  0  0
   -3.0892   -2.8266    2.3446 H   0  0  0  0  0  0  0  0  0  0  0  0
   -0.6645   -1.4709    1.4741 H   0  0  0  0  0  0  0  0  0  0  0  0
   -3.8451    1.1096   -1.2988 H   0  0  0  0  0  0  0  0  0  0  0  0
   -1.5186    2.7843   -1.4640 H   0  0  0  0  0  0  0  0  0  0  0  0
   -0.8448    1.4654   -2.5529 H   0  0  0  0  0  0  0  0  0  0  0  0
    1.1480    1.9958   -1.5346 H   0  0  0  0  0  0  0  0  0  0  0  0
    0.3303    2.6427   -0.0163 H   0  0  0  0  0  0  0  0  0  0  0  0
    2.8762    1.3897   -0.6343 H   0  0  0  0  0  0  0  0  0  0  0  0
    5.1533    1.5967   -0.7733 H   0  0  0  0  0  0  0  0  0  0  0  0
    7.4494    0.7922   -0.4357 H   0  0  0  0  0  0  0  0  0  0  0  0
    7.7733   -1.4377    0.6099 H   0  0  0  0  0  0  0  0  0  0  0  0
    3.6304   -1.9844    0.9433 H   0  0  0  0  0  0  0  0  0  0  0  0
  1  2  1  0
  2  3  1  0
  3  4  2  0
  4  5  1  0
  5  6  2  0
  6  7  1  0
  7  8  2  0
  8  9  1  0
  9 10  2  0
  8 11  1  0
 11 12  1  0
 12 13  1  0
 13 14  1  0
 14 15  2  0
 14 16  1  0
 16 17  1  0
 17 18  2  0
 18 19  1  0
 19 20  2  0
 20 21  1  0
 21 22  2  0
 10  2  1  0
 22 17  1  0
 10  5  1  0
 13  7  1  0
  1 23  1  0
  1 24  1  0
  1 25  1  0
  3 26  1  0
  4 27  1  0
  6 28  1  0
  9 29  1  0
 11 30  1  0
 11 31  1  0
 12 32  1  0
 12 33  1  0
 16 34  1  0
 18 35  1  0
 19 36  1  0
 20 37  1  0
 22 38  1  0
M  END
$$$$
