
     RDKit          3D

 74 78  0  0  0  0  0  0  0  0999 V2000
   -5.8242    2.6269   -2.0947 C   0  0  0  0  0  0  0  0  0  0  0  0
   -6.5502    1.8539   -1.0543 C   0  0  0  0  0  0  0  0  0  0  0  0
   -7.5840    1.0745   -1.2797 O   0  0  0  0  0  0  0  0  0  0  0  0
   -8.0086    0.5279   -0.1633 C   0  0  0  0  0  0  0  0  0  0  0  0
   -9.1277   -0.3915   -0.0064 C   0  0  0  0  0  0  0  0  0  0  0  0
   -9.4475   -0.8784    1.2425 C   0  0  0  0  0  0  0  0  0  0  0  0
  -10.4989   -1.7474    1.4051 C   0  0  0  0  0  0  0  0  0  0  0  0
  -11.2381   -2.1341    0.3099 C   0  0  0  0  0  0  0  0  0  0  0  0
  -10.9492   -1.6668   -0.9660 C   0  0  0  0  0  0  0  0  0  0  0  0
   -9.8868   -0.7976   -1.0819 C   0  0  0  0  0  0  0  0  0  0  0  0
   -7.2119    0.9767    0.8225 N   0  0  0  0  0  0  0  0  0  0  0  0
   -6.2962    1.8026    0.2965 C   0  0  0  0  0  0  0  0  0  0  0  0
   -5.2369    2.4869    1.0685 C   0  0  0  0  0  0  0  0  0  0  0  0
   -3.9020    1.7829    0.8849 C   0  0  0  0  0  0  0  0  0  0  0  0
   -3.5578    1.7945   -0.4786 O   0  0  0  0  0  0  0  0  0  0  0  0
   -2.3784    1.2004   -0.8819 C   0  0  0  0  0  0  0  0  0  0  0  0
   -1.9959    1.1861   -2.2108 C   0  0  0  0  0  0  0  0  0  0  0  0
   -0.8206    0.5836   -2.5475 C   0  0  0  0  0  0  0  0  0  0  0  0
   -0.0200   -0.0047   -1.5843 C   0  0  0  0  0  0  0  0  0  0  0  0
   -0.3734   -0.0078   -0.2464 C   0  0  0  0  0  0  0  0  0  0  0  0
    0.5171   -0.6508    0.7313 C   0  0  0  0  0  0  0  0  0  0  0  0
    1.5550    0.2978    1.2956 C   0  0  2  0  0  0  0  0  0  0  0  0
    2.4565    0.8896    0.2951 C   0  0  0  0  0  0  0  0  0  0  0  0
    2.3361    1.7639   -0.6273 O   0  0  0  0  0  0  0  0  0  0  0  0
    3.5639    0.1262    0.7172 N   0  0  0  0  0  0  0  0  0  0  0  0
    4.9152   -0.0714    0.2410 C   0  0  0  0  0  0  0  0  0  0  0  0
    5.7718   -0.8859    0.9211 C   0  0  0  0  0  0  0  0  0  0  0  0
    7.0700   -1.0613    0.4316 C   0  0  0  0  0  0  0  0  0  0  0  0
    7.5277   -0.4463   -0.7126 C   0  0  0  0  0  0  0  0  0  0  0  0
    8.9166   -0.6663   -1.1926 C   0  0  0  0  0  0  0  0  0  0  0  0
    9.1974    0.1078   -2.4598 C   0  0  0  0  0  0  0  0  0  0  0  0
    9.0764   -2.1493   -1.4898 C   0  0  0  0  0  0  0  0  0  0  0  0
    9.8587   -0.2951   -0.0808 C   0  0  0  0  0  0  0  0  0  0  0  0
    6.6353    0.3723   -1.3778 C   0  0  0  0  0  0  0  0  0  0  0  0
    5.3499    0.5559   -0.9075 C   0  0  0  0  0  0  0  0  0  0  0  0
    2.8013   -0.3759    1.8078 C   0  0  2  0  0  0  0  0  0  0  0  0
    2.6880   -1.8534    1.9300 C   0  0  0  0  0  0  0  0  0  0  0  0
    2.0500   -2.3169    2.9116 O   0  0  0  0  0  0  0  0  0  0  0  0
    3.2305   -2.7533    1.0461 O   0  0  0  0  0  0  0  0  0  0  0  0
   -1.5630    0.6072    0.0601 C   0  0  0  0  0  0  0  0  0  0  0  0
   -5.3080    3.5207   -1.6867 H   0  0  0  0  0  0  0  0  0  0  0  0
   -5.1537    2.0028   -2.6956 H   0  0  0  0  0  0  0  0  0  0  0  0
   -6.6071    2.9968   -2.8199 H   0  0  0  0  0  0  0  0  0  0  0  0
   -8.8836   -0.5881    2.1031 H   0  0  0  0  0  0  0  0  0  0  0  0
  -10.7428   -2.1231    2.3820 H   0  0  0  0  0  0  0  0  0  0  0  0
  -12.0685   -2.8130    0.3954 H   0  0  0  0  0  0  0  0  0  0  0  0
  -11.5415   -1.9817   -1.8155 H   0  0  0  0  0  0  0  0  0  0  0  0
   -9.6095   -0.3963   -2.0518 H   0  0  0  0  0  0  0  0  0  0  0  0
   -5.1477    3.5432    0.7176 H   0  0  0  0  0  0  0  0  0  0  0  0
   -5.4659    2.4422    2.1530 H   0  0  0  0  0  0  0  0  0  0  0  0
   -3.9150    0.7665    1.3110 H   0  0  0  0  0  0  0  0  0  0  0  0
   -3.1646    2.3882    1.4876 H   0  0  0  0  0  0  0  0  0  0  0  0
   -2.6614    1.6640   -2.9377 H   0  0  0  0  0  0  0  0  0  0  0  0
   -0.5116    0.5688   -3.5993 H   0  0  0  0  0  0  0  0  0  0  0  0
    0.8964   -0.4632   -1.9225 H   0  0  0  0  0  0  0  0  0  0  0  0
    1.0563   -1.5136    0.3094 H   0  0  0  0  0  0  0  0  0  0  0  0
   -0.0908   -1.0061    1.5674 H   0  0  0  0  0  0  0  0  0  0  0  0
    1.1247    0.9650    2.0471 H   0  0  0  0  0  0  0  0  0  0  0  0
    5.4642   -1.4020    1.8437 H   0  0  0  0  0  0  0  0  0  0  0  0
    7.7327   -1.7217    1.0011 H   0  0  0  0  0  0  0  0  0  0  0  0
   10.1739   -0.2476   -2.8683 H   0  0  0  0  0  0  0  0  0  0  0  0
    9.3283    1.1914   -2.2720 H   0  0  0  0  0  0  0  0  0  0  0  0
    8.4514   -0.0728   -3.2310 H   0  0  0  0  0  0  0  0  0  0  0  0
    9.0773   -2.6943   -0.5261 H   0  0  0  0  0  0  0  0  0  0  0  0
    8.2601   -2.4997   -2.1678 H   0  0  0  0  0  0  0  0  0  0  0  0
   10.0803   -2.3189   -1.9438 H   0  0  0  0  0  0  0  0  0  0  0  0
    9.4833    0.6278    0.4069 H   0  0  0  0  0  0  0  0  0  0  0  0
    9.7480   -1.1003    0.7022 H   0  0  0  0  0  0  0  0  0  0  0  0
   10.9127   -0.2005   -0.4137 H   0  0  0  0  0  0  0  0  0  0  0  0
    6.9255    0.8874   -2.2824 H   0  0  0  0  0  0  0  0  0  0  0  0
    4.6211    1.1923   -1.4046 H   0  0  0  0  0  0  0  0  0  0  0  0
    3.1640    0.0613    2.7665 H   0  0  0  0  0  0  0  0  0  0  0  0
    3.1850   -3.7545    1.2326 H   0  0  0  0  0  0  0  0  0  0  0  0
   -1.8589    0.6155    1.1072 H   0  0  0  0  0  0  0  0  0  0  0  0
  1  2  1  0
  2  3  1  0
  3  4  1  0
  4  5  1  0
  5  6  2  0
  6  7  1  0
  7  8  2  0
  8  9  1  0
  9 10  2  0
  4 11  2  0
 11 12  1  0
 12 13  1  0
 13 14  1  0
 14 15  1  0
 15 16  1  0
 16 17  2  0
 17 18  1  0
 18 19  2  0
 19 20  1  0
 20 21  1  0
 21 22  1  0
 22 23  1  0
 23 24  2  0
 23 25  1  0
 25 26  1  0
 26 27  2  0
 27 28  1  0
 28 29  2  0
 29 30  1  0
 30 31  1  0
 30 32  1  0
 30 33  1  0
 29 34  1  0
 34 35  2  0
 25 36  1  0
 36 37  1  0
 37 38  2  0
 37 39  1  0
 20 40  2  0
 12  2  2  0
 40 16  1  0
 10  5  1  0
 36 22  1  0
 35 26  1  0
  1 41  1  0
  1 42  1  0
  1 43  1  0
  6 44  1  0
  7 45  1  0
  8 46  1  0
  9 47  1  0
 10 48  1  0
 13 49  1  0
 13 50  1  0
 14 51  1  0
 14 52  1  0
 17 53  1  0
 18 54  1  0
 19 55  1  0
 21 56  1  0
 21 57  1  0
 22 58  1  1
 27 59  1  0
 28 60  1  0
 31 61  1  0
 31 62  1  0
 31 63  1  0
 32 64  1  0
 32 65  1  0
 32 66  1  0
 33 67  1  0
 33 68  1  0
 33 69  1  0
 34 70  1  0
 35 71  1  0
 36 72  1  1
 39 73  1  0
 40 74  1  0
M  END
$$$$
