
     RDKit          3D

 55 58  0  0  0  0  0  0  0  0999 V2000
   -5.5183    2.1233   -1.0682 C   0  0  0  0  0  0  0  0  0  0  0  0
   -5.2947    1.1293    0.0531 C   0  0  0  0  0  0  0  0  0  0  0  0
   -6.2790   -0.0028   -0.1546 C   0  0  0  0  0  0  0  0  0  0  0  0
   -5.6873    1.8073    1.3662 C   0  0  0  0  0  0  0  0  0  0  0  0
   -3.9007    0.6720    0.1271 C   0  0  0  0  0  0  0  0  0  0  0  0
   -3.5408   -0.2249    1.0849 C   0  0  0  0  0  0  0  0  0  0  0  0
   -2.2342   -0.6998    1.2101 C   0  0  0  0  0  0  0  0  0  0  0  0
   -1.2611   -0.2527    0.3380 C   0  0  0  0  0  0  0  0  0  0  0  0
    0.0656   -0.7411    0.4726 N   0  0  0  0  0  0  0  0  0  0  0  0
    1.1300   -0.0897    0.9961 C   0  0  0  0  0  0  0  0  0  0  0  0
    1.0583    1.2529    1.5430 C   0  0  0  0  0  0  0  0  0  0  0  0
    2.0307    1.8434    2.0526 O   0  0  0  0  0  0  0  0  0  0  0  0
   -0.1461    1.9788    1.5263 O   0  0  0  0  0  0  0  0  0  0  0  0
    2.2389   -0.8966    0.9473 C   0  0  0  0  0  0  0  0  0  0  0  0
    3.5256   -0.6312    1.3633 O   0  0  0  0  0  0  0  0  0  0  0  0
    4.5905   -0.2750    0.5432 C   0  0  0  0  0  0  0  0  0  0  0  0
    5.5506   -1.2383    0.2064 C   0  0  0  0  0  0  0  0  0  0  0  0
    6.6075   -0.9130   -0.6021 C   0  0  0  0  0  0  0  0  0  0  0  0
    6.7392    0.3722   -1.0954 C   0  0  0  0  0  0  0  0  0  0  0  0
    5.8026    1.3198   -0.7688 C   0  0  0  0  0  0  0  0  0  0  0  0
    5.8783    2.7292   -1.2636 C   0  0  0  0  0  0  0  0  0  0  0  0
    5.8321    3.5478   -0.1531 F   0  0  0  0  0  0  0  0  0  0  0  0
    4.7436    2.9793   -2.0008 F   0  0  0  0  0  0  0  0  0  0  0  0
    7.0254    2.8618   -1.9893 F   0  0  0  0  0  0  0  0  0  0  0  0
    4.7136    1.0023    0.0582 C   0  0  0  0  0  0  0  0  0  0  0  0
    1.7815   -2.0828    0.3632 C   0  0  0  0  0  0  0  0  0  0  0  0
    2.3872   -3.2801    0.0401 C   0  0  0  0  0  0  0  0  0  0  0  0
    1.6909   -4.3208   -0.5438 C   0  0  0  0  0  0  0  0  0  0  0  0
    2.5055   -5.8166   -0.9334 Cl  0  0  0  0  0  0  0  0  0  0  0  0
    0.3493   -4.1899   -0.8242 C   0  0  0  0  0  0  0  0  0  0  0  0
   -0.2880   -3.0152   -0.5174 C   0  0  0  0  0  0  0  0  0  0  0  0
    0.4307   -1.9836    0.0684 C   0  0  0  0  0  0  0  0  0  0  0  0
   -1.6226    0.6561   -0.6337 C   0  0  0  0  0  0  0  0  0  0  0  0
   -2.9164    1.1182   -0.7477 C   0  0  0  0  0  0  0  0  0  0  0  0
   -6.5856    2.4360   -0.9994 H   0  0  0  0  0  0  0  0  0  0  0  0
   -5.3133    1.6083   -2.0133 H   0  0  0  0  0  0  0  0  0  0  0  0
   -4.8777    3.0180   -0.9456 H   0  0  0  0  0  0  0  0  0  0  0  0
   -6.3539   -0.2656   -1.2301 H   0  0  0  0  0  0  0  0  0  0  0  0
   -7.2780    0.4020    0.1720 H   0  0  0  0  0  0  0  0  0  0  0  0
   -6.0322   -0.8546    0.4904 H   0  0  0  0  0  0  0  0  0  0  0  0
   -6.6717    2.2506    1.2182 H   0  0  0  0  0  0  0  0  0  0  0  0
   -5.7982    0.9960    2.1230 H   0  0  0  0  0  0  0  0  0  0  0  0
   -4.9028    2.5209    1.6809 H   0  0  0  0  0  0  0  0  0  0  0  0
   -4.2823   -0.5875    1.7758 H   0  0  0  0  0  0  0  0  0  0  0  0
   -2.0069   -1.4224    2.0032 H   0  0  0  0  0  0  0  0  0  0  0  0
   -0.1061    3.0027    1.5022 H   0  0  0  0  0  0  0  0  0  0  0  0
    5.4576   -2.2479    0.6005 H   0  0  0  0  0  0  0  0  0  0  0  0
    7.3744   -1.6511   -0.8815 H   0  0  0  0  0  0  0  0  0  0  0  0
    7.5546    0.6832   -1.7380 H   0  0  0  0  0  0  0  0  0  0  0  0
    3.9901    1.7766    0.2930 H   0  0  0  0  0  0  0  0  0  0  0  0
    3.4394   -3.3557    0.2749 H   0  0  0  0  0  0  0  0  0  0  0  0
   -0.2001   -5.0288   -1.2921 H   0  0  0  0  0  0  0  0  0  0  0  0
   -1.3254   -2.8662   -0.7153 H   0  0  0  0  0  0  0  0  0  0  0  0
   -0.8486    1.0086   -1.3234 H   0  0  0  0  0  0  0  0  0  0  0  0
   -3.2218    1.8372   -1.5098 H   0  0  0  0  0  0  0  0  0  0  0  0
  1  2  1  0
  2  3  1  0
  2  4  1  0
  2  5  1  0
  5  6  2  0
  6  7  1  0
  7  8  2  0
  8  9  1  0
  9 10  1  0
 10 11  1  0
 11 12  2  0
 11 13  1  0
 10 14  2  0
 14 15  1  0
 15 16  1  0
 16 17  2  0
 17 18  1  0
 18 19  2  0
 19 20  1  0
 20 21  1  0
 21 22  1  0
 21 23  1  0
 21 24  1  0
 20 25  2  0
 14 26  1  0
 26 27  2  0
 27 28  1  0
 28 29  1  0
 28 30  2  0
 30 31  1  0
 31 32  2  0
  8 33  1  0
 33 34  2  0
 34  5  1  0
 32  9  1  0
 25 16  1  0
 32 26  1  0
  1 35  1  0
  1 36  1  0
  1 37  1  0
  3 38  1  0
  3 39  1  0
  3 40  1  0
  4 41  1  0
  4 42  1  0
  4 43  1  0
  6 44  1  0
  7 45  1  0
 13 46  1  0
 17 47  1  0
 18 48  1  0
 19 49  1  0
 25 50  1  0
 27 51  1  0
 30 52  1  0
 31 53  1  0
 33 54  1  0
 34 55  1  0
M  END
$$$$
