
     RDKit          3D

 57 60  0  0  0  0  0  0  0  0999 V2000
   -1.0213   -3.0882   -4.4263 C   0  0  0  0  0  0  0  0  0  0  0  0
   -0.7193   -2.6055   -3.0354 C   0  0  0  0  0  0  0  0  0  0  0  0
    0.4066   -1.9500   -2.5966 C   0  0  0  0  0  0  0  0  0  0  0  0
    0.2271   -1.7056   -1.2293 C   0  0  0  0  0  0  0  0  0  0  0  0
    1.2623   -1.0079   -0.4590 C   0  0  0  0  0  0  0  0  0  0  0  0
    2.5700   -0.9654   -1.0071 C   0  0  0  0  0  0  0  0  0  0  0  0
    3.5489   -0.3795   -0.3193 N   0  0  0  0  0  0  0  0  0  0  0  0
    3.3283    0.1703    0.8782 C   0  0  0  0  0  0  0  0  0  0  0  0
    4.3566    0.7869    1.6186 N   0  0  0  0  0  0  0  0  0  0  0  0
    5.6807    0.9438    1.2241 C   0  0  0  0  0  0  0  0  0  0  0  0
    6.1587    0.7304   -0.0390 C   0  0  0  0  0  0  0  0  0  0  0  0
    7.5099    0.8901   -0.3630 C   0  0  0  0  0  0  0  0  0  0  0  0
    8.0607    0.6004   -1.9981 Cl  0  0  0  0  0  0  0  0  0  0  0  0
    8.4210    1.2741    0.5918 C   0  0  0  0  0  0  0  0  0  0  0  0
    7.9767    1.4964    1.8657 C   0  0  0  0  0  0  0  0  0  0  0  0
    9.1509    1.9857    3.0720 Cl  0  0  0  0  0  0  0  0  0  0  0  0
    6.6592    1.3353    2.1597 C   0  0  0  0  0  0  0  0  0  0  0  0
    2.0854    0.1186    1.3715 N   0  0  0  0  0  0  0  0  0  0  0  0
    0.9923   -0.4636    0.7396 C   0  0  0  0  0  0  0  0  0  0  0  0
   -0.2314   -0.2843    1.3498 N   0  0  0  0  0  0  0  0  0  0  0  0
   -1.6049   -0.3801    1.0928 C   0  0  0  0  0  0  0  0  0  0  0  0
   -1.9787    0.5812   -0.0305 C   0  0  0  0  0  0  0  0  0  0  0  0
   -3.0131    1.5906    0.3500 C   0  0  0  0  0  0  0  0  0  0  0  0
   -4.2377    0.9725    0.9788 C   0  0  0  0  0  0  0  0  0  0  0  0
   -5.1306    0.4652   -0.0366 N   0  0  0  0  0  0  0  0  0  0  0  0
   -6.3045   -0.1438    0.5047 C   0  0  0  0  0  0  0  0  0  0  0  0
   -5.5154    1.5632   -0.9037 C   0  0  0  0  0  0  0  0  0  0  0  0
   -3.8622   -0.0885    1.9900 C   0  0  0  0  0  0  0  0  0  0  0  0
   -2.4141    0.1613    2.3427 C   0  0  0  0  0  0  0  0  0  0  0  0
   -0.9114   -2.1893   -0.9357 O   0  0  0  0  0  0  0  0  0  0  0  0
   -1.4906   -2.7175   -1.9480 N   0  0  0  0  0  0  0  0  0  0  0  0
   -1.5785   -2.2768   -4.9325 H   0  0  0  0  0  0  0  0  0  0  0  0
   -0.1180   -3.3509   -4.9807 H   0  0  0  0  0  0  0  0  0  0  0  0
   -1.7043   -3.9706   -4.3762 H   0  0  0  0  0  0  0  0  0  0  0  0
    1.2546   -1.6818   -3.2219 H   0  0  0  0  0  0  0  0  0  0  0  0
    2.7476   -1.4230   -1.9839 H   0  0  0  0  0  0  0  0  0  0  0  0
    4.0817    1.1725    2.5786 H   0  0  0  0  0  0  0  0  0  0  0  0
    5.5210    0.4368   -0.8567 H   0  0  0  0  0  0  0  0  0  0  0  0
    9.4766    1.4036    0.3581 H   0  0  0  0  0  0  0  0  0  0  0  0
    6.3071    1.5129    3.1757 H   0  0  0  0  0  0  0  0  0  0  0  0
   -0.0799    0.0231    2.4255 H   0  0  0  0  0  0  0  0  0  0  0  0
   -2.0922   -1.3213    0.9368 H   0  0  0  0  0  0  0  0  0  0  0  0
   -1.0716    1.1635   -0.3648 H   0  0  0  0  0  0  0  0  0  0  0  0
   -2.3365    0.0700   -0.9427 H   0  0  0  0  0  0  0  0  0  0  0  0
   -3.3734    2.0448   -0.6187 H   0  0  0  0  0  0  0  0  0  0  0  0
   -2.5640    2.3990    0.9140 H   0  0  0  0  0  0  0  0  0  0  0  0
   -4.7674    1.7731    1.5269 H   0  0  0  0  0  0  0  0  0  0  0  0
   -6.2478   -1.2521    0.5259 H   0  0  0  0  0  0  0  0  0  0  0  0
   -7.1660    0.0982   -0.1608 H   0  0  0  0  0  0  0  0  0  0  0  0
   -6.5433    0.2593    1.5116 H   0  0  0  0  0  0  0  0  0  0  0  0
   -5.4118    2.5401   -0.3700 H   0  0  0  0  0  0  0  0  0  0  0  0
   -4.9450    1.5493   -1.8511 H   0  0  0  0  0  0  0  0  0  0  0  0
   -6.6044    1.4802   -1.1518 H   0  0  0  0  0  0  0  0  0  0  0  0
   -4.4410    0.0474    2.9495 H   0  0  0  0  0  0  0  0  0  0  0  0
   -4.0302   -1.1113    1.6536 H   0  0  0  0  0  0  0  0  0  0  0  0
   -2.0771   -0.4920    3.1525 H   0  0  0  0  0  0  0  0  0  0  0  0
   -2.1963    1.2093    2.5073 H   0  0  0  0  0  0  0  0  0  0  0  0
  1  2  1  0
  2  3  1  0
  3  4  2  0
  4  5  1  0
  5  6  2  0
  6  7  1  0
  7  8  2  0
  8  9  1  0
  9 10  1  0
 10 11  2  0
 11 12  1  0
 12 13  1  0
 12 14  2  0
 14 15  1  0
 15 16  1  0
 15 17  2  0
  8 18  1  0
 18 19  2  0
 19 20  1  0
 20 21  1  0
 21 22  1  0
 22 23  1  0
 23 24  1  0
 24 25  1  0
 25 26  1  0
 25 27  1  0
 24 28  1  0
 28 29  1  0
  4 30  1  0
 30 31  1  0
 31  2  2  0
 19  5  1  0
 29 21  1  0
 17 10  1  0
  1 32  1  0
  1 33  1  0
  1 34  1  0
  3 35  1  0
  6 36  1  0
  9 37  1  0
 11 38  1  0
 14 39  1  0
 17 40  1  0
 20 41  1  0
 21 42  1  0
 22 43  1  0
 22 44  1  0
 23 45  1  0
 23 46  1  0
 24 47  1  0
 26 48  1  0
 26 49  1  0
 26 50  1  0
 27 51  1  0
 27 52  1  0
 27 53  1  0
 28 54  1  0
 28 55  1  0
 29 56  1  0
 29 57  1  0
M  END
$$$$
