
     RDKit          3D

 50 50  0  0  0  0  0  0  0  0999 V2000
   -3.5960   -1.1644    2.3490 C   0  0  0  0  0  0  0  0  0  0  0  0
   -3.9878   -0.6612    0.9737 C   0  0  0  0  0  0  0  0  0  0  0  0
   -3.0240   -0.2968    0.1600 C   0  0  0  0  0  0  0  0  0  0  0  0
   -1.6374   -0.4092    0.6589 C   0  0  0  0  0  0  0  0  0  0  0  0
   -0.5816   -0.0820   -0.0404 C   0  0  0  0  0  0  0  0  0  0  0  0
    0.7763   -0.2269    0.5407 C   0  0  0  0  0  0  0  0  0  0  0  0
    0.8782   -0.7357    1.9101 C   0  0  0  0  0  0  0  0  0  0  0  0
    1.7857    0.1149   -0.2111 C   0  0  0  0  0  0  0  0  0  0  0  0
    3.1588    0.0118    0.2602 C   0  0  0  0  0  0  0  0  0  0  0  0
    4.1427    0.3661   -0.5255 C   0  0  0  0  0  0  0  0  0  0  0  0
    5.5609    0.3007   -0.1462 C   0  0  0  0  0  0  0  0  0  0  0  0
    5.9913   -0.1742    1.1666 C   0  0  0  0  0  0  0  0  0  0  0  0
    6.4757    0.6830   -1.0157 C   0  0  0  0  0  0  0  0  0  0  0  0
    7.8980    0.6754   -0.7872 C   0  0  0  0  0  0  0  0  0  0  0  0
    8.6675    1.0675   -1.7025 O   0  0  0  0  0  0  0  0  0  0  0  0
    8.4349    0.2548    0.3941 O   0  0  0  0  0  0  0  0  0  0  0  0
   -3.2696    0.1998   -1.1856 C   0  0  0  0  0  0  0  0  0  0  0  0
   -2.7399    1.6340   -1.3815 C   0  0  0  0  0  0  0  0  0  0  0  0
   -2.5638   -0.6474   -2.2446 C   0  0  0  0  0  0  0  0  0  0  0  0
   -4.7250    0.1842   -1.5614 C   0  0  0  0  0  0  0  0  0  0  0  0
   -5.6441    0.4113   -0.4038 C   0  0  0  0  0  0  0  0  0  0  0  0
   -5.4246   -0.6213    0.6773 C   0  0  0  0  0  0  0  0  0  0  0  0
   -4.4840   -1.5121    2.9100 H   0  0  0  0  0  0  0  0  0  0  0  0
   -3.1164   -0.3656    2.9267 H   0  0  0  0  0  0  0  0  0  0  0  0
   -2.9422   -2.0698    2.2370 H   0  0  0  0  0  0  0  0  0  0  0  0
   -1.4512   -0.7919    1.6806 H   0  0  0  0  0  0  0  0  0  0  0  0
   -0.6815    0.2957   -1.0382 H   0  0  0  0  0  0  0  0  0  0  0  0
    0.2231   -0.0551    2.5400 H   0  0  0  0  0  0  0  0  0  0  0  0
    1.8565   -0.7108    2.3849 H   0  0  0  0  0  0  0  0  0  0  0  0
    0.3692   -1.7363    2.0320 H   0  0  0  0  0  0  0  0  0  0  0  0
    1.5955    0.4882   -1.2212 H   0  0  0  0  0  0  0  0  0  0  0  0
    3.3499   -0.3514    1.2357 H   0  0  0  0  0  0  0  0  0  0  0  0
    3.8691    0.7279   -1.5159 H   0  0  0  0  0  0  0  0  0  0  0  0
    6.6619   -1.0550    1.0191 H   0  0  0  0  0  0  0  0  0  0  0  0
    5.1914   -0.4729    1.8452 H   0  0  0  0  0  0  0  0  0  0  0  0
    6.5858    0.5974    1.7005 H   0  0  0  0  0  0  0  0  0  0  0  0
    6.0984    1.0299   -1.9820 H   0  0  0  0  0  0  0  0  0  0  0  0
    9.4417    0.1467    0.5788 H   0  0  0  0  0  0  0  0  0  0  0  0
   -2.0856    1.7113   -2.2678 H   0  0  0  0  0  0  0  0  0  0  0  0
   -2.1898    2.0007   -0.5075 H   0  0  0  0  0  0  0  0  0  0  0  0
   -3.6230    2.2923   -1.6182 H   0  0  0  0  0  0  0  0  0  0  0  0
   -1.9897   -1.4934   -1.7974 H   0  0  0  0  0  0  0  0  0  0  0  0
   -1.9932   -0.0532   -2.9617 H   0  0  0  0  0  0  0  0  0  0  0  0
   -3.3671   -1.1510   -2.8550 H   0  0  0  0  0  0  0  0  0  0  0  0
   -4.9579   -0.8265   -1.9711 H   0  0  0  0  0  0  0  0  0  0  0  0
   -4.9172    0.9054   -2.3784 H   0  0  0  0  0  0  0  0  0  0  0  0
   -6.7143    0.3520   -0.6862 H   0  0  0  0  0  0  0  0  0  0  0  0
   -5.4521    1.4133    0.0215 H   0  0  0  0  0  0  0  0  0  0  0  0
   -5.8015   -1.5933    0.2391 H   0  0  0  0  0  0  0  0  0  0  0  0
   -6.0519   -0.4441    1.5643 H   0  0  0  0  0  0  0  0  0  0  0  0
  1  2  1  0
  2  3  2  0
  3  4  1  0
  4  5  2  0
  5  6  1  0
  6  7  1  0
  6  8  2  0
  8  9  1  0
  9 10  2  0
 10 11  1  0
 11 12  1  0
 11 13  2  0
 13 14  1  0
 14 15  2  0
 14 16  1  0
  3 17  1  0
 17 18  1  0
 17 19  1  0
 17 20  1  0
 20 21  1  0
 21 22  1  0
 22  2  1  0
  1 23  1  0
  1 24  1  0
  1 25  1  0
  4 26  1  0
  5 27  1  0
  7 28  1  0
  7 29  1  0
  7 30  1  0
  8 31  1  0
  9 32  1  0
 10 33  1  0
 12 34  1  0
 12 35  1  0
 12 36  1  0
 13 37  1  0
 16 38  1  0
 18 39  1  0
 18 40  1  0
 18 41  1  0
 19 42  1  0
 19 43  1  0
 19 44  1  0
 20 45  1  0
 20 46  1  0
 21 47  1  0
 21 48  1  0
 22 49  1  0
 22 50  1  0
M  END
$$$$
