
     RDKit          3D

 83 88  0  0  0  0  0  0  0  0999 V2000
   10.6158    1.3414   -0.2549 C   0  0  0  0  0  0  0  0  0  0  0  0
   10.1759    2.3300    0.5668 O   0  0  0  0  0  0  0  0  0  0  0  0
    8.9152    2.3343    1.0881 C   0  0  0  0  0  0  0  0  0  0  0  0
    8.5860    1.0711    1.9046 C   0  0  0  0  0  0  0  0  0  0  0  0
    8.6735   -0.0131    1.1154 O   0  0  0  0  0  0  0  0  0  0  0  0
    7.6845   -0.2041    0.2124 C   0  0  0  0  0  0  0  0  0  0  0  0
    6.4224   -0.7954    0.7635 C   0  0  0  0  0  0  0  0  0  0  0  0
    5.7895   -0.0832    1.7383 O   0  0  0  0  0  0  0  0  0  0  0  0
    4.6361   -0.8582    2.1095 C   0  0  0  0  0  0  0  0  0  0  0  0
    3.9057   -1.1075    0.8982 C   0  0  0  0  0  0  0  0  0  0  0  0
    3.2211   -1.3326   -0.2043 C   0  0  0  0  0  0  0  0  0  0  0  0
    2.5206   -1.5780   -1.3752 C   0  0  0  0  0  0  0  0  0  0  0  0
    2.9842   -1.9180   -2.6624 C   0  0  0  0  0  0  0  0  0  0  0  0
    2.0935   -1.7596   -3.6843 C   0  0  0  0  0  0  0  0  0  0  0  0
    0.8078   -1.3142   -3.6088 C   0  0  0  0  0  0  0  0  0  0  0  0
    0.2581   -0.9549   -2.2976 C   0  0  0  0  0  0  0  0  0  0  0  0
   -1.0373   -0.6820   -2.0855 N   0  0  0  0  0  0  0  0  0  0  0  0
   -1.5237   -0.6227   -0.8612 C   0  0  0  0  0  0  0  0  0  0  0  0
   -2.6430    0.0344   -0.3386 C   0  0  0  0  0  0  0  0  0  0  0  0
   -3.6361    0.9084   -0.8246 N   0  0  0  0  0  0  0  0  0  0  0  0
   -4.9428    0.5427   -0.6172 N   0  0  0  0  0  0  0  0  0  0  0  0
   -5.7077    1.5883   -0.7351 C   0  0  0  0  0  0  0  0  0  0  0  0
   -7.1108    1.8564   -0.3468 C   0  0  0  0  0  0  0  0  0  0  0  0
   -8.0829    2.0589   -1.3373 C   0  0  0  0  0  0  0  0  0  0  0  0
   -9.3102    2.4929   -0.7005 C   0  0  0  0  0  0  0  0  0  0  0  0
  -10.3241    2.6973   -1.6789 O   0  0  0  0  0  0  0  0  0  0  0  0
   -9.5279    2.6696    0.5786 C   0  0  0  0  0  0  0  0  0  0  0  0
   -8.5225    2.4486    1.5526 C   0  0  0  0  0  0  0  0  0  0  0  0
   -8.7350    2.5713    2.8293 F   0  0  0  0  0  0  0  0  0  0  0  0
   -7.3130    2.0345    0.9449 C   0  0  0  0  0  0  0  0  0  0  0  0
   -4.9392    2.7265   -1.0387 C   0  0  0  0  0  0  0  0  0  0  0  0
   -5.1784    4.0350   -1.2255 C   0  0  0  0  0  0  0  0  0  0  0  0
   -6.5105    4.5975   -1.0653 N   0  0  0  0  0  0  0  0  0  0  0  0
   -4.1529    4.9169   -1.4637 N   0  0  0  0  0  0  0  0  0  0  0  0
   -2.9111    4.3744   -1.4879 C   0  0  0  0  0  0  0  0  0  0  0  0
   -2.6170    3.0994   -1.3066 N   0  0  0  0  0  0  0  0  0  0  0  0
   -3.6488    2.2052   -1.0791 C   0  0  0  0  0  0  0  0  0  0  0  0
   -0.5708   -0.8961    0.1980 N   0  0  0  0  0  0  0  0  0  0  0  0
   -1.2418   -1.3789    1.3952 C   0  0  0  0  0  0  0  0  0  0  0  0
   -1.6578   -2.8880    1.3449 C   0  0  0  0  0  0  0  0  0  0  0  0
   -2.9277   -3.0912    0.8076 C   0  0  0  0  0  0  0  0  0  0  0  0
   -3.4357   -4.4741    0.8276 C   0  0  0  0  0  0  0  0  0  0  0  0
   -2.6307   -5.3545    1.3335 C   0  0  0  0  0  0  0  0  0  0  0  0
   -1.4198   -5.2469    1.8441 C   0  0  0  0  0  0  0  0  0  0  0  0
   -0.8558   -3.8154    1.8436 C   0  0  0  0  0  0  0  0  0  0  0  0
    0.5340   -3.8460    2.2627 C   0  0  0  0  0  0  0  0  0  0  0  0
    1.4694   -3.8869    1.2381 F   0  0  0  0  0  0  0  0  0  0  0  0
    0.8134   -5.0343    2.9124 F   0  0  0  0  0  0  0  0  0  0  0  0
    0.8196   -2.8587    3.2054 F   0  0  0  0  0  0  0  0  0  0  0  0
    0.6994   -1.1167   -0.0422 C   0  0  0  0  0  0  0  0  0  0  0  0
    1.4686   -1.2762    0.9784 O   0  0  0  0  0  0  0  0  0  0  0  0
    1.1670   -1.1427   -1.3677 C   0  0  0  0  0  0  0  0  0  0  0  0
   11.6581    1.6203   -0.5631 H   0  0  0  0  0  0  0  0  0  0  0  0
   10.6970    0.3773    0.3321 H   0  0  0  0  0  0  0  0  0  0  0  0
    9.9586    1.1606   -1.1036 H   0  0  0  0  0  0  0  0  0  0  0  0
    8.7656    3.2692    1.7483 H   0  0  0  0  0  0  0  0  0  0  0  0
    8.1401    2.4303    0.3585 H   0  0  0  0  0  0  0  0  0  0  0  0
    9.3513    0.9991    2.7844 H   0  0  0  0  0  0  0  0  0  0  0  0
    7.5944    1.2596    2.3166 H   0  0  0  0  0  0  0  0  0  0  0  0
    7.4742    0.7687   -0.3873 H   0  0  0  0  0  0  0  0  0  0  0  0
    8.0810   -0.8960   -0.5934 H   0  0  0  0  0  0  0  0  0  0  0  0
    6.6385   -1.8102    1.1836 H   0  0  0  0  0  0  0  0  0  0  0  0
    5.7285   -0.8895   -0.1469 H   0  0  0  0  0  0  0  0  0  0  0  0
    4.8855   -1.7973    2.5898 H   0  0  0  0  0  0  0  0  0  0  0  0
    4.1170   -0.2243    2.8258 H   0  0  0  0  0  0  0  0  0  0  0  0
    3.9736   -2.2562   -2.6777 H   0  0  0  0  0  0  0  0  0  0  0  0
    2.4614   -2.1085   -4.6886 H   0  0  0  0  0  0  0  0  0  0  0  0
    0.1968   -1.2329   -4.4513 H   0  0  0  0  0  0  0  0  0  0  0  0
   -2.0407    0.9250    0.3214 H   0  0  0  0  0  0  0  0  0  0  0  0
   -3.1138   -0.4050    0.6289 H   0  0  0  0  0  0  0  0  0  0  0  0
   -7.9895    1.8890   -2.3600 H   0  0  0  0  0  0  0  0  0  0  0  0
  -10.4149    3.6680   -1.8889 H   0  0  0  0  0  0  0  0  0  0  0  0
  -10.4969    3.0112    1.0457 H   0  0  0  0  0  0  0  0  0  0  0  0
   -6.5087    1.8272    1.6902 H   0  0  0  0  0  0  0  0  0  0  0  0
   -6.9832    4.9886   -1.8827 H   0  0  0  0  0  0  0  0  0  0  0  0
   -7.0104    4.6425   -0.1312 H   0  0  0  0  0  0  0  0  0  0  0  0
   -2.0423    5.0183   -1.5974 H   0  0  0  0  0  0  0  0  0  0  0  0
   -2.0089   -0.8353    1.8600 H   0  0  0  0  0  0  0  0  0  0  0  0
   -0.3460   -1.4075    2.1475 H   0  0  0  0  0  0  0  0  0  0  0  0
   -3.5678   -2.3582    0.4288 H   0  0  0  0  0  0  0  0  0  0  0  0
   -4.4642   -4.5518    0.4144 H   0  0  0  0  0  0  0  0  0  0  0  0
   -3.0369   -6.4756    1.3305 H   0  0  0  0  0  0  0  0  0  0  0  0
   -0.8436   -6.0114    2.1932 H   0  0  0  0  0  0  0  0  0  0  0  0
  1  2  1  0
  2  3  1  0
  3  4  1  0
  4  5  1  0
  5  6  1  0
  6  7  1  0
  7  8  1  0
  8  9  1  0
  9 10  1  0
 10 11  3  0
 11 12  1  0
 12 13  2  0
 13 14  1  0
 14 15  2  0
 15 16  1  0
 16 17  1  0
 17 18  2  0
 18 19  1  0
 19 20  1  0
 20 21  1  0
 21 22  2  0
 22 23  1  0
 23 24  2  0
 24 25  1  0
 25 26  1  0
 25 27  2  0
 27 28  1  0
 28 29  1  0
 28 30  2  0
 22 31  1  0
 31 32  2  0
 32 33  1  0
 32 34  1  0
 34 35  2  0
 35 36  1  0
 36 37  2  0
 18 38  1  0
 38 39  1  0
 39 40  1  0
 40 41  2  0
 41 42  1  0
 42 43  2  0
 43 44  1  0
 44 45  2  0
 45 46  1  0
 46 47  1  0
 46 48  1  0
 46 49  1  0
 38 50  1  0
 50 51  2  0
 50 52  1  0
 52 12  1  0
 52 16  2  0
 37 20  1  0
 45 40  1  0
 30 23  1  0
 37 31  1  0
  1 53  1  0
  1 54  1  0
  1 55  1  0
  3 56  1  0
  3 57  1  0
  4 58  1  0
  4 59  1  0
  6 60  1  0
  6 61  1  0
  7 62  1  0
  7 63  1  0
  9 64  1  0
  9 65  1  0
 13 66  1  0
 14 67  1  0
 15 68  1  0
 19 69  1  0
 19 70  1  0
 24 71  1  0
 26 72  1  0
 27 73  1  0
 30 74  1  0
 33 75  1  0
 33 76  1  0
 35 77  1  0
 39 78  1  0
 39 79  1  0
 41 80  1  0
 42 81  1  0
 43 82  1  0
 44 83  1  0
M  END
$$$$
