
     RDKit          3D

 60 64  0  0  0  0  0  0  0  0999 V2000
   -3.0809    3.3128   -0.1214 C   0  0  0  0  0  0  0  0  0  0  0  0
   -1.9825    2.4000   -0.2793 N   0  0  0  0  0  0  0  0  0  0  0  0
   -0.6691    2.7150   -0.2332 C   0  0  0  0  0  0  0  0  0  0  0  0
   -0.4725    3.9532   -0.0338 O   0  0  0  0  0  0  0  0  0  0  0  0
    0.4230    1.8788   -0.3731 C   0  0  0  0  0  0  0  0  0  0  0  0
    1.7975    2.3590   -0.2795 C   0  0  0  0  0  0  0  0  0  0  0  0
    0.0598    0.5732   -0.5852 C   0  0  0  0  0  0  0  0  0  0  0  0
    1.0572   -0.2932   -0.7321 N   0  0  0  0  0  0  0  0  0  0  0  0
    0.7344   -1.6117   -0.9443 C   0  0  0  0  0  0  0  0  0  0  0  0
    1.5537   -2.5571   -1.1031 O   0  0  0  0  0  0  0  0  0  0  0  0
   -0.5256   -2.0890   -1.0144 N   0  0  0  0  0  0  0  0  0  0  0  0
   -0.9357   -3.4400   -1.2248 C   0  0  0  0  0  0  0  0  0  0  0  0
   -0.1556   -4.6408   -1.0443 C   0  0  0  0  0  0  0  0  0  0  0  0
   -1.0761   -4.2043    0.1032 C   0  0  0  0  0  0  0  0  0  0  0  0
   -1.5180   -1.1823   -0.8624 C   0  0  0  0  0  0  0  0  0  0  0  0
   -2.7546   -1.4664   -0.9029 O   0  0  0  0  0  0  0  0  0  0  0  0
   -1.2655    0.1505   -0.6474 C   0  0  0  0  0  0  0  0  0  0  0  0
   -2.2596    1.0859   -0.4919 C   0  0  0  0  0  0  0  0  0  0  0  0
   -3.6188    0.6945   -0.5746 N   0  0  0  0  0  0  0  0  0  0  0  0
   -4.6763    0.4626    0.3049 C   0  0  0  0  0  0  0  0  0  0  0  0
   -4.5955    0.6084    1.6659 C   0  0  0  0  0  0  0  0  0  0  0  0
   -5.7016    0.3681    2.4592 C   0  0  0  0  0  0  0  0  0  0  0  0
   -6.8984   -0.0251    1.8481 C   0  0  0  0  0  0  0  0  0  0  0  0
   -8.6181   -0.3993    3.0232 I   0  0  0  0  0  0  0  0  0  0  0  0
   -6.9849   -0.1754    0.4651 C   0  0  0  0  0  0  0  0  0  0  0  0
   -5.8638    0.0724   -0.2924 C   0  0  0  0  0  0  0  0  0  0  0  0
   -5.9683   -0.0846   -1.6500 F   0  0  0  0  0  0  0  0  0  0  0  0
    2.4657   -0.1693   -0.7397 C   0  0  0  0  0  0  0  0  0  0  0  0
    3.5240   -0.0561    0.1840 C   0  0  0  0  0  0  0  0  0  0  0  0
    4.8204   -0.0384   -0.2190 C   0  0  0  0  0  0  0  0  0  0  0  0
    5.7263    0.0796    0.8757 N   0  0  0  0  0  0  0  0  0  0  0  0
    6.3790    1.1515    1.5548 C   0  0  0  0  0  0  0  0  0  0  0  0
    7.2586    0.7622    2.6886 C   0  0  0  0  0  0  0  0  0  0  0  0
    6.1145    2.2984    1.0937 O   0  0  0  0  0  0  0  0  0  0  0  0
    5.2092   -0.1244   -1.5247 C   0  0  0  0  0  0  0  0  0  0  0  0
    4.2166   -0.2367   -2.4802 C   0  0  0  0  0  0  0  0  0  0  0  0
    2.8880   -0.2587   -2.0987 C   0  0  0  0  0  0  0  0  0  0  0  0
   -3.9446    2.9495   -0.7544 H   0  0  0  0  0  0  0  0  0  0  0  0
   -3.4264    3.4552    0.9084 H   0  0  0  0  0  0  0  0  0  0  0  0
   -2.8711    4.3295   -0.5208 H   0  0  0  0  0  0  0  0  0  0  0  0
    2.2312    2.2679    0.7489 H   0  0  0  0  0  0  0  0  0  0  0  0
    2.4632    2.2482   -1.1183 H   0  0  0  0  0  0  0  0  0  0  0  0
    1.6635    3.5049   -0.2878 H   0  0  0  0  0  0  0  0  0  0  0  0
   -1.8798   -3.5487   -1.8441 H   0  0  0  0  0  0  0  0  0  0  0  0
   -0.4710   -5.5459   -1.6455 H   0  0  0  0  0  0  0  0  0  0  0  0
    0.8862   -4.7358   -0.7368 H   0  0  0  0  0  0  0  0  0  0  0  0
   -0.5833   -3.7864    1.0109 H   0  0  0  0  0  0  0  0  0  0  0  0
   -1.9564   -4.8206    0.2831 H   0  0  0  0  0  0  0  0  0  0  0  0
   -3.7038    0.5882   -1.6220 H   0  0  0  0  0  0  0  0  0  0  0  0
   -3.6873    0.9054    2.1322 H   0  0  0  0  0  0  0  0  0  0  0  0
   -5.7239    0.4632    3.5513 H   0  0  0  0  0  0  0  0  0  0  0  0
   -7.9191   -0.4855   -0.0172 H   0  0  0  0  0  0  0  0  0  0  0  0
    3.0272    0.0007    1.1464 H   0  0  0  0  0  0  0  0  0  0  0  0
    5.8403   -0.9245    1.1340 H   0  0  0  0  0  0  0  0  0  0  0  0
    8.0013   -0.0080    2.4465 H   0  0  0  0  0  0  0  0  0  0  0  0
    7.7485    1.6996    3.0345 H   0  0  0  0  0  0  0  0  0  0  0  0
    6.6106    0.3161    3.4748 H   0  0  0  0  0  0  0  0  0  0  0  0
    6.2732   -0.0977   -1.7084 H   0  0  0  0  0  0  0  0  0  0  0  0
    4.5672   -0.3003   -3.5042 H   0  0  0  0  0  0  0  0  0  0  0  0
    2.2476   -0.3486   -2.9803 H   0  0  0  0  0  0  0  0  0  0  0  0
  1  2  1  0
  2  3  1  0
  3  4  2  0
  3  5  1  0
  5  6  1  0
  5  7  2  0
  7  8  1  0
  8  9  1  0
  9 10  2  0
  9 11  1  0
 11 12  1  0
 12 13  1  0
 13 14  1  0
 11 15  1  0
 15 16  2  0
 15 17  1  0
 17 18  2  0
 18 19  1  0
 19 20  1  0
 20 21  2  0
 21 22  1  0
 22 23  2  0
 23 24  1  0
 23 25  1  0
 25 26  2  0
 26 27  1  0
  8 28  1  0
 28 29  2  0
 29 30  1  0
 30 31  1  0
 31 32  1  0
 32 33  1  0
 32 34  2  0
 30 35  2  0
 35 36  1  0
 36 37  2  0
 18  2  1  0
 26 20  1  0
 37 28  1  0
 17  7  1  0
 14 12  1  0
  1 38  1  0
  1 39  1  0
  1 40  1  0
  6 41  1  0
  6 42  1  0
  6 43  1  0
 12 44  1  0
 13 45  1  0
 13 46  1  0
 14 47  1  0
 14 48  1  0
 19 49  1  0
 21 50  1  0
 22 51  1  0
 25 52  1  0
 29 53  1  0
 31 54  1  0
 33 55  1  0
 33 56  1  0
 33 57  1  0
 35 58  1  0
 36 59  1  0
 37 60  1  0
M  END
$$$$
