
     RDKit          3D

 32 34  0  0  0  0  0  0  0  0999 V2000
   -3.7524    1.3446    0.8111 O   0  0  0  0  0  0  0  0  0  0  0  0
   -4.2228    0.0337    1.0478 C   0  0  0  0  0  0  0  0  0  0  0  0
   -5.1111   -0.0305    1.8977 O   0  0  0  0  0  0  0  0  0  0  0  0
   -3.4663   -0.9136    0.1552 C   0  0  0  0  0  0  0  0  0  0  0  0
   -3.5051   -0.3627   -1.2452 C   0  0  0  0  0  0  0  0  0  0  0  0
   -2.1895    0.3502   -1.4205 C   0  0  0  0  0  0  0  0  0  0  0  0
   -1.2909   -0.1411   -0.3881 N   0  0  0  0  0  0  0  0  0  0  0  0
   -2.0229   -0.8585    0.5063 C   0  0  0  0  0  0  0  0  0  0  0  0
   -1.2124   -1.3628    1.5317 C   0  0  0  0  0  0  0  0  0  0  0  0
    0.0551   -0.9107    1.2090 C   0  0  0  0  0  0  0  0  0  0  0  0
   -0.0218   -0.1748    0.0429 C   0  0  0  0  0  0  0  0  0  0  0  0
    1.1210    0.4767   -0.5768 C   0  0  0  0  0  0  0  0  0  0  0  0
    0.7871    1.3125   -1.4872 O   0  0  0  0  0  0  0  0  0  0  0  0
    2.5236    0.3230   -0.3228 C   0  0  0  0  0  0  0  0  0  0  0  0
    3.1445   -0.7861    0.1950 C   0  0  0  0  0  0  0  0  0  0  0  0
    4.5027   -0.7904    0.4132 C   0  0  0  0  0  0  0  0  0  0  0  0
    5.3037    0.2748    0.1386 C   0  0  0  0  0  0  0  0  0  0  0  0
    4.7122    1.4111   -0.3869 C   0  0  0  0  0  0  0  0  0  0  0  0
    3.3729    1.3970   -0.5951 C   0  0  0  0  0  0  0  0  0  0  0  0
   -4.1693    2.1551    1.2607 H   0  0  0  0  0  0  0  0  0  0  0  0
   -3.8273   -1.9525    0.2368 H   0  0  0  0  0  0  0  0  0  0  0  0
   -4.3084    0.4263   -1.3442 H   0  0  0  0  0  0  0  0  0  0  0  0
   -3.7279   -1.1057   -2.0218 H   0  0  0  0  0  0  0  0  0  0  0  0
   -1.8222    0.0835   -2.4405 H   0  0  0  0  0  0  0  0  0  0  0  0
   -2.2820    1.4621   -1.4103 H   0  0  0  0  0  0  0  0  0  0  0  0
   -1.5305   -1.9689    2.3798 H   0  0  0  0  0  0  0  0  0  0  0  0
    0.8533   -1.1884    1.8968 H   0  0  0  0  0  0  0  0  0  0  0  0
    2.5632   -1.6659    0.4144 H   0  0  0  0  0  0  0  0  0  0  0  0
    4.9321   -1.7010    0.8267 H   0  0  0  0  0  0  0  0  0  0  0  0
    6.3708    0.2778    0.3096 H   0  0  0  0  0  0  0  0  0  0  0  0
    5.2945    2.2858   -0.6247 H   0  0  0  0  0  0  0  0  0  0  0  0
    2.9260    2.2996   -1.0092 H   0  0  0  0  0  0  0  0  0  0  0  0
  1  2  1  0
  2  3  2  0
  2  4  1  0
  4  5  1  0
  5  6  1  0
  6  7  1  0
  7  8  1  0
  8  9  2  0
  9 10  1  0
 10 11  2  0
 11 12  1  0
 12 13  2  0
 12 14  1  0
 14 15  2  0
 15 16  1  0
 16 17  2  0
 17 18  1  0
 18 19  2  0
  8  4  1  0
 19 14  1  0
 11  7  1  0
  1 20  1  0
  4 21  1  0
  5 22  1  0
  5 23  1  0
  6 24  1  0
  6 25  1  0
  9 26  1  0
 10 27  1  0
 15 28  1  0
 16 29  1  0
 17 30  1  0
 18 31  1  0
 19 32  1  0
M  END
$$$$
