
     RDKit          3D

 72 77  0  0  0  0  0  0  0  0999 V2000
   -8.9725   -0.5635    2.1390 C   0  0  0  0  0  0  0  0  0  0  0  0
   -7.5927   -0.2465    1.9723 N   0  0  0  0  0  0  0  0  0  0  0  0
   -7.0209    0.8577    2.7165 C   0  0  0  0  0  0  0  0  0  0  0  0
   -6.7473   -0.9782    1.0948 C   0  0  0  0  0  0  0  0  0  0  0  0
   -7.2521   -1.9297    0.4547 O   0  0  0  0  0  0  0  0  0  0  0  0
   -5.3493   -0.6595    0.9262 C   0  0  0  0  0  0  0  0  0  0  0  0
   -4.4140   -0.7365    1.9667 C   0  0  0  0  0  0  0  0  0  0  0  0
   -3.2173   -0.3547    1.4092 C   0  0  0  0  0  0  0  0  0  0  0  0
   -1.9557   -0.2355    1.9456 C   0  0  0  0  0  0  0  0  0  0  0  0
   -0.9624    0.1694    1.1461 N   0  0  0  0  0  0  0  0  0  0  0  0
   -1.1424    0.4639   -0.1546 C   0  0  0  0  0  0  0  0  0  0  0  0
   -0.0735    0.8972   -0.9836 N   0  0  0  0  0  0  0  0  0  0  0  0
    1.2196    1.0461   -0.4313 C   0  0  0  0  0  0  0  0  0  0  0  0
    2.2578    1.4712   -1.2555 C   0  0  0  0  0  0  0  0  0  0  0  0
    3.4985    1.6043   -0.6635 C   0  0  0  0  0  0  0  0  0  0  0  0
    3.7200    1.3367    0.6674 C   0  0  0  0  0  0  0  0  0  0  0  0
    5.0321    1.4814    1.2952 C   0  0  0  0  0  0  0  0  0  0  0  0
    5.1569    2.3058    2.2450 O   0  0  0  0  0  0  0  0  0  0  0  0
    6.1750    0.7460    0.8959 N   0  0  0  0  0  0  0  0  0  0  0  0
    7.3724    1.0220    1.6267 C   0  0  0  0  0  0  0  0  0  0  0  0
    8.6161    0.9249    0.7633 C   0  0  0  0  0  0  0  0  0  0  0  0
    8.8559   -0.4934    0.2921 C   0  0  0  0  0  0  0  0  0  0  0  0
    9.0798   -0.5535   -1.1961 C   0  0  0  0  0  0  0  0  0  0  0  0
    7.9235   -0.6533   -1.9337 O   0  0  0  0  0  0  0  0  0  0  0  0
    7.1697   -1.7771   -1.5358 C   0  0  0  0  0  0  0  0  0  0  0  0
    6.6868   -1.4444   -0.1195 C   0  0  0  0  0  0  0  0  0  0  0  0
    5.9155   -0.1685   -0.2015 C   0  0  0  0  0  0  0  0  0  0  0  0
    7.8424   -1.4073    0.7146 N   0  0  0  0  0  0  0  0  0  0  0  0
    2.6543    0.9190    1.4339 C   0  0  0  0  0  0  0  0  0  0  0  0
    1.4459    0.7866    0.8694 N   0  0  0  0  0  0  0  0  0  0  0  0
   -2.3936    0.3370   -0.6531 N   0  0  0  0  0  0  0  0  0  0  0  0
   -3.4366   -0.0614    0.0818 C   0  0  0  0  0  0  0  0  0  0  0  0
   -4.7497   -0.2542   -0.1957 N   0  0  0  0  0  0  0  0  0  0  0  0
   -5.3392   -0.0453   -1.4841 C   0  0  0  0  0  0  0  0  0  0  0  0
   -6.6107    0.7191   -1.5067 C   0  0  0  0  0  0  0  0  0  0  0  0
   -7.3168    0.1666   -2.7334 C   0  0  0  0  0  0  0  0  0  0  0  0
   -6.9490   -1.3049   -2.8050 C   0  0  0  0  0  0  0  0  0  0  0  0
   -5.5537   -1.3239   -2.2712 C   0  0  0  0  0  0  0  0  0  0  0  0
   -9.5803   -0.0332    1.3677 H   0  0  0  0  0  0  0  0  0  0  0  0
   -9.1335   -1.6442    2.1358 H   0  0  0  0  0  0  0  0  0  0  0  0
   -9.3211   -0.1655    3.1354 H   0  0  0  0  0  0  0  0  0  0  0  0
   -6.5275    1.5914    2.0160 H   0  0  0  0  0  0  0  0  0  0  0  0
   -6.3169    0.5172    3.5111 H   0  0  0  0  0  0  0  0  0  0  0  0
   -7.8154    1.4387    3.2248 H   0  0  0  0  0  0  0  0  0  0  0  0
   -4.5539   -1.0231    2.9835 H   0  0  0  0  0  0  0  0  0  0  0  0
   -1.7595   -0.4566    2.9698 H   0  0  0  0  0  0  0  0  0  0  0  0
   -0.2546    1.0998   -1.9882 H   0  0  0  0  0  0  0  0  0  0  0  0
    2.0721    1.6772   -2.2956 H   0  0  0  0  0  0  0  0  0  0  0  0
    4.3369    1.9319   -1.2640 H   0  0  0  0  0  0  0  0  0  0  0  0
    7.4852    0.4670    2.5663 H   0  0  0  0  0  0  0  0  0  0  0  0
    7.3148    2.1097    1.9302 H   0  0  0  0  0  0  0  0  0  0  0  0
    8.4979    1.5641   -0.1173 H   0  0  0  0  0  0  0  0  0  0  0  0
    9.4547    1.3285    1.3654 H   0  0  0  0  0  0  0  0  0  0  0  0
    9.8164   -0.8240    0.7706 H   0  0  0  0  0  0  0  0  0  0  0  0
    9.5808    0.4019   -1.5165 H   0  0  0  0  0  0  0  0  0  0  0  0
    9.7894   -1.3749   -1.4599 H   0  0  0  0  0  0  0  0  0  0  0  0
    6.2505   -1.8318   -2.1530 H   0  0  0  0  0  0  0  0  0  0  0  0
    7.7625   -2.7026   -1.5442 H   0  0  0  0  0  0  0  0  0  0  0  0
    6.0542   -2.3059    0.2309 H   0  0  0  0  0  0  0  0  0  0  0  0
    4.8448   -0.4208   -0.2703 H   0  0  0  0  0  0  0  0  0  0  0  0
    6.1773    0.3965   -1.1394 H   0  0  0  0  0  0  0  0  0  0  0  0
    7.6824   -1.3777    1.7232 H   0  0  0  0  0  0  0  0  0  0  0  0
    2.8119    0.7060    2.4760 H   0  0  0  0  0  0  0  0  0  0  0  0
   -4.6141    0.5483   -2.1273 H   0  0  0  0  0  0  0  0  0  0  0  0
   -6.4356    1.8117   -1.7398 H   0  0  0  0  0  0  0  0  0  0  0  0
   -7.2261    0.7071   -0.6162 H   0  0  0  0  0  0  0  0  0  0  0  0
   -6.8124    0.6387   -3.6250 H   0  0  0  0  0  0  0  0  0  0  0  0
   -8.3918    0.3532   -2.7381 H   0  0  0  0  0  0  0  0  0  0  0  0
   -7.6662   -1.9297   -2.2585 H   0  0  0  0  0  0  0  0  0  0  0  0
   -6.8829   -1.6222   -3.8875 H   0  0  0  0  0  0  0  0  0  0  0  0
   -5.4229   -2.1661   -1.5615 H   0  0  0  0  0  0  0  0  0  0  0  0
   -4.7904   -1.4741   -3.0677 H   0  0  0  0  0  0  0  0  0  0  0  0
  1  2  1  0
  2  3  1  0
  2  4  1  0
  4  5  2  0
  4  6  1  0
  6  7  2  0
  7  8  1  0
  8  9  2  0
  9 10  1  0
 10 11  2  0
 11 12  1  0
 12 13  1  0
 13 14  2  0
 14 15  1  0
 15 16  2  0
 16 17  1  0
 17 18  2  0
 17 19  1  0
 19 20  1  0
 20 21  1  0
 21 22  1  0
 22 23  1  0
 23 24  1  0
 24 25  1  0
 25 26  1  0
 26 27  1  0
 26 28  1  0
 16 29  1  0
 29 30  2  0
 11 31  1  0
 31 32  2  0
 32 33  1  0
 33 34  1  0
 34 35  1  0
 35 36  1  0
 36 37  1  0
 37 38  1  0
 33  6  1  0
 38 34  1  0
 32  8  1  0
 30 13  1  0
 27 19  1  0
 28 22  1  0
  1 39  1  0
  1 40  1  0
  1 41  1  0
  3 42  1  0
  3 43  1  0
  3 44  1  0
  7 45  1  0
  9 46  1  0
 12 47  1  0
 14 48  1  0
 15 49  1  0
 20 50  1  0
 20 51  1  0
 21 52  1  0
 21 53  1  0
 22 54  1  0
 23 55  1  0
 23 56  1  0
 25 57  1  0
 25 58  1  0
 26 59  1  0
 27 60  1  0
 27 61  1  0
 28 62  1  0
 29 63  1  0
 34 64  1  0
 35 65  1  0
 35 66  1  0
 36 67  1  0
 36 68  1  0
 37 69  1  0
 37 70  1  0
 38 71  1  0
 38 72  1  0
M  END
$$$$
