
     RDKit          3D

 61 65  0  0  0  0  0  0  0  0999 V2000
    4.9439    2.9488    0.0674 C   0  0  0  0  0  0  0  0  0  0  0  0
    5.1086    1.5585   -0.3642 N   0  0  0  0  0  0  0  0  0  0  0  0
    4.1447    0.7948   -0.8047 N   0  0  0  0  0  0  0  0  0  0  0  0
    4.6033   -0.4392   -1.1273 C   0  0  0  0  0  0  0  0  0  0  0  0
    3.8560   -1.5280   -1.6351 N   0  0  0  0  0  0  0  0  0  0  0  0
    2.4313   -1.3483   -1.8495 C   0  0  0  0  0  0  0  0  0  0  0  0
    1.7325   -1.0036   -0.5829 C   0  0  0  0  0  0  0  0  0  0  0  0
    2.3394   -0.8958    0.4937 O   0  0  0  0  0  0  0  0  0  0  0  0
    0.3386   -0.7938   -0.6092 N   0  0  0  0  0  0  0  0  0  0  0  0
   -0.4579   -0.4570    0.5339 C   0  0  0  0  0  0  0  0  0  0  0  0
   -1.4051    0.7224    0.2668 C   0  0  0  0  0  0  0  0  0  0  0  0
   -2.3209    0.0515    1.1700 N   0  0  0  0  0  0  0  0  0  0  0  0
   -3.7054    0.3072    0.9498 C   0  0  1  0  0  0  0  0  0  0  0  0
   -4.2344   -0.0930   -0.3923 C   0  0  0  0  0  0  0  0  0  0  0  0
   -5.6895    0.2707   -0.4673 C   0  0  0  0  0  0  0  0  0  0  0  0
   -6.2319    0.8994    0.7906 C   0  0  1  0  0  0  0  0  0  0  0  0
   -7.6818    1.1148    0.6075 C   0  0  0  0  0  0  0  0  0  0  0  0
   -8.4699    2.2098    0.6156 C   0  0  0  0  0  0  0  0  0  0  0  0
   -9.7484    2.0111    0.4127 N   0  0  0  0  0  0  0  0  0  0  0  0
  -10.3184    1.0092    0.2224 C   0  0  0  0  0  0  0  0  0  0  0  0
   -8.8758   -0.2208    0.2922 S   0  0  0  0  0  0  0  0  0  0  0  0
   -5.9803    0.0197    1.9688 C   0  0  0  0  0  0  0  0  0  0  0  0
   -4.5388   -0.4222    1.9817 C   0  0  0  0  0  0  0  0  0  0  0  0
   -1.7748   -1.1953    0.6746 C   0  0  0  0  0  0  0  0  0  0  0  0
    5.9466   -0.4161   -0.8601 C   0  0  0  0  0  0  0  0  0  0  0  0
    6.9371   -1.3677   -0.9856 C   0  0  0  0  0  0  0  0  0  0  0  0
    8.2259   -1.0263   -0.6228 C   0  0  0  0  0  0  0  0  0  0  0  0
    9.3440   -1.9987   -0.7302 C   0  0  0  0  0  0  0  0  0  0  0  0
   10.1449   -1.5832   -1.7751 F   0  0  0  0  0  0  0  0  0  0  0  0
   10.0481   -1.9877    0.4742 F   0  0  0  0  0  0  0  0  0  0  0  0
    8.8211   -3.2514   -0.9540 F   0  0  0  0  0  0  0  0  0  0  0  0
    8.5154    0.2343   -0.1468 C   0  0  0  0  0  0  0  0  0  0  0  0
    7.5225    1.1848   -0.0221 C   0  0  0  0  0  0  0  0  0  0  0  0
    6.2314    0.8451   -0.3850 C   0  0  0  0  0  0  0  0  0  0  0  0
    4.1250    2.9365    0.8129 H   0  0  0  0  0  0  0  0  0  0  0  0
    4.6879    3.5559   -0.8154 H   0  0  0  0  0  0  0  0  0  0  0  0
    5.8698    3.2820    0.5666 H   0  0  0  0  0  0  0  0  0  0  0  0
    4.3376   -2.4278   -1.8429 H   0  0  0  0  0  0  0  0  0  0  0  0
    2.0261   -2.2509   -2.3051 H   0  0  0  0  0  0  0  0  0  0  0  0
    2.3296   -0.5100   -2.5780 H   0  0  0  0  0  0  0  0  0  0  0  0
   -0.1625   -0.8886   -1.5282 H   0  0  0  0  0  0  0  0  0  0  0  0
    0.0528   -0.3532    1.4913 H   0  0  0  0  0  0  0  0  0  0  0  0
   -1.7135    0.6980   -0.8007 H   0  0  0  0  0  0  0  0  0  0  0  0
   -1.0142    1.6901    0.6355 H   0  0  0  0  0  0  0  0  0  0  0  0
   -3.8416    1.4186    1.1155 H   0  0  0  0  0  0  0  0  0  0  0  0
   -3.6682    0.3346   -1.2483 H   0  0  0  0  0  0  0  0  0  0  0  0
   -4.1614   -1.2192   -0.4399 H   0  0  0  0  0  0  0  0  0  0  0  0
   -5.8816    0.9312   -1.3485 H   0  0  0  0  0  0  0  0  0  0  0  0
   -6.3156   -0.6429   -0.6485 H   0  0  0  0  0  0  0  0  0  0  0  0
   -5.8007    1.9038    0.9787 H   0  0  0  0  0  0  0  0  0  0  0  0
   -8.0557    3.2194    0.7848 H   0  0  0  0  0  0  0  0  0  0  0  0
  -11.3101    0.6205    0.0394 H   0  0  0  0  0  0  0  0  0  0  0  0
   -6.6510   -0.8844    1.9731 H   0  0  0  0  0  0  0  0  0  0  0  0
   -6.2161    0.5678    2.9273 H   0  0  0  0  0  0  0  0  0  0  0  0
   -4.4863   -1.5120    1.6929 H   0  0  0  0  0  0  0  0  0  0  0  0
   -4.0848   -0.3695    2.9921 H   0  0  0  0  0  0  0  0  0  0  0  0
   -1.6818   -1.9631    1.4811 H   0  0  0  0  0  0  0  0  0  0  0  0
   -2.1763   -1.5735   -0.2650 H   0  0  0  0  0  0  0  0  0  0  0  0
    6.7360   -2.3490   -1.3516 H   0  0  0  0  0  0  0  0  0  0  0  0
    9.5320    0.4691    0.1279 H   0  0  0  0  0  0  0  0  0  0  0  0
    7.7227    2.1714    0.3455 H   0  0  0  0  0  0  0  0  0  0  0  0
  1  2  1  0
  2  3  1  0
  3  4  2  0
  4  5  1  0
  5  6  1  0
  6  7  1  0
  7  8  2  0
  7  9  1  0
  9 10  1  0
 10 11  1  0
 11 12  1  0
 12 13  1  0
 13 14  1  0
 14 15  1  0
 15 16  1  0
 16 17  1  0
 17 18  2  0
 18 19  1  0
 19 20  2  0
 20 21  1  0
 16 22  1  0
 22 23  1  0
 12 24  1  0
  4 25  1  0
 25 26  2  0
 26 27  1  0
 27 28  1  0
 28 29  1  0
 28 30  1  0
 28 31  1  0
 27 32  2  0
 32 33  1  0
 33 34  2  0
 34  2  1  0
 24 10  1  0
 34 25  1  0
 23 13  1  0
 21 17  1  0
  1 35  1  0
  1 36  1  0
  1 37  1  0
  5 38  1  0
  6 39  1  0
  6 40  1  0
  9 41  1  0
 10 42  1  0
 11 43  1  0
 11 44  1  0
 13 45  1  1
 14 46  1  0
 14 47  1  0
 15 48  1  0
 15 49  1  0
 16 50  1  1
 18 51  1  0
 20 52  1  0
 22 53  1  0
 22 54  1  0
 23 55  1  0
 23 56  1  0
 24 57  1  0
 24 58  1  0
 26 59  1  0
 32 60  1  0
 33 61  1  0
M  END
$$$$
