
     RDKit          3D

 34 33  0  0  0  0  0  0  0  0999 V2000
    0.8344   -0.1959    1.7243 O   0  0  0  0  0  0  0  0  0  0  0  0
    1.4412   -1.1394    0.8997 C   0  0  2  0  0  0  0  0  0  0  0  0
    2.8774   -0.7744    0.6086 C   0  0  0  0  0  0  0  0  0  0  0  0
    2.9861    0.4549   -0.0290 O   0  0  0  0  0  0  0  0  0  0  0  0
    4.5420    0.9256   -0.3830 P   0  0  0  0  0  0  0  0  0  0  0  0
    5.6768   -0.2874   -0.2014 O   0  0  0  0  0  0  0  0  0  0  0  0
    4.6163    1.5111   -1.9780 O   0  0  0  0  0  0  0  0  0  0  0  0
    4.9017    2.0742    0.5282 O   0  0  0  0  0  0  0  0  0  0  0  0
    0.6707   -1.2952   -0.3949 C   0  0  2  0  0  0  0  0  0  0  0  0
    0.6387   -0.0719   -1.0520 O   0  0  0  0  0  0  0  0  0  0  0  0
   -0.7337   -1.7471   -0.1694 C   0  0  2  0  0  0  0  0  0  0  0  0
   -1.3398   -1.8684   -1.4177 O   0  0  0  0  0  0  0  0  0  0  0  0
   -1.5337   -0.7662    0.6137 C   0  0  0  0  0  0  0  0  0  0  0  0
   -1.7971   -0.0953    1.6135 O   0  0  0  0  0  0  0  0  0  0  0  0
   -2.7584   -0.0978    0.0359 C   0  0  0  0  0  0  0  0  0  0  0  0
   -3.3059    0.7566    0.9627 O   0  0  0  0  0  0  0  0  0  0  0  0
   -4.6708    1.5200    0.3597 P   0  0  0  0  0  0  0  0  0  0  0  0
   -4.1594    3.0324   -0.2400 O   0  0  0  0  0  0  0  0  0  0  0  0
   -5.8166    1.7809    1.5705 O   0  0  0  0  0  0  0  0  0  0  0  0
   -5.2511    0.7297   -0.7739 O   0  0  0  0  0  0  0  0  0  0  0  0
    1.5164    0.3042    2.2256 H   0  0  0  0  0  0  0  0  0  0  0  0
    1.4519   -2.1023    1.4521 H   0  0  0  0  0  0  0  0  0  0  0  0
    3.4797   -0.7954    1.5256 H   0  0  0  0  0  0  0  0  0  0  0  0
    3.2681   -1.5344   -0.1094 H   0  0  0  0  0  0  0  0  0  0  0  0
    5.8669   -0.6727   -1.0901 H   0  0  0  0  0  0  0  0  0  0  0  0
    4.6789    2.4850   -2.0021 H   0  0  0  0  0  0  0  0  0  0  0  0
    1.1782   -2.0189   -1.0408 H   0  0  0  0  0  0  0  0  0  0  0  0
    0.0796   -0.1250   -1.8688 H   0  0  0  0  0  0  0  0  0  0  0  0
   -0.7607   -2.6995    0.3981 H   0  0  0  0  0  0  0  0  0  0  0  0
   -1.6906   -2.7842   -1.5091 H   0  0  0  0  0  0  0  0  0  0  0  0
   -2.4651    0.4666   -0.8691 H   0  0  0  0  0  0  0  0  0  0  0  0
   -3.4444   -0.9396   -0.2299 H   0  0  0  0  0  0  0  0  0  0  0  0
   -4.6866    3.3364   -1.0049 H   0  0  0  0  0  0  0  0  0  0  0  0
   -6.2911    2.6335    1.4230 H   0  0  0  0  0  0  0  0  0  0  0  0
  1  2  1  0
  2  3  1  0
  3  4  1  0
  4  5  1  0
  5  6  1  0
  5  7  1  0
  5  8  2  0
  2  9  1  0
  9 10  1  0
  9 11  1  0
 11 12  1  0
 11 13  1  0
 13 14  2  0
 13 15  1  0
 15 16  1  0
 16 17  1  0
 17 18  1  0
 17 19  1  0
 17 20  2  0
  1 21  1  0
  2 22  1  1
  3 23  1  0
  3 24  1  0
  6 25  1  0
  7 26  1  0
  9 27  1  6
 10 28  1  0
 11 29  1  1
 12 30  1  0
 15 31  1  0
 15 32  1  0
 18 33  1  0
 19 34  1  0
M  END
$$$$
