
     RDKit          3D

 80 85  0  0  0  0  0  0  0  0999 V2000
    1.9965   -2.9228   -0.3438 C   0  0  0  0  0  0  0  0  0  0  0  0
    3.0957   -1.9426   -0.1080 C   0  0  0  0  0  0  0  0  0  0  0  0
    4.3464   -2.3295   -0.4748 N   0  0  0  0  0  0  0  0  0  0  0  0
    5.4130   -1.5421   -0.2892 C   0  0  0  0  0  0  0  0  0  0  0  0
    6.6993   -1.9682   -0.6789 O   0  0  0  0  0  0  0  0  0  0  0  0
    7.7444   -1.1001   -0.4565 C   0  0  0  0  0  0  0  0  0  0  0  0
    8.1086   -0.1984   -1.4146 C   0  0  0  0  0  0  0  0  0  0  0  0
    9.1466    0.6627   -1.1917 C   0  0  0  0  0  0  0  0  0  0  0  0
    9.8244    0.6117    0.0139 C   0  0  0  0  0  0  0  0  0  0  0  0
   10.9312    1.5104    0.2860 C   0  0  0  0  0  0  0  0  0  0  0  0
   11.2655    2.3403   -0.5986 O   0  0  0  0  0  0  0  0  0  0  0  0
   11.6047    1.4536    1.4970 O   0  0  0  0  0  0  0  0  0  0  0  0
    9.4520   -0.2984    0.9731 C   0  0  0  0  0  0  0  0  0  0  0  0
    8.4158   -1.1499    0.7366 C   0  0  0  0  0  0  0  0  0  0  0  0
    5.2301   -0.3109    0.2885 C   0  0  0  0  0  0  0  0  0  0  0  0
    3.9709    0.0819    0.6588 C   0  0  0  0  0  0  0  0  0  0  0  0
    2.8357   -0.7282    0.4731 C   0  0  0  0  0  0  0  0  0  0  0  0
    1.5106   -0.2169    0.8775 C   0  0  0  0  0  0  0  0  0  0  0  0
    0.7638    0.3225   -0.1583 N   0  0  0  0  0  0  0  0  0  0  0  0
    0.3347   -0.3841   -1.2640 C   0  0  0  0  0  0  0  0  0  0  0  0
   -0.5310    0.4789   -2.1558 C   0  0  0  0  0  0  0  0  0  0  0  0
   -1.4835    1.3787   -1.4040 C   0  0  0  0  0  0  0  0  0  0  0  0
   -2.6850    0.7165   -0.9703 N   0  0  0  0  0  0  0  0  0  0  0  0
   -2.9164   -0.2927   -0.0010 C   0  0  0  0  0  0  0  0  0  0  0  0
   -2.0460   -0.6548    0.8540 O   0  0  0  0  0  0  0  0  0  0  0  0
   -4.2268   -0.8347   -0.1097 N   0  0  0  0  0  0  0  0  0  0  0  0
   -4.7903   -1.7882    0.8285 C   0  0  0  0  0  0  0  0  0  0  0  0
   -5.1073   -3.0892    0.1319 C   0  0  0  0  0  0  0  0  0  0  0  0
   -6.0533   -3.8521    1.0684 C   0  0  0  0  0  0  0  0  0  0  0  0
   -7.3221   -3.2760    1.0810 O   0  0  0  0  0  0  0  0  0  0  0  0
   -7.2924   -1.9060    0.9003 C   0  0  0  0  0  0  0  0  0  0  0  0
   -6.0431   -1.2855    1.4891 C   0  0  0  0  0  0  0  0  0  0  0  0
   -4.8245   -0.2572   -1.2851 C   0  0  0  0  0  0  0  0  0  0  0  0
   -4.0149    0.9885   -1.5123 C   0  0  1  0  0  0  0  0  0  0  0  0
   -4.6481    2.0999   -0.7583 C   0  0  0  0  0  0  0  0  0  0  0  0
   -4.6314    2.1818    0.6159 C   0  0  0  0  0  0  0  0  0  0  0  0
   -5.2451    3.2547    1.2364 C   0  0  0  0  0  0  0  0  0  0  0  0
   -5.8769    4.2503    0.5059 C   0  0  0  0  0  0  0  0  0  0  0  0
   -5.9008    4.1795   -0.8795 C   0  0  0  0  0  0  0  0  0  0  0  0
   -5.2881    3.1087   -1.4922 C   0  0  0  0  0  0  0  0  0  0  0  0
   -0.8195    2.1821   -0.3376 C   0  0  0  0  0  0  0  0  0  0  0  0
    0.6304    1.7486   -0.1939 C   0  0  0  0  0  0  0  0  0  0  0  0
    1.7842   -2.9502   -1.4212 H   0  0  0  0  0  0  0  0  0  0  0  0
    1.1167   -2.7619    0.3001 H   0  0  0  0  0  0  0  0  0  0  0  0
    2.3515   -3.9641   -0.0747 H   0  0  0  0  0  0  0  0  0  0  0  0
    7.6104   -0.1171   -2.3774 H   0  0  0  0  0  0  0  0  0  0  0  0
    9.4434    1.3752   -1.9346 H   0  0  0  0  0  0  0  0  0  0  0  0
   12.5298    1.8721    1.5508 H   0  0  0  0  0  0  0  0  0  0  0  0
    9.9612   -0.3725    1.9411 H   0  0  0  0  0  0  0  0  0  0  0  0
    8.1298   -1.8668    1.5037 H   0  0  0  0  0  0  0  0  0  0  0  0
    6.0866    0.3315    0.4418 H   0  0  0  0  0  0  0  0  0  0  0  0
    3.7881    1.0542    1.1209 H   0  0  0  0  0  0  0  0  0  0  0  0
    1.6186    0.5138    1.7267 H   0  0  0  0  0  0  0  0  0  0  0  0
    0.9385   -1.0707    1.3483 H   0  0  0  0  0  0  0  0  0  0  0  0
    1.2035   -0.6863   -1.9312 H   0  0  0  0  0  0  0  0  0  0  0  0
   -0.2375   -1.3228   -1.0581 H   0  0  0  0  0  0  0  0  0  0  0  0
   -1.1013   -0.1170   -2.8883 H   0  0  0  0  0  0  0  0  0  0  0  0
    0.1432    1.1520   -2.7554 H   0  0  0  0  0  0  0  0  0  0  0  0
   -1.8013    2.1369   -2.1959 H   0  0  0  0  0  0  0  0  0  0  0  0
   -4.0470   -2.0096    1.6135 H   0  0  0  0  0  0  0  0  0  0  0  0
   -5.6002   -2.9593   -0.8325 H   0  0  0  0  0  0  0  0  0  0  0  0
   -4.2016   -3.7274    0.0359 H   0  0  0  0  0  0  0  0  0  0  0  0
   -5.6542   -3.8484    2.0949 H   0  0  0  0  0  0  0  0  0  0  0  0
   -6.1649   -4.9065    0.7616 H   0  0  0  0  0  0  0  0  0  0  0  0
   -8.1590   -1.4036    1.4174 H   0  0  0  0  0  0  0  0  0  0  0  0
   -7.4227   -1.6914   -0.1723 H   0  0  0  0  0  0  0  0  0  0  0  0
   -6.0536   -1.4567    2.5716 H   0  0  0  0  0  0  0  0  0  0  0  0
   -6.1330   -0.1924    1.3341 H   0  0  0  0  0  0  0  0  0  0  0  0
   -5.9027   -0.0411   -1.1752 H   0  0  0  0  0  0  0  0  0  0  0  0
   -4.6137   -0.9431   -2.1315 H   0  0  0  0  0  0  0  0  0  0  0  0
   -3.9478    1.2449   -2.5966 H   0  0  0  0  0  0  0  0  0  0  0  0
   -4.1507    1.4270    1.2142 H   0  0  0  0  0  0  0  0  0  0  0  0
   -5.2161    3.2934    2.3270 H   0  0  0  0  0  0  0  0  0  0  0  0
   -6.3480    5.0771    1.0173 H   0  0  0  0  0  0  0  0  0  0  0  0
   -6.3961    4.9615   -1.4351 H   0  0  0  0  0  0  0  0  0  0  0  0
   -5.3163    3.0690   -2.5733 H   0  0  0  0  0  0  0  0  0  0  0  0
   -1.3512    2.1252    0.6451 H   0  0  0  0  0  0  0  0  0  0  0  0
   -0.7811    3.2664   -0.5714 H   0  0  0  0  0  0  0  0  0  0  0  0
    1.2161    2.1298   -1.0555 H   0  0  0  0  0  0  0  0  0  0  0  0
    1.1049    2.1561    0.7213 H   0  0  0  0  0  0  0  0  0  0  0  0
  1  2  1  0
  2  3  2  0
  3  4  1  0
  4  5  1  0
  5  6  1  0
  6  7  2  0
  7  8  1  0
  8  9  2  0
  9 10  1  0
 10 11  2  0
 10 12  1  0
  9 13  1  0
 13 14  2  0
  4 15  2  0
 15 16  1  0
 16 17  2  0
 17 18  1  0
 18 19  1  0
 19 20  1  0
 20 21  1  0
 21 22  1  0
 22 23  1  0
 23 24  1  0
 24 25  2  0
 24 26  1  0
 26 27  1  0
 27 28  1  0
 28 29  1  0
 29 30  1  0
 30 31  1  0
 31 32  1  0
 26 33  1  0
 33 34  1  0
 34 35  1  0
 35 36  2  0
 36 37  1  0
 37 38  2  0
 38 39  1  0
 39 40  2  0
 22 41  1  0
 41 42  1  0
 17  2  1  0
 42 19  1  0
 14  6  1  0
 34 23  1  0
 40 35  1  0
 32 27  1  0
  1 43  1  0
  1 44  1  0
  1 45  1  0
  7 46  1  0
  8 47  1  0
 12 48  1  0
 13 49  1  0
 14 50  1  0
 15 51  1  0
 16 52  1  0
 18 53  1  0
 18 54  1  0
 20 55  1  0
 20 56  1  0
 21 57  1  0
 21 58  1  0
 22 59  1  0
 27 60  1  0
 28 61  1  0
 28 62  1  0
 29 63  1  0
 29 64  1  0
 31 65  1  0
 31 66  1  0
 32 67  1  0
 32 68  1  0
 33 69  1  0
 33 70  1  0
 34 71  1  6
 36 72  1  0
 37 73  1  0
 38 74  1  0
 39 75  1  0
 40 76  1  0
 41 77  1  0
 41 78  1  0
 42 79  1  0
 42 80  1  0
M  END
$$$$
