
     RDKit          3D

 64 68  0  0  0  0  0  0  0  0999 V2000
    6.7973   -2.7662    1.5796 C   0  0  0  0  0  0  0  0  0  0  0  0
    6.4825   -1.5150    0.8743 C   0  0  0  0  0  0  0  0  0  0  0  0
    5.1390   -1.1915    0.6925 C   0  0  0  0  0  0  0  0  0  0  0  0
    4.7640   -0.0513    0.0495 C   0  0  0  0  0  0  0  0  0  0  0  0
    3.4529    0.3566   -0.1953 N   0  0  0  0  0  0  0  0  0  0  0  0
    2.2969   -0.4111    0.0083 C   0  0  0  0  0  0  0  0  0  0  0  0
    2.2733   -1.6700    0.4329 N   0  0  0  0  0  0  0  0  0  0  0  0
    1.1334   -2.3323    0.6019 C   0  0  0  0  0  0  0  0  0  0  0  0
   -0.1031   -1.7300    0.3386 C   0  0  0  0  0  0  0  0  0  0  0  0
   -1.3630   -2.4115    0.5084 C   0  0  0  0  0  0  0  0  0  0  0  0
   -2.5655   -2.3017    0.4134 N   0  0  0  0  0  0  0  0  0  0  0  0
   -3.5031   -3.1548    0.6555 C   0  0  0  0  0  0  0  0  0  0  0  0
   -4.9501   -2.9386    0.5129 C   0  0  0  0  0  0  0  0  0  0  0  0
   -5.3909   -1.7145    0.0793 C   0  0  0  0  0  0  0  0  0  0  0  0
   -6.7451   -1.4548   -0.0735 C   0  0  0  0  0  0  0  0  0  0  0  0
   -7.6604   -2.4400    0.2142 C   0  0  0  0  0  0  0  0  0  0  0  0
   -7.2444   -3.6677    0.6478 C   0  0  0  0  0  0  0  0  0  0  0  0
   -5.8849   -3.8945    0.7898 C   0  0  0  0  0  0  0  0  0  0  0  0
   -3.0404   -4.4102    1.1007 C   0  0  0  0  0  0  0  0  0  0  0  0
   -1.2901   -4.2014    1.1148 S   0  0  0  0  0  0  0  0  0  0  0  0
   -0.0956   -0.4319   -0.1000 C   0  0  0  0  0  0  0  0  0  0  0  0
   -1.3137    0.2177   -0.3812 N   0  0  0  0  0  0  0  0  0  0  0  0
   -1.2498    1.5892   -0.8384 C   0  0  2  0  0  0  0  0  0  0  0  0
   -0.6124    2.5271    0.1631 C   0  0  0  0  0  0  0  0  0  0  0  0
   -0.9470    3.8748   -0.4663 C   0  0  2  0  0  0  0  0  0  0  0  0
   -1.0766    4.9494    0.5897 C   0  0  0  0  0  0  0  0  0  0  0  0
    0.1183    5.0806    1.2939 O   0  0  0  0  0  0  0  0  0  0  0  0
   -2.2407    3.6753   -1.2238 C   0  0  1  0  0  0  0  0  0  0  0  0
   -2.0043    3.9219   -2.5961 O   0  0  0  0  0  0  0  0  0  0  0  0
   -2.6153    2.2104   -1.0102 C   0  0  1  0  0  0  0  0  0  0  0  0
   -3.3163    1.6960   -2.0812 O   0  0  0  0  0  0  0  0  0  0  0  0
    1.0857    0.1711   -0.2470 N   0  0  0  0  0  0  0  0  0  0  0  0
    5.8002    0.7684   -0.4127 C   0  0  0  0  0  0  0  0  0  0  0  0
    7.1014    0.4454   -0.2309 C   0  0  0  0  0  0  0  0  0  0  0  0
    8.1444    1.3817   -0.7592 C   0  0  0  0  0  0  0  0  0  0  0  0
    7.4109   -0.6826    0.4049 N   0  0  0  0  0  0  0  0  0  0  0  0
    6.9449   -2.6226    2.6773 H   0  0  0  0  0  0  0  0  0  0  0  0
    5.9690   -3.5184    1.4865 H   0  0  0  0  0  0  0  0  0  0  0  0
    7.7007   -3.2808    1.1767 H   0  0  0  0  0  0  0  0  0  0  0  0
    4.3768   -1.8818    1.0909 H   0  0  0  0  0  0  0  0  0  0  0  0
    3.3000    1.3448   -0.5703 H   0  0  0  0  0  0  0  0  0  0  0  0
    1.1452   -3.3770    0.9557 H   0  0  0  0  0  0  0  0  0  0  0  0
   -4.6735   -0.9434   -0.1457 H   0  0  0  0  0  0  0  0  0  0  0  0
   -7.0969   -0.4829   -0.4178 H   0  0  0  0  0  0  0  0  0  0  0  0
   -8.7307   -2.2018    0.0823 H   0  0  0  0  0  0  0  0  0  0  0  0
   -7.9405   -4.4447    0.8760 H   0  0  0  0  0  0  0  0  0  0  0  0
   -5.5583   -4.8764    1.1362 H   0  0  0  0  0  0  0  0  0  0  0  0
   -3.6359   -5.3158    1.3770 H   0  0  0  0  0  0  0  0  0  0  0  0
   -2.2530   -0.1893   -0.2934 H   0  0  0  0  0  0  0  0  0  0  0  0
   -0.7036    1.7017   -1.7949 H   0  0  0  0  0  0  0  0  0  0  0  0
   -1.1979    2.4140    1.1048 H   0  0  0  0  0  0  0  0  0  0  0  0
    0.4591    2.3886    0.3007 H   0  0  0  0  0  0  0  0  0  0  0  0
   -0.0983    4.1405   -1.1104 H   0  0  0  0  0  0  0  0  0  0  0  0
   -1.2649    5.9290    0.1065 H   0  0  0  0  0  0  0  0  0  0  0  0
   -1.8939    4.7120    1.3186 H   0  0  0  0  0  0  0  0  0  0  0  0
   -0.0157    5.4060    2.2181 H   0  0  0  0  0  0  0  0  0  0  0  0
   -3.0480    4.3579   -0.8690 H   0  0  0  0  0  0  0  0  0  0  0  0
   -1.9701    3.0394   -3.0393 H   0  0  0  0  0  0  0  0  0  0  0  0
   -3.1451    2.1179   -0.0484 H   0  0  0  0  0  0  0  0  0  0  0  0
   -4.2563    1.5933   -1.7950 H   0  0  0  0  0  0  0  0  0  0  0  0
    5.5556    1.6863   -0.9305 H   0  0  0  0  0  0  0  0  0  0  0  0
    8.3348    2.2239   -0.0687 H   0  0  0  0  0  0  0  0  0  0  0  0
    7.7951    1.7641   -1.7439 H   0  0  0  0  0  0  0  0  0  0  0  0
    9.1142    0.8212   -0.8550 H   0  0  0  0  0  0  0  0  0  0  0  0
  1  2  1  0
  2  3  2  0
  3  4  1  0
  4  5  1  0
  5  6  1  0
  6  7  2  0
  7  8  1  0
  8  9  2  0
  9 10  1  0
 10 11  2  0
 11 12  1  0
 12 13  1  0
 13 14  2  0
 14 15  1  0
 15 16  2  0
 16 17  1  0
 17 18  2  0
 12 19  2  0
 19 20  1  0
  9 21  1  0
 21 22  1  0
 22 23  1  0
 23 24  1  0
 24 25  1  0
 25 26  1  0
 26 27  1  0
 25 28  1  0
 28 29  1  0
 28 30  1  0
 30 31  1  0
 21 32  2  0
  4 33  2  0
 33 34  1  0
 34 35  1  0
 34 36  2  0
 36  2  1  0
 32  6  1  0
 20 10  1  0
 30 23  1  0
 18 13  1  0
  1 37  1  0
  1 38  1  0
  1 39  1  0
  3 40  1  0
  5 41  1  0
  8 42  1  0
 14 43  1  0
 15 44  1  0
 16 45  1  0
 17 46  1  0
 18 47  1  0
 19 48  1  0
 22 49  1  0
 23 50  1  6
 24 51  1  0
 24 52  1  0
 25 53  1  6
 26 54  1  0
 26 55  1  0
 27 56  1  0
 28 57  1  1
 29 58  1  0
 30 59  1  1
 31 60  1  0
 33 61  1  0
 35 62  1  0
 35 63  1  0
 35 64  1  0
M  END
$$$$
