
     RDKit          3D

 75 82  0  0  0  0  0  0  0  0999 V2000
  -11.1875    1.9817   -1.6941 C   0  0  0  0  0  0  0  0  0  0  0  0
   -9.9994    1.0718   -1.5963 C   0  0  0  0  0  0  0  0  0  0  0  0
   -9.9126   -0.1970   -2.0157 N   0  0  0  0  0  0  0  0  0  0  0  0
   -8.6928   -0.6870   -1.7571 N   0  0  0  0  0  0  0  0  0  0  0  0
   -8.0020    0.2937   -1.1645 C   0  0  0  0  0  0  0  0  0  0  0  0
   -6.7076    0.3170   -0.6996 C   0  0  0  0  0  0  0  0  0  0  0  0
   -5.8711   -0.7870   -0.7984 C   0  0  0  0  0  0  0  0  0  0  0  0
   -4.5823   -0.6860   -0.3113 C   0  0  0  0  0  0  0  0  0  0  0  0
   -3.6490   -1.8098   -0.3778 C   0  0  0  0  0  0  0  0  0  0  0  0
   -3.9284   -3.0253    0.2393 C   0  0  0  0  0  0  0  0  0  0  0  0
   -3.0556   -4.0911    0.1853 C   0  0  0  0  0  0  0  0  0  0  0  0
   -1.8692   -3.9904   -0.4848 C   0  0  0  0  0  0  0  0  0  0  0  0
   -1.5585   -2.8170   -1.1026 C   0  0  0  0  0  0  0  0  0  0  0  0
   -2.4448   -1.7374   -1.0469 C   0  0  0  0  0  0  0  0  0  0  0  0
   -4.0964    0.4820    0.2730 C   0  0  0  0  0  0  0  0  0  0  0  0
   -2.7332    0.5855    0.7705 C   0  0  0  0  0  0  0  0  0  0  0  0
   -1.8904    1.5358    0.2310 C   0  0  0  0  0  0  0  0  0  0  0  0
   -0.5764    1.7052    0.6434 C   0  0  0  0  0  0  0  0  0  0  0  0
   -0.0697    0.9102    1.6243 C   0  0  0  0  0  0  0  0  0  0  0  0
    1.3117    1.0448    2.0819 C   0  0  0  0  0  0  0  0  0  0  0  0
    2.1522    0.1131    1.3900 N   0  0  0  0  0  0  0  0  0  0  0  0
    2.1975    0.3762   -0.0018 C   0  0  0  0  0  0  0  0  0  0  0  0
    3.6178    0.1019   -0.5487 C   0  0  0  0  0  0  0  0  0  0  0  0
    4.4831    1.1276    0.1593 C   0  0  0  0  0  0  0  0  0  0  0  0
    5.8903    1.1174   -0.2864 C   0  0  0  0  0  0  0  0  0  0  0  0
    6.5295    2.1620   -0.8342 N   0  0  0  0  0  0  0  0  0  0  0  0
    7.7608    1.8256   -1.1164 N   0  0  0  0  0  0  0  0  0  0  0  0
    7.9278    0.5469   -0.7488 C   0  0  0  0  0  0  0  0  0  0  0  0
    9.1796   -0.2343   -0.8945 C   0  0  0  0  0  0  0  0  0  0  0  0
    9.2744   -1.5369   -0.5048 C   0  0  0  0  0  0  0  0  0  0  0  0
   10.4841   -2.2024   -0.6776 C   0  0  0  0  0  0  0  0  0  0  0  0
   11.5708   -1.5436   -1.2382 C   0  0  0  0  0  0  0  0  0  0  0  0
   11.4265   -0.2310   -1.6148 C   0  0  0  0  0  0  0  0  0  0  0  0
   10.2496    0.3574   -1.4279 N   0  0  0  0  0  0  0  0  0  0  0  0
    6.7774    0.0852   -0.2304 N   0  0  0  0  0  0  0  0  0  0  0  0
    4.4199    0.9635    1.6489 C   0  0  0  0  0  0  0  0  0  0  0  0
    3.3930   -0.0297    2.0683 C   0  0  0  0  0  0  0  0  0  0  0  0
   -0.8822   -0.0504    2.1872 C   0  0  0  0  0  0  0  0  0  0  0  0
   -2.1856   -0.1976    1.7582 C   0  0  0  0  0  0  0  0  0  0  0  0
   -4.9633    1.5187    0.3382 N   0  0  0  0  0  0  0  0  0  0  0  0
   -6.2255    1.4777   -0.1180 C   0  0  0  0  0  0  0  0  0  0  0  0
   -7.0690    2.5867   -0.0232 C   0  0  0  0  0  0  0  0  0  0  0  0
   -8.3601    2.5161   -0.5039 C   0  0  0  0  0  0  0  0  0  0  0  0
   -8.8000    1.3747   -1.0635 N   0  0  0  0  0  0  0  0  0  0  0  0
  -10.7942    2.9545   -2.1048 H   0  0  0  0  0  0  0  0  0  0  0  0
  -11.6497    2.1439   -0.7101 H   0  0  0  0  0  0  0  0  0  0  0  0
  -11.8970    1.5976   -2.4596 H   0  0  0  0  0  0  0  0  0  0  0  0
   -6.2210   -1.7084   -1.2490 H   0  0  0  0  0  0  0  0  0  0  0  0
   -4.8872   -3.0855    0.7736 H   0  0  0  0  0  0  0  0  0  0  0  0
   -3.3562   -5.0041    0.6974 H   0  0  0  0  0  0  0  0  0  0  0  0
   -1.1966   -4.8557   -0.5102 H   0  0  0  0  0  0  0  0  0  0  0  0
   -0.6241   -2.7173   -1.6388 H   0  0  0  0  0  0  0  0  0  0  0  0
   -2.1499   -0.8320   -1.5496 H   0  0  0  0  0  0  0  0  0  0  0  0
   -2.2837    2.1884   -0.5639 H   0  0  0  0  0  0  0  0  0  0  0  0
    0.0057    2.4824    0.1744 H   0  0  0  0  0  0  0  0  0  0  0  0
    1.3068    0.8440    3.1946 H   0  0  0  0  0  0  0  0  0  0  0  0
    1.6922    2.0952    1.9788 H   0  0  0  0  0  0  0  0  0  0  0  0
    1.4574   -0.2754   -0.5215 H   0  0  0  0  0  0  0  0  0  0  0  0
    2.0055    1.4226   -0.3108 H   0  0  0  0  0  0  0  0  0  0  0  0
    3.8483   -0.9239   -0.2716 H   0  0  0  0  0  0  0  0  0  0  0  0
    3.6044    0.3194   -1.6141 H   0  0  0  0  0  0  0  0  0  0  0  0
    4.0280    2.1238   -0.0959 H   0  0  0  0  0  0  0  0  0  0  0  0
    8.4078   -2.0189   -0.0715 H   0  0  0  0  0  0  0  0  0  0  0  0
   10.5729   -3.2420   -0.3699 H   0  0  0  0  0  0  0  0  0  0  0  0
   12.4924   -2.1079   -1.3516 H   0  0  0  0  0  0  0  0  0  0  0  0
   12.2795    0.2891   -2.0554 H   0  0  0  0  0  0  0  0  0  0  0  0
    6.5842   -0.8630    0.1425 H   0  0  0  0  0  0  0  0  0  0  0  0
    4.1473    1.9365    2.1435 H   0  0  0  0  0  0  0  0  0  0  0  0
    5.4149    0.6615    2.0914 H   0  0  0  0  0  0  0  0  0  0  0  0
    3.1868    0.1434    3.1653 H   0  0  0  0  0  0  0  0  0  0  0  0
    3.7445   -1.0814    2.0137 H   0  0  0  0  0  0  0  0  0  0  0  0
   -0.4901   -0.7027    2.9834 H   0  0  0  0  0  0  0  0  0  0  0  0
   -2.7878   -0.9586    2.2252 H   0  0  0  0  0  0  0  0  0  0  0  0
   -6.7215    3.5006    0.4228 H   0  0  0  0  0  0  0  0  0  0  0  0
   -9.0529    3.3494   -0.4507 H   0  0  0  0  0  0  0  0  0  0  0  0
  1  2  1  0
  2  3  2  0
  3  4  1  0
  4  5  2  0
  5  6  1  0
  6  7  2  0
  7  8  1  0
  8  9  1  0
  9 10  2  0
 10 11  1  0
 11 12  2  0
 12 13  1  0
 13 14  2  0
  8 15  2  0
 15 16  1  0
 16 17  2  0
 17 18  1  0
 18 19  2  0
 19 20  1  0
 20 21  1  0
 21 22  1  0
 22 23  1  0
 23 24  1  0
 24 25  1  0
 25 26  2  0
 26 27  1  0
 27 28  2  0
 28 29  1  0
 29 30  2  0
 30 31  1  0
 31 32  2  0
 32 33  1  0
 33 34  2  0
 28 35  1  0
 24 36  1  0
 36 37  1  0
 19 38  1  0
 38 39  2  0
 15 40  1  0
 40 41  2  0
 41 42  1  0
 42 43  2  0
 43 44  1  0
 44  2  1  0
 44  5  1  0
 41  6  1  0
 14  9  1  0
 39 16  1  0
 37 21  1  0
 35 25  1  0
 34 29  1  0
  1 45  1  0
  1 46  1  0
  1 47  1  0
  7 48  1  0
 10 49  1  0
 11 50  1  0
 12 51  1  0
 13 52  1  0
 14 53  1  0
 17 54  1  0
 18 55  1  0
 20 56  1  0
 20 57  1  0
 22 58  1  0
 22 59  1  0
 23 60  1  0
 23 61  1  0
 24 62  1  0
 30 63  1  0
 31 64  1  0
 32 65  1  0
 33 66  1  0
 35 67  1  0
 36 68  1  0
 36 69  1  0
 37 70  1  0
 37 71  1  0
 38 72  1  0
 39 73  1  0
 42 74  1  0
 43 75  1  0
M  END
$$$$
