
     RDKit          3D

 42 46  0  0  0  0  0  0  0  0999 V2000
    4.5233   -3.9635   -2.1678 F   0  0  0  0  0  0  0  0  0  0  0  0
    3.9147   -2.8678   -1.6541 C   0  0  0  0  0  0  0  0  0  0  0  0
    3.1988   -2.9714   -0.4799 C   0  0  0  0  0  0  0  0  0  0  0  0
    2.5567   -1.8944    0.0941 C   0  0  0  0  0  0  0  0  0  0  0  0
    2.6112   -0.6423   -0.5049 C   0  0  0  0  0  0  0  0  0  0  0  0
    1.9469    0.5157    0.0724 C   0  0  0  0  0  0  0  0  0  0  0  0
    2.5248    1.6450    0.5160 N   0  0  0  0  0  0  0  0  0  0  0  0
    1.5766    2.4958    0.9848 C   0  0  0  0  0  0  0  0  0  0  0  0
    0.3851    1.8580    0.8184 N   0  0  0  0  0  0  0  0  0  0  0  0
   -0.8894    2.4010    1.1832 C   0  0  0  0  0  0  0  0  0  0  0  0
   -0.9004    3.8779    1.4988 C   0  0  0  0  0  0  0  0  0  0  0  0
   -2.2086    3.9639    0.7067 C   0  0  0  0  0  0  0  0  0  0  0  0
   -2.2870    5.0842   -0.0971 F   0  0  0  0  0  0  0  0  0  0  0  0
   -3.2642    3.7884    1.5633 F   0  0  0  0  0  0  0  0  0  0  0  0
   -1.7535    2.7314   -0.0396 C   0  0  0  0  0  0  0  0  0  0  0  0
    0.5955    0.6556    0.2658 C   0  0  0  0  0  0  0  0  0  0  0  0
   -0.4031   -0.3384   -0.0767 C   0  0  0  0  0  0  0  0  0  0  0  0
   -0.6345   -0.7636   -1.3634 C   0  0  0  0  0  0  0  0  0  0  0  0
   -1.5963   -1.7111   -1.6248 C   0  0  0  0  0  0  0  0  0  0  0  0
   -2.3676   -2.2735   -0.6090 C   0  0  0  0  0  0  0  0  0  0  0  0
   -3.3398   -3.1769   -0.5328 N   0  0  0  0  0  0  0  0  0  0  0  0
   -3.7374   -3.3450    0.7481 C   0  0  0  0  0  0  0  0  0  0  0  0
   -2.9582   -2.4900    1.4996 C   0  0  0  0  0  0  0  0  0  0  0  0
   -2.1264   -1.8442    0.6467 N   0  0  0  0  0  0  0  0  0  0  0  0
   -1.1980   -0.9271    0.9139 C   0  0  0  0  0  0  0  0  0  0  0  0
    3.3345   -0.5552   -1.6841 C   0  0  0  0  0  0  0  0  0  0  0  0
    3.9759   -1.6339   -2.2563 C   0  0  0  0  0  0  0  0  0  0  0  0
    4.8859   -1.4761   -3.7594 Cl  0  0  0  0  0  0  0  0  0  0  0  0
    3.1449   -3.9545    0.0080 H   0  0  0  0  0  0  0  0  0  0  0  0
    1.9956   -1.9792    1.0158 H   0  0  0  0  0  0  0  0  0  0  0  0
    1.7023    3.4822    1.4093 H   0  0  0  0  0  0  0  0  0  0  0  0
   -1.4396    1.7619    1.8849 H   0  0  0  0  0  0  0  0  0  0  0  0
   -1.0205    4.1147    2.5768 H   0  0  0  0  0  0  0  0  0  0  0  0
   -0.0643    4.4204    1.0122 H   0  0  0  0  0  0  0  0  0  0  0  0
   -1.1088    3.0296   -0.9065 H   0  0  0  0  0  0  0  0  0  0  0  0
   -2.5227    1.9945   -0.2769 H   0  0  0  0  0  0  0  0  0  0  0  0
   -0.0726   -0.3682   -2.1945 H   0  0  0  0  0  0  0  0  0  0  0  0
   -1.8068   -2.0724   -2.6360 H   0  0  0  0  0  0  0  0  0  0  0  0
   -4.4986   -4.0043    1.1065 H   0  0  0  0  0  0  0  0  0  0  0  0
   -3.0264   -2.3827    2.5651 H   0  0  0  0  0  0  0  0  0  0  0  0
   -1.0316   -0.6057    1.9353 H   0  0  0  0  0  0  0  0  0  0  0  0
    3.3839    0.4211   -2.1619 H   0  0  0  0  0  0  0  0  0  0  0  0
  1  2  1  0
  2  3  2  0
  3  4  1  0
  4  5  2  0
  5  6  1  0
  6  7  1  0
  7  8  2  0
  8  9  1  0
  9 10  1  0
 10 11  1  0
 11 12  1  0
 12 13  1  0
 12 14  1  0
 12 15  1  0
  9 16  1  0
 16 17  1  0
 17 18  1  0
 18 19  2  0
 19 20  1  0
 20 21  2  0
 21 22  1  0
 22 23  2  0
 23 24  1  0
 24 25  1  0
  5 26  1  0
 26 27  2  0
 27 28  1  0
 27  2  1  0
 16  6  2  0
 25 17  2  0
 15 10  1  0
 24 20  1  0
  3 29  1  0
  4 30  1  0
  8 31  1  0
 10 32  1  0
 11 33  1  0
 11 34  1  0
 15 35  1  0
 15 36  1  0
 18 37  1  0
 19 38  1  0
 22 39  1  0
 23 40  1  0
 25 41  1  0
 26 42  1  0
M  END
$$$$
