
     RDKit          3D

 58 62  0  0  0  0  0  0  0  0999 V2000
   -7.2081   -1.3137    0.9912 C   0  0  0  0  0  0  0  0  0  0  0  0
   -5.7311   -1.1368    1.0993 C   0  0  0  0  0  0  0  0  0  0  0  0
   -4.9594   -1.9347    1.9169 C   0  0  0  0  0  0  0  0  0  0  0  0
   -3.5947   -1.7134    1.9671 C   0  0  0  0  0  0  0  0  0  0  0  0
   -2.9799   -0.7249    1.2295 C   0  0  0  0  0  0  0  0  0  0  0  0
   -1.5507   -0.4764    1.2623 C   0  0  0  0  0  0  0  0  0  0  0  0
   -1.1373    0.3533    2.1166 O   0  0  0  0  0  0  0  0  0  0  0  0
   -0.6909   -1.1516    0.3634 N   0  0  0  0  0  0  0  0  0  0  0  0
   -1.2579   -2.0891   -0.5858 C   0  0  0  0  0  0  0  0  0  0  0  0
   -0.1324   -2.7535   -1.3477 C   0  0  0  0  0  0  0  0  0  0  0  0
    0.7781   -1.8976   -1.8951 O   0  0  0  0  0  0  0  0  0  0  0  0
    1.1048   -0.7868   -1.1349 C   0  0  1  0  0  0  0  0  0  0  0  0
    0.3896    0.3923   -1.7700 C   0  0  0  0  0  0  0  0  0  0  0  0
    0.7362   -1.0033    0.2914 C   0  0  1  0  0  0  0  0  0  0  0  0
    1.3092   -0.0365    1.2631 C   0  0  0  0  0  0  0  0  0  0  0  0
    2.7850    0.0310    1.0978 C   0  0  0  0  0  0  0  0  0  0  0  0
    3.6278   -0.8307    1.8105 C   0  0  0  0  0  0  0  0  0  0  0  0
    4.9995   -0.7991    1.6893 C   0  0  0  0  0  0  0  0  0  0  0  0
    5.5928    0.1102    0.8367 C   0  0  0  0  0  0  0  0  0  0  0  0
    4.7992    0.9773    0.1158 C   0  0  0  0  0  0  0  0  0  0  0  0
    5.3947    1.9268   -0.7726 N   0  0  0  0  0  0  0  0  0  0  0  0
    5.0631    3.1976   -0.8593 N   0  0  0  0  0  0  0  0  0  0  0  0
    5.8225    3.8176   -1.8009 C   0  0  0  0  0  0  0  0  0  0  0  0
    6.6571    2.8516   -2.3039 C   0  0  0  0  0  0  0  0  0  0  0  0
    6.3541    1.7137   -1.6406 N   0  0  0  0  0  0  0  0  0  0  0  0
    3.4205    0.9195    0.2609 C   0  0  0  0  0  0  0  0  0  0  0  0
   -3.7712    0.0570    0.4222 C   0  0  0  0  0  0  0  0  0  0  0  0
   -3.1515    1.0826   -0.3417 N   0  0  0  0  0  0  0  0  0  0  0  0
   -3.4187    1.3283   -1.6153 N   0  0  0  0  0  0  0  0  0  0  0  0
   -2.6668    2.3688   -2.0586 C   0  0  0  0  0  0  0  0  0  0  0  0
   -1.9039    2.7726   -0.9928 C   0  0  0  0  0  0  0  0  0  0  0  0
   -2.2391    1.9594    0.0172 N   0  0  0  0  0  0  0  0  0  0  0  0
   -5.1573   -0.1461    0.3528 C   0  0  0  0  0  0  0  0  0  0  0  0
   -7.4802   -2.0418    0.1929 H   0  0  0  0  0  0  0  0  0  0  0  0
   -7.6608   -0.3069    0.8105 H   0  0  0  0  0  0  0  0  0  0  0  0
   -7.5770   -1.7245    1.9487 H   0  0  0  0  0  0  0  0  0  0  0  0
   -5.4533   -2.7025    2.4867 H   0  0  0  0  0  0  0  0  0  0  0  0
   -2.9699   -2.3305    2.6043 H   0  0  0  0  0  0  0  0  0  0  0  0
   -2.0351   -1.6604   -1.2267 H   0  0  0  0  0  0  0  0  0  0  0  0
   -1.7146   -2.9045    0.0456 H   0  0  0  0  0  0  0  0  0  0  0  0
   -0.6221   -3.3164   -2.1881 H   0  0  0  0  0  0  0  0  0  0  0  0
    0.3179   -3.5355   -0.6958 H   0  0  0  0  0  0  0  0  0  0  0  0
    2.1977   -0.5805   -1.2543 H   0  0  0  0  0  0  0  0  0  0  0  0
   -0.7069    0.2529   -1.7798 H   0  0  0  0  0  0  0  0  0  0  0  0
    0.6896    0.3668   -2.8591 H   0  0  0  0  0  0  0  0  0  0  0  0
    0.7077    1.3652   -1.3908 H   0  0  0  0  0  0  0  0  0  0  0  0
    1.1551   -2.0169    0.5690 H   0  0  0  0  0  0  0  0  0  0  0  0
    1.1276   -0.3865    2.2994 H   0  0  0  0  0  0  0  0  0  0  0  0
    0.9160    0.9941    1.1553 H   0  0  0  0  0  0  0  0  0  0  0  0
    3.1435   -1.5499    2.4857 H   0  0  0  0  0  0  0  0  0  0  0  0
    5.5914   -1.5082    2.2825 H   0  0  0  0  0  0  0  0  0  0  0  0
    6.6783    0.1411    0.7355 H   0  0  0  0  0  0  0  0  0  0  0  0
    5.7732    4.8574   -2.0890 H   0  0  0  0  0  0  0  0  0  0  0  0
    7.3961    3.0108   -3.0766 H   0  0  0  0  0  0  0  0  0  0  0  0
    2.8334    1.6145   -0.3194 H   0  0  0  0  0  0  0  0  0  0  0  0
   -2.6353    2.8258   -3.0380 H   0  0  0  0  0  0  0  0  0  0  0  0
   -1.1932    3.5904   -1.0265 H   0  0  0  0  0  0  0  0  0  0  0  0
   -5.7622    0.4806   -0.2893 H   0  0  0  0  0  0  0  0  0  0  0  0
  1  2  1  0
  2  3  2  0
  3  4  1  0
  4  5  2  0
  5  6  1  0
  6  7  2  0
  6  8  1  0
  8  9  1  0
  9 10  1  0
 10 11  1  0
 11 12  1  0
 12 13  1  0
 12 14  1  0
 14 15  1  0
 15 16  1  0
 16 17  2  0
 17 18  1  0
 18 19  2  0
 19 20  1  0
 20 21  1  0
 21 22  1  0
 22 23  2  0
 23 24  1  0
 24 25  2  0
 20 26  2  0
  5 27  1  0
 27 28  1  0
 28 29  1  0
 29 30  2  0
 30 31  1  0
 31 32  2  0
 27 33  2  0
 33  2  1  0
 14  8  1  0
 26 16  1  0
 32 28  1  0
 25 21  1  0
  1 34  1  0
  1 35  1  0
  1 36  1  0
  3 37  1  0
  4 38  1  0
  9 39  1  0
  9 40  1  0
 10 41  1  0
 10 42  1  0
 12 43  1  1
 13 44  1  0
 13 45  1  0
 13 46  1  0
 14 47  1  1
 15 48  1  0
 15 49  1  0
 17 50  1  0
 18 51  1  0
 19 52  1  0
 23 53  1  0
 24 54  1  0
 26 55  1  0
 30 56  1  0
 31 57  1  0
 33 58  1  0
M  END
$$$$
