
     RDKit          3D

 57 61  0  0  0  0  0  0  0  0999 V2000
    4.5698    0.9916    1.1211 C   0  0  0  0  0  0  0  0  0  0  0  0
    3.3597    0.3151    0.6680 N   0  0  0  0  0  0  0  0  0  0  0  0
    2.1389    0.8588    0.9109 C   0  0  0  0  0  0  0  0  0  0  0  0
    2.1306    1.9505    1.5393 O   0  0  0  0  0  0  0  0  0  0  0  0
    0.9385    0.3089    0.5291 C   0  0  0  0  0  0  0  0  0  0  0  0
    1.0344   -0.8989   -0.1538 C   0  0  0  0  0  0  0  0  0  0  0  0
   -0.2078   -1.2648   -0.4091 N   0  0  0  0  0  0  0  0  0  0  0  0
   -1.0832   -0.3385    0.0844 C   0  0  0  0  0  0  0  0  0  0  0  0
   -2.4728   -0.6097   -0.0519 N   0  0  0  0  0  0  0  0  0  0  0  0
   -2.9837   -1.2042   -1.3028 C   0  0  0  0  0  0  0  0  0  0  0  0
   -4.4813   -1.0636   -1.3050 C   0  0  0  0  0  0  0  0  0  0  0  0
   -5.1260   -1.8346   -0.1759 C   0  0  0  0  0  0  0  0  0  0  0  0
   -4.3331   -1.6454    1.0883 C   0  0  1  0  0  0  0  0  0  0  0  0
   -3.4867   -2.8301    1.2501 N   0  0  0  0  0  0  0  0  0  0  0  0
   -3.4594   -0.3947    0.9789 C   0  0  0  0  0  0  0  0  0  0  0  0
   -0.3856    0.6500    0.6672 N   0  0  0  0  0  0  0  0  0  0  0  0
   -0.8803    1.8347    1.2475 C   0  0  0  0  0  0  0  0  0  0  0  0
   -0.8872    3.1078    0.5317 C   0  0  0  0  0  0  0  0  0  0  0  0
   -0.0578    4.1200    0.9798 C   0  0  0  0  0  0  0  0  0  0  0  0
    0.0071    5.3657    0.4313 C   0  0  0  0  0  0  0  0  0  0  0  0
    0.8625    6.3262    0.9309 F   0  0  0  0  0  0  0  0  0  0  0  0
   -0.8070    5.6392   -0.6400 C   0  0  0  0  0  0  0  0  0  0  0  0
   -1.6581    4.6904   -1.1418 C   0  0  0  0  0  0  0  0  0  0  0  0
   -1.6847    3.4236   -0.5394 C   0  0  0  0  0  0  0  0  0  0  0  0
   -2.8282    2.2717   -1.2273 Cl  0  0  0  0  0  0  0  0  0  0  0  0
    2.2793   -1.4579   -0.4038 C   0  0  0  0  0  0  0  0  0  0  0  0
    2.3097   -2.6597   -1.0822 C   0  0  0  0  0  0  0  0  0  0  0  0
    3.5347   -3.2368   -1.3379 C   0  0  0  0  0  0  0  0  0  0  0  0
    4.7338   -2.6661   -0.9455 C   0  0  0  0  0  0  0  0  0  0  0  0
    6.0160   -3.2822   -1.2132 C   0  0  0  0  0  0  0  0  0  0  0  0
    7.0614   -2.7168   -0.8398 O   0  0  0  0  0  0  0  0  0  0  0  0
    6.0724   -4.4833   -1.8749 O   0  0  0  0  0  0  0  0  0  0  0  0
    4.6285   -1.4568   -0.2675 C   0  0  0  0  0  0  0  0  0  0  0  0
    3.4366   -0.8453    0.0098 C   0  0  0  0  0  0  0  0  0  0  0  0
    4.2759    2.0207    1.4120 H   0  0  0  0  0  0  0  0  0  0  0  0
    4.9753    0.5112    2.0246 H   0  0  0  0  0  0  0  0  0  0  0  0
    5.2962    1.0777    0.3041 H   0  0  0  0  0  0  0  0  0  0  0  0
   -2.6549   -2.2431   -1.4233 H   0  0  0  0  0  0  0  0  0  0  0  0
   -2.6067   -0.5671   -2.1431 H   0  0  0  0  0  0  0  0  0  0  0  0
   -4.8919   -1.4614   -2.2531 H   0  0  0  0  0  0  0  0  0  0  0  0
   -4.7415   -0.0005   -1.2499 H   0  0  0  0  0  0  0  0  0  0  0  0
   -6.1722   -1.5115   -0.0947 H   0  0  0  0  0  0  0  0  0  0  0  0
   -5.1467   -2.9274   -0.4630 H   0  0  0  0  0  0  0  0  0  0  0  0
   -4.9778   -1.5329    1.9737 H   0  0  0  0  0  0  0  0  0  0  0  0
   -4.1612   -3.6234    1.4644 H   0  0  0  0  0  0  0  0  0  0  0  0
   -2.9771   -2.6895    2.1737 H   0  0  0  0  0  0  0  0  0  0  0  0
   -2.9723   -0.3264    1.9864 H   0  0  0  0  0  0  0  0  0  0  0  0
   -4.1299    0.4524    0.7997 H   0  0  0  0  0  0  0  0  0  0  0  0
   -0.4119    2.0168    2.2594 H   0  0  0  0  0  0  0  0  0  0  0  0
   -1.9794    1.6830    1.5481 H   0  0  0  0  0  0  0  0  0  0  0  0
    0.5755    3.9534    1.8417 H   0  0  0  0  0  0  0  0  0  0  0  0
   -0.7603    6.6246   -1.0798 H   0  0  0  0  0  0  0  0  0  0  0  0
   -2.3121    4.9060   -1.9981 H   0  0  0  0  0  0  0  0  0  0  0  0
    1.3880   -3.1051   -1.3867 H   0  0  0  0  0  0  0  0  0  0  0  0
    3.6010   -4.1951   -1.8762 H   0  0  0  0  0  0  0  0  0  0  0  0
    6.9476   -5.0254   -1.9195 H   0  0  0  0  0  0  0  0  0  0  0  0
    5.5455   -1.0017    0.0429 H   0  0  0  0  0  0  0  0  0  0  0  0
  1  2  1  0
  2  3  1  0
  3  4  2  0
  3  5  1  0
  5  6  2  0
  6  7  1  0
  7  8  2  0
  8  9  1  0
  9 10  1  0
 10 11  1  0
 11 12  1  0
 12 13  1  0
 13 14  1  0
 13 15  1  0
  8 16  1  0
 16 17  1  0
 17 18  1  0
 18 19  2  0
 19 20  1  0
 20 21  1  0
 20 22  2  0
 22 23  1  0
 23 24  2  0
 24 25  1  0
  6 26  1  0
 26 27  2  0
 27 28  1  0
 28 29  2  0
 29 30  1  0
 30 31  2  0
 30 32  1  0
 29 33  1  0
 33 34  2  0
 34  2  1  0
 16  5  1  0
 24 18  1  0
 34 26  1  0
 15  9  1  0
  1 35  1  0
  1 36  1  0
  1 37  1  0
 10 38  1  0
 10 39  1  0
 11 40  1  0
 11 41  1  0
 12 42  1  0
 12 43  1  0
 13 44  1  1
 14 45  1  0
 14 46  1  0
 15 47  1  0
 15 48  1  0
 17 49  1  0
 17 50  1  0
 19 51  1  0
 22 52  1  0
 23 53  1  0
 27 54  1  0
 28 55  1  0
 32 56  1  0
 33 57  1  0
M  END
$$$$
