
     RDKit          3D

 26 26  0  0  0  0  0  0  0  0999 V2000
   -4.8895    0.2813    0.0319 C   0  0  0  0  0  0  0  0  0  0  0  0
   -3.4536    0.3099    0.5101 C   0  0  0  0  0  0  0  0  0  0  0  0
   -2.6541   -0.2869   -0.5084 O   0  0  0  0  0  0  0  0  0  0  0  0
   -1.2702   -0.3825   -0.3061 C   0  0  0  0  0  0  0  0  0  0  0  0
   -0.7840    0.1175    0.8835 C   0  0  0  0  0  0  0  0  0  0  0  0
    0.5844    0.0418    1.1232 C   0  0  0  0  0  0  0  0  0  0  0  0
    1.3624   -0.5393    0.1316 C   0  0  0  0  0  0  0  0  0  0  0  0
    2.7845   -0.6571    0.2984 N   0  0  0  0  0  0  0  0  0  0  0  0
    3.4109    0.5101   -0.2226 C   0  0  0  0  0  0  0  0  0  0  0  0
    4.9074    0.6810   -0.1908 C   0  0  0  0  0  0  0  0  0  0  0  0
    2.6147    1.3812   -0.7086 O   0  0  0  0  0  0  0  0  0  0  0  0
    0.8470   -1.0327   -1.0528 C   0  0  0  0  0  0  0  0  0  0  0  0
   -0.5036   -0.9605   -1.2944 C   0  0  0  0  0  0  0  0  0  0  0  0
   -4.9909    1.0702   -0.7566 H   0  0  0  0  0  0  0  0  0  0  0  0
   -5.1084   -0.7342   -0.3429 H   0  0  0  0  0  0  0  0  0  0  0  0
   -5.5557    0.4694    0.8834 H   0  0  0  0  0  0  0  0  0  0  0  0
   -3.3866   -0.3824    1.3849 H   0  0  0  0  0  0  0  0  0  0  0  0
   -3.1104    1.3259    0.7056 H   0  0  0  0  0  0  0  0  0  0  0  0
   -1.4177    0.5646    1.6364 H   0  0  0  0  0  0  0  0  0  0  0  0
    1.0697    0.3961    2.0071 H   0  0  0  0  0  0  0  0  0  0  0  0
    3.3609   -1.4205    0.7150 H   0  0  0  0  0  0  0  0  0  0  0  0
    5.3129   -0.1320   -0.8274 H   0  0  0  0  0  0  0  0  0  0  0  0
    5.1399    1.6919   -0.5463 H   0  0  0  0  0  0  0  0  0  0  0  0
    5.2037    0.5064    0.8774 H   0  0  0  0  0  0  0  0  0  0  0  0
    1.4612   -1.4837   -1.8193 H   0  0  0  0  0  0  0  0  0  0  0  0
   -0.9347   -1.3353   -2.2056 H   0  0  0  0  0  0  0  0  0  0  0  0
  1  2  1  0
  2  3  1  0
  3  4  1  0
  4  5  2  0
  5  6  1  0
  6  7  2  0
  7  8  1  0
  8  9  1  0
  9 10  1  0
  9 11  2  0
  7 12  1  0
 12 13  2  0
 13  4  1  0
  1 14  1  0
  1 15  1  0
  1 16  1  0
  2 17  1  0
  2 18  1  0
  5 19  1  0
  6 20  1  0
  8 21  1  0
 10 22  1  0
 10 23  1  0
 10 24  1  0
 12 25  1  0
 13 26  1  0
M  END
$$$$
