
     RDKit          3D

 42 44  0  0  0  0  0  0  0  0999 V2000
   -4.7004    1.9107   -0.3304 N   0  0  0  0  0  0  0  0  0  0  0  0
   -4.4128    0.5592   -0.7169 C   0  0  0  0  0  0  0  0  0  0  0  0
   -2.9879    0.1595   -0.4512 C   0  0  0  0  0  0  0  0  0  0  0  0
   -2.8154   -1.2811   -0.9012 C   0  0  0  0  0  0  0  0  0  0  0  0
   -1.8217   -1.9643   -0.0068 C   0  0  0  0  0  0  0  0  0  0  0  0
   -0.7278   -0.9711    0.3992 C   0  0  0  0  0  0  0  0  0  0  0  0
    0.3840   -1.7413    0.8598 N   0  0  0  0  0  0  0  0  0  0  0  0
    1.5109   -0.9849    1.2821 C   0  0  1  0  0  0  0  0  0  0  0  0
    2.7495   -1.6160    1.7873 C   0  0  0  0  0  0  0  0  0  0  0  0
    2.7460   -1.1517    0.3845 C   0  0  2  0  0  0  0  0  0  0  0  0
    3.3592    0.1367   -0.0005 C   0  0  0  0  0  0  0  0  0  0  0  0
    3.4736    1.2029    0.8660 C   0  0  0  0  0  0  0  0  0  0  0  0
    4.0545    2.3933    0.4672 C   0  0  0  0  0  0  0  0  0  0  0  0
    4.5425    2.5619   -0.8121 C   0  0  0  0  0  0  0  0  0  0  0  0
    4.4343    1.5078   -1.6837 C   0  0  0  0  0  0  0  0  0  0  0  0
    3.8461    0.3051   -1.2769 C   0  0  0  0  0  0  0  0  0  0  0  0
   -1.2970   -0.0274    1.3964 C   0  0  0  0  0  0  0  0  0  0  0  0
   -2.7731    0.1788    1.0477 C   0  0  0  0  0  0  0  0  0  0  0  0
   -4.4437    2.5400   -1.1427 H   0  0  0  0  0  0  0  0  0  0  0  0
   -5.7192    2.0046   -0.1957 H   0  0  0  0  0  0  0  0  0  0  0  0
   -5.1423   -0.1539   -0.2579 H   0  0  0  0  0  0  0  0  0  0  0  0
   -4.5738    0.4801   -1.8199 H   0  0  0  0  0  0  0  0  0  0  0  0
   -2.3348    0.8466   -0.9941 H   0  0  0  0  0  0  0  0  0  0  0  0
   -2.5502   -1.3482   -1.9742 H   0  0  0  0  0  0  0  0  0  0  0  0
   -3.7928   -1.8075   -0.7795 H   0  0  0  0  0  0  0  0  0  0  0  0
   -2.2858   -2.3175    0.9324 H   0  0  0  0  0  0  0  0  0  0  0  0
   -1.2979   -2.8056   -0.5006 H   0  0  0  0  0  0  0  0  0  0  0  0
   -0.3964   -0.3818   -0.4898 H   0  0  0  0  0  0  0  0  0  0  0  0
    0.6614   -2.4929    0.1970 H   0  0  0  0  0  0  0  0  0  0  0  0
    1.3004    0.0270    1.6948 H   0  0  0  0  0  0  0  0  0  0  0  0
    3.3656   -1.0682    2.5425 H   0  0  0  0  0  0  0  0  0  0  0  0
    2.7800   -2.7118    1.9539 H   0  0  0  0  0  0  0  0  0  0  0  0
    2.7133   -1.9223   -0.3952 H   0  0  0  0  0  0  0  0  0  0  0  0
    3.0849    1.0542    1.8690 H   0  0  0  0  0  0  0  0  0  0  0  0
    4.1288    3.2033    1.1634 H   0  0  0  0  0  0  0  0  0  0  0  0
    5.0028    3.4966   -1.1380 H   0  0  0  0  0  0  0  0  0  0  0  0
    4.8170    1.6351   -2.6928 H   0  0  0  0  0  0  0  0  0  0  0  0
    3.7747   -0.5057   -1.9827 H   0  0  0  0  0  0  0  0  0  0  0  0
   -0.8431    1.0015    1.3291 H   0  0  0  0  0  0  0  0  0  0  0  0
   -1.2650   -0.3785    2.4414 H   0  0  0  0  0  0  0  0  0  0  0  0
   -3.1780    1.0955    1.4947 H   0  0  0  0  0  0  0  0  0  0  0  0
   -3.3702   -0.6686    1.4670 H   0  0  0  0  0  0  0  0  0  0  0  0
  1  2  1  0
  2  3  1  0
  3  4  1  0
  4  5  1  0
  5  6  1  0
  6  7  1  0
  7  8  1  0
  8  9  1  0
  9 10  1  0
 10 11  1  0
 11 12  2  0
 12 13  1  0
 13 14  2  0
 14 15  1  0
 15 16  2  0
  6 17  1  0
 17 18  1  0
 18  3  1  0
 10  8  1  0
 16 11  1  0
  1 19  1  0
  1 20  1  0
  2 21  1  0
  2 22  1  0
  3 23  1  0
  4 24  1  0
  4 25  1  0
  5 26  1  0
  5 27  1  0
  6 28  1  0
  7 29  1  0
  8 30  1  1
  9 31  1  0
  9 32  1  0
 10 33  1  6
 12 34  1  0
 13 35  1  0
 14 36  1  0
 15 37  1  0
 16 38  1  0
 17 39  1  0
 17 40  1  0
 18 41  1  0
 18 42  1  0
M  END
$$$$
