
     RDKit          3D

 61 65  0  0  0  0  0  0  0  0999 V2000
   -3.8039    2.5882   -2.4383 O   0  0  0  0  0  0  0  0  0  0  0  0
   -4.2986    1.9508   -1.3142 C   0  0  0  0  0  0  0  0  0  0  0  0
   -3.2482    1.0518   -0.7649 C   0  0  0  0  0  0  0  0  0  0  0  0
   -3.2965   -0.2724   -0.5476 N   0  0  0  0  0  0  0  0  0  0  0  0
   -2.1026   -0.7036   -0.0275 C   0  0  0  0  0  0  0  0  0  0  0  0
   -1.7763   -2.0803    0.3402 C   0  0  0  0  0  0  0  0  0  0  0  0
   -2.2069   -2.6194    1.5378 C   0  0  0  0  0  0  0  0  0  0  0  0
   -1.9223   -3.9177    1.9073 C   0  0  0  0  0  0  0  0  0  0  0  0
   -1.1848   -4.7388    1.0808 C   0  0  0  0  0  0  0  0  0  0  0  0
   -0.8837   -6.0188    1.4051 F   0  0  0  0  0  0  0  0  0  0  0  0
   -0.7509   -4.2096   -0.1165 C   0  0  0  0  0  0  0  0  0  0  0  0
   -1.0404   -2.8952   -0.4882 C   0  0  0  0  0  0  0  0  0  0  0  0
   -1.3475    0.4419    0.0496 C   0  0  0  0  0  0  0  0  0  0  0  0
    0.0104    0.5119    0.5433 C   0  0  0  0  0  0  0  0  0  0  0  0
    0.2463    1.3438    1.6427 C   0  0  0  0  0  0  0  0  0  0  0  0
    1.5410    1.4116    2.1203 C   0  0  0  0  0  0  0  0  0  0  0  0
    2.5518    0.7221    1.5768 N   0  0  0  0  0  0  0  0  0  0  0  0
    2.3663   -0.0879    0.5200 C   0  0  0  0  0  0  0  0  0  0  0  0
    3.4291   -0.8294   -0.0613 N   0  0  0  0  0  0  0  0  0  0  0  0
    4.7624   -0.6945    0.5193 C   0  0  0  0  0  0  0  0  0  0  0  0
    5.2516    0.7324    0.4033 C   0  0  0  0  0  0  0  0  0  0  0  0
    6.1568    0.9117   -0.8012 C   0  0  0  0  0  0  0  0  0  0  0  0
    7.4256    0.1219   -0.6763 C   0  0  0  0  0  0  0  0  0  0  0  0
    7.1445   -1.0904    0.1891 C   0  0  0  0  0  0  0  0  0  0  0  0
    5.7576   -1.5946   -0.1792 C   0  0  0  0  0  0  0  0  0  0  0  0
    1.0765   -0.1769    0.0162 C   0  0  0  0  0  0  0  0  0  0  0  0
   -2.0697    1.4438   -0.3970 O   0  0  0  0  0  0  0  0  0  0  0  0
   -5.5247    1.1151   -1.6878 C   0  0  0  0  0  0  0  0  0  0  0  0
   -6.4125    0.9442   -0.4760 C   0  0  0  0  0  0  0  0  0  0  0  0
   -7.0334    2.2139   -0.2174 N   0  0  0  0  0  0  0  0  0  0  0  0
   -6.1194    3.3135   -0.2166 C   0  0  0  0  0  0  0  0  0  0  0  0
   -4.6636    2.9143   -0.2056 C   0  0  0  0  0  0  0  0  0  0  0  0
   -3.2811    3.3734   -2.1569 H   0  0  0  0  0  0  0  0  0  0  0  0
   -2.7891   -2.0054    2.2151 H   0  0  0  0  0  0  0  0  0  0  0  0
   -2.2534   -4.3572    2.8471 H   0  0  0  0  0  0  0  0  0  0  0  0
   -0.1641   -4.8545   -0.7800 H   0  0  0  0  0  0  0  0  0  0  0  0
   -0.6820   -2.5076   -1.4425 H   0  0  0  0  0  0  0  0  0  0  0  0
   -0.5760    1.8945    2.0730 H   0  0  0  0  0  0  0  0  0  0  0  0
    1.7788    2.0461    2.9752 H   0  0  0  0  0  0  0  0  0  0  0  0
    3.2315   -1.4418   -0.8745 H   0  0  0  0  0  0  0  0  0  0  0  0
    4.6874   -1.0374    1.5688 H   0  0  0  0  0  0  0  0  0  0  0  0
    4.3623    1.3680    0.2020 H   0  0  0  0  0  0  0  0  0  0  0  0
    5.7991    1.0732    1.2944 H   0  0  0  0  0  0  0  0  0  0  0  0
    6.4088    1.9975   -0.8314 H   0  0  0  0  0  0  0  0  0  0  0  0
    5.6630    0.6472   -1.7411 H   0  0  0  0  0  0  0  0  0  0  0  0
    8.2528    0.7298   -0.2823 H   0  0  0  0  0  0  0  0  0  0  0  0
    7.7720   -0.2547   -1.6703 H   0  0  0  0  0  0  0  0  0  0  0  0
    7.1184   -0.7590    1.2594 H   0  0  0  0  0  0  0  0  0  0  0  0
    7.9084   -1.8800    0.0946 H   0  0  0  0  0  0  0  0  0  0  0  0
    5.6255   -2.6468    0.0858 H   0  0  0  0  0  0  0  0  0  0  0  0
    5.6421   -1.5265   -1.2984 H   0  0  0  0  0  0  0  0  0  0  0  0
    0.9107   -0.8187   -0.8367 H   0  0  0  0  0  0  0  0  0  0  0  0
   -5.2489    0.1293   -2.0615 H   0  0  0  0  0  0  0  0  0  0  0  0
   -6.1338    1.6449   -2.4602 H   0  0  0  0  0  0  0  0  0  0  0  0
   -5.8720    0.5993    0.4147 H   0  0  0  0  0  0  0  0  0  0  0  0
   -7.2245    0.2356   -0.7428 H   0  0  0  0  0  0  0  0  0  0  0  0
   -7.8733    2.4132   -0.7908 H   0  0  0  0  0  0  0  0  0  0  0  0
   -6.2750    3.8662    0.7577 H   0  0  0  0  0  0  0  0  0  0  0  0
   -6.2899    4.0686   -1.0079 H   0  0  0  0  0  0  0  0  0  0  0  0
   -4.0455    3.8095   -0.2521 H   0  0  0  0  0  0  0  0  0  0  0  0
   -4.4862    2.3899    0.7605 H   0  0  0  0  0  0  0  0  0  0  0  0
  1  2  1  0
  2  3  1  0
  3  4  2  0
  4  5  1  0
  5  6  1  0
  6  7  2  0
  7  8  1  0
  8  9  2  0
  9 10  1  0
  9 11  1  0
 11 12  2  0
  5 13  2  0
 13 14  1  0
 14 15  2  0
 15 16  1  0
 16 17  2  0
 17 18  1  0
 18 19  1  0
 19 20  1  0
 20 21  1  0
 21 22  1  0
 22 23  1  0
 23 24  1  0
 24 25  1  0
 18 26  2  0
 13 27  1  0
  2 28  1  0
 28 29  1  0
 29 30  1  0
 30 31  1  0
 31 32  1  0
 32  2  1  0
 27  3  1  0
 12  6  1  0
 26 14  1  0
 25 20  1  0
  1 33  1  0
  7 34  1  0
  8 35  1  0
 11 36  1  0
 12 37  1  0
 15 38  1  0
 16 39  1  0
 19 40  1  0
 20 41  1  0
 21 42  1  0
 21 43  1  0
 22 44  1  0
 22 45  1  0
 23 46  1  0
 23 47  1  0
 24 48  1  0
 24 49  1  0
 25 50  1  0
 25 51  1  0
 26 52  1  0
 28 53  1  0
 28 54  1  0
 29 55  1  0
 29 56  1  0
 30 57  1  0
 31 58  1  0
 31 59  1  0
 32 60  1  0
 32 61  1  0
M  END
$$$$
