
     RDKit          3D

 52 55  0  0  0  0  0  0  0  0999 V2000
   -4.2578   -0.9351    0.4365 C   0  0  0  0  0  0  0  0  0  0  0  0
   -3.2242   -0.6776   -0.6056 C   0  0  0  0  0  0  0  0  0  0  0  0
   -1.8409   -1.0575   -0.3487 C   0  0  0  0  0  0  0  0  0  0  0  0
   -1.0072   -0.0161   -0.0654 C   0  0  0  0  0  0  0  0  0  0  0  0
    0.3883   -0.1402    0.2222 C   0  0  0  0  0  0  0  0  0  0  0  0
    1.2783    0.7551   -0.3187 C   0  0  0  0  0  0  0  0  0  0  0  0
    2.6336    0.7175   -0.0649 C   0  0  0  0  0  0  0  0  0  0  0  0
    3.1251   -0.2568    0.7659 C   0  0  0  0  0  0  0  0  0  0  0  0
    4.5340   -0.3272    1.0658 C   0  0  0  0  0  0  0  0  0  0  0  0
    5.4430    0.4957    0.6193 C   0  0  0  0  0  0  0  0  0  0  0  0
    6.8556    0.3636    0.9657 C   0  0  0  0  0  0  0  0  0  0  0  0
    7.2651   -0.5591    1.7143 O   0  0  0  0  0  0  0  0  0  0  0  0
    7.7570    1.2702    0.4613 O   0  0  0  0  0  0  0  0  0  0  0  0
    2.2446   -1.1736    1.3246 C   0  0  0  0  0  0  0  0  0  0  0  0
    0.8918   -1.1048    1.0478 C   0  0  0  0  0  0  0  0  0  0  0  0
   -1.5825    1.3397   -0.0230 C   0  0  0  0  0  0  0  0  0  0  0  0
   -2.1653    1.7545    1.1380 C   0  0  0  0  0  0  0  0  0  0  0  0
   -2.7224    2.9960    1.2201 C   0  0  0  0  0  0  0  0  0  0  0  0
   -2.6896    3.8359    0.1058 C   0  0  0  0  0  0  0  0  0  0  0  0
   -3.1408    5.0807   -0.1152 N   0  0  0  0  0  0  0  0  0  0  0  0
   -2.8495    5.4219   -1.3607 N   0  0  0  0  0  0  0  0  0  0  0  0
   -2.2050    4.4124   -1.9768 C   0  0  0  0  0  0  0  0  0  0  0  0
   -2.0963    3.3989   -1.0596 C   0  0  0  0  0  0  0  0  0  0  0  0
   -1.5351    2.1397   -1.1325 C   0  0  0  0  0  0  0  0  0  0  0  0
   -1.1862   -2.3221   -0.4828 C   0  0  0  0  0  0  0  0  0  0  0  0
   -0.0486   -2.4114   -1.3275 C   0  0  0  0  0  0  0  0  0  0  0  0
    0.6469   -3.5774   -1.5192 C   0  0  0  0  0  0  0  0  0  0  0  0
    0.2248   -4.7137   -0.8642 C   0  0  0  0  0  0  0  0  0  0  0  0
    0.9039   -5.8734   -1.0448 F   0  0  0  0  0  0  0  0  0  0  0  0
   -0.8729   -4.6678   -0.0373 C   0  0  0  0  0  0  0  0  0  0  0  0
   -1.5790   -3.4613    0.1516 C   0  0  0  0  0  0  0  0  0  0  0  0
   -2.9170   -3.5613    1.2533 Cl  0  0  0  0  0  0  0  0  0  0  0  0
   -5.0278   -0.0628    0.4314 H   0  0  0  0  0  0  0  0  0  0  0  0
   -4.9258   -1.7956    0.2223 H   0  0  0  0  0  0  0  0  0  0  0  0
   -3.8960   -0.8848    1.4755 H   0  0  0  0  0  0  0  0  0  0  0  0
   -3.3162    0.4164   -0.9041 H   0  0  0  0  0  0  0  0  0  0  0  0
   -3.5393   -1.1790   -1.5935 H   0  0  0  0  0  0  0  0  0  0  0  0
    0.9395    1.5426   -0.9762 H   0  0  0  0  0  0  0  0  0  0  0  0
    3.2538    1.4783   -0.5467 H   0  0  0  0  0  0  0  0  0  0  0  0
    4.8907   -1.1260    1.7172 H   0  0  0  0  0  0  0  0  0  0  0  0
    5.1572    1.3129   -0.0303 H   0  0  0  0  0  0  0  0  0  0  0  0
    8.7648    1.1098    0.4333 H   0  0  0  0  0  0  0  0  0  0  0  0
    2.6258   -1.9414    1.9752 H   0  0  0  0  0  0  0  0  0  0  0  0
    0.2680   -1.8570    1.5360 H   0  0  0  0  0  0  0  0  0  0  0  0
   -2.1874    1.1091    1.9858 H   0  0  0  0  0  0  0  0  0  0  0  0
   -3.2008    3.3851    2.1138 H   0  0  0  0  0  0  0  0  0  0  0  0
   -3.6418    5.6708    0.6000 H   0  0  0  0  0  0  0  0  0  0  0  0
   -1.8348    4.3868   -3.0015 H   0  0  0  0  0  0  0  0  0  0  0  0
   -1.0987    1.8656   -2.0788 H   0  0  0  0  0  0  0  0  0  0  0  0
    0.2170   -1.4825   -1.8101 H   0  0  0  0  0  0  0  0  0  0  0  0
    1.5009   -3.5472   -2.1810 H   0  0  0  0  0  0  0  0  0  0  0  0
   -1.2208   -5.5467    0.4861 H   0  0  0  0  0  0  0  0  0  0  0  0
  1  2  1  0
  2  3  1  0
  3  4  2  0
  4  5  1  0
  5  6  2  0
  6  7  1  0
  7  8  2  0
  8  9  1  0
  9 10  2  0
 10 11  1  0
 11 12  2  0
 11 13  1  0
  8 14  1  0
 14 15  2  0
  4 16  1  0
 16 17  2  0
 17 18  1  0
 18 19  2  0
 19 20  1  0
 20 21  1  0
 21 22  2  0
 22 23  1  0
 23 24  2  0
  3 25  1  0
 25 26  2  0
 26 27  1  0
 27 28  2  0
 28 29  1  0
 28 30  1  0
 30 31  2  0
 31 32  1  0
 15  5  1  0
 24 16  1  0
 31 25  1  0
 23 19  1  0
  1 33  1  0
  1 34  1  0
  1 35  1  0
  2 36  1  0
  2 37  1  0
  6 38  1  0
  7 39  1  0
  9 40  1  0
 10 41  1  0
 13 42  1  0
 14 43  1  0
 15 44  1  0
 17 45  1  0
 18 46  1  0
 20 47  1  0
 22 48  1  0
 24 49  1  0
 26 50  1  0
 27 51  1  0
 30 52  1  0
M  END
$$$$
