
     RDKit          3D

 59 62  0  0  0  0  0  0  0  0999 V2000
    1.5365    0.9731    0.3474 C   0  0  1  0  0  0  0  0  0  0  0  0
    0.1681    0.9174   -0.2366 C   0  0  2  0  0  0  0  0  0  0  0  0
   -0.6225    2.1368    0.0316 C   0  0  0  0  0  0  0  0  0  0  0  0
   -1.8226    2.3748   -0.4881 C   0  0  0  0  0  0  0  0  0  0  0  0
   -2.4619    3.6746   -0.0910 C   0  0  0  0  0  0  0  0  0  0  0  0
   -1.6096    4.3444    0.7601 O   0  0  0  0  0  0  0  0  0  0  0  0
   -2.6553    1.5365   -1.4251 C   0  0  0  0  0  0  0  0  0  0  0  0
   -2.4900    0.0670   -1.1317 C   0  0  2  0  0  0  0  0  0  0  0  0
   -1.8162   -0.6025   -2.1582 O   0  0  0  0  0  0  0  0  0  0  0  0
   -3.8507   -0.5346   -1.0903 C   0  0  0  0  0  0  0  0  0  0  0  0
   -4.9405   -0.2207   -1.6596 O   0  0  0  0  0  0  0  0  0  0  0  0
   -3.7336   -1.6914   -0.1790 C   0  0  0  0  0  0  0  0  0  0  0  0
   -4.6969   -2.8421   -0.1632 C   0  0  0  0  0  0  0  0  0  0  0  0
   -2.6433   -1.4932    0.5810 C   0  0  0  0  0  0  0  0  0  0  0  0
   -1.9853   -0.2272    0.2323 C   0  0  1  0  0  0  0  0  0  0  0  0
   -0.5046   -0.2730    0.3753 C   0  0  2  0  0  0  0  0  0  0  0  0
   -0.2527   -0.1677    1.7617 O   0  0  0  0  0  0  0  0  0  0  0  0
    0.1835   -1.4926   -0.1042 C   0  0  2  0  0  0  0  0  0  0  0  0
    0.4593   -2.4511    1.0369 C   0  0  0  0  0  0  0  0  0  0  0  0
    1.5052   -1.2268   -0.8393 C   0  0  1  0  0  0  0  0  0  0  0  0
    1.2998   -1.0643   -2.2187 O   0  0  0  0  0  0  0  0  0  0  0  0
    2.3572   -0.1918   -0.2016 C   0  0  2  0  0  0  0  0  0  0  0  0
    3.1998   -0.7058    0.8454 O   0  0  0  0  0  0  0  0  0  0  0  0
    4.0523   -1.7375    0.5144 C   0  0  0  0  0  0  0  0  0  0  0  0
    4.9018   -2.2588    1.5999 C   0  0  0  0  0  0  0  0  0  0  0  0
    4.2358   -2.3227   -0.5712 O   0  0  0  0  0  0  0  0  0  0  0  0
    2.6921    1.1250   -0.6589 C   0  0  0  0  0  0  0  0  0  0  0  0
    3.8969    1.8268   -0.0581 C   0  0  0  0  0  0  0  0  0  0  0  0
    2.2466    1.8014   -1.9086 C   0  0  0  0  0  0  0  0  0  0  0  0
    1.6755    1.3432    1.3588 H   0  0  0  0  0  0  0  0  0  0  0  0
    0.1915    0.7760   -1.3346 H   0  0  0  0  0  0  0  0  0  0  0  0
   -0.2293    2.9063    0.6888 H   0  0  0  0  0  0  0  0  0  0  0  0
   -3.4755    3.5208    0.3204 H   0  0  0  0  0  0  0  0  0  0  0  0
   -2.5172    4.2678   -1.0298 H   0  0  0  0  0  0  0  0  0  0  0  0
   -1.7617    5.3114    0.7734 H   0  0  0  0  0  0  0  0  0  0  0  0
   -2.2417    1.7126   -2.4467 H   0  0  0  0  0  0  0  0  0  0  0  0
   -3.6932    1.8911   -1.4042 H   0  0  0  0  0  0  0  0  0  0  0  0
   -2.4551   -0.9659   -2.8264 H   0  0  0  0  0  0  0  0  0  0  0  0
   -5.5761   -2.6044    0.4965 H   0  0  0  0  0  0  0  0  0  0  0  0
   -5.0838   -3.0535   -1.1606 H   0  0  0  0  0  0  0  0  0  0  0  0
   -4.2002   -3.7324    0.2654 H   0  0  0  0  0  0  0  0  0  0  0  0
   -2.4032   -2.2431    1.3076 H   0  0  0  0  0  0  0  0  0  0  0  0
   -2.3640    0.5683    0.9089 H   0  0  0  0  0  0  0  0  0  0  0  0
   -0.8307    0.5898    2.0613 H   0  0  0  0  0  0  0  0  0  0  0  0
   -0.4427   -2.0272   -0.8695 H   0  0  0  0  0  0  0  0  0  0  0  0
    0.5101   -1.9764    2.0216 H   0  0  0  0  0  0  0  0  0  0  0  0
   -0.2701   -3.2910    0.9929 H   0  0  0  0  0  0  0  0  0  0  0  0
    1.4562   -2.9639    0.8953 H   0  0  0  0  0  0  0  0  0  0  0  0
    2.0092   -2.2136   -0.8006 H   0  0  0  0  0  0  0  0  0  0  0  0
    0.7678   -1.8580   -2.4878 H   0  0  0  0  0  0  0  0  0  0  0  0
    4.7821   -1.7487    2.5647 H   0  0  0  0  0  0  0  0  0  0  0  0
    5.9690   -2.2481    1.3207 H   0  0  0  0  0  0  0  0  0  0  0  0
    4.6638   -3.3412    1.8126 H   0  0  0  0  0  0  0  0  0  0  0  0
    4.8143    1.6675   -0.6233 H   0  0  0  0  0  0  0  0  0  0  0  0
    4.0106    1.4290    0.9903 H   0  0  0  0  0  0  0  0  0  0  0  0
    3.6185    2.8838    0.0753 H   0  0  0  0  0  0  0  0  0  0  0  0
    3.1055    2.2533   -2.4624 H   0  0  0  0  0  0  0  0  0  0  0  0
    1.6185    2.6729   -1.6093 H   0  0  0  0  0  0  0  0  0  0  0  0
    1.7021    1.1996   -2.6382 H   0  0  0  0  0  0  0  0  0  0  0  0
  1  2  1  0
  2  3  1  0
  3  4  2  0
  4  5  1  0
  5  6  1  0
  4  7  1  0
  7  8  1  0
  8  9  1  6
  8 10  1  0
 10 11  2  0
 10 12  1  0
 12 13  1  0
 12 14  2  0
 14 15  1  0
 15 16  1  0
 16 17  1  1
 16 18  1  0
 18 19  1  0
 18 20  1  0
 20 21  1  0
 20 22  1  0
 22 23  1  1
 23 24  1  0
 24 25  1  0
 24 26  2  0
 22 27  1  0
 27 28  1  0
 27 29  1  0
 22  1  1  0
 27  1  1  0
 16  2  1  0
 15  8  1  0
  1 30  1  1
  2 31  1  6
  3 32  1  0
  5 33  1  0
  5 34  1  0
  6 35  1  0
  7 36  1  0
  7 37  1  0
  9 38  1  0
 13 39  1  0
 13 40  1  0
 13 41  1  0
 14 42  1  0
 15 43  1  1
 17 44  1  0
 18 45  1  6
 19 46  1  0
 19 47  1  0
 19 48  1  0
 20 49  1  6
 21 50  1  0
 25 51  1  0
 25 52  1  0
 25 53  1  0
 28 54  1  0
 28 55  1  0
 28 56  1  0
 29 57  1  0
 29 58  1  0
 29 59  1  0
M  END
$$$$
