
     RDKit          3D

 28 29  0  0  0  0  0  0  0  0999 V2000
    6.3143   -0.4012    0.4658 O   0  0  0  0  0  0  0  0  0  0  0  0
    5.1020    0.2435    0.6696 C   0  0  0  0  0  0  0  0  0  0  0  0
    5.2865    1.3797    1.2234 O   0  0  0  0  0  0  0  0  0  0  0  0
    3.8829   -0.4717    0.2287 C   0  0  0  0  0  0  0  0  0  0  0  0
    2.6804    0.2996    0.4934 N   0  0  0  0  0  0  0  0  0  0  0  0
    1.5233   -0.4013    0.0644 C   0  0  0  0  0  0  0  0  0  0  0  0
    1.7220   -1.5268   -0.4522 O   0  0  0  0  0  0  0  0  0  0  0  0
    0.1628    0.0920    0.1841 C   0  0  0  0  0  0  0  0  0  0  0  0
   -0.8339   -0.7346   -0.2911 C   0  0  0  0  0  0  0  0  0  0  0  0
   -0.5869   -1.9942   -0.8672 O   0  0  0  0  0  0  0  0  0  0  0  0
   -2.1535   -0.2862   -0.1892 C   0  0  0  0  0  0  0  0  0  0  0  0
   -3.1732   -1.0988   -0.6597 C   0  0  0  0  0  0  0  0  0  0  0  0
   -4.5056   -0.7220   -0.5928 C   0  0  0  0  0  0  0  0  0  0  0  0
   -4.8048    0.5145   -0.0321 C   0  0  0  0  0  0  0  0  0  0  0  0
   -3.7918    1.3356    0.4418 C   0  0  0  0  0  0  0  0  0  0  0  0
   -4.1663    3.2216    1.3040 I   0  0  0  0  0  0  0  0  0  0  0  0
   -2.4759    0.9446    0.3669 C   0  0  0  0  0  0  0  0  0  0  0  0
   -1.4076    1.7180    0.8229 C   0  0  0  0  0  0  0  0  0  0  0  0
   -0.1282    1.2817    0.7234 N   0  0  0  0  0  0  0  0  0  0  0  0
    7.1841    0.1013    0.2724 H   0  0  0  0  0  0  0  0  0  0  0  0
    3.7608   -1.4470    0.7364 H   0  0  0  0  0  0  0  0  0  0  0  0
    3.8897   -0.6871   -0.8721 H   0  0  0  0  0  0  0  0  0  0  0  0
    2.5456    1.2516    0.9331 H   0  0  0  0  0  0  0  0  0  0  0  0
   -0.2769   -2.7414   -0.2444 H   0  0  0  0  0  0  0  0  0  0  0  0
   -2.9281   -2.0567   -1.0930 H   0  0  0  0  0  0  0  0  0  0  0  0
   -5.3048   -1.3576   -0.9609 H   0  0  0  0  0  0  0  0  0  0  0  0
   -5.8467    0.8631    0.0457 H   0  0  0  0  0  0  0  0  0  0  0  0
   -1.6699    2.6796    1.2565 H   0  0  0  0  0  0  0  0  0  0  0  0
  1  2  1  0
  2  3  2  0
  2  4  1  0
  4  5  1  0
  5  6  1  0
  6  7  2  0
  6  8  1  0
  8  9  2  0
  9 10  1  0
  9 11  1  0
 11 12  2  0
 12 13  1  0
 13 14  2  0
 14 15  1  0
 15 16  1  0
 15 17  2  0
 17 18  1  0
 18 19  2  0
 19  8  1  0
 17 11  1  0
  1 20  1  0
  4 21  1  0
  4 22  1  0
  5 23  1  0
 10 24  1  0
 12 25  1  0
 13 26  1  0
 14 27  1  0
 18 28  1  0
M  END
$$$$
