
     RDKit          3D

 97104  0  0  0  0  0  0  0  0999 V2000
   14.7638    1.9954   -1.2125 C   0  0  0  0  0  0  0  0  0  0  0  0
   13.6031    1.0657   -1.2322 C   0  0  0  0  0  0  0  0  0  0  0  0
   12.3010    1.5109   -1.2060 C   0  0  0  0  0  0  0  0  0  0  0  0
   11.1885    0.6520   -1.2247 C   0  0  0  0  0  0  0  0  0  0  0  0
    9.9002    1.2154   -1.1984 N   0  0  0  0  0  0  0  0  0  0  0  0
    8.6895    0.4948   -1.0548 C   0  0  0  0  0  0  0  0  0  0  0  0
    8.6212   -0.8265   -0.9394 N   0  0  0  0  0  0  0  0  0  0  0  0
    7.5112   -1.5606   -0.7909 C   0  0  0  0  0  0  0  0  0  0  0  0
    6.3241   -0.8691   -0.7546 C   0  0  0  0  0  0  0  0  0  0  0  0
    6.3461    0.5212   -0.8713 C   0  0  0  0  0  0  0  0  0  0  0  0
    5.1375    1.2061   -0.8356 O   0  0  0  0  0  0  0  0  0  0  0  0
    3.9139    0.6222   -0.6096 C   0  0  0  0  0  0  0  0  0  0  0  0
    2.9328    0.5913   -1.5851 C   0  0  0  0  0  0  0  0  0  0  0  0
    1.7019    0.0087   -1.3699 C   0  0  0  0  0  0  0  0  0  0  0  0
    1.4067   -0.5695   -0.1566 C   0  0  0  0  0  0  0  0  0  0  0  0
    0.1341   -1.1781    0.1048 N   0  0  0  0  0  0  0  0  0  0  0  0
   -0.9607   -0.4835    0.6610 C   0  0  0  0  0  0  0  0  0  0  0  0
   -0.8122    0.7276    0.9425 O   0  0  0  0  0  0  0  0  0  0  0  0
   -2.2338   -1.0656    0.9285 N   0  0  0  0  0  0  0  0  0  0  0  0
   -3.3015   -0.3109    1.5006 C   0  0  0  0  0  0  0  0  0  0  0  0
   -3.3917   -0.1177    2.8858 C   0  0  0  0  0  0  0  0  0  0  0  0
   -4.5182    0.6311    3.0862 C   0  0  0  0  0  0  0  0  0  0  0  0
   -5.0437    1.0967    4.4045 C   0  0  0  0  0  0  0  0  0  0  0  0
   -3.9822    1.6640    5.2851 C   0  0  0  0  0  0  0  0  0  0  0  0
   -5.5805   -0.1638    5.1019 C   0  0  0  0  0  0  0  0  0  0  0  0
   -5.0882    0.8846    1.9079 N   0  0  0  0  0  0  0  0  0  0  0  0
   -4.3253    0.2973    0.9558 N   0  0  0  0  0  0  0  0  0  0  0  0
   -4.7326    0.3902   -0.4021 C   0  0  0  0  0  0  0  0  0  0  0  0
   -3.8377    0.3851   -1.4179 C   0  0  0  0  0  0  0  0  0  0  0  0
   -4.2850    0.4749   -2.7423 C   0  0  0  0  0  0  0  0  0  0  0  0
   -5.6249    0.5696   -3.0375 C   0  0  0  0  0  0  0  0  0  0  0  0
   -6.5543    0.5774   -2.0219 C   0  0  0  0  0  0  0  0  0  0  0  0
   -7.9272    0.6750   -2.3012 O   0  0  0  0  0  0  0  0  0  0  0  0
   -8.7988    0.6830   -1.1880 C   0  0  0  0  0  0  0  0  0  0  0  0
  -10.2432    0.7975   -1.5492 C   0  0  0  0  0  0  0  0  0  0  0  0
  -10.7508   -0.2600   -2.3628 N   0  0  0  0  0  0  0  0  0  0  0  0
  -10.8126   -1.5150   -1.6632 C   0  0  0  0  0  0  0  0  0  0  0  0
  -11.8500   -1.4941   -0.5923 C   0  0  0  0  0  0  0  0  0  0  0  0
  -13.0830   -1.2069   -1.1477 O   0  0  0  0  0  0  0  0  0  0  0  0
  -13.0517    0.0850   -1.6613 C   0  0  0  0  0  0  0  0  0  0  0  0
  -12.0777    0.0466   -2.8238 C   0  0  0  0  0  0  0  0  0  0  0  0
   -6.0820    0.4875   -0.7378 C   0  0  0  0  0  0  0  0  0  0  0  0
    2.3958   -0.5272    0.8015 C   0  0  0  0  0  0  0  0  0  0  0  0
    2.1141   -1.0820    2.0266 C   0  0  0  0  0  0  0  0  0  0  0  0
    3.0395   -1.0674    3.0500 C   0  0  0  0  0  0  0  0  0  0  0  0
    4.2655   -0.4991    2.8737 C   0  0  0  0  0  0  0  0  0  0  0  0
    4.5718    0.0629    1.6557 C   0  0  0  0  0  0  0  0  0  0  0  0
    3.6385    0.0434    0.6318 C   0  0  0  0  0  0  0  0  0  0  0  0
    7.5017    1.1637   -1.0164 N   0  0  0  0  0  0  0  0  0  0  0  0
   11.4836   -0.6769   -1.2718 C   0  0  0  0  0  0  0  0  0  0  0  0
   12.8014   -1.1656   -1.2988 C   0  0  0  0  0  0  0  0  0  0  0  0
   13.3734   -2.4102   -1.3449 C   0  0  0  0  0  0  0  0  0  0  0  0
   14.7082   -2.3071   -1.3524 N   0  0  0  0  0  0  0  0  0  0  0  0
   14.9952   -1.0079   -1.3120 N   0  0  0  0  0  0  0  0  0  0  0  0
   13.8624   -0.2878   -1.2788 C   0  0  0  0  0  0  0  0  0  0  0  0
   14.5302    2.9100   -1.8058 H   0  0  0  0  0  0  0  0  0  0  0  0
   15.6601    1.4799   -1.5544 H   0  0  0  0  0  0  0  0  0  0  0  0
   14.9697    2.3387   -0.1669 H   0  0  0  0  0  0  0  0  0  0  0  0
   12.1048    2.5624   -1.1694 H   0  0  0  0  0  0  0  0  0  0  0  0
    9.8299    2.2932   -1.2999 H   0  0  0  0  0  0  0  0  0  0  0  0
    7.5730   -2.6388   -0.7066 H   0  0  0  0  0  0  0  0  0  0  0  0
    5.4127   -1.3962   -0.6458 H   0  0  0  0  0  0  0  0  0  0  0  0
    3.1875    1.0579   -2.5421 H   0  0  0  0  0  0  0  0  0  0  0  0
    0.9587    0.0012   -2.1524 H   0  0  0  0  0  0  0  0  0  0  0  0
    0.0408   -2.1848   -0.1382 H   0  0  0  0  0  0  0  0  0  0  0  0
   -2.3697   -2.0615    0.7003 H   0  0  0  0  0  0  0  0  0  0  0  0
   -2.6934   -0.4981    3.6360 H   0  0  0  0  0  0  0  0  0  0  0  0
   -5.8713    1.7868    4.2469 H   0  0  0  0  0  0  0  0  0  0  0  0
   -3.1337    2.1130    4.7314 H   0  0  0  0  0  0  0  0  0  0  0  0
   -3.6028    0.8843    6.0086 H   0  0  0  0  0  0  0  0  0  0  0  0
   -4.4383    2.4579    5.9078 H   0  0  0  0  0  0  0  0  0  0  0  0
   -5.9928    0.1207    6.0914 H   0  0  0  0  0  0  0  0  0  0  0  0
   -6.3951   -0.6287    4.4848 H   0  0  0  0  0  0  0  0  0  0  0  0
   -4.7886   -0.9074    5.2367 H   0  0  0  0  0  0  0  0  0  0  0  0
   -2.7775    0.3201   -1.2699 H   0  0  0  0  0  0  0  0  0  0  0  0
   -3.5417    0.4674   -3.5203 H   0  0  0  0  0  0  0  0  0  0  0  0
   -5.8979    0.6353   -4.0777 H   0  0  0  0  0  0  0  0  0  0  0  0
   -8.6127   -0.2350   -0.5581 H   0  0  0  0  0  0  0  0  0  0  0  0
   -8.5272    1.5281   -0.5191 H   0  0  0  0  0  0  0  0  0  0  0  0
  -10.3681    1.7835   -2.0659 H   0  0  0  0  0  0  0  0  0  0  0  0
  -10.8043    0.8741   -0.5847 H   0  0  0  0  0  0  0  0  0  0  0  0
   -9.8567   -1.8055   -1.2062 H   0  0  0  0  0  0  0  0  0  0  0  0
  -11.0615   -2.3110   -2.3953 H   0  0  0  0  0  0  0  0  0  0  0  0
  -11.9279   -2.5406   -0.2020 H   0  0  0  0  0  0  0  0  0  0  0  0
  -11.6097   -0.7880    0.2255 H   0  0  0  0  0  0  0  0  0  0  0  0
  -12.8092    0.8309   -0.8966 H   0  0  0  0  0  0  0  0  0  0  0  0
  -14.0472    0.3369   -2.1292 H   0  0  0  0  0  0  0  0  0  0  0  0
  -12.4274   -0.8007   -3.4649 H   0  0  0  0  0  0  0  0  0  0  0  0
  -12.1088    0.9514   -3.4554 H   0  0  0  0  0  0  0  0  0  0  0  0
   -6.7837    0.4903    0.0810 H   0  0  0  0  0  0  0  0  0  0  0  0
    1.1311   -1.5466    2.1939 H   0  0  0  0  0  0  0  0  0  0  0  0
    2.7709   -1.5171    3.9992 H   0  0  0  0  0  0  0  0  0  0  0  0
    4.9989   -0.4925    3.7002 H   0  0  0  0  0  0  0  0  0  0  0  0
    5.5422    0.5195    1.5518 H   0  0  0  0  0  0  0  0  0  0  0  0
   10.6800   -1.3943   -1.2955 H   0  0  0  0  0  0  0  0  0  0  0  0
   12.8229   -3.3316   -1.3711 H   0  0  0  0  0  0  0  0  0  0  0  0
   15.9566   -0.6396   -1.3094 H   0  0  0  0  0  0  0  0  0  0  0  0
  1  2  1  0
  2  3  2  0
  3  4  1  0
  4  5  1  0
  5  6  1  0
  6  7  2  0
  7  8  1  0
  8  9  2  0
  9 10  1  0
 10 11  1  0
 11 12  1  0
 12 13  2  0
 13 14  1  0
 14 15  2  0
 15 16  1  0
 16 17  1  0
 17 18  2  0
 17 19  1  0
 19 20  1  0
 20 21  2  0
 21 22  1  0
 22 23  1  0
 23 24  1  0
 23 25  1  0
 22 26  2  0
 26 27  1  0
 27 28  1  0
 28 29  2  0
 29 30  1  0
 30 31  2  0
 31 32  1  0
 32 33  1  0
 33 34  1  0
 34 35  1  0
 35 36  1  0
 36 37  1  0
 37 38  1  0
 38 39  1  0
 39 40  1  0
 40 41  1  0
 32 42  2  0
 15 43  1  0
 43 44  2  0
 44 45  1  0
 45 46  2  0
 46 47  1  0
 47 48  2  0
 10 49  2  0
  4 50  2  0
 50 51  1  0
 51 52  1  0
 52 53  2  0
 53 54  1  0
 54 55  1  0
 55  2  1  0
 49  6  1  0
 55 51  2  0
 48 12  1  0
 27 20  1  0
 42 28  1  0
 48 43  1  0
 41 36  1  0
  1 56  1  0
  1 57  1  0
  1 58  1  0
  3 59  1  0
  5 60  1  0
  8 61  1  0
  9 62  1  0
 13 63  1  0
 14 64  1  0
 16 65  1  0
 19 66  1  0
 21 67  1  0
 23 68  1  0
 24 69  1  0
 24 70  1  0
 24 71  1  0
 25 72  1  0
 25 73  1  0
 25 74  1  0
 29 75  1  0
 30 76  1  0
 31 77  1  0
 34 78  1  0
 34 79  1  0
 35 80  1  0
 35 81  1  0
 37 82  1  0
 37 83  1  0
 38 84  1  0
 38 85  1  0
 40 86  1  0
 40 87  1  0
 41 88  1  0
 41 89  1  0
 42 90  1  0
 44 91  1  0
 45 92  1  0
 46 93  1  0
 47 94  1  0
 50 95  1  0
 52 96  1  0
 54 97  1  0
M  END
$$$$
