
     RDKit          3D

 50 53  0  0  0  0  0  0  0  0999 V2000
    1.0226   -2.0586   -1.4742 C   0  0  0  0  0  0  0  0  0  0  0  0
    1.4754   -1.0567   -0.4564 C   0  0  0  0  0  0  0  0  0  0  0  0
    0.7290   -0.0823    0.1667 C   0  0  0  0  0  0  0  0  0  0  0  0
   -0.6780    0.1931   -0.0271 C   0  0  0  0  0  0  0  0  0  0  0  0
   -1.6867   -0.3961    0.7094 C   0  0  0  0  0  0  0  0  0  0  0  0
   -2.9868   -0.1199    0.5061 N   0  0  0  0  0  0  0  0  0  0  0  0
   -4.0421   -0.7362    1.2766 C   0  0  0  0  0  0  0  0  0  0  0  0
   -3.6430   -0.9713    2.7133 C   0  0  0  0  0  0  0  0  0  0  0  0
   -4.4567   -2.0640    0.6405 C   0  0  0  0  0  0  0  0  0  0  0  0
   -3.3331    0.7731   -0.4600 C   0  0  0  0  0  0  0  0  0  0  0  0
   -4.5257    1.0469   -0.6692 O   0  0  0  0  0  0  0  0  0  0  0  0
   -2.3512    1.3919   -1.2274 C   0  0  0  0  0  0  0  0  0  0  0  0
   -2.7409    2.3048   -2.2122 C   0  0  0  0  0  0  0  0  0  0  0  0
   -1.7502    2.8911   -2.9441 C   0  0  0  0  0  0  0  0  0  0  0  0
   -0.4084    2.6229   -2.7531 C   0  0  0  0  0  0  0  0  0  0  0  0
   -0.0245    1.7273   -1.7871 C   0  0  0  0  0  0  0  0  0  0  0  0
   -1.0142    1.1144   -1.0256 C   0  0  0  0  0  0  0  0  0  0  0  0
    1.5585    0.6115    1.0311 C   0  0  0  0  0  0  0  0  0  0  0  0
    1.3206    1.6892    1.9018 C   0  0  0  0  0  0  0  0  0  0  0  0
    2.3619    2.1552    2.6321 C   0  0  0  0  0  0  0  0  0  0  0  0
    2.1682    3.2011    3.4887 F   0  0  0  0  0  0  0  0  0  0  0  0
    3.6208    1.5839    2.5209 C   0  0  0  0  0  0  0  0  0  0  0  0
    3.8604    0.5237    1.6660 C   0  0  0  0  0  0  0  0  0  0  0  0
    2.7988    0.0300    0.9051 C   0  0  0  0  0  0  0  0  0  0  0  0
    2.7371   -0.9782    0.0027 N   0  0  0  0  0  0  0  0  0  0  0  0
    3.8636   -1.8095   -0.3775 C   0  0  0  0  0  0  0  0  0  0  0  0
    4.6132   -1.2752   -1.5123 C   0  0  0  0  0  0  0  0  0  0  0  0
    4.2707   -0.2083   -2.0571 O   0  0  0  0  0  0  0  0  0  0  0  0
    5.7111   -1.9534   -1.9899 O   0  0  0  0  0  0  0  0  0  0  0  0
    0.5711   -2.9472   -1.0092 H   0  0  0  0  0  0  0  0  0  0  0  0
    1.9008   -2.4296   -2.0473 H   0  0  0  0  0  0  0  0  0  0  0  0
    0.3641   -1.5840   -2.2432 H   0  0  0  0  0  0  0  0  0  0  0  0
   -1.4156   -1.1061    1.4779 H   0  0  0  0  0  0  0  0  0  0  0  0
   -4.9562   -0.1127    1.2859 H   0  0  0  0  0  0  0  0  0  0  0  0
   -2.7158   -0.3897    2.8942 H   0  0  0  0  0  0  0  0  0  0  0  0
   -4.4512   -0.6958    3.4045 H   0  0  0  0  0  0  0  0  0  0  0  0
   -3.4634   -2.0721    2.8487 H   0  0  0  0  0  0  0  0  0  0  0  0
   -4.5209   -1.8767   -0.4424 H   0  0  0  0  0  0  0  0  0  0  0  0
   -5.4330   -2.3377    1.0600 H   0  0  0  0  0  0  0  0  0  0  0  0
   -3.7029   -2.8176    0.9145 H   0  0  0  0  0  0  0  0  0  0  0  0
   -3.7952    2.4886   -2.3323 H   0  0  0  0  0  0  0  0  0  0  0  0
   -2.0456    3.5986   -3.7079 H   0  0  0  0  0  0  0  0  0  0  0  0
    0.3540    3.1108   -3.3571 H   0  0  0  0  0  0  0  0  0  0  0  0
    1.0040    1.4639   -1.5763 H   0  0  0  0  0  0  0  0  0  0  0  0
    0.3011    2.0972    1.9440 H   0  0  0  0  0  0  0  0  0  0  0  0
    4.4484    1.9638    3.1097 H   0  0  0  0  0  0  0  0  0  0  0  0
    4.8394    0.0708    1.5720 H   0  0  0  0  0  0  0  0  0  0  0  0
    3.5466   -2.8684   -0.5594 H   0  0  0  0  0  0  0  0  0  0  0  0
    4.5878   -1.8878    0.4859 H   0  0  0  0  0  0  0  0  0  0  0  0
    6.1121   -1.8187   -2.9098 H   0  0  0  0  0  0  0  0  0  0  0  0
  1  2  1  0
  2  3  2  0
  3  4  1  0
  4  5  2  0
  5  6  1  0
  6  7  1  0
  7  8  1  0
  7  9  1  0
  6 10  1  0
 10 11  2  0
 10 12  1  0
 12 13  2  0
 13 14  1  0
 14 15  2  0
 15 16  1  0
 16 17  2  0
  3 18  1  0
 18 19  2  0
 19 20  1  0
 20 21  1  0
 20 22  2  0
 22 23  1  0
 23 24  2  0
 24 25  1  0
 25 26  1  0
 26 27  1  0
 27 28  2  0
 27 29  1  0
 25  2  1  0
 17  4  1  0
 24 18  1  0
 17 12  1  0
  1 30  1  0
  1 31  1  0
  1 32  1  0
  5 33  1  0
  7 34  1  0
  8 35  1  0
  8 36  1  0
  8 37  1  0
  9 38  1  0
  9 39  1  0
  9 40  1  0
 13 41  1  0
 14 42  1  0
 15 43  1  0
 16 44  1  0
 19 45  1  0
 22 46  1  0
 23 47  1  0
 26 48  1  0
 26 49  1  0
 29 50  1  0
M  END
$$$$
