
     RDKit          3D

 15 14  0  0  0  0  0  0  0  0999 V2000
    3.1214   -0.2070   -0.9752 O   0  0  0  0  0  0  0  0  0  0  0  0
    2.2287    0.0844   -0.0169 N   0  0  0  0  0  0  0  0  0  0  0  0
    0.8423   -0.0920   -0.2168 C   0  0  0  0  0  0  0  0  0  0  0  0
    0.3700   -0.5310   -1.3014 O   0  0  0  0  0  0  0  0  0  0  0  0
   -0.0497    0.2658    0.9194 C   0  0  0  0  0  0  0  0  0  0  0  0
   -1.7971   -0.0161    0.5080 P   0  0  0  0  0  0  0  0  0  0  0  0
   -2.1908    1.1222   -0.6928 O   0  0  0  0  0  0  0  0  0  0  0  0
   -2.0730   -1.5838    0.0075 O   0  0  0  0  0  0  0  0  0  0  0  0
   -2.6027    0.2824    1.7527 O   0  0  0  0  0  0  0  0  0  0  0  0
    3.1463   -1.1503   -1.2347 H   0  0  0  0  0  0  0  0  0  0  0  0
    2.6427    0.4520    0.8877 H   0  0  0  0  0  0  0  0  0  0  0  0
    0.2720   -0.3168    1.8247 H   0  0  0  0  0  0  0  0  0  0  0  0
    0.0472    1.3574    1.1220 H   0  0  0  0  0  0  0  0  0  0  0  0
   -1.9803    2.0188   -0.2864 H   0  0  0  0  0  0  0  0  0  0  0  0
   -1.9771   -1.6861   -0.9523 H   0  0  0  0  0  0  0  0  0  0  0  0
  1  2  1  0
  2  3  1  0
  3  4  2  0
  3  5  1  0
  5  6  1  0
  6  7  1  0
  6  8  1  0
  6  9  2  0
  1 10  1  0
  2 11  1  0
  5 12  1  0
  5 13  1  0
  7 14  1  0
  8 15  1  0
M  END
$$$$
