
     RDKit          3D

 55 57  0  0  0  0  0  0  0  0999 V2000
   -7.6028   -2.1075    0.6082 O   0  0  0  0  0  0  0  0  0  0  0  0
   -8.1270   -1.0975    0.0753 C   0  0  0  0  0  0  0  0  0  0  0  0
   -7.3851   -0.2787   -0.8800 C   0  0  0  0  0  0  0  0  0  0  0  0
   -5.9970   -0.6672   -1.1725 C   0  0  0  0  0  0  0  0  0  0  0  0
   -5.0455   -0.6746   -0.0266 C   0  0  0  0  0  0  0  0  0  0  0  0
   -4.8680    0.6320    0.6612 C   0  0  0  0  0  0  0  0  0  0  0  0
   -4.3553    1.7303   -0.2010 C   0  0  0  0  0  0  0  0  0  0  0  0
   -3.0334    1.5270   -0.8407 C   0  0  0  0  0  0  0  0  0  0  0  0
   -1.9012    1.3420    0.1053 C   0  0  0  0  0  0  0  0  0  0  0  0
   -2.1015    1.4090    1.3206 O   0  0  0  0  0  0  0  0  0  0  0  0
   -0.6220    1.0935   -0.4124 N   0  0  0  0  0  0  0  0  0  0  0  0
    0.5485    0.8969    0.3527 C   0  0  0  0  0  0  0  0  0  0  0  0
    0.6174    0.9192    1.7259 C   0  0  0  0  0  0  0  0  0  0  0  0
    1.7997    0.7190    2.4453 C   0  0  0  0  0  0  0  0  0  0  0  0
    2.9630    0.4864    1.7566 C   0  0  0  0  0  0  0  0  0  0  0  0
    2.9478    0.4542    0.3802 C   0  0  0  0  0  0  0  0  0  0  0  0
    4.2044    0.2033   -0.3493 C   0  0  0  0  0  0  0  0  0  0  0  0
    5.4366   -0.0098    0.2275 C   0  0  0  0  0  0  0  0  0  0  0  0
    6.3485   -0.2037   -0.7683 N   0  0  0  0  0  0  0  0  0  0  0  0
    7.7436   -0.4576   -0.6132 C   0  0  0  0  0  0  0  0  0  0  0  0
    8.2372   -1.7394   -0.7106 C   0  0  0  0  0  0  0  0  0  0  0  0
    9.5856   -1.9775   -0.5597 C   0  0  0  0  0  0  0  0  0  0  0  0
   10.4585   -0.9219   -0.3077 C   0  0  0  0  0  0  0  0  0  0  0  0
   12.5165   -1.2417   -0.0719 I   0  0  0  0  0  0  0  0  0  0  0  0
    9.9712    0.3523   -0.2104 C   0  0  0  0  0  0  0  0  0  0  0  0
    8.6260    0.5760   -0.3627 C   0  0  0  0  0  0  0  0  0  0  0  0
    5.6851   -0.1100   -1.9065 N   0  0  0  0  0  0  0  0  0  0  0  0
    4.4013    0.1333   -1.6717 N   0  0  0  0  0  0  0  0  0  0  0  0
    1.7718    0.6543   -0.2962 C   0  0  0  0  0  0  0  0  0  0  0  0
   -9.4776   -0.7778    0.4378 N   0  0  0  0  0  0  0  0  0  0  0  0
  -10.1534   -1.5370    1.3183 O   0  0  0  0  0  0  0  0  0  0  0  0
   -7.9524   -0.3493   -1.8587 H   0  0  0  0  0  0  0  0  0  0  0  0
   -7.4592    0.8249   -0.6400 H   0  0  0  0  0  0  0  0  0  0  0  0
   -5.5974    0.0892   -1.9132 H   0  0  0  0  0  0  0  0  0  0  0  0
   -5.9988   -1.6214   -1.7383 H   0  0  0  0  0  0  0  0  0  0  0  0
   -5.3976   -1.4262    0.7069 H   0  0  0  0  0  0  0  0  0  0  0  0
   -4.0244   -1.0273   -0.3244 H   0  0  0  0  0  0  0  0  0  0  0  0
   -5.8135    1.0115    1.1296 H   0  0  0  0  0  0  0  0  0  0  0  0
   -4.1856    0.4942    1.5188 H   0  0  0  0  0  0  0  0  0  0  0  0
   -5.0835    1.9870   -1.0281 H   0  0  0  0  0  0  0  0  0  0  0  0
   -4.2890    2.7059    0.3681 H   0  0  0  0  0  0  0  0  0  0  0  0
   -3.0304    0.7533   -1.6380 H   0  0  0  0  0  0  0  0  0  0  0  0
   -2.7947    2.4860   -1.3908 H   0  0  0  0  0  0  0  0  0  0  0  0
   -0.4913    1.0434   -1.4672 H   0  0  0  0  0  0  0  0  0  0  0  0
   -0.2621    1.0970    2.3243 H   0  0  0  0  0  0  0  0  0  0  0  0
    1.8330    0.7401    3.5162 H   0  0  0  0  0  0  0  0  0  0  0  0
    3.8998    0.3267    2.2840 H   0  0  0  0  0  0  0  0  0  0  0  0
    5.6953   -0.0309    1.2777 H   0  0  0  0  0  0  0  0  0  0  0  0
    7.5421   -2.5665   -0.9096 H   0  0  0  0  0  0  0  0  0  0  0  0
   10.0089   -2.9758   -0.6303 H   0  0  0  0  0  0  0  0  0  0  0  0
   10.6391    1.1652   -0.0169 H   0  0  0  0  0  0  0  0  0  0  0  0
    8.2317    1.5654   -0.2893 H   0  0  0  0  0  0  0  0  0  0  0  0
    1.7566    0.6295   -1.3789 H   0  0  0  0  0  0  0  0  0  0  0  0
   -9.8770    0.0672   -0.0256 H   0  0  0  0  0  0  0  0  0  0  0  0
  -10.5428   -0.9891    2.0701 H   0  0  0  0  0  0  0  0  0  0  0  0
  1  2  2  0
  2  3  1  0
  3  4  1  0
  4  5  1  0
  5  6  1  0
  6  7  1  0
  7  8  1  0
  8  9  1  0
  9 10  2  0
  9 11  1  0
 11 12  1  0
 12 13  2  0
 13 14  1  0
 14 15  2  0
 15 16  1  0
 16 17  1  0
 17 18  2  0
 18 19  1  0
 19 20  1  0
 20 21  2  0
 21 22  1  0
 22 23  2  0
 23 24  1  0
 23 25  1  0
 25 26  2  0
 19 27  1  0
 27 28  2  0
 16 29  2  0
  2 30  1  0
 30 31  1  0
 29 12  1  0
 28 17  1  0
 26 20  1  0
  3 32  1  0
  3 33  1  0
  4 34  1  0
  4 35  1  0
  5 36  1  0
  5 37  1  0
  6 38  1  0
  6 39  1  0
  7 40  1  0
  7 41  1  0
  8 42  1  0
  8 43  1  0
 11 44  1  0
 13 45  1  0
 14 46  1  0
 15 47  1  0
 18 48  1  0
 21 49  1  0
 22 50  1  0
 25 51  1  0
 26 52  1  0
 29 53  1  0
 30 54  1  0
 31 55  1  0
M  END
$$$$
