
     RDKit          3D

 39 38  0  0  0  0  0  0  0  0999 V2000
   -2.7390    0.7433   -0.8774 C   0  0  2  0  0  0  0  0  0  0  0  0
   -2.1287    1.1591   -2.2147 C   0  0  0  0  0  0  0  0  0  0  0  0
   -1.6896    0.4523    0.0351 N   0  0  0  0  0  0  0  0  0  0  0  0
   -1.7557    0.1770    1.2690 C   0  0  0  0  0  0  0  0  0  0  0  0
   -2.9479    0.1111    1.9734 O   0  0  0  0  0  0  0  0  0  0  0  0
   -0.4904   -0.0940    2.0214 C   0  0  2  0  0  0  0  0  0  0  0  0
   -0.3487    0.9098    3.1730 C   0  0  0  0  0  0  0  0  0  0  0  0
    0.6609   -0.0333    1.1519 N   0  0  0  0  0  0  0  0  0  0  0  0
    0.8371   -0.9700    0.2889 C   0  0  0  0  0  0  0  0  0  0  0  0
   -0.0362   -2.0273    0.1683 O   0  0  0  0  0  0  0  0  0  0  0  0
    1.7101    0.0819    0.4055 O   0  0  0  0  0  0  0  0  0  0  0  0
    2.8705    0.1005   -0.3503 C   0  0  0  0  0  0  0  0  0  0  0  0
    3.6925    1.3500   -0.1432 C   0  0  0  0  0  0  0  0  0  0  0  0
    3.7266   -1.1023    0.0546 C   0  0  0  0  0  0  0  0  0  0  0  0
    2.6005   -0.0031   -1.8290 C   0  0  0  0  0  0  0  0  0  0  0  0
   -3.6263   -0.4096   -1.1479 C   0  0  0  0  0  0  0  0  0  0  0  0
   -4.6110   -1.2458   -1.6058 O   0  0  0  0  0  0  0  0  0  0  0  0
   -3.5607   -1.6244   -0.6655 N   0  0  0  0  0  0  0  0  0  0  0  0
   -3.3479    1.5890   -0.4671 H   0  0  0  0  0  0  0  0  0  0  0  0
   -1.6650    2.1487   -2.1226 H   0  0  0  0  0  0  0  0  0  0  0  0
   -1.2815    0.4424   -2.4012 H   0  0  0  0  0  0  0  0  0  0  0  0
   -2.8626    1.0959   -3.0338 H   0  0  0  0  0  0  0  0  0  0  0  0
   -3.8400    0.3064    1.5153 H   0  0  0  0  0  0  0  0  0  0  0  0
   -0.6311   -1.0688    2.5264 H   0  0  0  0  0  0  0  0  0  0  0  0
    0.6944    0.9663    3.5175 H   0  0  0  0  0  0  0  0  0  0  0  0
   -0.5666    1.9155    2.7107 H   0  0  0  0  0  0  0  0  0  0  0  0
   -1.0171    0.6721    4.0011 H   0  0  0  0  0  0  0  0  0  0  0  0
   -0.6207   -2.3254    0.9383 H   0  0  0  0  0  0  0  0  0  0  0  0
    3.8876    1.6012    0.9051 H   0  0  0  0  0  0  0  0  0  0  0  0
    3.2507    2.1907   -0.7359 H   0  0  0  0  0  0  0  0  0  0  0  0
    4.6810    1.1692   -0.6159 H   0  0  0  0  0  0  0  0  0  0  0  0
    3.3874   -1.9585   -0.5645 H   0  0  0  0  0  0  0  0  0  0  0  0
    4.8041   -0.8954   -0.1536 H   0  0  0  0  0  0  0  0  0  0  0  0
    3.6123   -1.2952    1.1441 H   0  0  0  0  0  0  0  0  0  0  0  0
    1.5621   -0.3926   -1.9773 H   0  0  0  0  0  0  0  0  0  0  0  0
    3.3321   -0.6568   -2.3444 H   0  0  0  0  0  0  0  0  0  0  0  0
    2.5845    1.0163   -2.3133 H   0  0  0  0  0  0  0  0  0  0  0  0
   -5.3631   -0.9392   -2.2408 H   0  0  0  0  0  0  0  0  0  0  0  0
   -2.7650   -1.7928    0.0047 H   0  0  0  0  0  0  0  0  0  0  0  0
  1  2  1  0
  1  3  1  0
  3  4  2  3
  4  5  1  0
  4  6  1  0
  6  7  1  0
  6  8  1  0
  8  9  2  3
  9 10  1  0
  9 11  1  0
 11 12  1  0
 12 13  1  0
 12 14  1  0
 12 15  1  0
  1 16  1  0
 16 17  1  0
 16 18  2  3
  1 19  1  1
  2 20  1  0
  2 21  1  0
  2 22  1  0
  5 23  1  0
  6 24  1  1
  7 25  1  0
  7 26  1  0
  7 27  1  0
 10 28  1  0
 13 29  1  0
 13 30  1  0
 13 31  1  0
 14 32  1  0
 14 33  1  0
 14 34  1  0
 15 35  1  0
 15 36  1  0
 15 37  1  0
 17 38  1  0
 18 39  1  0
M  END
$$$$
