
     RDKit          3D

 43 45  0  0  0  0  0  0  0  0999 V2000
    3.7097   -2.3601   -0.0111 C   0  0  0  0  0  0  0  0  0  0  0  0
    3.8472   -0.8841   -0.0000 N   0  0  0  0  0  0  0  0  0  0  0  0
    2.6571   -0.1131   -0.0095 C   0  0  0  0  0  0  0  0  0  0  0  0
    2.5709    1.1303   -0.0029 O   0  0  0  0  0  0  0  0  0  0  0  0
    1.3961   -0.7636   -0.0284 O   0  0  0  0  0  0  0  0  0  0  0  0
    0.2109   -0.0455   -0.0381 C   0  0  0  0  0  0  0  0  0  0  0  0
   -0.4247    0.3550   -1.1856 C   0  0  0  0  0  0  0  0  0  0  0  0
   -1.5982    1.0646   -1.0982 C   0  0  0  0  0  0  0  0  0  0  0  0
   -2.1894    1.4066    0.1013 C   0  0  0  0  0  0  0  0  0  0  0  0
   -3.3741    2.1236    0.1506 O   0  0  0  0  0  0  0  0  0  0  0  0
   -4.5653    1.4309    0.1601 C   0  0  0  0  0  0  0  0  0  0  0  0
   -4.5880    0.0651    0.1219 C   0  0  0  0  0  0  0  0  0  0  0  0
   -5.8023   -0.6086    0.1325 C   0  0  0  0  0  0  0  0  0  0  0  0
   -6.9912    0.0876    0.1813 C   0  0  0  0  0  0  0  0  0  0  0  0
   -8.3032   -0.6209    0.1933 C   0  0  0  0  0  0  0  0  0  0  0  0
   -9.2922    0.1688    0.7648 F   0  0  0  0  0  0  0  0  0  0  0  0
   -8.1913   -1.7566    0.9413 F   0  0  0  0  0  0  0  0  0  0  0  0
   -8.6895   -0.9249   -1.1176 F   0  0  0  0  0  0  0  0  0  0  0  0
   -6.9201    1.4664    0.2187 C   0  0  0  0  0  0  0  0  0  0  0  0
   -5.7300    2.1069    0.2077 N   0  0  0  0  0  0  0  0  0  0  0  0
   -1.5488    1.0030    1.2568 C   0  0  0  0  0  0  0  0  0  0  0  0
   -0.3573    0.2823    1.1786 C   0  0  0  0  0  0  0  0  0  0  0  0
    5.1671   -0.3707    0.0193 C   0  0  0  0  0  0  0  0  0  0  0  0
    5.4544    0.9759    0.0369 C   0  0  0  0  0  0  0  0  0  0  0  0
    6.7769    1.3823    0.0542 C   0  0  0  0  0  0  0  0  0  0  0  0
    7.8181    0.4867    0.0545 C   0  0  0  0  0  0  0  0  0  0  0  0
    7.5510   -0.8444    0.0373 C   0  0  0  0  0  0  0  0  0  0  0  0
    8.8197   -2.0547    0.0364 Cl  0  0  0  0  0  0  0  0  0  0  0  0
    6.2402   -1.2780    0.0198 C   0  0  0  0  0  0  0  0  0  0  0  0
    4.2453   -2.7245    0.9122 H   0  0  0  0  0  0  0  0  0  0  0  0
    4.2000   -2.7786   -0.8881 H   0  0  0  0  0  0  0  0  0  0  0  0
    2.6594   -2.6028    0.1247 H   0  0  0  0  0  0  0  0  0  0  0  0
    0.0393    0.0866   -2.1266 H   0  0  0  0  0  0  0  0  0  0  0  0
   -2.1080    1.3855   -1.9935 H   0  0  0  0  0  0  0  0  0  0  0  0
   -3.6737   -0.4912    0.0838 H   0  0  0  0  0  0  0  0  0  0  0  0
   -5.8512   -1.6999    0.1028 H   0  0  0  0  0  0  0  0  0  0  0  0
   -7.8611    2.0254    0.2576 H   0  0  0  0  0  0  0  0  0  0  0  0
   -1.9743    1.2480    2.2063 H   0  0  0  0  0  0  0  0  0  0  0  0
    0.1374   -0.0296    2.0929 H   0  0  0  0  0  0  0  0  0  0  0  0
    4.6823    1.7215    0.0378 H   0  0  0  0  0  0  0  0  0  0  0  0
    7.0007    2.4281    0.0679 H   0  0  0  0  0  0  0  0  0  0  0  0
    8.8223    0.8596    0.0684 H   0  0  0  0  0  0  0  0  0  0  0  0
    6.0280   -2.3390    0.0058 H   0  0  0  0  0  0  0  0  0  0  0  0
  1  2  1  0
  2  3  1  0
  3  4  2  0
  3  5  1  0
  5  6  1  0
  6  7  2  0
  7  8  1  0
  8  9  2  0
  9 10  1  0
 10 11  1  0
 11 12  2  0
 12 13  1  0
 13 14  2  0
 14 15  1  0
 15 16  1  0
 15 17  1  0
 15 18  1  0
 14 19  1  0
 19 20  2  0
  9 21  1  0
 21 22  2  0
  2 23  1  0
 23 24  2  0
 24 25  1  0
 25 26  2  0
 26 27  1  0
 27 28  1  0
 27 29  2  0
 22  6  1  0
 29 23  1  0
 20 11  1  0
  1 30  1  0
  1 31  1  0
  1 32  1  0
  7 33  1  0
  8 34  1  0
 12 35  1  0
 13 36  1  0
 19 37  1  0
 21 38  1  0
 22 39  1  0
 24 40  1  0
 25 41  1  0
 26 42  1  0
 29 43  1  0
M  END
$$$$
