
     RDKit          3D

 80 83  0  0  0  0  0  0  0  0999 V2000
  -10.5990    0.4236   -0.5591 C   0  0  0  0  0  0  0  0  0  0  0  0
   -9.1892    0.4064   -0.3647 N   0  0  0  0  0  0  0  0  0  0  0  0
   -8.4297    1.3521   -1.0586 C   0  0  0  0  0  0  0  0  0  0  0  0
   -9.3612    2.1094   -2.0159 C   0  0  0  0  0  0  0  0  0  0  0  0
   -7.9126    2.4098   -0.0750 C   0  0  0  0  0  0  0  0  0  0  0  0
   -7.2777    0.8648   -1.8516 C   0  0  0  0  0  0  0  0  0  0  0  0
   -6.5636   -0.3215   -1.2437 C   0  0  0  0  0  0  0  0  0  0  0  0
   -5.8724   -0.0161   -0.0858 O   0  0  0  0  0  0  0  0  0  0  0  0
   -4.5180   -0.1473    0.1649 C   0  0  0  0  0  0  0  0  0  0  0  0
   -4.0697    0.2444    1.4359 C   0  0  0  0  0  0  0  0  0  0  0  0
   -2.7299    0.1278    1.7205 C   0  0  0  0  0  0  0  0  0  0  0  0
   -1.8232   -0.3576    0.8033 C   0  0  0  0  0  0  0  0  0  0  0  0
   -0.4031   -0.4811    1.1091 C   0  0  0  0  0  0  0  0  0  0  0  0
   -0.0158   -0.1254    2.2480 O   0  0  0  0  0  0  0  0  0  0  0  0
    0.5467   -0.9774    0.1938 N   0  0  0  0  0  0  0  0  0  0  0  0
    1.9343   -1.1155    0.4483 C   0  0  0  0  0  0  0  0  0  0  0  0
    2.3963   -2.2958    0.9834 C   0  0  0  0  0  0  0  0  0  0  0  0
    3.7190   -2.5089    1.2564 C   0  0  0  0  0  0  0  0  0  0  0  0
    4.6938   -1.5195    1.0016 C   0  0  0  0  0  0  0  0  0  0  0  0
    6.0367   -1.7887    1.3027 N   0  0  0  0  0  0  0  0  0  0  0  0
    7.0968   -0.9078    1.0765 C   0  0  0  0  0  0  0  0  0  0  0  0
    6.9452    0.2147    0.5770 O   0  0  0  0  0  0  0  0  0  0  0  0
    8.4582   -1.2547    1.4157 N   0  0  0  0  0  0  0  0  0  0  0  0
    9.5225   -0.3600    1.1812 C   0  0  0  0  0  0  0  0  0  0  0  0
   10.2809   -0.2815    0.0333 C   0  0  0  0  0  0  0  0  0  0  0  0
   11.2268    0.7353    0.2149 C   0  0  0  0  0  0  0  0  0  0  0  0
   12.2632    1.1794   -0.7622 C   0  0  0  0  0  0  0  0  0  0  0  0
   12.1188    0.3227   -2.0163 C   0  0  0  0  0  0  0  0  0  0  0  0
   11.9780    2.6125   -1.2024 C   0  0  0  0  0  0  0  0  0  0  0  0
   13.6559    1.0145   -0.2491 C   0  0  0  0  0  0  0  0  0  0  0  0
   11.0009    1.2031    1.4191 O   0  0  0  0  0  0  0  0  0  0  0  0
   10.0147    0.5823    2.0010 N   0  0  0  0  0  0  0  0  0  0  0  0
    4.1880   -0.3592    0.4683 C   0  0  0  0  0  0  0  0  0  0  0  0
    2.8469   -0.1436    0.1917 C   0  0  0  0  0  0  0  0  0  0  0  0
   -2.3163   -0.7142   -0.3922 N   0  0  0  0  0  0  0  0  0  0  0  0
   -3.6074   -0.6324   -0.7499 C   0  0  0  0  0  0  0  0  0  0  0  0
   -7.6281   -1.3783   -1.0141 C   0  0  0  0  0  0  0  0  0  0  0  0
   -8.6134   -0.8245   -0.0209 C   0  0  0  0  0  0  0  0  0  0  0  0
   -7.9770   -0.7349    1.3497 C   0  0  0  0  0  0  0  0  0  0  0  0
   -9.7332   -1.8690    0.0944 C   0  0  0  0  0  0  0  0  0  0  0  0
  -10.9813    1.4560   -0.4303 H   0  0  0  0  0  0  0  0  0  0  0  0
  -11.0949   -0.1748    0.2517 H   0  0  0  0  0  0  0  0  0  0  0  0
  -10.9354    0.0148   -1.5303 H   0  0  0  0  0  0  0  0  0  0  0  0
   -9.9606    2.8612   -1.4972 H   0  0  0  0  0  0  0  0  0  0  0  0
   -9.9449    1.4077   -2.6442 H   0  0  0  0  0  0  0  0  0  0  0  0
   -8.7019    2.6675   -2.7318 H   0  0  0  0  0  0  0  0  0  0  0  0
   -8.5880    2.5382    0.7782 H   0  0  0  0  0  0  0  0  0  0  0  0
   -6.8583    2.1738    0.2347 H   0  0  0  0  0  0  0  0  0  0  0  0
   -7.8354    3.3700   -0.6306 H   0  0  0  0  0  0  0  0  0  0  0  0
   -6.5539    1.7070   -1.9730 H   0  0  0  0  0  0  0  0  0  0  0  0
   -7.6187    0.5683   -2.8615 H   0  0  0  0  0  0  0  0  0  0  0  0
   -5.9013   -0.7100   -2.0404 H   0  0  0  0  0  0  0  0  0  0  0  0
   -4.7569    0.6326    2.1862 H   0  0  0  0  0  0  0  0  0  0  0  0
   -2.3554    0.4251    2.7013 H   0  0  0  0  0  0  0  0  0  0  0  0
    0.2033   -1.2682   -0.7510 H   0  0  0  0  0  0  0  0  0  0  0  0
    1.6994   -3.1129    1.2092 H   0  0  0  0  0  0  0  0  0  0  0  0
    4.0781   -3.4550    1.6839 H   0  0  0  0  0  0  0  0  0  0  0  0
    6.2505   -2.7434    1.7383 H   0  0  0  0  0  0  0  0  0  0  0  0
    8.6570   -2.1766    1.8369 H   0  0  0  0  0  0  0  0  0  0  0  0
   10.1978   -0.8699   -0.8581 H   0  0  0  0  0  0  0  0  0  0  0  0
   11.0703    0.4659   -2.4035 H   0  0  0  0  0  0  0  0  0  0  0  0
   12.7959    0.6687   -2.8016 H   0  0  0  0  0  0  0  0  0  0  0  0
   12.2029   -0.7595   -1.7858 H   0  0  0  0  0  0  0  0  0  0  0  0
   10.8654    2.6553   -1.3406 H   0  0  0  0  0  0  0  0  0  0  0  0
   12.3295    3.3357   -0.4375 H   0  0  0  0  0  0  0  0  0  0  0  0
   12.4199    2.7902   -2.2061 H   0  0  0  0  0  0  0  0  0  0  0  0
   14.2037    0.1828   -0.7708 H   0  0  0  0  0  0  0  0  0  0  0  0
   13.7233    0.8271    0.8232 H   0  0  0  0  0  0  0  0  0  0  0  0
   14.2169    1.9530   -0.5246 H   0  0  0  0  0  0  0  0  0  0  0  0
    4.8797    0.4596    0.2420 H   0  0  0  0  0  0  0  0  0  0  0  0
    2.5494    0.7936   -0.2232 H   0  0  0  0  0  0  0  0  0  0  0  0
   -3.9422   -0.9444   -1.7518 H   0  0  0  0  0  0  0  0  0  0  0  0
   -7.1446   -2.2692   -0.5904 H   0  0  0  0  0  0  0  0  0  0  0  0
   -8.1324   -1.5611   -1.9750 H   0  0  0  0  0  0  0  0  0  0  0  0
   -7.6849    0.3118    1.6074 H   0  0  0  0  0  0  0  0  0  0  0  0
   -7.0631   -1.3610    1.4228 H   0  0  0  0  0  0  0  0  0  0  0  0
   -8.7170   -1.0345    2.1197 H   0  0  0  0  0  0  0  0  0  0  0  0
  -10.4173   -1.8263   -0.7627 H   0  0  0  0  0  0  0  0  0  0  0  0
   -9.2153   -2.8612    0.0509 H   0  0  0  0  0  0  0  0  0  0  0  0
  -10.2223   -1.8257    1.0766 H   0  0  0  0  0  0  0  0  0  0  0  0
  1  2  1  0
  2  3  1  0
  3  4  1  0
  3  5  1  0
  3  6  1  0
  6  7  1  0
  7  8  1  0
  8  9  1  0
  9 10  2  0
 10 11  1  0
 11 12  2  0
 12 13  1  0
 13 14  2  0
 13 15  1  0
 15 16  1  0
 16 17  2  0
 17 18  1  0
 18 19  2  0
 19 20  1  0
 20 21  1  0
 21 22  2  0
 21 23  1  0
 23 24  1  0
 24 25  1  0
 25 26  2  0
 26 27  1  0
 27 28  1  0
 27 29  1  0
 27 30  1  0
 26 31  1  0
 31 32  1  0
 19 33  1  0
 33 34  2  0
 12 35  1  0
 35 36  2  0
  7 37  1  0
 37 38  1  0
 38 39  1  0
 38 40  1  0
 38  2  1  0
 36  9  1  0
 34 16  1  0
 32 24  2  0
  1 41  1  0
  1 42  1  0
  1 43  1  0
  4 44  1  0
  4 45  1  0
  4 46  1  0
  5 47  1  0
  5 48  1  0
  5 49  1  0
  6 50  1  0
  6 51  1  0
  7 52  1  0
 10 53  1  0
 11 54  1  0
 15 55  1  0
 17 56  1  0
 18 57  1  0
 20 58  1  0
 23 59  1  0
 25 60  1  0
 28 61  1  0
 28 62  1  0
 28 63  1  0
 29 64  1  0
 29 65  1  0
 29 66  1  0
 30 67  1  0
 30 68  1  0
 30 69  1  0
 33 70  1  0
 34 71  1  0
 36 72  1  0
 37 73  1  0
 37 74  1  0
 39 75  1  0
 39 76  1  0
 39 77  1  0
 40 78  1  0
 40 79  1  0
 40 80  1  0
M  END
$$$$
