
     RDKit          3D

 49 49  0  0  0  0  0  0  0  0999 V2000
    0.8291    1.6813    0.4649 C   0  0  1  0  0  0  0  0  0  0  0  0
    0.9375    1.7576    1.8610 O   0  0  0  0  0  0  0  0  0  0  0  0
    1.6744    0.5690   -0.0713 C   0  0  2  0  0  0  0  0  0  0  0  0
    2.2205    0.9215   -1.3060 O   0  0  0  0  0  0  0  0  0  0  0  0
    3.9120    1.0531   -1.2268 P   0  0  0  0  0  0  0  0  0  0  0  0
    4.6960   -0.0639   -2.1955 O   0  0  0  0  0  0  0  0  0  0  0  0
    4.4174    0.7811    0.3783 O   0  0  0  0  0  0  0  0  0  0  0  0
    4.3623    2.4407   -1.6480 O   0  0  0  0  0  0  0  0  0  0  0  0
    1.0018   -0.7680   -0.0939 C   0  0  1  0  0  0  0  0  0  0  0  0
    0.8452   -1.1698    1.2316 O   0  0  0  0  0  0  0  0  0  0  0  0
    1.6787   -2.5942    1.5713 P   0  0  0  0  0  0  0  0  0  0  0  0
    0.6673   -3.7323    2.2622 O   0  0  0  0  0  0  0  0  0  0  0  0
    2.2554   -3.2302    0.1113 O   0  0  0  0  0  0  0  0  0  0  0  0
    2.8244   -2.2038    2.4848 O   0  0  0  0  0  0  0  0  0  0  0  0
   -0.3812   -0.7601   -0.7116 C   0  0  1  0  0  0  0  0  0  0  0  0
   -0.9235   -2.0143   -0.4345 O   0  0  0  0  0  0  0  0  0  0  0  0
   -1.4581   -2.8256   -1.7820 P   0  0  0  0  0  0  0  0  0  0  0  0
   -1.7731   -4.4385   -1.3350 O   0  0  0  0  0  0  0  0  0  0  0  0
   -0.3998   -2.8405   -3.0698 O   0  0  0  0  0  0  0  0  0  0  0  0
   -2.7499   -2.1889   -2.2421 O   0  0  0  0  0  0  0  0  0  0  0  0
   -1.1876    0.2299    0.1168 C   0  0  2  0  0  0  0  0  0  0  0  0
   -2.5107    0.2884   -0.2968 O   0  0  0  0  0  0  0  0  0  0  0  0
   -3.5407   -0.2483    0.9266 P   0  0  0  0  0  0  0  0  0  0  0  0
   -5.1220   -0.1498    0.3403 O   0  0  0  0  0  0  0  0  0  0  0  0
   -3.1219   -1.8306    1.3152 O   0  0  0  0  0  0  0  0  0  0  0  0
   -3.4692    0.5727    2.1738 O   0  0  0  0  0  0  0  0  0  0  0  0
   -0.6134    1.6051    0.0568 C   0  0  1  0  0  0  0  0  0  0  0  0
   -1.3345    2.4065    0.9342 O   0  0  0  0  0  0  0  0  0  0  0  0
   -2.1253    3.6862    0.1978 P   0  0  0  0  0  0  0  0  0  0  0  0
   -2.1674    5.0473    1.2208 O   0  0  0  0  0  0  0  0  0  0  0  0
   -1.3349    4.1255   -1.2246 O   0  0  0  0  0  0  0  0  0  0  0  0
   -3.5668    3.3406   -0.1222 O   0  0  0  0  0  0  0  0  0  0  0  0
    1.2366    2.6383    0.0730 H   0  0  0  0  0  0  0  0  0  0  0  0
    1.5706    2.4502    2.1670 H   0  0  0  0  0  0  0  0  0  0  0  0
    2.5327    0.4724    0.6330 H   0  0  0  0  0  0  0  0  0  0  0  0
    5.1045    0.3689   -2.9832 H   0  0  0  0  0  0  0  0  0  0  0  0
    4.2390    1.5822    0.9364 H   0  0  0  0  0  0  0  0  0  0  0  0
    1.6435   -1.4610   -0.6701 H   0  0  0  0  0  0  0  0  0  0  0  0
    1.1349   -4.2471    2.9701 H   0  0  0  0  0  0  0  0  0  0  0  0
    3.2128   -2.9554    0.0148 H   0  0  0  0  0  0  0  0  0  0  0  0
   -0.3951   -0.5099   -1.7812 H   0  0  0  0  0  0  0  0  0  0  0  0
   -0.9740   -4.8238   -0.8921 H   0  0  0  0  0  0  0  0  0  0  0  0
   -0.8997   -3.1855   -3.8539 H   0  0  0  0  0  0  0  0  0  0  0  0
   -1.1606   -0.1583    1.1529 H   0  0  0  0  0  0  0  0  0  0  0  0
   -5.2489    0.7451   -0.0564 H   0  0  0  0  0  0  0  0  0  0  0  0
   -3.4017   -2.0163    2.2521 H   0  0  0  0  0  0  0  0  0  0  0  0
   -0.7197    1.9953   -0.9651 H   0  0  0  0  0  0  0  0  0  0  0  0
   -1.7557    4.8310    2.1088 H   0  0  0  0  0  0  0  0  0  0  0  0
   -0.6613    4.8261   -0.9937 H   0  0  0  0  0  0  0  0  0  0  0  0
  1  2  1  0
  1  3  1  0
  3  4  1  0
  4  5  1  0
  5  6  1  0
  5  7  1  0
  5  8  2  0
  3  9  1  0
  9 10  1  0
 10 11  1  0
 11 12  1  0
 11 13  1  0
 11 14  2  0
  9 15  1  0
 15 16  1  0
 16 17  1  0
 17 18  1  0
 17 19  1  0
 17 20  2  0
 15 21  1  0
 21 22  1  0
 22 23  1  0
 23 24  1  0
 23 25  1  0
 23 26  2  0
 21 27  1  0
 27 28  1  0
 28 29  1  0
 29 30  1  0
 29 31  1  0
 29 32  2  0
 27  1  1  0
  1 33  1  6
  2 34  1  0
  3 35  1  1
  6 36  1  0
  7 37  1  0
  9 38  1  6
 12 39  1  0
 13 40  1  0
 15 41  1  6
 18 42  1  0
 19 43  1  0
 21 44  1  1
 24 45  1  0
 25 46  1  0
 27 47  1  6
 30 48  1  0
 31 49  1  0
M  END
$$$$
