
     RDKit          3D

 86 91  0  0  0  0  0  0  0  0999 V2000
   -9.3309    1.9187   -4.7586 C   0  0  0  0  0  0  0  0  0  0  0  0
   -8.7220    1.5433   -3.4497 C   0  0  0  0  0  0  0  0  0  0  0  0
   -8.2029    0.2781   -3.2783 C   0  0  0  0  0  0  0  0  0  0  0  0
   -7.6342   -0.0862   -2.0707 C   0  0  0  0  0  0  0  0  0  0  0  0
   -7.5597    0.7799   -1.0002 C   0  0  0  0  0  0  0  0  0  0  0  0
   -6.9582    0.3559    0.2337 N   0  0  0  0  0  0  0  0  0  0  0  0
   -7.5520   -0.0417    1.3345 N   0  0  0  0  0  0  0  0  0  0  0  0
   -6.6913   -0.3682    2.3053 C   0  0  0  0  0  0  0  0  0  0  0  0
   -7.0005   -0.8579    3.6841 C   0  0  0  0  0  0  0  0  0  0  0  0
   -5.7302   -1.1148    4.4270 C   0  0  0  0  0  0  0  0  0  0  0  0
   -7.7559    0.2621    4.3768 C   0  0  0  0  0  0  0  0  0  0  0  0
   -7.9070   -2.0366    3.5693 C   0  0  0  0  0  0  0  0  0  0  0  0
   -5.4225   -0.1506    1.7496 C   0  0  0  0  0  0  0  0  0  0  0  0
   -5.6144    0.2963    0.4699 C   0  0  0  0  0  0  0  0  0  0  0  0
   -4.6178    0.6483   -0.4755 N   0  0  0  0  0  0  0  0  0  0  0  0
   -3.2398    0.5846   -0.1753 C   0  0  0  0  0  0  0  0  0  0  0  0
   -2.8011    0.2184    0.9402 O   0  0  0  0  0  0  0  0  0  0  0  0
   -2.2433    0.9447   -1.1561 N   0  0  0  0  0  0  0  0  0  0  0  0
   -0.8431    0.8722   -0.8201 C   0  0  0  0  0  0  0  0  0  0  0  0
   -0.1772    1.9401   -0.2900 C   0  0  0  0  0  0  0  0  0  0  0  0
    1.1543    1.8645    0.0231 C   0  0  0  0  0  0  0  0  0  0  0  0
    1.8478    0.6851   -0.1992 C   0  0  0  0  0  0  0  0  0  0  0  0
    3.1870    0.6232    0.1192 O   0  0  0  0  0  0  0  0  0  0  0  0
    4.2090    0.4609   -0.8007 C   0  0  0  0  0  0  0  0  0  0  0  0
    4.0027    0.3964   -2.1748 C   0  0  0  0  0  0  0  0  0  0  0  0
    5.0733    0.2382   -3.0085 C   0  0  0  0  0  0  0  0  0  0  0  0
    6.3027    0.1475   -2.5007 N   0  0  0  0  0  0  0  0  0  0  0  0
    6.5523    0.2069   -1.1444 C   0  0  0  0  0  0  0  0  0  0  0  0
    7.8940    0.0921   -0.7706 N   0  0  0  0  0  0  0  0  0  0  0  0
    8.3721    0.1559    0.5640 C   0  0  0  0  0  0  0  0  0  0  0  0
    7.5791    0.4337    1.6496 C   0  0  0  0  0  0  0  0  0  0  0  0
    8.1241    0.5088    2.9315 C   0  0  0  0  0  0  0  0  0  0  0  0
    9.4639    0.3110    3.1669 C   0  0  0  0  0  0  0  0  0  0  0  0
   10.2528    0.0319    2.0686 C   0  0  0  0  0  0  0  0  0  0  0  0
    9.7451   -0.0488    0.7962 C   0  0  0  0  0  0  0  0  0  0  0  0
   10.6379   -0.3747   -0.3453 C   0  0  0  0  0  0  0  0  0  0  0  0
   11.0568    0.8296   -1.1206 C   0  0  0  0  0  0  0  0  0  0  0  0
   11.8678   -1.0788    0.2505 C   0  0  0  0  0  0  0  0  0  0  0  0
    5.4783    0.3608   -0.3808 N   0  0  0  0  0  0  0  0  0  0  0  0
    1.1768   -0.3869   -0.7297 C   0  0  0  0  0  0  0  0  0  0  0  0
    1.8132   -1.5826   -0.9480 C   0  0  0  0  0  0  0  0  0  0  0  0
    1.1126   -2.6480   -1.4673 C   0  0  0  0  0  0  0  0  0  0  0  0
   -0.2218   -2.5705   -1.7835 C   0  0  0  0  0  0  0  0  0  0  0  0
   -0.8722   -1.3854   -1.5702 C   0  0  0  0  0  0  0  0  0  0  0  0
   -0.1848   -0.3138   -1.0519 C   0  0  0  0  0  0  0  0  0  0  0  0
   -8.0785    2.0460   -1.1698 C   0  0  0  0  0  0  0  0  0  0  0  0
   -8.6530    2.4174   -2.3865 C   0  0  0  0  0  0  0  0  0  0  0  0
   -8.5552    1.9978   -5.5583 H   0  0  0  0  0  0  0  0  0  0  0  0
   -9.8355    2.9030   -4.6736 H   0  0  0  0  0  0  0  0  0  0  0  0
  -10.0791    1.1854   -5.0973 H   0  0  0  0  0  0  0  0  0  0  0  0
   -8.2638   -0.3963   -4.1200 H   0  0  0  0  0  0  0  0  0  0  0  0
   -7.2296   -1.0855   -1.9500 H   0  0  0  0  0  0  0  0  0  0  0  0
   -5.0588   -0.2630    4.3304 H   0  0  0  0  0  0  0  0  0  0  0  0
   -5.2379   -2.0658    4.1115 H   0  0  0  0  0  0  0  0  0  0  0  0
   -6.0065   -1.2171    5.5154 H   0  0  0  0  0  0  0  0  0  0  0  0
   -8.3080   -0.1482    5.2415 H   0  0  0  0  0  0  0  0  0  0  0  0
   -8.4882    0.7321    3.6895 H   0  0  0  0  0  0  0  0  0  0  0  0
   -7.0571    1.0496    4.7443 H   0  0  0  0  0  0  0  0  0  0  0  0
   -8.7064   -2.0362    4.3630 H   0  0  0  0  0  0  0  0  0  0  0  0
   -7.3576   -2.9954    3.5370 H   0  0  0  0  0  0  0  0  0  0  0  0
   -8.4850   -1.9496    2.6049 H   0  0  0  0  0  0  0  0  0  0  0  0
   -4.5173   -0.3312    2.3072 H   0  0  0  0  0  0  0  0  0  0  0  0
   -4.8979    0.9730   -1.4536 H   0  0  0  0  0  0  0  0  0  0  0  0
   -2.5627    1.2537   -2.0994 H   0  0  0  0  0  0  0  0  0  0  0  0
   -0.7516    2.8630   -0.1243 H   0  0  0  0  0  0  0  0  0  0  0  0
    1.6986    2.6891    0.4403 H   0  0  0  0  0  0  0  0  0  0  0  0
    3.0028    0.4749   -2.5709 H   0  0  0  0  0  0  0  0  0  0  0  0
    4.9117    0.1867   -4.0962 H   0  0  0  0  0  0  0  0  0  0  0  0
    8.6355   -0.0445   -1.5220 H   0  0  0  0  0  0  0  0  0  0  0  0
    6.5114    0.6024    1.5194 H   0  0  0  0  0  0  0  0  0  0  0  0
    7.4822    0.7285    3.7711 H   0  0  0  0  0  0  0  0  0  0  0  0
    9.8890    0.3693    4.1619 H   0  0  0  0  0  0  0  0  0  0  0  0
   11.3200   -0.1230    2.2684 H   0  0  0  0  0  0  0  0  0  0  0  0
   10.1772   -1.1128   -0.9973 H   0  0  0  0  0  0  0  0  0  0  0  0
   10.4355    1.7086   -0.8644 H   0  0  0  0  0  0  0  0  0  0  0  0
   10.9997    0.6431   -2.2185 H   0  0  0  0  0  0  0  0  0  0  0  0
   12.1281    1.0433   -0.9034 H   0  0  0  0  0  0  0  0  0  0  0  0
   12.5529   -0.3259    0.6656 H   0  0  0  0  0  0  0  0  0  0  0  0
   11.5269   -1.7405    1.0557 H   0  0  0  0  0  0  0  0  0  0  0  0
   12.4105   -1.6346   -0.5686 H   0  0  0  0  0  0  0  0  0  0  0  0
    2.8731   -1.6781   -0.6879 H   0  0  0  0  0  0  0  0  0  0  0  0
    1.6753   -3.5682   -1.6173 H   0  0  0  0  0  0  0  0  0  0  0  0
   -0.7228   -3.4491   -2.1927 H   0  0  0  0  0  0  0  0  0  0  0  0
   -1.9156   -1.2593   -1.7961 H   0  0  0  0  0  0  0  0  0  0  0  0
   -8.0286    2.7349   -0.3442 H   0  0  0  0  0  0  0  0  0  0  0  0
   -9.0546    3.4109   -2.5044 H   0  0  0  0  0  0  0  0  0  0  0  0
  1  2  1  0
  2  3  2  0
  3  4  1  0
  4  5  2  0
  5  6  1  0
  6  7  1  0
  7  8  2  0
  8  9  1  0
  9 10  1  0
  9 11  1  0
  9 12  1  0
  8 13  1  0
 13 14  2  0
 14 15  1  0
 15 16  1  0
 16 17  2  0
 16 18  1  0
 18 19  1  0
 19 20  2  0
 20 21  1  0
 21 22  2  0
 22 23  1  0
 23 24  1  0
 24 25  2  0
 25 26  1  0
 26 27  2  0
 27 28  1  0
 28 29  1  0
 29 30  1  0
 30 31  2  0
 31 32  1  0
 32 33  2  0
 33 34  1  0
 34 35  2  0
 35 36  1  0
 36 37  1  0
 36 38  1  0
 28 39  2  0
 22 40  1  0
 40 41  2  0
 41 42  1  0
 42 43  2  0
 43 44  1  0
 44 45  2  0
  5 46  1  0
 46 47  2  0
 47  2  1  0
 14  6  1  0
 45 19  1  0
 39 24  1  0
 45 40  1  0
 35 30  1  0
  1 48  1  0
  1 49  1  0
  1 50  1  0
  3 51  1  0
  4 52  1  0
 10 53  1  0
 10 54  1  0
 10 55  1  0
 11 56  1  0
 11 57  1  0
 11 58  1  0
 12 59  1  0
 12 60  1  0
 12 61  1  0
 13 62  1  0
 15 63  1  0
 18 64  1  0
 20 65  1  0
 21 66  1  0
 25 67  1  0
 26 68  1  0
 29 69  1  0
 31 70  1  0
 32 71  1  0
 33 72  1  0
 34 73  1  0
 36 74  1  0
 37 75  1  0
 37 76  1  0
 37 77  1  0
 38 78  1  0
 38 79  1  0
 38 80  1  0
 41 81  1  0
 42 82  1  0
 43 83  1  0
 44 84  1  0
 46 85  1  0
 47 86  1  0
M  END
$$$$
