
     RDKit          3D

 43 46  0  0  0  0  0  0  0  0999 V2000
   -4.9783    1.1464    0.3644 C   0  0  0  0  0  0  0  0  0  0  0  0
   -4.1989    0.1132   -0.2233 N   0  0  0  0  0  0  0  0  0  0  0  0
   -4.8747   -0.8561   -0.9996 C   0  0  0  0  0  0  0  0  0  0  0  0
   -3.0963   -0.3633    0.5776 C   0  0  0  0  0  0  0  0  0  0  0  0
   -2.1393    0.7020    0.8852 C   0  0  0  0  0  0  0  0  0  0  0  0
   -2.4148    1.6201    1.8488 N   0  0  0  0  0  0  0  0  0  0  0  0
   -1.4165    2.4500    2.0523 N   0  0  0  0  0  0  0  0  0  0  0  0
   -0.3946    2.1337    1.2243 C   0  0  0  0  0  0  0  0  0  0  0  0
    1.0020    2.7064    1.0290 C   0  0  0  0  0  0  0  0  0  0  0  0
    2.0182    1.6737    1.1380 N   0  0  0  0  0  0  0  0  0  0  0  0
    2.1331    0.4979    0.5571 C   0  0  0  0  0  0  0  0  0  0  0  0
    3.2503   -0.3613    0.8396 C   0  0  0  0  0  0  0  0  0  0  0  0
    4.2032    0.3199    1.6007 C   0  0  0  0  0  0  0  0  0  0  0  0
    5.3664   -0.2857    2.0829 C   0  0  0  0  0  0  0  0  0  0  0  0
    5.6312   -1.6105    1.8238 C   0  0  0  0  0  0  0  0  0  0  0  0
    4.7042   -2.3041    1.0754 C   0  0  0  0  0  0  0  0  0  0  0  0
    3.5778   -1.6581    0.6283 C   0  0  0  0  0  0  0  0  0  0  0  0
    1.1609    0.0732   -0.4489 C   0  0  0  0  0  0  0  0  0  0  0  0
   -0.2161    0.3231   -0.4535 C   0  0  0  0  0  0  0  0  0  0  0  0
   -1.0952   -0.0926   -1.4164 C   0  0  0  0  0  0  0  0  0  0  0  0
   -0.5188   -0.8241   -2.4518 C   0  0  0  0  0  0  0  0  0  0  0  0
    0.8583   -1.0744   -2.4499 C   0  0  0  0  0  0  0  0  0  0  0  0
    1.6605   -1.9934   -3.7248 Cl  0  0  0  0  0  0  0  0  0  0  0  0
    1.7407   -0.6481   -1.4777 C   0  0  0  0  0  0  0  0  0  0  0  0
   -0.9047    1.0687    0.5483 N   0  0  0  0  0  0  0  0  0  0  0  0
   -4.9609    2.1041   -0.1787 H   0  0  0  0  0  0  0  0  0  0  0  0
   -6.0507    0.8043    0.3370 H   0  0  0  0  0  0  0  0  0  0  0  0
   -4.7258    1.2220    1.4428 H   0  0  0  0  0  0  0  0  0  0  0  0
   -5.8483   -1.1187   -0.5321 H   0  0  0  0  0  0  0  0  0  0  0  0
   -5.0596   -0.5712   -2.0520 H   0  0  0  0  0  0  0  0  0  0  0  0
   -4.2652   -1.8034   -0.9595 H   0  0  0  0  0  0  0  0  0  0  0  0
   -2.6985   -1.2574    0.0556 H   0  0  0  0  0  0  0  0  0  0  0  0
   -3.6407   -0.7021    1.5072 H   0  0  0  0  0  0  0  0  0  0  0  0
    1.0319    3.1687    0.0341 H   0  0  0  0  0  0  0  0  0  0  0  0
    1.1919    3.4158    1.8267 H   0  0  0  0  0  0  0  0  0  0  0  0
    4.1683    1.3752    1.9087 H   0  0  0  0  0  0  0  0  0  0  0  0
    6.1129    0.2168    2.6693 H   0  0  0  0  0  0  0  0  0  0  0  0
    6.4767   -2.1705    2.1359 H   0  0  0  0  0  0  0  0  0  0  0  0
    4.7889   -3.3462    0.8006 H   0  0  0  0  0  0  0  0  0  0  0  0
    2.8111   -2.1928    0.0928 H   0  0  0  0  0  0  0  0  0  0  0  0
   -2.1160    0.1001   -1.5322 H   0  0  0  0  0  0  0  0  0  0  0  0
   -1.0668   -1.2352   -3.2970 H   0  0  0  0  0  0  0  0  0  0  0  0
    2.7921   -0.7659   -1.4476 H   0  0  0  0  0  0  0  0  0  0  0  0
  1  2  1  0
  2  3  1  0
  2  4  1  0
  4  5  1  0
  5  6  2  0
  6  7  1  0
  7  8  2  0
  8  9  1  0
  9 10  1  0
 10 11  2  0
 11 12  1  0
 12 13  2  0
 13 14  1  0
 14 15  2  0
 15 16  1  0
 16 17  2  0
 11 18  1  0
 18 19  2  0
 19 20  1  0
 20 21  2  0
 21 22  1  0
 22 23  1  0
 22 24  2  0
 19 25  1  0
 25  5  1  0
 25  8  1  0
 17 12  1  0
 24 18  1  0
  1 26  1  0
  1 27  1  0
  1 28  1  0
  3 29  1  0
  3 30  1  0
  3 31  1  0
  4 32  1  0
  4 33  1  0
  9 34  1  0
  9 35  1  0
 13 36  1  0
 14 37  1  0
 15 38  1  0
 16 39  1  0
 17 40  1  0
 20 41  1  0
 21 42  1  0
 24 43  1  0
M  END
$$$$
