
     RDKit          3D

 81 85  0  0  0  0  0  0  0  0999 V2000
    9.2200   -0.6382    3.6528 O   0  0  0  0  0  0  0  0  0  0  0  0
    8.6264   -0.5648    2.5465 C   0  0  0  0  0  0  0  0  0  0  0  0
    9.2412   -0.5592    1.3329 N   0  0  0  0  0  0  0  0  0  0  0  0
    8.5585   -0.4791    0.1629 C   0  0  0  0  0  0  0  0  0  0  0  0
    7.1802   -0.4023    0.2628 C   0  0  0  0  0  0  0  0  0  0  0  0
    6.5374   -0.4063    1.4731 C   0  0  0  0  0  0  0  0  0  0  0  0
    7.2456   -0.4880    2.6618 C   0  0  0  0  0  0  0  0  0  0  0  0
    6.5350   -0.3206   -1.0850 C   0  0  2  0  0  0  0  0  0  0  0  0
    7.4258   -1.0554   -2.1033 C   0  0  0  0  0  0  0  0  0  0  0  0
    8.7424   -0.3696   -2.2532 C   0  0  0  0  0  0  0  0  0  0  0  0
    9.5166   -0.4969   -0.9652 C   0  0  0  0  0  0  0  0  0  0  0  0
    6.4166    1.0279   -1.5315 N   0  0  0  0  0  0  0  0  0  0  0  0
    5.5811    1.8764   -0.7213 C   0  0  0  0  0  0  0  0  0  0  0  0
    4.1213    1.4963   -0.8062 C   0  0  0  0  0  0  0  0  0  0  0  0
    3.3405    2.4464    0.0777 C   0  0  0  0  0  0  0  0  0  0  0  0
    1.8733    2.1650    0.0649 C   0  0  0  0  0  0  0  0  0  0  0  0
    1.4932    0.7909    0.5417 C   0  0  0  0  0  0  0  0  0  0  0  0
   -0.0158    0.5842    0.4914 C   0  0  0  0  0  0  0  0  0  0  0  0
   -0.3891   -0.7876    0.9687 C   0  0  0  0  0  0  0  0  0  0  0  0
   -1.8745   -1.0459    0.9382 C   0  0  0  0  0  0  0  0  0  0  0  0
   -2.4846   -0.9364   -0.4269 C   0  0  0  0  0  0  0  0  0  0  0  0
   -3.9823   -1.2023   -0.4324 C   0  0  0  0  0  0  0  0  0  0  0  0
   -4.7216   -0.2863    0.4000 N   0  0  0  0  0  0  0  0  0  0  0  0
   -6.1038   -0.5425    0.3658 C   0  0  0  0  0  0  0  0  0  0  0  0
   -6.8046    0.1359   -0.6210 C   0  0  0  0  0  0  0  0  0  0  0  0
   -6.1928    1.0784   -1.6015 C   0  0  0  0  0  0  0  0  0  0  0  0
   -6.9781    2.3675   -1.4950 C   0  0  0  0  0  0  0  0  0  0  0  0
   -8.3957    2.1862   -1.9477 C   0  0  0  0  0  0  0  0  0  0  0  0
   -8.8613    0.7490   -1.8687 C   0  0  0  0  0  0  0  0  0  0  0  0
   -8.1756   -0.0066   -0.7879 C   0  0  0  0  0  0  0  0  0  0  0  0
   -8.8553   -0.8306    0.0343 N   0  0  0  0  0  0  0  0  0  0  0  0
   -8.1973   -1.5080    1.0101 C   0  0  0  0  0  0  0  0  0  0  0  0
   -8.8291   -2.3595    1.8786 C   0  0  0  0  0  0  0  0  0  0  0  0
   -8.1561   -3.0485    2.8739 C   0  0  0  0  0  0  0  0  0  0  0  0
   -6.7924   -2.8761    3.0024 C   0  0  0  0  0  0  0  0  0  0  0  0
   -6.1088   -2.0363    2.1606 C   0  0  0  0  0  0  0  0  0  0  0  0
   -6.8343   -1.3790    1.1907 C   0  0  0  0  0  0  0  0  0  0  0  0
   10.2845   -0.6242    1.4726 H   0  0  0  0  0  0  0  0  0  0  0  0
    5.4610   -0.3429    1.4110 H   0  0  0  0  0  0  0  0  0  0  0  0
    6.7086   -0.4882    3.5990 H   0  0  0  0  0  0  0  0  0  0  0  0
    5.6025   -0.8989   -1.0279 H   0  0  0  0  0  0  0  0  0  0  0  0
    7.6169   -2.1016   -1.7909 H   0  0  0  0  0  0  0  0  0  0  0  0
    6.9119   -1.0932   -3.0835 H   0  0  0  0  0  0  0  0  0  0  0  0
    8.6412    0.6967   -2.5581 H   0  0  0  0  0  0  0  0  0  0  0  0
    9.3039   -0.9098   -3.0414 H   0  0  0  0  0  0  0  0  0  0  0  0
   10.0213   -1.5068   -0.9615 H   0  0  0  0  0  0  0  0  0  0  0  0
   10.2709    0.3147   -0.8551 H   0  0  0  0  0  0  0  0  0  0  0  0
    6.3240    1.1520   -2.5433 H   0  0  0  0  0  0  0  0  0  0  0  0
    5.6679    2.9034   -1.1338 H   0  0  0  0  0  0  0  0  0  0  0  0
    5.9602    1.9031    0.3088 H   0  0  0  0  0  0  0  0  0  0  0  0
    3.9037    0.4788   -0.4320 H   0  0  0  0  0  0  0  0  0  0  0  0
    3.7794    1.6267   -1.8452 H   0  0  0  0  0  0  0  0  0  0  0  0
    3.6697    2.3161    1.1527 H   0  0  0  0  0  0  0  0  0  0  0  0
    3.5410    3.4941   -0.1623 H   0  0  0  0  0  0  0  0  0  0  0  0
    1.3297    2.8993    0.6682 H   0  0  0  0  0  0  0  0  0  0  0  0
    1.5395    2.2912   -1.0012 H   0  0  0  0  0  0  0  0  0  0  0  0
    1.7964    0.6902    1.6064 H   0  0  0  0  0  0  0  0  0  0  0  0
    1.9563   -0.0252   -0.0470 H   0  0  0  0  0  0  0  0  0  0  0  0
   -0.4715    1.3529    1.1623 H   0  0  0  0  0  0  0  0  0  0  0  0
   -0.4256    0.7834   -0.5018 H   0  0  0  0  0  0  0  0  0  0  0  0
    0.0604   -1.5437    0.2640 H   0  0  0  0  0  0  0  0  0  0  0  0
   -0.0336   -1.0159    1.9812 H   0  0  0  0  0  0  0  0  0  0  0  0
   -1.9931   -2.1148    1.2842 H   0  0  0  0  0  0  0  0  0  0  0  0
   -2.4433   -0.4462    1.6774 H   0  0  0  0  0  0  0  0  0  0  0  0
   -2.0498   -1.7937   -1.0232 H   0  0  0  0  0  0  0  0  0  0  0  0
   -2.2318   -0.0089   -0.9530 H   0  0  0  0  0  0  0  0  0  0  0  0
   -4.2997   -0.9819   -1.4939 H   0  0  0  0  0  0  0  0  0  0  0  0
   -4.1197   -2.2644   -0.1649 H   0  0  0  0  0  0  0  0  0  0  0  0
   -4.2619    0.4720    0.9558 H   0  0  0  0  0  0  0  0  0  0  0  0
   -6.3206    0.6405   -2.6113 H   0  0  0  0  0  0  0  0  0  0  0  0
   -5.1374    1.2914   -1.4074 H   0  0  0  0  0  0  0  0  0  0  0  0
   -6.5001    3.1906   -2.0376 H   0  0  0  0  0  0  0  0  0  0  0  0
   -6.9772    2.6240   -0.4032 H   0  0  0  0  0  0  0  0  0  0  0  0
   -8.4665    2.6005   -2.9737 H   0  0  0  0  0  0  0  0  0  0  0  0
   -9.0497    2.7887   -1.2551 H   0  0  0  0  0  0  0  0  0  0  0  0
   -8.6050    0.2523   -2.8363 H   0  0  0  0  0  0  0  0  0  0  0  0
   -9.9467    0.6665   -1.6973 H   0  0  0  0  0  0  0  0  0  0  0  0
   -9.9128   -2.5140    1.7970 H   0  0  0  0  0  0  0  0  0  0  0  0
   -8.6948   -3.7220    3.5485 H   0  0  0  0  0  0  0  0  0  0  0  0
   -6.2758   -3.4135    3.7807 H   0  0  0  0  0  0  0  0  0  0  0  0
   -5.0366   -1.8973    2.2576 H   0  0  0  0  0  0  0  0  0  0  0  0
  1  2  2  0
  2  3  1  0
  3  4  1  0
  4  5  2  0
  5  6  1  0
  6  7  2  0
  5  8  1  0
  8  9  1  0
  9 10  1  0
 10 11  1  0
  8 12  1  0
 12 13  1  0
 13 14  1  0
 14 15  1  0
 15 16  1  0
 16 17  1  0
 17 18  1  0
 18 19  1  0
 19 20  1  0
 20 21  1  0
 21 22  1  0
 22 23  1  0
 23 24  1  0
 24 25  2  0
 25 26  1  0
 26 27  1  0
 27 28  1  0
 28 29  1  0
 29 30  1  0
 30 31  2  0
 31 32  1  0
 32 33  2  0
 33 34  1  0
 34 35  2  0
 35 36  1  0
 36 37  2  0
  7  2  1  0
 37 24  1  0
 11  4  1  0
 30 25  1  0
 37 32  1  0
  3 38  1  0
  6 39  1  0
  7 40  1  0
  8 41  1  1
  9 42  1  0
  9 43  1  0
 10 44  1  0
 10 45  1  0
 11 46  1  0
 11 47  1  0
 12 48  1  0
 13 49  1  0
 13 50  1  0
 14 51  1  0
 14 52  1  0
 15 53  1  0
 15 54  1  0
 16 55  1  0
 16 56  1  0
 17 57  1  0
 17 58  1  0
 18 59  1  0
 18 60  1  0
 19 61  1  0
 19 62  1  0
 20 63  1  0
 20 64  1  0
 21 65  1  0
 21 66  1  0
 22 67  1  0
 22 68  1  0
 23 69  1  0
 26 70  1  0
 26 71  1  0
 27 72  1  0
 27 73  1  0
 28 74  1  0
 28 75  1  0
 29 76  1  0
 29 77  1  0
 33 78  1  0
 34 79  1  0
 35 80  1  0
 36 81  1  0
M  END
$$$$
