
     RDKit          3D

 63 66  0  0  0  0  0  0  0  0999 V2000
   -4.1480    1.5077   -3.4437 C   0  0  0  0  0  0  0  0  0  0  0  0
   -5.1590    1.0494   -2.5651 O   0  0  0  0  0  0  0  0  0  0  0  0
   -4.9454    0.9827   -1.1933 C   0  0  0  0  0  0  0  0  0  0  0  0
   -3.8243    1.3476   -0.8022 O   0  0  0  0  0  0  0  0  0  0  0  0
   -5.9624    0.5158   -0.2649 C   0  0  0  0  0  0  0  0  0  0  0  0
   -7.2536    0.4820   -0.8403 C   0  0  0  0  0  0  0  0  0  0  0  0
   -8.3440    0.2501   -0.0582 C   0  0  0  0  0  0  0  0  0  0  0  0
   -8.1945    0.0472    1.2969 C   0  0  0  0  0  0  0  0  0  0  0  0
   -6.9609    0.0722    1.8704 C   0  0  0  0  0  0  0  0  0  0  0  0
   -6.8261   -0.1334    3.2342 O   0  0  0  0  0  0  0  0  0  0  0  0
   -5.8193    0.3083    1.0702 C   0  0  0  0  0  0  0  0  0  0  0  0
   -4.5493    0.3538    1.7349 C   0  0  0  0  0  0  0  0  0  0  0  0
   -4.5863    0.9360    2.8986 O   0  0  0  0  0  0  0  0  0  0  0  0
   -3.2625   -0.1310    1.3570 C   0  0  0  0  0  0  0  0  0  0  0  0
   -2.1043    0.4124    1.9293 C   0  0  0  0  0  0  0  0  0  0  0  0
   -2.2738    1.5034    2.7811 O   0  0  0  0  0  0  0  0  0  0  0  0
   -0.8459   -0.0851    1.6816 C   0  0  0  0  0  0  0  0  0  0  0  0
   -0.6759   -1.1552    0.8466 C   0  0  0  0  0  0  0  0  0  0  0  0
    0.6319   -1.7078    0.5598 C   0  0  0  0  0  0  0  0  0  0  0  0
    0.7502   -2.6919   -0.2127 O   0  0  0  0  0  0  0  0  0  0  0  0
    1.8066   -1.2027    1.1026 O   0  0  0  0  0  0  0  0  0  0  0  0
    3.0758   -1.7193    0.8401 C   0  0  2  0  0  0  0  0  0  0  0  0
    3.7832   -2.2026    2.1075 C   0  0  0  0  0  0  0  0  0  0  0  0
    5.2160   -2.2757    1.6952 C   0  0  0  0  0  0  0  0  0  0  0  0
    5.3672   -1.4162    0.4466 C   0  0  0  0  0  0  0  0  0  0  0  0
    4.0592   -0.6764    0.3541 C   0  0  1  0  0  0  0  0  0  0  0  0
    3.7588   -0.2321   -1.0614 C   0  0  0  0  0  0  0  0  0  0  0  0
    4.7842    0.7845   -1.4220 C   0  0  0  0  0  0  0  0  0  0  0  0
    5.9572    0.3590   -2.0094 C   0  0  0  0  0  0  0  0  0  0  0  0
    6.9395    1.2582   -2.3632 C   0  0  0  0  0  0  0  0  0  0  0  0
    6.7244    2.5976   -2.1167 C   0  0  0  0  0  0  0  0  0  0  0  0
    7.6724    3.5567   -2.4481 O   0  0  0  0  0  0  0  0  0  0  0  0
    5.5583    3.0734   -1.5270 C   0  0  0  0  0  0  0  0  0  0  0  0
    4.5990    2.1432   -1.1872 C   0  0  0  0  0  0  0  0  0  0  0  0
   -1.7902   -1.7115    0.2702 C   0  0  0  0  0  0  0  0  0  0  0  0
   -3.0725   -1.2108    0.5185 C   0  0  0  0  0  0  0  0  0  0  0  0
   -4.1560   -1.8230   -0.0917 O   0  0  0  0  0  0  0  0  0  0  0  0
   -3.1476    1.4888   -2.9667 H   0  0  0  0  0  0  0  0  0  0  0  0
   -4.1564    0.7948   -4.3108 H   0  0  0  0  0  0  0  0  0  0  0  0
   -4.3304    2.5365   -3.8073 H   0  0  0  0  0  0  0  0  0  0  0  0
   -7.3997    0.6381   -1.9061 H   0  0  0  0  0  0  0  0  0  0  0  0
   -9.3422    0.2267   -0.5202 H   0  0  0  0  0  0  0  0  0  0  0  0
   -9.0978   -0.1288    1.8625 H   0  0  0  0  0  0  0  0  0  0  0  0
   -6.1075   -0.7400    3.6008 H   0  0  0  0  0  0  0  0  0  0  0  0
   -1.7276    2.3324    2.5462 H   0  0  0  0  0  0  0  0  0  0  0  0
    0.0070    0.4037    2.1737 H   0  0  0  0  0  0  0  0  0  0  0  0
    3.0746   -2.5836    0.1491 H   0  0  0  0  0  0  0  0  0  0  0  0
    3.3619   -3.1348    2.4823 H   0  0  0  0  0  0  0  0  0  0  0  0
    3.6611   -1.3520    2.8396 H   0  0  0  0  0  0  0  0  0  0  0  0
    5.8916   -1.8212    2.4607 H   0  0  0  0  0  0  0  0  0  0  0  0
    5.4910   -3.3316    1.5118 H   0  0  0  0  0  0  0  0  0  0  0  0
    6.2468   -0.7711    0.4923 H   0  0  0  0  0  0  0  0  0  0  0  0
    5.4241   -2.1518   -0.4081 H   0  0  0  0  0  0  0  0  0  0  0  0
    4.0842    0.1555    1.0584 H   0  0  0  0  0  0  0  0  0  0  0  0
    3.7973   -1.0539   -1.7799 H   0  0  0  0  0  0  0  0  0  0  0  0
    2.7542    0.2326   -1.1167 H   0  0  0  0  0  0  0  0  0  0  0  0
    6.1012   -0.6962   -2.1919 H   0  0  0  0  0  0  0  0  0  0  0  0
    7.8609    0.9077   -2.8264 H   0  0  0  0  0  0  0  0  0  0  0  0
    8.5334    3.6698   -1.9152 H   0  0  0  0  0  0  0  0  0  0  0  0
    5.4055    4.1286   -1.3404 H   0  0  0  0  0  0  0  0  0  0  0  0
    3.6704    2.4650   -0.7239 H   0  0  0  0  0  0  0  0  0  0  0  0
   -1.7255   -2.5571   -0.3978 H   0  0  0  0  0  0  0  0  0  0  0  0
   -4.2602   -2.8247    0.0455 H   0  0  0  0  0  0  0  0  0  0  0  0
  1  2  1  0
  2  3  1  0
  3  4  2  0
  3  5  1  0
  5  6  2  0
  6  7  1  0
  7  8  2  0
  8  9  1  0
  9 10  1  0
  9 11  2  0
 11 12  1  0
 12 13  2  0
 12 14  1  0
 14 15  2  0
 15 16  1  0
 15 17  1  0
 17 18  2  0
 18 19  1  0
 19 20  2  0
 19 21  1  0
 21 22  1  0
 22 23  1  0
 23 24  1  0
 24 25  1  0
 25 26  1  0
 26 27  1  0
 27 28  1  0
 28 29  2  0
 29 30  1  0
 30 31  2  0
 31 32  1  0
 31 33  1  0
 33 34  2  0
 18 35  1  0
 35 36  2  0
 36 37  1  0
 11  5  1  0
 36 14  1  0
 26 22  1  0
 34 28  1  0
  1 38  1  0
  1 39  1  0
  1 40  1  0
  6 41  1  0
  7 42  1  0
  8 43  1  0
 10 44  1  0
 16 45  1  0
 17 46  1  0
 22 47  1  6
 23 48  1  0
 23 49  1  0
 24 50  1  0
 24 51  1  0
 25 52  1  0
 25 53  1  0
 26 54  1  1
 27 55  1  0
 27 56  1  0
 29 57  1  0
 30 58  1  0
 32 59  1  0
 33 60  1  0
 34 61  1  0
 35 62  1  0
 37 63  1  0
M  END
$$$$
