
     RDKit          3D

 54 58  0  0  0  0  0  0  0  0999 V2000
    5.6291    2.7280   -0.4996 C   0  0  0  0  0  0  0  0  0  0  0  0
    4.5464    2.0202    0.2887 C   0  0  1  0  0  0  0  0  0  0  0  0
    4.7111    0.6463    0.3343 O   0  0  0  0  0  0  0  0  0  0  0  0
    3.8820   -0.3372   -0.1342 C   0  0  0  0  0  0  0  0  0  0  0  0
    2.6783   -0.1495   -0.7658 C   0  0  0  0  0  0  0  0  0  0  0  0
    1.8751   -1.1864   -1.2221 C   0  0  0  0  0  0  0  0  0  0  0  0
    0.5807   -0.9410   -1.9037 C   0  0  0  0  0  0  0  0  0  0  0  0
   -0.5390   -0.8248   -1.0103 N   0  0  0  0  0  0  0  0  0  0  0  0
   -0.9787    0.3086   -0.4382 C   0  0  0  0  0  0  0  0  0  0  0  0
   -0.4418    1.4307   -0.6228 O   0  0  0  0  0  0  0  0  0  0  0  0
   -2.0494    0.0278    0.3313 N   0  0  0  0  0  0  0  0  0  0  0  0
   -2.7825    0.9726    1.0915 C   0  0  0  0  0  0  0  0  0  0  0  0
   -3.0079    0.9736    2.4125 N   0  0  0  0  0  0  0  0  0  0  0  0
   -3.7338    2.0243    2.7315 O   0  0  0  0  0  0  0  0  0  0  0  0
   -4.0138    2.7425    1.6795 C   0  0  0  0  0  0  0  0  0  0  0  0
   -4.7229    3.9014    1.4932 C   0  0  0  0  0  0  0  0  0  0  0  0
   -4.8149    4.3881    0.2059 C   0  0  0  0  0  0  0  0  0  0  0  0
   -4.2420    3.7812   -0.8809 C   0  0  0  0  0  0  0  0  0  0  0  0
   -4.3605    4.3985   -2.5045 Cl  0  0  0  0  0  0  0  0  0  0  0  0
   -3.5285    2.6116   -0.6808 C   0  0  0  0  0  0  0  0  0  0  0  0
   -3.4131    2.0913    0.5950 C   0  0  0  0  0  0  0  0  0  0  0  0
   -2.3195   -1.3072    0.2661 C   0  0  0  0  0  0  0  0  0  0  0  0
   -3.2808   -2.0994    0.8446 C   0  0  0  0  0  0  0  0  0  0  0  0
   -3.2910   -3.4425    0.5748 C   0  0  0  0  0  0  0  0  0  0  0  0
   -2.3435   -3.9901   -0.2701 C   0  0  0  0  0  0  0  0  0  0  0  0
   -2.3718   -5.4364   -0.5474 C   0  0  0  0  0  0  0  0  0  0  0  0
   -1.0984   -5.9608   -0.5979 F   0  0  0  0  0  0  0  0  0  0  0  0
   -3.0759   -5.6771   -1.7139 F   0  0  0  0  0  0  0  0  0  0  0  0
   -3.0463   -6.0686    0.4783 F   0  0  0  0  0  0  0  0  0  0  0  0
   -1.3900   -3.1717   -0.8370 C   0  0  0  0  0  0  0  0  0  0  0  0
   -1.3418   -1.8131   -0.5930 C   0  0  0  0  0  0  0  0  0  0  0  0
    2.2858   -2.4859   -1.0437 C   0  0  0  0  0  0  0  0  0  0  0  0
    3.5056   -2.7131   -0.4047 C   0  0  0  0  0  0  0  0  0  0  0  0
    4.2845   -1.6671    0.0391 C   0  0  0  0  0  0  0  0  0  0  0  0
    5.8067   -1.9951    0.8350 Cl  0  0  0  0  0  0  0  0  0  0  0  0
    4.4653    2.6380    1.6504 C   0  0  0  0  0  0  0  0  0  0  0  0
    4.3167    3.8820    1.7486 O   0  0  0  0  0  0  0  0  0  0  0  0
    4.5466    1.9002    2.8168 O   0  0  0  0  0  0  0  0  0  0  0  0
    5.8951    2.1930   -1.4222 H   0  0  0  0  0  0  0  0  0  0  0  0
    5.3402    3.7650   -0.7458 H   0  0  0  0  0  0  0  0  0  0  0  0
    6.5463    2.7776    0.1186 H   0  0  0  0  0  0  0  0  0  0  0  0
    3.5898    2.2698   -0.2073 H   0  0  0  0  0  0  0  0  0  0  0  0
    2.3300    0.8690   -0.9197 H   0  0  0  0  0  0  0  0  0  0  0  0
    0.7122   -0.0052   -2.5237 H   0  0  0  0  0  0  0  0  0  0  0  0
    0.3810   -1.7402   -2.6772 H   0  0  0  0  0  0  0  0  0  0  0  0
   -5.1721    4.3804    2.3331 H   0  0  0  0  0  0  0  0  0  0  0  0
   -5.3738    5.3022    0.0567 H   0  0  0  0  0  0  0  0  0  0  0  0
   -3.0542    2.0867   -1.4964 H   0  0  0  0  0  0  0  0  0  0  0  0
   -4.0070   -1.6573    1.4967 H   0  0  0  0  0  0  0  0  0  0  0  0
   -4.0391   -4.1015    1.0162 H   0  0  0  0  0  0  0  0  0  0  0  0
   -0.6382   -3.5689   -1.5028 H   0  0  0  0  0  0  0  0  0  0  0  0
    1.7291   -3.3543   -1.3662 H   0  0  0  0  0  0  0  0  0  0  0  0
    3.8087   -3.7477   -0.2752 H   0  0  0  0  0  0  0  0  0  0  0  0
    5.0262    2.3312    3.6156 H   0  0  0  0  0  0  0  0  0  0  0  0
  1  2  1  0
  2  3  1  0
  3  4  1  0
  4  5  2  0
  5  6  1  0
  6  7  1  0
  7  8  1  0
  8  9  1  0
  9 10  2  0
  9 11  1  0
 11 12  1  0
 12 13  2  0
 13 14  1  0
 14 15  1  0
 15 16  2  0
 16 17  1  0
 17 18  2  0
 18 19  1  0
 18 20  1  0
 20 21  2  0
 11 22  1  0
 22 23  2  0
 23 24  1  0
 24 25  2  0
 25 26  1  0
 26 27  1  0
 26 28  1  0
 26 29  1  0
 25 30  1  0
 30 31  2  0
  6 32  2  0
 32 33  1  0
 33 34  2  0
 34 35  1  0
  2 36  1  0
 36 37  2  0
 36 38  1  0
 34  4  1  0
 31  8  1  0
 21 12  1  0
 31 22  1  0
 21 15  1  0
  1 39  1  0
  1 40  1  0
  1 41  1  0
  2 42  1  6
  5 43  1  0
  7 44  1  0
  7 45  1  0
 16 46  1  0
 17 47  1  0
 20 48  1  0
 23 49  1  0
 24 50  1  0
 30 51  1  0
 32 52  1  0
 33 53  1  0
 38 54  1  0
M  END
$$$$
