
     RDKit          3D

378379  0  0  0  0  0  0  0  0999 V2000
   -6.5421    2.7396    3.9037 C   0  0  0  0  0  0  0  0  0  0  0  0
   -5.9871    3.0793    2.5555 C   0  0  0  0  0  0  0  0  0  0  0  0
   -5.9241    4.5950    2.3607 C   0  0  0  0  0  0  0  0  0  0  0  0
   -6.7505    2.4271    1.4180 C   0  0  0  0  0  0  0  0  0  0  0  0
   -8.1463    2.8341    1.3529 C   0  0  2  0  0  0  0  0  0  0  0  0
   -8.9649    2.5524    2.5063 N   0  0  0  0  0  0  0  0  0  0  0  0
  -10.0289    3.4758    2.8930 C   0  0  0  0  0  0  0  0  0  0  0  0
  -10.2295    4.4783    2.2175 O   0  0  0  0  0  0  0  0  0  0  0  0
  -10.7910    3.1037    4.1011 C   0  0  1  0  0  0  0  0  0  0  0  0
  -10.0048    2.1743    4.8959 N   0  0  0  0  0  0  0  0  0  0  0  0
  -11.2430    4.2345    4.9364 C   0  0  0  0  0  0  0  0  0  0  0  0
  -12.1973    5.1817    4.2691 C   0  0  0  0  0  0  0  0  0  0  0  0
  -13.4419    4.4534    3.9327 C   0  0  0  0  0  0  0  0  0  0  0  0
  -13.6842    3.3008    4.3180 O   0  0  0  0  0  0  0  0  0  0  0  0
  -14.4233    5.0640    3.1393 O   0  0  0  0  0  0  0  0  0  0  0  0
   -8.8777    2.3673    0.1139 C   0  0  0  0  0  0  0  0  0  0  0  0
  -10.1131    2.1200    0.2212 O   0  0  0  0  0  0  0  0  0  0  0  0
   -8.2420    2.2099   -1.1018 N   0  0  0  0  0  0  0  0  0  0  0  0
   -8.7611    1.8171   -2.4054 C   0  0  1  0  0  0  0  0  0  0  0  0
   -7.7706    1.4961   -3.4233 C   0  0  0  0  0  0  0  0  0  0  0  0
   -8.3569    1.2595   -4.7841 C   0  0  0  0  0  0  0  0  0  0  0  0
   -7.2611    0.8287   -5.7316 C   0  0  0  0  0  0  0  0  0  0  0  0
   -6.9208   -0.4030   -5.7296 O   0  0  0  0  0  0  0  0  0  0  0  0
   -6.6160    1.6775   -6.5875 O   0  0  0  0  0  0  0  0  0  0  0  0
   -9.7937    0.7407   -2.2975 C   0  0  0  0  0  0  0  0  0  0  0  0
  -10.7591    1.0242   -1.5188 O   0  0  0  0  0  0  0  0  0  0  0  0
   -9.8426   -0.5246   -2.9188 N   0  0  0  0  0  0  0  0  0  0  0  0
  -10.9950   -1.3871   -2.6294 C   0  0  2  0  0  0  0  0  0  0  0  0
  -10.6288   -2.7710   -2.2948 C   0  0  0  0  0  0  0  0  0  0  0  0
   -9.8368   -3.4130   -2.9850 O   0  0  0  0  0  0  0  0  0  0  0  0
  -11.2152   -3.3332   -1.1459 N   0  0  0  0  0  0  0  0  0  0  0  0
  -10.9957   -4.7038   -0.6499 C   0  0  1  0  0  0  0  0  0  0  0  0
  -10.1807   -5.5464   -1.5666 C   0  0  0  0  0  0  0  0  0  0  0  0
  -10.1273   -6.9863   -1.0949 C   0  0  0  0  0  0  0  0  0  0  0  0
   -9.2736   -7.8118   -1.9841 C   0  0  0  0  0  0  0  0  0  0  0  0
   -9.1172   -9.0201   -1.7248 O   0  0  0  0  0  0  0  0  0  0  0  0
   -8.6881   -7.1905   -3.0682 O   0  0  0  0  0  0  0  0  0  0  0  0
  -10.3915   -4.4928    0.6926 C   0  0  0  0  0  0  0  0  0  0  0  0
  -11.0456   -3.6284    1.4084 O   0  0  0  0  0  0  0  0  0  0  0  0
   -9.2413   -5.0870    1.2224 N   0  0  0  0  0  0  0  0  0  0  0  0
   -8.7474   -4.7401    2.5737 C   0  0  1  0  0  0  0  0  0  0  0  0
   -8.6292   -5.9523    3.4381 C   0  0  0  0  0  0  0  0  0  0  0  0
   -7.4723   -7.1493    2.7150 S   0  0  0  0  0  0  0  0  0  0  0  0
   -7.4384   -4.0865    2.3405 C   0  0  0  0  0  0  0  0  0  0  0  0
   -6.9370   -4.0434    1.1551 O   0  0  0  0  0  0  0  0  0  0  0  0
   -6.6366   -3.4650    3.3423 N   0  0  0  0  0  0  0  0  0  0  0  0
   -5.3831   -2.8660    2.9474 C   0  0  1  0  0  0  0  0  0  0  0  0
   -5.8474   -1.4058    2.5460 C   0  0  0  0  0  0  0  0  0  0  0  0
   -4.4183   -2.6130    4.0159 C   0  0  0  0  0  0  0  0  0  0  0  0
   -4.7153   -2.8010    5.2170 O   0  0  0  0  0  0  0  0  0  0  0  0
   -3.1215   -2.1425    3.7367 N   0  0  0  0  0  0  0  0  0  0  0  0
   -2.0739   -1.7960    4.6759 C   0  0  2  0  0  0  0  0  0  0  0  0
   -1.9944   -0.3183    4.5698 C   0  0  0  0  0  0  0  0  0  0  0  0
   -3.1075    0.2753    4.3399 O   0  0  0  0  0  0  0  0  0  0  0  0
   -0.8575    0.5118    4.6850 N   0  0  0  0  0  0  0  0  0  0  0  0
   -1.0248    1.9271    4.5313 C   0  0  1  0  0  0  0  0  0  0  0  0
   -0.9124    2.6289    5.8445 C   0  0  0  0  0  0  0  0  0  0  0  0
   -1.8566    2.2565    6.9199 C   0  0  0  0  0  0  0  0  0  0  0  0
   -1.7052    0.8968    7.4395 C   0  0  0  0  0  0  0  0  0  0  0  0
   -2.7990    0.2142    8.0325 N   0  0  0  0  0  0  0  0  0  0  0  0
   -0.6063    0.3088    7.3764 O   0  0  0  0  0  0  0  0  0  0  0  0
   -0.0170    2.5648    3.6243 C   0  0  0  0  0  0  0  0  0  0  0  0
    1.0938    2.0812    3.5005 O   0  0  0  0  0  0  0  0  0  0  0  0
   -0.3707    3.7606    2.9022 N   0  0  0  0  0  0  0  0  0  0  0  0
    0.5263    4.4808    2.0454 C   0  0  1  0  0  0  0  0  0  0  0  0
    1.9546    4.5522    2.5212 C   0  0  0  0  0  0  0  0  0  0  0  0
    1.9771    5.2491    3.9058 C   0  0  0  0  0  0  0  0  0  0  0  0
    1.3754    6.6402    3.7281 C   0  0  0  0  0  0  0  0  0  0  0  0
    3.3691    5.4111    4.4131 C   0  0  0  0  0  0  0  0  0  0  0  0
    0.3726    4.3824    0.6163 C   0  0  0  0  0  0  0  0  0  0  0  0
   -0.8029    4.1756    0.1207 O   0  0  0  0  0  0  0  0  0  0  0  0
    1.3875    4.4915   -0.3800 N   0  0  0  0  0  0  0  0  0  0  0  0
    1.1686    4.4452   -1.7827 C   0  0  1  0  0  0  0  0  0  0  0  0
    1.7165    5.6887   -2.4795 C   0  0  0  0  0  0  0  0  0  0  0  0
    1.0753    6.9519   -1.9660 C   0  0  0  0  0  0  0  0  0  0  0  0
   -0.4047    7.0211   -2.1508 C   0  0  0  0  0  0  0  0  0  0  0  0
   -0.8121    6.9392   -3.5312 N   0  0  0  0  0  0  0  0  0  0  0  0
   -1.9885    7.3674   -3.8602 C   0  0  0  0  0  0  0  0  0  0  0  0
   -2.9200    7.9202   -2.9452 N   0  0  0  0  0  0  0  0  0  0  0  0
   -2.3975    7.2882   -5.2388 N   0  0  0  0  0  0  0  0  0  0  0  0
    1.6954    3.2797   -2.5035 C   0  0  0  0  0  0  0  0  0  0  0  0
    2.2824    2.3510   -1.8699 O   0  0  0  0  0  0  0  0  0  0  0  0
    1.5975    3.0926   -3.9329 N   0  0  0  0  0  0  0  0  0  0  0  0
    2.1239    1.9507   -4.5897 C   0  0  1  0  0  0  0  0  0  0  0  0
    0.9604    1.1233   -5.2058 C   0  0  0  0  0  0  0  0  0  0  0  0
    1.5858   -0.0565   -5.9069 C   0  0  0  0  0  0  0  0  0  0  0  0
    0.4836   -0.8685   -6.5227 C   0  0  0  0  0  0  0  0  0  0  0  0
    0.9659   -2.0171   -7.2422 N   0  0  0  0  0  0  0  0  0  0  0  0
    0.2164   -3.0689   -7.3163 C   0  0  0  0  0  0  0  0  0  0  0  0
    0.6094   -4.2563   -8.0092 N   0  0  0  0  0  0  0  0  0  0  0  0
   -1.0775   -3.1011   -6.6882 N   0  0  0  0  0  0  0  0  0  0  0  0
    2.9837    2.2367   -5.7939 C   0  0  0  0  0  0  0  0  0  0  0  0
    2.5441    3.0329   -6.6641 O   0  0  0  0  0  0  0  0  0  0  0  0
    4.2367    1.6499   -5.9638 N   0  0  0  0  0  0  0  0  0  0  0  0
    5.1787    1.7640   -7.0213 C   0  0  1  0  0  0  0  0  0  0  0  0
    6.1591    2.9109   -6.6750 C   0  0  0  0  0  0  0  0  0  0  0  0
    5.3912    4.1525   -6.5888 C   0  0  0  0  0  0  0  0  0  0  0  0
    5.2151    4.8416   -7.7973 C   0  0  0  0  0  0  0  0  0  0  0  0
    4.5291    6.0080   -7.8819 C   0  0  0  0  0  0  0  0  0  0  0  0
    3.9932    6.5226   -6.7326 C   0  0  0  0  0  0  0  0  0  0  0  0
    4.1401    5.8854   -5.5324 C   0  0  0  0  0  0  0  0  0  0  0  0
    4.8465    4.6871   -5.4549 C   0  0  0  0  0  0  0  0  0  0  0  0
    6.0478    0.5766   -7.1673 C   0  0  0  0  0  0  0  0  0  0  0  0
    5.8755   -0.3593   -6.3523 O   0  0  0  0  0  0  0  0  0  0  0  0
    7.0430    0.4571   -8.1593 N   0  0  0  0  0  0  0  0  0  0  0  0
    7.8750   -0.7223   -8.2143 C   0  0  0  0  0  0  0  0  0  0  0  0
    8.7418   -0.8814   -7.0134 C   0  0  0  0  0  0  0  0  0  0  0  0
    9.4846   -1.9080   -6.9103 O   0  0  0  0  0  0  0  0  0  0  0  0
    8.7676    0.0849   -5.9749 N   0  0  0  0  0  0  0  0  0  0  0  0
    9.5902   -0.0340   -4.7819 C   0  0  1  0  0  0  0  0  0  0  0  0
   10.5908    1.0685   -4.7075 C   0  0  0  0  0  0  0  0  0  0  0  0
   11.4518    0.9726   -5.9231 C   0  0  0  0  0  0  0  0  0  0  0  0
   12.4012    0.1411   -5.9585 O   0  0  0  0  0  0  0  0  0  0  0  0
   11.2716    1.7627   -7.0479 O   0  0  0  0  0  0  0  0  0  0  0  0
    8.7574   -0.1618   -3.5584 C   0  0  0  0  0  0  0  0  0  0  0  0
    7.5090   -0.1378   -3.7008 O   0  0  0  0  0  0  0  0  0  0  0  0
    9.3104   -0.3087   -2.2644 N   0  0  0  0  0  0  0  0  0  0  0  0
    8.5343   -0.4450   -1.0770 C   0  0  1  0  0  0  0  0  0  0  0  0
    8.5601   -1.9280   -0.6877 C   0  0  0  0  0  0  0  0  0  0  0  0
   10.0092   -2.3116   -0.5094 C   0  0  0  0  0  0  0  0  0  0  0  0
   10.2276   -3.7258   -0.0839 C   0  0  0  0  0  0  0  0  0  0  0  0
    9.6934   -4.7360   -1.0528 C   0  0  0  0  0  0  0  0  0  0  0  0
   10.3980   -4.5143   -2.3210 N   0  0  0  0  0  0  0  0  0  0  0  0
    8.9970    0.4149    0.0452 C   0  0  0  0  0  0  0  0  0  0  0  0
    9.9922    1.1663   -0.0840 O   0  0  0  0  0  0  0  0  0  0  0  0
    8.3168    0.3853    1.2687 N   0  0  0  0  0  0  0  0  0  0  0  0
    8.7713    1.2446    2.4753 C   0  0  1  0  0  0  0  0  0  0  0  0
    7.4966    1.7604    2.9765 C   0  0  0  0  0  0  0  0  0  0  0  0
    7.3549    2.7594    4.0248 C   0  0  0  0  0  0  0  0  0  0  0  0
    7.8834    2.5866    5.3941 C   0  0  0  0  0  0  0  0  0  0  0  0
    5.7922    2.8560    4.2526 C   0  0  0  0  0  0  0  0  0  0  0  0
    9.3763    0.1775    3.2979 C   0  0  0  0  0  0  0  0  0  0  0  0
   10.0849   -0.6414    2.5263 O   0  0  0  0  0  0  0  0  0  0  0  0
    9.4100   -0.2179    4.6067 N   0  0  0  0  0  0  0  0  0  0  0  0
   10.1380   -1.4773    4.9746 C   0  0  1  0  0  0  0  0  0  0  0  0
   11.0082   -1.2561    6.1450 C   0  0  0  0  0  0  0  0  0  0  0  0
   12.0345   -0.2107    5.9545 C   0  0  0  0  0  0  0  0  0  0  0  0
   12.8970    0.0826    7.0597 N   0  0  0  0  0  0  0  0  0  0  0  0
   12.2331    0.4536    4.9213 O   0  0  0  0  0  0  0  0  0  0  0  0
    8.9888   -2.3641    5.4021 C   0  0  0  0  0  0  0  0  0  0  0  0
    8.7727   -2.5806    6.5968 O   0  0  0  0  0  0  0  0  0  0  0  0
    8.1622   -2.9113    4.3861 N   0  0  0  0  0  0  0  0  0  0  0  0
    7.0250   -3.7409    4.5328 C   0  0  1  0  0  0  0  0  0  0  0  0
    5.7510   -3.0516    4.9967 C   0  0  0  0  0  0  0  0  0  0  0  0
    5.8990   -2.4074    6.2978 C   0  0  0  0  0  0  0  0  0  0  0  0
    5.7524   -3.1546    7.4786 C   0  0  0  0  0  0  0  0  0  0  0  0
    5.8211   -2.5775    8.7187 C   0  0  0  0  0  0  0  0  0  0  0  0
    6.0404   -1.2171    8.8500 C   0  0  0  0  0  0  0  0  0  0  0  0
    6.1884   -0.4548    7.7316 C   0  0  0  0  0  0  0  0  0  0  0  0
    6.1185   -1.0373    6.4890 C   0  0  0  0  0  0  0  0  0  0  0  0
    6.7029   -4.3771    3.1825 C   0  0  0  0  0  0  0  0  0  0  0  0
    7.6741   -4.7789    2.5217 O   0  0  0  0  0  0  0  0  0  0  0  0
    5.3579   -4.4585    2.7679 N   0  0  0  0  0  0  0  0  0  0  0  0
    4.9704   -5.0084    1.5035 C   0  0  1  0  0  0  0  0  0  0  0  0
    4.4938   -6.3885    1.5787 C   0  0  0  0  0  0  0  0  0  0  0  0
    3.3432   -6.7248    2.4690 C   0  0  0  0  0  0  0  0  0  0  0  0
    3.0649   -8.2395    2.3816 C   0  0  0  0  0  0  0  0  0  0  0  0
    1.9872   -8.5929    3.2545 N   0  0  0  0  0  0  0  0  0  0  0  0
    2.2203   -9.1447    4.4289 C   0  0  0  0  0  0  0  0  0  0  0  0
    1.1308   -9.4815    5.2677 N   0  0  0  0  0  0  0  0  0  0  0  0
    3.5429   -9.3945    4.8599 N   0  0  0  0  0  0  0  0  0  0  0  0
    4.2530   -4.0901    0.6118 C   0  0  0  0  0  0  0  0  0  0  0  0
    4.7084   -2.9045    0.5060 O   0  0  0  0  0  0  0  0  0  0  0  0
    3.1055   -4.4112   -0.1334 N   0  0  0  0  0  0  0  0  0  0  0  0
    2.4182   -3.5267   -1.0595 C   0  0  1  0  0  0  0  0  0  0  0  0
    1.7200   -4.2854   -2.1271 C   0  0  0  0  0  0  0  0  0  0  0  0
    2.7040   -5.1614   -2.9165 C   0  0  0  0  0  0  0  0  0  0  0  0
    1.9778   -5.9329   -3.9358 C   0  0  0  0  0  0  0  0  0  0  0  0
    2.6598   -6.8347   -4.7694 N   0  0  0  0  0  0  0  0  0  0  0  0
    0.7393   -5.7786   -4.0533 O   0  0  0  0  0  0  0  0  0  0  0  0
    1.5892   -2.4750   -0.4900 C   0  0  0  0  0  0  0  0  0  0  0  0
    1.9082   -1.8887    0.5883 O   0  0  0  0  0  0  0  0  0  0  0  0
    0.4104   -2.0573   -1.1069 N   0  0  0  0  0  0  0  0  0  0  0  0
   -0.5093   -0.9973   -0.7071 C   0  0  1  0  0  0  0  0  0  0  0  0
   -0.7617   -0.0842   -1.8802 C   0  0  0  0  0  0  0  0  0  0  0  0
   -1.7455    0.9949   -1.5870 C   0  0  0  0  0  0  0  0  0  0  0  0
   -1.9133    1.9066   -2.8266 C   0  0  0  0  0  0  0  0  0  0  0  0
   -2.9434    2.9780   -2.5789 C   0  0  0  0  0  0  0  0  0  0  0  0
   -4.2699    2.4303   -2.2974 N   0  0  0  0  0  0  0  0  0  0  0  0
   -1.7275   -1.4527   -0.0542 C   0  0  0  0  0  0  0  0  0  0  0  0
   -1.9339   -2.6655    0.1815 O   0  0  0  0  0  0  0  0  0  0  0  0
   -2.7227   -0.5923    0.3417 O   0  0  0  0  0  0  0  0  0  0  0  0
   -0.8515   -2.5319    4.2576 C   0  0  1  0  0  0  0  0  0  0  0  0
   -1.2999   -3.9930    4.0474 C   0  0  0  0  0  0  0  0  0  0  0  0
   -0.5007   -2.1118    2.9514 O   0  0  0  0  0  0  0  0  0  0  0  0
  -11.9613   -1.3527   -3.8139 C   0  0  0  0  0  0  0  0  0  0  0  0
  -11.3633   -1.8357   -5.0907 C   0  0  0  0  0  0  0  0  0  0  0  0
  -12.4840    0.0835   -3.9345 C   0  0  0  0  0  0  0  0  0  0  0  0
   -6.6244    1.6313    3.9845 H   0  0  0  0  0  0  0  0  0  0  0  0
   -5.7988    3.0051    4.7112 H   0  0  0  0  0  0  0  0  0  0  0  0
   -7.4642    3.2800    4.1685 H   0  0  0  0  0  0  0  0  0  0  0  0
   -4.9449    2.7116    2.4950 H   0  0  0  0  0  0  0  0  0  0  0  0
   -5.4490    4.9647    3.3167 H   0  0  0  0  0  0  0  0  0  0  0  0
   -6.9099    5.0607    2.2901 H   0  0  0  0  0  0  0  0  0  0  0  0
   -5.3199    4.7885    1.4766 H   0  0  0  0  0  0  0  0  0  0  0  0
   -6.2173    2.6584    0.4640 H   0  0  0  0  0  0  0  0  0  0  0  0
   -6.6042    1.3181    1.5375 H   0  0  0  0  0  0  0  0  0  0  0  0
   -8.1838    3.9743    1.1972 H   0  0  0  0  0  0  0  0  0  0  0  0
   -8.7967    1.6792    3.0561 H   0  0  0  0  0  0  0  0  0  0  0  0
  -11.7028    2.5434    3.7109 H   0  0  0  0  0  0  0  0  0  0  0  0
  -10.2719    2.2239    5.9259 H   0  0  0  0  0  0  0  0  0  0  0  0
  -10.0918    1.1910    4.5785 H   0  0  0  0  0  0  0  0  0  0  0  0
  -10.3673    4.8623    5.2471 H   0  0  0  0  0  0  0  0  0  0  0  0
  -11.7162    3.9061    5.8943 H   0  0  0  0  0  0  0  0  0  0  0  0
  -12.4945    5.9762    5.0044 H   0  0  0  0  0  0  0  0  0  0  0  0
  -11.7419    5.7134    3.3974 H   0  0  0  0  0  0  0  0  0  0  0  0
  -14.7758    4.5546    2.3079 H   0  0  0  0  0  0  0  0  0  0  0  0
   -7.1788    2.4217   -1.1606 H   0  0  0  0  0  0  0  0  0  0  0  0
   -9.3933    2.7179   -2.7272 H   0  0  0  0  0  0  0  0  0  0  0  0
   -7.1731    0.5625   -3.1980 H   0  0  0  0  0  0  0  0  0  0  0  0
   -6.9785    2.2748   -3.5667 H   0  0  0  0  0  0  0  0  0  0  0  0
   -9.2351    0.6886   -4.9154 H   0  0  0  0  0  0  0  0  0  0  0  0
   -8.5988    2.3444   -5.1628 H   0  0  0  0  0  0  0  0  0  0  0  0
   -5.6498    1.5858   -6.8573 H   0  0  0  0  0  0  0  0  0  0  0  0
   -9.0688   -0.8384   -3.5185 H   0  0  0  0  0  0  0  0  0  0  0  0
  -11.5470   -0.9376   -1.7924 H   0  0  0  0  0  0  0  0  0  0  0  0
  -11.8854   -2.7660   -0.5407 H   0  0  0  0  0  0  0  0  0  0  0  0
  -11.9841   -5.1700   -0.5692 H   0  0  0  0  0  0  0  0  0  0  0  0
   -9.1467   -5.1541   -1.7165 H   0  0  0  0  0  0  0  0  0  0  0  0
  -10.6663   -5.5461   -2.5626 H   0  0  0  0  0  0  0  0  0  0  0  0
  -11.1911   -7.4314   -1.3165 H   0  0  0  0  0  0  0  0  0  0  0  0
  -10.0379   -7.1469   -0.0404 H   0  0  0  0  0  0  0  0  0  0  0  0
   -8.0873   -7.6694   -3.7002 H   0  0  0  0  0  0  0  0  0  0  0  0
   -8.6665   -5.7452    0.7017 H   0  0  0  0  0  0  0  0  0  0  0  0
   -9.4792   -4.0424    3.0253 H   0  0  0  0  0  0  0  0  0  0  0  0
   -8.2902   -5.6031    4.4376 H   0  0  0  0  0  0  0  0  0  0  0  0
   -9.6178   -6.3978    3.5853 H   0  0  0  0  0  0  0  0  0  0  0  0
   -8.2326   -8.2743    2.3095 H   0  0  0  0  0  0  0  0  0  0  0  0
   -6.9649   -3.4591    4.3095 H   0  0  0  0  0  0  0  0  0  0  0  0
   -5.0379   -3.3265    2.0319 H   0  0  0  0  0  0  0  0  0  0  0  0
   -6.5421   -1.4696    1.7196 H   0  0  0  0  0  0  0  0  0  0  0  0
   -4.9981   -0.7421    2.4813 H   0  0  0  0  0  0  0  0  0  0  0  0
   -6.4181   -1.0890    3.4694 H   0  0  0  0  0  0  0  0  0  0  0  0
   -2.8768   -2.0538    2.7223 H   0  0  0  0  0  0  0  0  0  0  0  0
   -2.3583   -2.0462    5.7123 H   0  0  0  0  0  0  0  0  0  0  0  0
    0.0411    0.0540    4.8499 H   0  0  0  0  0  0  0  0  0  0  0  0
   -2.0428    2.1617    4.1276 H   0  0  0  0  0  0  0  0  0  0  0  0
    0.1594    2.4985    6.1937 H   0  0  0  0  0  0  0  0  0  0  0  0
   -1.0510    3.7322    5.6120 H   0  0  0  0  0  0  0  0  0  0  0  0
   -2.9142    2.4782    6.6141 H   0  0  0  0  0  0  0  0  0  0  0  0
   -1.6408    2.9464    7.7966 H   0  0  0  0  0  0  0  0  0  0  0  0
   -3.4788    0.6246    8.6875 H   0  0  0  0  0  0  0  0  0  0  0  0
   -2.9726   -0.8149    7.8136 H   0  0  0  0  0  0  0  0  0  0  0  0
   -1.3697    4.0653    3.0671 H   0  0  0  0  0  0  0  0  0  0  0  0
    0.2141    5.6224    2.2583 H   0  0  0  0  0  0  0  0  0  0  0  0
    2.5161    5.2895    1.8778 H   0  0  0  0  0  0  0  0  0  0  0  0
    2.4280    3.5994    2.5011 H   0  0  0  0  0  0  0  0  0  0  0  0
    1.3678    4.6994    4.6304 H   0  0  0  0  0  0  0  0  0  0  0  0
    1.5233    7.0565    2.7246 H   0  0  0  0  0  0  0  0  0  0  0  0
    1.9121    7.3192    4.4516 H   0  0  0  0  0  0  0  0  0  0  0  0
    0.3013    6.6643    4.0659 H   0  0  0  0  0  0  0  0  0  0  0  0
    4.1407    5.1623    3.6585 H   0  0  0  0  0  0  0  0  0  0  0  0
    3.5641    6.4873    4.6900 H   0  0  0  0  0  0  0  0  0  0  0  0
    3.5724    4.8343    5.3220 H   0  0  0  0  0  0  0  0  0  0  0  0
    2.3778    4.6152    0.0183 H   0  0  0  0  0  0  0  0  0  0  0  0
    0.0594    4.4428   -1.9584 H   0  0  0  0  0  0  0  0  0  0  0  0
    1.5403    5.6284   -3.5676 H   0  0  0  0  0  0  0  0  0  0  0  0
    2.8164    5.7671   -2.3289 H   0  0  0  0  0  0  0  0  0  0  0  0
    1.2360    6.9177   -0.8412 H   0  0  0  0  0  0  0  0  0  0  0  0
    1.5905    7.8355   -2.3830 H   0  0  0  0  0  0  0  0  0  0  0  0
   -0.7150    8.0601   -1.8100 H   0  0  0  0  0  0  0  0  0  0  0  0
   -0.9782    6.3407   -1.4979 H   0  0  0  0  0  0  0  0  0  0  0  0
   -3.2773    8.8783   -3.1220 H   0  0  0  0  0  0  0  0  0  0  0  0
   -3.2641    7.4125   -2.1058 H   0  0  0  0  0  0  0  0  0  0  0  0
   -2.0134    7.8905   -5.9909 H   0  0  0  0  0  0  0  0  0  0  0  0
   -3.1244    6.5877   -5.4971 H   0  0  0  0  0  0  0  0  0  0  0  0
    1.1186    3.8478   -4.4604 H   0  0  0  0  0  0  0  0  0  0  0  0
    2.6833    1.2770   -3.9403 H   0  0  0  0  0  0  0  0  0  0  0  0
    0.2693    0.8943   -4.4192 H   0  0  0  0  0  0  0  0  0  0  0  0
    0.5531    1.7854   -6.0020 H   0  0  0  0  0  0  0  0  0  0  0  0
    2.3148    0.2436   -6.6718 H   0  0  0  0  0  0  0  0  0  0  0  0
    2.1338   -0.6972   -5.1553 H   0  0  0  0  0  0  0  0  0  0  0  0
   -0.1426   -1.2573   -5.6793 H   0  0  0  0  0  0  0  0  0  0  0  0
   -0.1811   -0.2464   -7.1365 H   0  0  0  0  0  0  0  0  0  0  0  0
    1.3719   -4.2224   -8.7244 H   0  0  0  0  0  0  0  0  0  0  0  0
    0.1570   -5.1688   -7.8304 H   0  0  0  0  0  0  0  0  0  0  0  0
   -1.1257   -3.0808   -5.6378 H   0  0  0  0  0  0  0  0  0  0  0  0
   -1.9583   -3.1478   -7.2361 H   0  0  0  0  0  0  0  0  0  0  0  0
    4.5297    0.9983   -5.1479 H   0  0  0  0  0  0  0  0  0  0  0  0
    4.7468    2.0505   -8.0018 H   0  0  0  0  0  0  0  0  0  0  0  0
    6.5622    2.6839   -5.6708 H   0  0  0  0  0  0  0  0  0  0  0  0
    6.9251    2.9950   -7.4466 H   0  0  0  0  0  0  0  0  0  0  0  0
    5.6386    4.4383   -8.7009 H   0  0  0  0  0  0  0  0  0  0  0  0
    4.4281    6.4898   -8.8497 H   0  0  0  0  0  0  0  0  0  0  0  0
    3.4439    7.4682   -6.8467 H   0  0  0  0  0  0  0  0  0  0  0  0
    3.7135    6.2989   -4.6434 H   0  0  0  0  0  0  0  0  0  0  0  0
    4.9780    4.1593   -4.5179 H   0  0  0  0  0  0  0  0  0  0  0  0
    7.1369    1.2546   -8.8345 H   0  0  0  0  0  0  0  0  0  0  0  0
    8.5220   -0.6995   -9.1355 H   0  0  0  0  0  0  0  0  0  0  0  0
    7.2451   -1.6327   -8.3292 H   0  0  0  0  0  0  0  0  0  0  0  0
    8.1783    0.9354   -6.0769 H   0  0  0  0  0  0  0  0  0  0  0  0
   10.1545   -0.9989   -4.9116 H   0  0  0  0  0  0  0  0  0  0  0  0
   11.2175    0.9196   -3.8216 H   0  0  0  0  0  0  0  0  0  0  0  0
   10.1239    2.0772   -4.7149 H   0  0  0  0  0  0  0  0  0  0  0  0
   11.8456    1.6603   -7.8933 H   0  0  0  0  0  0  0  0  0  0  0  0
   10.3575   -0.3127   -2.2129 H   0  0  0  0  0  0  0  0  0  0  0  0
    7.4523   -0.2520   -1.3327 H   0  0  0  0  0  0  0  0  0  0  0  0
    8.1584   -2.4947   -1.5470 H   0  0  0  0  0  0  0  0  0  0  0  0
    7.9465   -2.1562    0.1889 H   0  0  0  0  0  0  0  0  0  0  0  0
   10.5401   -2.2229   -1.5204 H   0  0  0  0  0  0  0  0  0  0  0  0
   10.5771   -1.6336    0.1356 H   0  0  0  0  0  0  0  0  0  0  0  0
   11.3404   -3.8713   -0.0300 H   0  0  0  0  0  0  0  0  0  0  0  0
    9.8706   -3.9254    0.9543 H   0  0  0  0  0  0  0  0  0  0  0  0
    9.8914   -5.7885   -0.7079 H   0  0  0  0  0  0  0  0  0  0  0  0
    8.6339   -4.5407   -1.2360 H   0  0  0  0  0  0  0  0  0  0  0  0
   11.3073   -4.0306   -2.1636 H   0  0  0  0  0  0  0  0  0  0  0  0
    9.8054   -3.9154   -2.9441 H   0  0  0  0  0  0  0  0  0  0  0  0
    7.4875   -0.2186    1.3943 H   0  0  0  0  0  0  0  0  0  0  0  0
    9.4892    1.9745    2.1156 H   0  0  0  0  0  0  0  0  0  0  0  0
    6.8401    2.1320    2.0947 H   0  0  0  0  0  0  0  0  0  0  0  0
    6.8135    0.8721    3.3131 H   0  0  0  0  0  0  0  0  0  0  0  0
    7.6704    3.7983    3.7002 H   0  0  0  0  0  0  0  0  0  0  0  0
    8.9912    2.5619    5.4635 H   0  0  0  0  0  0  0  0  0  0  0  0
    7.3686    1.8284    6.0252 H   0  0  0  0  0  0  0  0  0  0  0  0
    7.6313    3.5616    5.9435 H   0  0  0  0  0  0  0  0  0  0  0  0
    5.2952    3.1009    3.3228 H   0  0  0  0  0  0  0  0  0  0  0  0
    5.5222    1.7933    4.5161 H   0  0  0  0  0  0  0  0  0  0  0  0
    5.5727    3.4455    5.1329 H   0  0  0  0  0  0  0  0  0  0  0  0
    8.9768    0.2439    5.3743 H   0  0  0  0  0  0  0  0  0  0  0  0
   10.6241   -1.9010    4.1388 H   0  0  0  0  0  0  0  0  0  0  0  0
   11.5763   -2.2108    6.3262 H   0  0  0  0  0  0  0  0  0  0  0  0
   10.4331   -1.0928    7.1055 H   0  0  0  0  0  0  0  0  0  0  0  0
   13.9247    0.0362    7.0104 H   0  0  0  0  0  0  0  0  0  0  0  0
   12.4841    0.3657    7.9993 H   0  0  0  0  0  0  0  0  0  0  0  0
    8.4453   -2.6539    3.3803 H   0  0  0  0  0  0  0  0  0  0  0  0
    7.1978   -4.5345    5.2585 H   0  0  0  0  0  0  0  0  0  0  0  0
    5.3439   -2.3815    4.2226 H   0  0  0  0  0  0  0  0  0  0  0  0
    5.0463   -3.9360    5.2020 H   0  0  0  0  0  0  0  0  0  0  0  0
    5.5818   -4.2185    7.3675 H   0  0  0  0  0  0  0  0  0  0  0  0
    5.7082   -3.1450    9.6335 H   0  0  0  0  0  0  0  0  0  0  0  0
    6.0945   -0.7565    9.8502 H   0  0  0  0  0  0  0  0  0  0  0  0
    6.3599    0.6028    7.8614 H   0  0  0  0  0  0  0  0  0  0  0  0
    6.2397   -0.4299    5.6269 H   0  0  0  0  0  0  0  0  0  0  0  0
    4.6088   -4.0860    3.4219 H   0  0  0  0  0  0  0  0  0  0  0  0
    6.0409   -5.1527    0.9846 H   0  0  0  0  0  0  0  0  0  0  0  0
    4.2745   -6.7305    0.5051 H   0  0  0  0  0  0  0  0  0  0  0  0
    5.3334   -7.1132    1.8544 H   0  0  0  0  0  0  0  0  0  0  0  0
    2.4322   -6.2242    2.1196 H   0  0  0  0  0  0  0  0  0  0  0  0
    3.5085   -6.4203    3.5206 H   0  0  0  0  0  0  0  0  0  0  0  0
    2.8869   -8.4808    1.3257 H   0  0  0  0  0  0  0  0  0  0  0  0
    3.9720   -8.8026    2.6902 H   0  0  0  0  0  0  0  0  0  0  0  0
    0.3382   -8.8061    5.3920 H   0  0  0  0  0  0  0  0  0  0  0  0
    1.0757  -10.3822    5.7749 H   0  0  0  0  0  0  0  0  0  0  0  0
    3.9940  -10.2906    4.6365 H   0  0  0  0  0  0  0  0  0  0  0  0
    4.0557   -8.6792    5.4005 H   0  0  0  0  0  0  0  0  0  0  0  0
    2.7014   -5.3771   -0.0361 H   0  0  0  0  0  0  0  0  0  0  0  0
    3.2850   -2.9527   -1.5482 H   0  0  0  0  0  0  0  0  0  0  0  0
    0.8128   -4.8292   -1.8292 H   0  0  0  0  0  0  0  0  0  0  0  0
    1.3897   -3.5411   -2.9177 H   0  0  0  0  0  0  0  0  0  0  0  0
    3.4049   -4.4912   -3.4649 H   0  0  0  0  0  0  0  0  0  0  0  0
    3.3322   -5.7683   -2.2291 H   0  0  0  0  0  0  0  0  0  0  0  0
    3.6695   -7.0475   -4.6128 H   0  0  0  0  0  0  0  0  0  0  0  0
    2.1649   -7.2983   -5.5508 H   0  0  0  0  0  0  0  0  0  0  0  0
    0.0658   -2.5453   -2.0034 H   0  0  0  0  0  0  0  0  0  0  0  0
    0.1320   -0.3846    0.0244 H   0  0  0  0  0  0  0  0  0  0  0  0
   -1.1188   -0.7200   -2.7201 H   0  0  0  0  0  0  0  0  0  0  0  0
    0.2083    0.4197   -2.1559 H   0  0  0  0  0  0  0  0  0  0  0  0
   -2.7617    0.5513   -1.3818 H   0  0  0  0  0  0  0  0  0  0  0  0
   -1.5076    1.6599   -0.7512 H   0  0  0  0  0  0  0  0  0  0  0  0
   -0.9533    2.4198   -2.9822 H   0  0  0  0  0  0  0  0  0  0  0  0
   -2.2068    1.3199   -3.7160 H   0  0  0  0  0  0  0  0  0  0  0  0
   -3.0350    3.6565   -3.4445 H   0  0  0  0  0  0  0  0  0  0  0  0
   -2.6892    3.6132   -1.7099 H   0  0  0  0  0  0  0  0  0  0  0  0
   -4.2941    1.8676   -1.4113 H   0  0  0  0  0  0  0  0  0  0  0  0
   -4.9264    3.2206   -2.1215 H   0  0  0  0  0  0  0  0  0  0  0  0
   -3.0678   -0.3846    1.2444 H   0  0  0  0  0  0  0  0  0  0  0  0
   -0.0182   -2.5620    4.9455 H   0  0  0  0  0  0  0  0  0  0  0  0
   -0.4992   -4.5456    3.5301 H   0  0  0  0  0  0  0  0  0  0  0  0
   -2.2221   -4.0214    3.4149 H   0  0  0  0  0  0  0  0  0  0  0  0
   -1.5809   -4.4313    5.0261 H   0  0  0  0  0  0  0  0  0  0  0  0
    0.4291   -2.4627    2.8105 H   0  0  0  0  0  0  0  0  0  0  0  0
  -12.8393   -1.9850   -3.5803 H   0  0  0  0  0  0  0  0  0  0  0  0
  -11.9240   -2.7299   -5.5066 H   0  0  0  0  0  0  0  0  0  0  0  0
  -11.4288   -1.0942   -5.9317 H   0  0  0  0  0  0  0  0  0  0  0  0
  -10.3251   -2.2147   -4.9762 H   0  0  0  0  0  0  0  0  0  0  0  0
  -11.6796    0.7991   -4.2049 H   0  0  0  0  0  0  0  0  0  0  0  0
  -13.0621    0.3674   -3.0355 H   0  0  0  0  0  0  0  0  0  0  0  0
  -13.2273    0.1443   -4.7768 H   0  0  0  0  0  0  0  0  0  0  0  0
  1  2  1  0
  2  3  1  0
  2  4  1  0
  4  5  1  0
  5  6  1  0
  6  7  1  0
  7  8  2  0
  7  9  1  0
  9 10  1  0
  9 11  1  0
 11 12  1  0
 12 13  1  0
 13 14  2  0
 13 15  1  0
  5 16  1  0
 16 17  2  0
 16 18  1  0
 18 19  1  0
 19 20  1  0
 20 21  1  0
 21 22  1  0
 22 23  2  0
 22 24  1  0
 19 25  1  0
 25 26  2  0
 25 27  1  0
 27 28  1  0
 28 29  1  0
 29 30  2  0
 29 31  1  0
 31 32  1  0
 32 33  1  0
 33 34  1  0
 34 35  1  0
 35 36  2  0
 35 37  1  0
 32 38  1  0
 38 39  2  0
 38 40  1  0
 40 41  1  0
 41 42  1  0
 42 43  1  0
 41 44  1  0
 44 45  2  0
 44 46  1  0
 46 47  1  0
 47 48  1  0
 47 49  1  0
 49 50  2  0
 49 51  1  0
 51 52  1  0
 52 53  1  0
 53 54  2  0
 53 55  1  0
 55 56  1  0
 56 57  1  0
 57 58  1  0
 58 59  1  0
 59 60  1  0
 59 61  2  0
 56 62  1  0
 62 63  2  0
 62 64  1  0
 64 65  1  0
 65 66  1  0
 66 67  1  0
 67 68  1  0
 67 69  1  0
 65 70  1  0
 70 71  2  0
 70 72  1  0
 72 73  1  0
 73 74  1  0
 74 75  1  0
 75 76  1  0
 76 77  1  0
 77 78  2  3
 78 79  1  0
 78 80  1  0
 73 81  1  0
 81 82  2  0
 81 83  1  0
 83 84  1  0
 84 85  1  0
 85 86  1  0
 86 87  1  0
 87 88  1  0
 88 89  2  3
 89 90  1  0
 89 91  1  0
 84 92  1  0
 92 93  2  0
 92 94  1  0
 94 95  1  0
 95 96  1  0
 96 97  1  0
 97 98  2  0
 98 99  1  0
 99100  2  0
100101  1  0
101102  2  0
 95103  1  0
103104  2  0
103105  1  0
105106  1  0
106107  1  0
107108  2  0
107109  1  0
109110  1  0
110111  1  0
111112  1  0
112113  2  0
112114  1  0
110115  1  0
115116  2  0
115117  1  0
117118  1  0
118119  1  0
119120  1  0
120121  1  0
121122  1  0
122123  1  0
118124  1  0
124125  2  0
124126  1  0
126127  1  0
127128  1  0
128129  1  0
129130  1  0
129131  1  0
127132  1  0
132133  2  0
132134  1  0
134135  1  0
135136  1  0
136137  1  0
137138  1  0
137139  2  0
135140  1  0
140141  2  0
140142  1  0
142143  1  0
143144  1  0
144145  1  0
145146  2  0
146147  1  0
147148  2  0
148149  1  0
149150  2  0
143151  1  0
151152  2  0
151153  1  0
153154  1  0
154155  1  0
155156  1  0
156157  1  0
157158  1  0
158159  2  3
159160  1  0
159161  1  0
154162  1  0
162163  2  0
162164  1  0
164165  1  0
165166  1  0
166167  1  0
167168  1  0
168169  1  0
168170  2  0
165171  1  0
171172  2  0
171173  1  0
173174  1  0
174175  1  0
175176  1  0
176177  1  0
177178  1  0
178179  1  0
174180  1  0
180181  2  0
180182  1  0
 52183  1  0
183184  1  0
183185  1  0
 28186  1  0
186187  1  0
186188  1  0
102 97  1  0
150145  1  0
  1189  1  0
  1190  1  0
  1191  1  0
  2192  1  0
  3193  1  0
  3194  1  0
  3195  1  0
  4196  1  0
  4197  1  0
  5198  1  6
  6199  1  0
  9200  1  6
 10201  1  0
 10202  1  0
 11203  1  0
 11204  1  0
 12205  1  0
 12206  1  0
 15207  1  0
 18208  1  0
 19209  1  6
 20210  1  0
 20211  1  0
 21212  1  0
 21213  1  0
 24214  1  0
 27215  1  0
 28216  1  1
 31217  1  0
 32218  1  1
 33219  1  0
 33220  1  0
 34221  1  0
 34222  1  0
 37223  1  0
 40224  1  0
 41225  1  1
 42226  1  0
 42227  1  0
 43228  1  0
 46229  1  0
 47230  1  6
 48231  1  0
 48232  1  0
 48233  1  0
 51234  1  0
 52235  1  1
 55236  1  0
 56237  1  6
 57238  1  0
 57239  1  0
 58240  1  0
 58241  1  0
 60242  1  0
 60243  1  0
 64244  1  0
 65245  1  1
 66246  1  0
 66247  1  0
 67248  1  0
 68249  1  0
 68250  1  0
 68251  1  0
 69252  1  0
 69253  1  0
 69254  1  0
 72255  1  0
 73256  1  1
 74257  1  0
 74258  1  0
 75259  1  0
 75260  1  0
 76261  1  0
 76262  1  0
 79263  1  0
 79264  1  0
 80265  1  0
 80266  1  0
 83267  1  0
 84268  1  1
 85269  1  0
 85270  1  0
 86271  1  0
 86272  1  0
 87273  1  0
 87274  1  0
 90275  1  0
 90276  1  0
 91277  1  0
 91278  1  0
 94279  1  0
 95280  1  6
 96281  1  0
 96282  1  0
 98283  1  0
 99284  1  0
100285  1  0
101286  1  0
102287  1  0
105288  1  0
106289  1  0
106290  1  0
109291  1  0
110292  1  6
111293  1  0
111294  1  0
114295  1  0
117296  1  0
118297  1  6
119298  1  0
119299  1  0
120300  1  0
120301  1  0
121302  1  0
121303  1  0
122304  1  0
122305  1  0
123306  1  0
123307  1  0
126308  1  0
127309  1  6
128310  1  0
128311  1  0
129312  1  0
130313  1  0
130314  1  0
130315  1  0
131316  1  0
131317  1  0
131318  1  0
134319  1  0
135320  1  6
136321  1  0
136322  1  0
138323  1  0
138324  1  0
142325  1  0
143326  1  1
144327  1  0
144328  1  0
146329  1  0
147330  1  0
148331  1  0
149332  1  0
150333  1  0
153334  1  0
154335  1  6
155336  1  0
155337  1  0
156338  1  0
156339  1  0
157340  1  0
157341  1  0
160342  1  0
160343  1  0
161344  1  0
161345  1  0
164346  1  0
165347  1  6
166348  1  0
166349  1  0
167350  1  0
167351  1  0
169352  1  0
169353  1  0
173354  1  0
174355  1  1
175356  1  0
175357  1  0
176358  1  0
176359  1  0
177360  1  0
177361  1  0
178362  1  0
178363  1  0
179364  1  0
179365  1  0
182366  1  0
183367  1  1
184368  1  0
184369  1  0
184370  1  0
185371  1  0
186372  1  0
187373  1  0
187374  1  0
187375  1  0
188376  1  0
188377  1  0
188378  1  0
M  END
$$$$
