
     RDKit          3D

 58 61  0  0  0  0  0  0  0  0999 V2000
   -3.7098    2.7373   -0.5253 C   0  0  0  0  0  0  0  0  0  0  0  0
   -2.3234    3.2355   -0.3615 C   0  0  0  0  0  0  0  0  0  0  0  0
   -1.2388    2.4042   -0.1814 C   0  0  0  0  0  0  0  0  0  0  0  0
   -1.0681    1.0090   -0.0993 C   0  0  0  0  0  0  0  0  0  0  0  0
   -2.2168    0.2726   -0.2213 O   0  0  0  0  0  0  0  0  0  0  0  0
   -2.2588   -1.1102   -0.1685 C   0  0  2  0  0  0  0  0  0  0  0  0
   -2.8384   -1.5828   -1.5075 C   0  0  0  0  0  0  0  0  0  0  0  0
   -3.2027   -1.5451    0.9432 C   0  0  1  0  0  0  0  0  0  0  0  0
   -4.5792   -0.9867    0.6274 C   0  0  0  0  0  0  0  0  0  0  0  0
   -5.2850   -2.0934   -0.0235 N   0  0  0  0  0  0  0  0  0  0  0  0
   -4.7313   -3.2893    0.4799 C   0  0  0  0  0  0  0  0  0  0  0  0
   -5.2945   -4.4144    0.5151 O   0  0  0  0  0  0  0  0  0  0  0  0
   -3.3553   -3.0308    0.9758 C   0  0  0  0  0  0  0  0  0  0  0  0
    0.1988    0.5098    0.0910 C   0  0  0  0  0  0  0  0  0  0  0  0
    1.3173    1.3383    0.2051 C   0  0  0  0  0  0  0  0  0  0  0  0
    2.6494    0.7678    0.4073 C   0  0  0  0  0  0  0  0  0  0  0  0
    3.6830    1.3535    1.1008 C   0  0  0  0  0  0  0  0  0  0  0  0
    4.7351    0.5229    1.0624 N   0  0  0  0  0  0  0  0  0  0  0  0
    4.4363   -0.5674    0.3814 N   0  0  0  0  0  0  0  0  0  0  0  0
    5.3196   -1.6841    0.1305 C   0  0  0  0  0  0  0  0  0  0  0  0
    4.5446   -2.9777    0.4114 C   0  0  0  0  0  0  0  0  0  0  0  0
    6.4898   -1.6730    1.0729 C   0  0  0  0  0  0  0  0  0  0  0  0
    5.8387   -1.7238   -1.2779 C   0  0  0  0  0  0  0  0  0  0  0  0
    3.1527   -0.4381   -0.0329 C   0  0  0  0  0  0  0  0  0  0  0  0
    1.0955    2.6918    0.1180 C   0  0  0  0  0  0  0  0  0  0  0  0
   -0.1557    3.2375   -0.0722 C   0  0  0  0  0  0  0  0  0  0  0  0
   -0.6262    4.5107   -0.1892 N   0  0  0  0  0  0  0  0  0  0  0  0
   -1.9292    4.5207   -0.3636 N   0  0  0  0  0  0  0  0  0  0  0  0
   -2.8283    5.6530   -0.5316 C   0  0  0  0  0  0  0  0  0  0  0  0
   -4.4283    3.5630   -0.7036 H   0  0  0  0  0  0  0  0  0  0  0  0
   -4.0579    2.1806    0.3761 H   0  0  0  0  0  0  0  0  0  0  0  0
   -3.7559    2.0711   -1.4173 H   0  0  0  0  0  0  0  0  0  0  0  0
   -1.2804   -1.5439   -0.0194 H   0  0  0  0  0  0  0  0  0  0  0  0
   -3.2866   -2.5784   -1.4200 H   0  0  0  0  0  0  0  0  0  0  0  0
   -3.6013   -0.8495   -1.7936 H   0  0  0  0  0  0  0  0  0  0  0  0
   -2.0114   -1.5550   -2.2506 H   0  0  0  0  0  0  0  0  0  0  0  0
   -2.7993   -1.1711    1.8984 H   0  0  0  0  0  0  0  0  0  0  0  0
   -5.1104   -0.6528    1.5230 H   0  0  0  0  0  0  0  0  0  0  0  0
   -4.4728   -0.1372   -0.0884 H   0  0  0  0  0  0  0  0  0  0  0  0
   -6.0570   -1.9981   -0.7308 H   0  0  0  0  0  0  0  0  0  0  0  0
   -2.6147   -3.5839    0.3918 H   0  0  0  0  0  0  0  0  0  0  0  0
   -3.3302   -3.3735    2.0402 H   0  0  0  0  0  0  0  0  0  0  0  0
    0.3731   -0.5573    0.1595 H   0  0  0  0  0  0  0  0  0  0  0  0
    3.6860    2.3065    1.5991 H   0  0  0  0  0  0  0  0  0  0  0  0
    3.9025   -3.2149   -0.4459 H   0  0  0  0  0  0  0  0  0  0  0  0
    5.3039   -3.7535    0.6199 H   0  0  0  0  0  0  0  0  0  0  0  0
    3.9499   -2.7478    1.3430 H   0  0  0  0  0  0  0  0  0  0  0  0
    6.2991   -2.3452    1.9578 H   0  0  0  0  0  0  0  0  0  0  0  0
    6.5997   -0.6539    1.4936 H   0  0  0  0  0  0  0  0  0  0  0  0
    7.4442   -1.9261    0.5883 H   0  0  0  0  0  0  0  0  0  0  0  0
    6.1706   -0.7324   -1.5870 H   0  0  0  0  0  0  0  0  0  0  0  0
    5.0946   -2.1822   -1.9665 H   0  0  0  0  0  0  0  0  0  0  0  0
    6.7631   -2.3693   -1.2548 H   0  0  0  0  0  0  0  0  0  0  0  0
    2.5815   -1.1383   -0.6124 H   0  0  0  0  0  0  0  0  0  0  0  0
    1.9404    3.3454    0.2030 H   0  0  0  0  0  0  0  0  0  0  0  0
   -3.8051    5.4141   -0.0848 H   0  0  0  0  0  0  0  0  0  0  0  0
   -2.4360    6.5286    0.0647 H   0  0  0  0  0  0  0  0  0  0  0  0
   -2.8806    6.0071   -1.5685 H   0  0  0  0  0  0  0  0  0  0  0  0
  1  2  1  0
  2  3  2  0
  3  4  1  0
  4  5  1  0
  5  6  1  0
  6  7  1  0
  6  8  1  0
  8  9  1  0
  9 10  1  0
 10 11  1  0
 11 12  2  0
 11 13  1  0
  4 14  2  0
 14 15  1  0
 15 16  1  0
 16 17  1  0
 17 18  2  0
 18 19  1  0
 19 20  1  0
 20 21  1  0
 20 22  1  0
 20 23  1  0
 19 24  1  0
 15 25  2  0
 25 26  1  0
 26 27  2  0
 27 28  1  0
 28 29  1  0
 28  2  1  0
 26  3  1  0
 13  8  1  0
 24 16  2  0
  1 30  1  0
  1 31  1  0
  1 32  1  0
  6 33  1  1
  7 34  1  0
  7 35  1  0
  7 36  1  0
  8 37  1  1
  9 38  1  0
  9 39  1  0
 10 40  1  0
 13 41  1  0
 13 42  1  0
 14 43  1  0
 17 44  1  0
 21 45  1  0
 21 46  1  0
 21 47  1  0
 22 48  1  0
 22 49  1  0
 22 50  1  0
 23 51  1  0
 23 52  1  0
 23 53  1  0
 24 54  1  0
 25 55  1  0
 29 56  1  0
 29 57  1  0
 29 58  1  0
M  END
$$$$
