
     RDKit          3D

 60 63  0  0  0  0  0  0  0  0999 V2000
   -4.7999    3.7506    0.2452 C   0  0  0  0  0  0  0  0  0  0  0  0
   -5.0949    2.2730    0.5183 C   0  0  0  0  0  0  0  0  0  0  0  0
   -5.3580    2.1838    2.0301 C   0  0  0  0  0  0  0  0  0  0  0  0
   -4.0219    1.4764    0.2248 O   0  0  0  0  0  0  0  0  0  0  0  0
   -3.6078    1.5444   -1.0850 C   0  0  0  0  0  0  0  0  0  0  0  0
   -2.4402    0.6643   -1.3580 C   0  0  0  0  0  0  0  0  0  0  0  0
   -1.1305    1.0607   -1.2273 C   0  0  0  0  0  0  0  0  0  0  0  0
   -0.3335   -0.0276   -1.5678 C   0  0  0  0  0  0  0  0  0  0  0  0
    1.1387    0.0638   -1.4972 C   0  0  0  0  0  0  0  0  0  0  0  0
    1.9351   -0.2716   -2.5576 C   0  0  0  0  0  0  0  0  0  0  0  0
    3.3214   -0.1797   -2.3912 C   0  0  0  0  0  0  0  0  0  0  0  0
    3.8907    0.2334   -1.2083 C   0  0  0  0  0  0  0  0  0  0  0  0
    3.0972    0.5743   -0.1347 C   0  0  0  0  0  0  0  0  0  0  0  0
    3.6770    0.9901    1.0540 O   0  0  0  0  0  0  0  0  0  0  0  0
    5.0613    1.0862    1.2315 C   0  0  0  0  0  0  0  0  0  0  0  0
    5.4523    1.5565    2.5975 C   0  0  0  0  0  0  0  0  0  0  0  0
    6.9406    1.6588    2.7856 C   0  0  0  0  0  0  0  0  0  0  0  0
    6.8436    1.1098    4.0652 O   0  0  0  0  0  0  0  0  0  0  0  0
    5.6678    0.4684    3.6216 C   0  0  0  0  0  0  0  0  0  0  0  0
    1.7394    0.4821   -0.3026 C   0  0  0  0  0  0  0  0  0  0  0  0
   -1.1314   -1.0442   -1.8923 N   0  0  0  0  0  0  0  0  0  0  0  0
   -0.7348   -2.3381   -2.3119 C   0  0  0  0  0  0  0  0  0  0  0  0
   -0.5223   -3.3753   -1.3142 C   0  0  0  0  0  0  0  0  0  0  0  0
   -0.1178   -4.6218   -1.8377 C   0  0  0  0  0  0  0  0  0  0  0  0
    0.1215   -5.6977   -1.0173 C   0  0  0  0  0  0  0  0  0  0  0  0
   -0.0416   -5.5381    0.3391 C   0  0  0  0  0  0  0  0  0  0  0  0
   -0.4365   -4.3253    0.8647 C   0  0  0  0  0  0  0  0  0  0  0  0
   -0.6800   -3.2329    0.0373 C   0  0  0  0  0  0  0  0  0  0  0  0
   -1.1753   -1.7336    0.7660 Cl  0  0  0  0  0  0  0  0  0  0  0  0
   -2.3932   -0.5973   -1.7561 N   0  0  0  0  0  0  0  0  0  0  0  0
   -6.3569    1.9245   -0.1335 C   0  0  0  0  0  0  0  0  0  0  0  0
   -7.3517    2.6790    0.1421 O   0  0  0  0  0  0  0  0  0  0  0  0
   -6.5996    0.8943   -0.9972 O   0  0  0  0  0  0  0  0  0  0  0  0
   -4.8276    3.8786   -0.8595 H   0  0  0  0  0  0  0  0  0  0  0  0
   -3.8154    3.9488    0.6829 H   0  0  0  0  0  0  0  0  0  0  0  0
   -5.6271    4.3269    0.6860 H   0  0  0  0  0  0  0  0  0  0  0  0
   -6.0941    1.3990    2.1991 H   0  0  0  0  0  0  0  0  0  0  0  0
   -5.7354    3.1332    2.4229 H   0  0  0  0  0  0  0  0  0  0  0  0
   -4.3865    1.9658    2.5187 H   0  0  0  0  0  0  0  0  0  0  0  0
   -3.2942    2.5926   -1.2787 H   0  0  0  0  0  0  0  0  0  0  0  0
   -4.4364    1.2605   -1.7664 H   0  0  0  0  0  0  0  0  0  0  0  0
   -0.7785    2.0234   -0.9216 H   0  0  0  0  0  0  0  0  0  0  0  0
    1.5530   -0.5835   -3.5170 H   0  0  0  0  0  0  0  0  0  0  0  0
    3.9488   -0.4478   -3.2359 H   0  0  0  0  0  0  0  0  0  0  0  0
    4.9815    0.2816   -1.1489 H   0  0  0  0  0  0  0  0  0  0  0  0
    5.5408    1.7281    0.4392 H   0  0  0  0  0  0  0  0  0  0  0  0
    5.4905    0.0653    1.0513 H   0  0  0  0  0  0  0  0  0  0  0  0
    4.8459    2.3803    3.0020 H   0  0  0  0  0  0  0  0  0  0  0  0
    7.4492    0.9168    2.1195 H   0  0  0  0  0  0  0  0  0  0  0  0
    7.3640    2.6708    2.7363 H   0  0  0  0  0  0  0  0  0  0  0  0
    4.9396    0.4886    4.4669 H   0  0  0  0  0  0  0  0  0  0  0  0
    5.8315   -0.5213    3.1623 H   0  0  0  0  0  0  0  0  0  0  0  0
    1.1059    0.7466    0.5317 H   0  0  0  0  0  0  0  0  0  0  0  0
    0.1449   -2.2779   -2.9914 H   0  0  0  0  0  0  0  0  0  0  0  0
   -1.6051   -2.7283   -2.9588 H   0  0  0  0  0  0  0  0  0  0  0  0
    0.0164   -4.7661   -2.9095 H   0  0  0  0  0  0  0  0  0  0  0  0
    0.4340   -6.6513   -1.4532 H   0  0  0  0  0  0  0  0  0  0  0  0
    0.1521   -6.4010    0.9759 H   0  0  0  0  0  0  0  0  0  0  0  0
   -0.5704   -4.1775    1.9229 H   0  0  0  0  0  0  0  0  0  0  0  0
   -7.1865    1.0569   -1.8097 H   0  0  0  0  0  0  0  0  0  0  0  0
  1  2  1  0
  2  3  1  0
  2  4  1  0
  4  5  1  0
  5  6  1  0
  6  7  1  0
  7  8  2  0
  8  9  1  0
  9 10  2  0
 10 11  1  0
 11 12  2  0
 12 13  1  0
 13 14  1  0
 14 15  1  0
 15 16  1  0
 16 17  1  0
 17 18  1  0
 18 19  1  0
 13 20  2  0
  8 21  1  0
 21 22  1  0
 22 23  1  0
 23 24  2  0
 24 25  1  0
 25 26  2  0
 26 27  1  0
 27 28  2  0
 28 29  1  0
 21 30  1  0
  2 31  1  0
 31 32  2  0
 31 33  1  0
 30  6  2  0
 20  9  1  0
 28 23  1  0
 19 16  1  0
  1 34  1  0
  1 35  1  0
  1 36  1  0
  3 37  1  0
  3 38  1  0
  3 39  1  0
  5 40  1  0
  5 41  1  0
  7 42  1  0
 10 43  1  0
 11 44  1  0
 12 45  1  0
 15 46  1  0
 15 47  1  0
 16 48  1  0
 17 49  1  0
 17 50  1  0
 19 51  1  0
 19 52  1  0
 20 53  1  0
 22 54  1  0
 22 55  1  0
 24 56  1  0
 25 57  1  0
 26 58  1  0
 27 59  1  0
 33 60  1  0
M  END
$$$$
