
     RDKit          3D

 41 44  0  0  0  0  0  0  0  0999 V2000
    8.6514   -0.1431   -0.9049 C   0  0  0  0  0  0  0  0  0  0  0  0
    7.9822   -0.9283    0.0809 O   0  0  0  0  0  0  0  0  0  0  0  0
    6.6155   -0.7722    0.2314 C   0  0  0  0  0  0  0  0  0  0  0  0
    5.8867    0.1158   -0.5400 C   0  0  0  0  0  0  0  0  0  0  0  0
    4.5311    0.2743   -0.3946 C   0  0  0  0  0  0  0  0  0  0  0  0
    3.8344   -0.4483    0.5312 C   0  0  0  0  0  0  0  0  0  0  0  0
    2.3833   -0.3240    0.7350 C   0  0  0  0  0  0  0  0  0  0  0  0
    1.8275   -1.0370    1.6180 O   0  0  0  0  0  0  0  0  0  0  0  0
    1.6063    0.5729   -0.0347 N   0  0  0  0  0  0  0  0  0  0  0  0
    0.2273    0.7033    0.1461 C   0  0  0  0  0  0  0  0  0  0  0  0
   -0.8505    0.1418   -0.3454 N   0  0  0  0  0  0  0  0  0  0  0  0
   -2.0462    0.4298   -0.0217 C   0  0  0  0  0  0  0  0  0  0  0  0
   -2.2882    1.4203    0.9330 C   0  0  0  0  0  0  0  0  0  0  0  0
   -0.5756    1.8880    1.3090 S   0  0  0  0  0  0  0  0  0  0  0  0
   -3.6629    1.6432    1.2019 C   0  0  0  0  0  0  0  0  0  0  0  0
   -4.3560    0.6836    0.3149 C   0  0  0  0  0  0  0  0  0  0  0  0
   -5.7130    0.4708    0.1674 C   0  0  0  0  0  0  0  0  0  0  0  0
   -6.1551   -0.4762   -0.7178 C   0  0  0  0  0  0  0  0  0  0  0  0
   -7.5161   -0.6858   -0.8621 O   0  0  0  0  0  0  0  0  0  0  0  0
   -8.4503    0.0456   -0.1262 C   0  0  0  0  0  0  0  0  0  0  0  0
   -5.2352   -1.2077   -1.4533 C   0  0  0  0  0  0  0  0  0  0  0  0
   -3.8932   -0.9716   -1.2830 C   0  0  0  0  0  0  0  0  0  0  0  0
   -3.4200   -0.0246   -0.3990 C   0  0  0  0  0  0  0  0  0  0  0  0
    4.5602   -1.3490    1.3168 C   0  0  0  0  0  0  0  0  0  0  0  0
    5.9173   -1.5032    1.1665 C   0  0  0  0  0  0  0  0  0  0  0  0
    8.3288   -0.4012   -1.9237 H   0  0  0  0  0  0  0  0  0  0  0  0
    9.7585   -0.2058   -0.7711 H   0  0  0  0  0  0  0  0  0  0  0  0
    8.4137    0.9476   -0.7443 H   0  0  0  0  0  0  0  0  0  0  0  0
    6.4626    0.6904   -1.2813 H   0  0  0  0  0  0  0  0  0  0  0  0
    4.0189    0.9761   -1.0190 H   0  0  0  0  0  0  0  0  0  0  0  0
    2.0414    1.1826   -0.7804 H   0  0  0  0  0  0  0  0  0  0  0  0
   -3.9447    1.3983    2.2374 H   0  0  0  0  0  0  0  0  0  0  0  0
   -3.9657    2.6779    1.0019 H   0  0  0  0  0  0  0  0  0  0  0  0
   -6.4391    1.0540    0.7534 H   0  0  0  0  0  0  0  0  0  0  0  0
   -9.4640   -0.3932   -0.2176 H   0  0  0  0  0  0  0  0  0  0  0  0
   -8.2258    0.0903    0.9554 H   0  0  0  0  0  0  0  0  0  0  0  0
   -8.5276    1.0671   -0.5827 H   0  0  0  0  0  0  0  0  0  0  0  0
   -5.6070   -1.9404   -2.1370 H   0  0  0  0  0  0  0  0  0  0  0  0
   -3.1924   -1.5446   -1.8583 H   0  0  0  0  0  0  0  0  0  0  0  0
    4.0166   -1.9117    2.0381 H   0  0  0  0  0  0  0  0  0  0  0  0
    6.4645   -2.2055    1.7833 H   0  0  0  0  0  0  0  0  0  0  0  0
  1  2  1  0
  2  3  1  0
  3  4  2  0
  4  5  1  0
  5  6  2  0
  6  7  1  0
  7  8  2  0
  7  9  1  0
  9 10  1  0
 10 11  2  0
 11 12  1  0
 12 13  2  0
 13 14  1  0
 13 15  1  0
 15 16  1  0
 16 17  2  0
 17 18  1  0
 18 19  1  0
 19 20  1  0
 18 21  2  0
 21 22  1  0
 22 23  2  0
  6 24  1  0
 24 25  2  0
 25  3  1  0
 14 10  1  0
 23 16  1  0
 23 12  1  0
  1 26  1  0
  1 27  1  0
  1 28  1  0
  4 29  1  0
  5 30  1  0
  9 31  1  0
 15 32  1  0
 15 33  1  0
 17 34  1  0
 20 35  1  0
 20 36  1  0
 20 37  1  0
 21 38  1  0
 22 39  1  0
 24 40  1  0
 25 41  1  0
M  END
$$$$
