
     RDKit          3D

 45 48  0  0  0  0  0  0  0  0999 V2000
   -2.7500   -1.1121    1.1817 C   0  0  0  0  0  0  0  0  0  0  0  0
   -2.8897    0.1801    0.3777 C   0  0  0  0  0  0  0  0  0  0  0  0
   -2.3021    1.3251    1.1302 C   0  0  0  0  0  0  0  0  0  0  0  0
   -2.1263    0.0561   -0.8704 N   0  0  0  0  0  0  0  0  0  0  0  0
   -0.7809   -0.3774   -0.7203 C   0  0  0  0  0  0  0  0  0  0  0  0
    0.2713    0.4330   -0.5408 N   0  0  0  0  0  0  0  0  0  0  0  0
    1.5424    0.0005   -0.3915 C   0  0  0  0  0  0  0  0  0  0  0  0
    2.5984    0.9247   -0.1705 N   0  0  0  0  0  0  0  0  0  0  0  0
    3.9668    0.6417   -0.1774 C   0  0  0  0  0  0  0  0  0  0  0  0
    4.8022    1.2419    0.7411 C   0  0  0  0  0  0  0  0  0  0  0  0
    6.1427    1.0470    0.8162 C   0  0  0  0  0  0  0  0  0  0  0  0
    6.7822    0.1725   -0.0919 C   0  0  0  0  0  0  0  0  0  0  0  0
    8.0259   -0.1273   -0.1547 N   0  0  0  0  0  0  0  0  0  0  0  0
    8.5912   -0.9075   -0.9563 C   0  0  0  0  0  0  0  0  0  0  0  0
    7.0626   -1.4215   -1.9401 S   0  0  0  0  0  0  0  0  0  0  0  0
    5.9236   -0.4225   -1.0117 C   0  0  0  0  0  0  0  0  0  0  0  0
    4.5895   -0.2153   -1.0718 C   0  0  0  0  0  0  0  0  0  0  0  0
    1.8001   -1.3145   -0.4197 N   0  0  0  0  0  0  0  0  0  0  0  0
    0.7512   -2.1568   -0.6015 C   0  0  0  0  0  0  0  0  0  0  0  0
    1.0310   -3.4028   -0.6250 O   0  0  0  0  0  0  0  0  0  0  0  0
   -0.5031   -1.7185   -0.7487 N   0  0  0  0  0  0  0  0  0  0  0  0
   -4.3287    0.3070    0.0940 C   0  0  0  0  0  0  0  0  0  0  0  0
   -4.8825   -0.2372   -1.0489 C   0  0  0  0  0  0  0  0  0  0  0  0
   -6.2531   -0.1384   -1.3258 C   0  0  0  0  0  0  0  0  0  0  0  0
   -7.0676    0.5198   -0.4310 C   0  0  0  0  0  0  0  0  0  0  0  0
   -6.5345    1.0647    0.7072 C   0  0  0  0  0  0  0  0  0  0  0  0
   -5.1595    0.9539    0.9637 C   0  0  0  0  0  0  0  0  0  0  0  0
   -3.4865   -1.1451    2.0070 H   0  0  0  0  0  0  0  0  0  0  0  0
   -2.9054   -2.0083    0.5665 H   0  0  0  0  0  0  0  0  0  0  0  0
   -1.7533   -1.1530    1.6434 H   0  0  0  0  0  0  0  0  0  0  0  0
   -1.4919    0.9074    1.7853 H   0  0  0  0  0  0  0  0  0  0  0  0
   -2.9782    1.9048    1.7531 H   0  0  0  0  0  0  0  0  0  0  0  0
   -1.7439    1.9983    0.4219 H   0  0  0  0  0  0  0  0  0  0  0  0
   -2.5403    0.2735   -1.7785 H   0  0  0  0  0  0  0  0  0  0  0  0
    2.3143    1.9253    0.0187 H   0  0  0  0  0  0  0  0  0  0  0  0
    4.3210    1.9251    1.4563 H   0  0  0  0  0  0  0  0  0  0  0  0
    6.6952    1.5683    1.5738 H   0  0  0  0  0  0  0  0  0  0  0  0
    9.5334   -1.3137   -1.2178 H   0  0  0  0  0  0  0  0  0  0  0  0
    4.0307   -0.7175   -1.8528 H   0  0  0  0  0  0  0  0  0  0  0  0
    2.7626   -1.7047   -0.2887 H   0  0  0  0  0  0  0  0  0  0  0  0
   -4.2477   -0.7613   -1.7546 H   0  0  0  0  0  0  0  0  0  0  0  0
   -6.6552   -0.5779   -2.2364 H   0  0  0  0  0  0  0  0  0  0  0  0
   -8.1266    0.5733   -0.6832 H   0  0  0  0  0  0  0  0  0  0  0  0
   -7.1945    1.5741    1.3889 H   0  0  0  0  0  0  0  0  0  0  0  0
   -4.8369    1.4153    1.9002 H   0  0  0  0  0  0  0  0  0  0  0  0
  1  2  1  0
  2  3  1  0
  2  4  1  0
  4  5  1  0
  5  6  1  0
  6  7  2  0
  7  8  1  0
  8  9  1  0
  9 10  2  0
 10 11  1  0
 11 12  2  0
 12 13  1  0
 13 14  2  0
 14 15  1  0
 15 16  1  0
 16 17  2  0
  7 18  1  0
 18 19  1  0
 19 20  2  0
 19 21  1  0
  2 22  1  0
 22 23  2  0
 23 24  1  0
 24 25  2  0
 25 26  1  0
 26 27  2  0
 21  5  2  0
 27 22  1  0
 17  9  1  0
 16 12  1  0
  1 28  1  0
  1 29  1  0
  1 30  1  0
  3 31  1  0
  3 32  1  0
  3 33  1  0
  4 34  1  0
  8 35  1  0
 10 36  1  0
 11 37  1  0
 14 38  1  0
 17 39  1  0
 18 40  1  0
 23 41  1  0
 24 42  1  0
 25 43  1  0
 26 44  1  0
 27 45  1  0
M  END
$$$$
