
     RDKit          3D

118120  0  0  0  0  0  0  0  0999 V2000
    6.6820    1.5261    1.4778 C   0  0  0  0  0  0  0  0  0  0  0  0
    5.9503    0.5455    2.3086 C   0  0  0  0  0  0  0  0  0  0  0  0
    5.0409   -0.4270    1.5744 C   0  0  1  0  0  0  0  0  0  0  0  0
    4.1039    0.2705    0.8634 O   0  0  0  0  0  0  0  0  0  0  0  0
    2.7567    0.3907    1.1916 C   0  0  0  0  0  0  0  0  0  0  0  0
    2.3336   -0.1671    2.2102 O   0  0  0  0  0  0  0  0  0  0  0  0
    1.9131    1.1738    0.3046 C   0  0  2  0  0  0  0  0  0  0  0  0
    2.2484    2.6044    0.4457 C   0  0  0  0  0  0  0  0  0  0  0  0
    0.4055    0.8302    0.4007 C   0  0  1  0  0  0  0  0  0  0  0  0
   -0.1135    1.7691   -0.5318 O   0  0  0  0  0  0  0  0  0  0  0  0
   -0.9718    2.6935   -0.0270 C   0  0  1  0  0  0  0  0  0  0  0  0
   -0.5328    4.1491   -0.2020 C   0  0  0  0  0  0  0  0  0  0  0  0
   -1.7399    5.0278   -0.5804 C   0  0  1  0  0  0  0  0  0  0  0  0
   -2.9649    4.6587    0.2417 C   0  0  0  0  0  0  0  0  0  0  0  0
   -1.4682    6.3304   -0.3423 O   0  0  0  0  0  0  0  0  0  0  0  0
   -0.4184    6.9215   -0.9758 C   0  0  0  0  0  0  0  0  0  0  0  0
   -2.0632    4.6480   -2.0045 C   0  0  1  0  0  0  0  0  0  0  0  0
   -1.2711    5.2364   -2.9554 O   0  0  0  0  0  0  0  0  0  0  0  0
   -1.8872    3.1150   -2.0395 C   0  0  2  0  0  0  0  0  0  0  0  0
   -2.7722    2.5282   -3.1030 C   0  0  0  0  0  0  0  0  0  0  0  0
   -2.1452    2.6077   -0.7823 O   0  0  0  0  0  0  0  0  0  0  0  0
    0.3468   -0.5870   -0.1291 C   0  0  2  0  0  0  0  0  0  0  0  0
    0.5506   -0.4620   -1.6495 C   0  0  0  0  0  0  0  0  0  0  0  0
   -0.7092   -1.5118    0.2764 C   0  0  1  0  0  0  0  0  0  0  0  0
   -1.9547   -1.1473   -0.2441 O   0  0  0  0  0  0  0  0  0  0  0  0
   -2.9844   -1.1437    0.6576 C   0  0  2  0  0  0  0  0  0  0  0  0
   -3.8798   -2.2383    0.4155 O   0  0  0  0  0  0  0  0  0  0  0  0
   -4.5735   -2.3366    1.6458 C   0  0  2  0  0  0  0  0  0  0  0  0
   -5.3854   -3.5812    1.7701 C   0  0  0  0  0  0  0  0  0  0  0  0
   -5.4881   -1.1452    1.8281 C   0  0  0  0  0  0  0  0  0  0  0  0
   -5.2636   -0.0890    0.7983 C   0  0  2  0  0  0  0  0  0  0  0  0
   -5.8405   -0.5063   -0.4538 N   0  0  0  0  0  0  0  0  0  0  0  0
   -7.2546   -0.7029   -0.3171 C   0  0  0  0  0  0  0  0  0  0  0  0
   -5.5811    0.3740   -1.5513 C   0  0  0  0  0  0  0  0  0  0  0  0
   -3.7637    0.1290    0.5776 C   0  0  1  0  0  0  0  0  0  0  0  0
   -3.3103    0.9981    1.5516 O   0  0  0  0  0  0  0  0  0  0  0  0
   -0.4920   -2.9546   -0.1609 C   0  0  2  0  0  0  0  0  0  0  0  0
   -0.6431   -3.2223   -1.6122 C   0  0  0  0  0  0  0  0  0  0  0  0
   -1.7569   -3.5590    0.3632 O   0  0  0  0  0  0  0  0  0  0  0  0
    0.4928   -3.7855    0.5280 C   0  0  0  0  0  0  0  0  0  0  0  0
    1.9134   -3.4728    0.6746 C   0  0  1  0  0  0  0  0  0  0  0  0
    2.4923   -4.7373    1.4300 C   0  0  0  0  0  0  0  0  0  0  0  0
    2.7553   -3.4156   -0.5475 C   0  0  0  0  0  0  0  0  0  0  0  0
    2.5104   -4.1574   -1.4694 O   0  0  0  0  0  0  0  0  0  0  0  0
    3.8997   -2.4125   -0.5924 C   0  0  2  0  0  0  0  0  0  0  0  0
    4.6124   -2.7518   -1.9262 C   0  0  0  0  0  0  0  0  0  0  0  0
    4.8956   -2.6247    0.4921 C   0  0  1  0  0  0  0  0  0  0  0  0
    5.6833   -3.7550    0.1542 O   0  0  0  0  0  0  0  0  0  0  0  0
    5.7969   -1.4651    0.8032 C   0  0  1  0  0  0  0  0  0  0  0  0
    6.5678   -0.9555   -0.3338 C   0  0  0  0  0  0  0  0  0  0  0  0
    6.7446   -1.9958    1.7757 O   0  0  0  0  0  0  0  0  0  0  0  0
    7.7854    1.3681    1.4203 H   0  0  0  0  0  0  0  0  0  0  0  0
    6.5127    2.5965    1.8631 H   0  0  0  0  0  0  0  0  0  0  0  0
    6.2684    1.5678    0.4594 H   0  0  0  0  0  0  0  0  0  0  0  0
    6.6961   -0.0061    2.9308 H   0  0  0  0  0  0  0  0  0  0  0  0
    5.2738    1.1344    3.0017 H   0  0  0  0  0  0  0  0  0  0  0  0
    4.4516   -0.9665    2.4278 H   0  0  0  0  0  0  0  0  0  0  0  0
    2.2051    0.8791   -0.7476 H   0  0  0  0  0  0  0  0  0  0  0  0
    1.6801    3.0762    1.2714 H   0  0  0  0  0  0  0  0  0  0  0  0
    3.3385    2.6493    0.7664 H   0  0  0  0  0  0  0  0  0  0  0  0
    2.1472    3.1753   -0.4805 H   0  0  0  0  0  0  0  0  0  0  0  0
    0.0064    0.9841    1.3778 H   0  0  0  0  0  0  0  0  0  0  0  0
   -1.1863    2.5916    1.0436 H   0  0  0  0  0  0  0  0  0  0  0  0
    0.1582    4.2700   -1.0431 H   0  0  0  0  0  0  0  0  0  0  0  0
   -0.0640    4.5521    0.7083 H   0  0  0  0  0  0  0  0  0  0  0  0
   -3.4354    5.5750    0.7082 H   0  0  0  0  0  0  0  0  0  0  0  0
   -3.7781    4.2157   -0.3674 H   0  0  0  0  0  0  0  0  0  0  0  0
   -2.6559    3.9713    1.0239 H   0  0  0  0  0  0  0  0  0  0  0  0
    0.5671    6.4134   -0.7563 H   0  0  0  0  0  0  0  0  0  0  0  0
   -0.5364    7.1960   -2.0215 H   0  0  0  0  0  0  0  0  0  0  0  0
   -0.2742    7.9241   -0.4442 H   0  0  0  0  0  0  0  0  0  0  0  0
   -3.1287    4.8707   -2.2602 H   0  0  0  0  0  0  0  0  0  0  0  0
   -1.7857    5.8388   -3.5565 H   0  0  0  0  0  0  0  0  0  0  0  0
   -0.8305    2.9287   -2.3378 H   0  0  0  0  0  0  0  0  0  0  0  0
   -3.8393    2.5337   -2.7924 H   0  0  0  0  0  0  0  0  0  0  0  0
   -2.4003    1.5172   -3.3698 H   0  0  0  0  0  0  0  0  0  0  0  0
   -2.6434    3.1729   -4.0048 H   0  0  0  0  0  0  0  0  0  0  0  0
    1.3699   -1.0740    0.1639 H   0  0  0  0  0  0  0  0  0  0  0  0
    0.6289    0.6305   -1.8997 H   0  0  0  0  0  0  0  0  0  0  0  0
    1.3832   -1.0239   -2.0373 H   0  0  0  0  0  0  0  0  0  0  0  0
   -0.3967   -0.8103   -2.1539 H   0  0  0  0  0  0  0  0  0  0  0  0
   -0.8661   -1.6062    1.3890 H   0  0  0  0  0  0  0  0  0  0  0  0
   -2.5975   -1.3197    1.6710 H   0  0  0  0  0  0  0  0  0  0  0  0
   -3.7887   -2.2801    2.4319 H   0  0  0  0  0  0  0  0  0  0  0  0
   -5.1100   -4.0965    2.7276 H   0  0  0  0  0  0  0  0  0  0  0  0
   -5.2509   -4.2912    0.9345 H   0  0  0  0  0  0  0  0  0  0  0  0
   -6.4874   -3.3579    1.8773 H   0  0  0  0  0  0  0  0  0  0  0  0
   -5.2820   -0.7060    2.8214 H   0  0  0  0  0  0  0  0  0  0  0  0
   -6.5590   -1.4462    1.8051 H   0  0  0  0  0  0  0  0  0  0  0  0
   -5.6724    0.8923    1.1207 H   0  0  0  0  0  0  0  0  0  0  0  0
   -7.7455    0.0475    0.3579 H   0  0  0  0  0  0  0  0  0  0  0  0
   -7.4684   -1.7523    0.0160 H   0  0  0  0  0  0  0  0  0  0  0  0
   -7.7811   -0.6160   -1.3036 H   0  0  0  0  0  0  0  0  0  0  0  0
   -6.4423    0.2715   -2.2739 H   0  0  0  0  0  0  0  0  0  0  0  0
   -5.5575    1.4527   -1.2801 H   0  0  0  0  0  0  0  0  0  0  0  0
   -4.6762    0.0829   -2.1435 H   0  0  0  0  0  0  0  0  0  0  0  0
   -3.6786    0.5956   -0.4338 H   0  0  0  0  0  0  0  0  0  0  0  0
   -3.9310    1.7540    1.7369 H   0  0  0  0  0  0  0  0  0  0  0  0
   -0.8214   -4.3525   -1.6896 H   0  0  0  0  0  0  0  0  0  0  0  0
   -1.6148   -2.8209   -2.0018 H   0  0  0  0  0  0  0  0  0  0  0  0
    0.2092   -3.0545   -2.2594 H   0  0  0  0  0  0  0  0  0  0  0  0
   -1.6317   -4.5270    0.1902 H   0  0  0  0  0  0  0  0  0  0  0  0
    0.0454   -4.0334    1.5690 H   0  0  0  0  0  0  0  0  0  0  0  0
    0.4231   -4.8344    0.0497 H   0  0  0  0  0  0  0  0  0  0  0  0
    2.1953   -2.6679    1.3830 H   0  0  0  0  0  0  0  0  0  0  0  0
    2.5257   -4.5571    2.5002 H   0  0  0  0  0  0  0  0  0  0  0  0
    3.4470   -5.0305    0.9788 H   0  0  0  0  0  0  0  0  0  0  0  0
    1.7970   -5.5781    1.2439 H   0  0  0  0  0  0  0  0  0  0  0  0
    3.4735   -1.4297   -0.7047 H   0  0  0  0  0  0  0  0  0  0  0  0
    3.8915   -3.2103   -2.6425 H   0  0  0  0  0  0  0  0  0  0  0  0
    5.4278   -3.4575   -1.7241 H   0  0  0  0  0  0  0  0  0  0  0  0
    5.0110   -1.8549   -2.4180 H   0  0  0  0  0  0  0  0  0  0  0  0
    4.4142   -2.9042    1.4764 H   0  0  0  0  0  0  0  0  0  0  0  0
    6.4042   -3.8690    0.8182 H   0  0  0  0  0  0  0  0  0  0  0  0
    7.4830   -0.4248   -0.0185 H   0  0  0  0  0  0  0  0  0  0  0  0
    5.9789   -0.2425   -0.9637 H   0  0  0  0  0  0  0  0  0  0  0  0
    6.9409   -1.7550   -1.0252 H   0  0  0  0  0  0  0  0  0  0  0  0
    6.3103   -1.9895    2.6607 H   0  0  0  0  0  0  0  0  0  0  0  0
  1  2  1  0
  2  3  1  0
  3  4  1  0
  4  5  1  0
  5  6  2  0
  5  7  1  0
  7  8  1  0
  7  9  1  0
  9 10  1  0
 10 11  1  0
 11 12  1  0
 12 13  1  0
 13 14  1  0
 13 15  1  6
 15 16  1  0
 13 17  1  0
 17 18  1  0
 17 19  1  0
 19 20  1  0
 19 21  1  0
  9 22  1  0
 22 23  1  0
 22 24  1  0
 24 25  1  0
 25 26  1  0
 26 27  1  0
 27 28  1  0
 28 29  1  0
 28 30  1  0
 30 31  1  0
 31 32  1  0
 32 33  1  0
 32 34  1  0
 31 35  1  0
 35 36  1  0
 24 37  1  0
 37 38  1  0
 37 39  1  1
 37 40  1  0
 40 41  1  0
 41 42  1  0
 41 43  1  0
 43 44  2  0
 43 45  1  0
 45 46  1  0
 45 47  1  0
 47 48  1  0
 47 49  1  0
 49 50  1  0
 49 51  1  1
 49  3  1  0
 21 11  1  0
 35 26  1  0
  1 52  1  0
  1 53  1  0
  1 54  1  0
  2 55  1  0
  2 56  1  0
  3 57  1  1
  7 58  1  6
  8 59  1  0
  8 60  1  0
  8 61  1  0
  9 62  1  1
 11 63  1  1
 12 64  1  0
 12 65  1  0
 14 66  1  0
 14 67  1  0
 14 68  1  0
 16 69  1  0
 16 70  1  0
 16 71  1  0
 17 72  1  6
 18 73  1  0
 19 74  1  6
 20 75  1  0
 20 76  1  0
 20 77  1  0
 22 78  1  1
 23 79  1  0
 23 80  1  0
 23 81  1  0
 24 82  1  1
 26 83  1  1
 28 84  1  1
 29 85  1  0
 29 86  1  0
 29 87  1  0
 30 88  1  0
 30 89  1  0
 31 90  1  1
 33 91  1  0
 33 92  1  0
 33 93  1  0
 34 94  1  0
 34 95  1  0
 34 96  1  0
 35 97  1  6
 36 98  1  0
 38 99  1  0
 38100  1  0
 38101  1  0
 39102  1  0
 40103  1  0
 40104  1  0
 41105  1  1
 42106  1  0
 42107  1  0
 42108  1  0
 45109  1  6
 46110  1  0
 46111  1  0
 46112  1  0
 47113  1  1
 48114  1  0
 50115  1  0
 50116  1  0
 50117  1  0
 51118  1  0
M  END
$$$$
