
     RDKit          3D

 43 47  0  0  0  0  0  0  0  0999 V2000
   -6.1441    1.8832   -0.1561 C   0  0  0  0  0  0  0  0  0  0  0  0
   -5.3972    0.7079    0.0381 O   0  0  0  0  0  0  0  0  0  0  0  0
   -3.9938    0.7691   -0.0019 C   0  0  0  0  0  0  0  0  0  0  0  0
   -3.3687    1.9782   -0.2308 C   0  0  0  0  0  0  0  0  0  0  0  0
   -1.9983    2.1090   -0.2825 C   0  0  0  0  0  0  0  0  0  0  0  0
   -1.2398    0.9896   -0.0983 C   0  0  0  0  0  0  0  0  0  0  0  0
    0.1416    1.0992   -0.1462 C   0  0  0  0  0  0  0  0  0  0  0  0
    0.9013   -0.0347    0.0407 C   0  0  0  0  0  0  0  0  0  0  0  0
    0.3048   -1.2281    0.2655 N   0  0  0  0  0  4  0  0  0  0  0  0
   -1.0625   -1.3348    0.3130 C   0  0  0  0  0  0  0  0  0  0  0  0
   -1.8389   -0.2311    0.1321 C   0  0  0  0  0  0  0  0  0  0  0  0
   -3.2216   -0.3535    0.1826 C   0  0  0  0  0  0  0  0  0  0  0  0
   -3.7762   -1.5794    0.4131 O   0  0  0  0  0  0  0  0  0  0  0  0
   -4.1311   -2.5138   -0.5789 C   0  0  0  0  0  0  0  0  0  0  0  0
    1.0230   -2.4511    0.4534 C   0  0  0  0  0  0  0  0  0  0  0  0
    2.4947   -2.3730    0.4911 C   0  0  0  0  0  0  0  0  0  0  0  0
    3.1047   -1.0611    0.2116 C   0  0  0  0  0  0  0  0  0  0  0  0
    4.5062   -1.0211    0.1770 C   0  0  0  0  0  0  0  0  0  0  0  0
    5.1502    0.1701   -0.0644 C   0  0  0  0  0  0  0  0  0  0  0  0
    4.3722    1.2845   -0.2638 C   0  0  0  0  0  0  0  0  0  0  0  0
    2.9750    1.2610   -0.2327 C   0  0  0  0  0  0  0  0  0  0  0  0
    2.3463    0.0626    0.0096 C   0  0  0  0  0  0  0  0  0  0  0  0
    5.2317    2.3333   -0.4816 O   0  0  0  0  0  0  0  0  0  0  0  0
    6.5207    1.9401    0.0039 C   0  0  0  0  0  0  0  0  0  0  0  0
    6.5006    0.5392   -0.1613 O   0  0  0  0  0  0  0  0  0  0  0  0
   -7.2064    1.7696    0.0786 H   0  0  0  0  0  0  0  0  0  0  0  0
   -5.7511    2.6480    0.5705 H   0  0  0  0  0  0  0  0  0  0  0  0
   -5.9691    2.3329   -1.1696 H   0  0  0  0  0  0  0  0  0  0  0  0
   -3.9603    2.8704   -0.3780 H   0  0  0  0  0  0  0  0  0  0  0  0
   -1.5031    3.0514   -0.4611 H   0  0  0  0  0  0  0  0  0  0  0  0
    0.5603    2.0498   -0.3244 H   0  0  0  0  0  0  0  0  0  0  0  0
   -1.5262   -2.2931    0.4936 H   0  0  0  0  0  0  0  0  0  0  0  0
   -3.4573   -2.4597   -1.4703 H   0  0  0  0  0  0  0  0  0  0  0  0
   -4.0729   -3.5214   -0.1157 H   0  0  0  0  0  0  0  0  0  0  0  0
   -5.1749   -2.3788   -0.9254 H   0  0  0  0  0  0  0  0  0  0  0  0
    0.7472   -3.1649   -0.3976 H   0  0  0  0  0  0  0  0  0  0  0  0
    0.6634   -2.9376    1.4175 H   0  0  0  0  0  0  0  0  0  0  0  0
    2.9368   -3.0968   -0.2471 H   0  0  0  0  0  0  0  0  0  0  0  0
    2.8387   -2.6856    1.5340 H   0  0  0  0  0  0  0  0  0  0  0  0
    5.0885   -1.9189    0.3385 H   0  0  0  0  0  0  0  0  0  0  0  0
    2.4646    2.1902   -0.4019 H   0  0  0  0  0  0  0  0  0  0  0  0
    7.3093    2.3296   -0.6725 H   0  0  0  0  0  0  0  0  0  0  0  0
    6.6118    2.2695    1.0398 H   0  0  0  0  0  0  0  0  0  0  0  0
  1  2  1  0
  2  3  1  0
  3  4  2  0
  4  5  1  0
  5  6  2  0
  6  7  1  0
  7  8  2  0
  8  9  1  0
  9 10  2  0
 10 11  1  0
 11 12  2  0
 12 13  1  0
 13 14  1  0
  9 15  1  0
 15 16  1  0
 16 17  1  0
 17 18  2  0
 18 19  1  0
 19 20  2  0
 20 21  1  0
 21 22  2  0
 20 23  1  0
 23 24  1  0
 24 25  1  0
 12  3  1  0
 22 17  1  0
 11  6  1  0
 25 19  1  0
 22  8  1  0
  1 26  1  0
  1 27  1  0
  1 28  1  0
  4 29  1  0
  5 30  1  0
  7 31  1  0
 10 32  1  0
 14 33  1  0
 14 34  1  0
 14 35  1  0
 15 36  1  0
 15 37  1  0
 16 38  1  0
 16 39  1  0
 18 40  1  0
 21 41  1  0
 24 42  1  0
 24 43  1  0
M  CHG  1   9   1
M  END
$$$$
