
     RDKit          3D

 59 62  0  0  0  0  0  0  0  0999 V2000
   10.4167   -0.4289   -1.6249 C   0  0  0  0  0  0  0  0  0  0  0  0
    9.2830    0.0967   -2.2733 O   0  0  0  0  0  0  0  0  0  0  0  0
    8.0471    0.2120   -1.6249 C   0  0  0  0  0  0  0  0  0  0  0  0
    6.9476    0.7287   -2.2735 C   0  0  0  0  0  0  0  0  0  0  0  0
    5.7436    0.8444   -1.6514 N   0  0  0  0  0  0  0  0  0  0  0  0
    5.5825    0.4564   -0.3745 C   0  0  0  0  0  0  0  0  0  0  0  0
    4.2921    0.5766    0.3030 C   0  0  0  0  0  0  0  0  0  0  0  0
    4.1741    0.2041    1.4988 O   0  0  0  0  0  0  0  0  0  0  0  0
    3.1895    1.1176   -0.4138 N   0  0  0  0  0  0  0  0  0  0  0  0
    1.9546    1.2170    0.2807 C   0  0  0  0  0  0  0  0  0  0  0  0
    1.6831    2.3739    0.9776 C   0  0  0  0  0  0  0  0  0  0  0  0
    0.4769    2.4779    1.6597 C   0  0  0  0  0  0  0  0  0  0  0  0
   -0.4596    1.4404    1.6530 C   0  0  0  0  0  0  0  0  0  0  0  0
   -1.5985    1.6751    2.3428 F   0  0  0  0  0  0  0  0  0  0  0  0
   -0.1917    0.2820    0.9577 C   0  0  0  0  0  0  0  0  0  0  0  0
   -1.2057   -0.8029    1.0014 C   0  0  2  0  0  0  0  0  0  0  0  0
   -1.3273   -1.2688    2.4277 C   0  0  0  0  0  0  0  0  0  0  0  0
   -0.7314   -1.9419    0.1068 C   0  0  0  0  0  0  0  0  0  0  0  0
   -1.7995   -2.9715   -0.0945 C   0  0  1  0  0  0  0  0  0  0  0  0
   -1.5095   -4.3026    0.5248 C   0  0  0  0  0  0  0  0  0  0  0  0
   -0.3344   -4.8322   -0.0159 F   0  0  0  0  0  0  0  0  0  0  0  0
   -1.3714   -4.2552    1.8821 F   0  0  0  0  0  0  0  0  0  0  0  0
   -2.5091   -5.1928    0.1478 F   0  0  0  0  0  0  0  0  0  0  0  0
   -3.1035   -2.4825    0.2642 O   0  0  0  0  0  0  0  0  0  0  0  0
   -3.3810   -1.1098    0.1360 C   0  0  0  0  0  0  0  0  0  0  0  0
   -4.6351   -0.6235   -0.3697 N   0  0  0  0  0  0  0  0  0  0  0  0
   -4.9099    0.7532   -0.4980 C   0  0  0  0  0  0  0  0  0  0  0  0
   -4.0078    1.5626   -0.1503 O   0  0  0  0  0  0  0  0  0  0  0  0
   -6.1820    1.2604   -1.0109 C   0  0  0  0  0  0  0  0  0  0  0  0
   -7.2116    0.4439   -1.4112 C   0  0  0  0  0  0  0  0  0  0  0  0
   -8.3912    0.9514   -1.8867 C   0  0  0  0  0  0  0  0  0  0  0  0
   -8.5928    2.3030   -1.9827 C   0  0  0  0  0  0  0  0  0  0  0  0
   -7.5575    3.1180   -1.5802 C   0  0  0  0  0  0  0  0  0  0  0  0
   -6.3678    2.6271   -1.1009 C   0  0  0  0  0  0  0  0  0  0  0  0
   -2.4672   -0.3037    0.4903 N   0  0  0  0  0  0  0  0  0  0  0  0
    1.0079    0.2003    0.2897 C   0  0  0  0  0  0  0  0  0  0  0  0
    6.6841   -0.0606    0.2731 C   0  0  0  0  0  0  0  0  0  0  0  0
    7.8864   -0.1760   -0.3478 N   0  0  0  0  0  0  0  0  0  0  0  0
   10.4101    0.0225   -0.5896 H   0  0  0  0  0  0  0  0  0  0  0  0
   10.3492   -1.5281   -1.4456 H   0  0  0  0  0  0  0  0  0  0  0  0
   11.3619   -0.1151   -2.0912 H   0  0  0  0  0  0  0  0  0  0  0  0
    7.0581    1.0439   -3.2952 H   0  0  0  0  0  0  0  0  0  0  0  0
    3.3288    1.4130   -1.3986 H   0  0  0  0  0  0  0  0  0  0  0  0
    2.4071    3.1879    0.9884 H   0  0  0  0  0  0  0  0  0  0  0  0
    0.2724    3.3884    2.2036 H   0  0  0  0  0  0  0  0  0  0  0  0
   -2.2681   -1.8281    2.6118 H   0  0  0  0  0  0  0  0  0  0  0  0
   -0.4315   -1.8926    2.6849 H   0  0  0  0  0  0  0  0  0  0  0  0
   -1.2436   -0.3869    3.0902 H   0  0  0  0  0  0  0  0  0  0  0  0
   -0.4765   -1.4284   -0.8733 H   0  0  0  0  0  0  0  0  0  0  0  0
    0.1480   -2.4271    0.5577 H   0  0  0  0  0  0  0  0  0  0  0  0
   -1.8904   -3.1271   -1.2156 H   0  0  0  0  0  0  0  0  0  0  0  0
   -5.3429   -1.3157   -0.6403 H   0  0  0  0  0  0  0  0  0  0  0  0
   -7.0923   -0.6520   -1.3510 H   0  0  0  0  0  0  0  0  0  0  0  0
   -9.1740    0.2782   -2.1902 H   0  0  0  0  0  0  0  0  0  0  0  0
   -9.5305    2.7137   -2.3608 H   0  0  0  0  0  0  0  0  0  0  0  0
   -7.6482    4.2114   -1.6292 H   0  0  0  0  0  0  0  0  0  0  0  0
   -5.5734    3.3265   -0.7929 H   0  0  0  0  0  0  0  0  0  0  0  0
    1.2456   -0.6809   -0.2497 H   0  0  0  0  0  0  0  0  0  0  0  0
    6.5661   -0.3732    1.2934 H   0  0  0  0  0  0  0  0  0  0  0  0
  1  2  1  0
  2  3  1  0
  3  4  2  0
  4  5  1  0
  5  6  2  0
  6  7  1  0
  7  8  2  0
  7  9  1  0
  9 10  1  0
 10 11  2  0
 11 12  1  0
 12 13  2  0
 13 14  1  0
 13 15  1  0
 15 16  1  0
 16 17  1  1
 16 18  1  0
 18 19  1  0
 19 20  1  0
 20 21  1  0
 20 22  1  0
 20 23  1  0
 19 24  1  0
 24 25  1  0
 25 26  1  0
 26 27  1  0
 27 28  2  0
 27 29  1  0
 29 30  2  0
 30 31  1  0
 31 32  2  0
 32 33  1  0
 33 34  2  0
 25 35  2  0
 15 36  2  0
  6 37  1  0
 37 38  2  0
 38  3  1  0
 36 10  1  0
 35 16  1  0
 34 29  1  0
  1 39  1  0
  1 40  1  0
  1 41  1  0
  4 42  1  0
  9 43  1  0
 11 44  1  0
 12 45  1  0
 17 46  1  0
 17 47  1  0
 17 48  1  0
 18 49  1  0
 18 50  1  0
 19 51  1  6
 26 52  1  0
 30 53  1  0
 31 54  1  0
 32 55  1  0
 33 56  1  0
 34 57  1  0
 36 58  1  0
 37 59  1  0
M  END
$$$$
