
     RDKit          3D

 32 34  0  0  0  0  0  0  0  0999 V2000
    3.8917   -0.6409   -0.0026 N   0  0  0  0  0  0  0  0  0  0  0  0
    4.8653    0.3964   -0.1303 C   0  0  0  0  0  0  0  0  0  0  0  0
    4.0474    1.6181   -0.3614 C   0  0  0  0  0  0  0  0  0  0  0  0
    2.6861    1.1296   -0.3653 N   0  0  0  0  0  0  0  0  0  0  0  0
    2.5796   -0.1147   -0.1689 C   0  0  0  0  0  0  0  0  0  0  0  0
    1.3450   -0.8905   -0.1182 C   0  0  0  0  0  0  0  0  0  0  0  0
    0.1731   -0.1190   -0.3159 O   0  0  0  0  0  0  0  0  0  0  0  0
   -1.0257   -0.8279   -0.2738 C   0  0  0  0  0  0  0  0  0  0  0  0
   -1.1099   -2.2054   -0.0543 C   0  0  0  0  0  0  0  0  0  0  0  0
   -2.3198   -2.8609   -0.0216 C   0  0  0  0  0  0  0  0  0  0  0  0
   -3.4888   -2.1552   -0.2085 C   0  0  0  0  0  0  0  0  0  0  0  0
   -3.4566   -0.7932   -0.4286 C   0  0  0  0  0  0  0  0  0  0  0  0
   -2.2260   -0.1338   -0.4607 C   0  0  0  0  0  0  0  0  0  0  0  0
   -2.1665    1.3307   -0.6959 C   0  0  0  0  0  0  0  0  0  0  0  0
   -2.2269    2.1741    0.6048 C   0  0  0  0  0  0  0  0  0  0  0  0
   -3.3396    2.1931   -0.3598 C   0  0  0  0  0  0  0  0  0  0  0  0
    4.1450   -1.6333    0.1863 H   0  0  0  0  0  0  0  0  0  0  0  0
    5.5787    0.2123   -0.9833 H   0  0  0  0  0  0  0  0  0  0  0  0
    5.4161    0.5029    0.8268 H   0  0  0  0  0  0  0  0  0  0  0  0
    4.2180    2.0747   -1.3664 H   0  0  0  0  0  0  0  0  0  0  0  0
    4.2199    2.3629    0.4370 H   0  0  0  0  0  0  0  0  0  0  0  0
    1.2947   -1.7097   -0.8748 H   0  0  0  0  0  0  0  0  0  0  0  0
    1.1850   -1.4025    0.8591 H   0  0  0  0  0  0  0  0  0  0  0  0
   -0.1878   -2.7414    0.0897 H   0  0  0  0  0  0  0  0  0  0  0  0
   -2.2692   -3.9362    0.1569 H   0  0  0  0  0  0  0  0  0  0  0  0
   -4.3857   -2.7422   -0.1677 H   0  0  0  0  0  0  0  0  0  0  0  0
   -4.3937   -0.2708   -0.5713 H   0  0  0  0  0  0  0  0  0  0  0  0
   -1.5151    1.6957   -1.5113 H   0  0  0  0  0  0  0  0  0  0  0  0
   -2.3028    1.6329    1.5607 H   0  0  0  0  0  0  0  0  0  0  0  0
   -1.4840    2.9937    0.6159 H   0  0  0  0  0  0  0  0  0  0  0  0
   -4.2988    1.7139   -0.1100 H   0  0  0  0  0  0  0  0  0  0  0  0
   -3.4487    3.1466   -0.9215 H   0  0  0  0  0  0  0  0  0  0  0  0
  1  2  1  0
  2  3  1  0
  3  4  1  0
  4  5  2  0
  5  6  1  0
  6  7  1  0
  7  8  1  0
  8  9  2  0
  9 10  1  0
 10 11  2  0
 11 12  1  0
 12 13  2  0
 13 14  1  0
 14 15  1  0
 15 16  1  0
  5  1  1  0
 13  8  1  0
 16 14  1  0
  1 17  1  0
  2 18  1  0
  2 19  1  0
  3 20  1  0
  3 21  1  0
  6 22  1  0
  6 23  1  0
  9 24  1  0
 10 25  1  0
 11 26  1  0
 12 27  1  0
 14 28  1  0
 15 29  1  0
 15 30  1  0
 16 31  1  0
 16 32  1  0
M  END
$$$$
