
     RDKit          3D

 56 60  0  0  0  0  0  0  0  0999 V2000
   -1.2882   -2.9051   -1.1681 O   0  0  0  0  0  0  0  0  0  0  0  0
   -1.9745   -1.8265   -1.2258 C   0  0  0  0  0  0  0  0  0  0  0  0
   -3.3160   -1.8638   -0.6258 C   0  0  0  0  0  0  0  0  0  0  0  0
   -4.1285   -0.8479   -0.6082 C   0  0  0  0  0  0  0  0  0  0  0  0
   -5.4668   -0.7153   -0.0750 C   0  0  0  0  0  0  0  0  0  0  0  0
   -6.4234   -1.6113    0.2509 C   0  0  0  0  0  0  0  0  0  0  0  0
   -6.4797   -3.0401   -0.0281 C   0  0  0  0  0  0  0  0  0  0  0  0
   -5.6601   -3.7413   -0.6260 O   0  0  0  0  0  0  0  0  0  0  0  0
   -7.6129   -3.7593    0.4333 O   0  0  0  0  0  0  0  0  0  0  0  0
   -7.4491   -0.9354    0.8727 N   0  0  0  0  0  0  0  0  0  0  0  0
   -7.1848    0.3642    0.9517 C   0  0  0  0  0  0  0  0  0  0  0  0
   -7.8785    1.4625    1.4737 C   0  0  0  0  0  0  0  0  0  0  0  0
   -7.3619    2.7183    1.4193 C   0  0  0  0  0  0  0  0  0  0  0  0
   -6.1288    2.8864    0.8332 C   0  0  0  0  0  0  0  0  0  0  0  0
   -5.4212    1.8011    0.3064 C   0  0  0  0  0  0  0  0  0  0  0  0
   -5.9631    0.5505    0.3743 C   0  0  0  0  0  0  0  0  0  0  0  0
   -1.4598   -0.6630   -1.8379 N   0  0  0  0  0  0  0  0  0  0  0  0
   -0.1383   -0.7046   -2.4030 C   0  0  0  0  0  0  0  0  0  0  0  0
   -0.0154   -1.0775   -3.7216 C   0  0  0  0  0  0  0  0  0  0  0  0
    1.2722   -1.1044   -4.2260 C   0  0  0  0  0  0  0  0  0  0  0  0
    2.3517   -0.7738   -3.4373 C   0  0  0  0  0  0  0  0  0  0  0  0
    2.1977   -0.4024   -2.1137 C   0  0  0  0  0  0  0  0  0  0  0  0
    3.3913   -0.0710   -1.3589 C   0  0  0  0  0  0  0  0  0  0  0  0
    3.4055    0.3003   -0.0895 C   0  0  0  0  0  0  0  0  0  0  0  0
    4.6889    0.6144    0.5773 C   0  0  0  0  0  0  0  0  0  0  0  0
    4.6888    0.9995    1.8984 C   0  0  0  0  0  0  0  0  0  0  0  0
    5.8849    1.3037    2.5591 C   0  0  0  0  0  0  0  0  0  0  0  0
    7.0832    1.2158    1.8744 C   0  0  0  0  0  0  0  0  0  0  0  0
    8.2973    1.5044    2.4763 C   0  0  0  0  0  0  0  0  0  0  0  0
    9.4971    1.4186    1.7983 C   0  0  0  0  0  0  0  0  0  0  0  0
    9.4511    1.0276    0.4719 C   0  0  0  0  0  0  0  0  0  0  0  0
   10.9764    0.9216   -0.3793 Cl  0  0  0  0  0  0  0  0  0  0  0  0
    8.2447    0.7432   -0.1179 C   0  0  0  0  0  0  0  0  0  0  0  0
    7.0414    0.8262    0.5517 C   0  0  0  0  0  0  0  0  0  0  0  0
    5.8638    0.5384   -0.0589 N   0  0  0  0  0  0  0  0  0  0  0  0
    0.9307   -0.3703   -1.5983 C   0  0  0  0  0  0  0  0  0  0  0  0
   -3.6270   -2.7558   -0.1231 H   0  0  0  0  0  0  0  0  0  0  0  0
   -3.7042    0.0654   -1.1070 H   0  0  0  0  0  0  0  0  0  0  0  0
   -7.5129   -4.7639    0.5909 H   0  0  0  0  0  0  0  0  0  0  0  0
   -8.3292   -1.3936    1.2380 H   0  0  0  0  0  0  0  0  0  0  0  0
   -8.8436    1.2591    1.9209 H   0  0  0  0  0  0  0  0  0  0  0  0
   -7.9299    3.5488    1.8356 H   0  0  0  0  0  0  0  0  0  0  0  0
   -5.6942    3.8648    0.7748 H   0  0  0  0  0  0  0  0  0  0  0  0
   -4.4500    1.9519   -0.1525 H   0  0  0  0  0  0  0  0  0  0  0  0
   -1.9598    0.2431   -1.9196 H   0  0  0  0  0  0  0  0  0  0  0  0
   -0.8676   -1.3390   -4.3460 H   0  0  0  0  0  0  0  0  0  0  0  0
    1.4009   -1.3955   -5.2655 H   0  0  0  0  0  0  0  0  0  0  0  0
    3.3308   -0.8176   -3.9004 H   0  0  0  0  0  0  0  0  0  0  0  0
    4.3741   -0.1172   -1.8316 H   0  0  0  0  0  0  0  0  0  0  0  0
    2.4812    0.3682    0.4392 H   0  0  0  0  0  0  0  0  0  0  0  0
    3.7610    1.0683    2.4308 H   0  0  0  0  0  0  0  0  0  0  0  0
    5.8925    1.6093    3.6049 H   0  0  0  0  0  0  0  0  0  0  0  0
    8.3329    1.8123    3.5206 H   0  0  0  0  0  0  0  0  0  0  0  0
   10.4325    1.6516    2.2983 H   0  0  0  0  0  0  0  0  0  0  0  0
    8.2147    0.4341   -1.1685 H   0  0  0  0  0  0  0  0  0  0  0  0
    0.7819   -0.0781   -0.5485 H   0  0  0  0  0  0  0  0  0  0  0  0
  1  2  2  0
  2  3  1  0
  3  4  2  0
  4  5  1  0
  5  6  2  0
  6  7  1  0
  7  8  2  0
  7  9  1  0
  6 10  1  0
 10 11  1  0
 11 12  2  0
 12 13  1  0
 13 14  2  0
 14 15  1  0
 15 16  2  0
  2 17  1  0
 17 18  1  0
 18 19  2  0
 19 20  1  0
 20 21  2  0
 21 22  1  0
 22 23  1  0
 23 24  2  0
 24 25  1  0
 25 26  2  0
 26 27  1  0
 27 28  2  0
 28 29  1  0
 29 30  2  0
 30 31  1  0
 31 32  1  0
 31 33  2  0
 33 34  1  0
 34 35  2  0
 22 36  2  0
 16  5  1  0
 36 18  1  0
 16 11  1  0
 35 25  1  0
 34 28  1  0
  3 37  1  0
  4 38  1  0
  9 39  1  0
 10 40  1  0
 12 41  1  0
 13 42  1  0
 14 43  1  0
 15 44  1  0
 17 45  1  0
 19 46  1  0
 20 47  1  0
 21 48  1  0
 23 49  1  0
 24 50  1  0
 26 51  1  0
 27 52  1  0
 29 53  1  0
 30 54  1  0
 33 55  1  0
 36 56  1  0
M  END
$$$$
