
     RDKit          3D

 50 51  0  0  0  0  0  0  0  0999 V2000
   -1.4646   -3.4763   -0.9269 C   0  0  0  0  0  0  0  0  0  0  0  0
   -2.2425   -2.4014   -0.4562 O   0  0  0  0  0  0  0  0  0  0  0  0
   -1.6148   -1.2279   -0.0867 C   0  0  0  0  0  0  0  0  0  0  0  0
   -0.2215   -1.1797   -0.2020 C   0  0  0  0  0  0  0  0  0  0  0  0
    0.5222   -0.0734    0.1360 C   0  0  0  0  0  0  0  0  0  0  0  0
    1.9864   -0.0820   -0.0107 C   0  0  0  0  0  0  0  0  0  0  0  0
    2.5692   -0.5649   -1.1846 C   0  0  0  0  0  0  0  0  0  0  0  0
    3.9170   -0.5780   -1.3411 C   0  0  0  0  0  0  0  0  0  0  0  0
    4.5106   -1.0990   -2.6049 C   0  0  0  0  0  0  0  0  0  0  0  0
    4.7131   -0.1056   -0.3207 C   0  0  0  0  0  0  0  0  0  0  0  0
    5.9602   -0.1192   -0.4692 O   0  0  0  0  0  0  0  0  0  0  0  0
    4.1758    0.3634    0.8170 N   0  0  0  0  0  0  0  0  0  0  0  0
    5.0454    0.8610    1.8885 C   0  0  0  0  0  0  0  0  0  0  0  0
    2.8364    0.3752    0.9699 C   0  0  0  0  0  0  0  0  0  0  0  0
    2.2663    0.9035    2.2583 C   0  0  0  0  0  0  0  0  0  0  0  0
   -0.1854    1.0114    0.6045 C   0  0  0  0  0  0  0  0  0  0  0  0
   -1.5533    1.0115    0.7348 C   0  0  0  0  0  0  0  0  0  0  0  0
   -2.2455    2.1342    1.2160 O   0  0  0  0  0  0  0  0  0  0  0  0
   -1.4816    3.2744    1.5651 C   0  0  0  0  0  0  0  0  0  0  0  0
   -2.2817   -0.1289    0.3823 C   0  0  0  0  0  0  0  0  0  0  0  0
   -3.7398   -0.1102    0.4985 C   0  0  0  0  0  0  0  0  0  0  0  0
   -4.3717    0.1785   -0.7253 N   0  0  0  0  0  0  0  0  0  0  0  0
   -4.1945   -0.6742   -1.8336 C   0  0  0  0  0  0  0  0  0  0  0  0
   -5.6252    0.8599   -0.6332 C   0  0  0  0  0  0  0  0  0  0  0  0
   -2.1594   -4.3509   -1.0507 H   0  0  0  0  0  0  0  0  0  0  0  0
   -0.9690   -3.2131   -1.8839 H   0  0  0  0  0  0  0  0  0  0  0  0
   -0.7357   -3.7320   -0.1205 H   0  0  0  0  0  0  0  0  0  0  0  0
    0.3467   -2.0359   -0.5729 H   0  0  0  0  0  0  0  0  0  0  0  0
    1.9085   -0.9315   -1.9728 H   0  0  0  0  0  0  0  0  0  0  0  0
    5.5092   -0.6745   -2.7113 H   0  0  0  0  0  0  0  0  0  0  0  0
    4.5455   -2.2031   -2.6172 H   0  0  0  0  0  0  0  0  0  0  0  0
    3.8127   -0.8040   -3.4240 H   0  0  0  0  0  0  0  0  0  0  0  0
    6.0589    0.9756    1.4871 H   0  0  0  0  0  0  0  0  0  0  0  0
    4.7022    1.8530    2.2404 H   0  0  0  0  0  0  0  0  0  0  0  0
    5.0915    0.1592    2.7373 H   0  0  0  0  0  0  0  0  0  0  0  0
    1.3138    0.4397    2.5172 H   0  0  0  0  0  0  0  0  0  0  0  0
    2.2983    1.9968    2.2818 H   0  0  0  0  0  0  0  0  0  0  0  0
    2.9922    0.5632    3.0512 H   0  0  0  0  0  0  0  0  0  0  0  0
    0.3610    1.9042    0.8806 H   0  0  0  0  0  0  0  0  0  0  0  0
   -2.1083    4.1069    1.9178 H   0  0  0  0  0  0  0  0  0  0  0  0
   -0.7519    3.0062    2.3769 H   0  0  0  0  0  0  0  0  0  0  0  0
   -0.9560    3.6082    0.6566 H   0  0  0  0  0  0  0  0  0  0  0  0
   -4.0486    0.6653    1.2626 H   0  0  0  0  0  0  0  0  0  0  0  0
   -4.1366   -1.0664    0.9585 H   0  0  0  0  0  0  0  0  0  0  0  0
   -4.5236   -1.7232   -1.7134 H   0  0  0  0  0  0  0  0  0  0  0  0
   -4.8614   -0.2818   -2.6623 H   0  0  0  0  0  0  0  0  0  0  0  0
   -3.1524   -0.5758   -2.2193 H   0  0  0  0  0  0  0  0  0  0  0  0
   -6.1572    0.4950    0.2710 H   0  0  0  0  0  0  0  0  0  0  0  0
   -6.2704    0.7184   -1.5163 H   0  0  0  0  0  0  0  0  0  0  0  0
   -5.3903    1.9478   -0.4503 H   0  0  0  0  0  0  0  0  0  0  0  0
  1  2  1  0
  2  3  1  0
  3  4  2  0
  4  5  1  0
  5  6  1  0
  6  7  1  0
  7  8  2  0
  8  9  1  0
  8 10  1  0
 10 11  2  0
 10 12  1  0
 12 13  1  0
 12 14  1  0
 14 15  1  0
  5 16  2  0
 16 17  1  0
 17 18  1  0
 18 19  1  0
 17 20  2  0
 20 21  1  0
 21 22  1  0
 22 23  1  0
 22 24  1  0
 20  3  1  0
 14  6  2  0
  1 25  1  0
  1 26  1  0
  1 27  1  0
  4 28  1  0
  7 29  1  0
  9 30  1  0
  9 31  1  0
  9 32  1  0
 13 33  1  0
 13 34  1  0
 13 35  1  0
 15 36  1  0
 15 37  1  0
 15 38  1  0
 16 39  1  0
 19 40  1  0
 19 41  1  0
 19 42  1  0
 21 43  1  0
 21 44  1  0
 23 45  1  0
 23 46  1  0
 23 47  1  0
 24 48  1  0
 24 49  1  0
 24 50  1  0
M  END
$$$$
