
     RDKit          3D

 64 69  0  0  0  0  0  0  0  0999 V2000
   -2.6876    2.9368    0.5670 C   0  0  0  0  0  0  0  0  0  0  0  0
   -2.5133    1.6976   -0.3650 C   0  0  2  0  0  0  0  0  0  0  0  0
   -3.1201    0.5352    0.1749 N   0  0  0  0  0  0  0  0  0  0  0  0
   -3.9904    0.0086    1.0121 C   0  0  0  0  0  0  0  0  0  0  0  0
   -4.6013    0.9132    1.8112 O   0  0  0  0  0  0  0  0  0  0  0  0
   -4.4288   -1.3348    1.2617 C   0  0  0  0  0  0  0  0  0  0  0  0
   -4.9427   -1.9750    2.3558 C   0  0  0  0  0  0  0  0  0  0  0  0
   -5.2041   -1.3347    3.5825 N   0  0  0  0  0  0  0  0  0  0  0  0
   -5.2427   -3.2922    2.0598 N   0  0  0  0  0  0  0  0  0  0  0  0
   -4.8760   -3.4148    0.6733 N   0  0  0  0  0  0  0  0  0  0  0  0
   -5.0568   -4.6067   -0.0047 C   0  0  0  0  0  0  0  0  0  0  0  0
   -4.6392   -4.4164   -1.3885 C   0  0  0  0  0  0  0  0  0  0  0  0
   -4.1994   -3.2786   -1.7417 C   0  0  0  0  0  0  0  0  0  0  0  0
   -4.0087   -2.1073   -1.0675 N   0  0  0  0  0  0  0  0  0  0  0  0
   -4.4533   -2.3723    0.3180 C   0  0  0  0  0  0  0  0  0  0  0  0
   -1.1494    1.4727   -0.8073 C   0  0  0  0  0  0  0  0  0  0  0  0
   -0.9484    1.5487   -2.2529 C   0  0  0  0  0  0  0  0  0  0  0  0
    0.2301    1.3072   -2.8204 C   0  0  0  0  0  0  0  0  0  0  0  0
    0.4768    1.3220   -4.0830 C   0  0  0  0  0  0  0  0  0  0  0  0
    1.6099    1.0544   -4.7806 C   0  0  0  0  0  0  0  0  0  0  0  0
    2.6345    0.7125   -3.9819 C   0  0  0  0  0  0  0  0  0  0  0  0
    2.4516    0.6720   -2.4836 C   0  0  0  0  0  0  0  0  0  0  0  0
    3.7041    0.4223   -1.9340 C   0  0  0  0  0  0  0  0  0  0  0  0
    4.9256    0.1923   -1.4143 C   0  0  0  0  0  0  0  0  0  0  0  0
    6.3183   -0.0454   -0.8257 C   0  0  0  0  0  0  0  0  0  0  0  0
    7.0231    0.9188   -0.2485 C   0  0  0  0  0  0  0  0  0  0  0  0
    8.0776    0.2790    0.3533 N   0  0  0  0  0  0  0  0  0  0  0  0
    8.0230   -1.0115    0.1590 N   0  0  0  0  0  0  0  0  0  0  0  0
    8.8661   -2.0653    0.5935 C   0  0  0  0  0  0  0  0  0  0  0  0
    6.8723   -1.2693   -0.6083 C   0  0  0  0  0  0  0  0  0  0  0  0
    1.3258    0.9536   -1.9640 C   0  0  0  0  0  0  0  0  0  0  0  0
    1.1876    0.8681   -0.5487 C   0  0  0  0  0  0  0  0  0  0  0  0
    2.0512    0.5584    0.2012 O   0  0  0  0  0  0  0  0  0  0  0  0
   -0.0585    1.1545   -0.1693 N   0  0  0  0  0  0  0  0  0  0  0  0
   -0.2063    1.3395    1.3086 C   0  0  0  0  0  0  0  0  0  0  0  0
    0.2762    2.5773    1.6915 C   0  0  0  0  0  0  0  0  0  0  0  0
    0.0771    2.9988    2.9874 C   0  0  0  0  0  0  0  0  0  0  0  0
   -0.5712    2.2362    3.9199 C   0  0  0  0  0  0  0  0  0  0  0  0
   -1.0721    0.9645    3.5087 C   0  0  0  0  0  0  0  0  0  0  0  0
   -0.8644    0.5637    2.2126 C   0  0  0  0  0  0  0  0  0  0  0  0
   -3.7023    3.3020    0.4003 H   0  0  0  0  0  0  0  0  0  0  0  0
   -2.5548    2.6769    1.6153 H   0  0  0  0  0  0  0  0  0  0  0  0
   -2.0204    3.7426    0.1516 H   0  0  0  0  0  0  0  0  0  0  0  0
   -3.2012    2.0027   -1.2457 H   0  0  0  0  0  0  0  0  0  0  0  0
   -2.5367   -0.3780   -0.4585 H   0  0  0  0  0  0  0  0  0  0  0  0
   -4.7348   -1.7326    4.5238 H   0  0  0  0  0  0  0  0  0  0  0  0
   -5.8289   -0.5151    3.6057 H   0  0  0  0  0  0  0  0  0  0  0  0
   -5.3688   -5.5034    0.3231 H   0  0  0  0  0  0  0  0  0  0  0  0
   -4.7821   -5.3643   -2.0235 H   0  0  0  0  0  0  0  0  0  0  0  0
   -3.8980   -3.1241   -2.8404 H   0  0  0  0  0  0  0  0  0  0  0  0
   -1.8428    1.8038   -2.8657 H   0  0  0  0  0  0  0  0  0  0  0  0
   -0.3745    1.7139   -4.7553 H   0  0  0  0  0  0  0  0  0  0  0  0
    1.6758    1.0997   -5.8429 H   0  0  0  0  0  0  0  0  0  0  0  0
    3.5896    0.4084   -4.3336 H   0  0  0  0  0  0  0  0  0  0  0  0
    6.8348    1.9974   -0.2196 H   0  0  0  0  0  0  0  0  0  0  0  0
    9.7802   -2.2242    0.0072 H   0  0  0  0  0  0  0  0  0  0  0  0
    8.2810   -3.0708    0.6124 H   0  0  0  0  0  0  0  0  0  0  0  0
    9.1796   -1.9065    1.7031 H   0  0  0  0  0  0  0  0  0  0  0  0
    6.4984   -2.2034   -0.9441 H   0  0  0  0  0  0  0  0  0  0  0  0
    0.8367    3.2027    0.9879 H   0  0  0  0  0  0  0  0  0  0  0  0
    0.4763    3.9645    3.3529 H   0  0  0  0  0  0  0  0  0  0  0  0
   -0.7914    2.5025    4.9257 H   0  0  0  0  0  0  0  0  0  0  0  0
   -1.5938    0.3624    4.2089 H   0  0  0  0  0  0  0  0  0  0  0  0
   -1.2181   -0.4410    1.8493 H   0  0  0  0  0  0  0  0  0  0  0  0
  1  2  1  0
  2  3  1  0
  3  4  1  0
  4  5  2  0
  4  6  1  0
  6  7  1  0
  7  8  1  0
  7  9  2  0
  9 10  1  0
 10 11  1  0
 11 12  2  0
 12 13  1  0
 13 14  2  0
 14 15  1  0
  2 16  1  0
 16 17  2  0
 17 18  1  0
 18 19  2  0
 19 20  1  0
 20 21  2  0
 21 22  1  0
 22 23  1  0
 23 24  3  0
 24 25  1  0
 25 26  1  0
 26 27  2  0
 27 28  1  0
 28 29  1  0
 28 30  1  0
 22 31  2  0
 31 32  1  0
 32 33  2  0
 32 34  1  0
 34 35  1  0
 35 36  2  0
 36 37  1  0
 37 38  2  0
 38 39  1  0
 39 40  2  0
 15  6  2  0
 34 16  1  0
 40 35  1  0
 15 10  1  0
 31 18  1  0
 30 25  2  0
  1 41  1  0
  1 42  1  0
  1 43  1  0
  2 44  1  6
  3 45  1  0
  8 46  1  0
  8 47  1  0
 11 48  1  0
 12 49  1  0
 13 50  1  0
 17 51  1  0
 19 52  1  0
 20 53  1  0
 21 54  1  0
 26 55  1  0
 29 56  1  0
 29 57  1  0
 29 58  1  0
 30 59  1  0
 36 60  1  0
 37 61  1  0
 38 62  1  0
 39 63  1  0
 40 64  1  0
M  END
$$$$
