
     RDKit          3D

 61 65  0  0  0  0  0  0  0  0999 V2000
   -2.5389   -0.3536    2.0532 O   0  0  0  0  0  0  0  0  0  0  0  0
   -2.4669    0.1898    0.8777 C   0  0  0  0  0  0  0  0  0  0  0  0
   -1.2305    0.1150    0.2036 C   0  0  0  0  0  0  0  0  0  0  0  0
   -0.2851   -0.8046    0.6827 C   0  0  0  0  0  0  0  0  0  0  0  0
    0.9380   -0.9845    0.0721 C   0  0  0  0  0  0  0  0  0  0  0  0
    1.2929   -0.2725   -1.0340 C   0  0  0  0  0  0  0  0  0  0  0  0
    2.4975   -0.4070   -1.6826 O   0  0  0  0  0  0  0  0  0  0  0  0
    3.5947   -1.1814   -1.4719 C   0  0  0  0  0  0  0  0  0  0  0  0
    4.3495   -1.0345   -0.1901 C   0  0  0  0  0  0  0  0  0  0  0  0
    4.8695    0.2720    0.0709 N   0  0  0  0  0  0  0  0  0  0  0  0
    5.5679    0.2161    1.3386 C   0  0  0  0  0  0  0  0  0  0  0  0
    6.8474   -0.5970    1.2581 C   0  0  0  0  0  0  0  0  0  0  0  0
    7.7618   -0.1078    0.1685 C   0  0  0  0  0  0  0  0  0  0  0  0
    7.0256    0.1299   -1.1310 C   0  0  0  0  0  0  0  0  0  0  0  0
    5.7229    0.8275   -0.9181 C   0  0  0  0  0  0  0  0  0  0  0  0
    0.3665    0.6535   -1.5351 C   0  0  0  0  0  0  0  0  0  0  0  0
   -0.8338    0.7964   -0.8968 C   0  0  0  0  0  0  0  0  0  0  0  0
   -3.7455    0.8123    0.4197 C   0  0  0  0  0  0  0  0  0  0  0  0
   -4.8384   -0.0221    0.3370 C   0  0  0  0  0  0  0  0  0  0  0  0
   -5.0219   -1.4431    0.5002 C   0  0  0  0  0  0  0  0  0  0  0  0
   -6.3201   -1.9410    0.6872 C   0  0  0  0  0  0  0  0  0  0  0  0
   -6.5950   -3.2871    0.7948 C   0  0  0  0  0  0  0  0  0  0  0  0
   -5.5742   -4.2111    0.7201 C   0  0  0  0  0  0  0  0  0  0  0  0
   -5.8066   -5.5773    0.8245 O   0  0  0  0  0  0  0  0  0  0  0  0
   -4.2998   -3.7338    0.5362 C   0  0  0  0  0  0  0  0  0  0  0  0
   -4.0433   -2.3539    0.4285 C   0  0  0  0  0  0  0  0  0  0  0  0
   -6.1961    1.0472   -0.0435 S   0  0  0  0  0  0  0  0  0  0  0  0
   -5.2205    2.5615   -0.0747 C   0  0  0  0  0  0  0  0  0  0  0  0
   -5.5941    3.8834   -0.2953 C   0  0  0  0  0  0  0  0  0  0  0  0
   -4.6188    4.8724   -0.2275 C   0  0  0  0  0  0  0  0  0  0  0  0
   -4.9340    6.1862   -0.4357 O   0  0  0  0  0  0  0  0  0  0  0  0
   -3.3421    4.4712    0.0552 C   0  0  0  0  0  0  0  0  0  0  0  0
   -3.0205    3.1623    0.2636 C   0  0  0  0  0  0  0  0  0  0  0  0
   -3.9674    2.1265    0.2047 C   0  0  0  0  0  0  0  0  0  0  0  0
   -0.4801   -1.4109    1.5588 H   0  0  0  0  0  0  0  0  0  0  0  0
    1.6213   -1.7309    0.4956 H   0  0  0  0  0  0  0  0  0  0  0  0
    4.2931   -1.0323   -2.3575 H   0  0  0  0  0  0  0  0  0  0  0  0
    3.3346   -2.2873   -1.5342 H   0  0  0  0  0  0  0  0  0  0  0  0
    5.2637   -1.7003   -0.3053 H   0  0  0  0  0  0  0  0  0  0  0  0
    3.8663   -1.3944    0.7122 H   0  0  0  0  0  0  0  0  0  0  0  0
    4.8954   -0.3384    2.0543 H   0  0  0  0  0  0  0  0  0  0  0  0
    5.7397    1.2167    1.7871 H   0  0  0  0  0  0  0  0  0  0  0  0
    6.6198   -1.6640    1.2000 H   0  0  0  0  0  0  0  0  0  0  0  0
    7.3749   -0.4373    2.2347 H   0  0  0  0  0  0  0  0  0  0  0  0
    8.5155   -0.9009   -0.0115 H   0  0  0  0  0  0  0  0  0  0  0  0
    8.3072    0.8024    0.4820 H   0  0  0  0  0  0  0  0  0  0  0  0
    6.9254   -0.7928   -1.7317 H   0  0  0  0  0  0  0  0  0  0  0  0
    7.6718    0.8247   -1.7226 H   0  0  0  0  0  0  0  0  0  0  0  0
    5.9813    1.8700   -0.5641 H   0  0  0  0  0  0  0  0  0  0  0  0
    5.2310    0.9611   -1.9036 H   0  0  0  0  0  0  0  0  0  0  0  0
    0.6499    1.2199   -2.4160 H   0  0  0  0  0  0  0  0  0  0  0  0
   -1.5166    1.5114   -1.3469 H   0  0  0  0  0  0  0  0  0  0  0  0
   -7.1403   -1.2306    0.7498 H   0  0  0  0  0  0  0  0  0  0  0  0
   -7.6082   -3.6594    0.9410 H   0  0  0  0  0  0  0  0  0  0  0  0
   -6.4782   -6.0746    0.2659 H   0  0  0  0  0  0  0  0  0  0  0  0
   -3.4940   -4.4673    0.4782 H   0  0  0  0  0  0  0  0  0  0  0  0
   -3.0261   -2.0885    0.2527 H   0  0  0  0  0  0  0  0  0  0  0  0
   -6.6223    4.1047   -0.5115 H   0  0  0  0  0  0  0  0  0  0  0  0
   -5.7224    6.4866   -1.0133 H   0  0  0  0  0  0  0  0  0  0  0  0
   -2.5443    5.2518    0.1121 H   0  0  0  0  0  0  0  0  0  0  0  0
   -1.9990    2.9496    0.4937 H   0  0  0  0  0  0  0  0  0  0  0  0
  1  2  2  0
  2  3  1  0
  3  4  2  0
  4  5  1  0
  5  6  2  0
  6  7  1  0
  7  8  1  0
  8  9  1  0
  9 10  1  0
 10 11  1  0
 11 12  1  0
 12 13  1  0
 13 14  1  0
 14 15  1  0
  6 16  1  0
 16 17  2  0
  2 18  1  0
 18 19  2  0
 19 20  1  0
 20 21  2  0
 21 22  1  0
 22 23  2  0
 23 24  1  0
 23 25  1  0
 25 26  2  0
 19 27  1  0
 27 28  1  0
 28 29  2  0
 29 30  1  0
 30 31  1  0
 30 32  2  0
 32 33  1  0
 33 34  2  0
 17  3  1  0
 34 18  1  0
 15 10  1  0
 26 20  1  0
 34 28  1  0
  4 35  1  0
  5 36  1  0
  8 37  1  0
  8 38  1  0
  9 39  1  0
  9 40  1  0
 11 41  1  0
 11 42  1  0
 12 43  1  0
 12 44  1  0
 13 45  1  0
 13 46  1  0
 14 47  1  0
 14 48  1  0
 15 49  1  0
 15 50  1  0
 16 51  1  0
 17 52  1  0
 21 53  1  0
 22 54  1  0
 24 55  1  0
 25 56  1  0
 26 57  1  0
 29 58  1  0
 31 59  1  0
 32 60  1  0
 33 61  1  0
M  END
$$$$
