
     RDKit          3D

 69 74  0  0  0  0  0  0  0  0999 V2000
   -4.9520   -1.2176   -2.0794 C   0  0  0  0  0  0  0  0  0  0  0  0
   -5.9451   -1.4261   -0.9958 C   0  0  0  0  0  0  0  0  0  0  0  0
   -7.2857   -1.1722   -1.2824 C   0  0  0  0  0  0  0  0  0  0  0  0
   -8.2232   -1.3850   -0.3006 C   0  0  0  0  0  0  0  0  0  0  0  0
   -7.8351   -1.8439    0.9499 C   0  0  0  0  0  0  0  0  0  0  0  0
   -6.5378   -2.0675    1.1621 N   0  0  0  0  0  0  0  0  0  0  0  0
   -5.5614   -1.8749    0.2297 C   0  0  0  0  0  0  0  0  0  0  0  0
   -4.1335   -2.1274    0.5794 C   0  0  0  0  0  0  0  0  0  0  0  0
   -3.3768   -1.0210    0.9371 N   0  0  0  0  0  0  0  0  0  0  0  0
   -1.9948   -1.1639    1.2189 C   0  0  0  0  0  0  0  0  0  0  0  0
   -1.3685    0.1882    1.5716 C   0  0  0  0  0  0  0  0  0  0  0  0
   -1.3540    1.0179    0.3103 C   0  0  0  0  0  0  0  0  0  0  0  0
   -2.6708    0.9100   -0.3718 C   0  0  0  0  0  0  0  0  0  0  0  0
   -3.7171    0.2952    0.5834 C   0  0  0  0  0  0  0  0  0  0  0  0
   -0.2448    0.4317   -0.5302 C   0  0  0  0  0  0  0  0  0  0  0  0
   -0.3910   -0.4033   -1.4629 O   0  0  0  0  0  0  0  0  0  0  0  0
    0.9447    1.0216   -0.0374 N   0  0  0  0  0  0  0  0  0  0  0  0
    2.2387    0.4800   -0.1951 C   0  0  0  0  0  0  0  0  0  0  0  0
    2.7901   -0.3965    0.7301 C   0  0  0  0  0  0  0  0  0  0  0  0
    4.0451   -0.9244    0.5800 C   0  0  0  0  0  0  0  0  0  0  0  0
    4.8219   -0.6017   -0.5119 C   0  0  0  0  0  0  0  0  0  0  0  0
    6.1710   -1.1733   -0.6769 C   0  0  0  0  0  0  0  0  0  0  0  0
    6.9173   -1.4609    0.4345 C   0  0  0  0  0  0  0  0  0  0  0  0
    8.1988   -2.0082    0.3173 C   0  0  0  0  0  0  0  0  0  0  0  0
    8.7489   -2.2741   -0.9188 C   0  0  0  0  0  0  0  0  0  0  0  0
   10.0842   -2.8490   -1.0697 C   0  0  0  0  0  0  0  0  0  0  0  0
   10.5303   -3.0670   -2.2204 O   0  0  0  0  0  0  0  0  0  0  0  0
   10.9033   -3.1747   -0.0016 O   0  0  0  0  0  0  0  0  0  0  0  0
    7.9918   -1.9816   -2.0314 C   0  0  0  0  0  0  0  0  0  0  0  0
    6.7149   -1.4364   -1.9136 C   0  0  0  0  0  0  0  0  0  0  0  0
    4.2963    0.2653   -1.4426 C   0  0  0  0  0  0  0  0  0  0  0  0
    3.0113    0.8036   -1.2850 C   0  0  0  0  0  0  0  0  0  0  0  0
    0.5522    2.2140    0.6234 C   0  0  0  0  0  0  0  0  0  0  0  0
    1.3399    3.0331    1.2023 O   0  0  0  0  0  0  0  0  0  0  0  0
   -0.8801    2.3522    0.5360 N   0  0  0  0  0  0  0  0  0  0  0  0
   -1.5626    3.5961    0.6700 C   0  0  0  0  0  0  0  0  0  0  0  0
   -2.8924    3.6914    0.5877 N   0  0  0  0  0  0  0  0  0  0  0  0
   -3.5998    4.8153    0.7078 C   0  0  0  0  0  0  0  0  0  0  0  0
   -2.9154    6.0136    0.9411 C   0  0  0  0  0  0  0  0  0  0  0  0
   -1.5411    5.9061    1.0243 C   0  0  0  0  0  0  0  0  0  0  0  0
   -0.8788    4.7484    0.8957 N   0  0  0  0  0  0  0  0  0  0  0  0
   -3.9828   -1.6835   -1.9087 H   0  0  0  0  0  0  0  0  0  0  0  0
   -5.3813   -1.6844   -3.0126 H   0  0  0  0  0  0  0  0  0  0  0  0
   -4.9003   -0.1249   -2.3400 H   0  0  0  0  0  0  0  0  0  0  0  0
   -7.5406   -0.8089   -2.2907 H   0  0  0  0  0  0  0  0  0  0  0  0
   -9.2743   -1.1936   -0.5019 H   0  0  0  0  0  0  0  0  0  0  0  0
   -8.5936   -2.0124    1.7313 H   0  0  0  0  0  0  0  0  0  0  0  0
   -4.1669   -2.8324    1.4720 H   0  0  0  0  0  0  0  0  0  0  0  0
   -3.6486   -2.7679   -0.2074 H   0  0  0  0  0  0  0  0  0  0  0  0
   -1.4317   -1.5521    0.3370 H   0  0  0  0  0  0  0  0  0  0  0  0
   -1.8481   -1.8695    2.0586 H   0  0  0  0  0  0  0  0  0  0  0  0
   -0.3084   -0.0410    1.8315 H   0  0  0  0  0  0  0  0  0  0  0  0
   -1.8818    0.6757    2.4032 H   0  0  0  0  0  0  0  0  0  0  0  0
   -2.5800    0.1593   -1.2105 H   0  0  0  0  0  0  0  0  0  0  0  0
   -3.0723    1.8112   -0.8252 H   0  0  0  0  0  0  0  0  0  0  0  0
   -4.6920    0.4939    0.1480 H   0  0  0  0  0  0  0  0  0  0  0  0
   -3.7099    0.8988    1.5457 H   0  0  0  0  0  0  0  0  0  0  0  0
    2.1967   -0.6620    1.5938 H   0  0  0  0  0  0  0  0  0  0  0  0
    4.4269   -1.5990    1.3251 H   0  0  0  0  0  0  0  0  0  0  0  0
    6.5223   -1.2669    1.4316 H   0  0  0  0  0  0  0  0  0  0  0  0
    8.7943   -2.2386    1.1959 H   0  0  0  0  0  0  0  0  0  0  0  0
   11.7268   -3.7651   -0.0802 H   0  0  0  0  0  0  0  0  0  0  0  0
    8.4322   -2.1943   -3.0046 H   0  0  0  0  0  0  0  0  0  0  0  0
    6.1328   -1.2122   -2.7954 H   0  0  0  0  0  0  0  0  0  0  0  0
    4.8561    0.5558   -2.3188 H   0  0  0  0  0  0  0  0  0  0  0  0
    2.5884    1.4898   -2.0167 H   0  0  0  0  0  0  0  0  0  0  0  0
   -4.6768    4.8921    0.6406 H   0  0  0  0  0  0  0  0  0  0  0  0
   -3.4293    6.9541    1.0478 H   0  0  0  0  0  0  0  0  0  0  0  0
   -0.9969    6.8456    1.2076 H   0  0  0  0  0  0  0  0  0  0  0  0
  1  2  1  0
  2  3  2  0
  3  4  1  0
  4  5  2  0
  5  6  1  0
  6  7  2  0
  7  8  1  0
  8  9  1  0
  9 10  1  0
 10 11  1  0
 11 12  1  0
 12 13  1  0
 13 14  1  0
 12 15  1  0
 15 16  2  0
 15 17  1  0
 17 18  1  0
 18 19  2  0
 19 20  1  0
 20 21  2  0
 21 22  1  0
 22 23  2  0
 23 24  1  0
 24 25  2  0
 25 26  1  0
 26 27  2  0
 26 28  1  0
 25 29  1  0
 29 30  2  0
 21 31  1  0
 31 32  2  0
 17 33  1  0
 33 34  2  0
 33 35  1  0
 35 36  1  0
 36 37  2  0
 37 38  1  0
 38 39  2  0
 39 40  1  0
 40 41  2  0
  7  2  1  0
 14  9  1  0
 32 18  1  0
 41 36  1  0
 35 12  1  0
 30 22  1  0
  1 42  1  0
  1 43  1  0
  1 44  1  0
  3 45  1  0
  4 46  1  0
  5 47  1  0
  8 48  1  0
  8 49  1  0
 10 50  1  0
 10 51  1  0
 11 52  1  0
 11 53  1  0
 13 54  1  0
 13 55  1  0
 14 56  1  0
 14 57  1  0
 19 58  1  0
 20 59  1  0
 23 60  1  0
 24 61  1  0
 28 62  1  0
 29 63  1  0
 30 64  1  0
 31 65  1  0
 32 66  1  0
 38 67  1  0
 39 68  1  0
 40 69  1  0
M  END
$$$$
