
     RDKit          3D

 46 48  0  0  0  0  0  0  0  0999 V2000
    6.6581    1.6236   -0.7752 C   0  0  0  0  0  0  0  0  0  0  0  0
    5.9491    0.4226   -1.0130 O   0  0  0  0  0  0  0  0  0  0  0  0
    4.7990    0.0691   -0.3616 C   0  0  0  0  0  0  0  0  0  0  0  0
    4.1769    0.8265    0.6075 C   0  0  0  0  0  0  0  0  0  0  0  0
    3.0177    0.4438    1.2470 C   0  0  0  0  0  0  0  0  0  0  0  0
    2.3996   -0.7436    0.9487 C   0  0  0  0  0  0  0  0  0  0  0  0
    3.0308   -1.5141   -0.0359 C   0  0  0  0  0  0  0  0  0  0  0  0
    4.1964   -1.1295   -0.6791 C   0  0  0  0  0  0  0  0  0  0  0  0
    0.9464   -1.3660    1.6542 S   0  0  0  0  0  0  0  0  0  0  0  0
    0.8995   -0.9108    3.0921 O   0  0  0  0  0  0  0  0  0  0  0  0
    1.0930   -2.8685    1.7198 O   0  0  0  0  0  0  0  0  0  0  0  0
   -0.4824   -0.9405    0.8050 N   0  0  0  0  0  0  0  0  0  0  0  0
   -1.3374   -1.8267    0.2290 C   0  0  0  0  0  0  0  0  0  0  0  0
   -2.3888   -1.1820   -0.3768 C   0  0  0  0  0  0  0  0  0  0  0  0
   -3.5435   -1.7446   -1.1235 C   0  0  0  0  0  0  0  0  0  0  0  0
   -3.5349   -3.2538   -1.0881 C   0  0  0  0  0  0  0  0  0  0  0  0
   -3.6269   -3.6474    0.3629 C   0  0  0  0  0  0  0  0  0  0  0  0
   -3.6220   -4.9583    0.7687 O   0  0  0  0  0  0  0  0  0  0  0  0
   -3.7136   -2.7751    1.2795 O   0  0  0  0  0  0  0  0  0  0  0  0
   -2.1949    0.1698   -0.1784 C   0  0  0  0  0  0  0  0  0  0  0  0
   -2.9180    1.2790   -0.5561 C   0  0  0  0  0  0  0  0  0  0  0  0
   -2.4558    2.5313   -0.1992 C   0  0  0  0  0  0  0  0  0  0  0  0
   -3.2590    3.5775   -0.6294 O   0  0  0  0  0  0  0  0  0  0  0  0
   -2.8913    4.8916   -0.3267 C   0  0  0  0  0  0  0  0  0  0  0  0
   -1.2920    2.6707    0.5220 C   0  0  0  0  0  0  0  0  0  0  0  0
   -0.6016    1.5278    0.8777 C   0  0  0  0  0  0  0  0  0  0  0  0
   -1.0252    0.2582    0.5433 C   0  0  0  0  0  0  0  0  0  0  0  0
    7.2138    1.9872   -1.6646 H   0  0  0  0  0  0  0  0  0  0  0  0
    5.9354    2.4376   -0.5071 H   0  0  0  0  0  0  0  0  0  0  0  0
    7.3268    1.5281    0.1114 H   0  0  0  0  0  0  0  0  0  0  0  0
    4.6078    1.7681    0.8888 H   0  0  0  0  0  0  0  0  0  0  0  0
    2.5473    1.0492    2.0039 H   0  0  0  0  0  0  0  0  0  0  0  0
    2.5965   -2.4673   -0.3230 H   0  0  0  0  0  0  0  0  0  0  0  0
    4.6178   -1.8027   -1.4397 H   0  0  0  0  0  0  0  0  0  0  0  0
   -1.1814   -2.9139    0.2571 H   0  0  0  0  0  0  0  0  0  0  0  0
   -3.4407   -1.4369   -2.2005 H   0  0  0  0  0  0  0  0  0  0  0  0
   -4.4965   -1.3219   -0.7499 H   0  0  0  0  0  0  0  0  0  0  0  0
   -4.4779   -3.6300   -1.5358 H   0  0  0  0  0  0  0  0  0  0  0  0
   -2.6644   -3.6831   -1.5862 H   0  0  0  0  0  0  0  0  0  0  0  0
   -4.0155   -5.1976    1.6541 H   0  0  0  0  0  0  0  0  0  0  0  0
   -3.8312    1.1263   -1.1244 H   0  0  0  0  0  0  0  0  0  0  0  0
   -2.0814    5.2163   -1.0223 H   0  0  0  0  0  0  0  0  0  0  0  0
   -2.5047    5.0143    0.7253 H   0  0  0  0  0  0  0  0  0  0  0  0
   -3.7695    5.5599   -0.4365 H   0  0  0  0  0  0  0  0  0  0  0  0
   -0.9704    3.6708    0.7781 H   0  0  0  0  0  0  0  0  0  0  0  0
    0.3088    1.6650    1.4442 H   0  0  0  0  0  0  0  0  0  0  0  0
  1  2  1  0
  2  3  1  0
  3  4  2  0
  4  5  1  0
  5  6  2  0
  6  7  1  0
  7  8  2  0
  6  9  1  0
  9 10  2  0
  9 11  2  0
  9 12  1  0
 12 13  1  0
 13 14  2  0
 14 15  1  0
 15 16  1  0
 16 17  1  0
 17 18  1  0
 17 19  2  0
 14 20  1  0
 20 21  2  0
 21 22  1  0
 22 23  1  0
 23 24  1  0
 22 25  2  0
 25 26  1  0
 26 27  2  0
  8  3  1  0
 27 12  1  0
 27 20  1  0
  1 28  1  0
  1 29  1  0
  1 30  1  0
  4 31  1  0
  5 32  1  0
  7 33  1  0
  8 34  1  0
 13 35  1  0
 15 36  1  0
 15 37  1  0
 16 38  1  0
 16 39  1  0
 18 40  1  0
 21 41  1  0
 24 42  1  0
 24 43  1  0
 24 44  1  0
 25 45  1  0
 26 46  1  0
M  END
$$$$
