
     RDKit          3D

 42 43  0  0  0  0  0  0  0  0999 V2000
   -6.9840    0.7846   -0.5647 O   0  0  0  0  0  0  0  0  0  0  0  0
   -5.5181    0.4302   -0.8376 P   0  0  0  0  0  5  0  0  0  0  0  0
   -4.6833    1.9137   -0.8295 O   0  0  0  0  0  1  0  0  0  0  0  0
   -5.4700   -0.3099   -2.3390 O   0  0  0  0  0  1  0  0  0  0  0  0
   -4.9752   -0.6558    0.4702 C   0  0  0  0  0  0  0  0  0  0  0  0
   -3.8302   -1.5296    0.1995 C   0  0  0  0  0  0  0  0  0  0  0  0
   -2.5307   -1.0097   -0.2290 C   0  0  0  0  0  0  0  0  0  0  0  0
   -1.8191   -0.0275    0.6467 C   0  0  0  0  0  0  0  0  0  0  0  0
   -0.4624    0.3119    0.0472 C   0  0  0  0  0  0  0  0  0  0  0  0
   -0.3155    1.3607   -0.8347 C   0  0  0  0  0  0  0  0  0  0  0  0
    0.9041    1.6867   -1.3911 C   0  0  0  0  0  0  0  0  0  0  0  0
    2.0335    0.9605   -1.0762 C   0  0  0  0  0  0  0  0  0  0  0  0
    1.9035   -0.0915   -0.1949 C   0  0  0  0  0  0  0  0  0  0  0  0
    3.0576   -0.8427    0.1589 N   0  0  0  0  0  0  0  0  0  0  0  0
    4.3798   -0.3533    0.1666 C   0  0  0  0  0  0  0  0  0  0  0  0
    5.4294   -1.2207   -0.0149 C   0  0  0  0  0  0  0  0  0  0  0  0
    6.7324   -0.7819    0.0071 C   0  0  0  0  0  0  0  0  0  0  0  0
    7.0324    0.5706    0.2166 C   0  0  0  0  0  0  0  0  0  0  0  0
    5.9934    1.4543    0.4007 C   0  0  0  0  0  0  0  0  0  0  0  0
    4.6943    0.9925    0.3750 C   0  0  0  0  0  0  0  0  0  0  0  0
    0.6578   -0.4158    0.3659 C   0  0  0  0  0  0  0  0  0  0  0  0
   -5.1527    0.0560    2.0585 S   0  0  0  0  0  6  0  0  0  0  0  0
   -5.1697   -1.0749    3.0863 O   0  0  0  0  0  0  0  0  0  0  0  0
   -4.2087    1.1130    2.4379 O   0  0  0  0  0  0  0  0  0  0  0  0
   -6.7501    0.6853    2.1087 O   0  0  0  0  0  1  0  0  0  0  0  0
   -5.8770   -1.4582    0.4898 H   0  0  0  0  0  0  0  0  0  0  0  0
   -4.1322   -2.4079   -0.4793 H   0  0  0  0  0  0  0  0  0  0  0  0
   -3.6368   -2.1045    1.1747 H   0  0  0  0  0  0  0  0  0  0  0  0
   -1.8154   -1.8963   -0.3307 H   0  0  0  0  0  0  0  0  0  0  0  0
   -2.5311   -0.5929   -1.2738 H   0  0  0  0  0  0  0  0  0  0  0  0
   -1.7344   -0.3806    1.6648 H   0  0  0  0  0  0  0  0  0  0  0  0
   -2.4161    0.9336    0.6437 H   0  0  0  0  0  0  0  0  0  0  0  0
   -1.2218    1.9210   -1.0693 H   0  0  0  0  0  0  0  0  0  0  0  0
    0.9810    2.5233   -2.0849 H   0  0  0  0  0  0  0  0  0  0  0  0
    3.0016    1.2161   -1.5333 H   0  0  0  0  0  0  0  0  0  0  0  0
    2.9014   -1.8389    0.4347 H   0  0  0  0  0  0  0  0  0  0  0  0
    5.2157   -2.2613   -0.1767 H   0  0  0  0  0  0  0  0  0  0  0  0
    7.5198   -1.5186   -0.1431 H   0  0  0  0  0  0  0  0  0  0  0  0
    8.0763    0.8840    0.2278 H   0  0  0  0  0  0  0  0  0  0  0  0
    6.2046    2.5007    0.5635 H   0  0  0  0  0  0  0  0  0  0  0  0
    3.9218    1.7248    0.5383 H   0  0  0  0  0  0  0  0  0  0  0  0
    0.5941   -1.2510    1.0555 H   0  0  0  0  0  0  0  0  0  0  0  0
  1  2  2  0
  2  3  1  0
  2  4  1  0
  2  5  1  0
  5  6  1  0
  6  7  1  0
  7  8  1  0
  8  9  1  0
  9 10  2  0
 10 11  1  0
 11 12  2  0
 12 13  1  0
 13 14  1  0
 14 15  1  0
 15 16  2  0
 16 17  1  0
 17 18  2  0
 18 19  1  0
 19 20  2  0
 13 21  2  0
  5 22  1  0
 22 23  2  0
 22 24  2  0
 22 25  1  0
 21  9  1  0
 20 15  1  0
  5 26  1  0
  6 27  1  0
  6 28  1  0
  7 29  1  0
  7 30  1  0
  8 31  1  0
  8 32  1  0
 10 33  1  0
 11 34  1  0
 12 35  1  0
 14 36  1  0
 16 37  1  0
 17 38  1  0
 18 39  1  0
 19 40  1  0
 20 41  1  0
 21 42  1  0
M  CHG  3   3  -1   4  -1  25  -1
M  END
$$$$
