
     RDKit          3D

 36 39  0  0  0  0  0  0  0  0999 V2000
    1.5652    2.5529   -2.3804 C   0  0  0  0  0  0  0  0  0  0  0  0
    0.8658    2.5621   -1.1125 N   0  0  0  0  0  0  0  0  0  0  0  0
    0.4724    3.6571   -0.4705 C   0  0  0  0  0  0  0  0  0  0  0  0
   -0.1439    3.2569    0.6727 N   0  0  0  0  0  0  0  0  0  0  0  0
   -0.1144    1.9169    0.7061 C   0  0  0  0  0  0  0  0  0  0  0  0
   -0.6947    1.1269    1.7946 C   0  0  0  0  0  0  0  0  0  0  0  0
    0.0754    0.3140    2.5928 C   0  0  0  0  0  0  0  0  0  0  0  0
   -0.5370   -0.4015    3.5897 C   0  0  0  0  0  0  0  0  0  0  0  0
   -1.8951   -0.3174    3.7991 C   0  0  0  0  0  0  0  0  0  0  0  0
   -2.4989   -1.0191    4.7762 F   0  0  0  0  0  0  0  0  0  0  0  0
   -2.6687    0.5024    2.9939 C   0  0  0  0  0  0  0  0  0  0  0  0
   -4.4174    0.6217    3.2508 Cl  0  0  0  0  0  0  0  0  0  0  0  0
   -2.0569    1.2230    1.9908 C   0  0  0  0  0  0  0  0  0  0  0  0
    0.5280    1.4629   -0.4286 C   0  0  0  0  0  0  0  0  0  0  0  0
    0.7751    0.0742   -0.7725 C   0  0  0  0  0  0  0  0  0  0  0  0
    1.9305   -0.5181   -0.3099 C   0  0  0  0  0  0  0  0  0  0  0  0
    2.1884   -1.8350   -0.6180 C   0  0  0  0  0  0  0  0  0  0  0  0
    1.2755   -2.5552   -1.3957 C   0  0  0  0  0  0  0  0  0  0  0  0
    1.3017   -3.8350   -1.8237 N   0  0  0  0  0  0  0  0  0  0  0  0
    0.1975   -4.0888   -2.5490 C   0  0  0  0  0  0  0  0  0  0  0  0
   -0.5299   -2.9195   -2.5643 C   0  0  0  0  0  0  0  0  0  0  0  0
   -1.7983   -2.6682   -3.2075 C   0  0  0  0  0  0  0  0  0  0  0  0
   -2.8202   -2.4769   -3.7088 N   0  0  0  0  0  0  0  0  0  0  0  0
    0.1486   -1.9797   -1.8474 N   0  0  0  0  0  0  0  0  0  0  0  0
   -0.0854   -0.7001   -1.5388 C   0  0  0  0  0  0  0  0  0  0  0  0
    2.2746    3.4078   -2.3650 H   0  0  0  0  0  0  0  0  0  0  0  0
    2.1875    1.6437   -2.5108 H   0  0  0  0  0  0  0  0  0  0  0  0
    0.8575    2.7267   -3.1977 H   0  0  0  0  0  0  0  0  0  0  0  0
    0.5678    4.7103   -0.7116 H   0  0  0  0  0  0  0  0  0  0  0  0
    1.1386    0.2254    2.4567 H   0  0  0  0  0  0  0  0  0  0  0  0
    0.0181   -1.0717    4.2658 H   0  0  0  0  0  0  0  0  0  0  0  0
   -2.6998    1.8601    1.3762 H   0  0  0  0  0  0  0  0  0  0  0  0
    2.6215    0.0854    0.2986 H   0  0  0  0  0  0  0  0  0  0  0  0
    3.0839   -2.3057   -0.2640 H   0  0  0  0  0  0  0  0  0  0  0  0
   -0.1284   -4.9875   -3.0480 H   0  0  0  0  0  0  0  0  0  0  0  0
   -0.9844   -0.2507   -1.9037 H   0  0  0  0  0  0  0  0  0  0  0  0
  1  2  1  0
  2  3  1  0
  3  4  2  0
  4  5  1  0
  5  6  1  0
  6  7  2  0
  7  8  1  0
  8  9  2  0
  9 10  1  0
  9 11  1  0
 11 12  1  0
 11 13  2  0
  5 14  2  0
 14 15  1  0
 15 16  1  0
 16 17  2  0
 17 18  1  0
 18 19  2  0
 19 20  1  0
 20 21  2  0
 21 22  1  0
 22 23  3  0
 21 24  1  0
 24 25  1  0
 14  2  1  0
 25 15  2  0
 13  6  1  0
 24 18  1  0
  1 26  1  0
  1 27  1  0
  1 28  1  0
  3 29  1  0
  7 30  1  0
  8 31  1  0
 13 32  1  0
 16 33  1  0
 17 34  1  0
 20 35  1  0
 25 36  1  0
M  END
$$$$
