
     RDKit          3D

 50 54  0  0  0  0  0  0  0  0999 V2000
   -2.2609    1.4797   -0.8256 C   0  0  2  0  0  0  0  0  0  0  0  0
   -2.0753    0.9195   -2.1394 N   0  0  0  0  0  0  0  0  0  0  0  0
   -1.6874    0.5887    0.2427 C   0  0  0  0  0  0  0  0  0  0  0  0
   -0.3470    0.3213    0.1620 O   0  0  0  0  0  0  0  0  0  0  0  0
    0.7676    1.0756    0.2026 C   0  0  0  0  0  0  0  0  0  0  0  0
    1.0495    2.4150    0.3455 C   0  0  0  0  0  0  0  0  0  0  0  0
    2.2882    2.9329    0.3527 N   0  0  0  0  0  0  0  0  0  0  0  0
    3.3713    2.1219    0.2130 C   0  0  0  0  0  0  0  0  0  0  0  0
    3.1936    0.7631    0.0637 C   0  0  0  0  0  0  0  0  0  0  0  0
    1.8910    0.2442    0.0589 C   0  0  0  0  0  0  0  0  0  0  0  0
    4.3962   -0.0520   -0.0780 C   0  0  0  0  0  0  0  0  0  0  0  0
    5.5220    0.3892    0.5858 C   0  0  0  0  0  0  0  0  0  0  0  0
    6.6776   -0.3869    0.4570 C   0  0  0  0  0  0  0  0  0  0  0  0
    7.9578   -0.2349    0.9824 C   0  0  0  0  0  0  0  0  0  0  0  0
    8.7304   -1.2634    0.5609 N   0  0  0  0  0  0  0  0  0  0  0  0
    7.9764   -2.0498   -0.2079 N   0  0  0  0  0  0  0  0  0  0  0  0
    6.7377   -1.5624   -0.2980 C   0  0  0  0  0  0  0  0  0  0  0  0
    5.5647   -1.9270   -0.9269 C   0  0  0  0  0  0  0  0  0  0  0  0
    4.3859   -1.2106   -0.8451 C   0  0  0  0  0  0  0  0  0  0  0  0
   -3.7683    1.6612   -0.6244 C   0  0  0  0  0  0  0  0  0  0  0  0
   -4.4946    0.3545   -0.7209 C   0  0  0  0  0  0  0  0  0  0  0  0
   -5.2311   -0.2406    0.2473 C   0  0  0  0  0  0  0  0  0  0  0  0
   -5.4685    0.2457    1.5888 C   0  0  0  0  0  0  0  0  0  0  0  0
   -5.8212   -0.7877    2.3843 C   0  0  0  0  0  0  0  0  0  0  0  0
   -5.9687   -2.1469    1.8185 C   0  0  0  0  0  0  0  0  0  0  0  0
   -5.8575   -2.5511    0.5378 C   0  0  0  0  0  0  0  0  0  0  0  0
   -5.6064   -1.4961   -0.3975 C   0  0  0  0  0  0  0  0  0  0  0  0
   -5.0359   -1.6135   -1.6616 N   0  0  0  0  0  0  0  0  0  0  0  0
   -4.3642   -0.5006   -1.9038 C   0  0  0  0  0  0  0  0  0  0  0  0
   -1.7686    2.4639   -0.7643 H   0  0  0  0  0  0  0  0  0  0  0  0
   -1.7018    1.5913   -2.8430 H   0  0  0  0  0  0  0  0  0  0  0  0
   -1.6108   -0.0106   -2.1351 H   0  0  0  0  0  0  0  0  0  0  0  0
   -2.2304   -0.4018    0.1656 H   0  0  0  0  0  0  0  0  0  0  0  0
   -1.9368    0.9674    1.2592 H   0  0  0  0  0  0  0  0  0  0  0  0
    0.1597    3.0010    0.4573 H   0  0  0  0  0  0  0  0  0  0  0  0
    4.3154    2.6584    0.2347 H   0  0  0  0  0  0  0  0  0  0  0  0
    1.9181   -0.8310   -0.0668 H   0  0  0  0  0  0  0  0  0  0  0  0
    5.5320    1.2805    1.1767 H   0  0  0  0  0  0  0  0  0  0  0  0
    8.2650    0.5967    1.6326 H   0  0  0  0  0  0  0  0  0  0  0  0
    9.7362   -1.4036    0.8026 H   0  0  0  0  0  0  0  0  0  0  0  0
    5.6102   -2.8401   -1.5138 H   0  0  0  0  0  0  0  0  0  0  0  0
    3.4966   -1.5422   -1.3585 H   0  0  0  0  0  0  0  0  0  0  0  0
   -4.1604    2.3177   -1.4088 H   0  0  0  0  0  0  0  0  0  0  0  0
   -3.9579    2.1485    0.3562 H   0  0  0  0  0  0  0  0  0  0  0  0
   -5.3823    1.2550    1.9101 H   0  0  0  0  0  0  0  0  0  0  0  0
   -5.9941   -0.6078    3.4347 H   0  0  0  0  0  0  0  0  0  0  0  0
   -6.2008   -2.9034    2.5868 H   0  0  0  0  0  0  0  0  0  0  0  0
   -5.9689   -3.5941    0.3926 H   0  0  0  0  0  0  0  0  0  0  0  0
   -6.7690   -1.2196   -0.7787 H   0  0  0  0  0  0  0  0  0  0  0  0
   -3.8744   -0.4149   -2.8559 H   0  0  0  0  0  0  0  0  0  0  0  0
  1  2  1  0
  1  3  1  0
  3  4  1  0
  4  5  1  0
  5  6  2  0
  6  7  1  0
  7  8  2  0
  8  9  1  0
  9 10  2  0
  9 11  1  0
 11 12  2  0
 12 13  1  0
 13 14  2  0
 14 15  1  0
 15 16  1  0
 16 17  2  0
 17 18  1  0
 18 19  2  0
  1 20  1  0
 20 21  1  0
 21 22  2  0
 22 23  1  0
 23 24  2  0
 24 25  1  0
 25 26  2  0
 26 27  1  0
 27 28  1  0
 28 29  2  0
 10  5  1  0
 19 11  1  0
 29 21  1  0
 17 13  1  0
 27 22  1  0
  1 30  1  6
  2 31  1  0
  2 32  1  0
  3 33  1  0
  3 34  1  0
  6 35  1  0
  8 36  1  0
 10 37  1  0
 12 38  1  0
 14 39  1  0
 15 40  1  0
 18 41  1  0
 19 42  1  0
 20 43  1  0
 20 44  1  0
 23 45  1  0
 24 46  1  0
 25 47  1  0
 26 48  1  0
 27 49  1  0
 29 50  1  0
M  END
$$$$
