
     RDKit          3D

 70 73  0  0  0  0  0  0  0  0999 V2000
   -9.1498    0.9161    1.8952 C   0  0  0  0  0  0  0  0  0  0  0  0
   -7.9583    1.3181    1.0370 C   0  0  0  0  0  0  0  0  0  0  0  0
   -7.3599    0.2215    0.4115 N   0  0  0  0  0  0  0  0  0  0  0  0
   -6.8152    0.6291   -0.8730 C   0  0  0  0  0  0  0  0  0  0  0  0
   -7.1819   -0.3206   -1.9715 C   0  0  0  0  0  0  0  0  0  0  0  0
   -6.2716   -0.7734    1.2111 S   0  0  0  0  0  6  0  0  0  0  0  0
   -5.8755   -1.8396    0.1809 O   0  0  0  0  0  0  0  0  0  0  0  0
   -6.9475   -1.6350    2.2760 O   0  0  0  0  0  0  0  0  0  0  0  0
   -4.8180   -0.0671    1.7968 C   0  0  0  0  0  0  0  0  0  0  0  0
   -3.5900   -0.3183    1.1409 C   0  0  0  0  0  0  0  0  0  0  0  0
   -2.4069    0.2153    1.4865 C   0  0  0  0  0  0  0  0  0  0  0  0
   -1.1841   -0.0215    0.8448 N   0  0  0  0  0  0  0  0  0  0  0  0
   -0.9806   -0.8254   -0.2954 C   0  0  0  0  0  0  0  0  0  0  0  0
   -1.9617   -1.4749   -0.9232 N   0  0  0  0  0  0  0  0  0  0  0  0
   -1.7628   -2.2390   -2.0091 C   0  0  0  0  0  0  0  0  0  0  0  0
   -0.4480   -2.3374   -2.4798 C   0  0  0  0  0  0  0  0  0  0  0  0
    0.5864   -1.6924   -1.8718 C   0  0  0  0  0  0  0  0  0  0  0  0
    1.9482   -1.7786   -2.3400 C   0  0  0  0  0  0  0  0  0  0  0  0
    2.2480   -2.5350   -3.4408 C   0  0  0  0  0  0  0  0  0  0  0  0
    3.5869   -2.5798   -3.8480 C   0  0  0  0  0  0  0  0  0  0  0  0
    4.5665   -1.9228   -3.2128 N   0  0  0  0  0  0  0  0  0  0  0  0
    4.2911   -1.1609   -2.1109 C   0  0  0  0  0  0  0  0  0  0  0  0
    5.4061   -0.4693   -1.4646 C   0  0  0  0  0  0  0  0  0  0  0  0
    5.2102    0.3136   -0.3549 C   0  0  0  0  0  0  0  0  0  0  0  0
    6.1975    0.9919    0.3055 C   0  0  0  0  0  0  0  0  0  0  0  0
    7.5079    0.8879   -0.1761 C   0  0  0  0  0  0  0  0  0  0  0  0
    8.4811    1.6092    0.5455 N   0  0  0  0  0  0  0  0  0  0  0  0
    9.8470    1.6462    0.2405 C   0  0  0  0  0  0  0  0  0  0  0  0
   10.3264    1.0220   -0.7273 O   0  0  0  0  0  0  0  0  0  0  0  0
   10.7596    2.4309    1.0631 N   0  0  0  0  0  0  0  0  0  0  0  0
   12.1761    2.4708    0.7488 C   0  0  0  0  0  0  0  0  0  0  0  0
    7.7226    0.1107   -1.2830 C   0  0  0  0  0  0  0  0  0  0  0  0
    6.6856   -0.5720   -1.9366 C   0  0  0  0  0  0  0  0  0  0  0  0
    2.9969   -1.1152   -1.7140 C   0  0  0  0  0  0  0  0  0  0  0  0
    0.3019   -0.9483   -0.7910 N   0  0  0  0  0  0  0  0  0  0  0  0
   -2.4002    1.0848    2.5806 C   0  0  0  0  0  0  0  0  0  0  0  0
   -3.5805    1.3501    3.2426 C   0  0  0  0  0  0  0  0  0  0  0  0
   -4.7799    0.7790    2.8555 C   0  0  0  0  0  0  0  0  0  0  0  0
   -5.9396    1.1003    3.6628 C   0  0  0  0  0  0  0  0  0  0  0  0
   -9.3719    1.6539    2.6806 H   0  0  0  0  0  0  0  0  0  0  0  0
  -10.0680    0.7681    1.2905 H   0  0  0  0  0  0  0  0  0  0  0  0
   -8.9514   -0.0756    2.3855 H   0  0  0  0  0  0  0  0  0  0  0  0
   -8.4704    1.9060    0.1788 H   0  0  0  0  0  0  0  0  0  0  0  0
   -7.3238    2.0915    1.4844 H   0  0  0  0  0  0  0  0  0  0  0  0
   -7.2162    1.6447   -1.1502 H   0  0  0  0  0  0  0  0  0  0  0  0
   -5.6962    0.7288   -0.8116 H   0  0  0  0  0  0  0  0  0  0  0  0
   -7.9651    0.1213   -2.6375 H   0  0  0  0  0  0  0  0  0  0  0  0
   -6.2976   -0.5486   -2.5735 H   0  0  0  0  0  0  0  0  0  0  0  0
   -7.5851   -1.2749   -1.5571 H   0  0  0  0  0  0  0  0  0  0  0  0
   -3.6670   -0.9970    0.3091 H   0  0  0  0  0  0  0  0  0  0  0  0
   -0.2846    0.4455    1.2410 H   0  0  0  0  0  0  0  0  0  0  0  0
   -2.5842   -2.7554   -2.4975 H   0  0  0  0  0  0  0  0  0  0  0  0
   -0.3087   -2.9525   -3.3487 H   0  0  0  0  0  0  0  0  0  0  0  0
    1.5433   -3.1037   -4.0278 H   0  0  0  0  0  0  0  0  0  0  0  0
    3.8024   -3.1913   -4.7311 H   0  0  0  0  0  0  0  0  0  0  0  0
    4.1986    0.4244    0.0582 H   0  0  0  0  0  0  0  0  0  0  0  0
    5.9835    1.6077    1.1942 H   0  0  0  0  0  0  0  0  0  0  0  0
    8.1987    2.1914    1.4056 H   0  0  0  0  0  0  0  0  0  0  0  0
   10.3920    2.9640    1.8791 H   0  0  0  0  0  0  0  0  0  0  0  0
   12.3202    2.2271   -0.3223 H   0  0  0  0  0  0  0  0  0  0  0  0
   12.6575    1.6676    1.3465 H   0  0  0  0  0  0  0  0  0  0  0  0
   12.6154    3.4662    0.9632 H   0  0  0  0  0  0  0  0  0  0  0  0
    8.7136    0.0004   -1.6901 H   0  0  0  0  0  0  0  0  0  0  0  0
    6.8859   -1.1707   -2.7983 H   0  0  0  0  0  0  0  0  0  0  0  0
    2.7196   -0.5311   -0.8519 H   0  0  0  0  0  0  0  0  0  0  0  0
   -1.4596    1.5300    2.8805 H   0  0  0  0  0  0  0  0  0  0  0  0
   -3.5131    2.0337    4.0856 H   0  0  0  0  0  0  0  0  0  0  0  0
   -5.6267    0.9608    4.7431 H   0  0  0  0  0  0  0  0  0  0  0  0
   -6.2613    2.1609    3.6231 H   0  0  0  0  0  0  0  0  0  0  0  0
   -6.8137    0.4551    3.5467 H   0  0  0  0  0  0  0  0  0  0  0  0
  1  2  1  0
  2  3  1  0
  3  4  1  0
  4  5  1  0
  3  6  1  0
  6  7  2  0
  6  8  2  0
  6  9  1  0
  9 10  2  0
 10 11  1  0
 11 12  1  0
 12 13  1  0
 13 14  2  0
 14 15  1  0
 15 16  2  0
 16 17  1  0
 17 18  1  0
 18 19  2  0
 19 20  1  0
 20 21  2  0
 21 22  1  0
 22 23  1  0
 23 24  2  0
 24 25  1  0
 25 26  2  0
 26 27  1  0
 27 28  1  0
 28 29  2  0
 28 30  1  0
 30 31  1  0
 26 32  1  0
 32 33  2  0
 22 34  2  0
 17 35  2  0
 11 36  2  0
 36 37  1  0
 37 38  2  0
 38 39  1  0
 38  9  1  0
 35 13  1  0
 34 18  1  0
 33 23  1  0
  1 40  1  0
  1 41  1  0
  1 42  1  0
  2 43  1  0
  2 44  1  0
  4 45  1  0
  4 46  1  0
  5 47  1  0
  5 48  1  0
  5 49  1  0
 10 50  1  0
 12 51  1  0
 15 52  1  0
 16 53  1  0
 19 54  1  0
 20 55  1  0
 24 56  1  0
 25 57  1  0
 27 58  1  0
 30 59  1  0
 31 60  1  0
 31 61  1  0
 31 62  1  0
 32 63  1  0
 33 64  1  0
 34 65  1  0
 36 66  1  0
 37 67  1  0
 39 68  1  0
 39 69  1  0
 39 70  1  0
M  END
$$$$
