
     RDKit          3D

 58 61  0  0  0  0  0  0  0  0999 V2000
   -6.1642    2.4431   -1.5336 C   0  0  0  0  0  0  0  0  0  0  0  0
   -6.2024    1.1118   -1.7702 O   0  0  0  0  0  0  0  0  0  0  0  0
   -6.5108    0.2331   -0.8149 C   0  0  0  0  0  0  0  0  0  0  0  0
   -5.7205    0.0372    0.3957 C   0  0  2  0  0  0  0  0  0  0  0  0
   -5.7416    1.0816    1.4548 C   0  0  0  0  0  0  0  0  0  0  0  0
   -4.8736    0.3852    2.5251 C   0  0  0  0  0  0  0  0  0  0  0  0
   -4.0743   -0.6263    1.7417 C   0  0  0  0  0  0  0  0  0  0  0  0
   -4.3750   -0.3828    0.3168 N   0  0  0  0  0  0  0  0  0  0  0  0
   -3.2255    0.5887   -0.4122 S   0  0  0  0  0  6  0  0  0  0  0  0
   -2.9801    1.9115    0.1995 O   0  0  0  0  0  0  0  0  0  0  0  0
   -3.5431    0.6724   -1.9028 O   0  0  0  0  0  0  0  0  0  0  0  0
   -1.6703   -0.2749   -0.3046 C   0  0  0  0  0  0  0  0  0  0  0  0
   -0.8347   -0.0271    0.7444 C   0  0  0  0  0  0  0  0  0  0  0  0
    0.3612   -0.6985    0.8254 C   0  0  0  0  0  0  0  0  0  0  0  0
    0.7721   -1.6280   -0.1145 C   0  0  0  0  0  0  0  0  0  0  0  0
   -0.1136   -1.8403   -1.1567 C   0  0  0  0  0  0  0  0  0  0  0  0
   -1.3190   -1.1846   -1.2673 C   0  0  0  0  0  0  0  0  0  0  0  0
    0.5076   -2.8487   -2.0260 C   0  0  0  0  0  0  0  0  0  0  0  0
   -0.0147   -3.2867   -3.0732 O   0  0  0  0  0  0  0  0  0  0  0  0
    1.7981   -3.2330   -1.4666 C   0  0  0  0  0  0  0  0  0  0  0  0
    2.6006   -4.0619   -1.9343 O   0  0  0  0  0  0  0  0  0  0  0  0
    1.9270   -2.4439   -0.2666 N   0  0  0  0  0  0  0  0  0  0  0  0
    3.0684   -2.5219    0.5937 C   0  0  0  0  0  0  0  0  0  0  0  0
    4.0817   -1.5482    0.1325 C   0  0  0  0  0  0  0  0  0  0  0  0
    4.0770   -0.2698    0.6357 C   0  0  0  0  0  0  0  0  0  0  0  0
    5.0366    0.6513    0.1972 C   0  0  0  0  0  0  0  0  0  0  0  0
    5.9833    0.3192   -0.7188 C   0  0  0  0  0  0  0  0  0  0  0  0
    6.9696    1.1163   -1.2220 O   0  0  0  0  0  0  0  0  0  0  0  0
    7.2762    2.4254   -0.9213 C   0  0  0  0  0  0  0  0  0  0  0  0
    7.7324    2.6830    0.4898 C   0  0  0  0  0  0  0  0  0  0  0  0
    7.9864    4.0483    0.5756 F   0  0  0  0  0  0  0  0  0  0  0  0
    5.9484   -0.9994   -1.2054 C   0  0  0  0  0  0  0  0  0  0  0  0
    5.0290   -1.9123   -0.7978 C   0  0  0  0  0  0  0  0  0  0  0  0
   -7.1459    2.8274   -1.1496 H   0  0  0  0  0  0  0  0  0  0  0  0
   -6.1344    2.9298   -2.5781 H   0  0  0  0  0  0  0  0  0  0  0  0
   -5.2889    2.7528   -0.9750 H   0  0  0  0  0  0  0  0  0  0  0  0
   -6.6546   -0.7974   -1.2885 H   0  0  0  0  0  0  0  0  0  0  0  0
   -7.5867    0.4476   -0.4736 H   0  0  0  0  0  0  0  0  0  0  0  0
   -6.2395   -0.8689    0.9259 H   0  0  0  0  0  0  0  0  0  0  0  0
   -6.7690    1.2011    1.8744 H   0  0  0  0  0  0  0  0  0  0  0  0
   -5.3589    2.0618    1.2211 H   0  0  0  0  0  0  0  0  0  0  0  0
   -4.2390    1.1212    3.0510 H   0  0  0  0  0  0  0  0  0  0  0  0
   -5.5059   -0.1553    3.2529 H   0  0  0  0  0  0  0  0  0  0  0  0
   -4.4333   -1.6768    1.9591 H   0  0  0  0  0  0  0  0  0  0  0  0
   -3.0070   -0.6398    1.9539 H   0  0  0  0  0  0  0  0  0  0  0  0
   -1.0824    0.6949    1.5284 H   0  0  0  0  0  0  0  0  0  0  0  0
    1.0642   -0.5313    1.6540 H   0  0  0  0  0  0  0  0  0  0  0  0
   -1.9993   -1.3768   -2.1084 H   0  0  0  0  0  0  0  0  0  0  0  0
    3.5259   -3.5416    0.5322 H   0  0  0  0  0  0  0  0  0  0  0  0
    2.7881   -2.3374    1.6603 H   0  0  0  0  0  0  0  0  0  0  0  0
    3.3586    0.0726    1.3683 H   0  0  0  0  0  0  0  0  0  0  0  0
    5.0059    1.6674    0.5904 H   0  0  0  0  0  0  0  0  0  0  0  0
    6.4097    3.1268   -1.0830 H   0  0  0  0  0  0  0  0  0  0  0  0
    8.1166    2.7594   -1.5935 H   0  0  0  0  0  0  0  0  0  0  0  0
    6.9968    2.4663    1.2653 H   0  0  0  0  0  0  0  0  0  0  0  0
    8.6752    2.1133    0.6789 H   0  0  0  0  0  0  0  0  0  0  0  0
    6.6976   -1.3034   -1.9475 H   0  0  0  0  0  0  0  0  0  0  0  0
    5.0141   -2.9332   -1.1846 H   0  0  0  0  0  0  0  0  0  0  0  0
  1  2  1  0
  2  3  1  0
  3  4  1  0
  4  5  1  0
  5  6  1  0
  6  7  1  0
  7  8  1  0
  8  9  1  0
  9 10  2  0
  9 11  2  0
  9 12  1  0
 12 13  2  0
 13 14  1  0
 14 15  2  0
 15 16  1  0
 16 17  2  0
 16 18  1  0
 18 19  2  0
 18 20  1  0
 20 21  2  0
 20 22  1  0
 22 23  1  0
 23 24  1  0
 24 25  2  0
 25 26  1  0
 26 27  2  0
 27 28  1  0
 28 29  1  0
 29 30  1  0
 30 31  1  0
 27 32  1  0
 32 33  2  0
  8  4  1  0
 17 12  1  0
 33 24  1  0
 22 15  1  0
  1 34  1  0
  1 35  1  0
  1 36  1  0
  3 37  1  0
  3 38  1  0
  4 39  1  1
  5 40  1  0
  5 41  1  0
  6 42  1  0
  6 43  1  0
  7 44  1  0
  7 45  1  0
 13 46  1  0
 14 47  1  0
 17 48  1  0
 23 49  1  0
 23 50  1  0
 25 51  1  0
 26 52  1  0
 29 53  1  0
 29 54  1  0
 30 55  1  0
 30 56  1  0
 32 57  1  0
 33 58  1  0
M  END
$$$$
