
     RDKit          3D

 38 39  0  0  0  0  0  0  0  0999 V2000
    4.6232   -2.1644   -0.6098 C   0  0  0  0  0  0  0  0  0  0  0  0
    4.1104   -0.8756   -0.7358 O   0  0  0  0  0  0  0  0  0  0  0  0
    2.8725   -0.4640   -0.3110 C   0  0  0  0  0  0  0  0  0  0  0  0
    1.9567   -1.2702    0.3032 C   0  0  0  0  0  0  0  0  0  0  0  0
    0.7283   -0.8286    0.7160 C   0  0  0  0  0  0  0  0  0  0  0  0
    0.3924    0.4895    0.5065 C   0  0  0  0  0  0  0  0  0  0  0  0
   -0.8431    0.9619    0.9254 C   0  0  0  0  0  0  0  0  0  0  0  0
   -1.7576    0.0166    1.5745 C   0  0  0  0  0  0  0  0  0  0  0  0
   -1.5609   -0.3062    3.1602 S   0  0  0  0  0  0  0  0  0  0  0  0
   -2.8054   -0.6252    0.8714 N   0  0  0  0  0  0  0  0  0  0  0  0
   -3.6637   -1.5395    1.5696 C   0  0  0  0  0  0  0  0  0  0  0  0
   -2.9569   -0.3243   -0.5214 C   0  0  0  0  0  0  0  0  0  0  0  0
   -4.0540   -1.0106   -1.2114 C   0  0  0  0  0  0  0  0  0  0  0  0
   -4.7962   -1.8006   -0.6096 O   0  0  0  0  0  0  0  0  0  0  0  0
   -4.2625   -0.7712   -2.5557 O   0  0  0  0  0  0  0  0  0  0  0  0
   -1.2199    2.2719    0.7478 C   0  0  0  0  0  0  0  0  0  0  0  0
   -0.3484    3.1436    0.1372 C   0  0  0  0  0  0  0  0  0  0  0  0
    0.9056    2.6890   -0.2947 C   0  0  0  0  0  0  0  0  0  0  0  0
    1.2825    1.3767   -0.1180 C   0  0  0  0  0  0  0  0  0  0  0  0
    2.5137    0.8830   -0.5194 C   0  0  0  0  0  0  0  0  0  0  0  0
    3.5299    1.7206   -1.1823 C   0  0  0  0  0  0  0  0  0  0  0  0
    4.6253    1.7654   -0.3249 F   0  0  0  0  0  0  0  0  0  0  0  0
    3.1662    2.8650   -1.7392 F   0  0  0  0  0  0  0  0  0  0  0  0
    4.0421    0.9306   -2.2646 F   0  0  0  0  0  0  0  0  0  0  0  0
    5.4962   -2.2429   -1.3143 H   0  0  0  0  0  0  0  0  0  0  0  0
    3.8693   -2.8945   -0.9539 H   0  0  0  0  0  0  0  0  0  0  0  0
    5.0259   -2.3935    0.3904 H   0  0  0  0  0  0  0  0  0  0  0  0
    2.2607   -2.3090    0.4519 H   0  0  0  0  0  0  0  0  0  0  0  0
    0.0223   -1.4729    1.1951 H   0  0  0  0  0  0  0  0  0  0  0  0
   -3.6245   -2.5834    1.2094 H   0  0  0  0  0  0  0  0  0  0  0  0
   -4.7130   -1.1330    1.5933 H   0  0  0  0  0  0  0  0  0  0  0  0
   -3.3598   -1.6236    2.6579 H   0  0  0  0  0  0  0  0  0  0  0  0
   -3.0045    0.7986   -0.6920 H   0  0  0  0  0  0  0  0  0  0  0  0
   -2.0203   -0.6009   -1.1036 H   0  0  0  0  0  0  0  0  0  0  0  0
   -5.1794   -0.8274   -2.9799 H   0  0  0  0  0  0  0  0  0  0  0  0
   -2.1979    2.5649    1.1002 H   0  0  0  0  0  0  0  0  0  0  0  0
   -0.6241    4.1968   -0.0170 H   0  0  0  0  0  0  0  0  0  0  0  0
    1.5691    3.3872   -0.7533 H   0  0  0  0  0  0  0  0  0  0  0  0
  1  2  1  0
  2  3  1  0
  3  4  2  0
  4  5  1  0
  5  6  2  0
  6  7  1  0
  7  8  1  0
  8  9  2  0
  8 10  1  0
 10 11  1  0
 10 12  1  0
 12 13  1  0
 13 14  2  0
 13 15  1  0
  7 16  2  0
 16 17  1  0
 17 18  2  0
 18 19  1  0
 19 20  2  0
 20 21  1  0
 21 22  1  0
 21 23  1  0
 21 24  1  0
 20  3  1  0
 19  6  1  0
  1 25  1  0
  1 26  1  0
  1 27  1  0
  4 28  1  0
  5 29  1  0
 11 30  1  0
 11 31  1  0
 11 32  1  0
 12 33  1  0
 12 34  1  0
 15 35  1  0
 16 36  1  0
 17 37  1  0
 18 38  1  0
M  END
$$$$
