
     RDKit          3D

 39 42  0  0  0  0  0  0  0  0999 V2000
    7.1705    0.5220   -0.1900 O   0  0  0  0  0  0  0  0  0  0  0  0
    5.7744    0.3789   -0.1366 C   0  0  0  0  0  0  0  0  0  0  0  0
    5.1921   -0.8320    0.1949 C   0  0  0  0  0  0  0  0  0  0  0  0
    3.8042   -0.9293    0.2358 C   0  0  0  0  0  0  0  0  0  0  0  0
    3.0349    0.1583   -0.0481 C   0  0  0  0  0  0  0  0  0  0  0  0
    1.5834    0.0782   -0.0104 C   0  0  0  0  0  0  0  0  0  0  0  0
    0.7186    1.0704   -0.2696 N   0  0  0  0  0  0  0  0  0  0  0  0
   -0.5411    0.6116   -0.1317 C   0  0  0  0  0  0  0  0  0  0  0  0
   -1.7872    1.3174   -0.3103 C   0  0  0  0  0  0  0  0  0  0  0  0
   -2.1142    1.8703   -1.5248 C   0  0  0  0  0  0  0  0  0  0  0  0
   -3.3201    2.5549   -1.7035 C   0  0  0  0  0  0  0  0  0  0  0  0
   -4.1976    2.6811   -0.6527 C   0  0  0  0  0  0  0  0  0  0  0  0
   -5.3922    3.3443   -0.7829 F   0  0  0  0  0  0  0  0  0  0  0  0
   -3.8798    2.1295    0.5725 C   0  0  0  0  0  0  0  0  0  0  0  0
   -2.6725    1.4513    0.7287 C   0  0  0  0  0  0  0  0  0  0  0  0
   -0.4284   -0.7159    0.2263 C   0  0  0  0  0  0  0  0  0  0  0  0
   -1.5667   -1.5899    0.4764 C   0  0  0  0  0  0  0  0  0  0  0  0
   -2.4376   -1.8446   -0.5578 C   0  0  0  0  0  0  0  0  0  0  0  0
   -3.5469   -2.6700   -0.3876 C   0  0  0  0  0  0  0  0  0  0  0  0
   -3.7797   -3.2334    0.8062 N   0  0  0  0  0  0  0  0  0  0  0  0
   -2.9499   -3.0132    1.8585 C   0  0  0  0  0  0  0  0  0  0  0  0
   -1.8363   -2.1840    1.6859 C   0  0  0  0  0  0  0  0  0  0  0  0
    0.8789   -1.0181    0.2939 N   0  0  0  0  0  0  0  0  0  0  0  0
    3.6146    1.3630   -0.3779 C   0  0  0  0  0  0  0  0  0  0  0  0
    4.9847    1.4663   -0.4202 C   0  0  0  0  0  0  0  0  0  0  0  0
    7.7655   -0.2303   -0.4624 H   0  0  0  0  0  0  0  0  0  0  0  0
    5.7856   -1.6986    0.4212 H   0  0  0  0  0  0  0  0  0  0  0  0
    3.3666   -1.8852    0.4968 H   0  0  0  0  0  0  0  0  0  0  0  0
   -1.4505    1.7925   -2.3746 H   0  0  0  0  0  0  0  0  0  0  0  0
   -3.5893    2.9916   -2.6447 H   0  0  0  0  0  0  0  0  0  0  0  0
   -4.5140    2.1886    1.4326 H   0  0  0  0  0  0  0  0  0  0  0  0
   -2.4316    1.0218    1.6945 H   0  0  0  0  0  0  0  0  0  0  0  0
   -2.3023   -1.4179   -1.5466 H   0  0  0  0  0  0  0  0  0  0  0  0
   -4.2330   -2.8752   -1.1885 H   0  0  0  0  0  0  0  0  0  0  0  0
   -3.1726   -3.4846    2.8008 H   0  0  0  0  0  0  0  0  0  0  0  0
   -1.1794   -2.0111    2.5232 H   0  0  0  0  0  0  0  0  0  0  0  0
    1.2475   -1.9818    0.5507 H   0  0  0  0  0  0  0  0  0  0  0  0
    2.9671    2.2223   -0.6019 H   0  0  0  0  0  0  0  0  0  0  0  0
    5.4341    2.4011   -0.6761 H   0  0  0  0  0  0  0  0  0  0  0  0
  1  2  1  0
  2  3  2  0
  3  4  1  0
  4  5  2  0
  5  6  1  0
  6  7  2  0
  7  8  1  0
  8  9  1  0
  9 10  2  0
 10 11  1  0
 11 12  2  0
 12 13  1  0
 12 14  1  0
 14 15  2  0
  8 16  2  0
 16 17  1  0
 17 18  2  0
 18 19  1  0
 19 20  2  0
 20 21  1  0
 21 22  2  0
 16 23  1  0
  5 24  1  0
 24 25  2  0
 25  2  1  0
 23  6  1  0
 15  9  1  0
 22 17  1  0
  1 26  1  0
  3 27  1  0
  4 28  1  0
 10 29  1  0
 11 30  1  0
 14 31  1  0
 15 32  1  0
 18 33  1  0
 19 34  1  0
 21 35  1  0
 22 36  1  0
 23 37  1  0
 24 38  1  0
 25 39  1  0
M  END
$$$$
