
     RDKit          3D

 49 52  0  0  0  0  0  0  0  0999 V2000
   -3.8549   -1.1474   -1.8722 C   0  0  1  0  0  0  0  0  0  0  0  0
   -4.2806   -1.7077   -0.5325 C   0  0  0  0  0  0  0  0  0  0  0  0
   -5.0605   -0.7381    0.2404 N   0  0  0  0  0  0  0  0  0  0  0  0
   -4.1196    0.3321    0.4878 C   0  0  0  0  0  0  0  0  0  0  0  0
   -3.4613    0.6764   -0.8223 C   0  0  2  0  0  0  0  0  0  0  0  0
   -4.2695    0.1994   -1.8682 O   0  0  0  0  0  0  0  0  0  0  0  0
   -2.1838   -0.0737   -1.0060 C   0  0  1  0  0  0  0  0  0  0  0  0
   -2.4756   -0.9870   -1.9879 O   0  0  0  0  0  0  0  0  0  0  0  0
   -1.0209    0.7765   -1.3153 C   0  0  0  0  0  0  0  0  0  0  0  0
   -0.4639    0.5529   -2.4170 O   0  0  0  0  0  0  0  0  0  0  0  0
   -0.5950    1.7711   -0.3958 N   0  0  0  0  0  0  0  0  0  0  0  0
    0.5426    2.6562   -0.6155 C   0  0  0  0  0  0  0  0  0  0  0  0
    1.7686    1.8708   -0.3522 C   0  0  0  0  0  0  0  0  0  0  0  0
    2.2065    1.8605    0.9753 C   0  0  0  0  0  0  0  0  0  0  0  0
    3.3439    1.1638    1.3263 C   0  0  0  0  0  0  0  0  0  0  0  0
    4.0802    0.4570    0.3725 C   0  0  0  0  0  0  0  0  0  0  0  0
    3.6616    0.4561   -0.9465 C   0  0  0  0  0  0  0  0  0  0  0  0
    2.5220    1.1627   -1.2603 C   0  0  0  0  0  0  0  0  0  0  0  0
    5.2925   -0.3021    0.6577 C   0  0  0  0  0  0  0  0  0  0  0  0
    5.5968   -1.4406   -0.0935 C   0  0  0  0  0  0  0  0  0  0  0  0
    6.7259   -2.2047    0.1194 C   0  0  0  0  0  0  0  0  0  0  0  0
    7.6109   -1.8466    1.1161 C   0  0  0  0  0  0  0  0  0  0  0  0
    7.3261   -0.7128    1.8784 C   0  0  0  0  0  0  0  0  0  0  0  0
    6.1926    0.0391    1.6514 C   0  0  0  0  0  0  0  0  0  0  0  0
   -6.3759   -0.5465    0.7833 C   0  0  0  0  0  0  0  0  0  0  0  0
   -6.7446    0.4810    1.4458 O   0  0  0  0  0  0  0  0  0  0  0  0
   -7.4302   -1.5030    0.6370 N   0  0  0  0  0  0  0  0  0  0  0  0
   -8.5484   -1.0340    1.2591 O   0  0  0  0  0  0  0  0  0  0  0  0
   -4.3005   -1.6835   -2.7265 H   0  0  0  0  0  0  0  0  0  0  0  0
   -4.9050   -2.6048   -0.7363 H   0  0  0  0  0  0  0  0  0  0  0  0
   -3.4259   -2.0981    0.0709 H   0  0  0  0  0  0  0  0  0  0  0  0
   -4.5678    1.2240    0.9687 H   0  0  0  0  0  0  0  0  0  0  0  0
   -3.2844   -0.0554    1.1430 H   0  0  0  0  0  0  0  0  0  0  0  0
   -3.3828    1.7614   -0.9085 H   0  0  0  0  0  0  0  0  0  0  0  0
   -1.9473   -0.6344   -0.0784 H   0  0  0  0  0  0  0  0  0  0  0  0
   -1.1660    1.8464    0.4997 H   0  0  0  0  0  0  0  0  0  0  0  0
    0.4511    3.4876    0.1105 H   0  0  0  0  0  0  0  0  0  0  0  0
    0.5266    3.0593   -1.6549 H   0  0  0  0  0  0  0  0  0  0  0  0
    1.6813    2.3873    1.7644 H   0  0  0  0  0  0  0  0  0  0  0  0
    3.7239    1.1246    2.3393 H   0  0  0  0  0  0  0  0  0  0  0  0
    4.1645   -0.0562   -1.7355 H   0  0  0  0  0  0  0  0  0  0  0  0
    2.1800    1.1795   -2.2827 H   0  0  0  0  0  0  0  0  0  0  0  0
    4.9257   -1.7569   -0.8870 H   0  0  0  0  0  0  0  0  0  0  0  0
    6.9499   -3.0790   -0.4659 H   0  0  0  0  0  0  0  0  0  0  0  0
    8.5109   -2.4185    1.3159 H   0  0  0  0  0  0  0  0  0  0  0  0
    7.9873   -0.3894    2.6706 H   0  0  0  0  0  0  0  0  0  0  0  0
    5.9332    0.9325    2.2253 H   0  0  0  0  0  0  0  0  0  0  0  0
   -7.2313   -2.3810    0.1093 H   0  0  0  0  0  0  0  0  0  0  0  0
   -8.8090   -0.1844    0.7926 H   0  0  0  0  0  0  0  0  0  0  0  0
  1  2  1  0
  2  3  1  0
  3  4  1  0
  4  5  1  0
  5  6  1  0
  5  7  1  0
  7  8  1  0
  7  9  1  0
  9 10  2  0
  9 11  1  0
 11 12  1  0
 12 13  1  0
 13 14  2  0
 14 15  1  0
 15 16  2  0
 16 17  1  0
 17 18  2  0
 16 19  1  0
 19 20  2  0
 20 21  1  0
 21 22  2  0
 22 23  1  0
 23 24  2  0
  3 25  1  0
 25 26  2  0
 25 27  1  0
 27 28  1  0
  6  1  1  0
 18 13  1  0
 24 19  1  0
  8  1  1  0
  1 29  1  6
  2 30  1  0
  2 31  1  0
  4 32  1  0
  4 33  1  0
  5 34  1  6
  7 35  1  1
 11 36  1  0
 12 37  1  0
 12 38  1  0
 14 39  1  0
 15 40  1  0
 17 41  1  0
 18 42  1  0
 20 43  1  0
 21 44  1  0
 22 45  1  0
 23 46  1  0
 24 47  1  0
 27 48  1  0
 28 49  1  0
M  END
$$$$
