
     RDKit          3D

 70 76  0  0  0  0  0  0  0  0999 V2000
   -0.3934   -2.9521   -2.0807 O   0  0  0  0  0  0  0  0  0  0  0  0
    0.1278   -2.1102   -1.2996 C   0  0  0  0  0  0  0  0  0  0  0  0
    1.4415   -2.3432   -0.7759 C   0  0  0  0  0  0  0  0  0  0  0  0
    2.1539   -3.3755   -1.1381 O   0  0  0  0  0  0  0  0  0  0  0  0
    3.3135   -3.3810   -0.5309 C   0  0  0  0  0  0  0  0  0  0  0  0
    4.3860   -4.3684   -0.6686 C   0  0  0  0  0  0  0  0  0  0  0  0
    5.5678   -4.2658    0.0222 C   0  0  0  0  0  0  0  0  0  0  0  0
    6.5657   -5.2214   -0.1152 C   0  0  0  0  0  0  0  0  0  0  0  0
    6.3789   -6.2883   -0.9510 C   0  0  0  0  0  0  0  0  0  0  0  0
    7.6247   -7.5098   -1.1343 Cl  0  0  0  0  0  0  0  0  0  0  0  0
    5.1937   -6.4203   -1.6637 C   0  0  0  0  0  0  0  0  0  0  0  0
    4.2073   -5.4447   -1.5065 C   0  0  0  0  0  0  0  0  0  0  0  0
    3.3549   -2.2606    0.2901 C   0  0  0  0  0  0  0  0  0  0  0  0
    2.1411   -1.5792    0.1381 C   0  0  0  0  0  0  0  0  0  0  0  0
    1.8432   -0.3589    0.8735 C   0  0  0  0  0  0  0  0  0  0  0  0
    0.8497    0.5577    0.3082 C   0  0  0  0  0  0  0  0  0  0  0  0
    1.1308    1.8739    0.7119 C   0  0  0  0  0  0  0  0  0  0  0  0
    0.3290    2.9168    0.3204 C   0  0  0  0  0  0  0  0  0  0  0  0
    0.6386    4.2385    0.7510 N   0  0  0  0  0  0  0  0  0  0  0  0
    1.8313    4.4711    1.5600 C   0  0  0  0  0  0  0  0  0  0  0  0
    1.7357    5.8299    2.2310 C   0  0  0  0  0  0  0  0  0  0  0  0
    1.5929    6.9002    1.2980 N   0  0  0  0  0  0  0  0  0  0  0  0
    0.8185    6.5373    0.1359 C   0  0  0  0  0  0  0  0  0  0  0  0
   -0.1478    5.4115    0.4571 C   0  0  0  0  0  0  0  0  0  0  0  0
   -0.7443    2.6262   -0.4729 C   0  0  0  0  0  0  0  0  0  0  0  0
   -1.0442    1.3439   -0.8858 C   0  0  0  0  0  0  0  0  0  0  0  0
   -0.2565    0.2811   -0.5055 C   0  0  0  0  0  0  0  0  0  0  0  0
   -0.7156   -0.9583   -1.0193 N   0  0  0  0  0  0  0  0  0  0  0  0
   -2.1028   -1.1458   -1.2920 C   0  0  0  0  0  0  0  0  0  0  0  0
   -2.7978   -1.6517   -0.0456 C   0  0  0  0  0  0  0  0  0  0  0  0
   -2.1157   -2.4847    0.8301 C   0  0  0  0  0  0  0  0  0  0  0  0
   -2.7932   -2.8887    1.9671 C   0  0  0  0  0  0  0  0  0  0  0  0
   -4.0903   -2.4994    2.2483 C   0  0  0  0  0  0  0  0  0  0  0  0
   -4.7113   -1.6742    1.3412 C   0  0  0  0  0  0  0  0  0  0  0  0
   -4.0872   -1.2270    0.1707 C   0  0  0  0  0  0  0  0  0  0  0  0
   -4.8531   -0.3875   -0.7577 C   0  0  0  0  0  0  0  0  0  0  0  0
   -5.4680    0.7334   -0.2074 C   0  0  0  0  0  0  0  0  0  0  0  0
   -6.2362    1.5989   -0.9719 C   0  0  0  0  0  0  0  0  0  0  0  0
   -6.3517    1.2714   -2.3255 C   0  0  0  0  0  0  0  0  0  0  0  0
   -5.7583    0.1911   -2.8532 N   0  0  0  0  0  0  0  0  0  0  0  0
   -5.0212   -0.6232   -2.0791 C   0  0  0  0  0  0  0  0  0  0  0  0
    5.7246   -3.4174    0.6901 H   0  0  0  0  0  0  0  0  0  0  0  0
    7.4860   -5.1371    0.4287 H   0  0  0  0  0  0  0  0  0  0  0  0
    5.0539   -7.2786   -2.3292 H   0  0  0  0  0  0  0  0  0  0  0  0
    3.2741   -5.5183   -2.0487 H   0  0  0  0  0  0  0  0  0  0  0  0
    4.1854   -1.9678    0.9344 H   0  0  0  0  0  0  0  0  0  0  0  0
    1.6204   -0.5918    1.9595 H   0  0  0  0  0  0  0  0  0  0  0  0
    2.8174    0.2139    0.9356 H   0  0  0  0  0  0  0  0  0  0  0  0
    2.0096    2.0065    1.3424 H   0  0  0  0  0  0  0  0  0  0  0  0
    2.6920    4.5044    0.8556 H   0  0  0  0  0  0  0  0  0  0  0  0
    1.9597    3.7434    2.3674 H   0  0  0  0  0  0  0  0  0  0  0  0
    2.6517    6.0280    2.8497 H   0  0  0  0  0  0  0  0  0  0  0  0
    0.8700    5.8328    2.9466 H   0  0  0  0  0  0  0  0  0  0  0  0
    1.3444    7.8046    1.7008 H   0  0  0  0  0  0  0  0  0  0  0  0
    1.5068    6.2911   -0.6877 H   0  0  0  0  0  0  0  0  0  0  0  0
    0.2913    7.4648   -0.1806 H   0  0  0  0  0  0  0  0  0  0  0  0
   -0.6715    5.7147    1.4034 H   0  0  0  0  0  0  0  0  0  0  0  0
   -0.8245    5.2602   -0.3767 H   0  0  0  0  0  0  0  0  0  0  0  0
   -1.4015    3.4105   -0.8045 H   0  0  0  0  0  0  0  0  0  0  0  0
   -1.8835    1.1731   -1.5115 H   0  0  0  0  0  0  0  0  0  0  0  0
   -2.2101   -2.0262   -2.0082 H   0  0  0  0  0  0  0  0  0  0  0  0
   -2.6897   -0.3029   -1.6415 H   0  0  0  0  0  0  0  0  0  0  0  0
   -1.0937   -2.8088    0.6388 H   0  0  0  0  0  0  0  0  0  0  0  0
   -2.2761   -3.5357    2.6589 H   0  0  0  0  0  0  0  0  0  0  0  0
   -4.6452   -2.7982    3.1231 H   0  0  0  0  0  0  0  0  0  0  0  0
   -5.7345   -1.3383    1.5113 H   0  0  0  0  0  0  0  0  0  0  0  0
   -5.3795    0.9841    0.8511 H   0  0  0  0  0  0  0  0  0  0  0  0
   -6.7215    2.4746   -0.5622 H   0  0  0  0  0  0  0  0  0  0  0  0
   -6.9591    1.9682   -2.9000 H   0  0  0  0  0  0  0  0  0  0  0  0
   -4.5346   -1.5170   -2.5092 H   0  0  0  0  0  0  0  0  0  0  0  0
  1  2  2  0
  2  3  1  0
  3  4  1  0
  4  5  1  0
  5  6  1  0
  6  7  2  0
  7  8  1  0
  8  9  2  0
  9 10  1  0
  9 11  1  0
 11 12  2  0
  5 13  2  0
 13 14  1  0
 14 15  1  0
 15 16  1  0
 16 17  2  0
 17 18  1  0
 18 19  1  0
 19 20  1  0
 20 21  1  0
 21 22  1  0
 22 23  1  0
 23 24  1  0
 18 25  2  0
 25 26  1  0
 26 27  2  0
 27 28  1  0
 28 29  1  0
 29 30  1  0
 30 31  2  0
 31 32  1  0
 32 33  2  0
 33 34  1  0
 34 35  2  0
 35 36  1  0
 36 37  2  0
 37 38  1  0
 38 39  2  0
 39 40  1  0
 40 41  2  0
 28  2  1  0
 35 30  1  0
 41 36  1  0
 14  3  2  0
 27 16  1  0
 12  6  1  0
 24 19  1  0
  7 42  1  0
  8 43  1  0
 11 44  1  0
 12 45  1  0
 13 46  1  0
 15 47  1  0
 15 48  1  0
 17 49  1  0
 20 50  1  0
 20 51  1  0
 21 52  1  0
 21 53  1  0
 22 54  1  0
 23 55  1  0
 23 56  1  0
 24 57  1  0
 24 58  1  0
 25 59  1  0
 26 60  1  0
 29 61  1  0
 29 62  1  0
 31 63  1  0
 32 64  1  0
 33 65  1  0
 34 66  1  0
 37 67  1  0
 38 68  1  0
 39 69  1  0
 41 70  1  0
M  END
$$$$
