
     RDKit          3D

 41 44  0  0  0  0  0  0  0  0999 V2000
   -6.4112   -0.7943   -1.0117 C   0  0  0  0  0  0  0  0  0  0  0  0
   -5.2505   -0.1373   -1.6734 C   0  0  0  0  0  0  0  0  0  0  0  0
   -4.0548   -0.1275   -0.9907 O   0  0  0  0  0  0  0  0  0  0  0  0
   -3.7462    0.4772    0.1997 C   0  0  0  0  0  0  0  0  0  0  0  0
   -4.6291    1.2408    0.9380 C   0  0  0  0  0  0  0  0  0  0  0  0
   -4.2215    1.8158    2.1318 C   0  0  0  0  0  0  0  0  0  0  0  0
   -2.9405    1.6287    2.5836 C   0  0  0  0  0  0  0  0  0  0  0  0
   -2.0691    0.8670    1.8408 C   0  0  0  0  0  0  0  0  0  0  0  0
   -2.4292    0.2781    0.6525 C   0  0  0  0  0  0  0  0  0  0  0  0
   -1.5607   -0.5171   -0.1307 N   0  0  0  0  0  0  0  0  0  0  0  0
   -0.2189   -0.7274    0.2865 C   0  0  0  0  0  0  0  0  0  0  0  0
    0.8110   -0.0917   -0.4086 C   0  0  0  0  0  0  0  0  0  0  0  0
    2.1412   -0.2464   -0.0736 C   0  0  0  0  0  0  0  0  0  0  0  0
    3.2921    0.2428   -0.5894 N   0  0  0  0  0  0  0  0  0  0  0  0
    4.3561   -0.2340    0.1112 C   0  0  0  0  0  0  0  0  0  0  0  0
    5.7629    0.0396   -0.1268 C   0  0  0  0  0  0  0  0  0  0  0  0
    6.2993    0.8624   -1.0857 C   0  0  0  0  0  0  0  0  0  0  0  0
    7.6510    0.8096   -0.9724 N   0  0  0  0  0  0  0  0  0  0  0  0
    7.9913   -0.0073    0.0127 N   0  0  0  0  0  0  0  0  0  0  0  0
    6.8362   -0.4912    0.5460 C   0  0  0  0  0  0  0  0  0  0  0  0
    3.8062   -1.0381    1.0846 C   0  0  0  0  0  0  0  0  0  0  0  0
    2.4341   -1.0765    1.0079 C   0  0  0  0  0  0  0  0  0  0  0  0
    1.4129   -1.6991    1.6895 C   0  0  0  0  0  0  0  0  0  0  0  0
    0.1352   -1.5175    1.3246 N   0  0  0  0  0  0  0  0  0  0  0  0
   -6.6040   -0.5850    0.0275 H   0  0  0  0  0  0  0  0  0  0  0  0
   -6.3666   -1.9086   -1.1138 H   0  0  0  0  0  0  0  0  0  0  0  0
   -7.3276   -0.5149   -1.6027 H   0  0  0  0  0  0  0  0  0  0  0  0
   -5.0827   -0.7142   -2.6349 H   0  0  0  0  0  0  0  0  0  0  0  0
   -5.5706    0.9164   -1.9564 H   0  0  0  0  0  0  0  0  0  0  0  0
   -5.6394    1.4136    0.5935 H   0  0  0  0  0  0  0  0  0  0  0  0
   -4.9350    2.4122    2.6929 H   0  0  0  0  0  0  0  0  0  0  0  0
   -2.6114    2.0680    3.5104 H   0  0  0  0  0  0  0  0  0  0  0  0
   -1.0333    0.6971    2.1816 H   0  0  0  0  0  0  0  0  0  0  0  0
   -1.8785   -0.9645   -1.0207 H   0  0  0  0  0  0  0  0  0  0  0  0
    0.5898    0.5604   -1.2621 H   0  0  0  0  0  0  0  0  0  0  0  0
    3.4015    0.8892   -1.4039 H   0  0  0  0  0  0  0  0  0  0  0  0
    5.8046    1.4714   -1.8264 H   0  0  0  0  0  0  0  0  0  0  0  0
    8.9765   -0.2006    0.2766 H   0  0  0  0  0  0  0  0  0  0  0  0
    6.8253   -1.1831    1.3715 H   0  0  0  0  0  0  0  0  0  0  0  0
    4.4070   -1.5777    1.8257 H   0  0  0  0  0  0  0  0  0  0  0  0
    1.6468   -2.3361    2.5207 H   0  0  0  0  0  0  0  0  0  0  0  0
  1  2  1  0
  2  3  1  0
  3  4  1  0
  4  5  2  0
  5  6  1  0
  6  7  2  0
  7  8  1  0
  8  9  2  0
  9 10  1  0
 10 11  1  0
 11 12  2  0
 12 13  1  0
 13 14  1  0
 14 15  1  0
 15 16  1  0
 16 17  1  0
 17 18  2  0
 18 19  1  0
 19 20  1  0
 15 21  2  0
 21 22  1  0
 22 23  1  0
 23 24  2  0
  9  4  1  0
 24 11  1  0
 22 13  2  0
 20 16  2  0
  1 25  1  0
  1 26  1  0
  1 27  1  0
  2 28  1  0
  2 29  1  0
  5 30  1  0
  6 31  1  0
  7 32  1  0
  8 33  1  0
 10 34  1  0
 12 35  1  0
 14 36  1  0
 17 37  1  0
 19 38  1  0
 20 39  1  0
 21 40  1  0
 23 41  1  0
M  END
$$$$
