
     RDKit          3D

 57 61  0  0  0  0  0  0  0  0999 V2000
   -6.0526   -3.7183    0.3009 C   0  0  0  0  0  0  0  0  0  0  0  0
   -5.2823   -3.4509   -0.8182 O   0  0  0  0  0  0  0  0  0  0  0  0
   -5.5732   -2.2257   -1.3583 C   0  0  0  0  0  0  0  0  0  0  0  0
   -5.3391   -1.0651   -0.4272 C   0  0  0  0  0  0  0  0  0  0  0  0
   -5.6762    0.2289   -1.1009 C   0  0  0  0  0  0  0  0  0  0  0  0
   -4.8734    1.3952   -0.6702 C   0  0  0  0  0  0  0  0  0  0  0  0
   -3.4927    1.1231   -0.3216 N   0  0  0  0  0  0  0  0  0  0  0  0
   -2.7785    2.2072    0.2370 C   0  0  0  0  0  0  0  0  0  0  0  0
   -3.4860    3.2191    0.8560 N   0  0  0  0  0  0  0  0  0  0  0  0
   -2.8891    4.2598    1.4392 C   0  0  0  0  0  0  0  0  0  0  0  0
   -1.5048    4.3102    1.4132 C   0  0  0  0  0  0  0  0  0  0  0  0
   -0.8053    3.3337    0.8147 N   0  0  0  0  0  0  0  0  0  0  0  0
   -1.4186    2.2601    0.2119 C   0  0  0  0  0  0  0  0  0  0  0  0
   -0.6574    1.2828   -0.3952 O   0  0  0  0  0  0  0  0  0  0  0  0
    0.7420    1.3549   -0.3963 C   0  0  0  0  0  0  0  0  0  0  0  0
    1.4962    0.7698    0.5957 C   0  0  0  0  0  0  0  0  0  0  0  0
    2.8867    0.8432    0.5942 C   0  0  0  0  0  0  0  0  0  0  0  0
    3.5724    1.4965   -0.3881 C   0  0  0  0  0  0  0  0  0  0  0  0
    4.9796    1.6098   -0.4914 N   0  0  0  0  0  0  0  0  0  0  0  0
    5.8492    0.5385   -0.0503 C   0  0  0  0  0  0  0  0  0  0  0  0
    6.9830    0.2726    0.1165 N   0  0  0  0  0  0  0  0  0  0  0  0
    7.5225   -0.8478    0.5168 C   0  0  0  0  0  0  0  0  0  0  0  0
    8.8730   -1.1465    0.7108 C   0  0  0  0  0  0  0  0  0  0  0  0
    9.2432   -2.3943    1.1411 C   0  0  0  0  0  0  0  0  0  0  0  0
    8.3766   -3.4035    1.4049 C   0  0  0  0  0  0  0  0  0  0  0  0
    7.0296   -3.1326    1.2198 C   0  0  0  0  0  0  0  0  0  0  0  0
    6.6414   -1.8625    0.7810 C   0  0  0  0  0  0  0  0  0  0  0  0
    5.0716   -1.1182    0.4284 S   0  0  0  0  0  0  0  0  0  0  0  0
    2.8079    2.0925   -1.3977 C   0  0  0  0  0  0  0  0  0  0  0  0
    1.4309    2.0183   -1.3934 C   0  0  0  0  0  0  0  0  0  0  0  0
   -2.9790   -0.1866   -0.5363 C   0  0  0  0  0  0  0  0  0  0  0  0
   -3.9749   -1.1496    0.1289 C   0  0  0  0  0  0  0  0  0  0  0  0
   -5.8024   -4.7516    0.6971 H   0  0  0  0  0  0  0  0  0  0  0  0
   -5.7534   -3.0145    1.1361 H   0  0  0  0  0  0  0  0  0  0  0  0
   -7.1266   -3.6368    0.1374 H   0  0  0  0  0  0  0  0  0  0  0  0
   -4.9805   -2.0818   -2.2909 H   0  0  0  0  0  0  0  0  0  0  0  0
   -6.6684   -2.1742   -1.6461 H   0  0  0  0  0  0  0  0  0  0  0  0
   -6.0660   -1.2045    0.4307 H   0  0  0  0  0  0  0  0  0  0  0  0
   -5.5614    0.0900   -2.1962 H   0  0  0  0  0  0  0  0  0  0  0  0
   -6.7507    0.4506   -0.9306 H   0  0  0  0  0  0  0  0  0  0  0  0
   -4.8203    2.1640   -1.4962 H   0  0  0  0  0  0  0  0  0  0  0  0
   -5.3166    1.9341    0.1908 H   0  0  0  0  0  0  0  0  0  0  0  0
   -3.4487    5.0478    1.9228 H   0  0  0  0  0  0  0  0  0  0  0  0
   -1.0357    5.1573    1.8896 H   0  0  0  0  0  0  0  0  0  0  0  0
    0.9595    0.2500    1.3762 H   0  0  0  0  0  0  0  0  0  0  0  0
    3.4084    0.3749    1.4128 H   0  0  0  0  0  0  0  0  0  0  0  0
    5.4394    2.4690   -0.8899 H   0  0  0  0  0  0  0  0  0  0  0  0
    9.6656   -0.4223    0.5335 H   0  0  0  0  0  0  0  0  0  0  0  0
   10.3021   -2.5931    1.2822 H   0  0  0  0  0  0  0  0  0  0  0  0
    8.6927   -4.3560    1.7366 H   0  0  0  0  0  0  0  0  0  0  0  0
    6.2465   -3.8520    1.3954 H   0  0  0  0  0  0  0  0  0  0  0  0
    3.3274    2.6211   -2.1928 H   0  0  0  0  0  0  0  0  0  0  0  0
    0.8699    2.4870   -2.1848 H   0  0  0  0  0  0  0  0  0  0  0  0
   -2.0284   -0.3215    0.0421 H   0  0  0  0  0  0  0  0  0  0  0  0
   -2.8480   -0.4347   -1.6111 H   0  0  0  0  0  0  0  0  0  0  0  0
   -3.8969   -0.9495    1.2009 H   0  0  0  0  0  0  0  0  0  0  0  0
   -3.5300   -2.1685   -0.0816 H   0  0  0  0  0  0  0  0  0  0  0  0
  1  2  1  0
  2  3  1  0
  3  4  1  0
  4  5  1  0
  5  6  1  0
  6  7  1  0
  7  8  1  0
  8  9  2  0
  9 10  1  0
 10 11  2  0
 11 12  1  0
 12 13  2  0
 13 14  1  0
 14 15  1  0
 15 16  2  0
 16 17  1  0
 17 18  2  0
 18 19  1  0
 19 20  1  0
 20 21  2  0
 21 22  1  0
 22 23  2  0
 23 24  1  0
 24 25  2  0
 25 26  1  0
 26 27  2  0
 27 28  1  0
 18 29  1  0
 29 30  2  0
  7 31  1  0
 31 32  1  0
 32  4  1  0
 13  8  1  0
 30 15  1  0
 28 20  1  0
 27 22  1  0
  1 33  1  0
  1 34  1  0
  1 35  1  0
  3 36  1  0
  3 37  1  0
  4 38  1  0
  5 39  1  0
  5 40  1  0
  6 41  1  0
  6 42  1  0
 10 43  1  0
 11 44  1  0
 16 45  1  0
 17 46  1  0
 19 47  1  0
 23 48  1  0
 24 49  1  0
 25 50  1  0
 26 51  1  0
 29 52  1  0
 30 53  1  0
 31 54  1  0
 31 55  1  0
 32 56  1  0
 32 57  1  0
M  END
$$$$
