
     RDKit          3D

 58 61  0  0  0  0  0  0  0  0999 V2000
   -3.8482   -1.9857    0.5511 C   0  0  2  0  0  0  0  0  0  0  0  0
   -2.9720   -1.8840   -0.6697 C   0  0  0  0  0  0  0  0  0  0  0  0
   -2.6232   -0.4465   -0.9482 C   0  0  1  0  0  0  0  0  0  0  0  0
   -3.9368    0.2931   -1.1790 C   0  0  0  0  0  0  0  0  0  0  0  0
   -4.7319    0.2315    0.0947 C   0  0  1  0  0  0  0  0  0  0  0  0
   -5.1238   -1.2141    0.3689 C   0  0  0  0  0  0  0  0  0  0  0  0
   -3.9869    0.7332    1.2885 C   0  0  0  0  0  0  0  0  0  0  0  0
   -2.6562   -0.0102    1.4407 C   0  0  1  0  0  0  0  0  0  0  0  0
   -3.0126   -1.4354    1.7094 C   0  0  0  0  0  0  0  0  0  0  0  0
   -1.9187    0.2437    0.1798 C   0  0  1  0  0  0  0  0  0  0  0  0
   -0.5250    0.0016    0.1535 N   0  0  0  0  0  0  0  0  0  0  0  0
    0.4035    1.0350   -0.1029 C   0  0  0  0  0  0  0  0  0  0  0  0
    0.0251    2.2355   -0.3228 O   0  0  0  0  0  0  0  0  0  0  0  0
    1.8823    1.0804   -0.1912 C   0  0  0  0  0  0  0  0  0  0  0  0
    2.3741    2.0391    0.8721 C   0  0  0  0  0  0  0  0  0  0  0  0
    2.3532    1.6060   -1.5300 C   0  0  0  0  0  0  0  0  0  0  0  0
    2.4797   -0.1617    0.0252 O   0  0  0  0  0  0  0  0  0  0  0  0
    3.8344   -0.4223    0.0093 C   0  0  0  0  0  0  0  0  0  0  0  0
    4.9296    0.3876   -0.2023 C   0  0  0  0  0  0  0  0  0  0  0  0
    6.1974   -0.1352   -0.1632 C   0  0  0  0  0  0  0  0  0  0  0  0
    6.4028   -1.4696    0.0864 C   0  0  0  0  0  0  0  0  0  0  0  0
    7.7005   -1.9412    0.1141 O   0  0  0  0  0  0  0  0  0  0  0  0
    8.7601   -1.0572   -0.1103 C   0  0  0  0  0  0  0  0  0  0  0  0
    5.3406   -2.3180    0.3039 C   0  0  0  0  0  0  0  0  0  0  0  0
    4.0505   -1.7811    0.2631 C   0  0  0  0  0  0  0  0  0  0  0  0
   -5.9635    1.0208   -0.0825 C   0  0  0  0  0  0  0  0  0  0  0  0
   -6.8079    0.5489   -1.1518 N   0  0  0  0  0  0  0  0  0  0  0  0
   -6.5925    2.0190    0.3838 O   0  0  0  0  0  0  0  0  0  0  0  0
   -4.1260   -3.0340    0.7417 H   0  0  0  0  0  0  0  0  0  0  0  0
   -2.0997   -2.5314   -0.4982 H   0  0  0  0  0  0  0  0  0  0  0  0
   -3.5746   -2.2373   -1.5264 H   0  0  0  0  0  0  0  0  0  0  0  0
   -2.0051   -0.4463   -1.8860 H   0  0  0  0  0  0  0  0  0  0  0  0
   -4.5349   -0.2040   -1.9661 H   0  0  0  0  0  0  0  0  0  0  0  0
   -3.6853    1.3477   -1.3978 H   0  0  0  0  0  0  0  0  0  0  0  0
   -5.7254   -1.2443    1.2851 H   0  0  0  0  0  0  0  0  0  0  0  0
   -5.6602   -1.6600   -0.4691 H   0  0  0  0  0  0  0  0  0  0  0  0
   -3.6978    1.7965    1.1303 H   0  0  0  0  0  0  0  0  0  0  0  0
   -4.6170    0.5755    2.1727 H   0  0  0  0  0  0  0  0  0  0  0  0
   -2.2236    0.4426    2.3443 H   0  0  0  0  0  0  0  0  0  0  0  0
   -3.6827   -1.4524    2.5960 H   0  0  0  0  0  0  0  0  0  0  0  0
   -2.1789   -2.1252    1.8438 H   0  0  0  0  0  0  0  0  0  0  0  0
   -2.0486    1.3318   -0.0310 H   0  0  0  0  0  0  0  0  0  0  0  0
    0.0015   -0.8975    0.3052 H   0  0  0  0  0  0  0  0  0  0  0  0
    1.5598    2.3561    1.5667 H   0  0  0  0  0  0  0  0  0  0  0  0
    2.8062    2.9700    0.4624 H   0  0  0  0  0  0  0  0  0  0  0  0
    3.1516    1.5703    1.5307 H   0  0  0  0  0  0  0  0  0  0  0  0
    2.8513    2.5906   -1.4720 H   0  0  0  0  0  0  0  0  0  0  0  0
    1.4583    1.7841   -2.1971 H   0  0  0  0  0  0  0  0  0  0  0  0
    3.0078    0.9223   -2.0792 H   0  0  0  0  0  0  0  0  0  0  0  0
    4.6295    1.4097   -0.3853 H   0  0  0  0  0  0  0  0  0  0  0  0
    6.9627    0.6014   -0.3443 H   0  0  0  0  0  0  0  0  0  0  0  0
    8.8668   -0.3792    0.7540 H   0  0  0  0  0  0  0  0  0  0  0  0
    8.6298   -0.4222   -1.0138 H   0  0  0  0  0  0  0  0  0  0  0  0
    9.6905   -1.6550   -0.1975 H   0  0  0  0  0  0  0  0  0  0  0  0
    5.5550   -3.3545    0.4951 H   0  0  0  0  0  0  0  0  0  0  0  0
    3.2933   -2.5565    0.4514 H   0  0  0  0  0  0  0  0  0  0  0  0
   -6.8377    0.3099   -2.1793 H   0  0  0  0  0  0  0  0  0  0  0  0
   -7.8010    0.2594   -1.2267 H   0  0  0  0  0  0  0  0  0  0  0  0
  1  2  1  0
  2  3  1  0
  3  4  1  0
  4  5  1  0
  5  6  1  0
  5  7  1  0
  7  8  1  0
  8  9  1  0
  8 10  1  0
 10 11  1  0
 11 12  1  0
 12 13  2  0
 12 14  1  0
 14 15  1  0
 14 16  1  0
 14 17  1  0
 17 18  1  0
 18 19  2  0
 19 20  1  0
 20 21  2  0
 21 22  1  0
 22 23  1  0
 21 24  1  0
 24 25  2  0
  5 26  1  6
 26 27  1  0
 26 28  2  0
  6  1  1  0
 25 18  1  0
  9  1  1  0
 10  3  1  0
  1 29  1  1
  2 30  1  0
  2 31  1  0
  3 32  1  6
  4 33  1  0
  4 34  1  0
  6 35  1  0
  6 36  1  0
  7 37  1  0
  7 38  1  0
  8 39  1  1
  9 40  1  0
  9 41  1  0
 10 42  1  6
 11 43  1  0
 15 44  1  0
 15 45  1  0
 15 46  1  0
 16 47  1  0
 16 48  1  0
 16 49  1  0
 19 50  1  0
 20 51  1  0
 23 52  1  0
 23 53  1  0
 23 54  1  0
 24 55  1  0
 25 56  1  0
 27 57  1  0
 27 58  1  0
M  END
$$$$
