
     RDKit          3D

 44 47  0  0  0  0  0  0  0  0999 V2000
   -1.6696    2.4529   -2.3747 C   0  0  0  0  0  0  0  0  0  0  0  0
   -1.4398    1.9402   -1.0913 O   0  0  0  0  0  0  0  0  0  0  0  0
   -2.1459    0.8502   -0.6133 C   0  0  0  0  0  0  0  0  0  0  0  0
   -3.0930    0.3042   -1.4829 C   0  0  0  0  0  0  0  0  0  0  0  0
   -3.8515   -0.7764   -1.1108 C   0  0  0  0  0  0  0  0  0  0  0  0
   -3.6511   -1.3069    0.1443 C   0  0  0  0  0  0  0  0  0  0  0  0
   -4.4091   -2.4018    0.5343 C   0  0  0  0  0  0  0  0  0  0  0  0
   -4.2746   -2.9982    1.7660 C   0  0  0  0  0  0  0  0  0  0  0  0
   -3.3412   -2.4540    2.6091 C   0  0  0  0  0  0  0  0  0  0  0  0
   -2.5607   -1.3595    2.2633 C   0  0  0  0  0  0  0  0  0  0  0  0
   -2.7046   -0.7686    1.0240 C   0  0  0  0  0  0  0  0  0  0  0  0
   -1.9430    0.3248    0.6377 C   0  0  0  0  0  0  0  0  0  0  0  0
   -0.9198    0.9074    1.5298 C   0  0  0  0  0  0  0  0  0  0  0  0
    0.4040    0.4770    1.3364 N   0  0  0  0  0  0  0  0  0  0  0  0
    1.1397    0.7646    0.1918 C   0  0  1  0  0  0  0  0  0  0  0  0
    1.6051    2.0794   -0.2888 C   0  0  0  0  0  0  0  0  0  0  0  0
    2.5697    1.2967    0.4904 C   0  0  0  0  0  0  0  0  0  0  0  0
    3.6115    0.4590   -0.1026 C   0  0  0  0  0  0  0  0  0  0  0  0
    4.6215   -0.0164    0.7015 C   0  0  0  0  0  0  0  0  0  0  0  0
    5.6596   -0.8130    0.2561 C   0  0  0  0  0  0  0  0  0  0  0  0
    5.6922   -1.1580   -1.0790 C   0  0  0  0  0  0  0  0  0  0  0  0
    4.6929   -0.6960   -1.9089 C   0  0  0  0  0  0  0  0  0  0  0  0
    3.6477    0.1105   -1.4416 C   0  0  0  0  0  0  0  0  0  0  0  0
   -0.9500    3.2863   -2.5567 H   0  0  0  0  0  0  0  0  0  0  0  0
   -1.5382    1.6292   -3.0981 H   0  0  0  0  0  0  0  0  0  0  0  0
   -2.6856    2.8936   -2.4130 H   0  0  0  0  0  0  0  0  0  0  0  0
   -3.2477    0.7262   -2.4719 H   0  0  0  0  0  0  0  0  0  0  0  0
   -4.5879   -1.1978   -1.7915 H   0  0  0  0  0  0  0  0  0  0  0  0
   -5.1313   -2.8027   -0.1513 H   0  0  0  0  0  0  0  0  0  0  0  0
   -4.8890   -3.8547    2.0322 H   0  0  0  0  0  0  0  0  0  0  0  0
   -3.2213   -2.9134    3.5915 H   0  0  0  0  0  0  0  0  0  0  0  0
   -1.8421   -0.9966    2.9817 H   0  0  0  0  0  0  0  0  0  0  0  0
   -1.2219    0.7342    2.5778 H   0  0  0  0  0  0  0  0  0  0  0  0
   -1.0108    2.0442    1.4426 H   0  0  0  0  0  0  0  0  0  0  0  0
    0.7378   -0.3187    1.9052 H   0  0  0  0  0  0  0  0  0  0  0  0
    1.0551   -0.0132   -0.6210 H   0  0  0  0  0  0  0  0  0  0  0  0
    1.7374    2.2362   -1.3899 H   0  0  0  0  0  0  0  0  0  0  0  0
    1.1686    2.9809    0.1876 H   0  0  0  0  0  0  0  0  0  0  0  0
    2.7568    1.6004    1.5423 H   0  0  0  0  0  0  0  0  0  0  0  0
    4.6647    0.2134    1.7780 H   0  0  0  0  0  0  0  0  0  0  0  0
    6.4527   -1.1767    0.9307 H   0  0  0  0  0  0  0  0  0  0  0  0
    6.5024   -1.7787   -1.4219 H   0  0  0  0  0  0  0  0  0  0  0  0
    4.7315   -0.9736   -2.9549 H   0  0  0  0  0  0  0  0  0  0  0  0
    2.8789    0.4634   -2.0901 H   0  0  0  0  0  0  0  0  0  0  0  0
  1  2  1  0
  2  3  1  0
  3  4  2  0
  4  5  1  0
  5  6  2  0
  6  7  1  0
  7  8  2  0
  8  9  1  0
  9 10  2  0
 10 11  1  0
 11 12  2  0
 12 13  1  0
 13 14  1  0
 14 15  1  0
 15 16  1  0
 16 17  1  0
 17 18  1  0
 18 19  2  0
 19 20  1  0
 20 21  2  0
 21 22  1  0
 22 23  2  0
 12  3  1  0
 17 15  1  0
 23 18  1  0
 11  6  1  0
  1 24  1  0
  1 25  1  0
  1 26  1  0
  4 27  1  0
  5 28  1  0
  7 29  1  0
  8 30  1  0
  9 31  1  0
 10 32  1  0
 13 33  1  0
 13 34  1  0
 14 35  1  0
 15 36  1  6
 16 37  1  0
 16 38  1  0
 17 39  1  0
 19 40  1  0
 20 41  1  0
 21 42  1  0
 22 43  1  0
 23 44  1  0
M  END
$$$$
