
     RDKit          3D

 64 65  0  0  0  0  0  0  0  0999 V2000
    9.5899    0.5052   -0.8559 C   0  0  0  0  0  0  0  0  0  0  0  0
    8.2269   -0.2140   -0.6267 C   0  0  0  0  0  0  0  0  0  0  0  0
    8.0936   -0.5118    0.8121 C   0  0  0  0  0  0  0  0  0  0  0  0
    6.9458   -1.2610    1.2992 C   0  0  0  0  0  0  0  0  0  0  0  0
    5.5540   -0.7946    1.1744 C   0  0  0  0  0  0  0  0  0  0  0  0
    4.9795   -0.6257   -0.1733 C   0  0  0  0  0  0  0  0  0  0  0  0
    3.5124   -0.1850   -0.1346 C   0  0  0  0  0  0  0  0  0  0  0  0
    2.6222   -1.1577    0.5552 C   0  0  0  0  0  0  0  0  0  0  0  0
    1.1900   -0.6252    0.5022 C   0  0  0  0  0  0  0  0  0  0  0  0
    1.0270    0.7006    1.1688 C   0  0  0  0  0  0  0  0  0  0  0  0
   -0.3627    1.1187    1.0759 N   0  0  0  0  0  0  0  0  0  0  0  0
   -1.3776    0.8838    1.9243 C   0  0  0  0  0  0  0  0  0  0  0  0
   -2.5320    1.4660    1.4473 C   0  0  0  0  0  0  0  0  0  0  0  0
   -3.8885    1.4992    1.9943 C   0  0  0  0  0  0  0  0  0  0  0  0
   -4.7556    0.4500    1.6141 N   0  0  0  0  0  0  0  0  0  0  0  0
   -5.0676    0.3198    0.2333 C   0  0  1  0  0  0  0  0  0  0  0  0
   -5.9757   -0.9089    0.0649 C   0  0  2  0  0  0  0  0  0  0  0  0
   -5.2451   -1.9871    0.6107 O   0  0  0  0  0  0  0  0  0  0  0  0
   -6.1846   -1.2459   -1.3905 C   0  0  1  0  0  0  0  0  0  0  0  0
   -7.4049   -1.9332   -1.4798 O   0  0  0  0  0  0  0  0  0  0  0  0
   -6.3297   -0.0001   -2.2356 C   0  0  2  0  0  0  0  0  0  0  0  0
   -5.1325    0.3536   -2.8509 O   0  0  0  0  0  0  0  0  0  0  0  0
   -6.8620    1.0854   -1.3458 C   0  0  1  0  0  0  0  0  0  0  0  0
   -8.0353    0.6337   -0.7571 O   0  0  0  0  0  0  0  0  0  0  0  0
   -5.8217    1.5084   -0.3158 C   0  0  2  0  0  0  0  0  0  0  0  0
   -5.0183    2.4414   -0.9441 O   0  0  0  0  0  0  0  0  0  0  0  0
   -2.1659    2.0504    0.2927 N   0  0  0  0  0  0  0  0  0  0  0  0
   -0.8764    1.8293    0.0968 N   0  0  0  0  0  0  0  0  0  0  0  0
    9.6644    1.3186   -0.1275 H   0  0  0  0  0  0  0  0  0  0  0  0
   10.3912   -0.2217   -0.7168 H   0  0  0  0  0  0  0  0  0  0  0  0
    9.5525    0.8474   -1.9079 H   0  0  0  0  0  0  0  0  0  0  0  0
    8.2254   -1.1064   -1.2435 H   0  0  0  0  0  0  0  0  0  0  0  0
    7.5188    0.5722   -0.9751 H   0  0  0  0  0  0  0  0  0  0  0  0
    9.0400   -1.0356    1.1841 H   0  0  0  0  0  0  0  0  0  0  0  0
    8.1480    0.4798    1.3988 H   0  0  0  0  0  0  0  0  0  0  0  0
    7.0117   -2.3425    0.8796 H   0  0  0  0  0  0  0  0  0  0  0  0
    7.1303   -1.4418    2.4256 H   0  0  0  0  0  0  0  0  0  0  0  0
    4.8672   -1.5203    1.7257 H   0  0  0  0  0  0  0  0  0  0  0  0
    5.4265    0.1518    1.7844 H   0  0  0  0  0  0  0  0  0  0  0  0
    5.0570   -1.5644   -0.7558 H   0  0  0  0  0  0  0  0  0  0  0  0
    5.4723    0.1867   -0.7329 H   0  0  0  0  0  0  0  0  0  0  0  0
    3.1938   -0.0387   -1.1701 H   0  0  0  0  0  0  0  0  0  0  0  0
    3.5164    0.7745    0.4541 H   0  0  0  0  0  0  0  0  0  0  0  0
    2.6216   -2.1451    0.0692 H   0  0  0  0  0  0  0  0  0  0  0  0
    2.9141   -1.3240    1.6228 H   0  0  0  0  0  0  0  0  0  0  0  0
    0.9279   -0.6039   -0.5812 H   0  0  0  0  0  0  0  0  0  0  0  0
    0.5605   -1.4223    0.9477 H   0  0  0  0  0  0  0  0  0  0  0  0
    1.3524    0.6200    2.2067 H   0  0  0  0  0  0  0  0  0  0  0  0
    1.6311    1.4519    0.6077 H   0  0  0  0  0  0  0  0  0  0  0  0
   -1.3243    0.3305    2.8402 H   0  0  0  0  0  0  0  0  0  0  0  0
   -4.3513    2.4790    1.7613 H   0  0  0  0  0  0  0  0  0  0  0  0
   -3.7973    1.4745    3.1095 H   0  0  0  0  0  0  0  0  0  0  0  0
   -4.5846   -0.4633    2.0642 H   0  0  0  0  0  0  0  0  0  0  0  0
   -4.1402    0.0887   -0.3256 H   0  0  0  0  0  0  0  0  0  0  0  0
   -6.8906   -0.8342    0.6514 H   0  0  0  0  0  0  0  0  0  0  0  0
   -5.7234   -2.4396    1.3292 H   0  0  0  0  0  0  0  0  0  0  0  0
   -5.4084   -1.9391   -1.7777 H   0  0  0  0  0  0  0  0  0  0  0  0
   -7.2664   -2.9047   -1.6291 H   0  0  0  0  0  0  0  0  0  0  0  0
   -7.0728   -0.1772   -3.0411 H   0  0  0  0  0  0  0  0  0  0  0  0
   -4.4820   -0.3715   -2.8658 H   0  0  0  0  0  0  0  0  0  0  0  0
   -7.1423    1.9839   -1.9643 H   0  0  0  0  0  0  0  0  0  0  0  0
   -8.8191    0.7889   -1.3383 H   0  0  0  0  0  0  0  0  0  0  0  0
   -6.3704    1.9788    0.5076 H   0  0  0  0  0  0  0  0  0  0  0  0
   -5.5552    2.9739   -1.5620 H   0  0  0  0  0  0  0  0  0  0  0  0
  1  2  1  0
  2  3  1  0
  3  4  1  0
  4  5  1  0
  5  6  1  0
  6  7  1  0
  7  8  1  0
  8  9  1  0
  9 10  1  0
 10 11  1  0
 11 12  1  0
 12 13  2  0
 13 14  1  0
 14 15  1  0
 15 16  1  0
 16 17  1  0
 17 18  1  0
 17 19  1  0
 19 20  1  0
 19 21  1  0
 21 22  1  0
 21 23  1  0
 23 24  1  0
 23 25  1  0
 25 26  1  0
 13 27  1  0
 27 28  2  0
 28 11  1  0
 25 16  1  0
  1 29  1  0
  1 30  1  0
  1 31  1  0
  2 32  1  0
  2 33  1  0
  3 34  1  0
  3 35  1  0
  4 36  1  0
  4 37  1  0
  5 38  1  0
  5 39  1  0
  6 40  1  0
  6 41  1  0
  7 42  1  0
  7 43  1  0
  8 44  1  0
  8 45  1  0
  9 46  1  0
  9 47  1  0
 10 48  1  0
 10 49  1  0
 12 50  1  0
 14 51  1  0
 14 52  1  0
 15 53  1  0
 16 54  1  6
 17 55  1  1
 18 56  1  0
 19 57  1  6
 20 58  1  0
 21 59  1  6
 22 60  1  0
 23 61  1  6
 24 62  1  0
 25 63  1  1
 26 64  1  0
M  END
$$$$
