
     RDKit          3D

 56 60  0  0  0  0  0  0  0  0999 V2000
   -4.2939    4.8592   -0.8195 C   0  0  0  0  0  0  0  0  0  0  0  0
   -4.8443    3.7206   -0.0245 C   0  0  0  0  0  0  0  0  0  0  0  0
   -6.0474    3.8565    0.3743 O   0  0  0  0  0  0  0  0  0  0  0  0
   -4.0985    2.5655    0.2744 N   0  0  0  0  0  0  0  0  0  0  0  0
   -4.7100    1.5175    1.0464 C   0  0  0  0  0  0  0  0  0  0  0  0
   -4.4261    0.2161    0.2723 C   0  0  0  0  0  0  0  0  0  0  0  0
   -3.0013   -0.0084    0.3247 C   0  0  0  0  0  0  0  0  0  0  0  0
   -2.1846    1.0829    0.0973 C   0  0  0  0  0  0  0  0  0  0  0  0
   -0.8890    0.6261    0.1969 C   0  0  0  0  0  0  0  0  0  0  0  0
    0.3041    1.4294    0.0310 N   0  0  0  0  0  0  0  0  0  0  0  0
    1.5917    0.8653    0.1475 C   0  0  0  0  0  0  0  0  0  0  0  0
    2.4765    0.9049   -0.9047 C   0  0  0  0  0  0  0  0  0  0  0  0
    3.7511    0.3527   -0.8083 C   0  0  0  0  0  0  0  0  0  0  0  0
    4.1405   -0.2464    0.3601 C   0  0  0  0  0  0  0  0  0  0  0  0
    5.4756   -0.8248    0.4605 C   0  0  0  0  0  0  0  0  0  0  0  0
    5.8345   -1.9180    1.2250 C   0  0  0  0  0  0  0  0  0  0  0  0
    7.1522   -2.1330    1.0440 N   0  0  0  0  0  0  0  0  0  0  0  0
    7.6630   -1.2418    0.2073 N   0  0  0  0  0  0  0  0  0  0  0  0
    9.0629   -1.1713   -0.2204 C   0  0  0  0  0  0  0  0  0  0  0  0
    6.6459   -0.4277   -0.1627 C   0  0  0  0  0  0  0  0  0  0  0  0
    3.2550   -0.2859    1.4128 C   0  0  0  0  0  0  0  0  0  0  0  0
    1.9706    0.2663    1.3270 C   0  0  0  0  0  0  0  0  0  0  0  0
    1.1075    0.2206    2.3722 F   0  0  0  0  0  0  0  0  0  0  0  0
   -0.9763   -0.6616    0.4678 N   0  0  0  0  0  0  0  0  0  0  0  0
   -2.2362   -1.0562    0.5475 N   0  0  0  0  0  0  0  0  0  0  0  0
   -2.5186   -2.4274    0.8367 C   0  0  2  0  0  0  0  0  0  0  0  0
   -1.7702   -3.2120   -0.2719 C   0  0  0  0  0  0  0  0  0  0  0  0
   -2.8202   -3.0857   -1.3845 C   0  0  0  0  0  0  0  0  0  0  0  0
   -3.9974   -2.6558   -0.8060 O   0  0  0  0  0  0  0  0  0  0  0  0
   -3.8478   -2.9451    0.5398 C   0  0  0  0  0  0  0  0  0  0  0  0
   -2.7443    2.4420   -0.1903 C   0  0  0  0  0  0  0  0  0  0  0  0
   -4.7318    4.7791   -1.8353 H   0  0  0  0  0  0  0  0  0  0  0  0
   -4.6721    5.7876   -0.3542 H   0  0  0  0  0  0  0  0  0  0  0  0
   -3.1844    4.8176   -0.8404 H   0  0  0  0  0  0  0  0  0  0  0  0
   -5.7776    1.6558    1.2140 H   0  0  0  0  0  0  0  0  0  0  0  0
   -4.1267    1.4352    2.0019 H   0  0  0  0  0  0  0  0  0  0  0  0
   -5.1271   -0.5439    0.5300 H   0  0  0  0  0  0  0  0  0  0  0  0
   -4.6679    0.5070   -0.7980 H   0  0  0  0  0  0  0  0  0  0  0  0
    0.1600    2.4265   -0.1749 H   0  0  0  0  0  0  0  0  0  0  0  0
    2.1522    1.3788   -1.8118 H   0  0  0  0  0  0  0  0  0  0  0  0
    4.4317    0.3857   -1.6245 H   0  0  0  0  0  0  0  0  0  0  0  0
    5.2173   -2.5224    1.8645 H   0  0  0  0  0  0  0  0  0  0  0  0
    9.1104   -0.4172   -1.0348 H   0  0  0  0  0  0  0  0  0  0  0  0
    9.6259   -0.7159    0.6381 H   0  0  0  0  0  0  0  0  0  0  0  0
    9.4615   -2.1518   -0.4907 H   0  0  0  0  0  0  0  0  0  0  0  0
    6.7418    0.4034   -0.8419 H   0  0  0  0  0  0  0  0  0  0  0  0
    3.5698   -0.7608    2.3326 H   0  0  0  0  0  0  0  0  0  0  0  0
   -2.1614   -2.7834    1.8079 H   0  0  0  0  0  0  0  0  0  0  0  0
   -0.8279   -2.7260   -0.5320 H   0  0  0  0  0  0  0  0  0  0  0  0
   -1.6904   -4.2709    0.0117 H   0  0  0  0  0  0  0  0  0  0  0  0
   -2.4458   -2.2348   -2.0214 H   0  0  0  0  0  0  0  0  0  0  0  0
   -2.9437   -4.0096   -1.9461 H   0  0  0  0  0  0  0  0  0  0  0  0
   -3.7489   -4.0825    0.5476 H   0  0  0  0  0  0  0  0  0  0  0  0
   -4.6703   -2.7634    1.1977 H   0  0  0  0  0  0  0  0  0  0  0  0
   -2.6577    2.5684   -1.3051 H   0  0  0  0  0  0  0  0  0  0  0  0
   -2.0619    3.2131    0.2421 H   0  0  0  0  0  0  0  0  0  0  0  0
  1  2  1  0
  2  3  2  0
  2  4  1  0
  4  5  1  0
  5  6  1  0
  6  7  1  0
  7  8  2  0
  8  9  1  0
  9 10  1  0
 10 11  1  0
 11 12  2  0
 12 13  1  0
 13 14  2  0
 14 15  1  0
 15 16  1  0
 16 17  2  0
 17 18  1  0
 18 19  1  0
 18 20  1  0
 14 21  1  0
 21 22  2  0
 22 23  1  0
  9 24  2  0
 24 25  1  0
 25 26  1  0
 26 27  1  0
 27 28  1  0
 28 29  1  0
 29 30  1  0
  8 31  1  0
 31  4  1  0
 25  7  1  0
 30 26  1  0
 22 11  1  0
 20 15  2  0
  1 32  1  0
  1 33  1  0
  1 34  1  0
  5 35  1  0
  5 36  1  0
  6 37  1  0
  6 38  1  0
 10 39  1  0
 12 40  1  0
 13 41  1  0
 16 42  1  0
 19 43  1  0
 19 44  1  0
 19 45  1  0
 20 46  1  0
 21 47  1  0
 26 48  1  1
 27 49  1  0
 27 50  1  0
 28 51  1  0
 28 52  1  0
 30 53  1  0
 30 54  1  0
 31 55  1  0
 31 56  1  0
M  END
$$$$
