
     RDKit          3D

 62 67  0  0  0  0  0  0  0  0999 V2000
   -0.1065   -1.9100    1.9713 C   0  0  0  0  0  0  0  0  0  0  0  0
   -0.4249   -0.5136    1.5358 C   0  0  0  0  0  0  0  0  0  0  0  0
    0.3911   -0.0236    0.4227 C   0  0  0  0  0  0  0  0  0  0  0  0
   -0.1013    0.5614   -0.5756 O   0  0  0  0  0  0  0  0  0  0  0  0
    1.8150   -0.2110    0.4570 N   0  0  0  0  0  0  0  0  0  0  0  0
    2.6719    0.2590   -0.6264 C   0  0  1  0  0  0  0  0  0  0  0  0
    3.6792    1.2710   -0.1214 C   0  0  0  0  0  0  0  0  0  0  0  0
    4.6413    0.6433    0.8667 C   0  0  0  0  0  0  0  0  0  0  0  0
    5.3706   -0.4838    0.2007 C   0  0  0  0  0  0  0  0  0  0  0  0
    4.3377   -1.5200   -0.2231 C   0  0  0  0  0  0  0  0  0  0  0  0
    3.4015   -0.8988   -1.2261 C   0  0  0  0  0  0  0  0  0  0  0  0
    4.2026   -0.4362   -2.4247 C   0  0  0  0  0  0  0  0  0  0  0  0
    5.1950    0.6122   -1.9825 C   0  0  2  0  0  0  0  0  0  0  0  0
    5.8967    1.0870   -3.0769 O   0  0  0  0  0  0  0  0  0  0  0  0
    6.1455    0.0019   -1.0029 C   0  0  0  0  0  0  0  0  0  0  0  0
    4.4699    1.7617   -1.3061 C   0  0  0  0  0  0  0  0  0  0  0  0
   -1.8329   -0.2724    1.2949 N   0  0  0  0  0  0  0  0  0  0  0  0
   -2.6371   -0.4126    2.4645 C   0  0  0  0  0  0  0  0  0  0  0  0
   -3.9330   -1.1248    2.3147 C   0  0  0  0  0  0  0  0  0  0  0  0
   -4.8613   -0.5170    1.3359 C   0  0  0  0  0  0  0  0  0  0  0  0
   -6.1573   -0.4260    1.7960 C   0  0  0  0  0  0  0  0  0  0  0  0
   -7.1599    0.1249    0.9903 C   0  0  0  0  0  0  0  0  0  0  0  0
   -6.8764    0.5869   -0.2755 C   0  0  0  0  0  0  0  0  0  0  0  0
   -5.5781    0.4928   -0.7294 C   0  0  0  0  0  0  0  0  0  0  0  0
   -4.5743   -0.0542    0.0663 C   0  0  0  0  0  0  0  0  0  0  0  0
   -3.2482   -0.0643   -0.6057 C   0  0  0  0  0  0  0  0  0  0  0  0
   -2.3234   -0.9974    0.1495 C   0  0  0  0  0  0  0  0  0  0  0  0
   -5.5765    1.0243   -2.0152 O   0  0  0  0  0  0  0  0  0  0  0  0
   -6.9344    1.1124   -2.4726 C   0  0  0  0  0  0  0  0  0  0  0  0
   -7.6620    1.1608   -1.2511 O   0  0  0  0  0  0  0  0  0  0  0  0
    0.2623   -2.5305    1.1187 H   0  0  0  0  0  0  0  0  0  0  0  0
   -0.9336   -2.4065    2.4962 H   0  0  0  0  0  0  0  0  0  0  0  0
    0.7604   -1.8614    2.6699 H   0  0  0  0  0  0  0  0  0  0  0  0
   -0.1715    0.1503    2.4152 H   0  0  0  0  0  0  0  0  0  0  0  0
    2.2104   -0.6939    1.2826 H   0  0  0  0  0  0  0  0  0  0  0  0
    2.0764    0.7470   -1.4086 H   0  0  0  0  0  0  0  0  0  0  0  0
    3.1521    2.1200    0.3215 H   0  0  0  0  0  0  0  0  0  0  0  0
    4.1008    0.2416    1.7486 H   0  0  0  0  0  0  0  0  0  0  0  0
    5.3482    1.4156    1.1874 H   0  0  0  0  0  0  0  0  0  0  0  0
    6.0154   -0.9725    0.9428 H   0  0  0  0  0  0  0  0  0  0  0  0
    3.7975   -1.8290    0.6878 H   0  0  0  0  0  0  0  0  0  0  0  0
    4.8277   -2.4266   -0.6230 H   0  0  0  0  0  0  0  0  0  0  0  0
    2.6778   -1.6429   -1.5906 H   0  0  0  0  0  0  0  0  0  0  0  0
    3.5411   -0.0229   -3.1892 H   0  0  0  0  0  0  0  0  0  0  0  0
    4.7827   -1.2948   -2.8223 H   0  0  0  0  0  0  0  0  0  0  0  0
    5.4632    1.8799   -3.4411 H   0  0  0  0  0  0  0  0  0  0  0  0
    6.6733   -0.8477   -1.4428 H   0  0  0  0  0  0  0  0  0  0  0  0
    6.8643    0.7750   -0.6483 H   0  0  0  0  0  0  0  0  0  0  0  0
    3.8550    2.2876   -2.0448 H   0  0  0  0  0  0  0  0  0  0  0  0
    5.2272    2.4864   -0.9308 H   0  0  0  0  0  0  0  0  0  0  0  0
   -2.8767    0.6197    2.8295 H   0  0  0  0  0  0  0  0  0  0  0  0
   -2.0593   -0.9043    3.2619 H   0  0  0  0  0  0  0  0  0  0  0  0
   -4.4504   -1.0253    3.3177 H   0  0  0  0  0  0  0  0  0  0  0  0
   -3.8399   -2.2323    2.1951 H   0  0  0  0  0  0  0  0  0  0  0  0
   -6.4019   -0.7835    2.7882 H   0  0  0  0  0  0  0  0  0  0  0  0
   -8.1824    0.1987    1.3482 H   0  0  0  0  0  0  0  0  0  0  0  0
   -2.8578    0.9789   -0.5759 H   0  0  0  0  0  0  0  0  0  0  0  0
   -3.3680   -0.3940   -1.6592 H   0  0  0  0  0  0  0  0  0  0  0  0
   -2.9179   -1.8962    0.4179 H   0  0  0  0  0  0  0  0  0  0  0  0
   -1.5007   -1.2844   -0.5080 H   0  0  0  0  0  0  0  0  0  0  0  0
   -7.1058    2.0250   -3.0696 H   0  0  0  0  0  0  0  0  0  0  0  0
   -7.2004    0.1967   -3.0260 H   0  0  0  0  0  0  0  0  0  0  0  0
  1  2  1  0
  2  3  1  0
  3  4  2  0
  3  5  1  0
  5  6  1  0
  6  7  1  0
  7  8  1  0
  8  9  1  0
  9 10  1  0
 10 11  1  0
 11 12  1  0
 12 13  1  0
 13 14  1  6
 13 15  1  0
 13 16  1  0
  2 17  1  0
 17 18  1  0
 18 19  1  0
 19 20  1  0
 20 21  1  0
 21 22  2  0
 22 23  1  0
 23 24  2  0
 24 25  1  0
 25 26  1  0
 26 27  1  0
 24 28  1  0
 28 29  1  0
 29 30  1  0
 11  6  1  0
 27 17  1  0
 16  7  1  0
 25 20  2  0
 15  9  1  0
 30 23  1  0
  1 31  1  0
  1 32  1  0
  1 33  1  0
  2 34  1  0
  5 35  1  0
  6 36  1  6
  7 37  1  0
  8 38  1  0
  8 39  1  0
  9 40  1  0
 10 41  1  0
 10 42  1  0
 11 43  1  0
 12 44  1  0
 12 45  1  0
 14 46  1  0
 15 47  1  0
 15 48  1  0
 16 49  1  0
 16 50  1  0
 18 51  1  0
 18 52  1  0
 19 53  1  0
 19 54  1  0
 21 55  1  0
 22 56  1  0
 26 57  1  0
 26 58  1  0
 27 59  1  0
 27 60  1  0
 29 61  1  0
 29 62  1  0
M  END
$$$$
