
     RDKit          3D

 26 25  0  0  0  0  0  0  0  0999 V2000
   -3.3058   -0.7953    1.1225 C   0  0  0  0  0  0  0  0  0  0  0  0
   -3.1552    0.5334    0.4678 C   0  0  0  0  0  0  0  0  0  0  0  0
   -4.0895    1.1737   -0.2341 C   0  0  0  0  0  0  0  0  0  0  0  0
   -1.8394    1.2140    0.6078 C   0  0  0  0  0  0  0  0  0  0  0  0
   -0.7965    0.2929   -0.0081 C   0  0  0  0  0  0  0  0  0  0  0  0
    0.4574    0.8951    0.1022 O   0  0  0  0  0  0  0  0  0  0  0  0
    1.6254   -0.1177   -0.5783 P   0  0  2  0  0  5  0  0  0  0  0  0
    2.3775    0.7464   -1.8227 O   0  0  0  0  0  0  0  0  0  0  0  0
    0.9705   -1.3430   -1.1582 O   0  0  0  0  0  0  0  0  0  0  0  0
    2.7203   -0.5316    0.6290 O   0  0  0  0  0  0  0  0  0  0  0  0
    4.0387   -1.3185   -0.0979 P   0  0  0  0  0  0  0  0  0  0  0  0
    5.3684   -1.2410    0.9382 O   0  0  0  0  0  0  0  0  0  0  0  0
    4.3902   -0.4732   -1.5383 O   0  0  0  0  0  0  0  0  0  0  0  0
    3.7342   -2.7503   -0.4250 O   0  0  0  0  0  0  0  0  0  0  0  0
   -4.3402   -1.2040    0.9727 H   0  0  0  0  0  0  0  0  0  0  0  0
   -2.6280   -1.5663    0.7376 H   0  0  0  0  0  0  0  0  0  0  0  0
   -3.1490   -0.6395    2.2108 H   0  0  0  0  0  0  0  0  0  0  0  0
   -4.0118    2.1458   -0.7256 H   0  0  0  0  0  0  0  0  0  0  0  0
   -5.0881    0.8744   -0.4569 H   0  0  0  0  0  0  0  0  0  0  0  0
   -1.5602    1.3352    1.6776 H   0  0  0  0  0  0  0  0  0  0  0  0
   -1.8120    2.2074    0.1314 H   0  0  0  0  0  0  0  0  0  0  0  0
   -0.8101   -0.6527    0.5878 H   0  0  0  0  0  0  0  0  0  0  0  0
   -1.0808    0.1098   -1.0493 H   0  0  0  0  0  0  0  0  0  0  0  0
    1.7956    1.4505   -2.1561 H   0  0  0  0  0  0  0  0  0  0  0  0
    5.4009   -0.3541    1.3552 H   0  0  0  0  0  0  0  0  0  0  0  0
    4.7876    0.4154   -1.2901 H   0  0  0  0  0  0  0  0  0  0  0  0
  1  2  1  0
  2  3  2  0
  2  4  1  0
  4  5  1  0
  5  6  1  0
  7  6  1  1
  7  8  1  0
  7  9  2  0
  7 10  1  0
 10 11  1  0
 11 12  1  0
 11 13  1  0
 11 14  2  0
  1 15  1  0
  1 16  1  0
  1 17  1  0
  3 18  1  0
  3 19  1  0
  4 20  1  0
  4 21  1  0
  5 22  1  0
  5 23  1  0
  8 24  1  0
 12 25  1  0
 13 26  1  0
M  END
$$$$
