
     RDKit          3D

 40 42  0  0  0  0  0  0  0  0999 V2000
   -3.5861   -4.9653   -1.2915 F   0  0  0  0  0  0  0  0  0  0  0  0
   -2.7848   -4.6353   -0.1822 C   0  0  0  0  0  0  0  0  0  0  0  0
   -3.4238   -5.0572    0.9826 F   0  0  0  0  0  0  0  0  0  0  0  0
   -2.7358   -3.2497   -0.1488 O   0  0  0  0  0  0  0  0  0  0  0  0
   -1.5442   -2.5666   -0.1793 C   0  0  0  0  0  0  0  0  0  0  0  0
   -1.6156   -1.1630   -0.1288 C   0  0  0  0  0  0  0  0  0  0  0  0
   -2.8443   -0.5994   -0.0557 O   0  0  0  0  0  0  0  0  0  0  0  0
   -3.3241    0.6698    0.0067 C   0  0  0  0  0  0  0  0  0  0  0  0
   -2.9479    1.5273    1.1695 C   0  0  0  0  0  0  0  0  0  0  0  0
   -3.5734    2.9309    1.0769 C   0  0  0  0  0  0  0  0  0  0  0  0
   -3.9674    1.9816    2.1514 C   0  0  0  0  0  0  0  0  0  0  0  0
   -0.4726   -0.3914   -0.1531 C   0  0  0  0  0  0  0  0  0  0  0  0
    0.7724   -0.9469   -0.2263 C   0  0  0  0  0  0  0  0  0  0  0  0
    0.8779   -2.3307   -0.2780 C   0  0  0  0  0  0  0  0  0  0  0  0
   -0.2674   -3.0728   -0.2531 C   0  0  0  0  0  0  0  0  0  0  0  0
    2.0594   -0.2368   -0.2249 C   0  0  0  0  0  0  0  0  0  0  0  0
    3.1828   -0.7776   -0.3933 O   0  0  0  0  0  0  0  0  0  0  0  0
    2.1778    1.1753   -0.0237 N   0  0  0  0  0  0  0  0  0  0  0  0
    3.5783    1.5056   -0.0774 C   0  0  0  0  0  0  0  0  0  0  0  0
    4.1102    1.3538    1.2121 C   0  0  0  0  0  0  0  0  0  0  0  0
    3.2678    0.8504    2.6470 Cl  0  0  0  0  0  0  0  0  0  0  0  0
    5.4672    1.6195    1.4225 C   0  0  0  0  0  0  0  0  0  0  0  0
    6.2518    2.0161    0.4045 N   0  0  0  0  0  0  0  0  0  0  0  0
    5.7233    2.1555   -0.8199 C   0  0  0  0  0  0  0  0  0  0  0  0
    4.4088    1.9178   -1.1219 C   0  0  0  0  0  0  0  0  0  0  0  0
    3.5295    2.0351   -2.6190 Cl  0  0  0  0  0  0  0  0  0  0  0  0
   -1.8361   -5.1767   -0.2092 H   0  0  0  0  0  0  0  0  0  0  0  0
   -3.0982    1.2604   -0.9376 H   0  0  0  0  0  0  0  0  0  0  0  0
   -4.4590    0.6202    0.0343 H   0  0  0  0  0  0  0  0  0  0  0  0
   -1.8983    1.4851    1.5059 H   0  0  0  0  0  0  0  0  0  0  0  0
   -4.3277    3.1274    0.3027 H   0  0  0  0  0  0  0  0  0  0  0  0
   -2.9233    3.7941    1.3358 H   0  0  0  0  0  0  0  0  0  0  0  0
   -4.9373    1.4588    2.1101 H   0  0  0  0  0  0  0  0  0  0  0  0
   -3.6281    2.2390    3.1741 H   0  0  0  0  0  0  0  0  0  0  0  0
   -0.4383    0.6782   -0.1265 H   0  0  0  0  0  0  0  0  0  0  0  0
    1.8555   -2.8258   -0.3396 H   0  0  0  0  0  0  0  0  0  0  0  0
   -0.1558   -4.1447   -0.2967 H   0  0  0  0  0  0  0  0  0  0  0  0
    1.2933    1.7401    0.1251 H   0  0  0  0  0  0  0  0  0  0  0  0
    5.9604    1.5256    2.3921 H   0  0  0  0  0  0  0  0  0  0  0  0
    6.2731    2.4720   -1.7158 H   0  0  0  0  0  0  0  0  0  0  0  0
  1  2  1  0
  2  3  1  0
  2  4  1  0
  4  5  1  0
  5  6  2  0
  6  7  1  0
  7  8  1  0
  8  9  1  0
  9 10  1  0
 10 11  1  0
  6 12  1  0
 12 13  2  0
 13 14  1  0
 14 15  2  0
 13 16  1  0
 16 17  2  0
 16 18  1  0
 18 19  1  0
 19 20  2  0
 20 21  1  0
 20 22  1  0
 22 23  2  0
 23 24  1  0
 24 25  2  0
 25 26  1  0
 15  5  1  0
 25 19  1  0
 11  9  1  0
  2 27  1  0
  8 28  1  0
  8 29  1  0
  9 30  1  0
 10 31  1  0
 10 32  1  0
 11 33  1  0
 11 34  1  0
 12 35  1  0
 14 36  1  0
 15 37  1  0
 18 38  1  0
 22 39  1  0
 24 40  1  0
M  END
$$$$
