
     RDKit          3D

 47 48  0  0  0  0  0  0  0  0999 V2000
   -5.5360    3.0763   -0.8092 C   0  0  0  0  0  0  0  0  0  0  0  0
   -6.6764    2.3365   -0.4613 O   0  0  0  0  0  0  0  0  0  0  0  0
   -6.5388    1.0404    0.0028 C   0  0  0  0  0  0  0  0  0  0  0  0
   -5.2612    0.5173    0.1069 C   0  0  0  0  0  0  0  0  0  0  0  0
   -4.9964   -0.7508    0.5521 C   0  0  0  0  0  0  0  0  0  0  0  0
   -3.6599   -1.3124    0.6662 C   0  0  0  0  0  0  0  0  0  0  0  0
   -2.5506   -0.6790    0.3591 C   0  0  0  0  0  0  0  0  0  0  0  0
   -1.2323   -1.3327    0.5081 C   0  0  0  0  0  0  0  0  0  0  0  0
   -1.1615   -2.5022    0.9305 O   0  0  0  0  0  0  0  0  0  0  0  0
   -0.0307   -0.5528    0.1412 C   0  0  0  0  0  0  0  0  0  0  0  0
    1.1583   -1.3923    0.3663 C   0  0  0  0  0  0  0  0  0  0  0  0
    1.0536   -2.5542    0.7982 O   0  0  0  0  0  0  0  0  0  0  0  0
    2.4897   -0.8642    0.0817 C   0  0  0  0  0  0  0  0  0  0  0  0
    3.5860   -1.5617    0.2613 C   0  0  0  0  0  0  0  0  0  0  0  0
    4.9293   -1.0772   -0.0082 C   0  0  0  0  0  0  0  0  0  0  0  0
    6.0217   -1.9218    0.2255 C   0  0  0  0  0  0  0  0  0  0  0  0
    7.3143   -1.5113   -0.0137 C   0  0  0  0  0  0  0  0  0  0  0  0
    7.6016   -0.2531   -0.4937 C   0  0  0  0  0  0  0  0  0  0  0  0
    8.9098    0.1162   -0.7189 O   0  0  0  0  0  0  0  0  0  0  0  0
    6.5438    0.5937   -0.7306 C   0  0  0  0  0  0  0  0  0  0  0  0
    6.7390    1.8579   -1.2064 O   0  0  0  0  0  0  0  0  0  0  0  0
    5.7460    2.8000   -1.4823 C   0  0  0  0  0  0  0  0  0  0  0  0
    5.2317    0.1768   -0.4877 C   0  0  0  0  0  0  0  0  0  0  0  0
   -6.1130   -1.5143    0.9071 C   0  0  0  0  0  0  0  0  0  0  0  0
   -7.3792   -1.0025    0.8063 C   0  0  0  0  0  0  0  0  0  0  0  0
   -7.6274    0.2728    0.3574 C   0  0  0  0  0  0  0  0  0  0  0  0
   -8.8996    0.8155    0.2457 O   0  0  0  0  0  0  0  0  0  0  0  0
   -5.7680    4.1018   -1.1244 H   0  0  0  0  0  0  0  0  0  0  0  0
   -4.9405    2.5367   -1.5848 H   0  0  0  0  0  0  0  0  0  0  0  0
   -4.8474    3.1610    0.0729 H   0  0  0  0  0  0  0  0  0  0  0  0
   -4.3975    1.1436   -0.1807 H   0  0  0  0  0  0  0  0  0  0  0  0
   -3.5795   -2.3337    1.0339 H   0  0  0  0  0  0  0  0  0  0  0  0
   -2.6190    0.3343   -0.0065 H   0  0  0  0  0  0  0  0  0  0  0  0
    0.0894    0.3570    0.7646 H   0  0  0  0  0  0  0  0  0  0  0  0
   -0.0731   -0.2469   -0.9345 H   0  0  0  0  0  0  0  0  0  0  0  0
    2.6181    0.1594   -0.3012 H   0  0  0  0  0  0  0  0  0  0  0  0
    3.4659   -2.5844    0.6433 H   0  0  0  0  0  0  0  0  0  0  0  0
    5.8116   -2.9069    0.6003 H   0  0  0  0  0  0  0  0  0  0  0  0
    8.1363   -2.2055    0.1837 H   0  0  0  0  0  0  0  0  0  0  0  0
    9.5803   -0.4805   -1.2146 H   0  0  0  0  0  0  0  0  0  0  0  0
    5.1578    2.4172   -2.3613 H   0  0  0  0  0  0  0  0  0  0  0  0
    6.1097    3.8157   -1.6238 H   0  0  0  0  0  0  0  0  0  0  0  0
    5.0066    2.8237   -0.6286 H   0  0  0  0  0  0  0  0  0  0  0  0
    4.4345    0.8685   -0.6860 H   0  0  0  0  0  0  0  0  0  0  0  0
   -5.9397   -2.5305    1.2666 H   0  0  0  0  0  0  0  0  0  0  0  0
   -8.2643   -1.5903    1.0814 H   0  0  0  0  0  0  0  0  0  0  0  0
   -9.6429    0.3393    0.7550 H   0  0  0  0  0  0  0  0  0  0  0  0
  1  2  1  0
  2  3  1  0
  3  4  2  0
  4  5  1  0
  5  6  1  0
  6  7  2  0
  7  8  1  0
  8  9  2  0
  8 10  1  0
 10 11  1  0
 11 12  2  0
 11 13  1  0
 13 14  2  0
 14 15  1  0
 15 16  2  0
 16 17  1  0
 17 18  2  0
 18 19  1  0
 18 20  1  0
 20 21  1  0
 21 22  1  0
 20 23  2  0
  5 24  2  0
 24 25  1  0
 25 26  2  0
 26 27  1  0
 26  3  1  0
 23 15  1  0
  1 28  1  0
  1 29  1  0
  1 30  1  0
  4 31  1  0
  6 32  1  0
  7 33  1  0
 10 34  1  0
 10 35  1  0
 13 36  1  0
 14 37  1  0
 16 38  1  0
 17 39  1  0
 19 40  1  0
 22 41  1  0
 22 42  1  0
 22 43  1  0
 23 44  1  0
 24 45  1  0
 25 46  1  0
 27 47  1  0
M  END
$$$$
