
     RDKit          3D

 61 65  0  0  0  0  0  0  0  0999 V2000
    6.7700    0.1845    3.2335 C   0  0  0  0  0  0  0  0  0  0  0  0
    7.3689    0.7701    2.3557 C   0  0  0  0  0  0  0  0  0  0  0  0
    8.0925    1.4845    1.3192 C   0  0  0  0  0  0  0  0  0  0  0  0
    7.9383    0.9456    0.0378 O   0  0  0  0  0  0  0  0  0  0  0  0
    6.6882    0.8579   -0.5288 C   0  0  0  0  0  0  0  0  0  0  0  0
    6.5517    0.3274   -1.8086 C   0  0  0  0  0  0  0  0  0  0  0  0
    5.3491    0.2327   -2.3790 N   0  0  0  0  0  0  0  0  0  0  0  0
    4.2083    0.6373   -1.7638 C   0  0  0  0  0  0  0  0  0  0  0  0
    2.9310    0.5335   -2.4450 C   0  0  0  0  0  0  0  0  0  0  0  0
    2.9171    0.0674   -3.7153 F   0  0  0  0  0  0  0  0  0  0  0  0
    1.7810    0.8597   -1.9124 C   0  0  0  0  0  0  0  0  0  0  0  0
    0.5019    0.7405   -2.6464 C   0  0  0  0  0  0  0  0  0  0  0  0
    0.3782    1.0759   -3.9721 C   0  0  0  0  0  0  0  0  0  0  0  0
   -0.8191    0.9487   -4.5604 N   0  0  0  0  0  0  0  0  0  0  0  0
   -1.9181    0.5047   -3.9123 C   0  0  0  0  0  0  0  0  0  0  0  0
   -3.0700    0.4215   -4.6175 F   0  0  0  0  0  0  0  0  0  0  0  0
   -1.8273    0.1583   -2.5795 C   0  0  0  0  0  0  0  0  0  0  0  0
   -3.0441   -0.3186   -1.8713 C   0  0  1  0  0  0  0  0  0  0  0  0
   -4.0589    0.8277   -2.0162 C   0  0  0  0  0  0  0  0  0  0  0  0
   -3.4865   -1.4869   -2.5667 N   0  0  0  0  0  0  0  0  0  0  0  0
   -4.3651   -2.3075   -2.1370 C   0  0  0  0  0  0  0  0  0  0  0  0
   -4.7641   -3.4270   -2.8477 N   0  0  0  0  0  0  0  0  0  0  0  0
   -5.0325   -1.9322   -0.5306 S   0  0  0  0  0  0  0  0  0  0  0  0
   -3.5710   -1.3021    0.4079 C   0  0  1  0  0  0  0  0  0  0  0  0
   -3.7091   -1.2393    1.8464 C   0  0  0  0  0  0  0  0  0  0  0  0
   -4.7188   -1.9583    2.3010 O   0  0  0  0  0  0  0  0  0  0  0  0
   -2.9558   -0.5528    2.7944 N   0  0  0  0  0  0  0  0  0  0  0  0
   -3.3367   -0.6738    4.2147 C   0  0  0  0  0  0  0  0  0  0  0  0
   -2.1092   -1.2937    4.8738 C   0  0  0  0  0  0  0  0  0  0  0  0
   -1.0112   -0.4986    4.6755 O   0  0  0  0  0  0  0  0  0  0  0  0
   -1.2165    0.6111    3.9047 C   0  0  0  0  0  0  0  0  0  0  0  0
   -1.8314    0.2696    2.5376 C   0  0  0  0  0  0  0  0  0  0  0  0
   -2.2268   -1.8932   -0.0700 C   0  0  0  0  0  0  0  0  0  0  0  0
   -2.6875   -0.5048   -0.4193 C   0  0  1  0  0  0  0  0  0  0  0  0
   -0.6071    0.2841   -1.9680 C   0  0  0  0  0  0  0  0  0  0  0  0
    4.3603    1.1593   -0.4977 C   0  0  0  0  0  0  0  0  0  0  0  0
    5.5804    1.2577    0.0851 N   0  0  0  0  0  0  0  0  0  0  0  0
    6.2584   -0.3399    4.0036 H   0  0  0  0  0  0  0  0  0  0  0  0
    9.1784    1.4362    1.6102 H   0  0  0  0  0  0  0  0  0  0  0  0
    7.7361    2.5455    1.3743 H   0  0  0  0  0  0  0  0  0  0  0  0
    7.4666    0.0058   -2.2996 H   0  0  0  0  0  0  0  0  0  0  0  0
    1.7576    1.2362   -0.8810 H   0  0  0  0  0  0  0  0  0  0  0  0
    1.2552    1.4331   -4.4963 H   0  0  0  0  0  0  0  0  0  0  0  0
   -4.7179    0.9076   -1.1349 H   0  0  0  0  0  0  0  0  0  0  0  0
   -4.6318    0.6846   -2.9561 H   0  0  0  0  0  0  0  0  0  0  0  0
   -3.5381    1.8109   -2.1100 H   0  0  0  0  0  0  0  0  0  0  0  0
   -5.4891   -4.0687   -2.4670 H   0  0  0  0  0  0  0  0  0  0  0  0
   -4.3569   -3.6632   -3.7779 H   0  0  0  0  0  0  0  0  0  0  0  0
   -3.4386    0.3380    4.6355 H   0  0  0  0  0  0  0  0  0  0  0  0
   -4.2178   -1.2929    4.3663 H   0  0  0  0  0  0  0  0  0  0  0  0
   -2.3043   -1.5513    5.9368 H   0  0  0  0  0  0  0  0  0  0  0  0
   -1.9061   -2.2889    4.3857 H   0  0  0  0  0  0  0  0  0  0  0  0
   -0.1960    1.0186    3.6366 H   0  0  0  0  0  0  0  0  0  0  0  0
   -1.7510    1.4244    4.3780 H   0  0  0  0  0  0  0  0  0  0  0  0
   -1.0438   -0.1295    1.8973 H   0  0  0  0  0  0  0  0  0  0  0  0
   -2.2246    1.2696    2.1866 H   0  0  0  0  0  0  0  0  0  0  0  0
   -2.2983   -2.6874   -0.8496 H   0  0  0  0  0  0  0  0  0  0  0  0
   -1.3966   -1.9900    0.6082 H   0  0  0  0  0  0  0  0  0  0  0  0
   -2.2020    0.3975    0.0002 H   0  0  0  0  0  0  0  0  0  0  0  0
   -0.4830    0.0211   -0.9347 H   0  0  0  0  0  0  0  0  0  0  0  0
    3.4935    1.5079    0.0660 H   0  0  0  0  0  0  0  0  0  0  0  0
  1  2  3  0
  2  3  1  0
  3  4  1  0
  4  5  1  0
  5  6  2  0
  6  7  1  0
  7  8  2  0
  8  9  1  0
  9 10  1  0
  9 11  2  0
 11 12  1  0
 12 13  2  0
 13 14  1  0
 14 15  2  0
 15 16  1  0
 15 17  1  0
 17 18  1  0
 18 19  1  1
 18 20  1  0
 20 21  2  0
 21 22  1  0
 21 23  1  0
 23 24  1  0
 24 25  1  1
 25 26  2  0
 25 27  1  0
 27 28  1  0
 28 29  1  0
 29 30  1  0
 30 31  1  0
 31 32  1  0
 24 33  1  0
 33 34  1  0
 17 35  2  0
  8 36  1  0
 36 37  2  0
 37  5  1  0
 35 12  1  0
 34 18  1  0
 34 24  1  0
 32 27  1  0
  1 38  1  0
  3 39  1  0
  3 40  1  0
  6 41  1  0
 11 42  1  0
 13 43  1  0
 19 44  1  0
 19 45  1  0
 19 46  1  0
 22 47  1  0
 22 48  1  0
 28 49  1  0
 28 50  1  0
 29 51  1  0
 29 52  1  0
 31 53  1  0
 31 54  1  0
 32 55  1  0
 32 56  1  0
 33 57  1  0
 33 58  1  0
 34 59  1  1
 35 60  1  0
 36 61  1  0
M  END
$$$$
