
     RDKit          3D

 43 46  0  0  0  0  0  0  0  0999 V2000
   -7.2306   -0.4590    1.0784 C   0  0  0  0  0  0  0  0  0  0  0  0
   -7.2426   -0.4862   -0.4312 C   0  0  0  0  0  0  0  0  0  0  0  0
   -6.1931   -1.2464   -0.9530 O   0  0  0  0  0  0  0  0  0  0  0  0
   -4.8776   -0.9025   -0.7274 C   0  0  0  0  0  0  0  0  0  0  0  0
   -4.5450    0.1968   -0.0024 C   0  0  0  0  0  0  0  0  0  0  0  0
   -3.2103    0.4937    0.1948 C   0  0  0  0  0  0  0  0  0  0  0  0
   -2.1828   -0.2736   -0.3104 C   0  0  0  0  0  0  0  0  0  0  0  0
   -0.8057    0.1375   -0.0378 C   0  0  0  0  0  0  0  0  0  0  0  0
    0.2864   -0.5668   -0.5013 C   0  0  0  0  0  0  0  0  0  0  0  0
    1.5522   -0.1869   -0.2495 N   0  0  0  0  0  0  0  0  0  0  0  0
    2.7813   -0.6529   -0.5556 C   0  0  0  0  0  0  0  0  0  0  0  0
    2.9802   -1.6745   -1.2294 O   0  0  0  0  0  0  0  0  0  0  0  0
    3.7204    0.1455   -0.0280 N   0  0  0  0  0  0  0  0  0  0  0  0
    5.1458    0.0373   -0.0979 C   0  0  0  0  0  0  0  0  0  0  0  0
    5.9093    0.7126    0.8344 C   0  0  0  0  0  0  0  0  0  0  0  0
    7.2870    0.6741    0.8543 C   0  0  0  0  0  0  0  0  0  0  0  0
    7.9263   -0.0770   -0.1063 C   0  0  0  0  0  0  0  0  0  0  0  0
    7.1814   -0.7647   -1.0541 C   0  0  0  0  0  0  0  0  0  0  0  0
    5.7854   -0.7036   -1.0450 C   0  0  0  0  0  0  0  0  0  0  0  0
    3.0531    1.1010    0.6016 N   0  0  0  0  0  0  0  0  0  0  0  0
    1.7398    0.9108    0.4748 C   0  0  0  0  0  0  0  0  0  0  0  0
    0.6935    1.6807    0.9817 C   0  0  0  0  0  0  0  0  0  0  0  0
    0.9426    2.8407    1.7471 N   0  0  0  0  0  0  0  0  0  0  0  0
   -0.5433    1.2393    0.6892 N   0  0  0  0  0  0  0  0  0  0  0  0
   -2.5274   -1.3699   -1.0339 C   0  0  0  0  0  0  0  0  0  0  0  0
   -3.8483   -1.6889   -1.2454 C   0  0  0  0  0  0  0  0  0  0  0  0
   -6.3229   -0.9835    1.4474 H   0  0  0  0  0  0  0  0  0  0  0  0
   -8.1356   -1.0394    1.4119 H   0  0  0  0  0  0  0  0  0  0  0  0
   -7.3718    0.5560    1.4710 H   0  0  0  0  0  0  0  0  0  0  0  0
   -7.0688    0.5758   -0.7736 H   0  0  0  0  0  0  0  0  0  0  0  0
   -8.2386   -0.8114   -0.8054 H   0  0  0  0  0  0  0  0  0  0  0  0
   -5.2714    0.8729    0.4312 H   0  0  0  0  0  0  0  0  0  0  0  0
   -2.9495    1.3856    0.7834 H   0  0  0  0  0  0  0  0  0  0  0  0
    0.1596   -1.4545   -1.0871 H   0  0  0  0  0  0  0  0  0  0  0  0
    5.4343    1.3174    1.6098 H   0  0  0  0  0  0  0  0  0  0  0  0
    7.8900    1.2029    1.5846 H   0  0  0  0  0  0  0  0  0  0  0  0
    9.0104   -0.1173   -0.1039 H   0  0  0  0  0  0  0  0  0  0  0  0
    7.6877   -1.3486   -1.8004 H   0  0  0  0  0  0  0  0  0  0  0  0
    5.2086   -1.2445   -1.7900 H   0  0  0  0  0  0  0  0  0  0  0  0
    1.1676    2.7581    2.7501 H   0  0  0  0  0  0  0  0  0  0  0  0
    0.8984    3.7672    1.2988 H   0  0  0  0  0  0  0  0  0  0  0  0
   -1.7582   -1.9949   -1.4457 H   0  0  0  0  0  0  0  0  0  0  0  0
   -4.1178   -2.5590   -1.8197 H   0  0  0  0  0  0  0  0  0  0  0  0
  1  2  1  0
  2  3  1  0
  3  4  1  0
  4  5  2  0
  5  6  1  0
  6  7  2  0
  7  8  1  0
  8  9  2  0
  9 10  1  0
 10 11  1  0
 11 12  2  0
 11 13  1  0
 13 14  1  0
 14 15  2  0
 15 16  1  0
 16 17  2  0
 17 18  1  0
 18 19  2  0
 13 20  1  0
 20 21  2  0
 21 22  1  0
 22 23  1  0
 22 24  2  0
  7 25  1  0
 25 26  2  0
 26  4  1  0
 24  8  1  0
 21 10  1  0
 19 14  1  0
  1 27  1  0
  1 28  1  0
  1 29  1  0
  2 30  1  0
  2 31  1  0
  5 32  1  0
  6 33  1  0
  9 34  1  0
 15 35  1  0
 16 36  1  0
 17 37  1  0
 18 38  1  0
 19 39  1  0
 23 40  1  0
 23 41  1  0
 25 42  1  0
 26 43  1  0
M  END
$$$$
