
     RDKit          3D

 63 66  0  0  0  0  0  0  0  0999 V2000
   -2.9521    4.2917    0.0165 C   0  0  0  0  0  0  0  0  0  0  0  0
   -1.9281    3.6450   -0.8825 C   0  0  0  0  0  0  0  0  0  0  0  0
   -2.6108    2.9638   -2.0585 C   0  0  0  0  0  0  0  0  0  0  0  0
   -3.5497    1.9118   -1.5729 C   0  0  0  0  0  0  0  0  0  0  0  0
   -4.8881    1.9290   -1.4812 N   0  0  0  0  0  0  0  0  0  0  0  0
   -5.3331    0.7943   -0.9925 N   0  0  0  0  0  0  0  0  0  0  0  0
   -6.6948    0.3700   -0.7216 C   0  0  0  0  0  0  0  0  0  0  0  0
   -4.2451   -0.0006   -0.7536 C   0  0  0  0  0  0  0  0  0  0  0  0
   -4.1160   -1.2717   -0.2531 C   0  0  0  0  0  0  0  0  0  0  0  0
   -5.1244   -1.9197    0.0821 O   0  0  0  0  0  0  0  0  0  0  0  0
   -2.8472   -1.7750   -0.1460 N   0  0  0  0  0  0  0  0  0  0  0  0
   -1.7419   -1.1290   -0.4878 C   0  0  0  0  0  0  0  0  0  0  0  0
   -0.3957   -1.6798   -0.3719 C   0  0  0  0  0  0  0  0  0  0  0  0
    0.7015   -0.8983   -0.7844 C   0  0  0  0  0  0  0  0  0  0  0  0
    2.0002   -1.3457   -0.7138 C   0  0  0  0  0  0  0  0  0  0  0  0
    3.2921   -0.3332   -1.2403 S   0  0  0  0  0  6  0  0  0  0  0  0
    2.8295    0.5040   -2.4228 O   0  0  0  0  0  0  0  0  0  0  0  0
    4.3651   -1.2451   -1.8275 O   0  0  0  0  0  0  0  0  0  0  0  0
    4.0202    0.6216   -0.0659 N   0  0  0  0  0  0  0  0  0  0  0  0
    3.1224    1.5448    0.5363 C   0  0  0  0  0  0  0  0  0  0  0  0
    3.5520    1.7437    1.9930 C   0  0  0  0  0  0  0  0  0  0  0  0
    4.9496    2.1471    2.0394 N   0  0  0  0  0  0  0  0  0  0  0  0
    5.1624    3.3205    1.1752 C   0  0  0  0  0  0  0  0  0  0  0  0
    5.7909    1.0984    1.5268 C   0  0  0  0  0  0  0  0  0  0  0  0
    4.9913    0.0228    0.7770 C   0  0  0  0  0  0  0  0  0  0  0  0
    2.2650   -2.5989   -0.2255 C   0  0  0  0  0  0  0  0  0  0  0  0
    1.2011   -3.3569    0.1751 C   0  0  0  0  0  0  0  0  0  0  0  0
   -0.1416   -2.9202    0.1123 C   0  0  0  0  0  0  0  0  0  0  0  0
   -1.1304   -3.7885    0.5516 O   0  0  0  0  0  0  0  0  0  0  0  0
   -0.7785   -5.0590    1.0394 C   0  0  0  0  0  0  0  0  0  0  0  0
   -1.9839   -5.8600    1.4713 C   0  0  0  0  0  0  0  0  0  0  0  0
   -1.8861    0.1290   -0.9813 N   0  0  0  0  0  0  0  0  0  0  0  0
   -3.0931    0.6670   -1.1069 C   0  0  0  0  0  0  0  0  0  0  0  0
   -3.6987    4.8493   -0.5789 H   0  0  0  0  0  0  0  0  0  0  0  0
   -2.3993    5.0204    0.6602 H   0  0  0  0  0  0  0  0  0  0  0  0
   -3.4573    3.5879    0.6929 H   0  0  0  0  0  0  0  0  0  0  0  0
   -1.3362    2.9335   -0.2862 H   0  0  0  0  0  0  0  0  0  0  0  0
   -1.3025    4.4501   -1.2977 H   0  0  0  0  0  0  0  0  0  0  0  0
   -3.0917    3.7313   -2.6657 H   0  0  0  0  0  0  0  0  0  0  0  0
   -1.8233    2.4760   -2.6482 H   0  0  0  0  0  0  0  0  0  0  0  0
   -6.7691   -0.2578    0.1954 H   0  0  0  0  0  0  0  0  0  0  0  0
   -7.0741   -0.2790   -1.5606 H   0  0  0  0  0  0  0  0  0  0  0  0
   -7.3399    1.2438   -0.5575 H   0  0  0  0  0  0  0  0  0  0  0  0
   -2.8305   -2.7432    0.2400 H   0  0  0  0  0  0  0  0  0  0  0  0
    0.4560    0.0905   -1.1653 H   0  0  0  0  0  0  0  0  0  0  0  0
    2.0781    1.1728    0.5716 H   0  0  0  0  0  0  0  0  0  0  0  0
    3.0838    2.5146    0.0033 H   0  0  0  0  0  0  0  0  0  0  0  0
    3.4926    0.7425    2.4641 H   0  0  0  0  0  0  0  0  0  0  0  0
    2.8962    2.4855    2.4654 H   0  0  0  0  0  0  0  0  0  0  0  0
    5.1368    2.9981    0.1151 H   0  0  0  0  0  0  0  0  0  0  0  0
    6.1891    3.6766    1.3937 H   0  0  0  0  0  0  0  0  0  0  0  0
    4.3898    4.0707    1.4243 H   0  0  0  0  0  0  0  0  0  0  0  0
    6.2823    0.5824    2.3703 H   0  0  0  0  0  0  0  0  0  0  0  0
    6.5862    1.5041    0.8727 H   0  0  0  0  0  0  0  0  0  0  0  0
    5.7575   -0.4755    0.1125 H   0  0  0  0  0  0  0  0  0  0  0  0
    4.5754   -0.6850    1.5007 H   0  0  0  0  0  0  0  0  0  0  0  0
    3.2979   -2.9635   -0.1648 H   0  0  0  0  0  0  0  0  0  0  0  0
    1.3990   -4.3459    0.5619 H   0  0  0  0  0  0  0  0  0  0  0  0
   -0.1308   -4.9541    1.9379 H   0  0  0  0  0  0  0  0  0  0  0  0
   -0.2711   -5.6752    0.2508 H   0  0  0  0  0  0  0  0  0  0  0  0
   -1.7985   -6.9476    1.3744 H   0  0  0  0  0  0  0  0  0  0  0  0
   -2.2354   -5.6872    2.5529 H   0  0  0  0  0  0  0  0  0  0  0  0
   -2.8648   -5.6386    0.8420 H   0  0  0  0  0  0  0  0  0  0  0  0
  1  2  1  0
  2  3  1  0
  3  4  1  0
  4  5  2  0
  5  6  1  0
  6  7  1  0
  6  8  1  0
  8  9  1  0
  9 10  2  0
  9 11  1  0
 11 12  1  0
 12 13  1  0
 13 14  2  0
 14 15  1  0
 15 16  1  0
 16 17  2  0
 16 18  2  0
 16 19  1  0
 19 20  1  0
 20 21  1  0
 21 22  1  0
 22 23  1  0
 22 24  1  0
 24 25  1  0
 15 26  2  0
 26 27  1  0
 27 28  2  0
 28 29  1  0
 29 30  1  0
 30 31  1  0
 12 32  2  0
 32 33  1  0
 33  4  1  0
 33  8  2  0
 28 13  1  0
 25 19  1  0
  1 34  1  0
  1 35  1  0
  1 36  1  0
  2 37  1  0
  2 38  1  0
  3 39  1  0
  3 40  1  0
  7 41  1  0
  7 42  1  0
  7 43  1  0
 11 44  1  0
 14 45  1  0
 20 46  1  0
 20 47  1  0
 21 48  1  0
 21 49  1  0
 23 50  1  0
 23 51  1  0
 23 52  1  0
 24 53  1  0
 24 54  1  0
 25 55  1  0
 25 56  1  0
 26 57  1  0
 27 58  1  0
 30 59  1  0
 30 60  1  0
 31 61  1  0
 31 62  1  0
 31 63  1  0
M  END
$$$$
