
     RDKit          3D

 56 58  0  0  0  0  0  0  0  0999 V2000
   -4.4135    2.2695   -3.2377 C   0  0  0  0  0  0  0  0  0  0  0  0
   -4.7687    1.3476   -2.2251 O   0  0  0  0  0  0  0  0  0  0  0  0
   -3.8672    0.9825   -1.2571 C   0  0  0  0  0  0  0  0  0  0  0  0
   -2.5852    1.4797   -1.2203 C   0  0  0  0  0  0  0  0  0  0  0  0
   -1.7350    1.0812   -0.2336 C   0  0  0  0  0  0  0  0  0  0  0  0
   -2.1513    0.1702    0.7471 C   0  0  0  0  0  0  0  0  0  0  0  0
   -1.2141   -0.1793    1.7605 N   0  0  0  0  0  0  0  0  0  0  0  0
    0.0735   -0.6718    1.3595 C   0  0  0  0  0  0  0  0  0  0  0  0
    1.1753    0.1409    1.5955 C   0  0  0  0  0  0  0  0  0  0  0  0
    2.4306   -0.2648    1.2361 C   0  0  0  0  0  0  0  0  0  0  0  0
    3.5561    0.5698    1.4664 N   0  0  0  0  0  0  0  0  0  0  0  0
    4.8982    0.1966    1.1020 C   0  0  2  0  0  0  0  0  0  0  0  0
    5.8196    1.3093    1.6247 C   0  0  0  0  0  0  0  0  0  0  0  0
    6.6064    1.9774    0.5485 C   0  0  0  0  0  0  0  0  0  0  0  0
    5.8551    2.4345   -0.5248 O   0  0  0  0  0  0  0  0  0  0  0  0
    4.8195    1.6072   -0.8615 C   0  0  0  0  0  0  0  0  0  0  0  0
    5.1436    0.1947   -0.3987 C   0  0  2  0  0  0  0  0  0  0  0  0
    4.3673   -0.7334   -1.1396 N   0  0  0  0  0  0  0  0  0  0  0  0
    2.5632   -1.4667    0.6510 N   0  0  0  0  0  0  0  0  0  0  0  0
    1.5285   -2.2092    0.4406 N   0  0  0  0  0  0  0  0  0  0  0  0
    0.2459   -1.8940    0.7625 C   0  0  0  0  0  0  0  0  0  0  0  0
   -0.7938   -2.8637    0.5481 C   0  0  0  0  0  0  0  0  0  0  0  0
   -0.4758   -4.0198   -0.2519 N   0  0  0  0  0  0  0  0  0  0  0  0
   -1.9271   -2.7602    1.0043 O   0  0  0  0  0  0  0  0  0  0  0  0
   -3.3879   -0.2745    0.6649 N   0  0  0  0  0  0  0  0  0  0  0  0
   -4.2480    0.0873   -0.2811 C   0  0  0  0  0  0  0  0  0  0  0  0
   -5.6379   -0.4609   -0.3386 C   0  0  0  0  0  0  0  0  0  0  0  0
   -5.6059   -1.7023   -1.2097 C   0  0  0  0  0  0  0  0  0  0  0  0
   -6.0181   -0.8383    1.0887 C   0  0  0  0  0  0  0  0  0  0  0  0
   -5.3633    2.6528   -3.6772 H   0  0  0  0  0  0  0  0  0  0  0  0
   -3.8234    3.1257   -2.8217 H   0  0  0  0  0  0  0  0  0  0  0  0
   -3.8521    1.7240   -4.0174 H   0  0  0  0  0  0  0  0  0  0  0  0
   -2.2404    2.1868   -1.9691 H   0  0  0  0  0  0  0  0  0  0  0  0
   -0.7231    1.4516   -0.1750 H   0  0  0  0  0  0  0  0  0  0  0  0
   -1.4681   -0.0762    2.7608 H   0  0  0  0  0  0  0  0  0  0  0  0
    0.9950    1.1115    2.0779 H   0  0  0  0  0  0  0  0  0  0  0  0
    3.3549    1.5052    1.9312 H   0  0  0  0  0  0  0  0  0  0  0  0
    5.1761   -0.7896    1.5496 H   0  0  0  0  0  0  0  0  0  0  0  0
    5.2551    2.0778    2.1888 H   0  0  0  0  0  0  0  0  0  0  0  0
    6.5450    0.8282    2.3164 H   0  0  0  0  0  0  0  0  0  0  0  0
    7.0150    2.9246    1.0213 H   0  0  0  0  0  0  0  0  0  0  0  0
    7.5133    1.4366    0.2173 H   0  0  0  0  0  0  0  0  0  0  0  0
    4.6045    1.6123   -1.9506 H   0  0  0  0  0  0  0  0  0  0  0  0
    3.9322    1.9403   -0.2806 H   0  0  0  0  0  0  0  0  0  0  0  0
    6.2398    0.0695   -0.5387 H   0  0  0  0  0  0  0  0  0  0  0  0
    4.7352   -1.7048   -1.2043 H   0  0  0  0  0  0  0  0  0  0  0  0
    4.0404   -0.3556   -2.0706 H   0  0  0  0  0  0  0  0  0  0  0  0
    0.5111   -4.3381   -0.3395 H   0  0  0  0  0  0  0  0  0  0  0  0
   -1.2444   -4.5138   -0.7279 H   0  0  0  0  0  0  0  0  0  0  0  0
   -6.2774    0.3112   -0.7528 H   0  0  0  0  0  0  0  0  0  0  0  0
   -4.7116   -1.7108   -1.8667 H   0  0  0  0  0  0  0  0  0  0  0  0
   -5.6085   -2.5957   -0.5309 H   0  0  0  0  0  0  0  0  0  0  0  0
   -6.4922   -1.7014   -1.8455 H   0  0  0  0  0  0  0  0  0  0  0  0
   -6.2963   -1.8964    1.1675 H   0  0  0  0  0  0  0  0  0  0  0  0
   -6.8674   -0.1670    1.3704 H   0  0  0  0  0  0  0  0  0  0  0  0
   -5.2025   -0.6182    1.8039 H   0  0  0  0  0  0  0  0  0  0  0  0
  1  2  1  0
  2  3  1  0
  3  4  2  0
  4  5  1  0
  5  6  2  0
  6  7  1  0
  7  8  1  0
  8  9  2  0
  9 10  1  0
 10 11  1  0
 11 12  1  0
 12 13  1  0
 13 14  1  0
 14 15  1  0
 15 16  1  0
 16 17  1  0
 17 18  1  0
 10 19  2  0
 19 20  1  0
 20 21  2  0
 21 22  1  0
 22 23  1  0
 22 24  2  0
  6 25  1  0
 25 26  2  0
 26 27  1  0
 27 28  1  0
 27 29  1  0
 26  3  1  0
 21  8  1  0
 17 12  1  0
  1 30  1  0
  1 31  1  0
  1 32  1  0
  4 33  1  0
  5 34  1  0
  7 35  1  0
  9 36  1  0
 11 37  1  0
 12 38  1  1
 13 39  1  0
 13 40  1  0
 14 41  1  0
 14 42  1  0
 16 43  1  0
 16 44  1  0
 17 45  1  1
 18 46  1  0
 18 47  1  0
 23 48  1  0
 23 49  1  0
 27 50  1  0
 28 51  1  0
 28 52  1  0
 28 53  1  0
 29 54  1  0
 29 55  1  0
 29 56  1  0
M  END
$$$$
