
     RDKit          3D

 50 52  0  0  0  0  0  0  0  0999 V2000
    1.2214    1.7109    0.7162 C   0  0  0  0  0  0  0  0  0  0  0  0
    0.8468    0.5366   -0.1482 C   0  0  0  0  0  0  0  0  0  0  0  0
    0.9387   -0.7356    0.6578 C   0  0  0  0  0  0  0  0  0  0  0  0
    1.7544    0.4148   -1.3552 C   0  0  0  0  0  0  0  0  0  0  0  0
    3.1469    0.2341   -0.8817 C   0  0  0  0  0  0  0  0  0  0  0  0
    3.9477    1.3305   -0.6650 C   0  0  0  0  0  0  0  0  0  0  0  0
    5.2482    1.2031   -0.2246 C   0  0  0  0  0  0  0  0  0  0  0  0
    5.7520   -0.0600    0.0023 C   0  0  0  0  0  0  0  0  0  0  0  0
    7.1617   -0.2643    0.4828 C   0  0  0  0  0  0  0  0  0  0  0  0
    7.1784   -0.5499    1.8462 F   0  0  0  0  0  0  0  0  0  0  0  0
    7.8774    0.9122    0.2597 F   0  0  0  0  0  0  0  0  0  0  0  0
    7.7751   -1.2857   -0.2198 F   0  0  0  0  0  0  0  0  0  0  0  0
    4.9612   -1.1702   -0.2104 C   0  0  0  0  0  0  0  0  0  0  0  0
    3.6631   -1.0337   -0.6504 C   0  0  0  0  0  0  0  0  0  0  0  0
   -0.5880    0.7174   -0.5689 C   0  0  0  0  0  0  0  0  0  0  0  0
   -0.8174    0.7877   -1.7837 O   0  0  0  0  0  0  0  0  0  0  0  0
   -1.5463    0.7915    0.4447 N   0  0  0  0  0  0  0  0  0  0  0  0
   -2.9503    0.9438    0.2368 C   0  0  0  0  0  0  0  0  0  0  0  0
   -3.6874   -0.1641   -0.4373 C   0  0  1  0  0  0  0  0  0  0  0  0
   -5.1607    0.2883   -0.4902 C   0  0  0  0  0  0  0  0  0  0  0  0
   -5.7638    0.5378    0.8380 C   0  0  0  0  0  0  0  0  0  0  0  0
   -6.2426   -0.5878   -0.0636 C   0  0  0  0  0  0  0  0  0  0  0  0
   -3.2131   -0.4140   -1.7563 N   0  0  0  0  0  0  0  0  0  0  0  0
   -2.6838   -1.7278   -1.8078 C   0  0  0  0  0  0  0  0  0  0  0  0
   -2.1116   -2.2313   -2.8363 O   0  0  0  0  0  0  0  0  0  0  0  0
   -2.8946   -2.3594   -0.5616 N   0  0  0  0  0  0  0  0  0  0  0  0
   -3.5594   -1.4362    0.2736 C   0  0  0  0  0  0  0  0  0  0  0  0
   -3.9428   -1.7587    1.4361 O   0  0  0  0  0  0  0  0  0  0  0  0
    2.1994    1.5747    1.2093 H   0  0  0  0  0  0  0  0  0  0  0  0
    0.4065    1.9607    1.4087 H   0  0  0  0  0  0  0  0  0  0  0  0
    1.3528    2.6141    0.0508 H   0  0  0  0  0  0  0  0  0  0  0  0
    0.1137   -0.8082    1.3949 H   0  0  0  0  0  0  0  0  0  0  0  0
    1.9312   -0.8008    1.1635 H   0  0  0  0  0  0  0  0  0  0  0  0
    0.7876   -1.6176   -0.0317 H   0  0  0  0  0  0  0  0  0  0  0  0
    1.4527   -0.4704   -1.9483 H   0  0  0  0  0  0  0  0  0  0  0  0
    1.6551    1.3050   -2.0155 H   0  0  0  0  0  0  0  0  0  0  0  0
    3.5622    2.3245   -0.8400 H   0  0  0  0  0  0  0  0  0  0  0  0
    5.8847    2.0801   -0.0526 H   0  0  0  0  0  0  0  0  0  0  0  0
    5.3899   -2.1521   -0.0216 H   0  0  0  0  0  0  0  0  0  0  0  0
    3.0396   -1.8772   -0.8196 H   0  0  0  0  0  0  0  0  0  0  0  0
   -1.2193    0.7306    1.4773 H   0  0  0  0  0  0  0  0  0  0  0  0
   -3.1684    1.9107   -0.3168 H   0  0  0  0  0  0  0  0  0  0  0  0
   -3.4812    1.0929    1.2305 H   0  0  0  0  0  0  0  0  0  0  0  0
   -5.3304    1.0467   -1.2721 H   0  0  0  0  0  0  0  0  0  0  0  0
   -6.4482    1.4121    0.9984 H   0  0  0  0  0  0  0  0  0  0  0  0
   -5.2579    0.2121    1.7718 H   0  0  0  0  0  0  0  0  0  0  0  0
   -6.0974   -1.6323    0.2688 H   0  0  0  0  0  0  0  0  0  0  0  0
   -7.2507   -0.4115   -0.4896 H   0  0  0  0  0  0  0  0  0  0  0  0
   -3.2429    0.2285   -2.6088 H   0  0  0  0  0  0  0  0  0  0  0  0
   -2.5904   -3.3527   -0.3377 H   0  0  0  0  0  0  0  0  0  0  0  0
  1  2  1  0
  2  3  1  0
  2  4  1  0
  4  5  1  0
  5  6  2  0
  6  7  1  0
  7  8  2  0
  8  9  1  0
  9 10  1  0
  9 11  1  0
  9 12  1  0
  8 13  1  0
 13 14  2  0
  2 15  1  0
 15 16  2  0
 15 17  1  0
 17 18  1  0
 19 18  1  1
 19 20  1  0
 20 21  1  0
 21 22  1  0
 19 23  1  0
 23 24  1  0
 24 25  2  0
 24 26  1  0
 26 27  1  0
 27 28  2  0
 14  5  1  0
 27 19  1  0
 22 20  1  0
  1 29  1  0
  1 30  1  0
  1 31  1  0
  3 32  1  0
  3 33  1  0
  3 34  1  0
  4 35  1  0
  4 36  1  0
  6 37  1  0
  7 38  1  0
 13 39  1  0
 14 40  1  0
 17 41  1  0
 18 42  1  0
 18 43  1  0
 20 44  1  0
 21 45  1  0
 21 46  1  0
 22 47  1  0
 22 48  1  0
 23 49  1  0
 26 50  1  0
M  END
$$$$
