
     RDKit          3D

 37 40  0  0  0  0  0  0  0  0999 V2000
    1.6434   -0.8707    0.2071 N   0  0  0  0  0  0  0  0  0  0  0  0
    3.0475   -0.9700    0.3564 C   0  0  0  0  0  0  0  0  0  0  0  0
    3.6786   -2.2036    0.5615 C   0  0  0  0  0  0  0  0  0  0  0  0
    5.0397   -2.3184    0.7083 C   0  0  0  0  0  0  0  0  0  0  0  0
    5.8596   -1.2345    0.6629 C   0  0  0  0  0  0  0  0  0  0  0  0
    5.2937    0.0075    0.4631 C   0  0  0  0  0  0  0  0  0  0  0  0
    3.9383    0.0803    0.3218 C   0  0  0  0  0  0  0  0  0  0  0  0
    0.8698    0.2960   -0.0043 C   0  0  0  0  0  0  0  0  0  0  0  0
    1.3078    1.5561   -0.1078 N   0  0  0  0  0  0  0  0  0  0  0  0
    0.5014    2.6054   -0.3087 C   0  0  0  0  0  0  0  0  0  0  0  0
    0.7523    3.9537   -0.4408 C   0  0  0  0  0  0  0  0  0  0  0  0
   -0.4715    4.5412   -0.6290 C   0  0  0  0  0  0  0  0  0  0  0  0
   -1.3775    3.5558   -0.6034 N   0  0  0  0  0  0  0  0  0  0  0  0
   -0.7974    2.3703   -0.4088 N   0  0  0  0  0  0  0  0  0  0  0  0
   -1.3344    1.1412   -0.3186 C   0  0  0  0  0  0  0  0  0  0  0  0
   -2.7256    0.9586   -0.4338 N   0  0  0  0  0  0  0  0  0  0  0  0
   -3.4779   -0.2318   -0.3692 C   0  0  0  0  0  0  0  0  0  0  0  0
   -2.9598   -1.4925   -0.1718 C   0  0  0  0  0  0  0  0  0  0  0  0
   -3.6932   -2.6579   -0.1083 C   0  0  0  0  0  0  0  0  0  0  0  0
   -5.0617   -2.5731   -0.2524 C   0  0  0  0  0  0  0  0  0  0  0  0
   -5.6419   -1.3397   -0.4528 C   0  0  0  0  0  0  0  0  0  0  0  0
   -4.8496   -0.2163   -0.5056 C   0  0  0  0  0  0  0  0  0  0  0  0
   -0.4551    0.1635   -0.1188 N   0  0  0  0  0  0  0  0  0  0  0  0
    1.1389   -1.7973    0.2653 H   0  0  0  0  0  0  0  0  0  0  0  0
    3.0708   -3.0989    0.6058 H   0  0  0  0  0  0  0  0  0  0  0  0
    5.4468   -3.3191    0.8644 H   0  0  0  0  0  0  0  0  0  0  0  0
    6.9161   -1.4230    0.7884 H   0  0  0  0  0  0  0  0  0  0  0  0
    5.9448    0.8561    0.4285 H   0  0  0  0  0  0  0  0  0  0  0  0
    3.5688    1.0815    0.1693 H   0  0  0  0  0  0  0  0  0  0  0  0
    1.7172    4.4205   -0.4004 H   0  0  0  0  0  0  0  0  0  0  0  0
   -0.6610    5.5925   -0.7698 H   0  0  0  0  0  0  0  0  0  0  0  0
   -3.3066    1.8376   -0.5929 H   0  0  0  0  0  0  0  0  0  0  0  0
   -1.9173   -1.6350   -0.0530 H   0  0  0  0  0  0  0  0  0  0  0  0
   -3.2481   -3.6287    0.0482 H   0  0  0  0  0  0  0  0  0  0  0  0
   -5.6736   -3.4640   -0.2089 H   0  0  0  0  0  0  0  0  0  0  0  0
   -6.7083   -1.2713   -0.5653 H   0  0  0  0  0  0  0  0  0  0  0  0
   -5.3748    0.7277   -0.6669 H   0  0  0  0  0  0  0  0  0  0  0  0
  1  2  1  0
  2  3  2  0
  3  4  1  0
  4  5  2  0
  5  6  1  0
  6  7  2  0
  1  8  1  0
  8  9  2  0
  9 10  1  0
 10 11  2  0
 11 12  1  0
 12 13  2  0
 13 14  1  0
 14 15  1  0
 15 16  1  0
 16 17  1  0
 17 18  2  0
 18 19  1  0
 19 20  2  0
 20 21  1  0
 21 22  2  0
 15 23  2  0
  7  2  1  0
 23  8  1  0
 14 10  1  0
 22 17  1  0
  1 24  1  0
  3 25  1  0
  4 26  1  0
  5 27  1  0
  6 28  1  0
  7 29  1  0
 11 30  1  0
 12 31  1  0
 16 32  1  0
 18 33  1  0
 19 34  1  0
 20 35  1  0
 21 36  1  0
 22 37  1  0
M  END
$$$$
