
     RDKit          3D

 25 26  0  0  0  0  0  0  0  0999 V2000
    4.7996   -0.8089    2.5782 Cl  0  0  0  0  0  0  0  0  0  0  0  0
    3.4961   -0.4544    1.4553 C   0  0  0  0  0  0  0  0  0  0  0  0
    2.9839    0.7743    1.3323 N   0  0  0  0  0  0  0  0  0  0  0  0
    1.9756    1.0917    0.4763 C   0  0  0  0  0  0  0  0  0  0  0  0
    1.4451    0.0711   -0.3208 C   0  0  0  0  0  0  0  0  0  0  0  0
    0.3323    0.3828   -1.2770 C   0  0  0  0  0  0  0  0  0  0  0  0
   -0.9644    0.1984   -0.6039 N   0  0  0  0  0  0  0  0  0  0  0  0
   -1.4359   -1.0303   -0.0290 C   0  0  0  0  0  0  0  0  0  0  0  0
   -2.8090   -1.3196   -0.6535 C   0  0  0  0  0  0  0  0  0  0  0  0
   -3.5351    0.3507   -0.3916 S   0  0  0  0  0  0  0  0  0  0  0  0
   -1.9491    1.2287   -0.4248 C   0  0  0  0  0  0  0  0  0  0  0  0
   -1.6987    2.5108   -0.3149 N   0  0  0  0  0  0  0  0  0  0  0  0
   -2.8268    3.3321   -0.1458 C   0  0  0  0  0  0  0  0  0  0  0  0
   -3.7571    4.0309    0.0060 N   0  0  0  0  0  0  0  0  0  0  0  0
    1.9767   -1.1959   -0.1906 C   0  0  0  0  0  0  0  0  0  0  0  0
    3.0002   -1.5054    0.6820 C   0  0  0  0  0  0  0  0  0  0  0  0
    1.6078    2.0970    0.4238 H   0  0  0  0  0  0  0  0  0  0  0  0
    0.4266    1.4047   -1.6722 H   0  0  0  0  0  0  0  0  0  0  0  0
    0.4359   -0.3092   -2.1444 H   0  0  0  0  0  0  0  0  0  0  0  0
   -1.6563   -0.9046    1.0519 H   0  0  0  0  0  0  0  0  0  0  0  0
   -0.7282   -1.8308   -0.2195 H   0  0  0  0  0  0  0  0  0  0  0  0
   -3.3663   -2.0239   -0.0410 H   0  0  0  0  0  0  0  0  0  0  0  0
   -2.7465   -1.5696   -1.7143 H   0  0  0  0  0  0  0  0  0  0  0  0
    1.5974   -2.0044   -0.7837 H   0  0  0  0  0  0  0  0  0  0  0  0
    3.3962   -2.5162    0.7594 H   0  0  0  0  0  0  0  0  0  0  0  0
  1  2  1  0
  2  3  2  0
  3  4  1  0
  4  5  2  0
  5  6  1  0
  6  7  1  0
  7  8  1  0
  8  9  1  0
  9 10  1  0
 10 11  1  0
 11 12  2  0
 12 13  1  0
 13 14  3  0
  5 15  1  0
 15 16  2  0
 16  2  1  0
 11  7  1  0
  4 17  1  0
  6 18  1  0
  6 19  1  0
  8 20  1  0
  8 21  1  0
  9 22  1  0
  9 23  1  0
 15 24  1  0
 16 25  1  0
M  END
$$$$
