
     RDKit          3D

 37 39  0  0  0  0  0  0  0  0999 V2000
   -6.1567   -2.4613   -0.0025 C   0  0  0  0  0  0  0  0  0  0  0  0
   -5.1937   -1.3198   -0.0532 C   0  0  0  0  0  0  0  0  0  0  0  0
   -5.3641   -0.1348   -0.2692 N   0  0  0  0  0  0  0  0  0  0  0  0
   -4.4055    0.7652   -0.2802 C   0  0  0  0  0  0  0  0  0  0  0  0
   -4.7278    2.2034   -0.5319 C   0  0  0  0  0  0  0  0  0  0  0  0
   -3.0945    0.3644   -0.0325 C   0  0  0  0  0  0  0  0  0  0  0  0
   -3.3501   -1.4079    0.2196 S   0  0  0  0  0  0  0  0  0  0  0  0
   -1.8168    0.9658    0.0666 C   0  0  0  0  0  0  0  0  0  0  0  0
   -1.4434    2.2567   -0.2022 C   0  0  0  0  0  0  0  0  0  0  0  0
   -0.2104    2.8489   -0.0613 C   0  0  0  0  0  0  0  0  0  0  0  0
    0.7299    1.9985    0.4087 N   0  0  0  0  0  0  0  0  0  0  0  0
    0.4207    0.7095    0.6903 C   0  0  0  0  0  0  0  0  0  0  0  0
    1.5934    0.0720    1.1826 N   0  0  0  0  0  0  0  0  0  0  0  0
    2.8228   -0.3253    0.5974 C   0  0  0  0  0  0  0  0  0  0  0  0
    3.1077   -0.1217   -0.7308 C   0  0  0  0  0  0  0  0  0  0  0  0
    4.3483   -0.5068   -1.2491 C   0  0  0  0  0  0  0  0  0  0  0  0
    5.3135   -1.0998   -0.4367 C   0  0  0  0  0  0  0  0  0  0  0  0
    4.9439   -1.2662    0.8818 C   0  0  0  0  0  0  0  0  0  0  0  0
    3.7381   -0.9076    1.4482 C   0  0  0  0  0  0  0  0  0  0  0  0
    6.6475   -1.5145   -0.9336 C   0  0  0  0  0  0  0  0  0  0  0  0
    6.8420   -0.8585   -2.1612 F   0  0  0  0  0  0  0  0  0  0  0  0
    7.6580   -1.0772   -0.0905 F   0  0  0  0  0  0  0  0  0  0  0  0
    6.7235   -2.8685   -1.0357 F   0  0  0  0  0  0  0  0  0  0  0  0
   -0.7933    0.2075    0.5295 N   0  0  0  0  0  0  0  0  0  0  0  0
   -6.9332   -2.1987    0.7213 H   0  0  0  0  0  0  0  0  0  0  0  0
   -5.6567   -3.3873    0.3435 H   0  0  0  0  0  0  0  0  0  0  0  0
   -6.5236   -2.6043   -1.0430 H   0  0  0  0  0  0  0  0  0  0  0  0
   -5.8435    2.4092   -0.4469 H   0  0  0  0  0  0  0  0  0  0  0  0
   -4.3279    2.5059   -1.4934 H   0  0  0  0  0  0  0  0  0  0  0  0
   -4.3165    2.8752    0.2639 H   0  0  0  0  0  0  0  0  0  0  0  0
   -2.2103    2.9085   -0.5889 H   0  0  0  0  0  0  0  0  0  0  0  0
   -0.0517    3.8731   -0.3070 H   0  0  0  0  0  0  0  0  0  0  0  0
    1.3611   -0.0788    2.1852 H   0  0  0  0  0  0  0  0  0  0  0  0
    2.3521    0.3379   -1.3387 H   0  0  0  0  0  0  0  0  0  0  0  0
    4.5690   -0.3487   -2.2880 H   0  0  0  0  0  0  0  0  0  0  0  0
    5.7009   -1.7326    1.5100 H   0  0  0  0  0  0  0  0  0  0  0  0
    3.5473   -1.0810    2.4874 H   0  0  0  0  0  0  0  0  0  0  0  0
  1  2  1  0
  2  3  2  0
  3  4  1  0
  4  5  1  0
  4  6  2  0
  6  7  1  0
  6  8  1  0
  8  9  2  0
  9 10  1  0
 10 11  2  0
 11 12  1  0
 12 13  1  0
 13 14  1  0
 14 15  2  0
 15 16  1  0
 16 17  2  0
 17 18  1  0
 18 19  2  0
 17 20  1  0
 20 21  1  0
 20 22  1  0
 20 23  1  0
 12 24  2  0
  7  2  1  0
 24  8  1  0
 19 14  1  0
  1 25  1  0
  1 26  1  0
  1 27  1  0
  5 28  1  0
  5 29  1  0
  5 30  1  0
  9 31  1  0
 10 32  1  0
 13 33  1  0
 15 34  1  0
 16 35  1  0
 18 36  1  0
 19 37  1  0
M  END
$$$$
