
     RDKit          3D

 41 44  0  0  0  0  0  0  0  0999 V2000
    5.7096    0.5309   -0.5711 O   0  0  0  0  0  0  0  0  0  0  0  0
    4.8250    0.2078   -1.4127 C   0  0  0  0  0  0  0  0  0  0  0  0
    5.0696    0.3166   -2.8062 N   0  0  0  0  0  0  0  0  0  0  0  0
    6.3042    0.7856   -3.1477 O   0  0  0  0  0  0  0  0  0  0  0  0
    3.5472   -0.2792   -0.9236 C   0  0  0  0  0  0  0  0  0  0  0  0
    3.3491   -0.3703    0.4529 C   0  0  0  0  0  0  0  0  0  0  0  0
    2.1516   -0.8267    0.9097 C   0  0  0  0  0  0  0  0  0  0  0  0
    1.1011   -1.2126    0.1121 C   0  0  0  0  0  0  0  0  0  0  0  0
   -0.1650   -1.6920    0.6400 C   0  0  0  0  0  0  0  0  0  0  0  0
   -1.1876   -0.6735    0.8073 N   0  0  0  0  0  0  0  0  0  0  0  0
   -2.0602   -0.3258   -0.1722 C   0  0  0  0  0  0  0  0  0  0  0  0
   -2.8541    0.6558    0.3866 C   0  0  0  0  0  0  0  0  0  0  0  0
   -2.4411    0.8717    1.6784 C   0  0  0  0  0  0  0  0  0  0  0  0
   -2.8570    1.7115    2.6873 C   0  0  0  0  0  0  0  0  0  0  0  0
   -2.2275    1.6983    3.9207 C   0  0  0  0  0  0  0  0  0  0  0  0
   -1.1751    0.8338    4.1337 C   0  0  0  0  0  0  0  0  0  0  0  0
   -0.7337   -0.0217    3.1415 C   0  0  0  0  0  0  0  0  0  0  0  0
   -1.3926    0.0236    1.9190 C   0  0  0  0  0  0  0  0  0  0  0  0
   -4.0044    1.1307   -0.8459 S   0  0  0  0  0  6  0  0  0  0  0  0
   -3.4447    2.2858   -1.5769 O   0  0  0  0  0  0  0  0  0  0  0  0
   -5.3693    1.3200   -0.3270 O   0  0  0  0  0  0  0  0  0  0  0  0
   -3.8595   -0.3951   -1.8015 C   0  0  0  0  0  0  0  0  0  0  0  0
   -2.3902   -0.6509   -1.5544 C   0  0  0  0  0  0  0  0  0  0  0  0
    1.3262   -1.1115   -1.2570 C   0  0  0  0  0  0  0  0  0  0  0  0
    2.5168   -0.6569   -1.7845 C   0  0  0  0  0  0  0  0  0  0  0  0
    4.3809    0.0660   -3.5396 H   0  0  0  0  0  0  0  0  0  0  0  0
    6.5025    1.5285   -2.5465 H   0  0  0  0  0  0  0  0  0  0  0  0
    4.1642   -0.0710    1.0928 H   0  0  0  0  0  0  0  0  0  0  0  0
    2.0302   -0.8886    2.0037 H   0  0  0  0  0  0  0  0  0  0  0  0
   -0.5643   -2.4777   -0.0430 H   0  0  0  0  0  0  0  0  0  0  0  0
   -0.0011   -2.1974    1.6204 H   0  0  0  0  0  0  0  0  0  0  0  0
   -3.6880    2.3962    2.5239 H   0  0  0  0  0  0  0  0  0  0  0  0
   -2.5978    2.3811    4.6763 H   0  0  0  0  0  0  0  0  0  0  0  0
   -0.6936    0.8371    5.1066 H   0  0  0  0  0  0  0  0  0  0  0  0
    0.0923   -0.6890    3.3467 H   0  0  0  0  0  0  0  0  0  0  0  0
   -4.0640   -0.2315   -2.8553 H   0  0  0  0  0  0  0  0  0  0  0  0
   -4.5034   -1.1477   -1.3072 H   0  0  0  0  0  0  0  0  0  0  0  0
   -2.1498   -1.7056   -1.7751 H   0  0  0  0  0  0  0  0  0  0  0  0
   -1.8377    0.0369   -2.2590 H   0  0  0  0  0  0  0  0  0  0  0  0
    0.5460   -1.3972   -1.9344 H   0  0  0  0  0  0  0  0  0  0  0  0
    2.6449   -0.5960   -2.8485 H   0  0  0  0  0  0  0  0  0  0  0  0
  1  2  2  0
  2  3  1  0
  3  4  1  0
  2  5  1  0
  5  6  2  0
  6  7  1  0
  7  8  2  0
  8  9  1  0
  9 10  1  0
 10 11  1  0
 11 12  2  0
 12 13  1  0
 13 14  2  0
 14 15  1  0
 15 16  2  0
 16 17  1  0
 17 18  2  0
 12 19  1  0
 19 20  2  0
 19 21  2  0
 19 22  1  0
 22 23  1  0
  8 24  1  0
 24 25  2  0
 25  5  1  0
 18 10  1  0
 23 11  1  0
 18 13  1  0
  3 26  1  0
  4 27  1  0
  6 28  1  0
  7 29  1  0
  9 30  1  0
  9 31  1  0
 14 32  1  0
 15 33  1  0
 16 34  1  0
 17 35  1  0
 22 36  1  0
 22 37  1  0
 23 38  1  0
 23 39  1  0
 24 40  1  0
 25 41  1  0
M  END
$$$$
