
     RDKit          3D

 39 42  0  0  0  0  0  0  0  0999 V2000
   -5.0222   -1.7212    0.7075 O   0  0  0  0  0  0  0  0  0  0  0  0
   -3.8027   -1.3367    0.7403 C   0  0  0  0  0  0  0  0  0  0  0  0
   -2.8662   -1.2839   -0.4046 C   0  0  0  0  0  0  0  0  0  0  0  0
   -1.7148   -0.4399    0.1097 C   0  0  1  0  0  0  0  0  0  0  0  0
   -1.8841   -0.4091    1.5956 C   0  0  0  0  0  0  0  0  0  0  0  0
   -1.0403   -0.0212    2.4373 O   0  0  0  0  0  0  0  0  0  0  0  0
   -3.1731   -0.8953    1.9295 N   0  0  0  0  0  0  0  0  0  0  0  0
   -0.4121   -1.0686   -0.1784 C   0  0  0  0  0  0  0  0  0  0  0  0
   -0.2203   -2.2326    0.3348 O   0  0  0  0  0  0  0  0  0  0  0  0
    0.6192   -0.4886   -0.9654 N   0  0  0  0  0  0  0  0  0  0  0  0
    1.8212   -1.2176   -1.1685 C   0  0  0  0  0  0  0  0  0  0  0  0
    2.8734   -1.0041   -0.1924 C   0  0  0  0  0  0  0  0  0  0  0  0
    2.7051   -0.1459    0.8599 C   0  0  0  0  0  0  0  0  0  0  0  0
    3.7259    0.0293    1.7636 C   0  0  0  0  0  0  0  0  0  0  0  0
    4.9249   -0.6386    1.6416 C   0  0  0  0  0  0  0  0  0  0  0  0
    6.3317   -0.3681    2.9263 Br  0  0  0  0  0  0  0  0  0  0  0  0
    5.1073   -1.5054    0.5867 C   0  0  0  0  0  0  0  0  0  0  0  0
    4.0638   -1.6715   -0.3194 C   0  0  0  0  0  0  0  0  0  0  0  0
    4.3178   -2.5471   -1.3395 F   0  0  0  0  0  0  0  0  0  0  0  0
    0.3344    0.8012   -1.4850 C   0  0  0  0  0  0  0  0  0  0  0  0
    1.2452    1.3238   -2.1850 O   0  0  0  0  0  0  0  0  0  0  0  0
   -0.9251    1.4854   -1.2321 C   0  0  0  0  0  0  0  0  0  0  0  0
   -1.0916    2.7660   -1.7967 C   0  0  0  0  0  0  0  0  0  0  0  0
   -2.2876    3.4040   -1.5444 C   0  0  0  0  0  0  0  0  0  0  0  0
   -3.2773    2.8249   -0.7785 C   0  0  0  0  0  0  0  0  0  0  0  0
   -4.4307    3.5121   -0.5713 F   0  0  0  0  0  0  0  0  0  0  0  0
   -3.0999    1.5868   -0.2406 C   0  0  0  0  0  0  0  0  0  0  0  0
   -1.9007    0.9066   -0.4734 C   0  0  0  0  0  0  0  0  0  0  0  0
   -2.5300   -2.2871   -0.7284 H   0  0  0  0  0  0  0  0  0  0  0  0
   -3.3655   -0.8250   -1.2823 H   0  0  0  0  0  0  0  0  0  0  0  0
   -3.6111   -0.9319    2.8953 H   0  0  0  0  0  0  0  0  0  0  0  0
    2.1545   -1.0216   -2.2300 H   0  0  0  0  0  0  0  0  0  0  0  0
    1.5792   -2.3212   -1.1721 H   0  0  0  0  0  0  0  0  0  0  0  0
    1.7793    0.4171    1.0182 H   0  0  0  0  0  0  0  0  0  0  0  0
    3.6152    0.7166    2.6223 H   0  0  0  0  0  0  0  0  0  0  0  0
    6.0482   -2.0441    0.4712 H   0  0  0  0  0  0  0  0  0  0  0  0
   -0.3011    3.1763   -2.3822 H   0  0  0  0  0  0  0  0  0  0  0  0
   -2.4341    4.3861   -1.9684 H   0  0  0  0  0  0  0  0  0  0  0  0
   -3.8558    1.0898    0.3726 H   0  0  0  0  0  0  0  0  0  0  0  0
  1  2  2  0
  2  3  1  0
  4  3  1  6
  4  5  1  0
  5  6  2  0
  5  7  1  0
  4  8  1  0
  8  9  2  0
  8 10  1  0
 10 11  1  0
 11 12  1  0
 12 13  2  0
 13 14  1  0
 14 15  2  0
 15 16  1  0
 15 17  1  0
 17 18  2  0
 18 19  1  0
 10 20  1  0
 20 21  2  0
 20 22  1  0
 22 23  2  0
 23 24  1  0
 24 25  2  0
 25 26  1  0
 25 27  1  0
 27 28  2  0
  7  2  1  0
 18 12  1  0
 28 22  1  0
 28  4  1  0
  3 29  1  0
  3 30  1  0
  7 31  1  0
 11 32  1  0
 11 33  1  0
 13 34  1  0
 14 35  1  0
 17 36  1  0
 23 37  1  0
 24 38  1  0
 27 39  1  0
M  END
$$$$
