
     RDKit          3D

 50 50  0  0  0  0  0  0  0  0999 V2000
   -4.5819   -0.1939   -2.2402 C   0  0  1  0  0  0  0  0  0  0  0  0
   -4.7855    1.0390   -2.9914 N   0  0  0  0  0  0  0  0  0  0  0  0
   -3.2771   -0.1844   -1.5051 C   0  0  0  0  0  0  0  0  0  0  0  0
   -3.0978   -1.4653   -0.7510 C   0  0  0  0  0  0  0  0  0  0  0  0
   -1.7822   -1.4791   -0.0110 C   0  0  0  0  0  0  0  0  0  0  0  0
   -1.3427   -2.5403    0.7552 O   0  0  0  0  0  0  0  0  0  0  0  0
   -1.0182   -0.4690   -0.0811 N   0  0  0  0  0  0  0  0  0  0  0  0
    0.2681   -0.3137    0.5599 C   0  0  1  0  0  0  0  0  0  0  0  0
    0.8943    0.9214   -0.0550 C   0  0  0  0  0  0  0  0  0  0  0  0
    1.0492    0.6092   -1.8353 S   0  0  0  0  0  0  0  0  0  0  0  0
    2.2597   -0.7345   -2.0860 C   0  0  0  0  0  0  0  0  0  0  0  0
    3.6036   -0.2160   -1.6453 C   0  0  0  0  0  0  0  0  0  0  0  0
    4.0631   -0.3459   -0.3543 C   0  0  0  0  0  0  0  0  0  0  0  0
    5.2908    0.1274    0.0527 C   0  0  0  0  0  0  0  0  0  0  0  0
    6.1058    0.7669   -0.8832 C   0  0  0  0  0  0  0  0  0  0  0  0
    5.6584    0.9067   -2.1898 C   0  0  0  0  0  0  0  0  0  0  0  0
    4.4254    0.4239   -2.5707 C   0  0  0  0  0  0  0  0  0  0  0  0
    0.1278   -0.1781    2.0288 C   0  0  0  0  0  0  0  0  0  0  0  0
   -0.4606   -1.1552    2.8143 O   0  0  0  0  0  0  0  0  0  0  0  0
    0.5664    0.8793    2.5868 N   0  0  0  0  0  0  0  0  0  0  0  0
    0.5221    1.1897    3.9835 C   0  0  0  0  0  0  0  0  0  0  0  0
    1.0675    0.1008    4.8332 C   0  0  0  0  0  0  0  0  0  0  0  0
    1.6204   -1.1441    4.7099 O   0  0  0  0  0  0  0  0  0  0  0  0
    1.0086    0.4077    6.0630 O   0  0  0  0  0  0  0  0  0  0  0  0
   -5.7666   -0.3681   -1.3483 C   0  0  0  0  0  0  0  0  0  0  0  0
   -6.8023    0.5855   -1.3061 O   0  0  0  0  0  0  0  0  0  0  0  0
   -6.0887   -1.2891   -0.5229 O   0  0  0  0  0  0  0  0  0  0  0  0
   -4.6062   -1.0274   -2.9658 H   0  0  0  0  0  0  0  0  0  0  0  0
   -4.3317    0.9849   -3.9279 H   0  0  0  0  0  0  0  0  0  0  0  0
   -4.5776    1.8938   -2.4559 H   0  0  0  0  0  0  0  0  0  0  0  0
   -2.4443    0.0530   -2.1760 H   0  0  0  0  0  0  0  0  0  0  0  0
   -3.2900    0.6483   -0.7458 H   0  0  0  0  0  0  0  0  0  0  0  0
   -3.1110   -2.3446   -1.4263 H   0  0  0  0  0  0  0  0  0  0  0  0
   -3.8803   -1.5539    0.0508 H   0  0  0  0  0  0  0  0  0  0  0  0
   -0.3941   -2.8878    0.6824 H   0  0  0  0  0  0  0  0  0  0  0  0
    0.9698   -1.1448    0.3379 H   0  0  0  0  0  0  0  0  0  0  0  0
    0.1787    1.7818    0.0611 H   0  0  0  0  0  0  0  0  0  0  0  0
    1.8781    1.1599    0.3945 H   0  0  0  0  0  0  0  0  0  0  0  0
    2.0331   -1.6215   -1.4462 H   0  0  0  0  0  0  0  0  0  0  0  0
    2.3144   -1.0562   -3.1259 H   0  0  0  0  0  0  0  0  0  0  0  0
    3.4151   -0.8432    0.3489 H   0  0  0  0  0  0  0  0  0  0  0  0
    5.6010   -0.0079    1.0983 H   0  0  0  0  0  0  0  0  0  0  0  0
    7.0446    1.0997   -0.4638 H   0  0  0  0  0  0  0  0  0  0  0  0
    6.3498    1.4100   -2.8372 H   0  0  0  0  0  0  0  0  0  0  0  0
    4.1261    0.5626   -3.6121 H   0  0  0  0  0  0  0  0  0  0  0  0
   -0.9504   -0.9503    3.6786 H   0  0  0  0  0  0  0  0  0  0  0  0
    1.1702    2.0754    4.1633 H   0  0  0  0  0  0  0  0  0  0  0  0
   -0.4833    1.4516    4.3454 H   0  0  0  0  0  0  0  0  0  0  0  0
    1.2244   -1.9567    5.1624 H   0  0  0  0  0  0  0  0  0  0  0  0
   -7.7642    0.3562   -1.1518 H   0  0  0  0  0  0  0  0  0  0  0  0
  1  2  1  0
  1  3  1  0
  3  4  1  0
  4  5  1  0
  5  6  1  0
  5  7  2  3
  7  8  1  0
  8  9  1  0
  9 10  1  0
 10 11  1  0
 11 12  1  0
 12 13  2  0
 13 14  1  0
 14 15  2  0
 15 16  1  0
 16 17  2  0
  8 18  1  0
 18 19  1  0
 18 20  2  3
 20 21  1  0
 21 22  1  0
 22 23  1  0
 22 24  2  0
  1 25  1  0
 25 26  1  0
 25 27  2  0
 17 12  1  0
  1 28  1  6
  2 29  1  0
  2 30  1  0
  3 31  1  0
  3 32  1  0
  4 33  1  0
  4 34  1  0
  6 35  1  0
  8 36  1  1
  9 37  1  0
  9 38  1  0
 11 39  1  0
 11 40  1  0
 13 41  1  0
 14 42  1  0
 15 43  1  0
 16 44  1  0
 17 45  1  0
 19 46  1  0
 21 47  1  0
 21 48  1  0
 23 49  1  0
 26 50  1  0
M  END
$$$$
