
     RDKit          3D

 50 54  0  0  0  0  0  0  0  0999 V2000
    3.5704    1.3307   -0.0276 O   0  0  0  0  0  0  0  0  0  0  0  0
    3.6206    0.1389    0.4090 C   0  0  0  0  0  0  0  0  0  0  0  0
    2.4695   -0.4913    0.8728 N   0  0  0  0  0  0  0  0  0  0  0  0
    1.1997    0.2163    0.8587 C   0  0  0  0  0  0  0  0  0  0  0  0
    0.8310    0.9577    1.9577 C   0  0  0  0  0  0  0  0  0  0  0  0
   -0.3806    1.6253    1.9288 C   0  0  0  0  0  0  0  0  0  0  0  0
   -1.1879    1.5372    0.8129 C   0  0  0  0  0  0  0  0  0  0  0  0
   -0.8458    0.8039   -0.3003 C   0  0  0  0  0  0  0  0  0  0  0  0
   -1.6647    0.6951   -1.4724 C   0  0  0  0  0  0  0  0  0  0  0  0
   -1.1586    0.8114   -2.7535 C   0  0  0  0  0  0  0  0  0  0  0  0
   -1.9499    0.7061   -3.8771 C   0  0  0  0  0  0  0  0  0  0  0  0
   -3.2779    0.4790   -3.7060 N   0  0  0  0  0  0  0  0  0  0  0  0
   -3.7891    0.3630   -2.4670 C   0  0  0  0  0  0  0  0  0  0  0  0
   -5.0670    0.1362   -1.9637 C   0  0  0  0  0  0  0  0  0  0  0  0
   -5.0081    0.1123   -0.5781 C   0  0  0  0  0  0  0  0  0  0  0  0
   -6.1238   -0.0968    0.3168 C   0  0  0  0  0  0  0  0  0  0  0  0
   -7.3939   -0.2978   -0.1792 C   0  0  0  0  0  0  0  0  0  0  0  0
   -8.4811   -0.5008    0.6624 C   0  0  0  0  0  0  0  0  0  0  0  0
   -8.2868   -0.5003    1.9734 N   0  0  0  0  0  0  0  0  0  0  0  0
   -7.0548   -0.3057    2.4718 C   0  0  0  0  0  0  0  0  0  0  0  0
   -5.9514   -0.1011    1.6752 C   0  0  0  0  0  0  0  0  0  0  0  0
   -3.7187    0.3213   -0.2796 N   0  0  0  0  0  0  0  0  0  0  0  0
   -2.9994    0.4688   -1.3765 N   0  0  0  0  0  0  0  0  0  0  0  0
    0.3843    0.1419   -0.2385 C   0  0  0  0  0  0  0  0  0  0  0  0
    4.9069   -0.5233    0.4028 C   0  0  0  0  0  0  0  0  0  0  0  0
    5.0202   -1.8084    0.8621 C   0  0  0  0  0  0  0  0  0  0  0  0
    6.2789   -2.4262    0.8447 C   0  0  0  0  0  0  0  0  0  0  0  0
    7.3830   -1.7619    0.3773 C   0  0  0  0  0  0  0  0  0  0  0  0
    7.2798   -0.4591   -0.0905 C   0  0  0  0  0  0  0  0  0  0  0  0
    8.5149    0.1824   -0.5752 C   0  0  0  0  0  0  0  0  0  0  0  0
    9.1228   -0.5311   -1.5953 F   0  0  0  0  0  0  0  0  0  0  0  0
    9.4237    0.1761    0.4865 F   0  0  0  0  0  0  0  0  0  0  0  0
    8.2866    1.4833   -0.9743 F   0  0  0  0  0  0  0  0  0  0  0  0
    6.0503    0.1332   -0.0693 C   0  0  0  0  0  0  0  0  0  0  0  0
    2.4505   -1.4655    1.2416 H   0  0  0  0  0  0  0  0  0  0  0  0
    1.4483    1.0427    2.8474 H   0  0  0  0  0  0  0  0  0  0  0  0
   -0.6639    2.2103    2.8049 H   0  0  0  0  0  0  0  0  0  0  0  0
   -2.1235    2.0570    0.7992 H   0  0  0  0  0  0  0  0  0  0  0  0
   -0.0874    0.9942   -2.8782 H   0  0  0  0  0  0  0  0  0  0  0  0
   -1.5780    0.7932   -4.8888 H   0  0  0  0  0  0  0  0  0  0  0  0
   -5.9329    0.0062   -2.5867 H   0  0  0  0  0  0  0  0  0  0  0  0
   -7.5908   -0.3046   -1.2541 H   0  0  0  0  0  0  0  0  0  0  0  0
   -9.4610   -0.6548    0.2375 H   0  0  0  0  0  0  0  0  0  0  0  0
   -6.9738   -0.3187    3.5585 H   0  0  0  0  0  0  0  0  0  0  0  0
   -5.0005    0.0469    2.1504 H   0  0  0  0  0  0  0  0  0  0  0  0
    0.6756   -0.4436   -1.1061 H   0  0  0  0  0  0  0  0  0  0  0  0
    4.1846   -2.4028    1.2501 H   0  0  0  0  0  0  0  0  0  0  0  0
    6.3518   -3.4427    1.2112 H   0  0  0  0  0  0  0  0  0  0  0  0
    8.3385   -2.2781    0.3819 H   0  0  0  0  0  0  0  0  0  0  0  0
    5.9595    1.1441   -0.4302 H   0  0  0  0  0  0  0  0  0  0  0  0
  1  2  2  0
  2  3  1  0
  3  4  1  0
  4  5  2  0
  5  6  1  0
  6  7  2  0
  7  8  1  0
  8  9  1  0
  9 10  2  0
 10 11  1  0
 11 12  2  0
 12 13  1  0
 13 14  2  0
 14 15  1  0
 15 16  1  0
 16 17  2  0
 17 18  1  0
 18 19  2  0
 19 20  1  0
 20 21  2  0
 15 22  2  0
 22 23  1  0
  8 24  2  0
  2 25  1  0
 25 26  2  0
 26 27  1  0
 27 28  2  0
 28 29  1  0
 29 30  1  0
 30 31  1  0
 30 32  1  0
 30 33  1  0
 29 34  2  0
 24  4  1  0
 34 25  1  0
 23  9  1  0
 23 13  1  0
 21 16  1  0
  3 35  1  0
  5 36  1  0
  6 37  1  0
  7 38  1  0
 10 39  1  0
 11 40  1  0
 14 41  1  0
 17 42  1  0
 18 43  1  0
 20 44  1  0
 21 45  1  0
 24 46  1  0
 26 47  1  0
 27 48  1  0
 28 49  1  0
 34 50  1  0
M  END
$$$$
