
     RDKit          3D

 52 54  0  0  0  0  0  0  0  0999 V2000
    3.2539   -1.7792   -1.0640 C   0  0  0  0  0  0  0  0  0  0  0  0
    2.7074   -0.9477    0.1045 C   0  0  1  0  0  0  0  0  0  0  0  0
    3.8095   -0.9129    1.1422 C   0  0  0  0  0  0  0  0  0  0  0  0
    4.8956   -0.0561    0.7969 N   0  0  0  0  0  0  0  0  0  0  0  0
    4.5198    1.1687    0.1647 C   0  0  2  0  0  0  0  0  0  0  0  0
    5.3315    2.3148    0.6739 C   0  0  0  0  0  0  0  0  0  0  0  0
    3.0221    1.3612    0.4065 C   0  0  0  0  0  0  0  0  0  0  0  0
    2.3645    0.3347   -0.4111 N   0  0  0  0  0  0  0  0  0  0  0  0
    0.9447    0.6126   -0.4145 C   0  0  0  0  0  0  0  0  0  0  0  0
    0.1535   -0.3560   -1.2107 C   0  0  0  0  0  0  0  0  0  0  0  0
   -1.2093   -0.1362   -1.2293 O   0  0  0  0  0  0  0  0  0  0  0  0
   -1.8304   -0.1868   -0.0020 C   0  0  0  0  0  0  0  0  0  0  0  0
   -2.7594   -1.3706    0.0522 C   0  0  0  0  0  0  0  0  0  0  0  0
   -2.7953   -2.1912    1.1490 C   0  0  0  0  0  0  0  0  0  0  0  0
   -3.6392   -3.2652    1.1962 C   0  0  0  0  0  0  0  0  0  0  0  0
   -4.4698   -3.5386    0.1356 C   0  0  0  0  0  0  0  0  0  0  0  0
   -4.4369   -2.7129   -0.9739 C   0  0  0  0  0  0  0  0  0  0  0  0
   -3.5794   -1.6288   -1.0115 C   0  0  0  0  0  0  0  0  0  0  0  0
   -2.6646    1.0018    0.2037 C   0  0  0  0  0  0  0  0  0  0  0  0
   -2.2624    2.2739   -0.1128 C   0  0  0  0  0  0  0  0  0  0  0  0
   -3.0483    3.4020    0.0838 C   0  0  0  0  0  0  0  0  0  0  0  0
   -4.3061    3.2461    0.6275 C   0  0  0  0  0  0  0  0  0  0  0  0
   -4.7444    1.9813    0.9582 C   0  0  0  0  0  0  0  0  0  0  0  0
   -3.9467    0.8933    0.7520 C   0  0  0  0  0  0  0  0  0  0  0  0
    4.3475   -1.8699   -1.0148 H   0  0  0  0  0  0  0  0  0  0  0  0
    3.0060   -1.3033   -2.0317 H   0  0  0  0  0  0  0  0  0  0  0  0
    2.7803   -2.7838   -1.0659 H   0  0  0  0  0  0  0  0  0  0  0  0
    1.8630   -1.5034    0.5646 H   0  0  0  0  0  0  0  0  0  0  0  0
    3.3901   -0.7359    2.1575 H   0  0  0  0  0  0  0  0  0  0  0  0
    4.2190   -1.9641    1.1837 H   0  0  0  0  0  0  0  0  0  0  0  0
    5.6760   -0.5260    0.3259 H   0  0  0  0  0  0  0  0  0  0  0  0
    4.6691    1.0543   -0.9337 H   0  0  0  0  0  0  0  0  0  0  0  0
    5.8031    2.0477    1.6383 H   0  0  0  0  0  0  0  0  0  0  0  0
    6.1377    2.5617   -0.0750 H   0  0  0  0  0  0  0  0  0  0  0  0
    4.6930    3.1990    0.8059 H   0  0  0  0  0  0  0  0  0  0  0  0
    2.7167    2.3621    0.0800 H   0  0  0  0  0  0  0  0  0  0  0  0
    2.8139    1.1911    1.4657 H   0  0  0  0  0  0  0  0  0  0  0  0
    0.5651    0.7853    0.6050 H   0  0  0  0  0  0  0  0  0  0  0  0
    0.8624    1.6086   -0.9481 H   0  0  0  0  0  0  0  0  0  0  0  0
    0.3124   -1.3706   -0.7534 H   0  0  0  0  0  0  0  0  0  0  0  0
    0.4709   -0.4292   -2.2737 H   0  0  0  0  0  0  0  0  0  0  0  0
   -1.1044   -0.3505    0.7949 H   0  0  0  0  0  0  0  0  0  0  0  0
   -2.1248   -1.9516    1.9786 H   0  0  0  0  0  0  0  0  0  0  0  0
   -3.6386   -3.8984    2.0919 H   0  0  0  0  0  0  0  0  0  0  0  0
   -5.1308   -4.3771    0.1685 H   0  0  0  0  0  0  0  0  0  0  0  0
   -5.0752   -2.9150   -1.8003 H   0  0  0  0  0  0  0  0  0  0  0  0
   -3.5884   -1.0093   -1.9025 H   0  0  0  0  0  0  0  0  0  0  0  0
   -1.2930    2.4517   -0.5404 H   0  0  0  0  0  0  0  0  0  0  0  0
   -2.6926    4.3842   -0.1794 H   0  0  0  0  0  0  0  0  0  0  0  0
   -4.9779    4.0855    0.8101 H   0  0  0  0  0  0  0  0  0  0  0  0
   -5.7316    1.8609    1.3846 H   0  0  0  0  0  0  0  0  0  0  0  0
   -4.2790   -0.1122    1.0082 H   0  0  0  0  0  0  0  0  0  0  0  0
  1  2  1  0
  2  3  1  0
  3  4  1  0
  4  5  1  0
  5  6  1  0
  5  7  1  0
  7  8  1  0
  8  9  1  0
  9 10  1  0
 10 11  1  0
 11 12  1  0
 12 13  1  0
 13 14  2  0
 14 15  1  0
 15 16  2  0
 16 17  1  0
 17 18  2  0
 12 19  1  0
 19 20  2  0
 20 21  1  0
 21 22  2  0
 22 23  1  0
 23 24  2  0
  8  2  1  0
 18 13  1  0
 24 19  1  0
  1 25  1  0
  1 26  1  0
  1 27  1  0
  2 28  1  1
  3 29  1  0
  3 30  1  0
  4 31  1  0
  5 32  1  6
  6 33  1  0
  6 34  1  0
  6 35  1  0
  7 36  1  0
  7 37  1  0
  9 38  1  0
  9 39  1  0
 10 40  1  0
 10 41  1  0
 12 42  1  0
 14 43  1  0
 15 44  1  0
 16 45  1  0
 17 46  1  0
 18 47  1  0
 20 48  1  0
 21 49  1  0
 22 50  1  0
 23 51  1  0
 24 52  1  0
M  END
$$$$
