
     RDKit          3D

 48 50  0  0  0  0  0  0  0  0999 V2000
   -6.6900   -2.5579    0.7582 C   0  0  0  0  0  0  0  0  0  0  0  0
   -5.6017   -2.4488    1.6734 O   0  0  0  0  0  0  0  0  0  0  0  0
   -4.4140   -1.8200    1.2909 C   0  0  0  0  0  0  0  0  0  0  0  0
   -4.2666   -1.3055    0.0324 C   0  0  0  0  0  0  0  0  0  0  0  0
   -3.0303   -0.6978   -0.2354 C   0  0  0  0  0  0  0  0  0  0  0  0
   -2.0224   -0.6146    0.6934 C   0  0  0  0  0  0  0  0  0  0  0  0
   -0.7769    0.0117    0.3453 N   0  0  0  0  0  0  0  0  0  0  0  0
    0.4186   -0.4077    0.6831 N   0  0  0  0  0  0  0  0  0  0  0  0
    1.4032    0.3838    0.1771 C   0  0  0  0  0  0  0  0  0  0  0  0
    2.8025    0.2014    0.3839 C   0  0  0  0  0  0  0  0  0  0  0  0
    4.0261    0.0628    0.5577 C   0  0  0  0  0  0  0  0  0  0  0  0
    5.4872   -0.0995    0.7534 C   0  0  0  0  0  0  0  0  0  0  0  0
    6.1431    1.2477    0.5958 C   0  0  0  0  0  0  0  0  0  0  0  0
    5.9960   -0.9967   -0.2377 N   0  0  0  0  0  0  0  0  0  0  0  0
    5.9370   -0.7407   -1.5698 O   0  0  0  0  0  0  0  0  0  0  0  0
    6.5954   -2.2155    0.1661 C   0  0  0  0  0  0  0  0  0  0  0  0
    6.6404   -2.4982    1.5700 N   0  0  0  0  0  0  0  0  0  0  0  0
    7.0677   -3.0226   -0.6545 O   0  0  0  0  0  0  0  0  0  0  0  0
    0.7650    1.3539   -0.5220 C   0  0  0  0  0  0  0  0  0  0  0  0
   -0.5839    1.1111   -0.4055 C   0  0  0  0  0  0  0  0  0  0  0  0
   -1.6750    1.9062   -0.9850 C   0  0  0  0  0  0  0  0  0  0  0  0
   -1.6030    2.2569   -2.2923 C   0  0  0  0  0  0  0  0  0  0  0  0
   -2.5993    3.0358   -2.8930 C   0  0  0  0  0  0  0  0  0  0  0  0
   -3.6483    3.4159   -2.0694 C   0  0  0  0  0  0  0  0  0  0  0  0
   -4.9361    4.4042   -2.7874 Cl  0  0  0  0  0  0  0  0  0  0  0  0
   -3.7177    3.0594   -0.7521 C   0  0  0  0  0  0  0  0  0  0  0  0
   -2.7206    2.2947   -0.1941 C   0  0  0  0  0  0  0  0  0  0  0  0
   -2.2216   -1.1565    1.9692 C   0  0  0  0  0  0  0  0  0  0  0  0
   -3.4127   -1.7434    2.2305 C   0  0  0  0  0  0  0  0  0  0  0  0
   -7.2189   -1.5890    0.7841 H   0  0  0  0  0  0  0  0  0  0  0  0
   -6.3507   -2.7613   -0.2568 H   0  0  0  0  0  0  0  0  0  0  0  0
   -7.3949   -3.3709    1.1029 H   0  0  0  0  0  0  0  0  0  0  0  0
   -5.0321   -1.3452   -0.7266 H   0  0  0  0  0  0  0  0  0  0  0  0
   -2.9366   -0.3121   -1.2488 H   0  0  0  0  0  0  0  0  0  0  0  0
    5.6723   -0.5190    1.7768 H   0  0  0  0  0  0  0  0  0  0  0  0
    6.9271    1.3430    1.4093 H   0  0  0  0  0  0  0  0  0  0  0  0
    5.3632    2.0450    0.7326 H   0  0  0  0  0  0  0  0  0  0  0  0
    6.6258    1.2908   -0.3952 H   0  0  0  0  0  0  0  0  0  0  0  0
    6.0719   -1.5778   -2.0753 H   0  0  0  0  0  0  0  0  0  0  0  0
    7.4792   -2.2114    2.1190 H   0  0  0  0  0  0  0  0  0  0  0  0
    5.8444   -2.9862    2.0386 H   0  0  0  0  0  0  0  0  0  0  0  0
    1.2359    2.1623   -1.0650 H   0  0  0  0  0  0  0  0  0  0  0  0
   -0.7702    1.9545   -2.9499 H   0  0  0  0  0  0  0  0  0  0  0  0
   -2.5484    3.3189   -3.9381 H   0  0  0  0  0  0  0  0  0  0  0  0
   -4.5598    3.3838   -0.1700 H   0  0  0  0  0  0  0  0  0  0  0  0
   -2.8029    2.0155    0.8508 H   0  0  0  0  0  0  0  0  0  0  0  0
   -1.4129   -1.0947    2.7197 H   0  0  0  0  0  0  0  0  0  0  0  0
   -3.5549   -2.1663    3.2414 H   0  0  0  0  0  0  0  0  0  0  0  0
  1  2  1  0
  2  3  1  0
  3  4  2  0
  4  5  1  0
  5  6  2  0
  6  7  1  0
  7  8  1  0
  8  9  2  0
  9 10  1  0
 10 11  3  0
 11 12  1  0
 12 13  1  0
 12 14  1  0
 14 15  1  0
 14 16  1  0
 16 17  1  0
 16 18  2  0
  9 19  1  0
 19 20  2  0
 20 21  1  0
 21 22  2  0
 22 23  1  0
 23 24  2  0
 24 25  1  0
 24 26  1  0
 26 27  2  0
  6 28  1  0
 28 29  2  0
 29  3  1  0
 20  7  1  0
 27 21  1  0
  1 30  1  0
  1 31  1  0
  1 32  1  0
  4 33  1  0
  5 34  1  0
 12 35  1  0
 13 36  1  0
 13 37  1  0
 13 38  1  0
 15 39  1  0
 17 40  1  0
 17 41  1  0
 19 42  1  0
 22 43  1  0
 23 44  1  0
 26 45  1  0
 27 46  1  0
 28 47  1  0
 29 48  1  0
M  END
$$$$
