
     RDKit          3D

 43 46  0  0  0  0  0  0  0  0999 V2000
    7.4234    6.1172    0.6893 N   0  0  0  0  0  0  0  0  0  0  0  0
    6.4468    5.4932    0.5566 C   0  0  0  0  0  0  0  0  0  0  0  0
    5.2383    4.7311    0.4114 C   0  0  0  0  0  0  0  0  0  0  0  0
    4.2960    4.6286    1.4149 C   0  0  0  0  0  0  0  0  0  0  0  0
    3.1644    3.9148    1.2762 N   0  0  0  0  0  0  0  0  0  0  0  0
    2.8532    3.2385    0.1457 C   0  0  0  0  0  0  0  0  0  0  0  0
    1.6008    2.5090    0.1256 C   0  0  0  0  0  0  0  0  0  0  0  0
    0.8349    2.5206    1.1620 O   0  0  0  0  0  0  0  0  0  0  0  0
    1.0869    1.7469   -0.9431 N   0  0  0  0  0  0  0  0  0  0  0  0
   -0.1840    1.0631   -0.8355 C   0  0  0  0  0  0  0  0  0  0  0  0
   -1.3765    1.6476   -1.1865 C   0  0  0  0  0  0  0  0  0  0  0  0
   -2.6086    1.0426   -1.1067 C   0  0  0  0  0  0  0  0  0  0  0  0
   -2.6145   -0.2640   -0.6294 C   0  0  0  0  0  0  0  0  0  0  0  0
   -3.7964   -0.9151   -0.5269 F   0  0  0  0  0  0  0  0  0  0  0  0
   -1.4508   -0.9067   -0.2606 C   0  0  0  0  0  0  0  0  0  0  0  0
   -1.5813   -2.3274    0.2525 C   0  0  1  0  0  0  0  0  0  0  0  0
   -0.2274   -2.7956    0.7096 C   0  0  0  0  0  0  0  0  0  0  0  0
   -0.3174   -4.0856    1.2374 F   0  0  0  0  0  0  0  0  0  0  0  0
    0.6549   -2.9186   -0.3618 F   0  0  0  0  0  0  0  0  0  0  0  0
   -2.4243   -2.2110    1.4267 N   0  0  0  0  0  0  0  0  0  0  0  0
   -3.3146   -3.0751    1.7351 C   0  0  0  0  0  0  0  0  0  0  0  0
   -4.0904   -2.8638    2.9137 N   0  0  0  0  0  0  0  0  0  0  0  0
   -3.4812   -4.1668    0.9152 O   0  0  0  0  0  0  0  0  0  0  0  0
   -3.2225   -4.0851   -0.4521 C   0  0  2  0  0  0  0  0  0  0  0  0
   -1.9469   -4.5890   -1.0216 C   0  0  0  0  0  0  0  0  0  0  0  0
   -2.2057   -3.0943   -0.8477 C   0  0  2  0  0  0  0  0  0  0  0  0
   -0.2548   -0.2483   -0.3637 C   0  0  0  0  0  0  0  0  0  0  0  0
    3.7674    3.3232   -0.8611 C   0  0  0  0  0  0  0  0  0  0  0  0
    3.5480    2.6849   -2.0227 F   0  0  0  0  0  0  0  0  0  0  0  0
    4.9555    4.0541   -0.7576 C   0  0  0  0  0  0  0  0  0  0  0  0
    4.5249    5.1634    2.3295 H   0  0  0  0  0  0  0  0  0  0  0  0
    1.6346    1.6763   -1.8262 H   0  0  0  0  0  0  0  0  0  0  0  0
   -1.3173    2.6770   -1.5566 H   0  0  0  0  0  0  0  0  0  0  0  0
   -3.5249    1.5037   -1.3809 H   0  0  0  0  0  0  0  0  0  0  0  0
    0.1312   -2.1349    1.4932 H   0  0  0  0  0  0  0  0  0  0  0  0
   -4.4045   -1.9154    3.1742 H   0  0  0  0  0  0  0  0  0  0  0  0
   -4.3422   -3.6639    3.5145 H   0  0  0  0  0  0  0  0  0  0  0  0
   -4.1222   -4.2185   -1.0852 H   0  0  0  0  0  0  0  0  0  0  0  0
   -1.2131   -5.1087   -0.4321 H   0  0  0  0  0  0  0  0  0  0  0  0
   -1.9980   -4.9750   -2.0803 H   0  0  0  0  0  0  0  0  0  0  0  0
   -2.4549   -2.5498   -1.8122 H   0  0  0  0  0  0  0  0  0  0  0  0
    0.6611   -0.7197   -0.0782 H   0  0  0  0  0  0  0  0  0  0  0  0
    5.6519    4.0963   -1.5744 H   0  0  0  0  0  0  0  0  0  0  0  0
  1  2  3  0
  2  3  1  0
  3  4  2  0
  4  5  1  0
  5  6  2  0
  6  7  1  0
  7  8  2  0
  7  9  1  0
  9 10  1  0
 10 11  2  0
 11 12  1  0
 12 13  2  0
 13 14  1  0
 13 15  1  0
 15 16  1  0
 16 17  1  1
 17 18  1  0
 17 19  1  0
 16 20  1  0
 20 21  2  0
 21 22  1  0
 21 23  1  0
 23 24  1  0
 24 25  1  0
 25 26  1  0
 15 27  2  0
  6 28  1  0
 28 29  1  0
 28 30  2  0
 30  3  1  0
 27 10  1  0
 26 16  1  0
 26 24  1  0
  4 31  1  0
  9 32  1  0
 11 33  1  0
 12 34  1  0
 17 35  1  0
 22 36  1  0
 22 37  1  0
 24 38  1  6
 25 39  1  0
 25 40  1  0
 26 41  1  6
 27 42  1  0
 30 43  1  0
M  END
$$$$
