
     RDKit          3D

 61 68  0  0  0  0  0  0  0  0999 V2000
   -2.1861    0.4077    1.9887 C   0  0  0  0  0  0  0  0  0  0  0  0
   -1.4362   -0.6122    1.2949 N   0  0  0  0  0  0  0  0  0  0  0  0
   -2.1857   -1.3173    0.3028 C   0  0  2  0  0  0  0  0  0  0  0  0
   -1.4209   -2.4635   -0.3111 C   0  0  0  0  0  0  0  0  0  0  0  0
   -0.4691   -2.0406   -1.3832 C   0  0  1  0  0  0  0  0  0  0  0  0
   -0.7394   -0.9624   -2.0912 O   0  0  0  0  0  0  0  0  0  0  0  0
   -1.4585    0.1033   -1.5551 C   0  0  1  0  0  0  0  0  0  0  0  0
   -1.8640    0.8997   -2.8208 C   0  0  0  0  0  0  0  0  0  0  0  0
   -2.6300   -0.4552   -0.8669 C   0  0  2  0  0  0  0  0  0  0  0  0
   -3.6482    0.3705   -0.5142 O   0  0  0  0  0  0  0  0  0  0  0  0
   -4.8390   -0.0439   -1.0887 C   0  0  0  0  0  0  0  0  0  0  0  0
   -0.5732    0.9413   -0.7702 N   0  0  0  0  0  0  0  0  0  0  0  0
   -0.6964    2.2492   -0.4960 C   0  0  0  0  0  0  0  0  0  0  0  0
   -1.6712    3.1556   -0.7977 C   0  0  0  0  0  0  0  0  0  0  0  0
   -1.5571    4.4774   -0.3820 C   0  0  0  0  0  0  0  0  0  0  0  0
   -0.4725    4.9269    0.3428 C   0  0  0  0  0  0  0  0  0  0  0  0
    0.5289    4.0106    0.6574 C   0  0  0  0  0  0  0  0  0  0  0  0
    0.3859    2.7103    0.2311 C   0  0  0  0  0  0  0  0  0  0  0  0
    1.1983    1.6302    0.4058 C   0  0  0  0  0  0  0  0  0  0  0  0
    2.4210    1.4549    1.0359 C   0  0  0  0  0  0  0  0  0  0  0  0
    3.0667    0.2299    1.0715 C   0  0  0  0  0  0  0  0  0  0  0  0
    2.4577   -0.8375    0.4565 C   0  0  0  0  0  0  0  0  0  0  0  0
    2.7549   -2.1703    0.2913 C   0  0  0  0  0  0  0  0  0  0  0  0
    3.8233   -2.9387    0.6870 C   0  0  0  0  0  0  0  0  0  0  0  0
    3.8248   -4.2981    0.3537 C   0  0  0  0  0  0  0  0  0  0  0  0
    2.7961   -4.8769   -0.3516 C   0  0  0  0  0  0  0  0  0  0  0  0
    1.7091   -4.0945   -0.7541 C   0  0  0  0  0  0  0  0  0  0  0  0
    1.7093   -2.7645   -0.4271 C   0  0  0  0  0  0  0  0  0  0  0  0
    0.8137   -1.8278   -0.6871 N   0  0  0  0  0  0  0  0  0  0  0  0
    1.2209   -0.6561   -0.1795 C   0  0  0  0  0  0  0  0  0  0  0  0
    0.6135    0.5793   -0.1951 C   0  0  0  0  0  0  0  0  0  0  0  0
    4.3159    0.3723    1.7975 C   0  0  0  0  0  0  0  0  0  0  0  0
    5.2007   -0.4493    2.0704 O   0  0  0  0  0  0  0  0  0  0  0  0
    4.4139    1.7377    2.2086 N   0  0  0  0  0  0  0  0  0  0  0  0
    3.2683    2.4592    1.7681 C   0  0  0  0  0  0  0  0  0  0  0  0
   -1.5915    0.8344    2.8467 H   0  0  0  0  0  0  0  0  0  0  0  0
   -3.0751   -0.0576    2.5123 H   0  0  0  0  0  0  0  0  0  0  0  0
   -2.6024    1.1973    1.3699 H   0  0  0  0  0  0  0  0  0  0  0  0
   -0.9852   -1.2183    1.9957 H   0  0  0  0  0  0  0  0  0  0  0  0
   -3.1173   -1.6945    0.7729 H   0  0  0  0  0  0  0  0  0  0  0  0
   -0.9111   -2.9844    0.5242 H   0  0  0  0  0  0  0  0  0  0  0  0
   -2.1415   -3.1901   -0.7361 H   0  0  0  0  0  0  0  0  0  0  0  0
   -0.2894   -2.8968   -2.0679 H   0  0  0  0  0  0  0  0  0  0  0  0
   -1.6825    0.2819   -3.7547 H   0  0  0  0  0  0  0  0  0  0  0  0
   -1.1811    1.7591   -2.9659 H   0  0  0  0  0  0  0  0  0  0  0  0
   -2.9290    1.1124   -2.8587 H   0  0  0  0  0  0  0  0  0  0  0  0
   -3.0785   -1.2274   -1.5764 H   0  0  0  0  0  0  0  0  0  0  0  0
   -5.6821    0.6343   -0.8075 H   0  0  0  0  0  0  0  0  0  0  0  0
   -4.8200   -0.1301   -2.1899 H   0  0  0  0  0  0  0  0  0  0  0  0
   -5.1528   -1.0466   -0.7012 H   0  0  0  0  0  0  0  0  0  0  0  0
   -2.5216    2.8413   -1.3452 H   0  0  0  0  0  0  0  0  0  0  0  0
   -2.3784    5.1428   -0.6628 H   0  0  0  0  0  0  0  0  0  0  0  0
   -0.4133    5.9650    0.6522 H   0  0  0  0  0  0  0  0  0  0  0  0
    1.3814    4.3373    1.2202 H   0  0  0  0  0  0  0  0  0  0  0  0
    4.6534   -2.5705    1.2314 H   0  0  0  0  0  0  0  0  0  0  0  0
    4.6792   -4.8839    0.6772 H   0  0  0  0  0  0  0  0  0  0  0  0
    2.7937   -5.9214   -0.6097 H   0  0  0  0  0  0  0  0  0  0  0  0
    0.8959   -4.5371   -1.3079 H   0  0  0  0  0  0  0  0  0  0  0  0
    5.2066    2.1745    2.7584 H   0  0  0  0  0  0  0  0  0  0  0  0
    2.6852    2.8932    2.6253 H   0  0  0  0  0  0  0  0  0  0  0  0
    3.5821    3.2778    1.1052 H   0  0  0  0  0  0  0  0  0  0  0  0
  1  2  1  0
  2  3  1  0
  3  4  1  0
  4  5  1  0
  5  6  1  0
  6  7  1  0
  7  8  1  6
  7  9  1  0
  9 10  1  0
 10 11  1  0
  7 12  1  0
 12 13  1  0
 13 14  2  0
 14 15  1  0
 15 16  2  0
 16 17  1  0
 17 18  2  0
 18 19  1  0
 19 20  2  0
 20 21  1  0
 21 22  2  0
 22 23  1  0
 23 24  2  0
 24 25  1  0
 25 26  2  0
 26 27  1  0
 27 28  2  0
 28 29  1  0
 29 30  1  0
 30 31  2  0
 21 32  1  0
 32 33  2  0
 32 34  1  0
 34 35  1  0
  9  3  1  0
 31 12  1  0
 29  5  1  0
 18 13  1  0
 31 19  1  0
 35 20  1  0
 30 22  1  0
 28 23  1  0
  1 36  1  0
  1 37  1  0
  1 38  1  0
  2 39  1  0
  3 40  1  1
  4 41  1  0
  4 42  1  0
  5 43  1  6
  8 44  1  0
  8 45  1  0
  8 46  1  0
  9 47  1  6
 11 48  1  0
 11 49  1  0
 11 50  1  0
 14 51  1  0
 15 52  1  0
 16 53  1  0
 17 54  1  0
 24 55  1  0
 25 56  1  0
 26 57  1  0
 27 58  1  0
 34 59  1  0
 35 60  1  0
 35 61  1  0
M  END
$$$$
