
     RDKit          3D

 62 66  0  0  0  0  0  0  0  0999 V2000
   -4.0237    1.5353    3.1834 C   0  0  0  0  0  0  0  0  0  0  0  0
   -3.4074    0.9833    1.9513 C   0  0  0  0  0  0  0  0  0  0  0  0
   -4.2544    0.4471    1.0059 C   0  0  0  0  0  0  0  0  0  0  0  0
   -3.7360   -0.0714   -0.1424 C   0  0  0  0  0  0  0  0  0  0  0  0
   -4.6178   -0.6560   -1.1810 C   0  0  0  0  0  0  0  0  0  0  0  0
   -5.8946   -0.7300   -1.1600 N   0  0  0  0  0  0  0  0  0  0  0  0
   -6.4389   -1.3605   -2.3334 C   0  0  0  0  0  0  0  0  0  0  0  0
   -7.1072   -0.3980   -3.2791 C   0  0  0  0  0  0  0  0  0  0  0  0
   -7.4330   -2.4556   -1.9397 C   0  0  0  0  0  0  0  0  0  0  0  0
   -5.2323   -2.0258   -2.9627 C   0  0  0  0  0  0  0  0  0  0  0  0
   -4.1512   -1.2374   -2.3871 N   0  0  0  0  0  0  0  0  0  0  0  0
   -2.3717   -0.0486   -0.3346 C   0  0  0  0  0  0  0  0  0  0  0  0
   -1.5336    0.4913    0.6197 C   0  0  0  0  0  0  0  0  0  0  0  0
   -0.1716    0.6477    0.7002 N   0  0  0  0  0  0  0  0  0  0  0  0
    0.1749    1.2377    1.8378 C   0  0  0  0  0  0  0  0  0  0  0  0
    1.4441    1.5584    2.4650 C   0  0  0  0  0  0  0  0  0  0  0  0
    2.6806    1.4350    1.8935 C   0  0  0  0  0  0  0  0  0  0  0  0
    2.7624    1.3264    0.4678 N   0  0  0  0  0  0  0  0  0  0  0  0
    4.0496    1.1103   -0.1603 C   0  0  0  0  0  0  0  0  0  0  0  0
    4.4914   -0.3113    0.0619 C   0  0  0  0  0  0  0  0  0  0  0  0
    3.4930   -1.1186   -0.5526 O   0  0  0  0  0  0  0  0  0  0  0  0
    5.7841   -0.6095   -0.5813 C   0  0  0  0  0  0  0  0  0  0  0  0
    6.9513   -0.8084    0.1245 C   0  0  0  0  0  0  0  0  0  0  0  0
    8.1552   -1.0870   -0.5127 C   0  0  0  0  0  0  0  0  0  0  0  0
    8.2227   -1.1746   -1.8850 C   0  0  0  0  0  0  0  0  0  0  0  0
    7.0620   -0.9776   -2.6000 C   0  0  0  0  0  0  0  0  0  0  0  0
    7.1627   -1.0924   -4.3462 Cl  0  0  0  0  0  0  0  0  0  0  0  0
    5.8648   -0.7005   -1.9673 C   0  0  0  0  0  0  0  0  0  0  0  0
    3.8713    1.5927    2.6192 C   0  0  0  0  0  0  0  0  0  0  0  0
    3.7883    1.8865    3.9497 C   0  0  0  0  0  0  0  0  0  0  0  0
    2.5850    2.0165    4.5240 N   0  0  0  0  0  0  0  0  0  0  0  0
    1.4432    1.8674    3.8471 C   0  0  0  0  0  0  0  0  0  0  0  0
    0.3144    1.9982    4.4220 O   0  0  0  0  0  0  0  0  0  0  0  0
   -1.0163    1.4484    2.4791 N   0  0  0  0  0  0  0  0  0  0  0  0
   -2.0421    1.0097    1.7662 C   0  0  0  0  0  0  0  0  0  0  0  0
   -4.5287    0.6970    3.7055 H   0  0  0  0  0  0  0  0  0  0  0  0
   -4.8475    2.2239    2.8479 H   0  0  0  0  0  0  0  0  0  0  0  0
   -3.3040    2.0612    3.8329 H   0  0  0  0  0  0  0  0  0  0  0  0
   -5.3460    0.4309    1.1638 H   0  0  0  0  0  0  0  0  0  0  0  0
   -6.7139    0.6233   -3.0937 H   0  0  0  0  0  0  0  0  0  0  0  0
   -8.2104   -0.3430   -3.0460 H   0  0  0  0  0  0  0  0  0  0  0  0
   -6.9553   -0.6692   -4.3483 H   0  0  0  0  0  0  0  0  0  0  0  0
   -8.2133   -1.9944   -1.2876 H   0  0  0  0  0  0  0  0  0  0  0  0
   -6.9319   -3.2733   -1.4001 H   0  0  0  0  0  0  0  0  0  0  0  0
   -7.8636   -2.8851   -2.8715 H   0  0  0  0  0  0  0  0  0  0  0  0
   -5.2408   -2.0037   -4.0620 H   0  0  0  0  0  0  0  0  0  0  0  0
   -5.1521   -3.0838   -2.6091 H   0  0  0  0  0  0  0  0  0  0  0  0
   -3.1984   -1.1186   -2.7887 H   0  0  0  0  0  0  0  0  0  0  0  0
   -1.9527   -0.4614   -1.2494 H   0  0  0  0  0  0  0  0  0  0  0  0
    0.4007    0.2767   -0.0705 H   0  0  0  0  0  0  0  0  0  0  0  0
    1.9779    1.4405   -0.1780 H   0  0  0  0  0  0  0  0  0  0  0  0
    3.9965    1.3279   -1.2646 H   0  0  0  0  0  0  0  0  0  0  0  0
    4.8446    1.7886    0.1968 H   0  0  0  0  0  0  0  0  0  0  0  0
    4.5549   -0.5242    1.1251 H   0  0  0  0  0  0  0  0  0  0  0  0
    3.6502   -2.0454   -0.2301 H   0  0  0  0  0  0  0  0  0  0  0  0
    6.9396   -0.7481    1.1992 H   0  0  0  0  0  0  0  0  0  0  0  0
    9.0772   -1.2451    0.0352 H   0  0  0  0  0  0  0  0  0  0  0  0
    9.1671   -1.3935   -2.4026 H   0  0  0  0  0  0  0  0  0  0  0  0
    4.9634   -0.5473   -2.5319 H   0  0  0  0  0  0  0  0  0  0  0  0
    4.8039    1.4901    2.1005 H   0  0  0  0  0  0  0  0  0  0  0  0
    4.7151    2.0064    4.5044 H   0  0  0  0  0  0  0  0  0  0  0  0
    2.4981    2.2409    5.5326 H   0  0  0  0  0  0  0  0  0  0  0  0
  1  2  1  0
  2  3  2  0
  3  4  1  0
  4  5  1  0
  5  6  2  0
  6  7  1  0
  7  8  1  0
  7  9  1  0
  7 10  1  0
 10 11  1  0
  4 12  2  0
 12 13  1  0
 13 14  1  0
 14 15  1  0
 15 16  1  0
 16 17  2  0
 17 18  1  0
 18 19  1  0
 19 20  1  0
 20 21  1  0
 20 22  1  0
 22 23  2  0
 23 24  1  0
 24 25  2  0
 25 26  1  0
 26 27  1  0
 26 28  2  0
 17 29  1  0
 29 30  2  0
 30 31  1  0
 31 32  1  0
 32 33  2  0
 15 34  2  0
 34 35  1  0
 35  2  1  0
 11  5  1  0
 35 13  2  0
 32 16  1  0
 28 22  1  0
  1 36  1  0
  1 37  1  0
  1 38  1  0
  3 39  1  0
  8 40  1  0
  8 41  1  0
  8 42  1  0
  9 43  1  0
  9 44  1  0
  9 45  1  0
 10 46  1  0
 10 47  1  0
 11 48  1  0
 12 49  1  0
 14 50  1  0
 18 51  1  0
 19 52  1  0
 19 53  1  0
 20 54  1  0
 21 55  1  0
 23 56  1  0
 24 57  1  0
 25 58  1  0
 28 59  1  0
 29 60  1  0
 30 61  1  0
 31 62  1  0
M  END
$$$$
