
     RDKit          3D

 51 54  0  0  0  0  0  0  0  0999 V2000
    1.9835   -0.3931   -2.7446 O   0  0  0  0  0  0  0  0  0  0  0  0
    1.7664   -0.3119   -1.5045 C   0  0  0  0  0  0  0  0  0  0  0  0
    0.5803    0.2495   -1.1057 O   0  0  0  0  0  0  0  0  0  0  0  0
   -0.4091    0.7407   -2.0249 C   0  0  2  0  0  0  0  0  0  0  0  0
   -0.4974    2.2083   -1.8229 C   0  0  0  0  0  0  0  0  0  0  0  0
   -1.6845    2.6654   -1.0961 C   0  0  0  0  0  0  0  0  0  0  0  0
   -1.6218    3.8688   -0.4277 C   0  0  0  0  0  0  0  0  0  0  0  0
   -0.4465    4.6449   -0.4379 O   0  0  0  0  0  0  0  0  0  0  0  0
   -2.6876    4.3723    0.2766 C   0  0  0  0  0  0  0  0  0  0  0  0
   -3.8431    3.6247    0.2956 C   0  0  0  0  0  0  0  0  0  0  0  0
   -4.9311    4.0920    0.9876 O   0  0  0  0  0  0  0  0  0  0  0  0
   -3.9263    2.4194   -0.3659 C   0  0  0  0  0  0  0  0  0  0  0  0
   -2.8539    1.9318   -1.0636 C   0  0  0  0  0  0  0  0  0  0  0  0
   -2.8443    0.7349   -1.7565 O   0  0  0  0  0  0  0  0  0  0  0  0
   -1.6709   -0.0340   -1.8074 C   0  0  2  0  0  0  0  0  0  0  0  0
   -1.5863   -0.9643   -0.6621 C   0  0  0  0  0  0  0  0  0  0  0  0
   -1.2195   -2.2697   -0.8548 C   0  0  0  0  0  0  0  0  0  0  0  0
   -1.1395   -3.1338    0.2103 C   0  0  0  0  0  0  0  0  0  0  0  0
   -0.7659   -4.4613    0.0092 O   0  0  0  0  0  0  0  0  0  0  0  0
   -1.4221   -2.7193    1.4873 C   0  0  0  0  0  0  0  0  0  0  0  0
   -1.3356   -3.6203    2.5755 O   0  0  0  0  0  0  0  0  0  0  0  0
   -1.7928   -1.4096    1.7005 C   0  0  0  0  0  0  0  0  0  0  0  0
   -2.0719   -1.0195    3.0004 O   0  0  0  0  0  0  0  0  0  0  0  0
   -1.8713   -0.5376    0.6096 C   0  0  0  0  0  0  0  0  0  0  0  0
    2.7763   -0.8130   -0.5783 C   0  0  0  0  0  0  0  0  0  0  0  0
    2.5881   -0.7477    0.7855 C   0  0  0  0  0  0  0  0  0  0  0  0
    3.5440   -1.2226    1.6837 C   0  0  0  0  0  0  0  0  0  0  0  0
    3.3656   -1.1621    3.0539 O   0  0  0  0  0  0  0  0  0  0  0  0
    4.7183   -1.7770    1.1989 C   0  0  0  0  0  0  0  0  0  0  0  0
    5.6694   -2.2498    2.1093 O   0  0  0  0  0  0  0  0  0  0  0  0
    4.9189   -1.8483   -0.1625 C   0  0  0  0  0  0  0  0  0  0  0  0
    6.0971   -2.4047   -0.6338 O   0  0  0  0  0  0  0  0  0  0  0  0
    3.9504   -1.3678   -1.0357 C   0  0  0  0  0  0  0  0  0  0  0  0
    0.0129    0.5569   -3.0336 H   0  0  0  0  0  0  0  0  0  0  0  0
    0.3994    2.6079   -1.3040 H   0  0  0  0  0  0  0  0  0  0  0  0
   -0.5081    2.7435   -2.8191 H   0  0  0  0  0  0  0  0  0  0  0  0
   -0.1195    4.9354   -1.3652 H   0  0  0  0  0  0  0  0  0  0  0  0
   -2.6093    5.3103    0.7863 H   0  0  0  0  0  0  0  0  0  0  0  0
   -4.8143    4.2189    2.0035 H   0  0  0  0  0  0  0  0  0  0  0  0
   -4.8383    1.8455   -0.3415 H   0  0  0  0  0  0  0  0  0  0  0  0
   -1.8138   -0.6868   -2.7241 H   0  0  0  0  0  0  0  0  0  0  0  0
   -0.9846   -2.6367   -1.8737 H   0  0  0  0  0  0  0  0  0  0  0  0
   -1.1658   -5.1845    0.5622 H   0  0  0  0  0  0  0  0  0  0  0  0
   -1.9221   -4.4371    2.4924 H   0  0  0  0  0  0  0  0  0  0  0  0
   -3.0307   -1.2113    3.3188 H   0  0  0  0  0  0  0  0  0  0  0  0
   -2.1665    0.4721    0.8497 H   0  0  0  0  0  0  0  0  0  0  0  0
    1.6805   -0.3202    1.2125 H   0  0  0  0  0  0  0  0  0  0  0  0
    3.3520   -0.2402    3.4903 H   0  0  0  0  0  0  0  0  0  0  0  0
    6.4940   -1.7119    2.2942 H   0  0  0  0  0  0  0  0  0  0  0  0
    6.5999   -1.9283   -1.3447 H   0  0  0  0  0  0  0  0  0  0  0  0
    4.0974   -1.4188   -2.1027 H   0  0  0  0  0  0  0  0  0  0  0  0
  1  2  2  0
  2  3  1  0
  3  4  1  0
  4  5  1  0
  5  6  1  0
  6  7  2  0
  7  8  1  0
  7  9  1  0
  9 10  2  0
 10 11  1  0
 10 12  1  0
 12 13  2  0
 13 14  1  0
 14 15  1  0
 15 16  1  0
 16 17  2  0
 17 18  1  0
 18 19  1  0
 18 20  2  0
 20 21  1  0
 20 22  1  0
 22 23  1  0
 22 24  2  0
  2 25  1  0
 25 26  2  0
 26 27  1  0
 27 28  1  0
 27 29  2  0
 29 30  1  0
 29 31  1  0
 31 32  1  0
 31 33  2  0
 15  4  1  0
 24 16  1  0
 33 25  1  0
 13  6  1  0
  4 34  1  6
  5 35  1  0
  5 36  1  0
  8 37  1  0
  9 38  1  0
 11 39  1  0
 12 40  1  0
 15 41  1  6
 17 42  1  0
 19 43  1  0
 21 44  1  0
 23 45  1  0
 24 46  1  0
 26 47  1  0
 28 48  1  0
 30 49  1  0
 32 50  1  0
 33 51  1  0
M  END
$$$$
