
     RDKit          3D

 66 67  0  0  0  0  0  0  0  0999 V2000
   -2.6324   -1.0140    1.2401 C   0  0  2  0  0  0  0  0  0  0  0  0
   -1.6811   -0.2214    0.3733 C   0  0  0  0  0  0  0  0  0  0  0  0
   -0.0099   -0.8534    0.4722 P   0  0  2  0  0  5  0  0  0  0  0  0
    0.4072   -1.4708   -1.0695 O   0  0  0  0  0  0  0  0  0  0  0  0
   -0.0206   -2.0764    1.3770 O   0  0  0  0  0  0  0  0  0  0  0  0
    1.1981    0.3692    1.0360 C   0  0  1  0  0  0  0  0  0  0  0  0
    0.9081    1.6680    0.5182 N   0  0  0  0  0  0  0  0  0  0  0  0
    2.0854    2.3005   -0.5639 S   0  0  0  0  0  0  0  0  0  0  0  0
    1.4802    3.6283   -1.0371 O   0  0  0  0  0  0  0  0  0  0  0  0
    3.3404    2.7064    0.1294 O   0  0  0  0  0  0  0  0  0  0  0  0
    2.2933    1.3352   -2.0042 C   0  0  0  0  0  0  0  0  0  0  0  0
    3.3150    1.8326   -2.9849 C   0  0  0  0  0  0  0  0  0  0  0  0
    4.7135    1.8466   -2.4213 C   0  0  0  0  0  0  0  0  0  0  0  0
    5.1746    0.4880   -2.0429 C   0  0  0  0  0  0  0  0  0  0  0  0
    5.0791   -0.1964   -0.8534 C   0  0  0  0  0  0  0  0  0  0  0  0
    5.5645   -1.4677   -0.6767 C   0  0  0  0  0  0  0  0  0  0  0  0
    6.1866   -2.1466   -1.6950 C   0  0  0  0  0  0  0  0  0  0  0  0
    6.3207   -1.5296   -2.9142 C   0  0  0  0  0  0  0  0  0  0  0  0
    5.8176   -0.2575   -3.0379 C   0  0  0  0  0  0  0  0  0  0  0  0
    1.3991    0.3251    2.5138 C   0  0  0  0  0  0  0  0  0  0  0  0
    0.1331    0.5973    3.2925 C   0  0  0  0  0  0  0  0  0  0  0  0
    2.0270   -0.9961    2.8989 C   0  0  0  0  0  0  0  0  0  0  0  0
   -2.6838   -2.4577    0.8364 C   0  0  0  0  0  0  0  0  0  0  0  0
   -3.1390   -2.7940   -0.4316 O   0  0  0  0  0  0  0  0  0  0  0  0
   -2.3483   -3.4714    1.5372 O   0  0  0  0  0  0  0  0  0  0  0  0
   -4.0196   -0.4963    1.1522 C   0  0  0  0  0  0  0  0  0  0  0  0
   -4.7410   -0.4656   -0.0349 C   0  0  0  0  0  0  0  0  0  0  0  0
   -6.0478    0.0282   -0.0889 C   0  0  0  0  0  0  0  0  0  0  0  0
   -6.7702    0.0368   -1.3835 C   0  0  0  0  0  0  0  0  0  0  0  0
   -6.5009    1.3073   -2.0440 N   0  0  0  0  0  0  0  0  0  0  0  0
   -6.6053    0.4905    1.0914 C   0  0  0  0  0  0  0  0  0  0  0  0
   -5.9477    0.4896    2.3029 C   0  0  0  0  0  0  0  0  0  0  0  0
   -4.6787   -0.0092    2.2634 C   0  0  0  0  0  0  0  0  0  0  0  0
   -2.2881   -0.9294    2.2807 H   0  0  0  0  0  0  0  0  0  0  0  0
   -1.8049    0.8354    0.6523 H   0  0  0  0  0  0  0  0  0  0  0  0
   -2.1084   -0.2944   -0.6693 H   0  0  0  0  0  0  0  0  0  0  0  0
   -0.4277   -1.8932   -1.4101 H   0  0  0  0  0  0  0  0  0  0  0  0
    2.1792    0.0593    0.5855 H   0  0  0  0  0  0  0  0  0  0  0  0
   -0.0158    1.7874    0.0903 H   0  0  0  0  0  0  0  0  0  0  0  0
    2.6338    0.2789   -1.7722 H   0  0  0  0  0  0  0  0  0  0  0  0
    1.3371    1.2262   -2.5726 H   0  0  0  0  0  0  0  0  0  0  0  0
    3.0512    2.8471   -3.3602 H   0  0  0  0  0  0  0  0  0  0  0  0
    3.3461    1.0987   -3.8322 H   0  0  0  0  0  0  0  0  0  0  0  0
    5.4198    2.2180   -3.2210 H   0  0  0  0  0  0  0  0  0  0  0  0
    4.7975    2.5721   -1.6161 H   0  0  0  0  0  0  0  0  0  0  0  0
    4.5940    0.3352   -0.0596 H   0  0  0  0  0  0  0  0  0  0  0  0
    5.4164   -1.8872    0.3272 H   0  0  0  0  0  0  0  0  0  0  0  0
    6.5441   -3.1407   -1.4891 H   0  0  0  0  0  0  0  0  0  0  0  0
    6.8032   -2.0305   -3.7378 H   0  0  0  0  0  0  0  0  0  0  0  0
    5.9502    0.1879   -4.0282 H   0  0  0  0  0  0  0  0  0  0  0  0
    2.1125    1.1170    2.7940 H   0  0  0  0  0  0  0  0  0  0  0  0
   -0.5890    1.2055    2.7140 H   0  0  0  0  0  0  0  0  0  0  0  0
   -0.2908   -0.3590    3.6496 H   0  0  0  0  0  0  0  0  0  0  0  0
    0.3409    1.1939    4.2082 H   0  0  0  0  0  0  0  0  0  0  0  0
    2.8672   -0.8443    3.6107 H   0  0  0  0  0  0  0  0  0  0  0  0
    2.4865   -1.4418    1.9926 H   0  0  0  0  0  0  0  0  0  0  0  0
    1.2842   -1.7224    3.2848 H   0  0  0  0  0  0  0  0  0  0  0  0
   -3.6879   -3.6511   -0.5933 H   0  0  0  0  0  0  0  0  0  0  0  0
   -4.2955   -0.8264   -0.9369 H   0  0  0  0  0  0  0  0  0  0  0  0
   -6.4890   -0.7948   -2.0372 H   0  0  0  0  0  0  0  0  0  0  0  0
   -7.8751   -0.0061   -1.2393 H   0  0  0  0  0  0  0  0  0  0  0  0
   -5.5677    1.6231   -1.7237 H   0  0  0  0  0  0  0  0  0  0  0  0
   -7.2130    2.0194   -1.7063 H   0  0  0  0  0  0  0  0  0  0  0  0
   -7.6339    0.8763    1.0352 H   0  0  0  0  0  0  0  0  0  0  0  0
   -6.3941    0.8540    3.2204 H   0  0  0  0  0  0  0  0  0  0  0  0
   -4.1003   -0.0395    3.1878 H   0  0  0  0  0  0  0  0  0  0  0  0
  1  2  1  0
  2  3  1  0
  3  4  1  6
  3  5  2  0
  3  6  1  0
  6  7  1  0
  7  8  1  0
  8  9  2  0
  8 10  2  0
  8 11  1  0
 11 12  1  0
 12 13  1  0
 13 14  1  0
 14 15  2  0
 15 16  1  0
 16 17  2  0
 17 18  1  0
 18 19  2  0
  6 20  1  0
 20 21  1  0
 20 22  1  0
  1 23  1  0
 23 24  1  0
 23 25  2  0
  1 26  1  0
 26 27  2  0
 27 28  1  0
 28 29  1  0
 29 30  1  0
 28 31  2  0
 31 32  1  0
 32 33  2  0
 19 14  1  0
 33 26  1  0
  1 34  1  1
  2 35  1  0
  2 36  1  0
  4 37  1  0
  6 38  1  6
  7 39  1  0
 11 40  1  0
 11 41  1  0
 12 42  1  0
 12 43  1  0
 13 44  1  0
 13 45  1  0
 15 46  1  0
 16 47  1  0
 17 48  1  0
 18 49  1  0
 19 50  1  0
 20 51  1  0
 21 52  1  0
 21 53  1  0
 21 54  1  0
 22 55  1  0
 22 56  1  0
 22 57  1  0
 24 58  1  0
 27 59  1  0
 29 60  1  0
 29 61  1  0
 30 62  1  0
 30 63  1  0
 31 64  1  0
 32 65  1  0
 33 66  1  0
M  END
$$$$
