
     RDKit          3D

180185  0  0  0  0  0  0  0  0999 V2000
    2.2208    2.6267   -2.4806 C   0  0  0  0  0  0  0  0  0  0  0  0
    3.5747    3.2607   -2.4803 C   0  0  1  0  0  0  0  0  0  0  0  0
    3.8668    4.0745   -3.5389 O   0  0  0  0  0  0  0  0  0  0  0  0
    3.9361    3.9090   -1.1623 C   0  0  2  0  0  0  0  0  0  0  0  0
    3.5427    2.9827   -0.0856 N   0  0  0  0  0  0  0  0  0  0  0  0
    4.6210    2.3725    0.6569 C   0  0  0  0  0  0  0  0  0  0  0  0
    5.8430    2.5995    0.3833 O   0  0  0  0  0  0  0  0  0  0  0  0
    4.2895    1.4670    1.7669 C   0  0  1  0  0  0  0  0  0  0  0  0
    3.5022    2.3137    2.7840 C   0  0  0  0  0  0  0  0  0  0  0  0
    3.4652    0.2896    1.4654 C   0  0  2  0  0  0  0  0  0  0  0  0
    3.2515   -0.4116    2.6859 O   0  0  0  0  0  0  0  0  0  0  0  0
    3.9811   -0.7224    0.5100 C   0  0  1  0  0  0  0  0  0  0  0  0
    5.2328   -1.4224    1.0625 C   0  0  0  0  0  0  0  0  0  0  0  0
    2.9324   -1.7208    0.3455 N   0  0  0  0  0  0  0  0  0  0  0  0
    2.5720   -2.5001   -0.7836 C   0  0  0  0  0  0  0  0  0  0  0  0
    3.3371   -2.2574   -1.7309 O   0  0  0  0  0  0  0  0  0  0  0  0
    1.3855   -3.4131   -0.5990 C   0  0  1  0  0  0  0  0  0  0  0  0
    0.7088   -3.1433    0.6181 N   0  0  0  0  0  0  0  0  0  0  0  0
    0.2110   -3.9400    1.6673 C   0  0  0  0  0  0  0  0  0  0  0  0
    0.3467   -5.2015    1.4874 O   0  0  0  0  0  0  0  0  0  0  0  0
   -0.4163   -3.4696    2.8927 C   0  0  0  0  0  0  0  0  0  0  0  0
   -1.2200   -4.2685    3.6618 C   0  0  0  0  0  0  0  0  0  0  0  0
   -1.6111   -5.6266    3.2420 C   0  0  0  0  0  0  0  0  0  0  0  0
   -1.6159   -3.6727    4.8382 C   0  0  0  0  0  0  0  0  0  0  0  0
   -2.4590   -4.4164    5.7106 N   0  0  0  0  0  0  0  0  0  0  0  0
   -1.2819   -2.4269    5.2553 N   0  0  0  0  0  0  0  0  0  0  0  0
   -0.4998   -1.6876    4.4769 C   0  0  0  0  0  0  0  0  0  0  0  0
   -0.0924   -2.2284    3.3204 N   0  0  0  0  0  0  0  0  0  0  0  0
   -0.0956   -0.3649    4.9845 C   0  0  2  0  0  0  0  0  0  0  0  0
   -0.5634   -0.0933    6.4069 C   0  0  0  0  0  0  0  0  0  0  0  0
   -0.0508    1.2698    6.7240 C   0  0  0  0  0  0  0  0  0  0  0  0
   -0.3786    1.7511    8.0109 N   0  0  0  0  0  0  0  0  0  0  0  0
    0.5338    2.3652    6.5814 O   0  0  0  0  0  0  0  0  0  0  0  0
   -0.1800    0.7478    4.1416 N   0  0  0  0  0  0  0  0  0  0  0  0
   -1.3814    1.4208    3.8890 C   0  0  0  0  0  0  0  0  0  0  0  0
   -2.4228    0.7655    3.0549 C   0  0  2  0  0  0  0  0  0  0  0  0
   -2.9564   -0.4630    3.5054 N   0  0  0  0  0  0  0  0  0  0  0  0
   -1.9734    0.6272    1.6341 C   0  0  0  0  0  0  0  0  0  0  0  0
   -2.0708   -0.5927    0.9163 N   0  0  0  0  0  0  0  0  0  0  0  0
   -1.4946    1.6362    1.0719 O   0  0  0  0  0  0  0  0  0  0  0  0
    0.6235   -3.6870   -1.8309 C   0  0  1  0  0  0  0  0  0  0  0  0
   -0.2274   -2.7842   -2.3594 O   0  0  0  0  0  0  0  0  0  0  0  0
   -1.4927   -3.3042   -2.4847 C   0  0  0  0  0  0  0  0  0  0  0  0
   -2.4124   -2.6497   -1.6819 O   0  0  0  0  0  0  0  0  0  0  0  0
   -3.6833   -3.1472   -1.7566 C   0  0  0  0  0  0  0  0  0  0  0  0
   -4.6491   -1.9938   -2.0328 C   0  0  0  0  0  0  0  0  0  0  0  0
   -4.6175   -1.0343   -1.0408 O   0  0  0  0  0  0  0  0  0  0  0  0
   -3.9258   -4.3463   -2.5838 C   0  0  0  0  0  0  0  0  0  0  0  0
   -3.9874   -5.4900   -1.7587 O   0  0  0  0  0  0  0  0  0  0  0  0
   -3.0606   -4.5629   -3.7742 C   0  0  0  0  0  0  0  0  0  0  0  0
   -2.2743   -5.7127   -3.5841 O   0  0  0  0  0  0  0  0  0  0  0  0
   -2.0304   -3.4062   -3.8706 C   0  0  0  0  0  0  0  0  0  0  0  0
   -1.1302   -3.6054   -4.8805 O   0  0  0  0  0  0  0  0  0  0  0  0
   -1.3496   -2.7653   -5.9992 C   0  0  0  0  0  0  0  0  0  0  0  0
   -1.7171   -3.4786   -7.1150 O   0  0  0  0  0  0  0  0  0  0  0  0
   -0.7203   -4.0754   -7.8248 C   0  0  0  0  0  0  0  0  0  0  0  0
   -0.6507   -5.5706   -7.7269 C   0  0  0  0  0  0  0  0  0  0  0  0
   -1.8098   -6.1834   -8.1858 O   0  0  0  0  0  0  0  0  0  0  0  0
    0.6725   -3.5486   -7.5478 C   0  0  0  0  0  0  0  0  0  0  0  0
    1.4508   -3.8177   -8.6710 O   0  0  0  0  0  0  0  0  0  0  0  0
    0.6958   -2.0776   -7.3110 C   0  0  0  0  0  0  0  0  0  0  0  0
    2.0182   -1.6879   -6.9705 O   0  0  0  0  0  0  0  0  0  0  0  0
    2.7165   -0.7453   -7.7369 C   0  0  0  0  0  0  0  0  0  0  0  0
    4.0274   -0.4776   -7.2380 N   0  0  0  0  0  0  0  0  0  0  0  0
    2.2929   -0.1682   -8.7508 O   0  0  0  0  0  0  0  0  0  0  0  0
   -0.2707   -1.7583   -6.2051 C   0  0  0  0  0  0  0  0  0  0  0  0
   -0.8512   -0.4903   -6.4745 O   0  0  0  0  0  0  0  0  0  0  0  0
    1.6096   -4.1566   -2.8991 C   0  0  0  0  0  0  0  0  0  0  0  0
    2.0393   -5.4917   -2.9885 C   0  0  0  0  0  0  0  0  0  0  0  0
    2.9079   -5.5917   -4.0216 N   0  0  0  0  0  0  0  0  0  0  0  0
    3.0257   -4.3831   -4.5650 C   0  0  0  0  0  0  0  0  0  0  0  0
    2.2490   -3.5145   -3.8961 N   0  0  0  0  0  0  0  0  0  0  0  0
    3.3305    5.2267   -0.9465 C   0  0  0  0  0  0  0  0  0  0  0  0
    2.3318    5.0286   -0.1724 O   0  0  0  0  0  0  0  0  0  0  0  0
    3.6067    6.5423   -1.3693 N   0  0  0  0  0  0  0  0  0  0  0  0
    2.9051    7.7392   -1.0540 C   0  0  0  0  0  0  0  0  0  0  0  0
    1.5570    7.9802   -1.5717 C   0  0  0  0  0  0  0  0  0  0  0  0
    0.5366    6.9640   -1.2942 C   0  0  0  0  0  0  0  0  0  0  0  0
   -0.3804    6.5592   -0.4428 N   0  0  0  0  0  0  0  0  0  0  0  0
   -1.1445    5.5587   -0.7700 C   0  0  0  0  0  0  0  0  0  0  0  0
   -1.0409    4.8460   -2.0484 C   0  0  0  0  0  0  0  0  0  0  0  0
    0.3797    5.8341   -2.7974 S   0  0  0  0  0  0  0  0  0  0  0  0
   -2.2503    5.1240    0.1155 C   0  0  0  0  0  0  0  0  0  0  0  0
   -2.5091    5.3461    1.3104 N   0  0  0  0  0  0  0  0  0  0  0  0
   -3.5812    4.8288    1.8840 C   0  0  0  0  0  0  0  0  0  0  0  0
   -4.4421    4.0176    1.1403 C   0  0  0  0  0  0  0  0  0  0  0  0
   -3.5427    4.0569   -0.5277 S   0  0  0  0  0  0  0  0  0  0  0  0
   -3.8093    5.0581    3.3024 C   0  0  0  0  0  0  0  0  0  0  0  0
   -2.9096    5.3374    4.1166 O   0  0  0  0  0  0  0  0  0  0  0  0
   -5.0663    4.9966    3.9331 N   0  0  0  0  0  0  0  0  0  0  0  0
   -5.8985    5.0746    5.0983 C   0  0  0  0  0  0  0  0  0  0  0  0
   -5.6826    4.0324    6.1344 C   0  0  0  0  0  0  0  0  0  0  0  0
   -4.4011    3.9544    6.8510 C   0  0  0  0  0  0  0  0  0  0  0  0
   -3.9826    5.2926    7.8716 S   0  0  0  0  0  3  0  0  0  0  0  0
   -3.8259    6.8621    7.1729 C   0  0  0  0  0  0  0  0  0  0  0  0
   -2.6746    4.9314    8.9792 C   0  0  0  0  0  0  0  0  0  0  0  0
    1.4902    3.2491   -1.9082 H   0  0  0  0  0  0  0  0  0  0  0  0
    1.8590    2.4305   -3.5071 H   0  0  0  0  0  0  0  0  0  0  0  0
    2.2979    1.6125   -2.0032 H   0  0  0  0  0  0  0  0  0  0  0  0
    4.3087    2.3907   -2.5620 H   0  0  0  0  0  0  0  0  0  0  0  0
    4.6665    3.7975   -4.0312 H   0  0  0  0  0  0  0  0  0  0  0  0
    5.0394    3.9601   -1.1452 H   0  0  0  0  0  0  0  0  0  0  0  0
    2.5542    2.7529    0.1601 H   0  0  0  0  0  0  0  0  0  0  0  0
    5.2331    1.2282    2.3084 H   0  0  0  0  0  0  0  0  0  0  0  0
    4.0125    3.2763    2.8511 H   0  0  0  0  0  0  0  0  0  0  0  0
    3.5900    1.7608    3.7496 H   0  0  0  0  0  0  0  0  0  0  0  0
    2.4349    2.3947    2.4992 H   0  0  0  0  0  0  0  0  0  0  0  0
    2.4553    0.6098    1.1405 H   0  0  0  0  0  0  0  0  0  0  0  0
    2.3059   -0.6309    2.8257 H   0  0  0  0  0  0  0  0  0  0  0  0
    4.2767   -0.3714   -0.4796 H   0  0  0  0  0  0  0  0  0  0  0  0
    4.9653   -1.8257    2.0657 H   0  0  0  0  0  0  0  0  0  0  0  0
    6.0746   -0.7532    1.1968 H   0  0  0  0  0  0  0  0  0  0  0  0
    5.5178   -2.2171    0.3368 H   0  0  0  0  0  0  0  0  0  0  0  0
    2.3864   -1.8652    1.2504 H   0  0  0  0  0  0  0  0  0  0  0  0
    1.8967   -4.4412   -0.3916 H   0  0  0  0  0  0  0  0  0  0  0  0
    0.4939   -2.1174    0.8258 H   0  0  0  0  0  0  0  0  0  0  0  0
   -1.8385   -5.7079    2.1514 H   0  0  0  0  0  0  0  0  0  0  0  0
   -2.6017   -5.8449    3.7410 H   0  0  0  0  0  0  0  0  0  0  0  0
   -0.9494   -6.4318    3.6081 H   0  0  0  0  0  0  0  0  0  0  0  0
   -3.4765   -4.1951    5.8137 H   0  0  0  0  0  0  0  0  0  0  0  0
   -3.0567   -4.9637    6.3461 H   0  0  0  0  0  0  0  0  0  0  0  0
    1.0488   -0.5086    5.1488 H   0  0  0  0  0  0  0  0  0  0  0  0
   -1.6326   -0.1870    6.5597 H   0  0  0  0  0  0  0  0  0  0  0  0
   -0.0289   -0.8031    7.0645 H   0  0  0  0  0  0  0  0  0  0  0  0
   -0.6748    2.1639    8.9306 H   0  0  0  0  0  0  0  0  0  0  0  0
   -0.0347    1.4650    8.9765 H   0  0  0  0  0  0  0  0  0  0  0  0
    0.3230    0.5748    3.2461 H   0  0  0  0  0  0  0  0  0  0  0  0
   -1.1180    2.3844    3.3436 H   0  0  0  0  0  0  0  0  0  0  0  0
   -1.9025    1.7968    4.8077 H   0  0  0  0  0  0  0  0  0  0  0  0
   -3.2835    1.4993    3.0027 H   0  0  0  0  0  0  0  0  0  0  0  0
   -2.9539   -1.1730    2.7446 H   0  0  0  0  0  0  0  0  0  0  0  0
   -3.9265   -0.4130    3.8827 H   0  0  0  0  0  0  0  0  0  0  0  0
   -2.1163   -1.6251    0.8710 H   0  0  0  0  0  0  0  0  0  0  0  0
   -2.1342   -0.4801   -0.1212 H   0  0  0  0  0  0  0  0  0  0  0  0
   -0.0023   -4.6207   -1.6096 H   0  0  0  0  0  0  0  0  0  0  0  0
   -1.4845   -4.3670   -2.0805 H   0  0  0  0  0  0  0  0  0  0  0  0
   -3.9377   -3.4271   -0.6830 H   0  0  0  0  0  0  0  0  0  0  0  0
   -5.6887   -2.3970   -2.0463 H   0  0  0  0  0  0  0  0  0  0  0  0
   -4.4023   -1.4657   -2.9766 H   0  0  0  0  0  0  0  0  0  0  0  0
   -5.4383   -0.9191   -0.5258 H   0  0  0  0  0  0  0  0  0  0  0  0
   -4.9761   -4.2411   -2.9979 H   0  0  0  0  0  0  0  0  0  0  0  0
   -4.7391   -6.0650   -2.0376 H   0  0  0  0  0  0  0  0  0  0  0  0
   -3.5896   -4.6954   -4.7290 H   0  0  0  0  0  0  0  0  0  0  0  0
   -2.5717   -6.2409   -2.8232 H   0  0  0  0  0  0  0  0  0  0  0  0
   -2.6852   -2.5496   -4.1884 H   0  0  0  0  0  0  0  0  0  0  0  0
   -2.2723   -2.1705   -5.7165 H   0  0  0  0  0  0  0  0  0  0  0  0
   -0.8928   -3.8590   -8.9222 H   0  0  0  0  0  0  0  0  0  0  0  0
    0.2333   -5.8826   -8.3532 H   0  0  0  0  0  0  0  0  0  0  0  0
   -0.4116   -5.8413   -6.6829 H   0  0  0  0  0  0  0  0  0  0  0  0
   -2.2022   -5.5775   -8.8715 H   0  0  0  0  0  0  0  0  0  0  0  0
    1.1533   -4.0920   -6.7070 H   0  0  0  0  0  0  0  0  0  0  0  0
    2.4112   -3.9121   -8.4608 H   0  0  0  0  0  0  0  0  0  0  0  0
    0.4202   -1.5113   -8.2212 H   0  0  0  0  0  0  0  0  0  0  0  0
    3.8191    0.4293   -6.7624 H   0  0  0  0  0  0  0  0  0  0  0  0
    5.0531   -0.6824   -7.0877 H   0  0  0  0  0  0  0  0  0  0  0  0
    0.2610   -1.6188   -5.2581 H   0  0  0  0  0  0  0  0  0  0  0  0
   -1.2629   -0.1290   -5.6404 H   0  0  0  0  0  0  0  0  0  0  0  0
    1.7820   -6.3704   -2.3814 H   0  0  0  0  0  0  0  0  0  0  0  0
    3.6427   -4.0757   -5.4244 H   0  0  0  0  0  0  0  0  0  0  0  0
    2.1210   -2.4988   -4.0848 H   0  0  0  0  0  0  0  0  0  0  0  0
    4.4685    6.5082   -1.9942 H   0  0  0  0  0  0  0  0  0  0  0  0
    3.5682    8.6252   -1.3455 H   0  0  0  0  0  0  0  0  0  0  0  0
    2.8926    7.8890    0.0955 H   0  0  0  0  0  0  0  0  0  0  0  0
    1.1787    8.9887   -1.1154 H   0  0  0  0  0  0  0  0  0  0  0  0
    1.5923    8.2763   -2.6630 H   0  0  0  0  0  0  0  0  0  0  0  0
   -1.5504    3.9799   -2.5816 H   0  0  0  0  0  0  0  0  0  0  0  0
   -5.3972    3.5320    1.5753 H   0  0  0  0  0  0  0  0  0  0  0  0
   -5.7616    4.7809    3.1364 H   0  0  0  0  0  0  0  0  0  0  0  0
   -5.7210    6.1021    5.5674 H   0  0  0  0  0  0  0  0  0  0  0  0
   -6.9565    5.1050    4.8071 H   0  0  0  0  0  0  0  0  0  0  0  0
   -6.5071    4.0942    6.8980 H   0  0  0  0  0  0  0  0  0  0  0  0
   -5.8816    3.0094    5.6682 H   0  0  0  0  0  0  0  0  0  0  0  0
   -3.5986    3.6663    6.1260 H   0  0  0  0  0  0  0  0  0  0  0  0
   -4.4418    3.0332    7.5342 H   0  0  0  0  0  0  0  0  0  0  0  0
   -3.1184    7.4599    7.8474 H   0  0  0  0  0  0  0  0  0  0  0  0
   -4.7622    7.4979    7.2405 H   0  0  0  0  0  0  0  0  0  0  0  0
   -3.3748    6.9445    6.1804 H   0  0  0  0  0  0  0  0  0  0  0  0
   -1.8233    5.6359    8.8924 H   0  0  0  0  0  0  0  0  0  0  0  0
   -3.0236    5.0483   10.0494 H   0  0  0  0  0  0  0  0  0  0  0  0
   -2.2743    3.9097    8.8663 H   0  0  0  0  0  0  0  0  0  0  0  0
  1  2  1  0
  2  3  1  0
  2  4  1  0
  4  5  1  0
  5  6  1  0
  6  7  2  0
  6  8  1  0
  8  9  1  0
  8 10  1  0
 10 11  1  0
 10 12  1  0
 12 13  1  0
 12 14  1  0
 14 15  1  0
 15 16  2  0
 15 17  1  0
 17 18  1  0
 18 19  1  0
 19 20  2  0
 19 21  1  0
 21 22  2  0
 22 23  1  0
 22 24  1  0
 24 25  1  0
 24 26  2  0
 26 27  1  0
 27 28  2  0
 27 29  1  0
 29 30  1  0
 30 31  1  0
 31 32  1  0
 31 33  2  0
 29 34  1  0
 34 35  1  0
 35 36  1  0
 36 37  1  0
 36 38  1  0
 38 39  1  0
 38 40  2  0
 17 41  1  0
 41 42  1  0
 42 43  1  0
 43 44  1  0
 44 45  1  0
 45 46  1  0
 46 47  1  0
 45 48  1  0
 48 49  1  0
 48 50  1  0
 50 51  1  0
 50 52  1  0
 52 53  1  0
 53 54  1  0
 54 55  1  0
 55 56  1  0
 56 57  1  0
 57 58  1  0
 56 59  1  0
 59 60  1  0
 59 61  1  0
 61 62  1  0
 62 63  1  0
 63 64  1  0
 63 65  2  0
 61 66  1  0
 66 67  1  0
 41 68  1  0
 68 69  2  0
 69 70  1  0
 70 71  2  0
 71 72  1  0
  4 73  1  0
 73 74  2  0
 73 75  1  0
 75 76  1  0
 76 77  1  0
 77 78  1  0
 78 79  2  0
 79 80  1  0
 80 81  2  0
 81 82  1  0
 80 83  1  0
 83 84  2  0
 84 85  1  0
 85 86  2  0
 86 87  1  0
 85 88  1  0
 88 89  2  0
 88 90  1  0
 90 91  1  0
 91 92  1  0
 92 93  1  0
 93 94  1  0
 94 95  1  0
 94 96  1  0
 28 21  1  0
 52 43  1  0
 66 54  1  0
 72 68  1  0
 82 78  1  0
 87 83  1  0
  1 97  1  0
  1 98  1  0
  1 99  1  0
  2100  1  6
  3101  1  0
  4102  1  6
  5103  1  0
  8104  1  1
  9105  1  0
  9106  1  0
  9107  1  0
 10108  1  6
 11109  1  0
 12110  1  6
 13111  1  0
 13112  1  0
 13113  1  0
 14114  1  0
 17115  1  1
 18116  1  0
 23117  1  0
 23118  1  0
 23119  1  0
 25120  1  0
 25121  1  0
 29122  1  1
 30123  1  0
 30124  1  0
 32125  1  0
 32126  1  0
 34127  1  0
 35128  1  0
 35129  1  0
 36130  1  6
 37131  1  0
 37132  1  0
 39133  1  0
 39134  1  0
 41135  1  1
 43136  1  0
 45137  1  0
 46138  1  0
 46139  1  0
 47140  1  0
 48141  1  0
 49142  1  0
 50143  1  0
 51144  1  0
 52145  1  0
 54146  1  0
 56147  1  0
 57148  1  0
 57149  1  0
 58150  1  0
 59151  1  0
 60152  1  0
 61153  1  0
 64154  1  0
 64155  1  0
 66156  1  0
 67157  1  0
 69158  1  0
 71159  1  0
 72160  1  0
 75161  1  0
 76162  1  0
 76163  1  0
 77164  1  0
 77165  1  0
 81166  1  0
 86167  1  0
 90168  1  0
 91169  1  0
 91170  1  0
 92171  1  0
 92172  1  0
 93173  1  0
 93174  1  0
 95175  1  0
 95176  1  0
 95177  1  0
 96178  1  0
 96179  1  0
 96180  1  0
M  CHG  1  94   1
M  END
$$$$
