
     RDKit          3D

 89 88  0  0  0  0  0  0  0  0999 V2000
    9.7482    3.2048   -0.9881 C   0  0  0  0  0  0  0  0  0  0  0  0
   10.0279    2.3936    0.2684 C   0  0  0  0  0  0  0  0  0  0  0  0
    9.8463    0.9376   -0.0798 C   0  0  0  0  0  0  0  0  0  0  0  0
    8.4389    0.7131   -0.5606 C   0  0  0  0  0  0  0  0  0  0  0  0
    7.4165    1.0635    0.4629 C   0  0  0  0  0  0  0  0  0  0  0  0
    5.9996    0.8249   -0.0211 C   0  0  0  0  0  0  0  0  0  0  0  0
    5.7127   -0.5915   -0.3944 C   0  0  0  0  0  0  0  0  0  0  0  0
    5.9001   -1.5535    0.7426 C   0  0  0  0  0  0  0  0  0  0  0  0
    5.5823   -2.9519    0.2534 C   0  0  0  0  0  0  0  0  0  0  0  0
    4.1597   -3.0414   -0.2411 C   0  0  0  0  0  0  0  0  0  0  0  0
    3.2367   -2.6953    0.8973 C   0  0  0  0  0  0  0  0  0  0  0  0
    1.8024   -2.7897    0.3584 C   0  0  0  0  0  0  0  0  0  0  0  0
    0.9112   -2.4381    1.5331 C   0  0  0  0  0  0  0  0  0  0  0  0
   -0.5159   -2.4956    1.1121 C   0  0  0  0  0  0  0  0  0  0  0  0
   -0.7607   -1.5183   -0.0115 C   0  0  0  0  0  0  0  0  0  0  0  0
   -0.4304   -0.1430    0.4630 C   0  0  0  0  0  0  0  0  0  0  0  0
   -0.6055    0.8651   -0.4475 O   0  0  0  0  0  0  0  0  0  0  0  0
   -1.8716    1.0414   -0.9374 C   0  0  0  0  0  0  0  0  0  0  0  0
   -2.8941    1.3546    0.1187 C   0  0  2  0  0  0  0  0  0  0  0  0
   -4.2002    1.7390   -0.5952 C   0  0  0  0  0  0  0  0  0  0  0  0
   -5.1637    2.1671    0.2886 O   0  0  0  0  0  0  0  0  0  0  0  0
   -6.5382    2.7801   -0.4318 P   0  0  1  0  0  5  0  0  0  0  0  0
   -7.3257    3.8171    0.6539 O   0  0  0  0  0  1  0  0  0  0  0  0
   -6.2339    3.5083   -1.7267 O   0  0  0  0  0  0  0  0  0  0  0  0
   -7.6047    1.5343   -0.8315 O   0  0  0  0  0  0  0  0  0  0  0  0
   -8.2926    1.0823    0.2707 C   0  0  0  0  0  0  0  0  0  0  0  0
   -9.3417    0.0529   -0.0741 C   0  0  0  0  0  0  0  0  0  0  0  0
   -8.8494   -1.1269   -0.6990 N   0  0  0  0  0  4  0  0  0  0  0  0
   -9.9125   -2.1338   -0.6412 C   0  0  0  0  0  0  0  0  0  0  0  0
   -8.6180   -0.9176   -2.1321 C   0  0  0  0  0  0  0  0  0  0  0  0
   -7.6512   -1.6800   -0.1590 C   0  0  0  0  0  0  0  0  0  0  0  0
   -2.4900    2.5443    0.7719 O   0  0  0  0  0  0  0  0  0  0  0  0
   -2.4151    2.6471    2.1663 C   0  0  0  0  0  0  0  0  0  0  0  0
   -1.9766    3.9522    2.7233 C   0  0  0  0  0  0  0  0  0  0  0  0
   -2.7241    1.6303    2.8232 O   0  0  0  0  0  0  0  0  0  0  0  0
    8.7026    3.5681   -0.9797 H   0  0  0  0  0  0  0  0  0  0  0  0
    9.8650    2.6053   -1.9181 H   0  0  0  0  0  0  0  0  0  0  0  0
   10.4956    4.0108   -1.0502 H   0  0  0  0  0  0  0  0  0  0  0  0
    9.3434    2.6830    1.0610 H   0  0  0  0  0  0  0  0  0  0  0  0
   11.0980    2.5111    0.5710 H   0  0  0  0  0  0  0  0  0  0  0  0
   10.0116    0.2888    0.8246 H   0  0  0  0  0  0  0  0  0  0  0  0
   10.5406    0.6533   -0.9006 H   0  0  0  0  0  0  0  0  0  0  0  0
    8.2277    1.3093   -1.4832 H   0  0  0  0  0  0  0  0  0  0  0  0
    8.3784   -0.3814   -0.8220 H   0  0  0  0  0  0  0  0  0  0  0  0
    7.5663    0.5738    1.4305 H   0  0  0  0  0  0  0  0  0  0  0  0
    7.4607    2.1762    0.6548 H   0  0  0  0  0  0  0  0  0  0  0  0
    5.7047    1.4838   -0.8440 H   0  0  0  0  0  0  0  0  0  0  0  0
    5.3497    1.0573    0.8597 H   0  0  0  0  0  0  0  0  0  0  0  0
    6.2284   -0.9245   -1.3229 H   0  0  0  0  0  0  0  0  0  0  0  0
    4.6231   -0.6330   -0.6544 H   0  0  0  0  0  0  0  0  0  0  0  0
    6.9725   -1.5771    1.0774 H   0  0  0  0  0  0  0  0  0  0  0  0
    5.2921   -1.2237    1.5925 H   0  0  0  0  0  0  0  0  0  0  0  0
    5.7822   -3.7175    1.0139 H   0  0  0  0  0  0  0  0  0  0  0  0
    6.2252   -3.1422   -0.6336 H   0  0  0  0  0  0  0  0  0  0  0  0
    3.9645   -4.1300   -0.4675 H   0  0  0  0  0  0  0  0  0  0  0  0
    3.9800   -2.4922   -1.1662 H   0  0  0  0  0  0  0  0  0  0  0  0
    3.3041   -3.4908    1.6640 H   0  0  0  0  0  0  0  0  0  0  0  0
    3.3350   -1.6817    1.2873 H   0  0  0  0  0  0  0  0  0  0  0  0
    1.7570   -2.0600   -0.4676 H   0  0  0  0  0  0  0  0  0  0  0  0
    1.5530   -3.8037    0.0181 H   0  0  0  0  0  0  0  0  0  0  0  0
    1.0600   -3.2866    2.2699 H   0  0  0  0  0  0  0  0  0  0  0  0
    1.2190   -1.5203    2.0585 H   0  0  0  0  0  0  0  0  0  0  0  0
   -1.1678   -2.1468    1.9615 H   0  0  0  0  0  0  0  0  0  0  0  0
   -0.7707   -3.5420    0.8509 H   0  0  0  0  0  0  0  0  0  0  0  0
   -0.1973   -1.8206   -0.9243 H   0  0  0  0  0  0  0  0  0  0  0  0
   -1.8340   -1.6391   -0.2853 H   0  0  0  0  0  0  0  0  0  0  0  0
    0.6771   -0.1512    0.6934 H   0  0  0  0  0  0  0  0  0  0  0  0
   -0.9136    0.0275    1.4332 H   0  0  0  0  0  0  0  0  0  0  0  0
   -1.8272    1.9168   -1.6266 H   0  0  0  0  0  0  0  0  0  0  0  0
   -2.2007    0.1966   -1.5997 H   0  0  0  0  0  0  0  0  0  0  0  0
   -3.1362    0.5427    0.8010 H   0  0  0  0  0  0  0  0  0  0  0  0
   -4.6035    0.8068   -1.0752 H   0  0  0  0  0  0  0  0  0  0  0  0
   -3.9964    2.4541   -1.4083 H   0  0  0  0  0  0  0  0  0  0  0  0
   -8.8291    1.9432    0.7207 H   0  0  0  0  0  0  0  0  0  0  0  0
   -7.6364    0.6711    1.0808 H   0  0  0  0  0  0  0  0  0  0  0  0
  -10.0594    0.5602   -0.7787 H   0  0  0  0  0  0  0  0  0  0  0  0
   -9.9363   -0.1438    0.8397 H   0  0  0  0  0  0  0  0  0  0  0  0
  -10.0268   -2.5619    0.3620 H   0  0  0  0  0  0  0  0  0  0  0  0
   -9.6831   -2.8789   -1.4221 H   0  0  0  0  0  0  0  0  0  0  0  0
  -10.8394   -1.5924   -0.9882 H   0  0  0  0  0  0  0  0  0  0  0  0
   -8.5038   -1.8493   -2.6863 H   0  0  0  0  0  0  0  0  0  0  0  0
   -9.4292   -0.2541   -2.4943 H   0  0  0  0  0  0  0  0  0  0  0  0
   -7.6818   -0.3268   -2.2749 H   0  0  0  0  0  0  0  0  0  0  0  0
   -6.7351   -1.1432   -0.5328 H   0  0  0  0  0  0  0  0  0  0  0  0
   -7.5579   -2.7128   -0.6078 H   0  0  0  0  0  0  0  0  0  0  0  0
   -7.6464   -1.8400    0.9231 H   0  0  0  0  0  0  0  0  0  0  0  0
   -2.2821    3.9479    3.7969 H   0  0  0  0  0  0  0  0  0  0  0  0
   -0.9279    4.1939    2.5574 H   0  0  0  0  0  0  0  0  0  0  0  0
   -2.6619    4.7091    2.2416 H   0  0  0  0  0  0  0  0  0  0  0  0
  1  2  1  0
  2  3  1  0
  3  4  1  0
  4  5  1  0
  5  6  1  0
  6  7  1  0
  7  8  1  0
  8  9  1  0
  9 10  1  0
 10 11  1  0
 11 12  1  0
 12 13  1  0
 13 14  1  0
 14 15  1  0
 15 16  1  0
 16 17  1  0
 17 18  1  0
 18 19  1  0
 19 20  1  0
 20 21  1  0
 21 22  1  0
 22 23  1  1
 22 24  2  0
 22 25  1  0
 25 26  1  0
 26 27  1  0
 27 28  1  0
 28 29  1  0
 28 30  1  0
 28 31  1  0
 19 32  1  0
 32 33  1  0
 33 34  1  0
 33 35  2  0
  1 36  1  0
  1 37  1  0
  1 38  1  0
  2 39  1  0
  2 40  1  0
  3 41  1  0
  3 42  1  0
  4 43  1  0
  4 44  1  0
  5 45  1  0
  5 46  1  0
  6 47  1  0
  6 48  1  0
  7 49  1  0
  7 50  1  0
  8 51  1  0
  8 52  1  0
  9 53  1  0
  9 54  1  0
 10 55  1  0
 10 56  1  0
 11 57  1  0
 11 58  1  0
 12 59  1  0
 12 60  1  0
 13 61  1  0
 13 62  1  0
 14 63  1  0
 14 64  1  0
 15 65  1  0
 15 66  1  0
 16 67  1  0
 16 68  1  0
 18 69  1  0
 18 70  1  0
 19 71  1  1
 20 72  1  0
 20 73  1  0
 26 74  1  0
 26 75  1  0
 27 76  1  0
 27 77  1  0
 29 78  1  0
 29 79  1  0
 29 80  1  0
 30 81  1  0
 30 82  1  0
 30 83  1  0
 31 84  1  0
 31 85  1  0
 31 86  1  0
 34 87  1  0
 34 88  1  0
 34 89  1  0
M  CHG  2  23  -1  28   1
M  END
$$$$
