
     RDKit          3D

 53 57  0  0  0  0  0  0  0  0999 V2000
   -6.7996    2.7347   -1.1607 C   0  0  0  0  0  0  0  0  0  0  0  0
   -5.8810    1.7028   -0.7119 N   0  0  0  0  0  0  0  0  0  0  0  0
   -4.5473    1.7504   -0.8254 C   0  0  0  0  0  0  0  0  0  0  0  0
   -3.9729    0.5849   -0.2880 C   0  0  0  0  0  0  0  0  0  0  0  0
   -2.5558    0.2615   -0.2576 C   0  0  0  0  0  0  0  0  0  0  0  0
   -1.6192    1.0882    0.3316 C   0  0  0  0  0  0  0  0  0  0  0  0
   -0.2860    0.7354    0.3060 C   0  0  0  0  0  0  0  0  0  0  0  0
    0.1753   -0.4360   -0.2960 C   0  0  0  0  0  0  0  0  0  0  0  0
   -0.7699   -1.2513   -0.8805 C   0  0  0  0  0  0  0  0  0  0  0  0
   -2.1226   -0.8923   -0.8542 C   0  0  0  0  0  0  0  0  0  0  0  0
   -0.0555   -2.4215   -1.4521 C   0  0  0  0  0  0  0  0  0  0  0  0
    1.2268   -2.4432   -0.6617 C   0  0  0  0  0  0  0  0  0  0  0  0
    1.4665   -1.0156   -0.4526 N   0  0  0  0  0  0  0  0  0  0  0  0
    2.6874   -0.3114   -0.4064 C   0  0  0  0  0  0  0  0  0  0  0  0
    2.6840    0.9220   -0.2149 O   0  0  0  0  0  0  0  0  0  0  0  0
    3.9484   -1.0618   -0.5880 C   0  0  0  0  0  0  0  0  0  0  0  0
    5.0711   -0.0965   -0.4962 C   0  0  0  0  0  0  0  0  0  0  0  0
    5.5579    0.5535   -1.6107 C   0  0  0  0  0  0  0  0  0  0  0  0
    6.6158    1.4521   -1.4693 C   0  0  0  0  0  0  0  0  0  0  0  0
    7.1786    1.6981   -0.2363 C   0  0  0  0  0  0  0  0  0  0  0  0
    6.6659    1.0307    0.8524 C   0  0  0  0  0  0  0  0  0  0  0  0
    7.2466    1.2691    2.2011 C   0  0  0  0  0  0  0  0  0  0  0  0
    7.1315    0.0942    2.9106 F   0  0  0  0  0  0  0  0  0  0  0  0
    8.5928    1.5625    2.1182 F   0  0  0  0  0  0  0  0  0  0  0  0
    6.5374    2.3039    2.8161 F   0  0  0  0  0  0  0  0  0  0  0  0
    5.6195    0.1347    0.7480 C   0  0  0  0  0  0  0  0  0  0  0  0
   -5.0122   -0.1870    0.1649 C   0  0  0  0  0  0  0  0  0  0  0  0
   -5.0822   -1.4219    0.7894 C   0  0  0  0  0  0  0  0  0  0  0  0
   -3.8993   -2.1448    1.0888 N   0  0  0  0  0  0  0  0  0  0  0  0
   -6.3030   -1.8880    1.1083 N   0  0  0  0  0  0  0  0  0  0  0  0
   -7.4387   -1.2166    0.8511 C   0  0  0  0  0  0  0  0  0  0  0  0
   -7.3343   -0.0215    0.2454 N   0  0  0  0  0  0  0  0  0  0  0  0
   -6.1665    0.5359   -0.1153 C   0  0  0  0  0  0  0  0  0  0  0  0
   -6.3314    3.7384   -1.1546 H   0  0  0  0  0  0  0  0  0  0  0  0
   -7.2391    2.4881   -2.1529 H   0  0  0  0  0  0  0  0  0  0  0  0
   -7.6757    2.8129   -0.4593 H   0  0  0  0  0  0  0  0  0  0  0  0
   -3.9218    2.5248   -1.2503 H   0  0  0  0  0  0  0  0  0  0  0  0
   -1.9066    2.0105    0.8154 H   0  0  0  0  0  0  0  0  0  0  0  0
    0.4841    1.3576    0.7574 H   0  0  0  0  0  0  0  0  0  0  0  0
   -2.8178   -1.5569   -1.3382 H   0  0  0  0  0  0  0  0  0  0  0  0
   -0.5931   -3.3799   -1.1956 H   0  0  0  0  0  0  0  0  0  0  0  0
    0.1101   -2.3438   -2.5360 H   0  0  0  0  0  0  0  0  0  0  0  0
    2.0724   -2.8751   -1.2369 H   0  0  0  0  0  0  0  0  0  0  0  0
    1.1270   -2.9674    0.2968 H   0  0  0  0  0  0  0  0  0  0  0  0
    4.0717   -1.8441    0.2018 H   0  0  0  0  0  0  0  0  0  0  0  0
    3.9535   -1.5963   -1.5668 H   0  0  0  0  0  0  0  0  0  0  0  0
    5.1429    0.3880   -2.5993 H   0  0  0  0  0  0  0  0  0  0  0  0
    7.0160    1.9743   -2.3246 H   0  0  0  0  0  0  0  0  0  0  0  0
    7.9947    2.3932   -0.1362 H   0  0  0  0  0  0  0  0  0  0  0  0
    5.2734   -0.3492    1.6491 H   0  0  0  0  0  0  0  0  0  0  0  0
   -3.2837   -1.7449    1.8423 H   0  0  0  0  0  0  0  0  0  0  0  0
   -3.6111   -3.0173    0.6253 H   0  0  0  0  0  0  0  0  0  0  0  0
   -8.4253   -1.6182    1.1208 H   0  0  0  0  0  0  0  0  0  0  0  0
  1  2  1  0
  2  3  1  0
  3  4  2  0
  4  5  1  0
  5  6  2  0
  6  7  1  0
  7  8  2  0
  8  9  1  0
  9 10  2  0
  9 11  1  0
 11 12  1  0
 12 13  1  0
 13 14  1  0
 14 15  2  0
 14 16  1  0
 16 17  1  0
 17 18  2  0
 18 19  1  0
 19 20  2  0
 20 21  1  0
 21 22  1  0
 22 23  1  0
 22 24  1  0
 22 25  1  0
 21 26  2  0
  4 27  1  0
 27 28  2  0
 28 29  1  0
 28 30  1  0
 30 31  2  0
 31 32  1  0
 32 33  2  0
 33  2  1  0
 10  5  1  0
 26 17  1  0
 33 27  1  0
 13  8  1  0
  1 34  1  0
  1 35  1  0
  1 36  1  0
  3 37  1  0
  6 38  1  0
  7 39  1  0
 10 40  1  0
 11 41  1  0
 11 42  1  0
 12 43  1  0
 12 44  1  0
 16 45  1  0
 16 46  1  0
 18 47  1  0
 19 48  1  0
 20 49  1  0
 26 50  1  0
 29 51  1  0
 29 52  1  0
 31 53  1  0
M  END
$$$$
