
     RDKit          3D

 50 52  0  0  0  0  0  0  0  0999 V2000
    6.6973    1.4588    1.0756 C   0  0  0  0  0  0  0  0  0  0  0  0
    5.4185    0.5935    0.9417 C   0  0  0  0  0  0  0  0  0  0  0  0
    5.7971   -0.5568    0.0984 C   0  0  0  0  0  0  0  0  0  0  0  0
    4.7668   -1.5691   -0.2479 C   0  0  0  0  0  0  0  0  0  0  0  0
    3.6286   -1.1057   -0.9613 N   0  0  0  0  0  0  0  0  0  0  0  0
    3.6024   -1.0046   -2.3967 C   0  0  0  0  0  0  0  0  0  0  0  0
    4.5183   -1.2691   -3.2159 O   0  0  0  0  0  0  0  0  0  0  0  0
    2.2891   -0.5247   -2.7954 C   0  0  0  0  0  0  0  0  0  0  0  0
    1.8998   -0.3119   -3.9928 O   0  0  0  0  0  0  0  0  0  0  0  0
    1.5333   -0.3436   -1.5687 C   0  0  0  0  0  0  0  0  0  0  0  0
    0.2370    0.0789   -1.3983 C   0  0  0  0  0  0  0  0  0  0  0  0
   -0.3108    0.1683   -0.1478 C   0  0  0  0  0  0  0  0  0  0  0  0
   -1.9781    0.7177    0.0828 S   0  0  0  0  0  6  0  0  0  0  0  0
   -2.0288    1.2596    1.5055 O   0  0  0  0  0  0  0  0  0  0  0  0
   -2.2205    1.7954   -0.9052 O   0  0  0  0  0  0  0  0  0  0  0  0
   -3.0473   -0.5935   -0.0409 N   0  0  0  0  0  0  0  0  0  0  0  0
   -2.7965   -1.5755    0.9639 C   0  0  0  0  0  0  0  0  0  0  0  0
   -4.0773   -1.8073    1.7381 C   0  0  0  0  0  0  0  0  0  0  0  0
   -4.9366   -0.5950    1.3834 C   0  0  0  0  0  0  0  0  0  0  0  0
   -4.4244   -0.2728    0.0198 C   0  0  1  0  0  0  0  0  0  0  0  0
   -4.7475    1.1453   -0.3823 C   0  0  0  0  0  0  0  0  0  0  0  0
   -6.1456    1.2893   -0.2642 O   0  0  0  0  0  0  0  0  0  0  0  0
   -6.5327    2.5840   -0.6204 C   0  0  0  0  0  0  0  0  0  0  0  0
    0.4764   -0.1776    0.9196 C   0  0  0  0  0  0  0  0  0  0  0  0
    1.7686   -0.5989    0.7561 C   0  0  0  0  0  0  0  0  0  0  0  0
    2.6666   -1.0722    2.1680 Cl  0  0  0  0  0  0  0  0  0  0  0  0
    2.3536   -0.6975   -0.4983 C   0  0  0  0  0  0  0  0  0  0  0  0
    7.0661    1.7599    0.0914 H   0  0  0  0  0  0  0  0  0  0  0  0
    7.4459    0.8813    1.6662 H   0  0  0  0  0  0  0  0  0  0  0  0
    6.4016    2.3150    1.7139 H   0  0  0  0  0  0  0  0  0  0  0  0
    5.1953    0.3306    2.0018 H   0  0  0  0  0  0  0  0  0  0  0  0
    4.6432    1.2549    0.5603 H   0  0  0  0  0  0  0  0  0  0  0  0
    6.6497   -1.0848    0.5956 H   0  0  0  0  0  0  0  0  0  0  0  0
    6.2831   -0.1228   -0.8327 H   0  0  0  0  0  0  0  0  0  0  0  0
    4.4255   -2.1220    0.6769 H   0  0  0  0  0  0  0  0  0  0  0  0
    5.3198   -2.3861   -0.8116 H   0  0  0  0  0  0  0  0  0  0  0  0
   -0.3685    0.3466   -2.2501 H   0  0  0  0  0  0  0  0  0  0  0  0
   -2.5362   -2.5273    0.4299 H   0  0  0  0  0  0  0  0  0  0  0  0
   -2.0139   -1.2518    1.6496 H   0  0  0  0  0  0  0  0  0  0  0  0
   -3.9272   -1.8515    2.8264 H   0  0  0  0  0  0  0  0  0  0  0  0
   -4.6090   -2.7031    1.3850 H   0  0  0  0  0  0  0  0  0  0  0  0
   -6.0073   -0.8995    1.2889 H   0  0  0  0  0  0  0  0  0  0  0  0
   -4.8172    0.2261    2.1138 H   0  0  0  0  0  0  0  0  0  0  0  0
   -4.9644   -0.9385   -0.7118 H   0  0  0  0  0  0  0  0  0  0  0  0
   -4.4970    1.3569   -1.4196 H   0  0  0  0  0  0  0  0  0  0  0  0
   -4.3091    1.8386    0.3612 H   0  0  0  0  0  0  0  0  0  0  0  0
   -7.6332    2.6226   -0.5040 H   0  0  0  0  0  0  0  0  0  0  0  0
   -6.2105    2.7384   -1.6789 H   0  0  0  0  0  0  0  0  0  0  0  0
   -6.0022    3.3116    0.0289 H   0  0  0  0  0  0  0  0  0  0  0  0
    0.0584   -0.1101    1.9127 H   0  0  0  0  0  0  0  0  0  0  0  0
  1  2  1  0
  2  3  1  0
  3  4  1  0
  4  5  1  0
  5  6  1  0
  6  7  2  0
  6  8  1  0
  8  9  2  0
  8 10  1  0
 10 11  2  0
 11 12  1  0
 12 13  1  0
 13 14  2  0
 13 15  2  0
 13 16  1  0
 16 17  1  0
 17 18  1  0
 18 19  1  0
 19 20  1  0
 20 21  1  0
 21 22  1  0
 22 23  1  0
 12 24  2  0
 24 25  1  0
 25 26  1  0
 25 27  2  0
 27  5  1  0
 27 10  1  0
 20 16  1  0
  1 28  1  0
  1 29  1  0
  1 30  1  0
  2 31  1  0
  2 32  1  0
  3 33  1  0
  3 34  1  0
  4 35  1  0
  4 36  1  0
 11 37  1  0
 17 38  1  0
 17 39  1  0
 18 40  1  0
 18 41  1  0
 19 42  1  0
 19 43  1  0
 20 44  1  6
 21 45  1  0
 21 46  1  0
 23 47  1  0
 23 48  1  0
 23 49  1  0
 24 50  1  0
M  END
$$$$
