
     RDKit          3D

 20 21  0  0  0  0  0  0  0  0999 V2000
    4.2631    0.5193    0.7267 N   0  0  0  0  0  0  0  0  0  0  0  0
    3.4269   -0.9055    0.2457 S   0  0  0  0  0  0  0  0  0  0  0  0
    3.5902   -1.9642    1.3091 O   0  0  0  0  0  0  0  0  0  0  0  0
    3.7944   -1.3868   -1.1031 O   0  0  0  0  0  0  0  0  0  0  0  0
    1.6804   -0.5874    0.1308 C   0  0  0  0  0  0  0  0  0  0  0  0
    0.9583   -0.2311   -0.6835 N   0  0  0  0  0  0  0  0  0  0  0  0
   -0.3380   -0.0316   -0.6490 C   0  0  0  0  0  0  0  0  0  0  0  0
   -0.9163   -0.2900    0.5480 C   0  0  0  0  0  0  0  0  0  0  0  0
    0.4948   -0.8281    1.6017 S   0  0  0  0  0  0  0  0  0  0  0  0
   -2.2645   -0.1688    0.8774 C   0  0  0  0  0  0  0  0  0  0  0  0
   -3.1407    0.2591   -0.0958 C   0  0  0  0  0  0  0  0  0  0  0  0
   -4.4732    0.3829    0.2161 O   0  0  0  0  0  0  0  0  0  0  0  0
   -2.5572    0.5303   -1.3392 C   0  0  0  0  0  0  0  0  0  0  0  0
   -1.2240    0.3960   -1.6157 C   0  0  0  0  0  0  0  0  0  0  0  0
    4.4144    0.5605    1.7568 H   0  0  0  0  0  0  0  0  0  0  0  0
    3.8408    1.3893    0.3464 H   0  0  0  0  0  0  0  0  0  0  0  0
   -2.5325   -0.4228    1.8886 H   0  0  0  0  0  0  0  0  0  0  0  0
   -4.8388    1.2569    0.6012 H   0  0  0  0  0  0  0  0  0  0  0  0
   -3.2557    0.8736   -2.1225 H   0  0  0  0  0  0  0  0  0  0  0  0
   -0.9224    0.6482   -2.6395 H   0  0  0  0  0  0  0  0  0  0  0  0
  1  2  1  0
  2  3  2  0
  2  4  2  0
  2  5  1  0
  5  6  2  0
  6  7  1  0
  7  8  2  0
  8  9  1  0
  8 10  1  0
 10 11  2  0
 11 12  1  0
 11 13  1  0
 13 14  2  0
  9  5  1  0
 14  7  1  0
  1 15  1  0
  1 16  1  0
 10 17  1  0
 12 18  1  0
 13 19  1  0
 14 20  1  0
M  END
$$$$
