
     RDKit          3D

 72 75  0  0  0  0  0  0  0  0999 V2000
    5.5885    0.2438    0.7082 C   0  0  0  0  0  0  0  0  0  0  0  0
    5.7003    1.2406   -0.3892 C   0  0  0  0  0  0  0  0  0  0  0  0
    4.6966    1.8019   -1.1148 C   0  0  0  0  0  0  0  0  0  0  0  0
    3.2521    1.5204   -1.0886 C   0  0  0  0  0  0  0  0  0  0  0  0
    2.4765    2.4124   -1.5997 O   0  0  0  0  0  0  0  0  0  0  0  0
    2.6361    0.3803   -0.5699 N   0  0  0  0  0  0  0  0  0  0  0  0
    1.2564    0.0744   -0.5209 C   0  0  0  0  0  0  0  0  0  0  0  0
    0.9029   -1.1395    0.0879 C   0  0  0  0  0  0  0  0  0  0  0  0
   -0.4128   -1.5577    0.1890 C   0  0  0  0  0  0  0  0  0  0  0  0
   -1.4310   -0.7847   -0.3117 C   0  0  0  0  0  0  0  0  0  0  0  0
   -2.8257   -1.2063   -0.2236 C   0  0  0  0  0  0  0  0  0  0  0  0
   -3.7231   -0.8256   -1.2189 C   0  0  0  0  0  0  0  0  0  0  0  0
   -5.0531   -1.2054   -1.1795 C   0  0  0  0  0  0  0  0  0  0  0  0
   -5.5412   -1.9765   -0.1520 C   0  0  0  0  0  0  0  0  0  0  0  0
   -7.2240   -2.4265   -0.1549 S   0  0  0  0  0  6  0  0  0  0  0  0
   -7.3274   -3.7621    0.5514 O   0  0  0  0  0  0  0  0  0  0  0  0
   -7.7476   -2.6205   -1.5448 O   0  0  0  0  0  0  0  0  0  0  0  0
   -8.1143   -1.2439    0.7224 N   0  0  0  0  0  0  0  0  0  0  0  0
   -8.0557    0.0716    0.1705 C   0  0  2  0  0  0  0  0  0  0  0  0
   -7.4044    1.0375    1.1199 C   0  0  0  0  0  0  0  0  0  0  0  0
   -7.2740    2.2393    0.7743 O   0  0  0  0  0  0  0  0  0  0  0  0
   -6.9522    0.6275    2.3534 O   0  0  0  0  0  0  0  0  0  0  0  0
   -9.4673    0.5299   -0.1439 C   0  0  0  0  0  0  0  0  0  0  0  0
  -10.2863    0.5461    1.1350 C   0  0  0  0  0  0  0  0  0  0  0  0
  -10.0954   -0.5130   -1.0459 C   0  0  0  0  0  0  0  0  0  0  0  0
   -4.6669   -2.3613    0.8404 C   0  0  0  0  0  0  0  0  0  0  0  0
   -3.3301   -1.9789    0.7999 C   0  0  0  0  0  0  0  0  0  0  0  0
   -1.0791    0.3987   -0.9041 C   0  0  0  0  0  0  0  0  0  0  0  0
    0.2591    0.8317   -1.0110 C   0  0  0  0  0  0  0  0  0  0  0  0
    5.2426    2.7127   -1.9268 O   0  0  0  0  0  0  0  0  0  0  0  0
    6.5340    2.7543   -1.7559 C   0  0  0  0  0  0  0  0  0  0  0  0
    7.5240    3.5364   -2.3622 C   0  0  0  0  0  0  0  0  0  0  0  0
    8.8157    3.3436   -1.9550 C   0  0  0  0  0  0  0  0  0  0  0  0
    9.1657    2.4238   -0.9903 C   0  0  0  0  0  0  0  0  0  0  0  0
   10.8389    2.2485   -0.5016 Cl  0  0  0  0  0  0  0  0  0  0  0  0
    8.1754    1.6362   -0.3825 C   0  0  0  0  0  0  0  0  0  0  0  0
    8.5507    0.7031    0.5884 O   0  0  0  0  0  0  0  0  0  0  0  0
    8.9608   -0.5991    0.2085 C   0  0  0  0  0  0  0  0  0  0  0  0
   10.4341   -0.7676    0.5685 C   0  0  0  0  0  0  0  0  0  0  0  0
    8.2300   -1.7245    0.8505 C   0  0  0  0  0  0  0  0  0  0  0  0
    6.8896    1.8367   -0.7907 C   0  0  0  0  0  0  0  0  0  0  0  0
    6.4406    0.4002    1.4281 H   0  0  0  0  0  0  0  0  0  0  0  0
    4.6876    0.4695    1.3537 H   0  0  0  0  0  0  0  0  0  0  0  0
    5.5220   -0.7649    0.3461 H   0  0  0  0  0  0  0  0  0  0  0  0
    3.3081   -0.3694   -0.1844 H   0  0  0  0  0  0  0  0  0  0  0  0
    1.6656   -1.7977    0.5052 H   0  0  0  0  0  0  0  0  0  0  0  0
   -0.6382   -2.5011    0.6659 H   0  0  0  0  0  0  0  0  0  0  0  0
   -3.3183   -0.2118   -2.0291 H   0  0  0  0  0  0  0  0  0  0  0  0
   -5.6661   -0.8527   -2.0147 H   0  0  0  0  0  0  0  0  0  0  0  0
   -7.9908   -1.3188    1.7416 H   0  0  0  0  0  0  0  0  0  0  0  0
   -7.4546    0.0632   -0.7410 H   0  0  0  0  0  0  0  0  0  0  0  0
   -6.1801    1.1230    2.8151 H   0  0  0  0  0  0  0  0  0  0  0  0
   -9.5047    1.5294   -0.5829 H   0  0  0  0  0  0  0  0  0  0  0  0
  -10.2738    1.5544    1.6083 H   0  0  0  0  0  0  0  0  0  0  0  0
  -11.3342    0.3314    0.8596 H   0  0  0  0  0  0  0  0  0  0  0  0
   -9.9292   -0.1819    1.8831 H   0  0  0  0  0  0  0  0  0  0  0  0
   -9.5142   -0.5678   -1.9639 H   0  0  0  0  0  0  0  0  0  0  0  0
  -11.1575   -0.2464   -1.2415 H   0  0  0  0  0  0  0  0  0  0  0  0
  -10.0121   -1.4769   -0.5145 H   0  0  0  0  0  0  0  0  0  0  0  0
   -5.0230   -2.9770    1.6757 H   0  0  0  0  0  0  0  0  0  0  0  0
   -2.6289   -2.2796    1.5841 H   0  0  0  0  0  0  0  0  0  0  0  0
   -1.8115    1.0549   -1.3160 H   0  0  0  0  0  0  0  0  0  0  0  0
    0.4603    1.7756   -1.4923 H   0  0  0  0  0  0  0  0  0  0  0  0
    7.2315    4.2524   -3.1180 H   0  0  0  0  0  0  0  0  0  0  0  0
    9.5962    3.9490   -2.4211 H   0  0  0  0  0  0  0  0  0  0  0  0
    8.8626   -0.6758   -0.9019 H   0  0  0  0  0  0  0  0  0  0  0  0
   10.6840   -0.0383    1.3567 H   0  0  0  0  0  0  0  0  0  0  0  0
   11.0475   -0.6767   -0.3460 H   0  0  0  0  0  0  0  0  0  0  0  0
   10.5799   -1.8203    0.9525 H   0  0  0  0  0  0  0  0  0  0  0  0
    7.4359   -2.1641    0.2101 H   0  0  0  0  0  0  0  0  0  0  0  0
    7.8303   -1.4795    1.8648 H   0  0  0  0  0  0  0  0  0  0  0  0
    8.9669   -2.5606    1.0352 H   0  0  0  0  0  0  0  0  0  0  0  0
  1  2  1  0
  2  3  2  0
  3  4  1  0
  4  5  2  0
  4  6  1  0
  6  7  1  0
  7  8  2  0
  8  9  1  0
  9 10  2  0
 10 11  1  0
 11 12  2  0
 12 13  1  0
 13 14  2  0
 14 15  1  0
 15 16  2  0
 15 17  2  0
 15 18  1  0
 18 19  1  0
 19 20  1  0
 20 21  2  0
 20 22  1  0
 19 23  1  0
 23 24  1  0
 23 25  1  0
 14 26  1  0
 26 27  2  0
 10 28  1  0
 28 29  2  0
  3 30  1  0
 30 31  1  0
 31 32  2  0
 32 33  1  0
 33 34  2  0
 34 35  1  0
 34 36  1  0
 36 37  1  0
 37 38  1  0
 38 39  1  0
 38 40  1  0
 36 41  2  0
 41  2  1  0
 29  7  1  0
 41 31  1  0
 27 11  1  0
  1 42  1  0
  1 43  1  0
  1 44  1  0
  6 45  1  0
  8 46  1  0
  9 47  1  0
 12 48  1  0
 13 49  1  0
 18 50  1  0
 19 51  1  6
 22 52  1  0
 23 53  1  0
 24 54  1  0
 24 55  1  0
 24 56  1  0
 25 57  1  0
 25 58  1  0
 25 59  1  0
 26 60  1  0
 27 61  1  0
 28 62  1  0
 29 63  1  0
 32 64  1  0
 33 65  1  0
 38 66  1  0
 39 67  1  0
 39 68  1  0
 39 69  1  0
 40 70  1  0
 40 71  1  0
 40 72  1  0
M  END
$$$$
