
     RDKit          3D

 55 57  0  0  0  0  0  0  0  0999 V2000
   10.3966   -0.5740   -0.1687 N   0  0  0  0  0  0  0  0  0  0  0  0
    8.9872   -0.7345   -0.2259 C   0  0  0  0  0  0  0  0  0  0  0  0
    8.5883   -1.9941    0.1138 N   0  0  0  0  0  0  0  0  0  0  0  0
    7.2504   -2.2647    0.0941 C   0  0  0  0  0  0  0  0  0  0  0  0
    6.7418   -3.3965    0.3883 O   0  0  0  0  0  0  0  0  0  0  0  0
    6.3843   -1.2297   -0.2734 C   0  0  0  0  0  0  0  0  0  0  0  0
    6.8308    0.0514   -0.6159 C   0  0  0  0  0  0  0  0  0  0  0  0
    5.8848    1.0564   -0.9804 N   0  0  0  0  0  0  0  0  0  0  0  0
    4.4558    0.8037   -1.0456 C   0  0  0  0  0  0  0  0  0  0  0  0
    4.1521   -0.2546   -0.0210 C   0  0  0  0  0  0  0  0  0  0  0  0
    2.7080   -0.6506   -0.1399 C   0  0  0  0  0  0  0  0  0  0  0  0
    1.8366    0.4835    0.0849 N   0  0  0  0  0  0  0  0  0  0  0  0
    0.4376    0.2336   -0.0013 C   0  0  0  0  0  0  0  0  0  0  0  0
   -0.0455   -1.0280   -0.2848 C   0  0  0  0  0  0  0  0  0  0  0  0
   -1.4209   -1.2714   -0.3690 C   0  0  0  0  0  0  0  0  0  0  0  0
   -2.3084   -0.2290   -0.1644 C   0  0  0  0  0  0  0  0  0  0  0  0
   -1.8148    1.0278    0.1184 C   0  0  0  0  0  0  0  0  0  0  0  0
   -0.4561    1.2650    0.2009 C   0  0  0  0  0  0  0  0  0  0  0  0
   -3.7327   -0.5277   -0.2616 C   0  0  0  0  0  0  0  0  0  0  0  0
   -4.0588   -1.7065   -0.5236 O   0  0  0  0  0  0  0  0  0  0  0  0
   -4.7388    0.4498   -0.0738 N   0  0  0  0  0  0  0  0  0  0  0  0
   -6.1598    0.1301   -0.1755 C   0  0  1  0  0  0  0  0  0  0  0  0
   -6.9012    0.4863    1.0647 C   0  0  0  0  0  0  0  0  0  0  0  0
   -8.3572    0.1287    0.9171 C   0  0  0  0  0  0  0  0  0  0  0  0
   -9.0968    0.4840    2.1842 C   0  0  0  0  0  0  0  0  0  0  0  0
   -8.7940    1.0398    3.4184 O   0  0  0  0  0  0  0  0  0  0  0  0
  -10.3299    0.2823    2.3120 O   0  0  0  0  0  0  0  0  0  0  0  0
   -6.6584    0.9578   -1.3337 C   0  0  0  0  0  0  0  0  0  0  0  0
   -5.8628    1.8365   -2.0559 O   0  0  0  0  0  0  0  0  0  0  0  0
   -7.8058    1.0530   -1.8844 O   0  0  0  0  0  0  0  0  0  0  0  0
    4.9639   -1.4383   -0.3173 N   0  0  0  0  0  0  0  0  0  0  0  0
    8.1527    0.2647   -0.5806 N   0  0  0  0  0  0  0  0  0  0  0  0
   11.2954   -0.7289   -0.6517 H   0  0  0  0  0  0  0  0  0  0  0  0
   10.4784   -0.1059    0.7608 H   0  0  0  0  0  0  0  0  0  0  0  0
    6.3229    1.9662   -1.1887 H   0  0  0  0  0  0  0  0  0  0  0  0
    3.8596    1.6978   -0.8486 H   0  0  0  0  0  0  0  0  0  0  0  0
    4.2651    0.3454   -2.0488 H   0  0  0  0  0  0  0  0  0  0  0  0
    4.3568    0.0801    1.0131 H   0  0  0  0  0  0  0  0  0  0  0  0
    2.4942   -0.9894   -1.1855 H   0  0  0  0  0  0  0  0  0  0  0  0
    2.4423   -1.4313    0.5993 H   0  0  0  0  0  0  0  0  0  0  0  0
    2.1883    1.4214    0.2955 H   0  0  0  0  0  0  0  0  0  0  0  0
    0.6543   -1.8397   -0.4440 H   0  0  0  0  0  0  0  0  0  0  0  0
   -1.7388   -2.2798   -0.5941 H   0  0  0  0  0  0  0  0  0  0  0  0
   -2.5024    1.8473    0.2795 H   0  0  0  0  0  0  0  0  0  0  0  0
   -0.1417    2.2741    0.4260 H   0  0  0  0  0  0  0  0  0  0  0  0
   -4.4934    1.4240    0.1422 H   0  0  0  0  0  0  0  0  0  0  0  0
   -6.2984   -0.9329   -0.4080 H   0  0  0  0  0  0  0  0  0  0  0  0
   -6.5265   -0.0657    1.9408 H   0  0  0  0  0  0  0  0  0  0  0  0
   -6.8656    1.5878    1.2085 H   0  0  0  0  0  0  0  0  0  0  0  0
   -8.5006   -0.9754    0.7679 H   0  0  0  0  0  0  0  0  0  0  0  0
   -8.8719    0.6346    0.0890 H   0  0  0  0  0  0  0  0  0  0  0  0
   -8.6651    0.4578    4.2496 H   0  0  0  0  0  0  0  0  0  0  0  0
   -6.1432    2.7232   -2.4197 H   0  0  0  0  0  0  0  0  0  0  0  0
    4.6290   -2.4155   -0.5567 H   0  0  0  0  0  0  0  0  0  0  0  0
    8.5323    1.1998   -0.8266 H   0  0  0  0  0  0  0  0  0  0  0  0
  1  2  1  0
  2  3  2  0
  3  4  1  0
  4  5  2  0
  4  6  1  0
  6  7  2  0
  7  8  1  0
  8  9  1  0
  9 10  1  0
 10 11  1  0
 11 12  1  0
 12 13  1  0
 13 14  2  0
 14 15  1  0
 15 16  2  0
 16 17  1  0
 17 18  2  0
 16 19  1  0
 19 20  2  0
 19 21  1  0
 21 22  1  0
 22 23  1  0
 23 24  1  0
 24 25  1  0
 25 26  1  0
 25 27  2  0
 22 28  1  0
 28 29  1  0
 28 30  2  0
 10 31  1  0
  7 32  1  0
 32  2  1  0
 31  6  1  0
 18 13  1  0
  1 33  1  0
  1 34  1  0
  8 35  1  0
  9 36  1  0
  9 37  1  0
 10 38  1  0
 11 39  1  0
 11 40  1  0
 12 41  1  0
 14 42  1  0
 15 43  1  0
 17 44  1  0
 18 45  1  0
 21 46  1  0
 22 47  1  6
 23 48  1  0
 23 49  1  0
 24 50  1  0
 24 51  1  0
 26 52  1  0
 29 53  1  0
 31 54  1  0
 32 55  1  0
M  END
$$$$
