
     RDKit          3D

 55 59  0  0  0  0  0  0  0  0999 V2000
    7.6008    1.4803    3.3970 C   0  0  0  0  0  0  0  0  0  0  0  0
    7.8403    0.7406    2.2389 O   0  0  0  0  0  0  0  0  0  0  0  0
    6.5964    0.2409    1.8255 C   0  0  0  0  0  0  0  0  0  0  0  0
    6.6947   -0.5785    0.5867 C   0  0  0  0  0  0  0  0  0  0  0  0
    5.4785   -1.0623    0.1808 O   0  0  0  0  0  0  0  0  0  0  0  0
    4.3748   -0.4156   -0.2706 C   0  0  0  0  0  0  0  0  0  0  0  0
    4.3068    0.9436   -0.4449 C   0  0  0  0  0  0  0  0  0  0  0  0
    3.1372    1.4675   -0.8988 N   0  0  0  0  0  0  0  0  0  0  0  0
    2.0529    0.7256   -1.1842 C   0  0  0  0  0  0  0  0  0  0  0  0
    0.8917    1.3112   -1.6428 C   0  0  0  0  0  0  0  0  0  0  0  0
   -0.2427    0.5449   -1.9432 C   0  0  0  0  0  0  0  0  0  0  0  0
   -0.2375   -0.8159   -1.7911 C   0  0  0  0  0  0  0  0  0  0  0  0
   -1.3686   -1.6876   -2.0709 C   0  0  2  0  0  0  0  0  0  0  0  0
   -2.3944   -1.2284   -3.0306 C   0  0  0  0  0  0  0  0  0  0  0  0
   -1.9059   -2.3127   -0.8587 N   0  0  0  0  0  0  0  0  0  0  0  0
   -1.6185   -3.5675   -0.4491 N   0  0  0  0  0  0  0  0  0  0  0  0
   -2.2403   -3.8571    0.6672 N   0  0  0  0  0  0  0  0  0  0  0  0
   -2.9749   -2.7937    1.0495 C   0  0  0  0  0  0  0  0  0  0  0  0
   -3.8083   -2.5523    2.1269 C   0  0  0  0  0  0  0  0  0  0  0  0
   -4.4073   -1.3151    2.1927 C   0  0  0  0  0  0  0  0  0  0  0  0
   -4.1770   -0.4006    1.2414 N   0  0  0  0  0  0  0  0  0  0  0  0
   -4.8183    0.8917    1.3336 C   0  0  0  0  0  0  0  0  0  0  0  0
   -5.5351    1.5731    0.4418 C   0  0  0  0  0  0  0  0  0  0  0  0
   -6.0410    2.7547    0.7262 C   0  0  0  0  0  0  0  0  0  0  0  0
   -6.8837    3.6556   -0.1930 C   0  0  0  0  0  0  0  0  0  0  0  0
   -5.7846    3.2645    2.0280 N   0  0  0  0  0  0  0  0  0  0  0  0
   -4.7866    1.9384    2.7778 S   0  0  0  0  0  0  0  0  0  0  0  0
   -3.3753   -0.6109    0.1903 C   0  0  0  0  0  0  0  0  0  0  0  0
   -3.1782    0.2590   -0.6817 O   0  0  0  0  0  0  0  0  0  0  0  0
   -2.7432   -1.8276    0.0614 C   0  0  0  0  0  0  0  0  0  0  0  0
    0.9436   -1.4096   -1.3250 C   0  0  0  0  0  0  0  0  0  0  0  0
    2.0573   -0.6495   -1.0311 C   0  0  0  0  0  0  0  0  0  0  0  0
    3.2276   -1.1896   -0.5744 C   0  0  0  0  0  0  0  0  0  0  0  0
    6.8982    2.2986    3.1555 H   0  0  0  0  0  0  0  0  0  0  0  0
    7.0584    0.7887    4.0912 H   0  0  0  0  0  0  0  0  0  0  0  0
    8.5458    1.8478    3.8439 H   0  0  0  0  0  0  0  0  0  0  0  0
    6.3212   -0.4847    2.6537 H   0  0  0  0  0  0  0  0  0  0  0  0
    5.9172    1.0614    1.7515 H   0  0  0  0  0  0  0  0  0  0  0  0
    7.4077   -1.4359    0.7038 H   0  0  0  0  0  0  0  0  0  0  0  0
    7.1245    0.0151   -0.2668 H   0  0  0  0  0  0  0  0  0  0  0  0
    5.1572    1.5857   -0.2561 H   0  0  0  0  0  0  0  0  0  0  0  0
    0.8083    2.3816   -1.7891 H   0  0  0  0  0  0  0  0  0  0  0  0
   -1.1312    1.0012   -2.3004 H   0  0  0  0  0  0  0  0  0  0  0  0
   -0.8883   -2.5759   -2.6254 H   0  0  0  0  0  0  0  0  0  0  0  0
   -2.3402   -1.7273   -4.0529 H   0  0  0  0  0  0  0  0  0  0  0  0
   -2.4777   -0.1765   -3.2565 H   0  0  0  0  0  0  0  0  0  0  0  0
   -3.4025   -1.5803   -2.6665 H   0  0  0  0  0  0  0  0  0  0  0  0
   -3.9821   -3.2941    2.8792 H   0  0  0  0  0  0  0  0  0  0  0  0
   -5.0829   -1.0407    3.0136 H   0  0  0  0  0  0  0  0  0  0  0  0
   -5.7033    1.1100   -0.5800 H   0  0  0  0  0  0  0  0  0  0  0  0
   -6.6089    4.6985   -0.0363 H   0  0  0  0  0  0  0  0  0  0  0  0
   -7.9584    3.4346   -0.0360 H   0  0  0  0  0  0  0  0  0  0  0  0
   -6.6328    3.3372   -1.2251 H   0  0  0  0  0  0  0  0  0  0  0  0
    1.0087   -2.4880   -1.1839 H   0  0  0  0  0  0  0  0  0  0  0  0
    3.2801   -2.2740   -0.4371 H   0  0  0  0  0  0  0  0  0  0  0  0
  1  2  1  0
  2  3  1  0
  3  4  1  0
  4  5  1  0
  5  6  1  0
  6  7  2  0
  7  8  1  0
  8  9  2  0
  9 10  1  0
 10 11  2  0
 11 12  1  0
 12 13  1  0
 13 14  1  0
 13 15  1  0
 15 16  1  0
 16 17  2  0
 17 18  1  0
 18 19  1  0
 19 20  2  0
 20 21  1  0
 21 22  1  0
 22 23  2  0
 23 24  1  0
 24 25  1  0
 24 26  2  0
 26 27  1  0
 21 28  1  0
 28 29  2  0
 28 30  1  0
 12 31  2  0
 31 32  1  0
 32 33  2  0
 33  6  1  0
 32  9  1  0
 30 15  1  0
 30 18  2  0
 27 22  1  0
  1 34  1  0
  1 35  1  0
  1 36  1  0
  3 37  1  0
  3 38  1  0
  4 39  1  0
  4 40  1  0
  7 41  1  0
 10 42  1  0
 11 43  1  0
 13 44  1  6
 14 45  1  0
 14 46  1  0
 14 47  1  0
 19 48  1  0
 20 49  1  0
 23 50  1  0
 25 51  1  0
 25 52  1  0
 25 53  1  0
 31 54  1  0
 33 55  1  0
M  END
$$$$
