
     RDKit          3D

 62 64  0  0  0  0  0  0  0  0999 V2000
   10.2740   -2.5888   -0.1791 C   0  0  0  0  0  0  0  0  0  0  0  0
    9.0241   -2.6331    0.2291 C   0  0  0  0  0  0  0  0  0  0  0  0
    8.0942   -1.6000   -0.1813 C   0  0  0  0  0  0  0  0  0  0  0  0
    8.5210   -0.6755   -0.9281 O   0  0  0  0  0  0  0  0  0  0  0  0
    6.7258   -1.5887    0.2235 N   0  0  0  0  0  0  0  0  0  0  0  0
    5.8936   -0.5217   -0.2391 C   0  0  0  0  0  0  0  0  0  0  0  0
    5.2812    0.3019    0.8677 C   0  0  0  0  0  0  0  0  0  0  0  0
    4.3719    1.3263    0.2539 C   0  0  0  0  0  0  0  0  0  0  0  0
    4.5054    1.4103   -1.1798 N   0  0  0  0  0  0  0  0  0  0  0  0
    3.4614    2.6770   -1.7151 S   0  0  0  0  0  6  0  0  0  0  0  0
    3.6792    2.8339   -3.2021 O   0  0  0  0  0  0  0  0  0  0  0  0
    3.9199    3.9395   -1.0289 O   0  0  0  0  0  0  0  0  0  0  0  0
    1.7917    2.3417   -1.3415 C   0  0  0  0  0  0  0  0  0  0  0  0
    1.0073    1.6745   -2.2543 C   0  0  0  0  0  0  0  0  0  0  0  0
   -0.3150    1.3954   -1.9844 C   0  0  0  0  0  0  0  0  0  0  0  0
   -0.9247    1.7684   -0.7868 C   0  0  0  0  0  0  0  0  0  0  0  0
   -2.3312    1.4512   -0.5447 C   0  0  0  0  0  0  0  0  0  0  0  0
   -2.9756    0.8407   -1.4678 O   0  0  0  0  0  0  0  0  0  0  0  0
   -3.0410    1.7633    0.6278 N   0  0  0  0  0  0  0  0  0  0  0  0
   -4.4287    1.4420    0.8628 C   0  0  0  0  0  0  0  0  0  0  0  0
   -4.6029   -0.0436    0.8296 C   0  0  0  0  0  0  0  0  0  0  0  0
   -6.0343   -0.4299    1.0789 C   0  0  0  0  0  0  0  0  0  0  0  0
   -6.4210   -0.6513    2.3882 C   0  0  0  0  0  0  0  0  0  0  0  0
   -7.7266   -1.0073    2.6543 C   0  0  0  0  0  0  0  0  0  0  0  0
   -8.6506   -1.1452    1.6319 C   0  0  0  0  0  0  0  0  0  0  0  0
   -9.9477   -1.5011    1.9184 O   0  0  0  0  0  0  0  0  0  0  0  0
  -10.8916   -1.6435    0.8872 C   0  0  0  0  0  0  0  0  0  0  0  0
   -8.2346   -0.9192    0.3544 C   0  0  0  0  0  0  0  0  0  0  0  0
   -6.9444   -0.5638    0.0526 C   0  0  0  0  0  0  0  0  0  0  0  0
   -0.1531    2.4326    0.1281 C   0  0  0  0  0  0  0  0  0  0  0  0
    1.1921    2.7113   -0.1577 C   0  0  0  0  0  0  0  0  0  0  0  0
    4.1063    0.1681   -1.8280 C   0  0  0  0  0  0  0  0  0  0  0  0
    4.7648   -1.0125   -1.1295 C   0  0  0  0  0  0  0  0  0  0  0  0
   10.5998   -1.7831   -0.8173 H   0  0  0  0  0  0  0  0  0  0  0  0
   11.0190   -3.3224    0.0865 H   0  0  0  0  0  0  0  0  0  0  0  0
    8.7002   -3.4408    0.8677 H   0  0  0  0  0  0  0  0  0  0  0  0
    6.3814   -2.3473    0.8344 H   0  0  0  0  0  0  0  0  0  0  0  0
    6.4623    0.2066   -0.8867 H   0  0  0  0  0  0  0  0  0  0  0  0
    6.0634    0.8321    1.4625 H   0  0  0  0  0  0  0  0  0  0  0  0
    4.7556   -0.3365    1.6151 H   0  0  0  0  0  0  0  0  0  0  0  0
    3.3157    1.0969    0.5519 H   0  0  0  0  0  0  0  0  0  0  0  0
    4.6709    2.3357    0.6611 H   0  0  0  0  0  0  0  0  0  0  0  0
    1.4612    1.3699   -3.2034 H   0  0  0  0  0  0  0  0  0  0  0  0
   -0.9300    0.8722   -2.7000 H   0  0  0  0  0  0  0  0  0  0  0  0
   -2.4938    2.2726    1.3812 H   0  0  0  0  0  0  0  0  0  0  0  0
   -4.9987    1.9470    0.0393 H   0  0  0  0  0  0  0  0  0  0  0  0
   -4.8019    1.8983    1.8058 H   0  0  0  0  0  0  0  0  0  0  0  0
   -3.9945   -0.5551    1.6218 H   0  0  0  0  0  0  0  0  0  0  0  0
   -4.2423   -0.4605   -0.1202 H   0  0  0  0  0  0  0  0  0  0  0  0
   -5.7091   -0.5495    3.2192 H   0  0  0  0  0  0  0  0  0  0  0  0
   -8.0441   -1.1844    3.6780 H   0  0  0  0  0  0  0  0  0  0  0  0
  -10.4742   -2.3076    0.1278 H   0  0  0  0  0  0  0  0  0  0  0  0
  -11.8238   -2.1225    1.2736 H   0  0  0  0  0  0  0  0  0  0  0  0
  -11.2187   -0.6585    0.4731 H   0  0  0  0  0  0  0  0  0  0  0  0
   -8.9330   -1.0195   -0.4540 H   0  0  0  0  0  0  0  0  0  0  0  0
   -6.5781   -0.3767   -0.9463 H   0  0  0  0  0  0  0  0  0  0  0  0
   -0.5812    2.7424    1.0712 H   0  0  0  0  0  0  0  0  0  0  0  0
    1.7702    3.2353    0.5840 H   0  0  0  0  0  0  0  0  0  0  0  0
    3.0129    0.0504   -1.8978 H   0  0  0  0  0  0  0  0  0  0  0  0
    4.5067    0.1989   -2.8581 H   0  0  0  0  0  0  0  0  0  0  0  0
    4.0098   -1.4795   -0.4690 H   0  0  0  0  0  0  0  0  0  0  0  0
    5.1034   -1.7845   -1.8419 H   0  0  0  0  0  0  0  0  0  0  0  0
  1  2  2  3
  2  3  1  0
  3  4  2  0
  3  5  1  0
  5  6  1  0
  6  7  1  0
  7  8  1  0
  8  9  1  0
  9 10  1  0
 10 11  2  0
 10 12  2  0
 10 13  1  0
 13 14  2  0
 14 15  1  0
 15 16  2  0
 16 17  1  0
 17 18  2  0
 17 19  1  0
 19 20  1  0
 20 21  1  0
 21 22  1  0
 22 23  2  0
 23 24  1  0
 24 25  2  0
 25 26  1  0
 26 27  1  0
 25 28  1  0
 28 29  2  0
 16 30  1  0
 30 31  2  0
  9 32  1  0
 32 33  1  0
 33  6  1  0
 31 13  1  0
 29 22  1  0
  1 34  1  0
  1 35  1  0
  2 36  1  0
  5 37  1  0
  6 38  1  0
  7 39  1  0
  7 40  1  0
  8 41  1  0
  8 42  1  0
 14 43  1  0
 15 44  1  0
 19 45  1  0
 20 46  1  0
 20 47  1  0
 21 48  1  0
 21 49  1  0
 23 50  1  0
 24 51  1  0
 27 52  1  0
 27 53  1  0
 27 54  1  0
 28 55  1  0
 29 56  1  0
 30 57  1  0
 31 58  1  0
 32 59  1  0
 32 60  1  0
 33 61  1  0
 33 62  1  0
M  END
$$$$
