
     RDKit          3D

 32 33  0  0  0  0  0  0  0  0999 V2000
    1.3438   -2.7733    0.9322 O   0  0  0  0  0  0  0  0  0  0  0  0
    1.1479   -1.5269    0.5393 C   0  0  0  0  0  0  0  0  0  0  0  0
   -0.2429   -1.1871    0.3323 C   0  0  0  0  0  0  0  0  0  0  0  0
   -0.7309   -0.0995   -0.1184 C   0  0  0  0  0  0  0  0  0  0  0  0
   -2.1131    0.2730   -0.3210 C   0  0  0  0  0  0  0  0  0  0  0  0
   -2.3114    1.3301   -1.2558 C   0  0  0  0  0  0  0  0  0  0  0  0
   -3.5332    1.8715   -1.5073 C   0  0  0  0  0  0  0  0  0  0  0  0
   -4.6041    1.3617   -0.8201 C   0  0  0  0  0  0  0  0  0  0  0  0
   -4.4602    0.3463    0.0881 C   0  0  0  0  0  0  0  0  0  0  0  0
   -3.1960   -0.2229    0.3582 C   0  0  0  0  0  0  0  0  0  0  0  0
   -3.1175   -1.2920    1.3710 C   0  0  0  0  0  0  0  0  0  0  0  0
   -2.2141   -1.0160    2.3732 F   0  0  0  0  0  0  0  0  0  0  0  0
   -4.3898   -1.2138    2.0758 F   0  0  0  0  0  0  0  0  0  0  0  0
   -3.1391   -2.5505    0.9002 F   0  0  0  0  0  0  0  0  0  0  0  0
    2.3338   -0.7462    0.3879 C   0  0  0  0  0  0  0  0  0  0  0  0
    3.5353   -1.4700    0.2452 C   0  0  0  0  0  0  0  0  0  0  0  0
    4.7430   -0.8545    0.1622 C   0  0  0  0  0  0  0  0  0  0  0  0
    4.8257    0.5334    0.2170 C   0  0  0  0  0  0  0  0  0  0  0  0
    6.0918    1.0900    0.1246 O   0  0  0  0  0  0  0  0  0  0  0  0
    3.6987    1.2754    0.3548 C   0  0  0  0  0  0  0  0  0  0  0  0
    2.4611    0.6222    0.4402 C   0  0  0  0  0  0  0  0  0  0  0  0
   -0.9387   -2.0225    0.5464 H   0  0  0  0  0  0  0  0  0  0  0  0
    0.0061    0.6877   -0.4359 H   0  0  0  0  0  0  0  0  0  0  0  0
   -1.4581    1.7359   -1.8106 H   0  0  0  0  0  0  0  0  0  0  0  0
   -3.6583    2.6836   -2.2308 H   0  0  0  0  0  0  0  0  0  0  0  0
   -5.5891    1.7875   -1.0140 H   0  0  0  0  0  0  0  0  0  0  0  0
   -5.2992   -0.0662    0.6318 H   0  0  0  0  0  0  0  0  0  0  0  0
    3.5247   -2.5475    0.1943 H   0  0  0  0  0  0  0  0  0  0  0  0
    5.6378   -1.4663    0.0527 H   0  0  0  0  0  0  0  0  0  0  0  0
    6.3239    1.8989   -0.4278 H   0  0  0  0  0  0  0  0  0  0  0  0
    3.7265    2.3325    0.3998 H   0  0  0  0  0  0  0  0  0  0  0  0
    1.5954    1.2254    0.6027 H   0  0  0  0  0  0  0  0  0  0  0  0
  1  2  2  0
  2  3  1  0
  3  4  2  0
  4  5  1  0
  5  6  2  0
  6  7  1  0
  7  8  2  0
  8  9  1  0
  9 10  2  0
 10 11  1  0
 11 12  1  0
 11 13  1  0
 11 14  1  0
  2 15  1  0
 15 16  2  0
 16 17  1  0
 17 18  2  0
 18 19  1  0
 18 20  1  0
 20 21  2  0
 10  5  1  0
 21 15  1  0
  3 22  1  0
  4 23  1  0
  6 24  1  0
  7 25  1  0
  8 26  1  0
  9 27  1  0
 16 28  1  0
 17 29  1  0
 19 30  1  0
 20 31  1  0
 21 32  1  0
M  END
$$$$
