
     RDKit          3D

 52 56  0  0  0  0  0  0  0  0999 V2000
    2.5476   -0.9751    0.9772 O   0  0  0  0  0  0  0  0  0  0  0  0
    2.1209    0.1726    0.7728 C   0  0  0  0  0  0  0  0  0  0  0  0
    0.7324    0.5208    1.0914 C   0  0  0  0  0  0  0  0  0  0  0  0
   -0.3304   -0.3033    0.4504 C   0  0  0  0  0  0  0  0  0  0  0  0
   -0.1629   -1.7279    0.8295 C   0  0  0  0  0  0  0  0  0  0  0  0
   -0.7375   -2.2467    1.9709 C   0  0  0  0  0  0  0  0  0  0  0  0
   -0.5983   -3.5829    2.3373 C   0  0  0  0  0  0  0  0  0  0  0  0
    0.1345   -4.4438    1.5508 C   0  0  0  0  0  0  0  0  0  0  0  0
    0.7105   -3.9284    0.4090 C   0  0  0  0  0  0  0  0  0  0  0  0
    0.5747   -2.6059    0.0428 C   0  0  0  0  0  0  0  0  0  0  0  0
   -1.6673    0.2092    0.9939 C   0  0  0  0  0  0  0  0  0  0  0  0
   -1.8839    1.6423    0.5818 C   0  0  0  0  0  0  0  0  0  0  0  0
   -1.8663    1.7952   -0.9247 C   0  0  0  0  0  0  0  0  0  0  0  0
   -0.6074    1.2543   -1.5086 C   0  0  0  0  0  0  0  0  0  0  0  0
   -0.3857   -0.1668   -1.0448 C   0  0  0  0  0  0  0  0  0  0  0  0
   -1.5306   -0.9947   -1.5905 C   0  0  0  0  0  0  0  0  0  0  0  0
   -2.8417   -0.4440   -1.0783 C   0  0  0  0  0  0  0  0  0  0  0  0
   -2.8213   -0.5891    0.4271 C   0  0  0  0  0  0  0  0  0  0  0  0
   -3.0204    0.9789   -1.4995 C   0  0  0  0  0  0  0  0  0  0  0  0
   -4.2332    1.4732   -1.0328 O   0  0  0  0  0  0  0  0  0  0  0  0
    2.9722    1.1478    0.2318 N   0  0  0  0  0  0  0  0  0  0  0  0
    2.8709    2.5316   -0.1547 C   0  0  0  0  0  0  0  0  0  0  0  0
    4.3739    2.6875   -0.0354 C   0  0  0  0  0  0  0  0  0  0  0  0
    4.8924    3.3308   -1.1535 O   0  0  0  0  0  0  0  0  0  0  0  0
    4.3649    1.1818   -0.1779 C   0  0  0  0  0  0  0  0  0  0  0  0
    0.5475    1.6214    0.9367 H   0  0  0  0  0  0  0  0  0  0  0  0
    0.6265    0.3944    2.2114 H   0  0  0  0  0  0  0  0  0  0  0  0
   -1.3290   -1.6543    2.6525 H   0  0  0  0  0  0  0  0  0  0  0  0
   -1.0693   -3.9433    3.2429 H   0  0  0  0  0  0  0  0  0  0  0  0
    0.2534   -5.5030    1.8262 H   0  0  0  0  0  0  0  0  0  0  0  0
    1.2869   -4.5965   -0.2128 H   0  0  0  0  0  0  0  0  0  0  0  0
    1.0622   -2.3025   -0.8714 H   0  0  0  0  0  0  0  0  0  0  0  0
   -1.6949    0.2100    2.1004 H   0  0  0  0  0  0  0  0  0  0  0  0
   -2.9362    1.8822    0.9127 H   0  0  0  0  0  0  0  0  0  0  0  0
   -1.2620    2.3812    1.0732 H   0  0  0  0  0  0  0  0  0  0  0  0
   -2.0720    2.8442   -1.1543 H   0  0  0  0  0  0  0  0  0  0  0  0
    0.2652    1.8975   -1.3864 H   0  0  0  0  0  0  0  0  0  0  0  0
   -0.7695    1.1860   -2.6252 H   0  0  0  0  0  0  0  0  0  0  0  0
    0.5323   -0.4993   -1.5696 H   0  0  0  0  0  0  0  0  0  0  0  0
   -1.4351   -2.0163   -1.1815 H   0  0  0  0  0  0  0  0  0  0  0  0
   -1.5009   -1.0808   -2.6915 H   0  0  0  0  0  0  0  0  0  0  0  0
   -3.6896   -1.0254   -1.4553 H   0  0  0  0  0  0  0  0  0  0  0  0
   -3.7472   -0.1179    0.7993 H   0  0  0  0  0  0  0  0  0  0  0  0
   -2.8170   -1.6345    0.7386 H   0  0  0  0  0  0  0  0  0  0  0  0
   -2.9430    1.0562   -2.5959 H   0  0  0  0  0  0  0  0  0  0  0  0
   -4.9128    0.7712   -0.8701 H   0  0  0  0  0  0  0  0  0  0  0  0
    2.3756    3.2235    0.5353 H   0  0  0  0  0  0  0  0  0  0  0  0
    2.5219    2.6528   -1.2116 H   0  0  0  0  0  0  0  0  0  0  0  0
    4.7175    3.0776    0.9231 H   0  0  0  0  0  0  0  0  0  0  0  0
    4.7354    2.7326   -1.9326 H   0  0  0  0  0  0  0  0  0  0  0  0
    5.0818    0.7266    0.5308 H   0  0  0  0  0  0  0  0  0  0  0  0
    4.5643    0.7992   -1.1905 H   0  0  0  0  0  0  0  0  0  0  0  0
  1  2  2  0
  2  3  1  0
  3  4  1  0
  4  5  1  0
  5  6  2  0
  6  7  1  0
  7  8  2  0
  8  9  1  0
  9 10  2  0
  4 11  1  0
 11 12  1  0
 12 13  1  0
 13 14  1  0
 14 15  1  0
 15 16  1  0
 16 17  1  0
 17 18  1  0
 17 19  1  0
 19 20  1  0
  2 21  1  0
 21 22  1  0
 22 23  1  0
 23 24  1  0
 23 25  1  0
 15  4  1  0
 25 21  1  0
 10  5  1  0
 18 11  1  0
 19 13  1  0
  3 26  1  0
  3 27  1  0
  6 28  1  0
  7 29  1  0
  8 30  1  0
  9 31  1  0
 10 32  1  0
 11 33  1  0
 12 34  1  0
 12 35  1  0
 13 36  1  0
 14 37  1  0
 14 38  1  0
 15 39  1  0
 16 40  1  0
 16 41  1  0
 17 42  1  0
 18 43  1  0
 18 44  1  0
 19 45  1  0
 20 46  1  0
 22 47  1  0
 22 48  1  0
 23 49  1  0
 24 50  1  0
 25 51  1  0
 25 52  1  0
M  END
$$$$
