
     RDKit          3D

 64 68  0  0  0  0  0  0  0  0999 V2000
    7.7133    2.0316    3.1423 C   0  0  0  0  0  0  0  0  0  0  0  0
    7.8093    1.4374    1.7968 C   0  0  0  0  0  0  0  0  0  0  0  0
    8.8310    1.6135    1.1018 O   0  0  0  0  0  0  0  0  0  0  0  0
    6.7504    0.6598    1.2693 N   0  0  0  0  0  0  0  0  0  0  0  0
    6.8282    0.0693   -0.0525 C   0  0  0  0  0  0  0  0  0  0  0  0
    5.4481    0.2928   -0.6892 C   0  0  0  0  0  0  0  0  0  0  0  0
    4.4738   -0.3842    0.1211 N   0  0  0  0  0  0  0  0  0  0  0  0
    3.2169   -0.7385   -0.4369 C   0  0  0  0  0  0  0  0  0  0  0  0
    2.8419   -0.2954   -1.7041 C   0  0  0  0  0  0  0  0  0  0  0  0
    1.6380   -0.6327   -2.2540 C   0  0  0  0  0  0  0  0  0  0  0  0
    0.6931   -1.4442   -1.5922 C   0  0  0  0  0  0  0  0  0  0  0  0
   -0.4900   -1.7342   -2.2250 O   0  0  0  0  0  0  0  0  0  0  0  0
   -1.5247   -2.4741   -1.6853 C   0  0  0  0  0  0  0  0  0  0  0  0
   -2.1472   -1.7613   -0.5244 C   0  0  2  0  0  0  0  0  0  0  0  0
   -3.3903   -2.4661   -0.0145 C   0  0  0  0  0  0  0  0  0  0  0  0
   -4.1661   -1.3756    0.3647 O   0  0  0  0  0  0  0  0  0  0  0  0
   -3.8768   -0.3304   -0.5185 C   0  0  1  0  0  0  0  0  0  0  0  0
   -4.9317   -0.4146   -1.6123 C   0  0  0  0  0  0  0  0  0  0  0  0
   -6.2076   -0.2515   -0.9608 N   0  0  0  0  0  0  0  0  0  0  0  0
   -6.9565   -1.2463   -0.4638 C   0  0  0  0  0  0  0  0  0  0  0  0
   -8.1127   -0.7055    0.0858 C   0  0  0  0  0  0  0  0  0  0  0  0
   -8.0147    0.6077   -0.1031 N   0  0  0  0  0  0  0  0  0  0  0  0
   -6.8658    0.9168   -0.7380 C   0  0  0  0  0  0  0  0  0  0  0  0
   -3.8881    0.9772    0.1864 C   0  0  0  0  0  0  0  0  0  0  0  0
   -4.1941    1.0560    1.5405 C   0  0  0  0  0  0  0  0  0  0  0  0
   -4.2120    2.2686    2.1572 C   0  0  0  0  0  0  0  0  0  0  0  0
   -3.9400    3.4505    1.5104 C   0  0  0  0  0  0  0  0  0  0  0  0
   -3.9789    4.9958    2.3657 Cl  0  0  0  0  0  0  0  0  0  0  0  0
   -3.6366    3.3746    0.1704 C   0  0  0  0  0  0  0  0  0  0  0  0
   -3.6140    2.1469   -0.4717 C   0  0  0  0  0  0  0  0  0  0  0  0
   -3.1897    2.1578   -2.1922 Cl  0  0  0  0  0  0  0  0  0  0  0  0
   -2.6492   -0.5448   -1.0635 O   0  0  0  0  0  0  0  0  0  0  0  0
    1.0727   -1.8768   -0.3450 C   0  0  0  0  0  0  0  0  0  0  0  0
    2.3019   -1.5286    0.2102 C   0  0  0  0  0  0  0  0  0  0  0  0
    4.7398   -0.7104    1.5030 C   0  0  0  0  0  0  0  0  0  0  0  0
    5.5719    0.4536    2.0654 C   0  0  0  0  0  0  0  0  0  0  0  0
    7.4044    1.3331    3.9280 H   0  0  0  0  0  0  0  0  0  0  0  0
    8.7226    2.4324    3.4498 H   0  0  0  0  0  0  0  0  0  0  0  0
    7.0431    2.9276    3.1345 H   0  0  0  0  0  0  0  0  0  0  0  0
    7.6085    0.5563   -0.6588 H   0  0  0  0  0  0  0  0  0  0  0  0
    6.9617   -1.0370    0.0308 H   0  0  0  0  0  0  0  0  0  0  0  0
    5.2385    1.3765   -0.7611 H   0  0  0  0  0  0  0  0  0  0  0  0
    5.4733   -0.0868   -1.7498 H   0  0  0  0  0  0  0  0  0  0  0  0
    3.5528    0.3319   -2.2314 H   0  0  0  0  0  0  0  0  0  0  0  0
    1.3451   -0.2837   -3.2500 H   0  0  0  0  0  0  0  0  0  0  0  0
   -1.2334   -3.5233   -1.4273 H   0  0  0  0  0  0  0  0  0  0  0  0
   -2.2896   -2.6069   -2.5086 H   0  0  0  0  0  0  0  0  0  0  0  0
   -1.4901   -1.4460    0.2827 H   0  0  0  0  0  0  0  0  0  0  0  0
   -3.8650   -3.0876   -0.7805 H   0  0  0  0  0  0  0  0  0  0  0  0
   -3.1128   -3.0415    0.8918 H   0  0  0  0  0  0  0  0  0  0  0  0
   -4.7847    0.2789   -2.4411 H   0  0  0  0  0  0  0  0  0  0  0  0
   -4.8780   -1.4790   -1.9811 H   0  0  0  0  0  0  0  0  0  0  0  0
   -6.7021   -2.3059   -0.4862 H   0  0  0  0  0  0  0  0  0  0  0  0
   -8.9203   -1.2305    0.5645 H   0  0  0  0  0  0  0  0  0  0  0  0
   -6.4862    1.8728   -1.0372 H   0  0  0  0  0  0  0  0  0  0  0  0
   -4.4113    0.1127    2.0576 H   0  0  0  0  0  0  0  0  0  0  0  0
   -4.4556    2.2957    3.2191 H   0  0  0  0  0  0  0  0  0  0  0  0
   -3.4150    4.2769   -0.3823 H   0  0  0  0  0  0  0  0  0  0  0  0
    0.4274   -2.5357    0.2363 H   0  0  0  0  0  0  0  0  0  0  0  0
    2.5348   -1.9042    1.1889 H   0  0  0  0  0  0  0  0  0  0  0  0
    5.2601   -1.6641    1.6301 H   0  0  0  0  0  0  0  0  0  0  0  0
    3.8361   -0.7275    2.1461 H   0  0  0  0  0  0  0  0  0  0  0  0
    4.8917    1.3326    2.0261 H   0  0  0  0  0  0  0  0  0  0  0  0
    5.8005    0.2380    3.1288 H   0  0  0  0  0  0  0  0  0  0  0  0
  1  2  1  0
  2  3  2  0
  2  4  1  0
  4  5  1  0
  5  6  1  0
  6  7  1  0
  7  8  1  0
  8  9  2  0
  9 10  1  0
 10 11  2  0
 11 12  1  0
 12 13  1  0
 13 14  1  0
 14 15  1  0
 15 16  1  0
 16 17  1  0
 17 18  1  6
 18 19  1  0
 19 20  1  0
 20 21  2  0
 21 22  1  0
 22 23  2  0
 17 24  1  0
 24 25  2  0
 25 26  1  0
 26 27  2  0
 27 28  1  0
 27 29  1  0
 29 30  2  0
 30 31  1  0
 17 32  1  0
 11 33  1  0
 33 34  2  0
  7 35  1  0
 35 36  1  0
 36  4  1  0
 34  8  1  0
 32 14  1  0
 23 19  1  0
 30 24  1  0
  1 37  1  0
  1 38  1  0
  1 39  1  0
  5 40  1  0
  5 41  1  0
  6 42  1  0
  6 43  1  0
  9 44  1  0
 10 45  1  0
 13 46  1  0
 13 47  1  0
 14 48  1  1
 15 49  1  0
 15 50  1  0
 18 51  1  0
 18 52  1  0
 20 53  1  0
 21 54  1  0
 23 55  1  0
 25 56  1  0
 26 57  1  0
 29 58  1  0
 33 59  1  0
 34 60  1  0
 35 61  1  0
 35 62  1  0
 36 63  1  0
 36 64  1  0
M  END
$$$$
