
     RDKit          3D

 53 58  0  0  0  0  0  0  0  0999 V2000
   -4.1467    0.0337    3.6563 C   0  0  0  0  0  0  0  0  0  0  0  0
   -4.6060   -0.1505    2.3415 O   0  0  0  0  0  0  0  0  0  0  0  0
   -3.7740   -0.2728    1.2483 C   0  0  0  0  0  0  0  0  0  0  0  0
   -2.4045   -0.2136    1.4342 C   0  0  0  0  0  0  0  0  0  0  0  0
   -1.5514   -0.3319    0.3665 C   0  0  0  0  0  0  0  0  0  0  0  0
   -0.1452   -0.2837    0.5641 N   0  0  0  0  0  0  0  0  0  0  0  0
    0.6340   -1.4446    0.7718 C   0  0  0  0  0  0  0  0  0  0  0  0
    0.2845   -2.6536    0.8013 O   0  0  0  0  0  0  0  0  0  0  0  0
    2.0082   -1.0083    0.9619 C   0  0  0  0  0  0  0  0  0  0  0  0
    3.3138   -1.4543    1.2212 C   0  0  0  0  0  0  0  0  0  0  0  0
    3.6907   -2.8813    1.3885 C   0  0  0  0  0  0  0  0  0  0  0  0
    4.1013   -3.6958    0.2204 C   0  0  0  0  0  0  0  0  0  0  0  0
    5.1414   -3.1701    1.1457 C   0  0  0  0  0  0  0  0  0  0  0  0
    4.0447   -0.3525    1.2700 N   0  0  0  0  0  0  0  0  0  0  0  0
    3.3512    0.7266    1.0720 N   0  0  0  0  0  0  0  0  0  0  0  0
    3.8490    2.0723    1.0762 C   0  0  0  0  0  0  0  0  0  0  0  0
    2.0532    0.3586    0.8709 C   0  0  0  0  0  0  0  0  0  0  0  0
    0.7165    0.8536    0.5967 C   0  0  0  0  0  0  0  0  0  0  0  0
    0.5822    1.7193   -0.5998 C   0  0  0  0  0  0  0  0  0  0  0  0
    1.5659    1.9839   -1.5004 C   0  0  0  0  0  0  0  0  0  0  0  0
    1.3077    2.8327   -2.5550 C   0  0  0  0  0  0  0  0  0  0  0  0
    0.0908    3.4475   -2.7660 C   0  0  0  0  0  0  0  0  0  0  0  0
   -0.1847    4.5200   -4.1261 Cl  0  0  0  0  0  0  0  0  0  0  0  0
   -0.8965    3.1692   -1.8444 C   0  0  0  0  0  0  0  0  0  0  0  0
   -0.6528    2.3269   -0.7906 C   0  0  0  0  0  0  0  0  0  0  0  0
   -2.0749   -0.5127   -0.9096 C   0  0  0  0  0  0  0  0  0  0  0  0
   -3.4126   -0.5719   -1.1013 N   0  0  0  0  0  0  0  0  0  0  0  0
   -4.1380   -0.7356   -2.2083 C   0  0  0  0  0  0  0  0  0  0  0  0
   -3.6313   -0.9064   -3.6089 C   0  0  0  0  0  0  0  0  0  0  0  0
   -5.4218   -0.7179   -1.8249 N   0  0  0  0  0  0  0  0  0  0  0  0
   -5.4754   -0.5469   -0.5111 N   0  0  0  0  0  0  0  0  0  0  0  0
   -4.2359   -0.4524   -0.0315 C   0  0  0  0  0  0  0  0  0  0  0  0
   -5.0324   -0.1148    4.3295 H   0  0  0  0  0  0  0  0  0  0  0  0
   -3.8071    1.1000    3.7888 H   0  0  0  0  0  0  0  0  0  0  0  0
   -3.3158   -0.6278    3.9403 H   0  0  0  0  0  0  0  0  0  0  0  0
   -2.0450   -0.0719    2.4440 H   0  0  0  0  0  0  0  0  0  0  0  0
    3.1703   -3.3736    2.2439 H   0  0  0  0  0  0  0  0  0  0  0  0
    3.9779   -3.3007   -0.7902 H   0  0  0  0  0  0  0  0  0  0  0  0
    3.9268   -4.8005    0.2952 H   0  0  0  0  0  0  0  0  0  0  0  0
    5.8115   -2.3294    0.8014 H   0  0  0  0  0  0  0  0  0  0  0  0
    5.6222   -3.8144    1.8913 H   0  0  0  0  0  0  0  0  0  0  0  0
    4.7404    2.1207    1.7686 H   0  0  0  0  0  0  0  0  0  0  0  0
    3.1192    2.7854    1.5045 H   0  0  0  0  0  0  0  0  0  0  0  0
    4.2430    2.3918    0.0896 H   0  0  0  0  0  0  0  0  0  0  0  0
    0.3562    1.4785    1.4645 H   0  0  0  0  0  0  0  0  0  0  0  0
    2.5240    1.5184   -1.3762 H   0  0  0  0  0  0  0  0  0  0  0  0
    2.0890    3.0550   -3.2869 H   0  0  0  0  0  0  0  0  0  0  0  0
   -1.8755    3.6403   -1.9814 H   0  0  0  0  0  0  0  0  0  0  0  0
   -1.4836    2.1554   -0.0860 H   0  0  0  0  0  0  0  0  0  0  0  0
   -1.4326   -0.6077   -1.7585 H   0  0  0  0  0  0  0  0  0  0  0  0
   -4.1499   -1.7631   -4.1091 H   0  0  0  0  0  0  0  0  0  0  0  0
   -3.8594    0.0145   -4.1875 H   0  0  0  0  0  0  0  0  0  0  0  0
   -2.5630   -1.1434   -3.6155 H   0  0  0  0  0  0  0  0  0  0  0  0
  1  2  1  0
  2  3  1  0
  3  4  2  0
  4  5  1  0
  5  6  1  0
  6  7  1  0
  7  8  2  0
  7  9  1  0
  9 10  1  0
 10 11  1  0
 11 12  1  0
 12 13  1  0
 10 14  2  0
 14 15  1  0
 15 16  1  0
 15 17  1  0
 17 18  1  0
 18 19  1  0
 19 20  2  0
 20 21  1  0
 21 22  2  0
 22 23  1  0
 22 24  1  0
 24 25  2  0
  5 26  2  0
 26 27  1  0
 27 28  1  0
 28 29  1  0
 28 30  2  0
 30 31  1  0
 31 32  2  0
 32  3  1  0
 18  6  1  0
 25 19  1  0
 32 27  1  0
 17  9  2  0
 13 11  1  0
  1 33  1  0
  1 34  1  0
  1 35  1  0
  4 36  1  0
 11 37  1  0
 12 38  1  0
 12 39  1  0
 13 40  1  0
 13 41  1  0
 16 42  1  0
 16 43  1  0
 16 44  1  0
 18 45  1  0
 20 46  1  0
 21 47  1  0
 24 48  1  0
 25 49  1  0
 26 50  1  0
 29 51  1  0
 29 52  1  0
 29 53  1  0
M  END
$$$$
