
     RDKit          3D

 41 42  0  0  0  0  0  0  0  0999 V2000
    5.5844    0.1631   -0.3307 C   0  0  0  0  0  0  0  0  0  0  0  0
    4.0982    0.3679   -0.6968 C   0  0  0  0  0  0  0  0  0  0  0  0
    3.6441   -0.9176   -1.2787 C   0  0  0  0  0  0  0  0  0  0  0  0
    3.4380    0.8383    0.5443 C   0  0  0  0  0  0  0  0  0  0  0  0
    2.0468    1.1024    0.4429 N   0  0  0  0  0  0  0  0  0  0  0  0
    1.0745    0.0746    0.4433 C   0  0  0  0  0  0  0  0  0  0  0  0
    1.3370   -1.2208    0.5789 N   0  0  0  0  0  0  0  0  0  0  0  0
    0.4244   -2.2039    0.6083 C   0  0  0  0  0  0  0  0  0  0  0  0
    0.7987   -3.5862    0.7592 C   0  0  0  0  0  0  0  0  0  0  0  0
    1.1025   -4.6991    0.8606 N   0  0  0  0  0  0  0  0  0  0  0  0
   -0.8667   -1.8348    0.4893 N   0  0  0  0  0  0  0  0  0  0  0  0
   -1.2060   -0.5321    0.3480 C   0  0  0  0  0  0  0  0  0  0  0  0
   -2.5710   -0.1265    0.2207 N   0  0  0  0  0  0  0  0  0  0  0  0
   -3.2211    0.7686    1.1467 C   0  0  0  0  0  0  0  0  0  0  0  0
   -4.3605    1.4505    0.4204 C   0  0  0  0  0  0  0  0  0  0  0  0
   -5.3390    0.5140   -0.0458 N   0  0  0  0  0  0  0  0  0  0  0  0
   -4.7844   -0.7894   -0.3535 C   0  0  0  0  0  0  0  0  0  0  0  0
   -3.3679   -0.6264   -0.8890 C   0  0  0  0  0  0  0  0  0  0  0  0
   -0.2685    0.4735    0.3181 C   0  0  0  0  0  0  0  0  0  0  0  0
   -0.6001    1.8371    0.1717 N   0  0  0  0  0  0  0  0  0  0  0  0
    6.1685    0.1832   -1.2866 H   0  0  0  0  0  0  0  0  0  0  0  0
    5.8469    0.9719    0.3547 H   0  0  0  0  0  0  0  0  0  0  0  0
    5.6147   -0.8378    0.1550 H   0  0  0  0  0  0  0  0  0  0  0  0
    4.0151    1.1507   -1.4843 H   0  0  0  0  0  0  0  0  0  0  0  0
    4.3762   -1.1473   -2.1250 H   0  0  0  0  0  0  0  0  0  0  0  0
    2.6721   -0.8332   -1.7704 H   0  0  0  0  0  0  0  0  0  0  0  0
    3.7339   -1.7861   -0.5963 H   0  0  0  0  0  0  0  0  0  0  0  0
    3.9325    1.7736    0.9524 H   0  0  0  0  0  0  0  0  0  0  0  0
    3.5854    0.1050    1.4055 H   0  0  0  0  0  0  0  0  0  0  0  0
    1.7351    2.1073    0.3632 H   0  0  0  0  0  0  0  0  0  0  0  0
   -2.5380    1.5301    1.5370 H   0  0  0  0  0  0  0  0  0  0  0  0
   -3.6332    0.2195    2.0196 H   0  0  0  0  0  0  0  0  0  0  0  0
   -3.9048    2.0255   -0.4113 H   0  0  0  0  0  0  0  0  0  0  0  0
   -4.8519    2.1163    1.1723 H   0  0  0  0  0  0  0  0  0  0  0  0
   -5.8726    0.8575   -0.8757 H   0  0  0  0  0  0  0  0  0  0  0  0
   -5.3706   -1.3347   -1.1161 H   0  0  0  0  0  0  0  0  0  0  0  0
   -4.6850   -1.3583    0.6008 H   0  0  0  0  0  0  0  0  0  0  0  0
   -3.3708    0.1228   -1.7024 H   0  0  0  0  0  0  0  0  0  0  0  0
   -2.9654   -1.5991   -1.1706 H   0  0  0  0  0  0  0  0  0  0  0  0
   -0.3969    2.5205    0.9191 H   0  0  0  0  0  0  0  0  0  0  0  0
   -1.0544    2.1595   -0.6985 H   0  0  0  0  0  0  0  0  0  0  0  0
  1  2  1  0
  2  3  1  0
  2  4  1  0
  4  5  1  0
  5  6  1  0
  6  7  2  0
  7  8  1  0
  8  9  1  0
  9 10  3  0
  8 11  2  0
 11 12  1  0
 12 13  1  0
 13 14  1  0
 14 15  1  0
 15 16  1  0
 16 17  1  0
 17 18  1  0
 12 19  2  0
 19 20  1  0
 19  6  1  0
 18 13  1  0
  1 21  1  0
  1 22  1  0
  1 23  1  0
  2 24  1  0
  3 25  1  0
  3 26  1  0
  3 27  1  0
  4 28  1  0
  4 29  1  0
  5 30  1  0
 14 31  1  0
 14 32  1  0
 15 33  1  0
 15 34  1  0
 16 35  1  0
 17 36  1  0
 17 37  1  0
 18 38  1  0
 18 39  1  0
 20 40  1  0
 20 41  1  0
M  END
$$$$
