
     RDKit          3D

 64 68  0  0  0  0  0  0  0  0999 V2000
   -6.0991    1.0116   -2.9886 C   0  0  0  0  0  0  0  0  0  0  0  0
   -4.7818    0.5463   -2.5240 C   0  0  0  0  0  0  0  0  0  0  0  0
   -3.6942    0.6855   -3.3931 C   0  0  0  0  0  0  0  0  0  0  0  0
   -2.4555    0.2413   -2.9644 C   0  0  0  0  0  0  0  0  0  0  0  0
   -2.2752   -0.3241   -1.7230 C   0  0  0  0  0  0  0  0  0  0  0  0
   -0.9773   -0.7565   -1.3520 N   0  0  0  0  0  0  0  0  0  0  0  0
   -0.0475    0.0820   -0.6976 C   0  0  0  0  0  0  0  0  0  0  0  0
   -0.4495    1.2656   -0.4572 O   0  0  0  0  0  0  0  0  0  0  0  0
    1.2969   -0.3043   -0.2926 C   0  0  0  0  0  0  0  0  0  0  0  0
    1.8049   -1.5547   -0.5104 C   0  0  0  0  0  0  0  0  0  0  0  0
    3.0878   -1.8613   -0.1034 C   0  0  0  0  0  0  0  0  0  0  0  0
    3.9061   -0.9561    0.5257 C   0  0  0  0  0  0  0  0  0  0  0  0
    5.2644   -1.2861    0.9564 C   0  0  0  0  0  0  0  0  0  0  0  0
    6.2966   -1.0522    0.0029 N   0  0  0  0  0  0  0  0  0  0  0  0
    7.5569   -1.4235    0.5728 C   0  0  0  0  0  0  0  0  0  0  0  0
    8.6710   -0.4780    0.3089 C   0  0  0  0  0  0  0  0  0  0  0  0
    8.3745    0.8984    0.4698 N   0  0  0  0  0  0  0  0  0  0  0  0
    8.9179    1.5249    1.6236 C   0  0  0  0  0  0  0  0  0  0  0  0
    7.0256    1.2750    0.1567 C   0  0  0  0  0  0  0  0  0  0  0  0
    6.2910    0.2216   -0.6349 C   0  0  0  0  0  0  0  0  0  0  0  0
    3.3840    0.2995    0.7397 C   0  0  0  0  0  0  0  0  0  0  0  0
    2.0939    0.6313    0.3383 C   0  0  0  0  0  0  0  0  0  0  0  0
   -3.3705   -0.4383   -0.9084 C   0  0  0  0  0  0  0  0  0  0  0  0
   -4.6220   -0.0124   -1.2874 C   0  0  0  0  0  0  0  0  0  0  0  0
   -5.7287   -0.1604   -0.3638 C   0  0  0  0  0  0  0  0  0  0  0  0
   -5.9820   -1.3590    0.2942 C   0  0  0  0  0  0  0  0  0  0  0  0
   -7.0215   -1.4727    1.1625 C   0  0  0  0  0  0  0  0  0  0  0  0
   -7.8784   -0.4278    1.4441 C   0  0  0  0  0  0  0  0  0  0  0  0
   -8.9342   -0.5437    2.3259 C   0  0  0  0  0  0  0  0  0  0  0  0
   -9.7389    0.5592    2.5440 C   0  0  0  0  0  0  0  0  0  0  0  0
   -9.5225    1.7337    1.9247 N   0  0  0  0  0  0  0  0  0  0  0  0
   -8.4818    1.8331    1.0611 C   0  0  0  0  0  0  0  0  0  0  0  0
   -7.6418    0.7651    0.8018 C   0  0  0  0  0  0  0  0  0  0  0  0
   -6.5907    0.8878   -0.0790 C   0  0  0  0  0  0  0  0  0  0  0  0
   -6.9541    0.5225   -2.4873 H   0  0  0  0  0  0  0  0  0  0  0  0
   -6.1579    0.7287   -4.0810 H   0  0  0  0  0  0  0  0  0  0  0  0
   -6.1556    2.1140   -2.9397 H   0  0  0  0  0  0  0  0  0  0  0  0
   -3.7976    1.1227   -4.3709 H   0  0  0  0  0  0  0  0  0  0  0  0
   -1.6151    0.3524   -3.6441 H   0  0  0  0  0  0  0  0  0  0  0  0
   -0.6625   -1.7448   -1.5612 H   0  0  0  0  0  0  0  0  0  0  0  0
    1.1846   -2.3137   -1.0118 H   0  0  0  0  0  0  0  0  0  0  0  0
    3.4432   -2.8598   -0.2973 H   0  0  0  0  0  0  0  0  0  0  0  0
    5.2811   -2.3744    1.2097 H   0  0  0  0  0  0  0  0  0  0  0  0
    5.4973   -0.7147    1.8775 H   0  0  0  0  0  0  0  0  0  0  0  0
    7.8442   -2.4284    0.1851 H   0  0  0  0  0  0  0  0  0  0  0  0
    7.4580   -1.5675    1.6839 H   0  0  0  0  0  0  0  0  0  0  0  0
    9.0508   -0.6407   -0.7365 H   0  0  0  0  0  0  0  0  0  0  0  0
    9.5256   -0.7349    0.9681 H   0  0  0  0  0  0  0  0  0  0  0  0
   10.0391    1.5333    1.5705 H   0  0  0  0  0  0  0  0  0  0  0  0
    8.6246    2.5998    1.6029 H   0  0  0  0  0  0  0  0  0  0  0  0
    8.5784    1.1147    2.5877 H   0  0  0  0  0  0  0  0  0  0  0  0
    6.4805    1.5703    1.0787 H   0  0  0  0  0  0  0  0  0  0  0  0
    7.0736    2.1967   -0.4749 H   0  0  0  0  0  0  0  0  0  0  0  0
    6.8174    0.1232   -1.6061 H   0  0  0  0  0  0  0  0  0  0  0  0
    5.2659    0.5429   -0.8272 H   0  0  0  0  0  0  0  0  0  0  0  0
    3.9828    1.0440    1.2276 H   0  0  0  0  0  0  0  0  0  0  0  0
    1.6886    1.6256    0.5109 H   0  0  0  0  0  0  0  0  0  0  0  0
   -3.2516   -0.8765    0.0643 H   0  0  0  0  0  0  0  0  0  0  0  0
   -5.3403   -2.1918    0.1024 H   0  0  0  0  0  0  0  0  0  0  0  0
   -7.2281   -2.4102    1.6838 H   0  0  0  0  0  0  0  0  0  0  0  0
   -9.1088   -1.4799    2.8211 H   0  0  0  0  0  0  0  0  0  0  0  0
  -10.5782    0.4874    3.2373 H   0  0  0  0  0  0  0  0  0  0  0  0
   -8.2558    2.7578    0.5294 H   0  0  0  0  0  0  0  0  0  0  0  0
   -6.4082    1.8504   -0.5834 H   0  0  0  0  0  0  0  0  0  0  0  0
  1  2  1  0
  2  3  2  0
  3  4  1  0
  4  5  2  0
  5  6  1  0
  6  7  1  0
  7  8  2  0
  7  9  1  0
  9 10  2  0
 10 11  1  0
 11 12  2  0
 12 13  1  0
 13 14  1  0
 14 15  1  0
 15 16  1  0
 16 17  1  0
 17 18  1  0
 17 19  1  0
 19 20  1  0
 12 21  1  0
 21 22  2  0
  5 23  1  0
 23 24  2  0
 24 25  1  0
 25 26  2  0
 26 27  1  0
 27 28  2  0
 28 29  1  0
 29 30  2  0
 30 31  1  0
 31 32  2  0
 32 33  1  0
 33 34  2  0
 24  2  1  0
 34 25  1  0
 22  9  1  0
 33 28  1  0
 20 14  1  0
  1 35  1  0
  1 36  1  0
  1 37  1  0
  3 38  1  0
  4 39  1  0
  6 40  1  0
 10 41  1  0
 11 42  1  0
 13 43  1  0
 13 44  1  0
 15 45  1  0
 15 46  1  0
 16 47  1  0
 16 48  1  0
 18 49  1  0
 18 50  1  0
 18 51  1  0
 19 52  1  0
 19 53  1  0
 20 54  1  0
 20 55  1  0
 21 56  1  0
 22 57  1  0
 23 58  1  0
 26 59  1  0
 27 60  1  0
 29 61  1  0
 30 62  1  0
 32 63  1  0
 34 64  1  0
M  END
$$$$
