
     RDKit          3D

 42 45  0  0  0  0  0  0  0  0999 V2000
    5.4751    2.6468    0.3733 C   0  0  0  0  0  0  0  0  0  0  0  0
    4.2589    1.8004    0.3446 C   0  0  0  0  0  0  0  0  0  0  0  0
    3.5838    1.3204   -0.7542 C   0  0  0  0  0  0  0  0  0  0  0  0
    2.5119    0.5785   -0.3282 C   0  0  0  0  0  0  0  0  0  0  0  0
    1.5718   -0.0795   -1.1440 N   0  0  0  0  0  0  0  0  0  0  0  0
    0.4846   -0.8394   -0.6292 C   0  0  0  0  0  0  0  0  0  0  0  0
   -0.7080   -0.2932   -0.3042 N   0  0  0  0  0  0  0  0  0  0  0  0
   -1.7315   -0.9801    0.1726 C   0  0  0  0  0  0  0  0  0  0  0  0
   -3.0032   -0.4085    0.5273 C   0  0  2  0  0  0  0  0  0  0  0  0
   -4.0367   -1.2474   -0.0073 O   0  0  0  0  0  0  0  0  0  0  0  0
   -3.3499    0.9338    0.1062 C   0  0  0  0  0  0  0  0  0  0  0  0
   -4.7163    1.2646    0.2007 C   0  0  0  0  0  0  0  0  0  0  0  0
   -5.1890    2.5038   -0.1541 C   0  0  0  0  0  0  0  0  0  0  0  0
   -4.3532    3.4761   -0.6167 C   0  0  0  0  0  0  0  0  0  0  0  0
   -4.7957    4.7090   -0.9732 F   0  0  0  0  0  0  0  0  0  0  0  0
   -3.0144    3.2021   -0.7268 C   0  0  0  0  0  0  0  0  0  0  0  0
   -2.5604    1.9366   -0.3599 C   0  0  0  0  0  0  0  0  0  0  0  0
   -1.5528   -2.3091    0.3365 N   0  0  0  0  0  0  0  0  0  0  0  0
   -0.4111   -2.9336    0.0426 C   0  0  0  0  0  0  0  0  0  0  0  0
   -0.2241   -4.2928    0.2092 C   0  0  0  0  0  0  0  0  0  0  0  0
    0.9919   -4.8594   -0.1206 C   0  0  0  0  0  0  0  0  0  0  0  0
    2.0529   -4.1467   -0.6146 C   0  0  0  0  0  0  0  0  0  0  0  0
    1.8697   -2.7798   -0.7837 C   0  0  0  0  0  0  0  0  0  0  0  0
    0.6510   -2.1965   -0.4557 C   0  0  0  0  0  0  0  0  0  0  0  0
    2.5590    0.6235    1.0375 N   0  0  0  0  0  0  0  0  0  0  0  0
    3.5775    1.3361    1.4313 N   0  0  0  0  0  0  0  0  0  0  0  0
    6.3885    2.0391    0.5130 H   0  0  0  0  0  0  0  0  0  0  0  0
    5.3638    3.3678    1.2352 H   0  0  0  0  0  0  0  0  0  0  0  0
    5.5813    3.1787   -0.5937 H   0  0  0  0  0  0  0  0  0  0  0  0
    3.8773    1.5146   -1.7763 H   0  0  0  0  0  0  0  0  0  0  0  0
    1.6709   -0.0104   -2.1800 H   0  0  0  0  0  0  0  0  0  0  0  0
   -3.1622   -0.5586    1.6493 H   0  0  0  0  0  0  0  0  0  0  0  0
   -3.7038   -1.5676   -0.8817 H   0  0  0  0  0  0  0  0  0  0  0  0
   -5.4351    0.5444    0.5586 H   0  0  0  0  0  0  0  0  0  0  0  0
   -6.2561    2.7548   -0.0782 H   0  0  0  0  0  0  0  0  0  0  0  0
   -2.3252    3.9358   -1.0855 H   0  0  0  0  0  0  0  0  0  0  0  0
   -1.5185    1.7704   -0.4552 H   0  0  0  0  0  0  0  0  0  0  0  0
   -1.0670   -4.8476    0.6001 H   0  0  0  0  0  0  0  0  0  0  0  0
    1.1066   -5.9203    0.0203 H   0  0  0  0  0  0  0  0  0  0  0  0
    2.9975   -4.5795   -0.8717 H   0  0  0  0  0  0  0  0  0  0  0  0
    2.6483   -2.1510   -1.1640 H   0  0  0  0  0  0  0  0  0  0  0  0
    3.8919    1.5640    2.4098 H   0  0  0  0  0  0  0  0  0  0  0  0
  1  2  1  0
  2  3  2  0
  3  4  1  0
  4  5  1  0
  5  6  1  0
  6  7  2  0
  7  8  1  0
  8  9  1  0
  9 10  1  0
  9 11  1  0
 11 12  2  0
 12 13  1  0
 13 14  2  0
 14 15  1  0
 14 16  1  0
 16 17  2  0
  8 18  2  0
 18 19  1  0
 19 20  2  0
 20 21  1  0
 21 22  2  0
 22 23  1  0
 23 24  2  0
  4 25  2  0
 25 26  1  0
 26  2  1  0
 24  6  1  0
 17 11  1  0
 24 19  1  0
  1 27  1  0
  1 28  1  0
  1 29  1  0
  3 30  1  0
  5 31  1  0
  9 32  1  1
 10 33  1  0
 12 34  1  0
 13 35  1  0
 16 36  1  0
 17 37  1  0
 20 38  1  0
 21 39  1  0
 22 40  1  0
 23 41  1  0
 26 42  1  0
M  END
$$$$
