
     RDKit          3D

 59 61  0  0  0  0  0  0  0  0999 V2000
   -4.7544   -2.7704   -1.3383 C   0  0  0  0  0  0  0  0  0  0  0  0
   -3.6881   -2.7607   -0.2773 C   0  0  0  0  0  0  0  0  0  0  0  0
   -3.3276   -1.4860    0.1018 O   0  0  0  0  0  0  0  0  0  0  0  0
   -4.1621   -0.5884    0.6781 C   0  0  0  0  0  0  0  0  0  0  0  0
   -5.4505   -0.9545    0.9256 C   0  0  0  0  0  0  0  0  0  0  0  0
   -6.3069   -0.0615    1.5085 C   0  0  0  0  0  0  0  0  0  0  0  0
   -7.6555   -0.3038    1.8182 N   0  0  0  0  0  0  0  0  0  0  0  0
   -5.7643    1.1660    1.8001 C   0  0  0  0  0  0  0  0  0  0  0  0
   -4.4698    1.5726    1.5654 C   0  0  0  0  0  0  0  0  0  0  0  0
   -3.6053    0.6345    0.9639 C   0  0  0  0  0  0  0  0  0  0  0  0
   -2.2589    1.1240    0.7385 C   0  0  0  0  0  0  0  0  0  0  0  0
   -1.9034    2.2642    1.0564 O   0  0  0  0  0  0  0  0  0  0  0  0
   -1.2038    0.4116    0.1527 N   0  0  0  0  0  0  0  0  0  0  0  0
    0.1706    0.8621   -0.0968 C   0  0  0  0  0  0  0  0  0  0  0  0
    0.4359    1.0318   -1.5474 C   0  0  0  0  0  0  0  0  0  0  0  0
    1.5594    0.2544   -2.0992 C   0  0  0  0  0  0  0  0  0  0  0  0
    2.5877   -0.1817   -1.2292 N   0  0  0  0  0  0  0  0  0  0  0  0
    3.6556    0.7080   -1.1147 C   0  0  0  0  0  0  0  0  0  0  0  0
    4.7932    0.3218   -0.2338 C   0  0  0  0  0  0  0  0  0  0  0  0
    5.4518   -0.9619   -0.6892 C   0  0  0  0  0  0  0  0  0  0  0  0
    6.8678   -0.7375   -1.2020 C   0  0  0  0  0  0  0  0  0  0  0  0
    7.6133   -0.1276   -0.0677 C   0  0  0  0  0  0  0  0  0  0  0  0
    7.0866    0.9995    0.4268 C   0  0  0  0  0  0  0  0  0  0  0  0
    5.8306    1.4334   -0.2694 C   0  0  0  0  0  0  0  0  0  0  0  0
    2.0180   -0.7918   -0.0905 C   0  0  0  0  0  0  0  0  0  0  0  0
    1.1716    0.1587    0.7158 C   0  0  0  0  0  0  0  0  0  0  0  0
   -6.5836    2.1432    2.4050 N   0  0  0  0  0  4  0  0  0  0  0  0
   -7.3623    3.0628    2.9799 O   0  0  0  0  0  1  0  0  0  0  0  0
   -6.4297    3.3777    2.3023 O   0  0  0  0  0  0  0  0  0  0  0  0
   -5.5720   -3.4314   -1.0617 H   0  0  0  0  0  0  0  0  0  0  0  0
   -5.1259   -1.7520   -1.5181 H   0  0  0  0  0  0  0  0  0  0  0  0
   -4.3327   -3.1669   -2.3088 H   0  0  0  0  0  0  0  0  0  0  0  0
   -2.7777   -3.3290   -0.5990 H   0  0  0  0  0  0  0  0  0  0  0  0
   -4.0411   -3.3107    0.6354 H   0  0  0  0  0  0  0  0  0  0  0  0
   -5.8797   -1.9191    0.7098 H   0  0  0  0  0  0  0  0  0  0  0  0
   -7.8370   -0.7742    2.7569 H   0  0  0  0  0  0  0  0  0  0  0  0
   -7.6264   -0.7660    2.7631 H   0  0  0  0  0  0  0  0  0  0  0  0
   -4.1249    2.5644    1.8289 H   0  0  0  0  0  0  0  0  0  0  0  0
   -1.3336   -0.5656   -0.1722 H   0  0  0  0  0  0  0  0  0  0  0  0
    0.1279    1.9293    0.3306 H   0  0  0  0  0  0  0  0  0  0  0  0
   -0.5108    0.9022   -2.1599 H   0  0  0  0  0  0  0  0  0  0  0  0
    0.6715    2.1272   -1.7380 H   0  0  0  0  0  0  0  0  0  0  0  0
    2.0666    0.8882   -2.8958 H   0  0  0  0  0  0  0  0  0  0  0  0
    1.1640   -0.6187   -2.6972 H   0  0  0  0  0  0  0  0  0  0  0  0
    4.1025    0.8231   -2.1450 H   0  0  0  0  0  0  0  0  0  0  0  0
    3.2884    1.7200   -0.8434 H   0  0  0  0  0  0  0  0  0  0  0  0
    4.5359    0.2091    0.8317 H   0  0  0  0  0  0  0  0  0  0  0  0
    4.9044   -1.4735   -1.5039 H   0  0  0  0  0  0  0  0  0  0  0  0
    5.5527   -1.6815    0.1676 H   0  0  0  0  0  0  0  0  0  0  0  0
    6.8640   -0.0833   -2.0800 H   0  0  0  0  0  0  0  0  0  0  0  0
    7.2651   -1.7387   -1.4684 H   0  0  0  0  0  0  0  0  0  0  0  0
    8.5146   -0.5146    0.3690 H   0  0  0  0  0  0  0  0  0  0  0  0
    7.6117    1.4720    1.2621 H   0  0  0  0  0  0  0  0  0  0  0  0
    6.1280    1.6571   -1.3207 H   0  0  0  0  0  0  0  0  0  0  0  0
    5.4018    2.3612    0.1689 H   0  0  0  0  0  0  0  0  0  0  0  0
    2.6940   -1.3986    0.5170 H   0  0  0  0  0  0  0  0  0  0  0  0
    1.2881   -1.5493   -0.5093 H   0  0  0  0  0  0  0  0  0  0  0  0
    1.9124    0.8737    1.1903 H   0  0  0  0  0  0  0  0  0  0  0  0
    0.7526   -0.3685    1.6063 H   0  0  0  0  0  0  0  0  0  0  0  0
  1  2  1  0
  2  3  1  0
  3  4  1  0
  4  5  2  0
  5  6  1  0
  6  7  1  0
  6  8  2  0
  8  9  1  0
  9 10  2  0
 10 11  1  0
 11 12  2  0
 11 13  1  0
 13 14  1  0
 14 15  1  0
 15 16  1  0
 16 17  1  0
 17 18  1  0
 18 19  1  0
 19 20  1  0
 20 21  1  0
 21 22  1  0
 22 23  2  0
 23 24  1  0
 17 25  1  0
 25 26  1  0
  8 27  1  0
 27 28  1  0
 27 29  2  0
 10  4  1  0
 26 14  1  0
 24 19  1  0
  1 30  1  0
  1 31  1  0
  1 32  1  0
  2 33  1  0
  2 34  1  0
  5 35  1  0
  7 36  1  0
  7 37  1  0
  9 38  1  0
 13 39  1  0
 14 40  1  0
 15 41  1  0
 15 42  1  0
 16 43  1  0
 16 44  1  0
 18 45  1  0
 18 46  1  0
 19 47  1  0
 20 48  1  0
 20 49  1  0
 21 50  1  0
 21 51  1  0
 22 52  1  0
 23 53  1  0
 24 54  1  0
 24 55  1  0
 25 56  1  0
 25 57  1  0
 26 58  1  0
 26 59  1  0
M  CHG  2  27   1  28  -1
M  END
$$$$
