
     RDKit          3D

 57 62  0  0  0  0  0  0  0  0999 V2000
    3.2554    1.6532   -3.2182 C   0  0  0  0  0  0  0  0  0  0  0  0
    2.8126    0.8475   -2.0567 C   0  0  0  0  0  0  0  0  0  0  0  0
    3.5080    0.0398   -1.2142 C   0  0  0  0  0  0  0  0  0  0  0  0
    2.6913   -0.5136   -0.2651 N   0  0  0  0  0  0  0  0  0  0  0  0
    3.1940   -1.4093    0.6978 C   0  0  0  0  0  0  0  0  0  0  0  0
    2.4791   -1.6803    1.9500 C   0  0  0  0  0  0  0  0  0  0  0  0
    3.8052   -1.9834    2.5395 N   0  0  0  0  0  0  0  0  0  0  0  0
    4.2213   -3.3171    2.1464 C   0  0  0  0  0  0  0  0  0  0  0  0
    4.3019   -0.9426    1.6181 C   0  0  0  0  0  0  0  0  0  0  0  0
    1.4735   -0.0312   -0.5295 C   0  0  0  0  0  0  0  0  0  0  0  0
    1.4838    0.7950   -1.6132 C   0  0  0  0  0  0  0  0  0  0  0  0
    0.1099    1.1581   -1.9871 C   0  0  0  0  0  0  0  0  0  0  0  0
   -0.2287    1.9114   -2.9135 O   0  0  0  0  0  0  0  0  0  0  0  0
   -0.7057    0.4629   -1.0641 N   0  0  0  0  0  0  0  0  0  0  0  0
   -2.1132    0.1725   -1.1980 C   0  0  0  0  0  0  0  0  0  0  0  0
   -2.8589    0.6992   -2.2249 C   0  0  0  0  0  0  0  0  0  0  0  0
   -4.1950    0.3517   -2.3280 C   0  0  0  0  0  0  0  0  0  0  0  0
   -5.0431    0.9045   -3.4337 C   0  0  0  0  0  0  0  0  0  0  0  0
   -4.7743   -0.5084   -1.4186 C   0  0  0  0  0  0  0  0  0  0  0  0
   -6.0065   -1.0338   -1.2381 N   0  0  0  0  0  0  0  0  0  0  0  0
   -5.9769   -1.8198   -0.1683 N   0  0  0  0  0  0  0  0  0  0  0  0
   -4.7626   -1.8286    0.3620 N   0  0  0  0  0  0  0  0  0  0  0  0
   -4.3269   -2.5585    1.5298 C   0  0  0  0  0  0  0  0  0  0  0  0
   -4.0069   -1.0148   -0.4098 C   0  0  0  0  0  0  0  0  0  0  0  0
   -2.7336   -0.6680   -0.3326 N   0  0  0  0  0  0  0  0  0  0  0  0
    0.1058    0.0495    0.0349 C   0  0  0  0  0  0  0  0  0  0  0  0
    0.0617    1.2196    1.0157 C   0  0  0  0  0  0  0  0  0  0  0  0
    1.2401    1.6696    1.5717 C   0  0  0  0  0  0  0  0  0  0  0  0
    1.2469    2.7370    2.4698 C   0  0  0  0  0  0  0  0  0  0  0  0
    0.0738    3.3537    2.8107 C   0  0  0  0  0  0  0  0  0  0  0  0
    0.0879    4.6987    3.9434 Cl  0  0  0  0  0  0  0  0  0  0  0  0
   -1.0959    2.9310    2.2784 C   0  0  0  0  0  0  0  0  0  0  0  0
   -1.0888    1.8602    1.3795 C   0  0  0  0  0  0  0  0  0  0  0  0
    4.2712    1.2910   -3.5191 H   0  0  0  0  0  0  0  0  0  0  0  0
    3.2812    2.7508   -2.9728 H   0  0  0  0  0  0  0  0  0  0  0  0
    2.5905    1.4750   -4.0734 H   0  0  0  0  0  0  0  0  0  0  0  0
    4.5801   -0.1251   -1.3096 H   0  0  0  0  0  0  0  0  0  0  0  0
    3.5489   -2.4027    0.2678 H   0  0  0  0  0  0  0  0  0  0  0  0
    2.0557   -0.8890    2.5591 H   0  0  0  0  0  0  0  0  0  0  0  0
    1.8952   -2.6350    2.0037 H   0  0  0  0  0  0  0  0  0  0  0  0
    3.3771   -3.8797    1.6642 H   0  0  0  0  0  0  0  0  0  0  0  0
    5.1062   -3.2969    1.4791 H   0  0  0  0  0  0  0  0  0  0  0  0
    4.4215   -3.8728    3.0999 H   0  0  0  0  0  0  0  0  0  0  0  0
    4.1060    0.0311    2.0668 H   0  0  0  0  0  0  0  0  0  0  0  0
    5.3264   -1.1412    1.2493 H   0  0  0  0  0  0  0  0  0  0  0  0
   -2.4609    1.3682   -2.9542 H   0  0  0  0  0  0  0  0  0  0  0  0
   -5.5461    1.8034   -3.0180 H   0  0  0  0  0  0  0  0  0  0  0  0
   -5.7755    0.1086   -3.6983 H   0  0  0  0  0  0  0  0  0  0  0  0
   -4.4067    1.1264   -4.3002 H   0  0  0  0  0  0  0  0  0  0  0  0
   -4.6947   -2.0903    2.4787 H   0  0  0  0  0  0  0  0  0  0  0  0
   -3.2064   -2.5965    1.5268 H   0  0  0  0  0  0  0  0  0  0  0  0
   -4.6973   -3.6044    1.5048 H   0  0  0  0  0  0  0  0  0  0  0  0
   -0.2450   -0.8131    0.5673 H   0  0  0  0  0  0  0  0  0  0  0  0
    2.1665    1.1841    1.2972 H   0  0  0  0  0  0  0  0  0  0  0  0
    2.1592    3.0794    2.8956 H   0  0  0  0  0  0  0  0  0  0  0  0
   -2.0581    3.3884    2.5172 H   0  0  0  0  0  0  0  0  0  0  0  0
   -2.0305    1.5348    0.9551 H   0  0  0  0  0  0  0  0  0  0  0  0
  1  2  1  0
  2  3  2  0
  3  4  1  0
  4  5  1  0
  5  6  1  0
  6  7  1  0
  7  8  1  0
  7  9  1  0
  4 10  1  0
 10 11  2  0
 11 12  1  0
 12 13  2  0
 12 14  1  0
 14 15  1  0
 15 16  2  0
 16 17  1  0
 17 18  1  0
 17 19  2  0
 19 20  1  0
 20 21  2  0
 21 22  1  0
 22 23  1  0
 22 24  1  0
 24 25  2  0
 14 26  1  0
 26 27  1  0
 27 28  2  0
 28 29  1  0
 29 30  2  0
 30 31  1  0
 30 32  1  0
 32 33  2  0
 11  2  1  0
 25 15  1  0
 33 27  1  0
  9  5  1  0
 26 10  1  0
 24 19  1  0
  1 34  1  0
  1 35  1  0
  1 36  1  0
  3 37  1  0
  5 38  1  0
  6 39  1  0
  6 40  1  0
  8 41  1  0
  8 42  1  0
  8 43  1  0
  9 44  1  0
  9 45  1  0
 16 46  1  0
 18 47  1  0
 18 48  1  0
 18 49  1  0
 23 50  1  0
 23 51  1  0
 23 52  1  0
 26 53  1  0
 28 54  1  0
 29 55  1  0
 32 56  1  0
 33 57  1  0
M  END
$$$$
