
     RDKit          3D

 69 73  0  0  0  0  0  0  0  0999 V2000
    0.6079    1.5988    3.2392 C   0  0  0  0  0  0  0  0  0  0  0  0
    0.3909    1.8802    1.7819 C   0  0  1  0  0  0  0  0  0  0  0  0
    1.4598    1.2408    0.9398 C   0  0  0  0  0  0  0  0  0  0  0  0
    1.2918    1.1375   -0.4250 C   0  0  0  0  0  0  0  0  0  0  0  0
    2.2765    0.5438   -1.2308 C   0  0  0  0  0  0  0  0  0  0  0  0
    3.4244    0.0539   -0.6847 C   0  0  0  0  0  0  0  0  0  0  0  0
    4.4679   -0.5683   -1.4854 C   0  0  0  0  0  0  0  0  0  0  0  0
    4.4013   -0.7190   -2.8322 C   0  0  0  0  0  0  0  0  0  0  0  0
    5.4212   -1.3179   -3.5474 C   0  0  0  0  0  0  0  0  0  0  0  0
    6.5431   -1.7821   -2.9059 C   0  0  0  0  0  0  0  0  0  0  0  0
    7.5118   -2.3345   -3.4649 O   0  0  0  0  0  0  0  0  0  0  0  0
    6.5833   -1.6200   -1.5706 N   0  0  0  0  0  0  0  0  0  0  0  0
    7.7322   -2.0826   -0.8185 C   0  0  0  0  0  0  0  0  0  0  0  0
    9.0815   -1.5431   -1.0690 C   0  0  0  0  0  0  0  0  0  0  0  0
    8.3161   -1.0085    0.1058 C   0  0  0  0  0  0  0  0  0  0  0  0
    5.6054   -1.0470   -0.8942 N   0  0  0  0  0  0  0  0  0  0  0  0
    3.5857    0.1605    0.6804 C   0  0  0  0  0  0  0  0  0  0  0  0
    2.6211    0.7454    1.4943 C   0  0  0  0  0  0  0  0  0  0  0  0
   -0.8976    1.3964    1.4004 N   0  0  0  0  0  0  0  0  0  0  0  0
   -1.2497   -0.0296    1.4713 C   0  0  0  0  0  0  0  0  0  0  0  0
   -2.6536   -0.0785    1.9938 C   0  0  0  0  0  0  0  0  0  0  0  0
   -3.6133    0.4808    0.8889 C   0  0  2  0  0  0  0  0  0  0  0  0
   -4.9572    0.3678    1.4936 C   0  0  0  0  0  0  0  0  0  0  0  0
   -6.1539    0.8206    0.7578 C   0  0  0  0  0  0  0  0  0  0  0  0
   -6.4093    0.0906   -0.5181 C   0  0  0  0  0  0  0  0  0  0  0  0
   -7.3611    0.5038    1.6716 C   0  0  0  0  0  0  0  0  0  0  0  0
   -6.1304    2.2063    0.5107 O   0  0  0  0  0  0  0  0  0  0  0  0
   -3.3993   -0.2910   -0.3389 C   0  0  0  0  0  0  0  0  0  0  0  0
   -3.1180   -1.6639   -0.3060 C   0  0  0  0  0  0  0  0  0  0  0  0
   -2.8694   -2.3870   -1.4490 C   0  0  0  0  0  0  0  0  0  0  0  0
   -2.8890   -1.7770   -2.6819 C   0  0  0  0  0  0  0  0  0  0  0  0
   -3.1635   -0.4372   -2.7151 C   0  0  0  0  0  0  0  0  0  0  0  0
   -3.4134    0.2975   -1.5843 C   0  0  0  0  0  0  0  0  0  0  0  0
   -3.1958    1.8238    0.6872 O   0  0  0  0  0  0  0  0  0  0  0  0
   -1.9002    2.2659    0.9351 C   0  0  0  0  0  0  0  0  0  0  0  0
   -1.6363    3.4801    0.7319 O   0  0  0  0  0  0  0  0  0  0  0  0
    0.8845    0.5518    3.4553 H   0  0  0  0  0  0  0  0  0  0  0  0
   -0.2952    1.8759    3.7956 H   0  0  0  0  0  0  0  0  0  0  0  0
    1.4271    2.2869    3.5925 H   0  0  0  0  0  0  0  0  0  0  0  0
    0.4229    2.9767    1.6448 H   0  0  0  0  0  0  0  0  0  0  0  0
    0.3830    1.5195   -0.8991 H   0  0  0  0  0  0  0  0  0  0  0  0
    2.1302    0.4711   -2.2933 H   0  0  0  0  0  0  0  0  0  0  0  0
    3.5555   -0.3817   -3.4079 H   0  0  0  0  0  0  0  0  0  0  0  0
    5.3859   -1.4473   -4.6232 H   0  0  0  0  0  0  0  0  0  0  0  0
    7.6276   -3.1017   -0.4110 H   0  0  0  0  0  0  0  0  0  0  0  0
    9.9265   -2.2098   -0.7988 H   0  0  0  0  0  0  0  0  0  0  0  0
    9.3024   -0.8739   -1.9206 H   0  0  0  0  0  0  0  0  0  0  0  0
    8.5768   -1.3436    1.1307 H   0  0  0  0  0  0  0  0  0  0  0  0
    7.9590    0.0176    0.0064 H   0  0  0  0  0  0  0  0  0  0  0  0
    4.5049   -0.2286    1.1401 H   0  0  0  0  0  0  0  0  0  0  0  0
    2.7585    0.8235    2.5642 H   0  0  0  0  0  0  0  0  0  0  0  0
   -1.1391   -0.4034    0.4339 H   0  0  0  0  0  0  0  0  0  0  0  0
   -0.5785   -0.5677    2.1432 H   0  0  0  0  0  0  0  0  0  0  0  0
   -2.7402    0.6723    2.8201 H   0  0  0  0  0  0  0  0  0  0  0  0
   -3.0044   -1.0482    2.3346 H   0  0  0  0  0  0  0  0  0  0  0  0
   -5.0755   -0.7198    1.7961 H   0  0  0  0  0  0  0  0  0  0  0  0
   -4.8915    0.8771    2.5160 H   0  0  0  0  0  0  0  0  0  0  0  0
   -6.1691    0.7512   -1.3770 H   0  0  0  0  0  0  0  0  0  0  0  0
   -5.8148   -0.8303   -0.5822 H   0  0  0  0  0  0  0  0  0  0  0  0
   -7.5163   -0.1586   -0.6305 H   0  0  0  0  0  0  0  0  0  0  0  0
   -7.5175   -0.5899    1.5725 H   0  0  0  0  0  0  0  0  0  0  0  0
   -8.2178    1.1112    1.3480 H   0  0  0  0  0  0  0  0  0  0  0  0
   -7.0460    0.6894    2.7202 H   0  0  0  0  0  0  0  0  0  0  0  0
   -5.8948    2.6457    1.3518 H   0  0  0  0  0  0  0  0  0  0  0  0
   -3.0950   -2.1789    0.6524 H   0  0  0  0  0  0  0  0  0  0  0  0
   -2.6562   -3.4458   -1.3791 H   0  0  0  0  0  0  0  0  0  0  0  0
   -2.6925   -2.3472   -3.5896 H   0  0  0  0  0  0  0  0  0  0  0  0
   -3.1828    0.0648   -3.6898 H   0  0  0  0  0  0  0  0  0  0  0  0
   -3.6281    1.3729   -1.6777 H   0  0  0  0  0  0  0  0  0  0  0  0
  1  2  1  0
  2  3  1  0
  3  4  2  0
  4  5  1  0
  5  6  2  0
  6  7  1  0
  7  8  1  0
  8  9  2  0
  9 10  1  0
 10 11  2  0
 10 12  1  0
 12 13  1  0
 13 14  1  0
 14 15  1  0
 12 16  1  0
  6 17  1  0
 17 18  2  0
  2 19  1  0
 19 20  1  0
 20 21  1  0
 21 22  1  0
 22 23  1  1
 23 24  1  0
 24 25  1  0
 24 26  1  0
 24 27  1  0
 22 28  1  0
 28 29  2  0
 29 30  1  0
 30 31  2  0
 31 32  1  0
 32 33  2  0
 22 34  1  0
 34 35  1  0
 35 36  2  0
 18  3  1  0
 35 19  1  0
 16  7  2  0
 33 28  1  0
 15 13  1  0
  1 37  1  0
  1 38  1  0
  1 39  1  0
  2 40  1  1
  4 41  1  0
  5 42  1  0
  8 43  1  0
  9 44  1  0
 13 45  1  0
 14 46  1  0
 14 47  1  0
 15 48  1  0
 15 49  1  0
 17 50  1  0
 18 51  1  0
 20 52  1  0
 20 53  1  0
 21 54  1  0
 21 55  1  0
 23 56  1  0
 23 57  1  0
 25 58  1  0
 25 59  1  0
 25 60  1  0
 26 61  1  0
 26 62  1  0
 26 63  1  0
 27 64  1  0
 29 65  1  0
 30 66  1  0
 31 67  1  0
 32 68  1  0
 33 69  1  0
M  END
$$$$
