
     RDKit          3D

 95100  0  0  0  0  0  0  0  0999 V2000
   11.5054    1.2529    1.0433 O   0  0  0  0  0  0  0  0  0  0  0  0
   12.5356    0.7680    0.5218 C   0  0  0  0  0  0  0  0  0  0  0  0
   12.5972   -0.5252   -0.1955 C   0  0  0  0  0  0  0  0  0  0  0  0
   11.2933   -1.2757   -0.1435 C   0  0  0  0  0  0  0  0  0  0  0  0
   10.9307   -1.6166    1.2592 C   0  0  0  0  0  0  0  0  0  0  0  0
    9.6369   -2.3876    1.3561 C   0  0  0  0  0  0  0  0  0  0  0  0
    8.5167   -1.5811    0.7824 C   0  0  0  0  0  0  0  0  0  0  0  0
    7.2038   -2.3397    0.9082 C   0  0  0  0  0  0  0  0  0  0  0  0
    6.0971   -1.5281    0.3221 C   0  0  0  0  0  0  0  0  0  0  0  0
    6.3862   -0.4415   -0.2204 O   0  0  0  0  0  0  0  0  0  0  0  0
    4.7535   -1.9387    0.3584 N   0  0  0  0  0  0  0  0  0  0  0  0
    3.6284   -1.2624   -0.1648 C   0  0  0  0  0  0  0  0  0  0  0  0
    2.3419   -1.7812    0.0529 C   0  0  0  0  0  0  0  0  0  0  0  0
    1.2074   -1.1828   -0.4377 C   0  0  0  0  0  0  0  0  0  0  0  0
    1.2497   -0.0254   -1.1819 C   0  0  0  0  0  0  0  0  0  0  0  0
    0.0239    0.6244   -1.7124 C   0  0  2  0  0  0  0  0  0  0  0  0
   -0.9893    0.7578   -0.7594 O   0  0  0  0  0  0  0  0  0  0  0  0
   -1.8891    1.6750   -1.3498 C   0  0  2  0  0  0  0  0  0  0  0  0
   -2.7251    2.3871   -0.3986 C   0  0  0  0  0  0  0  0  0  0  0  0
   -2.9235    3.7378   -0.6008 C   0  0  0  0  0  0  0  0  0  0  0  0
   -3.6713    4.4974    0.2379 C   0  0  0  0  0  0  0  0  0  0  0  0
   -4.2531    3.8848    1.3350 C   0  0  0  0  0  0  0  0  0  0  0  0
   -5.0707    4.7282    2.2529 C   0  0  0  0  0  0  0  0  0  0  0  0
   -4.2442    5.2629    3.2504 O   0  0  0  0  0  0  0  0  0  0  0  0
   -4.0628    2.5281    1.5509 C   0  0  0  0  0  0  0  0  0  0  0  0
   -3.2968    1.7853    0.6788 C   0  0  0  0  0  0  0  0  0  0  0  0
   -2.6294    0.9101   -2.4287 C   0  0  0  0  0  0  0  0  0  0  0  0
   -1.7864   -0.1712   -2.9576 C   0  0  2  0  0  0  0  0  0  0  0  0
   -2.0556   -1.5887   -2.5582 C   0  0  0  0  0  0  0  0  0  0  0  0
   -3.6411   -2.2384   -2.9918 S   0  0  0  0  0  0  0  0  0  0  0  0
   -4.9941   -1.7515   -1.9728 C   0  0  0  0  0  0  0  0  0  0  0  0
   -6.2833   -2.1382   -2.2613 N   0  0  0  0  0  0  0  0  0  0  0  0
   -7.1166   -1.6482   -1.3409 C   0  0  0  0  0  0  0  0  0  0  0  0
   -8.5570   -1.8729   -1.3641 C   0  0  0  0  0  0  0  0  0  0  0  0
   -9.1413   -2.5933   -0.3697 C   0  0  0  0  0  0  0  0  0  0  0  0
  -10.5212   -2.8020   -0.3964 C   0  0  0  0  0  0  0  0  0  0  0  0
  -11.2746   -2.2862   -1.4133 C   0  0  0  0  0  0  0  0  0  0  0  0
  -10.6668   -1.5693   -2.3961 C   0  0  0  0  0  0  0  0  0  0  0  0
   -9.3208   -1.3521   -2.3918 C   0  0  0  0  0  0  0  0  0  0  0  0
   -6.3345   -0.9439   -0.4630 C   0  0  0  0  0  0  0  0  0  0  0  0
   -6.8122   -0.2377    0.7040 C   0  0  0  0  0  0  0  0  0  0  0  0
   -7.0888   -0.9563    1.8582 C   0  0  0  0  0  0  0  0  0  0  0  0
   -7.5621   -0.3822    3.0132 C   0  0  0  0  0  0  0  0  0  0  0  0
   -7.7690    0.9715    3.0171 C   0  0  0  0  0  0  0  0  0  0  0  0
   -7.5048    1.7253    1.8842 C   0  0  0  0  0  0  0  0  0  0  0  0
   -7.0332    1.1220    0.7480 C   0  0  0  0  0  0  0  0  0  0  0  0
   -5.1071   -1.0415   -0.8857 O   0  0  0  0  0  0  0  0  0  0  0  0
   -0.4107    0.1137   -2.9060 O   0  0  0  0  0  0  0  0  0  0  0  0
    2.5019    0.5004   -1.4072 C   0  0  0  0  0  0  0  0  0  0  0  0
    3.6644   -0.1063   -0.9088 C   0  0  0  0  0  0  0  0  0  0  0  0
   13.7787    1.4914    0.6034 N   0  0  0  0  0  0  0  0  0  0  0  0
   13.8207    2.6788    1.2391 O   0  0  0  0  0  0  0  0  0  0  0  0
   12.8749   -0.3205   -1.2682 H   0  0  0  0  0  0  0  0  0  0  0  0
   13.4410   -1.1363    0.1941 H   0  0  0  0  0  0  0  0  0  0  0  0
   11.4139   -2.1854   -0.7837 H   0  0  0  0  0  0  0  0  0  0  0  0
   10.5115   -0.5976   -0.5937 H   0  0  0  0  0  0  0  0  0  0  0  0
   10.8352   -0.7083    1.8576 H   0  0  0  0  0  0  0  0  0  0  0  0
   11.7575   -2.2581    1.6579 H   0  0  0  0  0  0  0  0  0  0  0  0
    9.7166   -3.3213    0.7407 H   0  0  0  0  0  0  0  0  0  0  0  0
    9.4460   -2.6621    2.4077 H   0  0  0  0  0  0  0  0  0  0  0  0
    8.6974   -1.3379   -0.2873 H   0  0  0  0  0  0  0  0  0  0  0  0
    8.4330   -0.6311    1.3395 H   0  0  0  0  0  0  0  0  0  0  0  0
    6.9896   -2.4221    1.9925 H   0  0  0  0  0  0  0  0  0  0  0  0
    7.2720   -3.3540    0.4972 H   0  0  0  0  0  0  0  0  0  0  0  0
    4.5691   -2.8717    0.8364 H   0  0  0  0  0  0  0  0  0  0  0  0
    2.2910   -2.7054    0.6461 H   0  0  0  0  0  0  0  0  0  0  0  0
    0.2326   -1.6097   -0.2497 H   0  0  0  0  0  0  0  0  0  0  0  0
    0.3199    1.6973   -1.9387 H   0  0  0  0  0  0  0  0  0  0  0  0
   -1.2235    2.4070   -1.9050 H   0  0  0  0  0  0  0  0  0  0  0  0
   -2.4735    4.2347   -1.4585 H   0  0  0  0  0  0  0  0  0  0  0  0
   -3.7976    5.5683    0.0311 H   0  0  0  0  0  0  0  0  0  0  0  0
   -5.8756    4.1316    2.7551 H   0  0  0  0  0  0  0  0  0  0  0  0
   -5.4663    5.5687    1.6737 H   0  0  0  0  0  0  0  0  0  0  0  0
   -3.9840    6.2061    3.0281 H   0  0  0  0  0  0  0  0  0  0  0  0
   -4.5485    2.1259    2.4258 H   0  0  0  0  0  0  0  0  0  0  0  0
   -3.1830    0.7235    0.8994 H   0  0  0  0  0  0  0  0  0  0  0  0
   -2.8109    1.6699   -3.2736 H   0  0  0  0  0  0  0  0  0  0  0  0
   -3.6180    0.5760   -2.1668 H   0  0  0  0  0  0  0  0  0  0  0  0
   -1.9799   -0.1795   -4.0967 H   0  0  0  0  0  0  0  0  0  0  0  0
   -1.2865   -2.1967   -3.1488 H   0  0  0  0  0  0  0  0  0  0  0  0
   -1.8228   -1.7301   -1.4593 H   0  0  0  0  0  0  0  0  0  0  0  0
   -8.5758   -3.0120    0.4391 H   0  0  0  0  0  0  0  0  0  0  0  0
  -10.9706   -3.3766    0.4019 H   0  0  0  0  0  0  0  0  0  0  0  0
  -12.3481   -2.4326   -1.4591 H   0  0  0  0  0  0  0  0  0  0  0  0
  -11.2782   -1.1562   -3.2126 H   0  0  0  0  0  0  0  0  0  0  0  0
   -8.8024   -0.7864   -3.1566 H   0  0  0  0  0  0  0  0  0  0  0  0
   -6.9096   -2.0363    1.8272 H   0  0  0  0  0  0  0  0  0  0  0  0
   -7.7497   -1.0336    3.8692 H   0  0  0  0  0  0  0  0  0  0  0  0
   -8.1438    1.4308    3.9278 H   0  0  0  0  0  0  0  0  0  0  0  0
   -7.6882    2.8017    1.9387 H   0  0  0  0  0  0  0  0  0  0  0  0
   -6.8222    1.7056   -0.1463 H   0  0  0  0  0  0  0  0  0  0  0  0
    2.5769    1.4196   -1.9946 H   0  0  0  0  0  0  0  0  0  0  0  0
    4.6020    0.3606   -1.1291 H   0  0  0  0  0  0  0  0  0  0  0  0
   14.6407    1.1043    0.1754 H   0  0  0  0  0  0  0  0  0  0  0  0
   13.8010    2.4929    2.2186 H   0  0  0  0  0  0  0  0  0  0  0  0
  1  2  2  0
  2  3  1  0
  3  4  1  0
  4  5  1  0
  5  6  1  0
  6  7  1  0
  7  8  1  0
  8  9  1  0
  9 10  2  0
  9 11  1  0
 11 12  1  0
 12 13  2  0
 13 14  1  0
 14 15  2  0
 15 16  1  0
 16 17  1  0
 17 18  1  0
 18 19  1  0
 19 20  2  0
 20 21  1  0
 21 22  2  0
 22 23  1  0
 23 24  1  0
 22 25  1  0
 25 26  2  0
 18 27  1  0
 27 28  1  0
 28 29  1  0
 29 30  1  0
 30 31  1  0
 31 32  2  0
 32 33  1  0
 33 34  1  0
 34 35  2  0
 35 36  1  0
 36 37  2  0
 37 38  1  0
 38 39  2  0
 33 40  2  0
 40 41  1  0
 41 42  2  0
 42 43  1  0
 43 44  2  0
 44 45  1  0
 45 46  2  0
 40 47  1  0
 28 48  1  0
 15 49  1  0
 49 50  2  0
  2 51  1  0
 51 52  1  0
 50 12  1  0
 48 16  1  0
 26 19  1  0
 47 31  1  0
 39 34  1  0
 46 41  1  0
  3 53  1  0
  3 54  1  0
  4 55  1  0
  4 56  1  0
  5 57  1  0
  5 58  1  0
  6 59  1  0
  6 60  1  0
  7 61  1  0
  7 62  1  0
  8 63  1  0
  8 64  1  0
 11 65  1  0
 13 66  1  0
 14 67  1  0
 16 68  1  6
 18 69  1  6
 20 70  1  0
 21 71  1  0
 23 72  1  0
 23 73  1  0
 24 74  1  0
 25 75  1  0
 26 76  1  0
 27 77  1  0
 27 78  1  0
 28 79  1  6
 29 80  1  0
 29 81  1  0
 35 82  1  0
 36 83  1  0
 37 84  1  0
 38 85  1  0
 39 86  1  0
 42 87  1  0
 43 88  1  0
 44 89  1  0
 45 90  1  0
 46 91  1  0
 49 92  1  0
 50 93  1  0
 51 94  1  0
 52 95  1  0
M  END
$$$$
