
     RDKit          3D

 39 40  0  0  0  0  0  0  0  0999 V2000
    2.2953    2.7725   -1.5796 C   0  0  0  0  0  0  0  0  0  0  0  0
    2.5751    1.8517   -0.5532 C   0  0  0  0  0  0  0  0  0  0  0  0
    2.4339    0.4648   -1.0576 C   0  0  0  0  0  0  0  0  0  0  0  0
    1.2908   -0.1503   -0.2568 N   0  0  0  0  0  0  0  0  0  0  0  0
    1.6677   -1.1678    0.6686 C   0  0  0  0  0  0  0  0  0  0  0  0
    1.9507   -0.5974    2.0093 C   0  0  0  0  0  0  0  0  0  0  0  0
    3.1319   -0.7472    2.6067 C   0  0  0  0  0  0  0  0  0  0  0  0
    0.0120    0.3387   -0.5297 C   0  0  0  0  0  0  0  0  0  0  0  0
   -0.0260    1.3407   -1.3443 O   0  0  0  0  0  0  0  0  0  0  0  0
   -1.2864   -0.0722   -0.0365 C   0  0  1  0  0  0  0  0  0  0  0  0
   -1.4854   -1.5646    0.1233 C   0  0  0  0  0  0  0  0  0  0  0  0
   -1.3117   -2.5762   -0.7880 C   0  0  0  0  0  0  0  0  0  0  0  0
   -1.5678   -3.8354   -0.4132 C   0  0  0  0  0  0  0  0  0  0  0  0
   -1.9924   -4.1411    0.8237 C   0  0  0  0  0  0  0  0  0  0  0  0
   -2.0266   -2.4016    1.5469 S   0  0  0  0  0  0  0  0  0  0  0  0
   -1.6395    0.6413    1.2664 C   0  0  0  0  0  0  0  0  0  0  0  0
   -2.4472    0.8393   -0.0113 C   0  0  1  0  0  0  0  0  0  0  0  0
   -2.5157    2.2163   -0.5574 C   0  0  0  0  0  0  0  0  0  0  0  0
   -2.3017    2.3811   -1.9564 N   0  0  0  0  0  0  0  0  0  0  0  0
    2.0594    2.3999   -2.5151 H   0  0  0  0  0  0  0  0  0  0  0  0
    2.3461    3.8111   -1.3277 H   0  0  0  0  0  0  0  0  0  0  0  0
    2.8316    2.1645    0.3646 H   0  0  0  0  0  0  0  0  0  0  0  0
    2.2320    0.3657   -2.1025 H   0  0  0  0  0  0  0  0  0  0  0  0
    3.3224   -0.0899   -0.7569 H   0  0  0  0  0  0  0  0  0  0  0  0
    0.9736   -2.0389    0.7312 H   0  0  0  0  0  0  0  0  0  0  0  0
    2.6306   -1.6331    0.3012 H   0  0  0  0  0  0  0  0  0  0  0  0
    1.1831   -0.0193    2.5625 H   0  0  0  0  0  0  0  0  0  0  0  0
    3.8843   -1.3133    2.0551 H   0  0  0  0  0  0  0  0  0  0  0  0
    3.3148   -0.3286    3.5763 H   0  0  0  0  0  0  0  0  0  0  0  0
   -0.9623   -2.3229   -1.8293 H   0  0  0  0  0  0  0  0  0  0  0  0
   -1.4364   -4.7106   -1.1302 H   0  0  0  0  0  0  0  0  0  0  0  0
   -2.2613   -4.9584    1.3724 H   0  0  0  0  0  0  0  0  0  0  0  0
   -2.0810    0.0627    2.1088 H   0  0  0  0  0  0  0  0  0  0  0  0
   -1.0428    1.5094    1.5534 H   0  0  0  0  0  0  0  0  0  0  0  0
   -3.4567    0.3361    0.0575 H   0  0  0  0  0  0  0  0  0  0  0  0
   -1.8067    2.9221    0.0030 H   0  0  0  0  0  0  0  0  0  0  0  0
   -3.5116    2.6475   -0.3248 H   0  0  0  0  0  0  0  0  0  0  0  0
   -3.2084    2.3398   -2.4769 H   0  0  0  0  0  0  0  0  0  0  0  0
   -1.7677    3.2633   -2.1834 H   0  0  0  0  0  0  0  0  0  0  0  0
  1  2  2  3
  2  3  1  0
  3  4  1  0
  4  5  1  0
  5  6  1  0
  6  7  2  3
  4  8  1  0
  8  9  2  0
 10  8  1  6
 10 11  1  0
 11 12  2  0
 12 13  1  0
 13 14  2  0
 14 15  1  0
 10 16  1  0
 16 17  1  0
 17 18  1  0
 18 19  1  0
 17 10  1  0
 15 11  1  0
  1 20  1  0
  1 21  1  0
  2 22  1  0
  3 23  1  0
  3 24  1  0
  5 25  1  0
  5 26  1  0
  6 27  1  0
  7 28  1  0
  7 29  1  0
 12 30  1  0
 13 31  1  0
 14 32  1  0
 16 33  1  0
 16 34  1  0
 17 35  1  1
 18 36  1  0
 18 37  1  0
 19 38  1  0
 19 39  1  0
M  END
$$$$
