
     RDKit          3D

 44 47  0  0  0  0  0  0  0  0999 V2000
    0.4604   -2.1435    2.6708 C   0  0  0  0  0  0  0  0  0  0  0  0
    1.3750   -2.0082    1.5032 C   0  0  0  0  0  0  0  0  0  0  0  0
    0.9227   -1.3917    0.4426 C   0  0  0  0  0  0  0  0  0  0  0  0
   -0.3704   -0.7984    0.2102 C   0  0  0  0  0  0  0  0  0  0  0  0
   -0.4874   -0.2522   -0.9732 O   0  0  0  0  0  0  0  0  0  0  0  0
   -1.5104   -0.6912    0.9844 N   0  0  0  0  0  0  0  0  0  0  0  0
   -2.6812   -0.0096    0.4400 C   0  0  0  0  0  0  0  0  0  0  0  0
   -3.6428   -0.7010   -0.2609 C   0  0  0  0  0  0  0  0  0  0  0  0
   -4.7713   -0.1269   -0.8026 C   0  0  0  0  0  0  0  0  0  0  0  0
   -4.9185    1.2400   -0.6111 C   0  0  0  0  0  0  0  0  0  0  0  0
   -5.9038    2.0721   -1.0169 N   0  0  0  0  0  0  0  0  0  0  0  0
   -5.6137    3.2901   -0.6008 N   0  0  0  0  0  0  0  0  0  0  0  0
   -4.4480    3.2781    0.0765 C   0  0  0  0  0  0  0  0  0  0  0  0
   -3.9826    1.9861    0.0859 C   0  0  0  0  0  0  0  0  0  0  0  0
   -2.8650    1.3454    0.6076 C   0  0  0  0  0  0  0  0  0  0  0  0
    1.8630   -1.2652   -0.7525 C   0  0  0  0  0  0  0  0  0  0  0  0
    2.4477    0.0912   -0.8151 C   0  0  0  0  0  0  0  0  0  0  0  0
    2.1831    0.9075   -1.9263 C   0  0  0  0  0  0  0  0  0  0  0  0
    2.7181    2.1561   -1.9890 C   0  0  0  0  0  0  0  0  0  0  0  0
    3.5192    2.6298   -0.9710 C   0  0  0  0  0  0  0  0  0  0  0  0
    4.1664    4.2425   -1.1285 Cl  0  0  0  0  0  0  0  0  0  0  0  0
    3.7976    1.8488    0.1360 C   0  0  0  0  0  0  0  0  0  0  0  0
    4.8162    2.4794    1.4079 Cl  0  0  0  0  0  0  0  0  0  0  0  0
    3.2559    0.5855    0.1988 C   0  0  0  0  0  0  0  0  0  0  0  0
    2.9261   -2.2873   -0.7751 C   0  0  0  0  0  0  0  0  0  0  0  0
    3.5728   -2.4687    0.5511 C   0  0  0  0  0  0  0  0  0  0  0  0
    4.8135   -2.5236    0.7054 O   0  0  0  0  0  0  0  0  0  0  0  0
    2.6888   -2.5769    1.6409 N   0  0  0  0  0  0  0  0  0  0  0  0
    0.2657   -1.1614    3.1387 H   0  0  0  0  0  0  0  0  0  0  0  0
    1.0733   -2.6559    3.4955 H   0  0  0  0  0  0  0  0  0  0  0  0
   -0.3705   -2.8222    2.5324 H   0  0  0  0  0  0  0  0  0  0  0  0
   -1.5226   -1.0862    1.9078 H   0  0  0  0  0  0  0  0  0  0  0  0
   -3.5169   -1.7626   -0.4028 H   0  0  0  0  0  0  0  0  0  0  0  0
   -5.5049   -0.7125   -1.3490 H   0  0  0  0  0  0  0  0  0  0  0  0
   -6.7461    1.7640   -1.5705 H   0  0  0  0  0  0  0  0  0  0  0  0
   -3.9174    4.0996    0.5526 H   0  0  0  0  0  0  0  0  0  0  0  0
   -2.1517    1.9335    1.1428 H   0  0  0  0  0  0  0  0  0  0  0  0
    1.2469   -1.4214   -1.6904 H   0  0  0  0  0  0  0  0  0  0  0  0
    1.5573    0.5038   -2.6947 H   0  0  0  0  0  0  0  0  0  0  0  0
    2.4966    2.7693   -2.8634 H   0  0  0  0  0  0  0  0  0  0  0  0
    3.4943    0.0077    1.0748 H   0  0  0  0  0  0  0  0  0  0  0  0
    3.7420   -2.0073   -1.4653 H   0  0  0  0  0  0  0  0  0  0  0  0
    2.5457   -3.2931   -1.1102 H   0  0  0  0  0  0  0  0  0  0  0  0
    2.9768   -3.0636    2.5437 H   0  0  0  0  0  0  0  0  0  0  0  0
  1  2  1  0
  2  3  2  0
  3  4  1  0
  4  5  2  0
  4  6  1  0
  6  7  1  0
  7  8  2  0
  8  9  1  0
  9 10  2  0
 10 11  1  0
 11 12  1  0
 12 13  2  0
 13 14  1  0
 14 15  2  0
  3 16  1  0
 16 17  1  0
 17 18  2  0
 18 19  1  0
 19 20  2  0
 20 21  1  0
 20 22  1  0
 22 23  1  0
 22 24  2  0
 16 25  1  0
 25 26  1  0
 26 27  2  0
 26 28  1  0
 28  2  1  0
 15  7  1  0
 24 17  1  0
 14 10  1  0
  1 29  1  0
  1 30  1  0
  1 31  1  0
  6 32  1  0
  8 33  1  0
  9 34  1  0
 11 35  1  0
 13 36  1  0
 15 37  1  0
 16 38  1  0
 18 39  1  0
 19 40  1  0
 24 41  1  0
 25 42  1  0
 25 43  1  0
 28 44  1  0
M  END
$$$$
