
     RDKit          3D

 47 49  0  0  0  0  0  0  0  0999 V2000
    2.5078   -1.1176   -2.8636 C   0  0  0  0  0  0  0  0  0  0  0  0
    1.3917   -0.9095   -1.8633 C   0  0  0  0  0  0  0  0  0  0  0  0
    1.9746   -0.6724   -0.4887 C   0  0  2  0  0  0  0  0  0  0  0  0
    0.8789   -0.4632    0.5197 C   0  0  0  0  0  0  0  0  0  0  0  0
    0.8187    0.5613    1.2461 O   0  0  0  0  0  0  0  0  0  0  0  0
   -0.1596   -1.4384    0.6984 N   0  0  0  0  0  0  0  0  0  0  0  0
   -1.1930   -1.2384    1.6513 C   0  0  0  0  0  0  0  0  0  0  0  0
   -1.1029   -1.6767    2.9540 C   0  0  0  0  0  0  0  0  0  0  0  0
   -2.1134   -1.4754    3.8761 C   0  0  0  0  0  0  0  0  0  0  0  0
   -3.2532   -0.8167    3.4937 C   0  0  0  0  0  0  0  0  0  0  0  0
   -3.3694   -0.3679    2.1976 C   0  0  0  0  0  0  0  0  0  0  0  0
   -2.3374   -0.5786    1.2730 C   0  0  0  0  0  0  0  0  0  0  0  0
   -2.5072   -0.0970   -0.0430 N   0  0  0  0  0  0  0  0  0  0  0  0
   -2.5162   -0.9014   -1.2349 C   0  0  0  0  0  0  0  0  0  0  0  0
   -3.0037   -0.0042   -2.3539 C   0  0  0  0  0  0  0  0  0  0  0  0
   -3.6436    1.1397   -1.6015 C   0  0  0  0  0  0  0  0  0  0  0  0
   -2.7028    1.2846   -0.4097 C   0  0  0  0  0  0  0  0  0  0  0  0
    2.8530    0.4900   -0.4166 C   0  0  0  0  0  0  0  0  0  0  0  0
    2.4084    1.7700   -0.6759 C   0  0  0  0  0  0  0  0  0  0  0  0
    3.2410    2.8481   -0.6047 C   0  0  0  0  0  0  0  0  0  0  0  0
    4.5825    2.6551   -0.2600 C   0  0  0  0  0  0  0  0  0  0  0  0
    5.0439    1.3782    0.0030 C   0  0  0  0  0  0  0  0  0  0  0  0
    4.1936    0.2942   -0.0717 C   0  0  0  0  0  0  0  0  0  0  0  0
    2.1555   -0.9470   -3.9113 H   0  0  0  0  0  0  0  0  0  0  0  0
    3.3980   -0.4978   -2.6265 H   0  0  0  0  0  0  0  0  0  0  0  0
    2.8355   -2.1718   -2.7755 H   0  0  0  0  0  0  0  0  0  0  0  0
    0.6814   -0.1277   -2.1742 H   0  0  0  0  0  0  0  0  0  0  0  0
    0.8206   -1.8603   -1.8134 H   0  0  0  0  0  0  0  0  0  0  0  0
    2.5605   -1.5781   -0.2402 H   0  0  0  0  0  0  0  0  0  0  0  0
   -0.0850   -2.2806    0.0854 H   0  0  0  0  0  0  0  0  0  0  0  0
   -0.1939   -2.1983    3.2465 H   0  0  0  0  0  0  0  0  0  0  0  0
   -2.0302   -1.8290    4.9104 H   0  0  0  0  0  0  0  0  0  0  0  0
   -4.0283   -0.6738    4.2388 H   0  0  0  0  0  0  0  0  0  0  0  0
   -4.2737    0.1438    1.9303 H   0  0  0  0  0  0  0  0  0  0  0  0
   -3.2688   -1.7395   -1.1637 H   0  0  0  0  0  0  0  0  0  0  0  0
   -1.5373   -1.2862   -1.5235 H   0  0  0  0  0  0  0  0  0  0  0  0
   -3.7038   -0.5059   -3.0290 H   0  0  0  0  0  0  0  0  0  0  0  0
   -2.1672    0.4096   -2.9482 H   0  0  0  0  0  0  0  0  0  0  0  0
   -3.6928    2.0630   -2.2072 H   0  0  0  0  0  0  0  0  0  0  0  0
   -4.6735    0.8985   -1.2847 H   0  0  0  0  0  0  0  0  0  0  0  0
   -3.1516    1.8896    0.3899 H   0  0  0  0  0  0  0  0  0  0  0  0
   -1.7886    1.7762   -0.7830 H   0  0  0  0  0  0  0  0  0  0  0  0
    1.3835    1.8971   -0.9368 H   0  0  0  0  0  0  0  0  0  0  0  0
    2.8674    3.8472   -0.8135 H   0  0  0  0  0  0  0  0  0  0  0  0
    5.2457    3.5125   -0.2032 H   0  0  0  0  0  0  0  0  0  0  0  0
    6.0883    1.2782    0.2654 H   0  0  0  0  0  0  0  0  0  0  0  0
    4.5665   -0.6833    0.1343 H   0  0  0  0  0  0  0  0  0  0  0  0
  1  2  1  0
  2  3  1  0
  3  4  1  0
  4  5  2  0
  4  6  1  0
  6  7  1  0
  7  8  2  0
  8  9  1  0
  9 10  2  0
 10 11  1  0
 11 12  2  0
 12 13  1  0
 13 14  1  0
 14 15  1  0
 15 16  1  0
 16 17  1  0
  3 18  1  0
 18 19  2  0
 19 20  1  0
 20 21  2  0
 21 22  1  0
 22 23  2  0
 12  7  1  0
 17 13  1  0
 23 18  1  0
  1 24  1  0
  1 25  1  0
  1 26  1  0
  2 27  1  0
  2 28  1  0
  3 29  1  1
  6 30  1  0
  8 31  1  0
  9 32  1  0
 10 33  1  0
 11 34  1  0
 14 35  1  0
 14 36  1  0
 15 37  1  0
 15 38  1  0
 16 39  1  0
 16 40  1  0
 17 41  1  0
 17 42  1  0
 19 43  1  0
 20 44  1  0
 21 45  1  0
 22 46  1  0
 23 47  1  0
M  END
$$$$
