
     RDKit          3D

 42 45  0  0  0  0  0  0  0  0999 V2000
    0.4966    1.1865   -2.9179 C   0  0  0  0  0  0  0  0  0  0  0  0
    0.2676   -0.1139   -2.1708 C   0  0  1  0  0  0  0  0  0  0  0  0
    1.4467   -0.3052   -1.2463 C   0  0  0  0  0  0  0  0  0  0  0  0
    1.3798    0.6262   -0.0765 C   0  0  0  0  0  0  0  0  0  0  0  0
    0.2755    1.3873    0.2338 C   0  0  0  0  0  0  0  0  0  0  0  0
    0.6265    2.0741    1.3433 N   0  0  0  0  0  0  0  0  0  0  0  0
    1.8611    1.7442    1.6742 N   0  0  0  0  0  0  0  0  0  0  0  0
    2.3673    0.8592    0.8346 N   0  0  0  0  0  0  0  0  0  0  0  0
    3.6702    0.2607    0.8582 C   0  0  0  0  0  0  0  0  0  0  0  0
    4.4933    0.2712   -0.1995 N   0  0  0  0  0  0  0  0  0  0  0  0
    5.7190   -0.2905   -0.1808 C   0  0  0  0  0  0  0  0  0  0  0  0
    6.1699   -0.9125    0.9729 C   0  0  0  0  0  0  0  0  0  0  0  0
    7.4012   -1.4783    0.9960 F   0  0  0  0  0  0  0  0  0  0  0  0
    5.3162   -0.9207    2.0628 C   0  0  0  0  0  0  0  0  0  0  0  0
    4.0998   -0.3385    1.9758 N   0  0  0  0  0  0  0  0  0  0  0  0
   -0.9541    1.3277   -0.6016 C   0  0  0  0  0  0  0  0  0  0  0  0
   -0.9234    0.0899   -1.3372 N   0  0  0  0  0  0  0  0  0  0  0  0
   -1.9595   -0.8807   -1.2772 C   0  0  0  0  0  0  0  0  0  0  0  0
   -1.9020   -1.9342   -1.9222 O   0  0  0  0  0  0  0  0  0  0  0  0
   -3.1017   -0.5867   -0.4207 C   0  0  0  0  0  0  0  0  0  0  0  0
   -4.1875    0.0922   -0.9701 C   0  0  0  0  0  0  0  0  0  0  0  0
   -5.2668    0.3689   -0.1564 C   0  0  0  0  0  0  0  0  0  0  0  0
   -5.2862   -0.0025    1.1435 N   0  0  0  0  0  0  0  0  0  0  0  0
   -4.2574   -0.6588    1.7088 C   0  0  0  0  0  0  0  0  0  0  0  0
   -4.2868   -1.0672    3.1514 C   0  0  0  0  0  0  0  0  0  0  0  0
   -4.1762   -2.4353    3.2810 F   0  0  0  0  0  0  0  0  0  0  0  0
   -5.3480   -0.5379    3.8138 F   0  0  0  0  0  0  0  0  0  0  0  0
   -3.1086   -0.5400    3.6994 F   0  0  0  0  0  0  0  0  0  0  0  0
   -3.1768   -0.9379    0.9012 C   0  0  0  0  0  0  0  0  0  0  0  0
   -2.1309   -1.5964    1.4461 F   0  0  0  0  0  0  0  0  0  0  0  0
    1.3097    1.0823   -3.6687 H   0  0  0  0  0  0  0  0  0  0  0  0
   -0.4407    1.4941   -3.4259 H   0  0  0  0  0  0  0  0  0  0  0  0
    0.7644    1.9817   -2.2025 H   0  0  0  0  0  0  0  0  0  0  0  0
    0.1649   -0.9656   -2.8401 H   0  0  0  0  0  0  0  0  0  0  0  0
    1.3853   -1.3745   -0.8922 H   0  0  0  0  0  0  0  0  0  0  0  0
    2.4125   -0.2066   -1.7508 H   0  0  0  0  0  0  0  0  0  0  0  0
    6.3833   -0.2841   -1.0287 H   0  0  0  0  0  0  0  0  0  0  0  0
    5.6792   -1.4089    2.9570 H   0  0  0  0  0  0  0  0  0  0  0  0
   -1.8128    1.3990    0.0913 H   0  0  0  0  0  0  0  0  0  0  0  0
   -1.0364    2.2237   -1.2742 H   0  0  0  0  0  0  0  0  0  0  0  0
   -4.2075    0.4038   -2.0015 H   0  0  0  0  0  0  0  0  0  0  0  0
   -6.1266    0.9041   -0.5832 H   0  0  0  0  0  0  0  0  0  0  0  0
  1  2  1  0
  2  3  1  0
  3  4  1  0
  4  5  2  0
  5  6  1  0
  6  7  2  0
  7  8  1  0
  8  9  1  0
  9 10  2  0
 10 11  1  0
 11 12  2  0
 12 13  1  0
 12 14  1  0
 14 15  2  0
  5 16  1  0
 16 17  1  0
 17 18  1  0
 18 19  2  0
 18 20  1  0
 20 21  2  0
 21 22  1  0
 22 23  2  0
 23 24  1  0
 24 25  1  0
 25 26  1  0
 25 27  1  0
 25 28  1  0
 24 29  2  0
 29 30  1  0
 17  2  1  0
 29 20  1  0
  8  4  1  0
 15  9  1  0
  1 31  1  0
  1 32  1  0
  1 33  1  0
  2 34  1  6
  3 35  1  0
  3 36  1  0
 11 37  1  0
 14 38  1  0
 16 39  1  0
 16 40  1  0
 21 41  1  0
 22 42  1  0
M  END
$$$$
