
     RDKit          3D

 72 78  0  0  0  0  0  0  0  0999 V2000
    7.5626    0.4390    1.6752 O   0  0  0  0  0  0  0  0  0  0  0  0
    6.5744   -0.3611    1.0818 C   0  0  0  0  0  0  0  0  0  0  0  0
    6.4656   -0.1342   -0.4104 C   0  0  0  0  0  0  0  0  0  0  0  0
    7.7901   -0.6831   -0.9842 C   0  0  0  0  0  0  0  0  0  0  0  0
    7.8286   -2.0163   -0.5259 O   0  0  0  0  0  0  0  0  0  0  0  0
    5.4407   -0.9488   -0.9477 N   0  0  0  0  0  0  0  0  0  0  0  0
    4.1332   -0.5454   -0.6731 N   0  0  0  0  0  0  0  0  0  0  0  0
    3.5356    0.6051   -0.0914 C   0  0  0  0  0  0  0  0  0  0  0  0
    4.3411    1.4950    0.2404 O   0  0  0  0  0  0  0  0  0  0  0  0
    2.1001    0.4779   -0.0187 C   0  0  0  0  0  0  0  0  0  0  0  0
    1.1278    1.2944    0.4454 C   0  0  0  0  0  0  0  0  0  0  0  0
   -0.1988    0.9228    0.3968 C   0  0  0  0  0  0  0  0  0  0  0  0
   -0.9398    1.9198    0.9152 N   0  0  0  0  0  0  0  0  0  0  0  0
   -0.1305    2.9501    1.3096 C   0  0  0  0  0  0  0  0  0  0  0  0
    1.1502    2.5390    1.0078 C   0  0  0  0  0  0  0  0  0  0  0  0
    2.0821    3.4799    1.3507 C   0  0  0  0  0  0  0  0  0  0  0  0
    1.8493    4.7079    1.9285 C   0  0  0  0  0  0  0  0  0  0  0  0
    0.5505    5.0697    2.2095 C   0  0  0  0  0  0  0  0  0  0  0  0
    0.2377    6.2878    2.7901 O   0  0  0  0  0  0  0  0  0  0  0  0
   -0.4488    4.1774    1.8948 C   0  0  0  0  0  0  0  0  0  0  0  0
   -0.5716   -0.3098   -0.1340 C   0  0  0  0  0  0  0  0  0  0  0  0
   -1.7740   -0.9021   -0.2959 N   0  0  0  0  0  0  0  0  0  0  0  0
   -3.0584   -0.3794    0.0820 C   0  0  2  0  0  0  0  0  0  0  0  0
   -4.0494   -1.3909    0.1773 O   0  0  0  0  0  0  0  0  0  0  0  0
   -5.0958   -0.9225    0.9244 C   0  0  2  0  0  0  0  0  0  0  0  0
   -6.1812   -2.0023    0.8645 C   0  0  0  0  0  0  0  0  0  0  0  0
   -6.5077   -2.1463   -0.4860 O   0  0  0  0  0  0  0  0  0  0  0  0
   -5.7214    0.3372    0.4066 C   0  0  1  0  0  0  0  0  0  0  0  0
   -6.2754    0.9812    1.5378 O   0  0  0  0  0  0  0  0  0  0  0  0
   -4.7735    1.3055   -0.1975 C   0  0  2  0  0  0  0  0  0  0  0  0
   -5.4376    2.1495   -1.0938 O   0  0  0  0  0  0  0  0  0  0  0  0
   -3.6624    0.5784   -0.9094 C   0  0  1  0  0  0  0  0  0  0  0  0
   -2.7716    1.3878   -1.5684 O   0  0  0  0  0  0  0  0  0  0  0  0
   -1.5182   -2.0918   -0.8692 C   0  0  0  0  0  0  0  0  0  0  0  0
   -0.1603   -2.2220   -1.0534 C   0  0  0  0  0  0  0  0  0  0  0  0
    0.1862   -3.4085   -1.6364 C   0  0  0  0  0  0  0  0  0  0  0  0
   -0.6394   -4.4373   -2.0396 C   0  0  0  0  0  0  0  0  0  0  0  0
   -2.0149   -4.2638   -1.8341 C   0  0  0  0  0  0  0  0  0  0  0  0
   -2.8605   -5.2919   -2.2352 O   0  0  0  0  0  0  0  0  0  0  0  0
   -2.4301   -3.0738   -1.2431 C   0  0  0  0  0  0  0  0  0  0  0  0
    0.4741   -1.1129   -0.5994 C   0  0  0  0  0  0  0  0  0  0  0  0
    1.7942   -0.7533   -0.5560 C   0  0  0  0  0  0  0  0  0  0  0  0
    3.0178   -1.4089   -0.9685 C   0  0  0  0  0  0  0  0  0  0  0  0
    3.2326   -2.5187   -1.4981 O   0  0  0  0  0  0  0  0  0  0  0  0
    7.9291    1.0593    1.0104 H   0  0  0  0  0  0  0  0  0  0  0  0
    5.6308   -0.3300    1.6354 H   0  0  0  0  0  0  0  0  0  0  0  0
    6.9416   -1.4400    1.1666 H   0  0  0  0  0  0  0  0  0  0  0  0
    6.3815    0.9375   -0.6590 H   0  0  0  0  0  0  0  0  0  0  0  0
    8.6353   -0.1148   -0.5668 H   0  0  0  0  0  0  0  0  0  0  0  0
    7.7041   -0.6478   -2.0881 H   0  0  0  0  0  0  0  0  0  0  0  0
    7.5333   -2.6062   -1.2647 H   0  0  0  0  0  0  0  0  0  0  0  0
    5.5819   -1.9583   -0.8466 H   0  0  0  0  0  0  0  0  0  0  0  0
   -1.9857    2.0173    1.0462 H   0  0  0  0  0  0  0  0  0  0  0  0
    3.1104    3.2942    1.1739 H   0  0  0  0  0  0  0  0  0  0  0  0
    2.6309    5.4114    2.1772 H   0  0  0  0  0  0  0  0  0  0  0  0
   -0.0358    7.0296    2.1528 H   0  0  0  0  0  0  0  0  0  0  0  0
   -1.4558    4.4781    2.1218 H   0  0  0  0  0  0  0  0  0  0  0  0
   -3.0673    0.0101    1.1447 H   0  0  0  0  0  0  0  0  0  0  0  0
   -4.7865   -0.8754    1.9875 H   0  0  0  0  0  0  0  0  0  0  0  0
   -7.0909   -1.7135    1.4024 H   0  0  0  0  0  0  0  0  0  0  0  0
   -5.7828   -2.9814    1.1916 H   0  0  0  0  0  0  0  0  0  0  0  0
   -5.9367   -1.6094   -1.0877 H   0  0  0  0  0  0  0  0  0  0  0  0
   -6.5866    0.1363   -0.2560 H   0  0  0  0  0  0  0  0  0  0  0  0
   -6.4411    0.3350    2.2797 H   0  0  0  0  0  0  0  0  0  0  0  0
   -4.3302    1.9668    0.5659 H   0  0  0  0  0  0  0  0  0  0  0  0
   -5.8798    2.9116   -0.6067 H   0  0  0  0  0  0  0  0  0  0  0  0
   -4.1820   -0.0137   -1.7231 H   0  0  0  0  0  0  0  0  0  0  0  0
   -3.0572    2.3400   -1.6238 H   0  0  0  0  0  0  0  0  0  0  0  0
    1.2071   -3.6332   -1.8340 H   0  0  0  0  0  0  0  0  0  0  0  0
   -0.2818   -5.3581   -2.5001 H   0  0  0  0  0  0  0  0  0  0  0  0
   -3.1395   -5.3424   -3.2126 H   0  0  0  0  0  0  0  0  0  0  0  0
   -3.5001   -3.0835   -1.1555 H   0  0  0  0  0  0  0  0  0  0  0  0
  1  2  1  0
  2  3  1  0
  3  4  1  0
  4  5  1  0
  3  6  1  0
  6  7  1  0
  7  8  1  0
  8  9  2  0
  8 10  1  0
 10 11  2  0
 11 12  1  0
 12 13  1  0
 13 14  1  0
 14 15  2  0
 15 16  1  0
 16 17  2  0
 17 18  1  0
 18 19  1  0
 18 20  2  0
 12 21  2  0
 21 22  1  0
 22 23  1  0
 23 24  1  0
 24 25  1  0
 25 26  1  0
 26 27  1  0
 25 28  1  0
 28 29  1  0
 28 30  1  0
 30 31  1  0
 30 32  1  0
 32 33  1  0
 22 34  1  0
 34 35  2  0
 35 36  1  0
 36 37  2  0
 37 38  1  0
 38 39  1  0
 38 40  2  0
 35 41  1  0
 41 42  2  0
 42 43  1  0
 43 44  2  0
 43  7  1  0
 42 10  1  0
 15 11  1  0
 41 21  1  0
 20 14  1  0
 32 23  1  0
 40 34  1  0
  1 45  1  0
  2 46  1  0
  2 47  1  0
  3 48  1  0
  4 49  1  0
  4 50  1  0
  5 51  1  0
  6 52  1  0
 13 53  1  0
 16 54  1  0
 17 55  1  0
 19 56  1  0
 20 57  1  0
 23 58  1  1
 25 59  1  1
 26 60  1  0
 26 61  1  0
 27 62  1  0
 28 63  1  6
 29 64  1  0
 30 65  1  1
 31 66  1  0
 32 67  1  6
 33 68  1  0
 36 69  1  0
 37 70  1  0
 39 71  1  0
 40 72  1  0
M  END
$$$$
