
     RDKit          3D

 39 41  0  0  0  0  0  0  0  0999 V2000
   -2.1728   -0.2050   -2.6588 O   0  0  0  0  0  0  0  0  0  0  0  0
   -1.9326   -0.9266   -1.6378 C   0  0  0  0  0  0  0  0  0  0  0  0
   -2.9923   -1.4115   -0.9077 O   0  0  0  0  0  0  0  0  0  0  0  0
   -4.3240   -1.1684   -1.1822 C   0  0  0  0  0  0  0  0  0  0  0  0
   -5.0866   -1.8201   -2.1063 C   0  0  0  0  0  0  0  0  0  0  0  0
   -6.4288   -1.5313   -2.3395 C   0  0  0  0  0  0  0  0  0  0  0  0
   -6.9950   -0.5256   -1.5818 C   0  0  0  0  0  0  0  0  0  0  0  0
   -6.2825    0.1639   -0.6397 C   0  0  0  0  0  0  0  0  0  0  0  0
   -4.9628   -0.1612   -0.4496 C   0  0  0  0  0  0  0  0  0  0  0  0
   -0.5840   -1.1854   -1.3108 N   0  0  0  0  0  0  0  0  0  0  0  0
    0.4694   -0.6562   -2.1412 C   0  0  0  0  0  0  0  0  0  0  0  0
    1.5213   -0.0478   -1.2673 C   0  0  0  0  0  0  0  0  0  0  0  0
    1.6347   -0.3913    0.0112 C   0  0  0  0  0  0  0  0  0  0  0  0
    2.6706    0.2514    0.7555 C   0  0  0  0  0  0  0  0  0  0  0  0
    3.5440    0.8075    1.3691 C   0  0  0  0  0  0  0  0  0  0  0  0
    4.6198    1.4989    2.0983 C   0  0  0  0  0  0  0  0  0  0  0  0
    4.9092    2.8153    1.8005 C   0  0  0  0  0  0  0  0  0  0  0  0
    5.9207    3.4259    2.5159 C   0  0  0  0  0  0  0  0  0  0  0  0
    6.6044    2.7224    3.4895 C   0  0  0  0  0  0  0  0  0  0  0  0
    6.2612    1.3944    3.7399 C   0  0  0  0  0  0  0  0  0  0  0  0
    5.2719    0.8063    3.0370 N   0  0  0  0  0  0  0  0  0  0  0  0
    0.7992   -1.3701    0.7078 C   0  0  0  0  0  0  0  0  0  0  0  0
   -0.3114   -1.9625   -0.1175 C   0  0  0  0  0  0  0  0  0  0  0  0
   -4.6277   -2.6123   -2.7030 H   0  0  0  0  0  0  0  0  0  0  0  0
   -7.0077   -2.0838   -3.0946 H   0  0  0  0  0  0  0  0  0  0  0  0
   -8.0377   -0.2825   -1.7472 H   0  0  0  0  0  0  0  0  0  0  0  0
   -6.7391    0.9344   -0.0711 H   0  0  0  0  0  0  0  0  0  0  0  0
   -4.3656    0.3614    0.2877 H   0  0  0  0  0  0  0  0  0  0  0  0
    0.9681   -1.5212   -2.6320 H   0  0  0  0  0  0  0  0  0  0  0  0
    0.1381    0.0949   -2.8522 H   0  0  0  0  0  0  0  0  0  0  0  0
    2.1676    0.6757   -1.7475 H   0  0  0  0  0  0  0  0  0  0  0  0
    4.3978    3.3830    1.0489 H   0  0  0  0  0  0  0  0  0  0  0  0
    6.1693    4.4655    2.3009 H   0  0  0  0  0  0  0  0  0  0  0  0
    7.3899    3.2265    4.0316 H   0  0  0  0  0  0  0  0  0  0  0  0
    6.8363    0.9092    4.5083 H   0  0  0  0  0  0  0  0  0  0  0  0
    1.4646   -2.1558    1.1410 H   0  0  0  0  0  0  0  0  0  0  0  0
    0.3101   -0.8418    1.5749 H   0  0  0  0  0  0  0  0  0  0  0  0
    0.0199   -2.9643   -0.4535 H   0  0  0  0  0  0  0  0  0  0  0  0
   -1.2376   -2.1121    0.4758 H   0  0  0  0  0  0  0  0  0  0  0  0
  1  2  2  0
  2  3  1  0
  3  4  1  0
  4  5  2  0
  5  6  1  0
  6  7  2  0
  7  8  1  0
  8  9  2  0
  2 10  1  0
 10 11  1  0
 11 12  1  0
 12 13  2  0
 13 14  1  0
 14 15  3  0
 15 16  1  0
 16 17  2  0
 17 18  1  0
 18 19  2  0
 19 20  1  0
 20 21  2  0
 13 22  1  0
 22 23  1  0
  9  4  1  0
 23 10  1  0
 21 16  1  0
  5 24  1  0
  6 25  1  0
  7 26  1  0
  8 27  1  0
  9 28  1  0
 11 29  1  0
 11 30  1  0
 12 31  1  0
 17 32  1  0
 18 33  1  0
 19 34  1  0
 20 35  1  0
 22 36  1  0
 22 37  1  0
 23 38  1  0
 23 39  1  0
M  END
$$$$
