
     RDKit          3D

 34 36  0  0  0  0  0  0  0  0999 V2000
    6.2779    0.0683   -0.1679 C   0  0  0  0  0  0  0  0  0  0  0  0
    4.8238    0.1477    0.1525 C   0  0  0  0  0  0  0  0  0  0  0  0
    4.3395   -0.1070    1.4182 C   0  0  0  0  0  0  0  0  0  0  0  0
    3.0031   -0.0314    1.6977 C   0  0  0  0  0  0  0  0  0  0  0  0
    2.0529    0.3081    0.7168 C   0  0  0  0  0  0  0  0  0  0  0  0
    0.6831    0.4236    1.1166 C   0  0  0  0  0  0  0  0  0  0  0  0
    0.5095    0.9019    2.3056 O   0  0  0  0  0  0  0  0  0  0  0  0
   -0.4700    0.0810    0.3773 N   0  0  0  0  0  0  0  0  0  0  0  0
   -1.7069    0.3546    0.7865 N   0  0  0  0  0  0  0  0  0  0  0  0
   -2.6330   -0.1214   -0.0492 C   0  0  0  0  0  0  0  0  0  0  0  0
   -4.1016   -0.0035    0.0877 C   0  0  0  0  0  0  0  0  0  0  0  0
   -4.9257    0.1916   -0.9942 C   0  0  0  0  0  0  0  0  0  0  0  0
   -6.3008    0.2933   -0.7885 C   0  0  0  0  0  0  0  0  0  0  0  0
   -6.8139    0.1985    0.4811 C   0  0  0  0  0  0  0  0  0  0  0  0
   -6.0067    0.0068    1.5456 N   0  0  0  0  0  0  0  0  0  0  0  0
   -4.6748   -0.0908    1.3379 C   0  0  0  0  0  0  0  0  0  0  0  0
   -1.9764   -0.7277   -1.0387 N   0  0  0  0  0  0  0  0  0  0  0  0
   -0.6442   -0.5956   -0.7613 C   0  0  0  0  0  0  0  0  0  0  0  0
    0.3283   -1.1751   -1.6028 N   0  0  0  0  0  0  0  0  0  0  0  0
    2.5242    0.5669   -0.5514 C   0  0  0  0  0  0  0  0  0  0  0  0
    3.8874    0.4791   -0.7962 C   0  0  0  0  0  0  0  0  0  0  0  0
    6.7067   -0.9021    0.2146 H   0  0  0  0  0  0  0  0  0  0  0  0
    6.8417    0.9040    0.2612 H   0  0  0  0  0  0  0  0  0  0  0  0
    6.3734   -0.0057   -1.2772 H   0  0  0  0  0  0  0  0  0  0  0  0
    5.0775   -0.3687    2.1713 H   0  0  0  0  0  0  0  0  0  0  0  0
    2.6461   -0.2404    2.7184 H   0  0  0  0  0  0  0  0  0  0  0  0
   -4.4839    0.2599   -1.9679 H   0  0  0  0  0  0  0  0  0  0  0  0
   -6.9355    0.4454   -1.6376 H   0  0  0  0  0  0  0  0  0  0  0  0
   -7.8915    0.2752    0.6695 H   0  0  0  0  0  0  0  0  0  0  0  0
   -4.0410   -0.2466    2.2215 H   0  0  0  0  0  0  0  0  0  0  0  0
    0.6033   -0.7985   -2.5403 H   0  0  0  0  0  0  0  0  0  0  0  0
    0.8552   -2.0563   -1.3246 H   0  0  0  0  0  0  0  0  0  0  0  0
    1.8446    0.8781   -1.3535 H   0  0  0  0  0  0  0  0  0  0  0  0
    4.2276    0.6866   -1.8029 H   0  0  0  0  0  0  0  0  0  0  0  0
  1  2  1  0
  2  3  2  0
  3  4  1  0
  4  5  2  0
  5  6  1  0
  6  7  2  0
  6  8  1  0
  8  9  1  0
  9 10  2  0
 10 11  1  0
 11 12  2  0
 12 13  1  0
 13 14  2  0
 14 15  1  0
 15 16  2  0
 10 17  1  0
 17 18  2  0
 18 19  1  0
  5 20  1  0
 20 21  2  0
 21  2  1  0
 18  8  1  0
 16 11  1  0
  1 22  1  0
  1 23  1  0
  1 24  1  0
  3 25  1  0
  4 26  1  0
 12 27  1  0
 13 28  1  0
 14 29  1  0
 16 30  1  0
 19 31  1  0
 19 32  1  0
 20 33  1  0
 21 34  1  0
M  END
$$$$
