
     RDKit          3D

 27 29  0  0  0  0  0  0  0  0999 V2000
    3.1480    1.8594    2.3425 O   0  0  0  0  0  0  0  0  0  0  0  0
    3.2604    1.0969    1.3158 C   0  0  0  0  0  0  0  0  0  0  0  0
    4.4286    0.9115    0.5935 N   0  0  0  0  0  0  0  0  0  0  0  0
    4.4488    0.1416   -0.3999 C   0  0  0  0  0  0  0  0  0  0  0  0
    5.7711   -0.2980   -1.5197 S   0  0  0  0  0  0  0  0  0  0  0  0
    2.7990   -0.5509   -0.5636 S   0  0  0  0  0  0  0  0  0  0  0  0
    2.1068    0.3421    0.8273 C   0  0  0  0  0  0  0  0  0  0  0  0
    0.8739    0.3383    1.2841 C   0  0  0  0  0  0  0  0  0  0  0  0
   -0.1427   -0.4851    0.6586 C   0  0  0  0  0  0  0  0  0  0  0  0
    0.1180   -1.7898    0.3399 C   0  0  0  0  0  0  0  0  0  0  0  0
   -0.8899   -2.5220   -0.2907 C   0  0  0  0  0  0  0  0  0  0  0  0
   -2.1123   -1.9573   -0.5867 C   0  0  0  0  0  0  0  0  0  0  0  0
   -2.3910   -0.6489   -0.2745 C   0  0  0  0  0  0  0  0  0  0  0  0
   -3.6170   -0.0795   -0.5769 C   0  0  0  0  0  0  0  0  0  0  0  0
   -3.8653    1.2435   -0.2546 C   0  0  0  0  0  0  0  0  0  0  0  0
   -2.8693    1.9566    0.3659 C   0  0  0  0  0  0  0  0  0  0  0  0
   -1.6479    1.3861    0.6663 C   0  0  0  0  0  0  0  0  0  0  0  0
   -1.3896    0.0727    0.3507 C   0  0  0  0  0  0  0  0  0  0  0  0
    6.9439    0.3728   -1.0906 H   0  0  0  0  0  0  0  0  0  0  0  0
    0.6200    0.9568    2.1451 H   0  0  0  0  0  0  0  0  0  0  0  0
    1.0769   -2.2682    0.5595 H   0  0  0  0  0  0  0  0  0  0  0  0
   -0.6773   -3.5537   -0.5425 H   0  0  0  0  0  0  0  0  0  0  0  0
   -2.8917   -2.5333   -1.0844 H   0  0  0  0  0  0  0  0  0  0  0  0
   -4.3920   -0.6471   -1.0681 H   0  0  0  0  0  0  0  0  0  0  0  0
   -4.8163    1.7144   -0.4848 H   0  0  0  0  0  0  0  0  0  0  0  0
   -3.0374    2.9935    0.6281 H   0  0  0  0  0  0  0  0  0  0  0  0
   -0.8554    1.9477    1.1629 H   0  0  0  0  0  0  0  0  0  0  0  0
  1  2  2  0
  2  3  1  0
  3  4  2  0
  4  5  1  0
  4  6  1  0
  6  7  1  0
  7  8  2  3
  8  9  1  0
  9 10  2  0
 10 11  1  0
 11 12  2  0
 12 13  1  0
 13 14  2  0
 14 15  1  0
 15 16  2  0
 16 17  1  0
 17 18  2  0
  7  2  1  0
 18  9  1  0
 18 13  1  0
  5 19  1  0
  8 20  1  0
 10 21  1  0
 11 22  1  0
 12 23  1  0
 14 24  1  0
 15 25  1  0
 16 26  1  0
 17 27  1  0
M  END
$$$$
