
     RDKit          3D

 41 43  0  0  0  0  0  0  0  0999 V2000
   -5.8918   -0.0650    1.3762 C   0  0  0  0  0  0  0  0  0  0  0  0
   -5.0642    0.5599    0.2853 C   0  0  0  0  0  0  0  0  0  0  0  0
   -5.4499    1.8135   -0.1578 C   0  0  0  0  0  0  0  0  0  0  0  0
   -4.7450    2.4520   -1.1531 C   0  0  0  0  0  0  0  0  0  0  0  0
   -3.6603    1.8003   -1.6779 C   0  0  0  0  0  0  0  0  0  0  0  0
   -3.2667    0.5411   -1.2384 C   0  0  0  0  0  0  0  0  0  0  0  0
   -3.9724   -0.0962   -0.2429 C   0  0  0  0  0  0  0  0  0  0  0  0
   -3.6610   -1.4270    0.3013 C   0  0  0  0  0  0  0  0  0  0  0  0
   -2.4593   -2.0230   -0.1749 N   0  0  0  0  0  0  0  0  0  0  0  0
   -1.1613   -1.4869    0.0035 C   0  0  0  0  0  0  0  0  0  0  0  0
   -1.0070   -0.4241    0.6138 O   0  0  0  0  0  0  0  0  0  0  0  0
   -0.0170   -2.0647   -0.4584 O   0  0  0  0  0  0  0  0  0  0  0  0
    1.2406   -1.5501   -0.2877 C   0  0  0  0  0  0  0  0  0  0  0  0
    1.6989   -0.6967   -1.2702 C   0  0  0  0  0  0  0  0  0  0  0  0
    2.9485   -0.1125   -1.2155 C   0  0  0  0  0  0  0  0  0  0  0  0
    3.7835   -0.3721   -0.1594 C   0  0  0  0  0  0  0  0  0  0  0  0
    5.1052    0.2613   -0.1304 C   0  0  0  0  0  0  0  0  0  0  0  0
    5.5520    1.0532   -1.0333 N   0  0  0  0  0  0  0  0  0  0  0  0
    6.8798    1.5165   -0.7307 C   0  0  0  0  0  0  0  0  0  0  0  0
    7.2628    0.7060    0.4825 C   0  0  0  0  0  0  0  0  0  0  0  0
    6.0707    0.0989    0.8783 O   0  0  0  0  0  0  0  0  0  0  0  0
    3.3405   -1.2236    0.8320 C   0  0  0  0  0  0  0  0  0  0  0  0
    2.0738   -1.8049    0.7596 C   0  0  0  0  0  0  0  0  0  0  0  0
   -6.0769   -1.1360    1.1004 H   0  0  0  0  0  0  0  0  0  0  0  0
   -5.2993   -0.0436    2.3073 H   0  0  0  0  0  0  0  0  0  0  0  0
   -6.8688    0.4175    1.4360 H   0  0  0  0  0  0  0  0  0  0  0  0
   -6.3138    2.3039    0.2775 H   0  0  0  0  0  0  0  0  0  0  0  0
   -5.0907    3.4273   -1.4588 H   0  0  0  0  0  0  0  0  0  0  0  0
   -3.0932    2.2818   -2.4591 H   0  0  0  0  0  0  0  0  0  0  0  0
   -2.4188    0.0549   -1.6685 H   0  0  0  0  0  0  0  0  0  0  0  0
   -4.5362   -2.0848    0.0345 H   0  0  0  0  0  0  0  0  0  0  0  0
   -3.7077   -1.3436    1.4106 H   0  0  0  0  0  0  0  0  0  0  0  0
   -2.4926   -2.9407   -0.7101 H   0  0  0  0  0  0  0  0  0  0  0  0
    1.0968   -0.4344   -2.1492 H   0  0  0  0  0  0  0  0  0  0  0  0
    3.2920    0.5666   -2.0135 H   0  0  0  0  0  0  0  0  0  0  0  0
    7.5856    1.3704   -1.5758 H   0  0  0  0  0  0  0  0  0  0  0  0
    6.7865    2.6131   -0.4903 H   0  0  0  0  0  0  0  0  0  0  0  0
    8.0590   -0.0021    0.1808 H   0  0  0  0  0  0  0  0  0  0  0  0
    7.7002    1.3580    1.2875 H   0  0  0  0  0  0  0  0  0  0  0  0
    4.0164   -1.4137    1.6557 H   0  0  0  0  0  0  0  0  0  0  0  0
    1.7608   -2.4506    1.5288 H   0  0  0  0  0  0  0  0  0  0  0  0
  1  2  1  0
  2  3  2  0
  3  4  1  0
  4  5  2  0
  5  6  1  0
  6  7  2  0
  7  8  1  0
  8  9  1  0
  9 10  1  0
 10 11  2  0
 10 12  1  0
 12 13  1  0
 13 14  2  0
 14 15  1  0
 15 16  2  0
 16 17  1  0
 17 18  2  0
 18 19  1  0
 19 20  1  0
 20 21  1  0
 16 22  1  0
 22 23  2  0
  7  2  1  0
 23 13  1  0
 21 17  1  0
  1 24  1  0
  1 25  1  0
  1 26  1  0
  3 27  1  0
  4 28  1  0
  5 29  1  0
  6 30  1  0
  8 31  1  0
  8 32  1  0
  9 33  1  0
 14 34  1  0
 15 35  1  0
 19 36  1  0
 19 37  1  0
 20 38  1  0
 20 39  1  0
 22 40  1  0
 23 41  1  0
M  END
$$$$
