
     RDKit          3D

 64 68  0  0  0  0  0  0  0  0999 V2000
    8.3517    2.6102    0.2241 C   0  0  0  0  0  0  0  0  0  0  0  0
    7.9411    1.2980    0.7587 C   0  0  0  0  0  0  0  0  0  0  0  0
    8.0602    1.0939    1.9921 O   0  0  0  0  0  0  0  0  0  0  0  0
    7.4227    0.2701   -0.0549 N   0  0  0  0  0  0  0  0  0  0  0  0
    7.0428   -0.9828    0.5340 C   0  0  0  0  0  0  0  0  0  0  0  0
    5.9510   -1.6256   -0.2892 C   0  0  0  0  0  0  0  0  0  0  0  0
    5.1593   -0.5812   -0.8942 N   0  0  0  0  0  0  0  0  0  0  0  0
    3.8105   -0.3841   -0.5233 C   0  0  0  0  0  0  0  0  0  0  0  0
    2.9592    0.3928   -1.3216 C   0  0  0  0  0  0  0  0  0  0  0  0
    1.6418    0.6301   -0.9953 C   0  0  0  0  0  0  0  0  0  0  0  0
    1.0991    0.0989    0.1575 C   0  0  0  0  0  0  0  0  0  0  0  0
   -0.2300    0.3849    0.4135 O   0  0  0  0  0  0  0  0  0  0  0  0
   -0.9357   -0.0764    1.5473 C   0  0  0  0  0  0  0  0  0  0  0  0
   -2.3304    0.4457    1.4546 C   0  0  2  0  0  0  0  0  0  0  0  0
   -3.2795   -0.1036    2.4899 C   0  0  0  0  0  0  0  0  0  0  0  0
   -4.5165    0.1187    1.8364 O   0  0  0  0  0  0  0  0  0  0  0  0
   -4.2374   -0.2279    0.5037 C   0  0  1  0  0  0  0  0  0  0  0  0
   -4.7249   -1.6624    0.3689 C   0  0  0  0  0  0  0  0  0  0  0  0
   -6.1590   -1.6512    0.6674 N   0  0  0  0  0  0  0  0  0  0  0  0
   -7.1777   -1.4799   -0.1888 C   0  0  0  0  0  0  0  0  0  0  0  0
   -8.3799   -1.5346    0.4833 C   0  0  0  0  0  0  0  0  0  0  0  0
   -8.0695   -1.7469    1.7901 N   0  0  0  0  0  0  0  0  0  0  0  0
   -6.7399   -1.8140    1.8816 C   0  0  0  0  0  0  0  0  0  0  0  0
   -5.0148    0.6124   -0.4357 C   0  0  0  0  0  0  0  0  0  0  0  0
   -5.9137    1.5628    0.0151 C   0  0  0  0  0  0  0  0  0  0  0  0
   -6.6149    2.2931   -0.9115 C   0  0  0  0  0  0  0  0  0  0  0  0
   -6.4493    2.1068   -2.2671 C   0  0  0  0  0  0  0  0  0  0  0  0
   -7.4021    3.0990   -3.3802 Cl  0  0  0  0  0  0  0  0  0  0  0  0
   -5.5600    1.1662   -2.7355 C   0  0  0  0  0  0  0  0  0  0  0  0
   -4.8460    0.4235   -1.7834 C   0  0  0  0  0  0  0  0  0  0  0  0
   -3.7053   -0.7414   -2.4717 Cl  0  0  0  0  0  0  0  0  0  0  0  0
   -2.9058   -0.0553    0.2701 O   0  0  0  0  0  0  0  0  0  0  0  0
    1.8941   -0.6576    0.9528 C   0  0  0  0  0  0  0  0  0  0  0  0
    3.2289   -0.8939    0.6156 C   0  0  0  0  0  0  0  0  0  0  0  0
    5.8129    0.2831   -1.8923 C   0  0  0  0  0  0  0  0  0  0  0  0
    7.2718    0.4705   -1.4833 C   0  0  0  0  0  0  0  0  0  0  0  0
    9.2657    2.4731   -0.4097 H   0  0  0  0  0  0  0  0  0  0  0  0
    7.6005    3.0632   -0.4535 H   0  0  0  0  0  0  0  0  0  0  0  0
    8.5114    3.3322    1.0369 H   0  0  0  0  0  0  0  0  0  0  0  0
    7.9077   -1.6874    0.4955 H   0  0  0  0  0  0  0  0  0  0  0  0
    6.6725   -0.8703    1.5780 H   0  0  0  0  0  0  0  0  0  0  0  0
    5.2935   -2.2915    0.2888 H   0  0  0  0  0  0  0  0  0  0  0  0
    6.4119   -2.1848   -1.1567 H   0  0  0  0  0  0  0  0  0  0  0  0
    3.3818    0.8163   -2.2374 H   0  0  0  0  0  0  0  0  0  0  0  0
    1.0268    1.2405   -1.6531 H   0  0  0  0  0  0  0  0  0  0  0  0
   -0.8671   -1.1451    1.7334 H   0  0  0  0  0  0  0  0  0  0  0  0
   -0.4467    0.4398    2.4251 H   0  0  0  0  0  0  0  0  0  0  0  0
   -2.3555    1.5538    1.4694 H   0  0  0  0  0  0  0  0  0  0  0  0
   -3.2272    0.4470    3.4502 H   0  0  0  0  0  0  0  0  0  0  0  0
   -3.1819   -1.1918    2.5896 H   0  0  0  0  0  0  0  0  0  0  0  0
   -4.1846   -2.2538    1.1606 H   0  0  0  0  0  0  0  0  0  0  0  0
   -4.5796   -2.1054   -0.6091 H   0  0  0  0  0  0  0  0  0  0  0  0
   -7.1043   -1.3169   -1.2668 H   0  0  0  0  0  0  0  0  0  0  0  0
   -9.3953   -1.4361    0.1073 H   0  0  0  0  0  0  0  0  0  0  0  0
   -6.2034   -1.9763    2.8085 H   0  0  0  0  0  0  0  0  0  0  0  0
   -6.0162    1.6785    1.0834 H   0  0  0  0  0  0  0  0  0  0  0  0
   -7.3287    3.0476   -0.5645 H   0  0  0  0  0  0  0  0  0  0  0  0
   -5.4246    1.0145   -3.7977 H   0  0  0  0  0  0  0  0  0  0  0  0
    1.4499   -1.0679    1.8547 H   0  0  0  0  0  0  0  0  0  0  0  0
    3.7934   -1.4947    1.2971 H   0  0  0  0  0  0  0  0  0  0  0  0
    5.3152    1.2605   -1.8434 H   0  0  0  0  0  0  0  0  0  0  0  0
    5.7168   -0.1225   -2.9012 H   0  0  0  0  0  0  0  0  0  0  0  0
    7.8612   -0.3027   -2.0016 H   0  0  0  0  0  0  0  0  0  0  0  0
    7.6516    1.4529   -1.8125 H   0  0  0  0  0  0  0  0  0  0  0  0
  1  2  1  0
  2  3  2  0
  2  4  1  0
  4  5  1  0
  5  6  1  0
  6  7  1  0
  7  8  1  0
  8  9  2  0
  9 10  1  0
 10 11  2  0
 11 12  1  0
 12 13  1  0
 13 14  1  0
 14 15  1  0
 15 16  1  0
 16 17  1  0
 17 18  1  1
 18 19  1  0
 19 20  1  0
 20 21  2  0
 21 22  1  0
 22 23  2  0
 17 24  1  0
 24 25  2  0
 25 26  1  0
 26 27  2  0
 27 28  1  0
 27 29  1  0
 29 30  2  0
 30 31  1  0
 17 32  1  0
 11 33  1  0
 33 34  2  0
  7 35  1  0
 35 36  1  0
 36  4  1  0
 34  8  1  0
 32 14  1  0
 23 19  1  0
 30 24  1  0
  1 37  1  0
  1 38  1  0
  1 39  1  0
  5 40  1  0
  5 41  1  0
  6 42  1  0
  6 43  1  0
  9 44  1  0
 10 45  1  0
 13 46  1  0
 13 47  1  0
 14 48  1  6
 15 49  1  0
 15 50  1  0
 18 51  1  0
 18 52  1  0
 20 53  1  0
 21 54  1  0
 23 55  1  0
 25 56  1  0
 26 57  1  0
 29 58  1  0
 33 59  1  0
 34 60  1  0
 35 61  1  0
 35 62  1  0
 36 63  1  0
 36 64  1  0
M  END
$$$$
