
     RDKit          3D

 37 39  0  0  0  0  0  0  0  0999 V2000
   -6.0086    0.1448   -0.2558 C   0  0  0  0  0  0  0  0  0  0  0  0
   -4.5398    0.2497   -0.3727 C   0  0  0  0  0  0  0  0  0  0  0  0
   -3.7481   -0.3187    0.6022 C   0  0  0  0  0  0  0  0  0  0  0  0
   -4.3519   -1.0231    1.7484 C   0  0  0  0  0  0  0  0  0  0  0  0
   -2.3637   -0.2465    0.5363 C   0  0  0  0  0  0  0  0  0  0  0  0
   -1.5577   -0.8046    1.4947 C   0  0  0  0  0  0  0  0  0  0  0  0
   -0.1975   -0.6910    1.3592 C   0  0  0  0  0  0  0  0  0  0  0  0
    0.3629   -0.0198    0.2666 C   0  0  0  0  0  0  0  0  0  0  0  0
    1.7120    0.1221    0.0836 O   0  0  0  0  0  0  0  0  0  0  0  0
    2.7021   -0.3677    0.9358 C   0  0  0  0  0  0  0  0  0  0  0  0
    4.0351   -0.0106    0.3949 C   0  0  0  0  0  0  0  0  0  0  0  0
    4.6160    1.1899    0.7748 C   0  0  0  0  0  0  0  0  0  0  0  0
    5.8631    1.5483    0.2831 C   0  0  0  0  0  0  0  0  0  0  0  0
    6.5537    0.7320   -0.5870 C   0  0  0  0  0  0  0  0  0  0  0  0
    7.7713    1.1230   -1.0429 F   0  0  0  0  0  0  0  0  0  0  0  0
    5.9632   -0.4550   -0.9534 C   0  0  0  0  0  0  0  0  0  0  0  0
    6.6215   -1.2754   -1.8077 F   0  0  0  0  0  0  0  0  0  0  0  0
    4.7183   -0.8175   -0.4654 C   0  0  0  0  0  0  0  0  0  0  0  0
   -0.4748    0.5394   -0.6948 C   0  0  0  0  0  0  0  0  0  0  0  0
   -1.8410    0.4292   -0.5652 C   0  0  0  0  0  0  0  0  0  0  0  0
   -2.6247    0.9580   -1.4740 O   0  0  0  0  0  0  0  0  0  0  0  0
   -3.9345    0.8973   -1.4242 C   0  0  0  0  0  0  0  0  0  0  0  0
   -4.6764    1.4085   -2.3021 O   0  0  0  0  0  0  0  0  0  0  0  0
   -6.3613    0.4305    0.7602 H   0  0  0  0  0  0  0  0  0  0  0  0
   -6.4678    0.8986   -0.9592 H   0  0  0  0  0  0  0  0  0  0  0  0
   -6.3949   -0.8493   -0.5481 H   0  0  0  0  0  0  0  0  0  0  0  0
   -5.4119   -1.2334    1.4978 H   0  0  0  0  0  0  0  0  0  0  0  0
   -4.3709   -0.3818    2.6751 H   0  0  0  0  0  0  0  0  0  0  0  0
   -3.8862   -2.0106    1.9451 H   0  0  0  0  0  0  0  0  0  0  0  0
   -2.0080   -1.3136    2.3226 H   0  0  0  0  0  0  0  0  0  0  0  0
    0.4829   -1.1050    2.0734 H   0  0  0  0  0  0  0  0  0  0  0  0
    2.6175    0.0550    1.9516 H   0  0  0  0  0  0  0  0  0  0  0  0
    2.6228   -1.4767    1.0051 H   0  0  0  0  0  0  0  0  0  0  0  0
    4.0941    1.8561    1.4614 H   0  0  0  0  0  0  0  0  0  0  0  0
    6.2669    2.5036    0.6183 H   0  0  0  0  0  0  0  0  0  0  0  0
    4.2684   -1.7564   -0.7649 H   0  0  0  0  0  0  0  0  0  0  0  0
   -0.0523    1.0709   -1.5608 H   0  0  0  0  0  0  0  0  0  0  0  0
  1  2  1  0
  2  3  2  0
  3  4  1  0
  3  5  1  0
  5  6  2  0
  6  7  1  0
  7  8  2  0
  8  9  1  0
  9 10  1  0
 10 11  1  0
 11 12  2  0
 12 13  1  0
 13 14  2  0
 14 15  1  0
 14 16  1  0
 16 17  1  0
 16 18  2  0
  8 19  1  0
 19 20  2  0
 20 21  1  0
 21 22  1  0
 22 23  2  0
 22  2  1  0
 20  5  1  0
 18 11  1  0
  1 24  1  0
  1 25  1  0
  1 26  1  0
  4 27  1  0
  4 28  1  0
  4 29  1  0
  6 30  1  0
  7 31  1  0
 10 32  1  0
 10 33  1  0
 12 34  1  0
 13 35  1  0
 18 36  1  0
 19 37  1  0
M  END
$$$$
