
     RDKit          3D

 58 60  0  0  0  0  0  0  0  0999 V2000
   -7.0458    0.7241   -2.4332 C   0  0  0  0  0  0  0  0  0  0  0  0
   -5.9507    1.4435   -1.7988 N   0  0  0  0  0  0  0  0  0  0  0  0
   -6.2096    1.7125   -0.4193 C   0  0  0  0  0  0  0  0  0  0  0  0
   -5.1439    2.4413    0.3157 C   0  0  0  0  0  0  0  0  0  0  0  0
   -3.8600    1.7688    0.3637 N   0  0  0  0  0  0  0  0  0  0  0  0
   -3.2389    1.7357   -0.9567 C   0  0  0  0  0  0  0  0  0  0  0  0
   -4.0056    0.4222    0.8925 C   0  0  0  0  0  0  0  0  0  0  0  0
   -2.6615   -0.1781    1.0446 C   0  0  0  0  0  0  0  0  0  0  0  0
   -1.9476   -0.0287    2.2436 C   0  0  0  0  0  0  0  0  0  0  0  0
   -0.6964   -0.5772    2.4163 C   0  0  0  0  0  0  0  0  0  0  0  0
   -0.0855   -1.3007    1.4156 C   0  0  0  0  0  0  0  0  0  0  0  0
    1.2423   -1.8592    1.6526 C   0  0  0  0  0  0  0  0  0  0  0  0
    1.8127   -1.7296    2.7804 O   0  0  0  0  0  0  0  0  0  0  0  0
    1.9744   -2.5686    0.6650 N   0  0  0  0  0  0  0  0  0  0  0  0
    3.2716   -3.1061    0.9112 C   0  0  0  0  0  0  0  0  0  0  0  0
    3.4006   -4.3939    1.3823 C   0  0  0  0  0  0  0  0  0  0  0  0
    4.6551   -4.9033    1.6148 C   0  0  0  0  0  0  0  0  0  0  0  0
    5.7847   -4.1503    1.3871 C   0  0  0  0  0  0  0  0  0  0  0  0
    7.3778   -4.7821    1.6762 Cl  0  0  0  0  0  0  0  0  0  0  0  0
    5.6075   -2.8609    0.9141 C   0  0  0  0  0  0  0  0  0  0  0  0
    4.3770   -2.3115    0.6670 C   0  0  0  0  0  0  0  0  0  0  0  0
    4.1345   -0.9654    0.1759 C   0  0  0  0  0  0  0  0  0  0  0  0
    2.9811   -0.5211   -0.0298 O   0  0  0  0  0  0  0  0  0  0  0  0
    5.2133   -0.0635   -0.1044 N   0  0  0  0  0  0  0  0  0  0  0  0
    4.9492    1.2595   -0.5877 C   0  0  0  0  0  0  0  0  0  0  0  0
    4.8525    1.5659   -1.9241 C   0  0  0  0  0  0  0  0  0  0  0  0
    4.5976    2.8451   -2.3791 C   0  0  0  0  0  0  0  0  0  0  0  0
    4.4356    3.8432   -1.4639 C   0  0  0  0  0  0  0  0  0  0  0  0
    4.1072    5.4865   -1.9664 Cl  0  0  0  0  0  0  0  0  0  0  0  0
    4.5365    3.5159   -0.1115 C   0  0  0  0  0  0  0  0  0  0  0  0
    4.7879    2.2499    0.3048 N   0  0  0  0  0  0  0  0  0  0  0  0
   -0.7761   -1.4545    0.2328 C   0  0  0  0  0  0  0  0  0  0  0  0
   -2.0472   -0.8986    0.0548 C   0  0  0  0  0  0  0  0  0  0  0  0
   -6.8287    0.6725   -3.5113 H   0  0  0  0  0  0  0  0  0  0  0  0
   -7.9748    1.3095   -2.2991 H   0  0  0  0  0  0  0  0  0  0  0  0
   -7.1757   -0.2883   -1.9998 H   0  0  0  0  0  0  0  0  0  0  0  0
   -5.8580    2.3473   -2.3360 H   0  0  0  0  0  0  0  0  0  0  0  0
   -6.5303    0.7807    0.1223 H   0  0  0  0  0  0  0  0  0  0  0  0
   -7.1292    2.3651   -0.3826 H   0  0  0  0  0  0  0  0  0  0  0  0
   -5.4985    2.6207    1.3524 H   0  0  0  0  0  0  0  0  0  0  0  0
   -4.9434    3.4418   -0.1499 H   0  0  0  0  0  0  0  0  0  0  0  0
   -3.4368    2.6851   -1.5032 H   0  0  0  0  0  0  0  0  0  0  0  0
   -3.6821    0.9280   -1.5338 H   0  0  0  0  0  0  0  0  0  0  0  0
   -2.1468    1.5978   -0.8751 H   0  0  0  0  0  0  0  0  0  0  0  0
   -4.6707   -0.1778    0.2340 H   0  0  0  0  0  0  0  0  0  0  0  0
   -4.4968    0.4696    1.8918 H   0  0  0  0  0  0  0  0  0  0  0  0
   -2.4320    0.5383    3.0185 H   0  0  0  0  0  0  0  0  0  0  0  0
   -0.1842   -0.4332    3.3680 H   0  0  0  0  0  0  0  0  0  0  0  0
    1.5662   -2.7126   -0.2845 H   0  0  0  0  0  0  0  0  0  0  0  0
    2.5109   -4.9924    1.5652 H   0  0  0  0  0  0  0  0  0  0  0  0
    4.7893   -5.9100    1.9823 H   0  0  0  0  0  0  0  0  0  0  0  0
    6.4875   -2.2614    0.7320 H   0  0  0  0  0  0  0  0  0  0  0  0
    6.1754   -0.4143    0.0586 H   0  0  0  0  0  0  0  0  0  0  0  0
    4.9859    0.7517   -2.6212 H   0  0  0  0  0  0  0  0  0  0  0  0
    4.5262    3.0564   -3.4422 H   0  0  0  0  0  0  0  0  0  0  0  0
    4.3999    4.3368    0.5749 H   0  0  0  0  0  0  0  0  0  0  0  0
   -0.3200   -2.0196   -0.5720 H   0  0  0  0  0  0  0  0  0  0  0  0
   -2.5637   -1.0521   -0.9031 H   0  0  0  0  0  0  0  0  0  0  0  0
  1  2  1  0
  2  3  1  0
  3  4  1  0
  4  5  1  0
  5  6  1  0
  5  7  1  0
  7  8  1  0
  8  9  2  0
  9 10  1  0
 10 11  2  0
 11 12  1  0
 12 13  2  0
 12 14  1  0
 14 15  1  0
 15 16  2  0
 16 17  1  0
 17 18  2  0
 18 19  1  0
 18 20  1  0
 20 21  2  0
 21 22  1  0
 22 23  2  0
 22 24  1  0
 24 25  1  0
 25 26  2  0
 26 27  1  0
 27 28  2  0
 28 29  1  0
 28 30  1  0
 30 31  2  0
 11 32  1  0
 32 33  2  0
 33  8  1  0
 21 15  1  0
 31 25  1  0
  1 34  1  0
  1 35  1  0
  1 36  1  0
  2 37  1  0
  3 38  1  0
  3 39  1  0
  4 40  1  0
  4 41  1  0
  6 42  1  0
  6 43  1  0
  6 44  1  0
  7 45  1  0
  7 46  1  0
  9 47  1  0
 10 48  1  0
 14 49  1  0
 16 50  1  0
 17 51  1  0
 20 52  1  0
 24 53  1  0
 26 54  1  0
 27 55  1  0
 30 56  1  0
 32 57  1  0
 33 58  1  0
M  END
$$$$
