
     RDKit          3D

 64 67  0  0  0  0  0  0  0  0999 V2000
   -1.6642    2.4294    1.2213 C   0  0  0  0  0  0  0  0  0  0  0  0
   -2.0286    1.3932    1.7075 C   0  0  0  0  0  0  0  0  0  0  0  0
   -2.4665    0.1486    2.3187 C   0  0  0  0  0  0  0  0  0  0  0  0
   -1.6951   -0.0060    3.6662 C   0  0  0  0  0  0  0  0  0  0  0  0
   -3.9094    0.1181    2.7110 C   0  0  0  0  0  0  0  0  0  0  0  0
   -2.0605   -1.0244    1.5119 C   0  0  0  0  0  0  0  0  0  0  0  0
   -2.5440   -1.0955    0.0982 C   0  0  2  0  0  0  0  0  0  0  0  0
   -4.0139   -1.1111   -0.0663 C   0  0  0  0  0  0  0  0  0  0  0  0
   -4.7230    0.0437   -0.3090 C   0  0  0  0  0  0  0  0  0  0  0  0
   -6.0911   -0.0044   -0.4629 C   0  0  0  0  0  0  0  0  0  0  0  0
   -6.8183   -1.1780   -0.3860 C   0  0  0  0  0  0  0  0  0  0  0  0
   -6.1240   -2.3219   -0.1465 C   0  0  0  0  0  0  0  0  0  0  0  0
   -4.7569   -2.2960    0.0104 C   0  0  0  0  0  0  0  0  0  0  0  0
   -2.0495   -2.4158   -0.4653 C   0  0  0  0  0  0  0  0  0  0  0  0
   -0.5561   -2.4526   -0.6728 C   0  0  0  0  0  0  0  0  0  0  0  0
   -0.0123   -1.2972   -1.3125 N   0  0  0  0  0  0  0  0  0  0  0  0
    1.1542   -1.3406   -2.1682 C   0  0  1  0  0  0  0  0  0  0  0  0
    0.7718   -0.9219   -3.5662 C   0  0  0  0  0  0  0  0  0  0  0  0
    2.2548   -0.4804   -1.6315 C   0  0  0  0  0  0  0  0  0  0  0  0
    2.9859    0.3654   -2.4302 C   0  0  0  0  0  0  0  0  0  0  0  0
    4.0144    1.1694   -1.9484 C   0  0  0  0  0  0  0  0  0  0  0  0
    4.3396    1.1361   -0.5979 C   0  0  0  0  0  0  0  0  0  0  0  0
    5.4179    1.9705   -0.0571 C   0  0  0  0  0  0  0  0  0  0  0  0
    6.1304    1.4617    1.0377 C   0  0  0  0  0  0  0  0  0  0  0  0
    7.1428    2.2049    1.5747 C   0  0  0  0  0  0  0  0  0  0  0  0
    7.4302    3.4313    1.0217 C   0  0  0  0  0  0  0  0  0  0  0  0
    8.3728    4.1293    1.5177 O   0  0  0  0  0  0  0  0  0  0  0  0
    6.7270    3.8987   -0.0347 N   0  0  0  0  0  0  0  0  0  0  0  0
    5.7314    3.1849   -0.5747 C   0  0  0  0  0  0  0  0  0  0  0  0
    3.6040    0.2878    0.1961 C   0  0  0  0  0  0  0  0  0  0  0  0
    2.5874   -0.5048   -0.2898 C   0  0  0  0  0  0  0  0  0  0  0  0
   -0.6447   -0.0436   -1.0934 C   0  0  0  0  0  0  0  0  0  0  0  0
   -0.0633    1.0543   -1.2318 O   0  0  0  0  0  0  0  0  0  0  0  0
   -1.9762   -0.0688   -0.7067 O   0  0  0  0  0  0  0  0  0  0  0  0
   -1.3583    3.3384    0.8104 H   0  0  0  0  0  0  0  0  0  0  0  0
   -2.1641    0.6963    4.3609 H   0  0  0  0  0  0  0  0  0  0  0  0
   -0.6228    0.1920    3.4653 H   0  0  0  0  0  0  0  0  0  0  0  0
   -1.8188   -1.0520    3.9452 H   0  0  0  0  0  0  0  0  0  0  0  0
   -4.4145    1.0441    2.3418 H   0  0  0  0  0  0  0  0  0  0  0  0
   -4.4665   -0.7749    2.4297 H   0  0  0  0  0  0  0  0  0  0  0  0
   -4.0558    0.1859    3.8375 H   0  0  0  0  0  0  0  0  0  0  0  0
   -0.9439   -1.0412    1.4666 H   0  0  0  0  0  0  0  0  0  0  0  0
   -2.3919   -2.0001    1.9894 H   0  0  0  0  0  0  0  0  0  0  0  0
   -4.2262    1.0219   -0.3875 H   0  0  0  0  0  0  0  0  0  0  0  0
   -6.6491    0.9069   -0.6546 H   0  0  0  0  0  0  0  0  0  0  0  0
   -7.8791   -1.2319   -0.5024 H   0  0  0  0  0  0  0  0  0  0  0  0
   -6.6593   -3.2770   -0.0779 H   0  0  0  0  0  0  0  0  0  0  0  0
   -4.2761   -3.2326    0.1969 H   0  0  0  0  0  0  0  0  0  0  0  0
   -2.5336   -2.5963   -1.4336 H   0  0  0  0  0  0  0  0  0  0  0  0
   -2.2546   -3.2379    0.2830 H   0  0  0  0  0  0  0  0  0  0  0  0
   -0.0585   -2.6026    0.3301 H   0  0  0  0  0  0  0  0  0  0  0  0
   -0.3616   -3.3972   -1.2582 H   0  0  0  0  0  0  0  0  0  0  0  0
    1.4776   -2.4072   -2.2157 H   0  0  0  0  0  0  0  0  0  0  0  0
   -0.1912   -1.3833   -3.8851 H   0  0  0  0  0  0  0  0  0  0  0  0
    0.7607    0.1805   -3.6903 H   0  0  0  0  0  0  0  0  0  0  0  0
    1.5430   -1.3108   -4.2626 H   0  0  0  0  0  0  0  0  0  0  0  0
    2.7670    0.4273   -3.5070 H   0  0  0  0  0  0  0  0  0  0  0  0
    4.5895    1.8333   -2.5702 H   0  0  0  0  0  0  0  0  0  0  0  0
    5.8795    0.4966    1.4456 H   0  0  0  0  0  0  0  0  0  0  0  0
    7.7120    1.8220    2.4315 H   0  0  0  0  0  0  0  0  0  0  0  0
    7.0160    4.8428   -0.3904 H   0  0  0  0  0  0  0  0  0  0  0  0
    5.1805    3.5681   -1.4154 H   0  0  0  0  0  0  0  0  0  0  0  0
    3.8618    0.2613    1.2666 H   0  0  0  0  0  0  0  0  0  0  0  0
    2.0715   -1.1368    0.4192 H   0  0  0  0  0  0  0  0  0  0  0  0
  1  2  3  0
  2  3  1  0
  3  4  1  0
  3  5  1  0
  3  6  1  0
  7  6  1  1
  7  8  1  0
  8  9  2  0
  9 10  1  0
 10 11  2  0
 11 12  1  0
 12 13  2  0
  7 14  1  0
 14 15  1  0
 15 16  1  0
 16 17  1  0
 17 18  1  0
 17 19  1  0
 19 20  2  0
 20 21  1  0
 21 22  2  0
 22 23  1  0
 23 24  1  0
 24 25  2  0
 25 26  1  0
 26 27  2  0
 26 28  1  0
 28 29  1  0
 22 30  1  0
 30 31  2  0
 16 32  1  0
 32 33  2  0
 32 34  1  0
 34  7  1  0
 13  8  1  0
 31 19  1  0
 29 23  2  0
  1 35  1  0
  4 36  1  0
  4 37  1  0
  4 38  1  0
  5 39  1  0
  5 40  1  0
  5 41  1  0
  6 42  1  0
  6 43  1  0
  9 44  1  0
 10 45  1  0
 11 46  1  0
 12 47  1  0
 13 48  1  0
 14 49  1  0
 14 50  1  0
 15 51  1  0
 15 52  1  0
 17 53  1  6
 18 54  1  0
 18 55  1  0
 18 56  1  0
 20 57  1  0
 21 58  1  0
 24 59  1  0
 25 60  1  0
 28 61  1  0
 29 62  1  0
 30 63  1  0
 31 64  1  0
M  END
$$$$
