
     RDKit          3D

 47 51  0  0  0  0  0  0  0  0999 V2000
    2.4893   -2.0668   -2.3556 C   0  0  0  0  0  0  0  0  0  0  0  0
    1.1803   -1.6374   -1.8256 C   0  0  0  0  0  0  0  0  0  0  0  0
    0.0295   -2.3015   -2.2462 C   0  0  0  0  0  0  0  0  0  0  0  0
   -1.1942   -1.8997   -1.7503 C   0  0  0  0  0  0  0  0  0  0  0  0
   -1.2409   -0.8798   -0.8765 N   0  0  0  0  0  0  0  0  0  0  0  0
   -2.5106   -0.4862   -0.3819 C   0  0  0  0  0  0  0  0  0  0  0  0
   -2.9168    0.8379   -0.4590 C   0  0  0  0  0  0  0  0  0  0  0  0
   -4.1613    1.1309    0.0441 C   0  0  0  0  0  0  0  0  0  0  0  0
   -4.9952    0.1777    0.6070 C   0  0  0  0  0  0  0  0  0  0  0  0
   -6.3112    0.5232    1.1321 C   0  0  0  0  0  0  0  0  0  0  0  0
   -7.1714   -0.3445    1.6901 N   0  0  0  0  0  0  0  0  0  0  0  0
   -8.2896    0.3013    2.0670 C   0  0  0  0  0  0  0  0  0  0  0  0
   -8.0838    1.6171    1.7158 C   0  0  0  0  0  0  0  0  0  0  0  0
   -6.8916    1.7061    1.1612 O   0  0  0  0  0  0  0  0  0  0  0  0
   -4.5407   -1.1092    0.6551 C   0  0  0  0  0  0  0  0  0  0  0  0
   -3.3084   -1.4687    0.1706 C   0  0  0  0  0  0  0  0  0  0  0  0
   -0.1096   -0.2274   -0.4634 C   0  0  0  0  0  0  0  0  0  0  0  0
   -0.1849    0.7206    0.3529 O   0  0  0  0  0  0  0  0  0  0  0  0
    1.1277   -0.5996   -0.9358 C   0  0  0  0  0  0  0  0  0  0  0  0
    2.3793    0.0436   -0.5456 C   0  0  0  0  0  0  0  0  0  0  0  0
    2.8537    1.1208   -1.2721 C   0  0  0  0  0  0  0  0  0  0  0  0
    4.0140    1.7482   -0.9431 C   0  0  0  0  0  0  0  0  0  0  0  0
    4.7530    1.3177    0.1375 C   0  0  0  0  0  0  0  0  0  0  0  0
    5.8862    1.9117    0.4785 N   0  0  0  0  0  0  0  0  0  0  0  0
    6.5939    1.4868    1.5267 C   0  0  0  0  0  0  0  0  0  0  0  0
    7.8005    2.1258    1.8830 N   0  0  0  0  0  0  0  0  0  0  0  0
    6.1588    0.4499    2.2445 N   0  0  0  0  0  0  0  0  0  0  0  0
    5.0187   -0.1992    1.9554 C   0  0  0  0  0  0  0  0  0  0  0  0
    4.2874    0.2449    0.8670 C   0  0  0  0  0  0  0  0  0  0  0  0
    3.1130   -0.3853    0.5289 C   0  0  0  0  0  0  0  0  0  0  0  0
    2.8672   -2.9167   -1.7267 H   0  0  0  0  0  0  0  0  0  0  0  0
    2.3976   -2.4854   -3.3885 H   0  0  0  0  0  0  0  0  0  0  0  0
    3.2277   -1.2453   -2.4224 H   0  0  0  0  0  0  0  0  0  0  0  0
    0.0961   -3.1149   -2.9468 H   0  0  0  0  0  0  0  0  0  0  0  0
   -2.0895   -2.4222   -2.0825 H   0  0  0  0  0  0  0  0  0  0  0  0
   -2.2978    1.6080   -0.8891 H   0  0  0  0  0  0  0  0  0  0  0  0
   -4.5419    2.1451    0.0164 H   0  0  0  0  0  0  0  0  0  0  0  0
   -9.1823   -0.0527    2.5387 H   0  0  0  0  0  0  0  0  0  0  0  0
   -8.7206    2.4753    1.8341 H   0  0  0  0  0  0  0  0  0  0  0  0
   -5.1569   -1.8967    1.0874 H   0  0  0  0  0  0  0  0  0  0  0  0
   -2.9625   -2.4848    0.2143 H   0  0  0  0  0  0  0  0  0  0  0  0
    2.2880    1.4725   -2.1228 H   0  0  0  0  0  0  0  0  0  0  0  0
    4.4067    2.5907   -1.4930 H   0  0  0  0  0  0  0  0  0  0  0  0
    8.1703    2.1185    2.8767 H   0  0  0  0  0  0  0  0  0  0  0  0
    8.3352    2.6187    1.1280 H   0  0  0  0  0  0  0  0  0  0  0  0
    4.6487   -1.0410    2.5239 H   0  0  0  0  0  0  0  0  0  0  0  0
    2.7389   -1.2281    1.0948 H   0  0  0  0  0  0  0  0  0  0  0  0
  1  2  1  0
  2  3  1  0
  3  4  2  0
  4  5  1  0
  5  6  1  0
  6  7  2  0
  7  8  1  0
  8  9  2  0
  9 10  1  0
 10 11  2  0
 11 12  1  0
 12 13  2  0
 13 14  1  0
  9 15  1  0
 15 16  2  0
  5 17  1  0
 17 18  2  0
 17 19  1  0
 19 20  1  0
 20 21  2  0
 21 22  1  0
 22 23  2  0
 23 24  1  0
 24 25  2  0
 25 26  1  0
 25 27  1  0
 27 28  2  0
 28 29  1  0
 29 30  2  0
 19  2  2  0
 30 20  1  0
 16  6  1  0
 29 23  1  0
 14 10  1  0
  1 31  1  0
  1 32  1  0
  1 33  1  0
  3 34  1  0
  4 35  1  0
  7 36  1  0
  8 37  1  0
 12 38  1  0
 13 39  1  0
 15 40  1  0
 16 41  1  0
 21 42  1  0
 22 43  1  0
 26 44  1  0
 26 45  1  0
 28 46  1  0
 30 47  1  0
M  END
$$$$
