
     RDKit          3D

 52 56  0  0  0  0  0  0  0  0999 V2000
    0.2739    3.1525    0.7644 C   0  0  0  0  0  0  0  0  0  0  0  0
    1.4008    2.2548    0.4062 C   0  0  0  0  0  0  0  0  0  0  0  0
    2.7158    2.6431    0.5888 C   0  0  0  0  0  0  0  0  0  0  0  0
    3.7417    1.7586    0.2345 C   0  0  0  0  0  0  0  0  0  0  0  0
    3.5017    0.5078   -0.2923 C   0  0  0  0  0  0  0  0  0  0  0  0
    4.5550   -0.4275   -0.6674 C   0  0  0  0  0  0  0  0  0  0  0  0
    4.2148   -1.5297   -1.1335 O   0  0  0  0  0  0  0  0  0  0  0  0
    5.9171   -0.1542   -0.5323 N   0  0  0  0  0  0  0  0  0  0  0  0
    6.9886   -1.0456   -0.8888 C   0  0  0  0  0  0  0  0  0  0  0  0
    8.3401   -0.6200   -1.2101 C   0  0  0  0  0  0  0  0  0  0  0  0
    8.0563   -1.1701    0.1924 C   0  0  0  0  0  0  0  0  0  0  0  0
    2.1597    0.1618   -0.4576 C   0  0  0  0  0  0  0  0  0  0  0  0
    1.1311    1.0076   -0.1196 C   0  0  0  0  0  0  0  0  0  0  0  0
   -0.2742    0.6422   -0.2940 C   0  0  0  0  0  0  0  0  0  0  0  0
   -0.9668    0.9069   -1.4559 C   0  0  0  0  0  0  0  0  0  0  0  0
   -2.2975    0.5696   -1.6419 C   0  0  0  0  0  0  0  0  0  0  0  0
   -3.1691    0.7307   -2.6882 C   0  0  0  0  0  0  0  0  0  0  0  0
   -4.3397    0.2151   -2.3230 N   0  0  0  0  0  0  0  0  0  0  0  0
   -4.2147   -0.2625   -1.0735 N   0  0  0  0  0  0  0  0  0  0  0  0
   -5.2995   -0.8798   -0.4000 C   0  0  0  0  0  0  0  0  0  0  0  0
   -5.9890   -0.2010    0.5717 C   0  0  0  0  0  0  0  0  0  0  0  0
   -5.6198    1.0642    0.9015 F   0  0  0  0  0  0  0  0  0  0  0  0
   -7.0696   -0.8184    1.2142 C   0  0  0  0  0  0  0  0  0  0  0  0
   -7.4440   -2.1022    0.8765 C   0  0  0  0  0  0  0  0  0  0  0  0
   -6.7382   -2.7712   -0.1047 C   0  0  0  0  0  0  0  0  0  0  0  0
   -5.6565   -2.1635   -0.7532 C   0  0  0  0  0  0  0  0  0  0  0  0
   -4.9521   -2.8022   -1.7173 F   0  0  0  0  0  0  0  0  0  0  0  0
   -2.9628   -0.0600   -0.6202 C   0  0  0  0  0  0  0  0  0  0  0  0
   -2.3131   -0.3353    0.5350 N   0  0  0  0  0  0  0  0  0  0  0  0
   -3.0309   -0.9964    1.5964 C   0  0  0  0  0  0  0  0  0  0  0  0
   -0.9972    0.0085    0.6943 C   0  0  0  0  0  0  0  0  0  0  0  0
   -0.4252   -0.2644    1.7851 O   0  0  0  0  0  0  0  0  0  0  0  0
   -0.6389    2.6018    1.0175 H   0  0  0  0  0  0  0  0  0  0  0  0
    0.0723    3.8917   -0.0463 H   0  0  0  0  0  0  0  0  0  0  0  0
    0.5231    3.7798    1.6640 H   0  0  0  0  0  0  0  0  0  0  0  0
    2.9650    3.6120    0.9978 H   0  0  0  0  0  0  0  0  0  0  0  0
    4.7858    2.0615    0.3772 H   0  0  0  0  0  0  0  0  0  0  0  0
    6.2042    0.7697   -0.1415 H   0  0  0  0  0  0  0  0  0  0  0  0
    6.6481   -2.0188   -1.3010 H   0  0  0  0  0  0  0  0  0  0  0  0
    8.6947    0.4231   -1.1951 H   0  0  0  0  0  0  0  0  0  0  0  0
    8.9622   -1.2829   -1.8350 H   0  0  0  0  0  0  0  0  0  0  0  0
    8.4528   -2.1670    0.4424 H   0  0  0  0  0  0  0  0  0  0  0  0
    8.0443   -0.4617    1.0379 H   0  0  0  0  0  0  0  0  0  0  0  0
    1.9179   -0.8028   -0.8647 H   0  0  0  0  0  0  0  0  0  0  0  0
   -0.4652    1.3985   -2.2671 H   0  0  0  0  0  0  0  0  0  0  0  0
   -2.9227    1.2045   -3.6487 H   0  0  0  0  0  0  0  0  0  0  0  0
   -7.6051   -0.2643    1.9830 H   0  0  0  0  0  0  0  0  0  0  0  0
   -8.2809   -2.5682    1.3805 H   0  0  0  0  0  0  0  0  0  0  0  0
   -7.0256   -3.7771   -0.3746 H   0  0  0  0  0  0  0  0  0  0  0  0
   -3.6066   -0.2206    2.1473 H   0  0  0  0  0  0  0  0  0  0  0  0
   -2.2734   -1.3920    2.3314 H   0  0  0  0  0  0  0  0  0  0  0  0
   -3.6884   -1.8066    1.2457 H   0  0  0  0  0  0  0  0  0  0  0  0
  1  2  1  0
  2  3  2  0
  3  4  1  0
  4  5  2  0
  5  6  1  0
  6  7  2  0
  6  8  1  0
  8  9  1  0
  9 10  1  0
 10 11  1  0
  5 12  1  0
 12 13  2  0
 13 14  1  0
 14 15  2  0
 15 16  1  0
 16 17  1  0
 17 18  2  0
 18 19  1  0
 19 20  1  0
 20 21  2  0
 21 22  1  0
 21 23  1  0
 23 24  2  0
 24 25  1  0
 25 26  2  0
 26 27  1  0
 19 28  1  0
 28 29  1  0
 29 30  1  0
 29 31  1  0
 31 32  2  0
 13  2  1  0
 31 14  1  0
 11  9  1  0
 28 16  2  0
 26 20  1  0
  1 33  1  0
  1 34  1  0
  1 35  1  0
  3 36  1  0
  4 37  1  0
  8 38  1  0
  9 39  1  0
 10 40  1  0
 10 41  1  0
 11 42  1  0
 11 43  1  0
 12 44  1  0
 15 45  1  0
 17 46  1  0
 23 47  1  0
 24 48  1  0
 25 49  1  0
 30 50  1  0
 30 51  1  0
 30 52  1  0
M  END
$$$$
