
     RDKit          3D

 48 49  0  0  0  0  0  0  0  0999 V2000
   -4.7810    2.1649   -1.6999 C   0  0  0  0  0  0  0  0  0  0  0  0
   -4.4256    1.3854   -0.6093 O   0  0  0  0  0  0  0  0  0  0  0  0
   -3.2284    0.8040   -0.3178 C   0  0  0  0  0  0  0  0  0  0  0  0
   -2.1239    0.9210   -1.1295 C   0  0  0  0  0  0  0  0  0  0  0  0
   -0.9341    0.3075   -0.7813 C   0  0  0  0  0  0  0  0  0  0  0  0
   -0.8688   -0.4209    0.3865 C   0  0  0  0  0  0  0  0  0  0  0  0
    0.3458   -1.0469    0.7340 N   0  0  0  0  0  0  0  0  0  0  0  0
    1.4324   -1.0694   -0.1835 C   0  0  0  0  0  0  0  0  0  0  0  0
    2.5802   -0.3730    0.1462 C   0  0  0  0  0  0  0  0  0  0  0  0
    3.6498   -0.3592   -0.6907 C   0  0  0  0  0  0  0  0  0  0  0  0
    4.8194    0.3558   -0.3423 N   0  0  0  0  0  0  0  0  0  0  0  0
    5.8700   -0.3043    0.4047 C   0  0  0  0  0  0  0  0  0  0  0  0
    7.0039    0.6411    0.6491 C   0  0  0  0  0  0  0  0  0  0  0  0
    6.6415    1.8060    1.3916 N   0  0  0  0  0  0  0  0  0  0  0  0
    3.5699   -1.0349   -1.8443 N   0  0  0  0  0  0  0  0  0  0  0  0
    2.4799   -1.7087   -2.1772 N   0  0  0  0  0  0  0  0  0  0  0  0
    1.3859   -1.7517   -1.3699 C   0  0  0  0  0  0  0  0  0  0  0  0
    0.2299   -2.5664   -1.7405 C   0  0  0  0  0  0  0  0  0  0  0  0
    0.2271   -3.1558   -3.0452 N   0  0  0  0  0  0  0  0  0  0  0  0
   -0.7526   -2.7917   -1.0197 O   0  0  0  0  0  0  0  0  0  0  0  0
   -1.9781   -0.5056    1.1476 N   0  0  0  0  0  0  0  0  0  0  0  0
   -3.1516    0.0699    0.8530 C   0  0  0  0  0  0  0  0  0  0  0  0
   -4.2995   -0.1012    1.7786 C   0  0  0  0  0  0  0  0  0  0  0  0
   -4.2994    1.0058    2.8030 C   0  0  0  0  0  0  0  0  0  0  0  0
   -5.6170   -0.1578    1.0399 C   0  0  0  0  0  0  0  0  0  0  0  0
   -4.0109    2.1962   -2.4692 H   0  0  0  0  0  0  0  0  0  0  0  0
   -4.9511    3.2154   -1.3391 H   0  0  0  0  0  0  0  0  0  0  0  0
   -5.7035    1.7770   -2.1774 H   0  0  0  0  0  0  0  0  0  0  0  0
   -2.1626    1.4976   -2.0600 H   0  0  0  0  0  0  0  0  0  0  0  0
   -0.0920    0.4265   -1.4498 H   0  0  0  0  0  0  0  0  0  0  0  0
    0.4763   -1.5016    1.6576 H   0  0  0  0  0  0  0  0  0  0  0  0
    2.6093    0.1693    1.0988 H   0  0  0  0  0  0  0  0  0  0  0  0
    4.8934    1.3500   -0.6366 H   0  0  0  0  0  0  0  0  0  0  0  0
    5.4143   -0.6019    1.3792 H   0  0  0  0  0  0  0  0  0  0  0  0
    6.2440   -1.2001   -0.1107 H   0  0  0  0  0  0  0  0  0  0  0  0
    7.3622    0.9858   -0.3624 H   0  0  0  0  0  0  0  0  0  0  0  0
    7.8470    0.0875    1.1485 H   0  0  0  0  0  0  0  0  0  0  0  0
    5.6561    2.0785    1.3477 H   0  0  0  0  0  0  0  0  0  0  0  0
    7.1282    1.9452    2.2810 H   0  0  0  0  0  0  0  0  0  0  0  0
    1.0614   -3.6938   -3.3381 H   0  0  0  0  0  0  0  0  0  0  0  0
   -0.6106   -3.0178   -3.6389 H   0  0  0  0  0  0  0  0  0  0  0  0
   -4.1702   -1.0765    2.2861 H   0  0  0  0  0  0  0  0  0  0  0  0
   -4.9761    1.8344    2.5545 H   0  0  0  0  0  0  0  0  0  0  0  0
   -4.6114    0.6259    3.8131 H   0  0  0  0  0  0  0  0  0  0  0  0
   -3.2471    1.3761    2.9708 H   0  0  0  0  0  0  0  0  0  0  0  0
   -5.5191   -0.6117    0.0493 H   0  0  0  0  0  0  0  0  0  0  0  0
   -6.1013    0.8439    0.9899 H   0  0  0  0  0  0  0  0  0  0  0  0
   -6.3120   -0.8200    1.6228 H   0  0  0  0  0  0  0  0  0  0  0  0
  1  2  1  0
  2  3  1  0
  3  4  2  0
  4  5  1  0
  5  6  2  0
  6  7  1  0
  7  8  1  0
  8  9  2  0
  9 10  1  0
 10 11  1  0
 11 12  1  0
 12 13  1  0
 13 14  1  0
 10 15  2  0
 15 16  1  0
 16 17  2  0
 17 18  1  0
 18 19  1  0
 18 20  2  0
  6 21  1  0
 21 22  2  0
 22 23  1  0
 23 24  1  0
 23 25  1  0
 22  3  1  0
 17  8  1  0
  1 26  1  0
  1 27  1  0
  1 28  1  0
  4 29  1  0
  5 30  1  0
  7 31  1  0
  9 32  1  0
 11 33  1  0
 12 34  1  0
 12 35  1  0
 13 36  1  0
 13 37  1  0
 14 38  1  0
 14 39  1  0
 19 40  1  0
 19 41  1  0
 23 42  1  0
 24 43  1  0
 24 44  1  0
 24 45  1  0
 25 46  1  0
 25 47  1  0
 25 48  1  0
M  END
$$$$
