
     RDKit          3D

 64 69  0  0  0  0  0  0  0  0999 V2000
    5.4626    1.0968    0.3579 O   0  0  0  0  0  0  0  0  0  0  0  0
    5.7649   -0.0999    0.5044 C   0  0  0  0  0  0  0  0  0  0  0  0
    7.1416   -0.4317    0.6750 N   0  0  0  0  0  0  0  0  0  0  0  0
    8.2255    0.4708    0.6966 C   0  0  0  0  0  0  0  0  0  0  0  0
    9.5088   -0.0651    0.8792 C   0  0  0  0  0  0  0  0  0  0  0  0
   10.6442    0.7043    0.9190 C   0  0  0  0  0  0  0  0  0  0  0  0
   10.5557    2.0272    0.7805 N   0  0  0  0  0  0  0  0  0  0  0  0
    9.3505    2.5908    0.6031 C   0  0  0  0  0  0  0  0  0  0  0  0
    8.1791    1.8212    0.5596 C   0  0  0  0  0  0  0  0  0  0  0  0
    4.7724   -1.1179    0.5034 N   0  0  0  0  0  0  0  0  0  0  0  0
    3.3891   -0.9025    0.3438 C   0  0  0  0  0  0  0  0  0  0  0  0
    2.7587    0.2885    0.1649 C   0  0  0  0  0  0  0  0  0  0  0  0
    1.3805    0.4172    0.0146 C   0  0  0  0  0  0  0  0  0  0  0  0
    0.6004   -0.6858    0.0440 C   0  0  0  0  0  0  0  0  0  0  0  0
   -0.8516   -0.6574   -0.1038 C   0  0  0  0  0  0  0  0  0  0  0  0
   -1.6273   -1.7576   -0.0747 N   0  0  0  0  0  0  0  0  0  0  0  0
   -2.9515   -1.7122   -0.2112 C   0  0  0  0  0  0  0  0  0  0  0  0
   -3.7655   -2.8661   -0.1810 N   0  0  0  0  0  0  0  0  0  0  0  0
   -3.1357   -4.1821    0.0102 C   0  0  0  0  0  0  0  0  0  0  0  0
   -4.1282   -4.9977    0.8202 C   0  0  0  0  0  0  0  0  0  0  0  0
   -4.8135   -4.1285    1.6599 O   0  0  0  0  0  0  0  0  0  0  0  0
   -5.7834   -3.3871    0.9820 C   0  0  0  0  0  0  0  0  0  0  0  0
   -5.1891   -2.8576   -0.3252 C   0  0  0  0  0  0  0  0  0  0  0  0
   -3.5347   -0.5184   -0.3849 N   0  0  0  0  0  0  0  0  0  0  0  0
   -2.8108    0.6201   -0.4228 C   0  0  0  0  0  0  0  0  0  0  0  0
   -3.4206    1.8750   -0.6048 N   0  0  0  0  0  0  0  0  0  0  0  0
   -4.8229    2.1704   -0.7679 C   0  0  0  0  0  0  0  0  0  0  0  0
   -4.9758    3.3289    0.2126 C   0  0  0  0  0  0  0  0  0  0  0  0
   -3.5927    3.9653    0.2951 C   0  0  0  0  0  0  0  0  0  0  0  0
   -2.7446    3.1472   -0.6658 C   0  0  0  0  0  0  0  0  0  0  0  0
   -2.9055    3.6623   -2.0812 C   0  0  0  0  0  0  0  0  0  0  0  0
   -4.2261    3.7557   -2.4650 O   0  0  0  0  0  0  0  0  0  0  0  0
   -4.9955    2.6496   -2.1940 C   0  0  0  0  0  0  0  0  0  0  0  0
   -1.4796    0.5140   -0.2798 N   0  0  0  0  0  0  0  0  0  0  0  0
    1.1982   -1.9295    0.2248 C   0  0  0  0  0  0  0  0  0  0  0  0
    2.5593   -2.0378    0.3713 C   0  0  0  0  0  0  0  0  0  0  0  0
    7.3805   -1.4598    0.7985 H   0  0  0  0  0  0  0  0  0  0  0  0
    9.6596   -1.1412    0.9998 H   0  0  0  0  0  0  0  0  0  0  0  0
   11.6338    0.2760    1.0613 H   0  0  0  0  0  0  0  0  0  0  0  0
    9.2808    3.6643    0.4909 H   0  0  0  0  0  0  0  0  0  0  0  0
    7.2334    2.3112    0.4158 H   0  0  0  0  0  0  0  0  0  0  0  0
    5.1495   -2.1124    0.6375 H   0  0  0  0  0  0  0  0  0  0  0  0
    3.3387    1.2115    0.1330 H   0  0  0  0  0  0  0  0  0  0  0  0
    0.9138    1.3836   -0.1261 H   0  0  0  0  0  0  0  0  0  0  0  0
   -2.1951   -4.0799    0.5932 H   0  0  0  0  0  0  0  0  0  0  0  0
   -2.8835   -4.6617   -0.9401 H   0  0  0  0  0  0  0  0  0  0  0  0
   -4.8118   -5.5500    0.1525 H   0  0  0  0  0  0  0  0  0  0  0  0
   -3.5313   -5.6703    1.4740 H   0  0  0  0  0  0  0  0  0  0  0  0
   -6.0241   -2.4963    1.5969 H   0  0  0  0  0  0  0  0  0  0  0  0
   -6.6929   -3.9782    0.8041 H   0  0  0  0  0  0  0  0  0  0  0  0
   -5.4937   -3.5608   -1.1548 H   0  0  0  0  0  0  0  0  0  0  0  0
   -5.5545   -1.8555   -0.5714 H   0  0  0  0  0  0  0  0  0  0  0  0
   -5.4935    1.3412   -0.5633 H   0  0  0  0  0  0  0  0  0  0  0  0
   -5.7201    4.0348   -0.1760 H   0  0  0  0  0  0  0  0  0  0  0  0
   -5.3059    2.9471    1.1892 H   0  0  0  0  0  0  0  0  0  0  0  0
   -3.6202    5.0352    0.0236 H   0  0  0  0  0  0  0  0  0  0  0  0
   -3.1650    3.8485    1.2970 H   0  0  0  0  0  0  0  0  0  0  0  0
   -1.6905    3.1198   -0.4070 H   0  0  0  0  0  0  0  0  0  0  0  0
   -2.2988    3.0130   -2.7301 H   0  0  0  0  0  0  0  0  0  0  0  0
   -2.4638    4.6792   -2.1200 H   0  0  0  0  0  0  0  0  0  0  0  0
   -4.8392    1.7967   -2.8519 H   0  0  0  0  0  0  0  0  0  0  0  0
   -6.0668    2.9589   -2.2903 H   0  0  0  0  0  0  0  0  0  0  0  0
    0.5463   -2.8174    0.2461 H   0  0  0  0  0  0  0  0  0  0  0  0
    2.9771   -3.0082    0.5075 H   0  0  0  0  0  0  0  0  0  0  0  0
  1  2  2  0
  2  3  1  0
  3  4  1  0
  4  5  2  0
  5  6  1  0
  6  7  2  0
  7  8  1  0
  8  9  2  0
  2 10  1  0
 10 11  1  0
 11 12  2  0
 12 13  1  0
 13 14  2  0
 14 15  1  0
 15 16  2  0
 16 17  1  0
 17 18  1  0
 18 19  1  0
 19 20  1  0
 20 21  1  0
 21 22  1  0
 22 23  1  0
 17 24  2  0
 24 25  1  0
 25 26  1  0
 26 27  1  0
 27 28  1  0
 28 29  1  0
 29 30  1  0
 30 31  1  0
 31 32  1  0
 32 33  1  0
 25 34  2  0
 14 35  1  0
 35 36  2  0
  9  4  1  0
 36 11  1  0
 34 15  1  0
 23 18  1  0
 30 26  1  0
 33 27  1  0
  3 37  1  0
  5 38  1  0
  6 39  1  0
  8 40  1  0
  9 41  1  0
 10 42  1  0
 12 43  1  0
 13 44  1  0
 19 45  1  0
 19 46  1  0
 20 47  1  0
 20 48  1  0
 22 49  1  0
 22 50  1  0
 23 51  1  0
 23 52  1  0
 27 53  1  0
 28 54  1  0
 28 55  1  0
 29 56  1  0
 29 57  1  0
 30 58  1  0
 31 59  1  0
 31 60  1  0
 33 61  1  0
 33 62  1  0
 35 63  1  0
 36 64  1  0
M  END
$$$$
