
     RDKit          3D

 56 60  0  0  0  0  0  0  0  0999 V2000
   -3.7022    1.6283    4.2357 C   0  0  0  0  0  0  0  0  0  0  0  0
   -3.4220    1.3992    2.7772 C   0  0  0  0  0  0  0  0  0  0  0  0
   -3.2867    2.4383    1.9029 C   0  0  0  0  0  0  0  0  0  0  0  0
   -3.0304    2.1706    0.5782 C   0  0  0  0  0  0  0  0  0  0  0  0
   -2.9029    0.8964    0.0874 C   0  0  0  0  0  0  0  0  0  0  0  0
   -2.6551    0.6952   -1.3215 C   0  0  0  0  0  0  0  0  0  0  0  0
   -3.7728    0.6241   -2.0044 O   0  0  0  0  0  0  0  0  0  0  0  0
   -1.4386    0.5772   -1.9858 N   0  0  0  0  0  0  0  0  0  0  0  0
   -1.4578    0.3845   -3.4323 C   0  0  0  0  0  0  0  0  0  0  0  0
   -0.1857    1.1156   -3.8978 C   0  0  0  0  0  0  0  0  0  0  0  0
    0.0538    2.2408   -3.1198 O   0  0  0  0  0  0  0  0  0  0  0  0
    0.4654    1.9537   -1.8224 C   0  0  0  0  0  0  0  0  0  0  0  0
   -0.1504    0.6207   -1.4078 C   0  0  1  0  0  0  0  0  0  0  0  0
    0.0030    0.3451    0.0382 C   0  0  0  0  0  0  0  0  0  0  0  0
    1.4878    0.4542    0.3221 C   0  0  0  0  0  0  0  0  0  0  0  0
    1.9793    1.6777    0.6822 C   0  0  0  0  0  0  0  0  0  0  0  0
    3.3325    1.8280    0.9513 C   0  0  0  0  0  0  0  0  0  0  0  0
    4.1290    0.7170    0.8404 C   0  0  0  0  0  0  0  0  0  0  0  0
    3.6514   -0.5270    0.4781 C   0  0  0  0  0  0  0  0  0  0  0  0
    4.5431   -1.6441    0.3823 N   0  0  0  0  0  0  0  0  0  0  0  0
    5.7822   -1.5832   -0.1175 C   0  0  0  0  0  0  0  0  0  0  0  0
    6.3518   -2.8399   -0.0552 C   0  0  0  0  0  0  0  0  0  0  0  0
    5.3902   -3.6588    0.5082 C   0  0  0  0  0  0  0  0  0  0  0  0
    4.3190   -2.8827    0.7519 N   0  0  0  0  0  0  0  0  0  0  0  0
    2.3080   -0.6401    0.2191 C   0  0  0  0  0  0  0  0  0  0  0  0
   -3.0349   -0.1665    0.9468 C   0  0  0  0  0  0  0  0  0  0  0  0
   -2.9202   -1.5208    0.5224 N   0  0  0  0  0  0  0  0  0  0  0  0
   -2.2414   -2.4960    1.1034 N   0  0  0  0  0  0  0  0  0  0  0  0
   -2.4163   -3.6005    0.3580 C   0  0  0  0  0  0  0  0  0  0  0  0
   -3.2280   -3.2867   -0.7113 C   0  0  0  0  0  0  0  0  0  0  0  0
   -3.5208   -1.9835   -0.5741 N   0  0  0  0  0  0  0  0  0  0  0  0
   -3.2965    0.1043    2.2999 C   0  0  0  0  0  0  0  0  0  0  0  0
   -4.3124    0.7635    4.5991 H   0  0  0  0  0  0  0  0  0  0  0  0
   -4.2747    2.5607    4.4007 H   0  0  0  0  0  0  0  0  0  0  0  0
   -2.7654    1.6365    4.8290 H   0  0  0  0  0  0  0  0  0  0  0  0
   -3.3832    3.4437    2.2686 H   0  0  0  0  0  0  0  0  0  0  0  0
   -2.9258    2.9964   -0.1010 H   0  0  0  0  0  0  0  0  0  0  0  0
   -2.3449    0.8129   -3.8969 H   0  0  0  0  0  0  0  0  0  0  0  0
   -1.2911   -0.6909   -3.6601 H   0  0  0  0  0  0  0  0  0  0  0  0
    0.6732    0.4309   -3.9528 H   0  0  0  0  0  0  0  0  0  0  0  0
   -0.3989    1.4823   -4.9218 H   0  0  0  0  0  0  0  0  0  0  0  0
    1.5676    1.9397   -1.7294 H   0  0  0  0  0  0  0  0  0  0  0  0
    0.0074    2.7266   -1.1728 H   0  0  0  0  0  0  0  0  0  0  0  0
    0.5361   -0.1386   -1.9277 H   0  0  0  0  0  0  0  0  0  0  0  0
   -0.2622   -0.7250    0.2151 H   0  0  0  0  0  0  0  0  0  0  0  0
   -0.4526    1.0429    0.7368 H   0  0  0  0  0  0  0  0  0  0  0  0
    1.3844    2.5723    0.7804 H   0  0  0  0  0  0  0  0  0  0  0  0
    3.7528    2.7929    1.2410 H   0  0  0  0  0  0  0  0  0  0  0  0
    5.2071    0.7725    1.0403 H   0  0  0  0  0  0  0  0  0  0  0  0
    6.3226   -0.7269   -0.5242 H   0  0  0  0  0  0  0  0  0  0  0  0
    7.3627   -3.1222   -0.3875 H   0  0  0  0  0  0  0  0  0  0  0  0
    5.5378   -4.7122    0.6898 H   0  0  0  0  0  0  0  0  0  0  0  0
    1.8779   -1.5854   -0.0679 H   0  0  0  0  0  0  0  0  0  0  0  0
   -2.0005   -4.6033    0.5357 H   0  0  0  0  0  0  0  0  0  0  0  0
   -3.5531   -3.9782   -1.4987 H   0  0  0  0  0  0  0  0  0  0  0  0
   -3.3988   -0.7325    2.9687 H   0  0  0  0  0  0  0  0  0  0  0  0
  1  2  1  0
  2  3  2  0
  3  4  1  0
  4  5  2  0
  5  6  1  0
  6  7  2  0
  6  8  1  0
  8  9  1  0
  9 10  1  0
 10 11  1  0
 11 12  1  0
 12 13  1  0
 13 14  1  0
 14 15  1  0
 15 16  2  0
 16 17  1  0
 17 18  2  0
 18 19  1  0
 19 20  1  0
 20 21  1  0
 21 22  2  0
 22 23  1  0
 23 24  2  0
 19 25  2  0
  5 26  1  0
 26 27  1  0
 27 28  1  0
 28 29  2  0
 29 30  1  0
 30 31  2  0
 26 32  2  0
 32  2  1  0
 13  8  1  0
 25 15  1  0
 31 27  1  0
 24 20  1  0
  1 33  1  0
  1 34  1  0
  1 35  1  0
  3 36  1  0
  4 37  1  0
  9 38  1  0
  9 39  1  0
 10 40  1  0
 10 41  1  0
 12 42  1  0
 12 43  1  0
 13 44  1  6
 14 45  1  0
 14 46  1  0
 16 47  1  0
 17 48  1  0
 18 49  1  0
 21 50  1  0
 22 51  1  0
 23 52  1  0
 25 53  1  0
 29 54  1  0
 30 55  1  0
 32 56  1  0
M  END
$$$$
