
     RDKit          3D

 42 43  0  0  0  0  0  0  0  0999 V2000
    5.6187   -0.0099   -1.2055 C   0  0  0  0  0  0  0  0  0  0  0  0
    4.7971   -0.9151   -0.4934 O   0  0  0  0  0  0  0  0  0  0  0  0
    3.6211   -0.5040    0.1347 C   0  0  0  0  0  0  0  0  0  0  0  0
    3.2017    0.8081    0.0916 C   0  0  0  0  0  0  0  0  0  0  0  0
    2.0210    1.2043    0.7259 C   0  0  0  0  0  0  0  0  0  0  0  0
    1.2406    0.3021    1.4118 C   0  0  0  0  0  0  0  0  0  0  0  0
   -0.2296    0.7531    2.2192 S   0  0  0  0  0  6  0  0  0  0  0  0
   -0.4768   -0.1474    3.4256 O   0  0  0  0  0  0  0  0  0  0  0  0
   -0.0886    2.1514    2.8261 O   0  0  0  0  0  0  0  0  0  0  0  0
   -1.6007    0.7357    1.2751 N   0  0  0  0  0  0  0  0  0  0  0  0
   -1.5693    1.6104    0.2005 C   0  0  0  0  0  0  0  0  0  0  0  0
   -2.0995    2.9754    0.4863 C   0  0  0  0  0  0  0  0  0  0  0  0
   -2.5439    3.3489    1.5791 O   0  0  0  0  0  0  0  0  0  0  0  0
   -2.0771    3.8900   -0.6023 N   0  0  0  0  0  0  0  0  0  0  0  0
   -2.5347    5.1556   -0.4525 O   0  0  0  0  0  0  0  0  0  0  0  0
   -2.5336   -0.2896    1.2906 C   0  0  0  0  0  0  0  0  0  0  0  0
   -2.3218   -1.4275    0.3674 C   0  0  0  0  0  0  0  0  0  0  0  0
   -2.8338   -1.4685   -0.9029 C   0  0  0  0  0  0  0  0  0  0  0  0
   -2.6111   -2.5524   -1.7345 C   0  0  0  0  0  0  0  0  0  0  0  0
   -1.8633   -3.6234   -1.2988 C   0  0  0  0  0  0  0  0  0  0  0  0
   -1.3482   -3.5861   -0.0244 C   0  0  0  0  0  0  0  0  0  0  0  0
   -1.5768   -2.5007    0.7948 C   0  0  0  0  0  0  0  0  0  0  0  0
    1.6635   -1.0021    1.4513 C   0  0  0  0  0  0  0  0  0  0  0  0
    2.8412   -1.4047    0.8202 C   0  0  0  0  0  0  0  0  0  0  0  0
    6.5331   -0.5489   -1.5167 H   0  0  0  0  0  0  0  0  0  0  0  0
    5.1424    0.3972   -2.1012 H   0  0  0  0  0  0  0  0  0  0  0  0
    5.9766    0.8164   -0.5341 H   0  0  0  0  0  0  0  0  0  0  0  0
    3.8014    1.5190   -0.4396 H   0  0  0  0  0  0  0  0  0  0  0  0
    1.7055    2.2410    0.6834 H   0  0  0  0  0  0  0  0  0  0  0  0
   -0.4951    1.7776   -0.1351 H   0  0  0  0  0  0  0  0  0  0  0  0
   -2.1105    1.1776   -0.6752 H   0  0  0  0  0  0  0  0  0  0  0  0
   -1.7116    3.6323   -1.5562 H   0  0  0  0  0  0  0  0  0  0  0  0
   -3.5179    5.0879   -0.2385 H   0  0  0  0  0  0  0  0  0  0  0  0
   -3.6036    0.0557    1.1589 H   0  0  0  0  0  0  0  0  0  0  0  0
   -2.5817   -0.7710    2.3277 H   0  0  0  0  0  0  0  0  0  0  0  0
   -3.4315   -0.6673   -1.3005 H   0  0  0  0  0  0  0  0  0  0  0  0
   -3.0077   -2.6024   -2.7420 H   0  0  0  0  0  0  0  0  0  0  0  0
   -1.6881   -4.4839   -1.9630 H   0  0  0  0  0  0  0  0  0  0  0  0
   -0.7647   -4.4343    0.3003 H   0  0  0  0  0  0  0  0  0  0  0  0
   -1.1450   -2.5511    1.7786 H   0  0  0  0  0  0  0  0  0  0  0  0
    1.0577   -1.7143    1.9919 H   0  0  0  0  0  0  0  0  0  0  0  0
    3.1447   -2.4353    0.8700 H   0  0  0  0  0  0  0  0  0  0  0  0
  1  2  1  0
  2  3  1  0
  3  4  2  0
  4  5  1  0
  5  6  2  0
  6  7  1  0
  7  8  2  0
  7  9  2  0
  7 10  1  0
 10 11  1  0
 11 12  1  0
 12 13  2  0
 12 14  1  0
 14 15  1  0
 10 16  1  0
 16 17  1  0
 17 18  2  0
 18 19  1  0
 19 20  2  0
 20 21  1  0
 21 22  2  0
  6 23  1  0
 23 24  2  0
 24  3  1  0
 22 17  1  0
  1 25  1  0
  1 26  1  0
  1 27  1  0
  4 28  1  0
  5 29  1  0
 11 30  1  0
 11 31  1  0
 14 32  1  0
 15 33  1  0
 16 34  1  0
 16 35  1  0
 18 36  1  0
 19 37  1  0
 20 38  1  0
 21 39  1  0
 22 40  1  0
 23 41  1  0
 24 42  1  0
M  END
$$$$
