
     RDKit          3D

 40 42  0  0  0  0  0  0  0  0999 V2000
   -4.1983   -2.6701    1.8735 C   0  0  0  0  0  0  0  0  0  0  0  0
   -3.1562   -2.1470    1.2146 C   0  0  0  0  0  0  0  0  0  0  0  0
   -3.2231   -0.7666    0.7836 C   0  0  0  0  0  0  0  0  0  0  0  0
   -4.2363   -0.0771    1.0251 O   0  0  0  0  0  0  0  0  0  0  0  0
   -2.1458   -0.1703    0.0824 N   0  0  0  0  0  0  0  0  0  0  0  0
   -0.9375   -0.8455   -0.2651 C   0  0  0  0  0  0  0  0  0  0  0  0
   -0.1937   -0.3278   -1.4444 C   0  0  2  0  0  0  0  0  0  0  0  0
    1.0160    0.3090   -0.9527 N   0  0  0  0  0  0  0  0  0  0  0  0
    2.0006   -0.4079   -0.2076 C   0  0  0  0  0  0  0  0  0  0  0  0
    1.9024   -1.7082    0.1011 N   0  0  0  0  0  0  0  0  0  0  0  0
    2.8764   -2.3289    0.8135 C   0  0  0  0  0  0  0  0  0  0  0  0
    3.9661   -1.6585    1.2297 N   0  0  0  0  0  0  0  0  0  0  0  0
    4.1242   -0.3538    0.9530 C   0  0  0  0  0  0  0  0  0  0  0  0
    5.0900    0.5377    1.2389 N   0  0  0  0  0  0  0  0  0  0  0  0
    4.7404    1.7335    0.7117 C   0  0  0  0  0  0  0  0  0  0  0  0
    3.5069    1.5758    0.0727 C   0  0  0  0  0  0  0  0  0  0  0  0
    3.1142    0.2776    0.2176 C   0  0  0  0  0  0  0  0  0  0  0  0
   -0.9083    0.5772   -2.3508 C   0  0  0  0  0  0  0  0  0  0  0  0
   -2.1483    1.2233   -1.8246 C   0  0  0  0  0  0  0  0  0  0  0  0
   -2.2367    1.2309   -0.3237 C   0  0  2  0  0  0  0  0  0  0  0  0
   -1.2295    2.1049    0.3499 C   0  0  0  0  0  0  0  0  0  0  0  0
   -5.0693   -2.0903    2.0840 H   0  0  0  0  0  0  0  0  0  0  0  0
   -4.1751   -3.6920    2.2048 H   0  0  0  0  0  0  0  0  0  0  0  0
   -2.3073   -2.7775    1.0337 H   0  0  0  0  0  0  0  0  0  0  0  0
   -0.2961   -0.8551    0.6667 H   0  0  0  0  0  0  0  0  0  0  0  0
   -1.1976   -1.9377   -0.4048 H   0  0  0  0  0  0  0  0  0  0  0  0
    0.1960   -1.2370   -2.0035 H   0  0  0  0  0  0  0  0  0  0  0  0
    1.1302    1.3209   -1.1717 H   0  0  0  0  0  0  0  0  0  0  0  0
    2.7859   -3.3928    1.0604 H   0  0  0  0  0  0  0  0  0  0  0  0
    5.9659    0.4029    1.7616 H   0  0  0  0  0  0  0  0  0  0  0  0
    5.2467    2.6784    0.7282 H   0  0  0  0  0  0  0  0  0  0  0  0
    2.9396    2.3312   -0.4522 H   0  0  0  0  0  0  0  0  0  0  0  0
   -1.2023    0.0173   -3.2751 H   0  0  0  0  0  0  0  0  0  0  0  0
   -0.2424    1.4035   -2.7265 H   0  0  0  0  0  0  0  0  0  0  0  0
   -2.2471    2.2750   -2.1663 H   0  0  0  0  0  0  0  0  0  0  0  0
   -3.0707    0.7022   -2.1937 H   0  0  0  0  0  0  0  0  0  0  0  0
   -3.2486    1.6113   -0.0639 H   0  0  0  0  0  0  0  0  0  0  0  0
   -1.7324    2.8810    0.9999 H   0  0  0  0  0  0  0  0  0  0  0  0
   -0.6641    2.7031   -0.3941 H   0  0  0  0  0  0  0  0  0  0  0  0
   -0.5350    1.5472    1.0140 H   0  0  0  0  0  0  0  0  0  0  0  0
  1  2  2  3
  2  3  1  0
  3  4  2  0
  3  5  1  0
  5  6  1  0
  6  7  1  0
  7  8  1  0
  8  9  1  0
  9 10  2  0
 10 11  1  0
 11 12  2  0
 12 13  1  0
 13 14  1  0
 14 15  1  0
 15 16  2  0
 16 17  1  0
  7 18  1  0
 18 19  1  0
 19 20  1  0
 20 21  1  0
 20  5  1  0
 17  9  1  0
 17 13  2  0
  1 22  1  0
  1 23  1  0
  2 24  1  0
  6 25  1  0
  6 26  1  0
  7 27  1  6
  8 28  1  0
 11 29  1  0
 14 30  1  0
 15 31  1  0
 16 32  1  0
 18 33  1  0
 18 34  1  0
 19 35  1  0
 19 36  1  0
 20 37  1  6
 21 38  1  0
 21 39  1  0
 21 40  1  0
M  END
$$$$
