
     RDKit          3D

177184  0  0  0  0  0  0  0  0999 V2000
   -0.2635   -2.5313    5.4445 C   0  0  0  0  0  0  0  0  0  0  0  0
    0.0715   -2.0199    4.0534 C   0  0  0  0  0  0  0  0  0  0  0  0
    0.6547   -3.1772    3.2595 C   0  0  0  0  0  0  0  0  0  0  0  0
   -1.1337   -1.5379    3.3287 C   0  0  0  0  0  0  0  0  0  0  0  0
   -1.8564   -0.3500    4.0864 C   0  0  2  0  0  0  0  0  0  0  0  0
   -3.0390   -0.1063    3.2691 N   0  0  0  0  0  0  0  0  0  0  0  0
   -4.0410   -1.1102    3.4664 C   0  0  0  0  0  0  0  0  0  0  0  0
   -4.0522   -2.0730    4.2584 O   0  0  0  0  0  0  0  0  0  0  0  0
   -5.2713   -1.1320    2.6859 C   0  0  1  0  0  0  0  0  0  0  0  0
   -6.5124   -0.8829    3.5129 C   0  0  0  0  0  0  0  0  0  0  0  0
   -7.7743   -0.9750    2.7438 C   0  0  0  0  0  0  0  0  0  0  0  0
   -7.9909   -2.4351    2.5057 C   0  0  0  0  0  0  0  0  0  0  0  0
   -9.1054   -2.4070    1.6799 N   0  0  0  0  0  0  0  0  0  0  0  0
   -9.6194   -1.2433    1.3546 C   0  0  0  0  0  0  0  0  0  0  0  0
  -10.5493   -0.5419    0.6880 C   0  0  0  0  0  0  0  0  0  0  0  0
  -10.6392    0.8575    0.6866 C   0  0  0  0  0  0  0  0  0  0  0  0
   -9.7352    1.6912    1.4008 C   0  0  0  0  0  0  0  0  0  0  0  0
   -8.7470    0.9019    2.1015 C   0  0  0  0  0  0  0  0  0  0  0  0
   -8.7752   -0.4355    2.0230 C   0  0  0  0  0  0  0  0  0  0  0  0
   -5.1795   -0.4879    1.4445 N   0  0  0  0  0  0  0  0  0  0  0  0
   -5.2621    0.1489    0.2441 C   0  0  0  0  0  0  0  0  0  0  0  0
   -6.4649    0.3903    0.0241 O   0  0  0  0  0  0  0  0  0  0  0  0
   -4.4627    0.6815   -0.9422 C   0  0  2  0  0  0  0  0  0  0  0  0
   -5.0183   -0.1358   -2.1091 C   0  0  0  0  0  0  0  0  0  0  0  0
   -4.7868   -1.6004   -1.9055 C   0  0  0  0  0  0  0  0  0  0  0  0
   -5.7062   -2.4605   -1.2963 C   0  0  0  0  0  0  0  0  0  0  0  0
   -5.3882   -3.8157   -1.1195 C   0  0  0  0  0  0  0  0  0  0  0  0
   -4.2130   -4.3915   -1.5130 C   0  0  0  0  0  0  0  0  0  0  0  0
   -3.9375   -5.7210   -1.3308 O   0  0  0  0  0  0  0  0  0  0  0  0
   -3.2944   -3.5465   -2.1185 C   0  0  0  0  0  0  0  0  0  0  0  0
   -3.5965   -2.2385   -2.2857 C   0  0  0  0  0  0  0  0  0  0  0  0
   -3.0789    0.4985   -0.7615 N   0  0  0  0  0  0  0  0  0  0  0  0
   -1.7468    0.3434   -0.5466 C   0  0  0  0  0  0  0  0  0  0  0  0
   -1.7105    0.9181    0.6660 O   0  0  0  0  0  0  0  0  0  0  0  0
   -0.3801   -0.0482   -0.8062 C   0  0  2  0  0  0  0  0  0  0  0  0
    0.5638    1.0678   -0.4362 C   0  0  0  0  0  0  0  0  0  0  0  0
    0.4262    2.2084   -1.2034 O   0  0  0  0  0  0  0  0  0  0  0  0
   -0.2484   -0.4914   -2.1268 N   0  0  0  0  0  0  0  0  0  0  0  0
   -0.0200   -1.1705   -3.3032 C   0  0  0  0  0  0  0  0  0  0  0  0
    0.4618   -2.3447   -2.9105 O   0  0  0  0  0  0  0  0  0  0  0  0
   -0.0413   -1.2241   -4.8210 C   0  0  2  0  0  0  0  0  0  0  0  0
   -1.4502   -1.0505   -5.2158 C   0  0  0  0  0  0  0  0  0  0  0  0
   -1.6606   -1.0226   -6.6976 C   0  0  0  0  0  0  0  0  0  0  0  0
   -1.9960   -1.7807   -7.8088 C   0  0  0  0  0  0  0  0  0  0  0  0
   -1.9497   -1.0862   -9.0038 N   0  0  0  0  0  0  0  0  0  0  0  0
   -1.5725    0.1417   -8.6260 C   0  0  0  0  0  0  0  0  0  0  0  0
   -1.3787    0.2512   -7.2556 C   0  0  0  0  0  0  0  0  0  0  0  0
   -0.9707    1.5722   -6.8414 C   0  0  0  0  0  0  0  0  0  0  0  0
   -0.7813    2.6245   -7.6520 C   0  0  0  0  0  0  0  0  0  0  0  0
   -1.0237    2.3034   -8.9543 C   0  0  0  0  0  0  0  0  0  0  0  0
   -1.4059    1.1855   -9.6044 C   0  0  0  0  0  0  0  0  0  0  0  0
    0.3887   -2.6252   -5.0538 N   0  0  0  0  0  0  0  0  0  0  0  0
    1.7451   -2.7522   -4.7030 C   0  0  0  0  0  0  0  0  0  0  0  0
    2.6503   -1.9638   -4.2768 O   0  0  0  0  0  0  0  0  0  0  0  0
    2.8715   -3.6460   -4.5786 C   0  0  2  0  0  0  0  0  0  0  0  0
    2.4992   -4.8145   -3.5966 C   0  0  0  0  0  0  0  0  0  0  0  0
    3.6908   -5.6872   -3.5164 C   0  0  0  0  0  0  0  0  0  0  0  0
    3.5692   -6.8119   -2.6851 C   0  0  0  0  0  0  0  0  0  0  0  0
    4.7352   -7.5810   -2.6393 N   0  0  0  0  0  0  0  0  0  0  0  0
    5.5368   -6.8382   -3.4886 C   0  0  0  0  0  0  0  0  0  0  0  0
    4.9260   -5.7914   -3.9651 N   0  0  0  0  0  0  0  0  0  0  0  0
    3.9993   -2.9971   -3.9404 N   0  0  0  0  0  0  0  0  0  0  0  0
    4.5105   -3.2422   -2.5961 C   0  0  0  0  0  0  0  0  0  0  0  0
    4.2834   -3.9240   -1.5943 O   0  0  0  0  0  0  0  0  0  0  0  0
    5.6976   -2.4334   -2.2726 C   0  0  2  0  0  0  0  0  0  0  0  0
    5.3414   -1.3105   -1.2663 C   0  0  0  0  0  0  0  0  0  0  0  0
    6.5871   -0.4297   -1.3201 C   0  0  0  0  0  0  0  0  0  0  0  0
    7.1805   -0.8758   -2.6316 C   0  0  0  0  0  0  0  0  0  0  0  0
    8.3766   -0.4235   -2.7627 O   0  0  0  0  0  0  0  0  0  0  0  0
    6.2521   -1.6945   -3.4038 N   0  0  0  0  0  0  0  0  0  0  0  0
   -0.9180    0.7565    4.0155 C   0  0  0  0  0  0  0  0  0  0  0  0
    0.3003    0.8654    4.3438 O   0  0  0  0  0  0  0  0  0  0  0  0
   -1.1347    2.1030    3.5259 N   0  0  0  0  0  0  0  0  0  0  0  0
    0.0257    3.0188    3.4802 C   0  0  1  0  0  0  0  0  0  0  0  0
   -0.5960    4.3783    3.0937 C   0  0  0  0  0  0  0  0  0  0  0  0
    0.3828    5.4648    2.9706 C   0  0  0  0  0  0  0  0  0  0  0  0
    1.4103    5.4933    1.9292 C   0  0  0  0  0  0  0  0  0  0  0  0
    1.0553    5.7686    0.5720 N   0  0  0  0  0  0  0  0  0  0  0  0
    0.4506    5.4917   -0.6629 C   0  0  0  0  0  0  0  0  0  0  0  0
    1.0011    5.7605   -1.9207 N   0  0  0  0  0  0  0  0  0  0  0  0
   -0.6466    4.9747   -0.2475 N   0  0  0  0  0  0  0  0  0  0  0  0
    0.5961    3.2507    4.8722 C   0  0  0  0  0  0  0  0  0  0  0  0
   -0.3614    3.4852    5.6967 O   0  0  0  0  0  0  0  0  0  0  0  0
    2.0213    3.1773    5.0818 N   0  0  0  0  0  0  0  0  0  0  0  0
    2.9442    2.7212    4.0194 C   0  0  0  0  0  0  0  0  0  0  0  0
    3.9741    1.8786    4.8081 C   0  0  0  0  0  0  0  0  0  0  0  0
    3.4265    1.9104    6.2545 C   0  0  0  0  0  0  0  0  0  0  0  0
    2.9679    3.4264    6.1805 C   0  0  1  0  0  0  0  0  0  0  0  0
    4.1858    4.0989    5.7879 C   0  0  0  0  0  0  0  0  0  0  0  0
    4.7886    3.8776    6.9763 O   0  0  0  0  0  0  0  0  0  0  0  0
    5.2510    4.7636    5.2500 N   0  0  0  0  0  0  0  0  0  0  0  0
    6.5670    5.3404    5.0844 C   0  0  0  0  0  0  0  0  0  0  0  0
    6.9144    6.1510    6.3168 C   0  0  0  0  0  0  0  0  0  0  0  0
    8.1201    6.6810    6.8187 N   0  0  0  0  0  0  0  0  0  0  0  0
    7.9832    5.9367    5.5853 O   0  0  0  0  0  0  0  0  0  0  0  0
    0.1731   -1.8396    6.1806 H   0  0  0  0  0  0  0  0  0  0  0  0
   -1.3850   -2.6314    5.5159 H   0  0  0  0  0  0  0  0  0  0  0  0
    0.2323   -3.5290    5.5701 H   0  0  0  0  0  0  0  0  0  0  0  0
    0.8940   -1.2789    4.1567 H   0  0  0  0  0  0  0  0  0  0  0  0
    1.4984   -2.8273    2.5990 H   0  0  0  0  0  0  0  0  0  0  0  0
   -0.1024   -3.6632    2.6268 H   0  0  0  0  0  0  0  0  0  0  0  0
    1.0850   -3.9122    3.9700 H   0  0  0  0  0  0  0  0  0  0  0  0
   -0.7780   -1.1135    2.3525 H   0  0  0  0  0  0  0  0  0  0  0  0
   -1.8597   -2.3495    3.2033 H   0  0  0  0  0  0  0  0  0  0  0  0
   -2.1053   -0.7731    5.0257 H   0  0  0  0  0  0  0  0  0  0  0  0
   -3.3260    0.6418    2.5993 H   0  0  0  0  0  0  0  0  0  0  0  0
   -5.5021   -2.2224    2.3871 H   0  0  0  0  0  0  0  0  0  0  0  0
   -6.5133    0.1518    3.9225 H   0  0  0  0  0  0  0  0  0  0  0  0
   -6.4840   -1.5557    4.3531 H   0  0  0  0  0  0  0  0  0  0  0  0
   -7.5512   -3.3853    2.8090 H   0  0  0  0  0  0  0  0  0  0  0  0
   -9.5807   -3.2870    1.2863 H   0  0  0  0  0  0  0  0  0  0  0  0
  -11.2371   -1.1873    0.1292 H   0  0  0  0  0  0  0  0  0  0  0  0
  -11.4768    1.2191    0.0807 H   0  0  0  0  0  0  0  0  0  0  0  0
   -9.9976    2.6968    1.2507 H   0  0  0  0  0  0  0  0  0  0  0  0
   -8.1434    1.6849    2.5919 H   0  0  0  0  0  0  0  0  0  0  0  0
   -4.0996   -0.6016    1.2772 H   0  0  0  0  0  0  0  0  0  0  0  0
   -4.7341    1.7255   -1.0428 H   0  0  0  0  0  0  0  0  0  0  0  0
   -4.6212    0.2228   -3.0720 H   0  0  0  0  0  0  0  0  0  0  0  0
   -6.1091    0.0875   -2.0707 H   0  0  0  0  0  0  0  0  0  0  0  0
   -6.6357   -2.0980   -0.9448 H   0  0  0  0  0  0  0  0  0  0  0  0
   -6.1147   -4.4582   -0.6468 H   0  0  0  0  0  0  0  0  0  0  0  0
   -3.5642   -6.3596   -2.0240 H   0  0  0  0  0  0  0  0  0  0  0  0
   -2.3710   -4.0197   -2.4268 H   0  0  0  0  0  0  0  0  0  0  0  0
   -2.7937   -1.7331   -2.7773 H   0  0  0  0  0  0  0  0  0  0  0  0
   -2.8122    0.1169   -1.7306 H   0  0  0  0  0  0  0  0  0  0  0  0
   -0.0759   -0.9101   -0.1277 H   0  0  0  0  0  0  0  0  0  0  0  0
    1.6201    0.7370   -0.3398 H   0  0  0  0  0  0  0  0  0  0  0  0
    0.2491    1.3555    0.6053 H   0  0  0  0  0  0  0  0  0  0  0  0
    1.2588    2.7591   -1.1353 H   0  0  0  0  0  0  0  0  0  0  0  0
   -0.6118    0.3926   -2.6340 H   0  0  0  0  0  0  0  0  0  0  0  0
    0.6946   -0.4873   -5.1349 H   0  0  0  0  0  0  0  0  0  0  0  0
   -1.9303   -0.1966   -4.7530 H   0  0  0  0  0  0  0  0  0  0  0  0
   -1.9949   -2.0018   -4.8875 H   0  0  0  0  0  0  0  0  0  0  0  0
   -2.2301   -2.7942   -7.5378 H   0  0  0  0  0  0  0  0  0  0  0  0
   -2.2063   -1.6518   -9.8328 H   0  0  0  0  0  0  0  0  0  0  0  0
   -0.8212    1.6572   -5.7713 H   0  0  0  0  0  0  0  0  0  0  0  0
   -0.4747    3.5770   -7.2934 H   0  0  0  0  0  0  0  0  0  0  0  0
   -0.8394    3.1723   -9.6171 H   0  0  0  0  0  0  0  0  0  0  0  0
   -1.5748    1.0246  -10.6511 H   0  0  0  0  0  0  0  0  0  0  0  0
    0.1568   -3.5918   -5.3451 H   0  0  0  0  0  0  0  0  0  0  0  0
    3.2004   -4.1727   -5.4761 H   0  0  0  0  0  0  0  0  0  0  0  0
    2.2747   -4.4562   -2.5978 H   0  0  0  0  0  0  0  0  0  0  0  0
    1.7252   -5.4104   -4.0851 H   0  0  0  0  0  0  0  0  0  0  0  0
    2.6621   -7.0998   -2.1068 H   0  0  0  0  0  0  0  0  0  0  0  0
    4.7546   -8.4287   -2.0316 H   0  0  0  0  0  0  0  0  0  0  0  0
    6.5495   -7.2465   -3.6063 H   0  0  0  0  0  0  0  0  0  0  0  0
    4.4642   -2.2803   -4.5636 H   0  0  0  0  0  0  0  0  0  0  0  0
    6.4712   -3.0577   -1.7996 H   0  0  0  0  0  0  0  0  0  0  0  0
    5.1031   -1.7018   -0.2855 H   0  0  0  0  0  0  0  0  0  0  0  0
    4.4986   -0.6904   -1.6455 H   0  0  0  0  0  0  0  0  0  0  0  0
    7.2353   -0.7040   -0.4523 H   0  0  0  0  0  0  0  0  0  0  0  0
    6.3883    0.6289   -1.3799 H   0  0  0  0  0  0  0  0  0  0  0  0
    6.4410   -1.3460   -4.4050 H   0  0  0  0  0  0  0  0  0  0  0  0
   -2.1329    2.3275    3.2203 H   0  0  0  0  0  0  0  0  0  0  0  0
    0.7591    2.7025    2.8058 H   0  0  0  0  0  0  0  0  0  0  0  0
   -1.4414    4.6141    3.7879 H   0  0  0  0  0  0  0  0  0  0  0  0
   -1.0954    4.1598    2.1292 H   0  0  0  0  0  0  0  0  0  0  0  0
    0.9113    5.5291    3.9747 H   0  0  0  0  0  0  0  0  0  0  0  0
   -0.2133    6.4284    2.8668 H   0  0  0  0  0  0  0  0  0  0  0  0
    1.8113    4.3957    1.8981 H   0  0  0  0  0  0  0  0  0  0  0  0
    2.3254    6.0502    2.2080 H   0  0  0  0  0  0  0  0  0  0  0  0
    1.4990    6.7442    0.4085 H   0  0  0  0  0  0  0  0  0  0  0  0
    1.5814    5.2553   -2.6481 H   0  0  0  0  0  0  0  0  0  0  0  0
    1.1317    6.4307   -2.6863 H   0  0  0  0  0  0  0  0  0  0  0  0
   -1.4195    4.6208   -0.8110 H   0  0  0  0  0  0  0  0  0  0  0  0
    3.3560    3.5599    3.5040 H   0  0  0  0  0  0  0  0  0  0  0  0
    2.4708    1.9703    3.3494 H   0  0  0  0  0  0  0  0  0  0  0  0
    4.9158    2.4009    4.8134 H   0  0  0  0  0  0  0  0  0  0  0  0
    3.9772    0.8338    4.4515 H   0  0  0  0  0  0  0  0  0  0  0  0
    2.5675    1.2706    6.3984 H   0  0  0  0  0  0  0  0  0  0  0  0
    4.2066    1.8770    6.9824 H   0  0  0  0  0  0  0  0  0  0  0  0
    2.4685    3.7285    7.0787 H   0  0  0  0  0  0  0  0  0  0  0  0
    4.7378    4.9560    4.3243 H   0  0  0  0  0  0  0  0  0  0  0  0
    7.1878    4.5958    4.6642 H   0  0  0  0  0  0  0  0  0  0  0  0
    6.4079    6.2266    4.3141 H   0  0  0  0  0  0  0  0  0  0  0  0
    9.0450    7.1886    6.9979 H   0  0  0  0  0  0  0  0  0  0  0  0
    8.1758    6.2455    7.8121 H   0  0  0  0  0  0  0  0  0  0  0  0
  1  2  1  0
  2  3  1  0
  2  4  1  0
  4  5  1  0
  5  6  1  0
  6  7  1  0
  7  8  2  0
  7  9  1  0
  9 10  1  0
 10 11  1  0
 11 12  2  0
 12 13  1  0
 13 14  1  0
 14 15  2  0
 15 16  1  0
 16 17  2  0
 17 18  1  0
 18 19  2  0
  9 20  1  0
 20 21  1  0
 21 22  2  0
 21 23  1  0
 23 24  1  0
 24 25  1  0
 25 26  2  0
 26 27  1  0
 27 28  2  0
 28 29  1  0
 28 30  1  0
 30 31  2  0
 23 32  1  0
 32 33  1  0
 33 34  2  0
 33 35  1  0
 35 36  1  0
 36 37  1  0
 35 38  1  0
 38 39  1  0
 39 40  2  0
 39 41  1  0
 41 42  1  0
 42 43  1  0
 43 44  2  0
 44 45  1  0
 45 46  1  0
 46 47  2  0
 47 48  1  0
 48 49  2  0
 49 50  1  0
 50 51  2  0
 41 52  1  0
 52 53  1  0
 53 54  2  0
 53 55  1  0
 55 56  1  0
 56 57  1  0
 57 58  2  0
 58 59  1  0
 59 60  1  0
 60 61  2  0
 55 62  1  0
 62 63  1  0
 63 64  2  0
 63 65  1  0
 65 66  1  0
 66 67  1  0
 67 68  1  0
 68 69  2  0
 68 70  1  0
  5 71  1  0
 71 72  2  0
 71 73  1  0
 73 74  1  0
 74 75  1  0
 75 76  1  0
 76 77  1  0
 77 78  1  0
 78 79  1  0
 79 80  1  0
 79 81  2  3
 74 82  1  0
 82 83  2  0
 82 84  1  0
 84 85  1  0
 85 86  1  0
 86 87  1  0
 87 88  1  0
 88 89  1  0
 89 90  2  0
 89 91  1  0
 91 92  1  0
 92 93  1  0
 93 94  1  0
 93 95  2  0
 19 11  1  0
 31 25  1  0
 47 43  1  0
 61 57  1  0
 70 65  1  0
 88 84  1  0
 19 14  1  0
 51 46  1  0
  1 96  1  0
  1 97  1  0
  1 98  1  0
  2 99  1  0
  3100  1  0
  3101  1  0
  3102  1  0
  4103  1  0
  4104  1  0
  5105  1  1
  6106  1  0
  9107  1  6
 10108  1  0
 10109  1  0
 12110  1  0
 13111  1  0
 15112  1  0
 16113  1  0
 17114  1  0
 18115  1  0
 20116  1  0
 23117  1  6
 24118  1  0
 24119  1  0
 26120  1  0
 27121  1  0
 29122  1  0
 30123  1  0
 31124  1  0
 32125  1  0
 35126  1  1
 36127  1  0
 36128  1  0
 37129  1  0
 38130  1  0
 41131  1  6
 42132  1  0
 42133  1  0
 44134  1  0
 45135  1  0
 48136  1  0
 49137  1  0
 50138  1  0
 51139  1  0
 52140  1  0
 55141  1  6
 56142  1  0
 56143  1  0
 58144  1  0
 59145  1  0
 60146  1  0
 62147  1  0
 65148  1  1
 66149  1  0
 66150  1  0
 67151  1  0
 67152  1  0
 70153  1  0
 73154  1  0
 74155  1  6
 75156  1  0
 75157  1  0
 76158  1  0
 76159  1  0
 77160  1  0
 77161  1  0
 78162  1  0
 80163  1  0
 80164  1  0
 81165  1  0
 85166  1  0
 85167  1  0
 86168  1  0
 86169  1  0
 87170  1  0
 87171  1  0
 88172  1  1
 91173  1  0
 92174  1  0
 92175  1  0
 94176  1  0
 94177  1  0
M  END
$$$$
