
     RDKit          3D

 36 38  0  0  0  0  0  0  0  0999 V2000
    4.6135    2.5227   -0.5470 O   0  0  0  0  0  0  0  0  0  0  0  0
    4.7371    1.5294   -1.3042 C   0  0  0  0  0  0  0  0  0  0  0  0
    5.6616    1.5987   -2.3318 O   0  0  0  0  0  0  0  0  0  0  0  0
    3.9399    0.3154   -1.1318 C   0  0  0  0  0  0  0  0  0  0  0  0
    4.0845   -0.7688   -1.9694 C   0  0  0  0  0  0  0  0  0  0  0  0
    3.3528   -1.8846   -1.8121 N   0  0  0  0  0  0  0  0  0  0  0  0
    2.4538   -1.9903   -0.8368 C   0  0  0  0  0  0  0  0  0  0  0  0
    2.2719   -0.9338    0.0269 C   0  0  0  0  0  0  0  0  0  0  0  0
    1.0723   -1.0941    1.3177 S   0  0  0  0  0  6  0  0  0  0  0  0
    1.5870   -0.3061    2.4878 O   0  0  0  0  0  0  0  0  0  0  0  0
    1.0150   -2.5286    1.7046 O   0  0  0  0  0  0  0  0  0  0  0  0
   -0.4308   -0.5531    0.7408 N   0  0  0  0  0  0  0  0  0  0  0  0
   -0.4679    0.8135    0.3461 C   0  0  0  0  0  0  0  0  0  0  0  0
   -1.6574    1.5962    0.7908 C   0  0  0  0  0  0  0  0  0  0  0  0
   -2.8741    0.8019    0.4854 C   0  0  0  0  0  0  0  0  0  0  0  0
   -4.0051    1.3128   -0.1020 C   0  0  0  0  0  0  0  0  0  0  0  0
   -5.0840    0.4666   -0.3379 C   0  0  0  0  0  0  0  0  0  0  0  0
   -4.9903   -0.8605    0.0233 C   0  0  0  0  0  0  0  0  0  0  0  0
   -3.8593   -1.4082    0.6196 C   0  0  0  0  0  0  0  0  0  0  0  0
   -2.8073   -0.5458    0.8406 C   0  0  0  0  0  0  0  0  0  0  0  0
   -1.5558   -1.0366    1.4720 C   0  0  0  0  0  0  0  0  0  0  0  0
    3.0105    0.2112   -0.1203 C   0  0  0  0  0  0  0  0  0  0  0  0
    6.4137    2.2788   -2.2328 H   0  0  0  0  0  0  0  0  0  0  0  0
    4.8289   -0.6743   -2.7727 H   0  0  0  0  0  0  0  0  0  0  0  0
    1.8466   -2.8985   -0.6954 H   0  0  0  0  0  0  0  0  0  0  0  0
    0.4901    1.2851    0.6470 H   0  0  0  0  0  0  0  0  0  0  0  0
   -0.4765    0.8284   -0.7846 H   0  0  0  0  0  0  0  0  0  0  0  0
   -1.6613    2.5503    0.1891 H   0  0  0  0  0  0  0  0  0  0  0  0
   -1.6171    1.9176    1.8472 H   0  0  0  0  0  0  0  0  0  0  0  0
   -4.0114    2.3601   -0.3593 H   0  0  0  0  0  0  0  0  0  0  0  0
   -5.9691    0.8863   -0.8024 H   0  0  0  0  0  0  0  0  0  0  0  0
   -5.8458   -1.4905   -0.1739 H   0  0  0  0  0  0  0  0  0  0  0  0
   -3.8271   -2.4633    0.8894 H   0  0  0  0  0  0  0  0  0  0  0  0
   -1.5546   -0.7352    2.5428 H   0  0  0  0  0  0  0  0  0  0  0  0
   -1.5581   -2.1520    1.4250 H   0  0  0  0  0  0  0  0  0  0  0  0
    2.8740    1.0496    0.5566 H   0  0  0  0  0  0  0  0  0  0  0  0
  1  2  2  0
  2  3  1  0
  2  4  1  0
  4  5  2  0
  5  6  1  0
  6  7  2  0
  7  8  1  0
  8  9  1  0
  9 10  2  0
  9 11  2  0
  9 12  1  0
 12 13  1  0
 13 14  1  0
 14 15  1  0
 15 16  2  0
 16 17  1  0
 17 18  2  0
 18 19  1  0
 19 20  2  0
 20 21  1  0
  8 22  2  0
 22  4  1  0
 21 12  1  0
 20 15  1  0
  3 23  1  0
  5 24  1  0
  7 25  1  0
 13 26  1  0
 13 27  1  0
 14 28  1  0
 14 29  1  0
 16 30  1  0
 17 31  1  0
 18 32  1  0
 19 33  1  0
 21 34  1  0
 21 35  1  0
 22 36  1  0
M  END
$$$$
