
     RDKit          3D

 50 52  0  0  0  0  0  0  0  0999 V2000
    0.9318   -4.1283    1.6095 C   0  0  0  0  0  0  0  0  0  0  0  0
    0.6212   -2.8363    1.1285 O   0  0  0  0  0  0  0  0  0  0  0  0
    1.6030   -1.8356    1.0405 C   0  0  0  0  0  0  0  0  0  0  0  0
    2.9054   -2.0925    1.4265 C   0  0  0  0  0  0  0  0  0  0  0  0
    3.8518   -1.1540    1.3518 N   0  0  0  0  0  0  0  0  0  0  0  0
    3.6369    0.1181    0.8999 C   0  0  0  0  0  0  0  0  0  0  0  0
    4.7466    1.0574    0.8635 C   0  0  0  0  0  0  0  0  0  0  0  0
    6.0109    0.6201    1.2981 C   0  0  0  0  0  0  0  0  0  0  0  0
    7.1151    1.4372    1.2990 C   0  0  0  0  0  0  0  0  0  0  0  0
    8.6735    0.8368    1.8540 Cl  0  0  0  0  0  0  0  0  0  0  0  0
    7.0430    2.7431    0.8696 C   0  0  0  0  0  0  0  0  0  0  0  0
    5.8169    3.1846    0.4427 C   0  0  0  0  0  0  0  0  0  0  0  0
    4.6824    2.3508    0.4400 C   0  0  0  0  0  0  0  0  0  0  0  0
    3.5157    2.8705    0.0022 F   0  0  0  0  0  0  0  0  0  0  0  0
    2.3614    0.3940    0.5141 C   0  0  0  0  0  0  0  0  0  0  0  0
    1.3457   -0.5756    0.5822 C   0  0  0  0  0  0  0  0  0  0  0  0
   -0.0088   -0.2310    0.1887 N   0  0  0  0  0  0  0  0  0  0  0  0
   -0.5742   -0.9041   -0.9193 C   0  0  0  0  0  0  0  0  0  0  0  0
    0.2572   -1.7992   -1.6124 C   0  0  0  0  0  0  0  0  0  0  0  0
   -0.2616   -2.4814   -2.6804 C   0  0  0  0  0  0  0  0  0  0  0  0
   -1.5330   -2.2847   -3.0389 N   0  0  0  0  0  0  0  0  0  0  0  0
   -2.3402   -1.4330   -2.3877 C   0  0  0  0  0  0  0  0  0  0  0  0
   -1.8754   -0.7006   -1.2836 C   0  0  0  0  0  0  0  0  0  0  0  0
   -2.7597    0.2017   -0.5921 C   0  0  0  0  0  0  0  0  0  0  0  0
   -2.4254    0.8665    0.4132 O   0  0  0  0  0  0  0  0  0  0  0  0
   -4.1226    0.4208   -1.0019 N   0  0  0  0  0  0  0  0  0  0  0  0
   -4.9795    1.3592   -0.2507 C   0  0  0  0  0  0  0  0  0  0  0  0
   -6.3243    1.3765   -0.9056 C   0  0  2  0  0  0  0  0  0  0  0  0
   -7.2478    2.3856   -0.3090 C   0  0  0  0  0  0  0  0  0  0  0  0
   -6.9349    0.1330   -0.9171 O   0  0  0  0  0  0  0  0  0  0  0  0
    1.4483   -3.9691    2.5983 H   0  0  0  0  0  0  0  0  0  0  0  0
    0.0000   -4.6855    1.7937 H   0  0  0  0  0  0  0  0  0  0  0  0
    1.6419   -4.6656    0.9584 H   0  0  0  0  0  0  0  0  0  0  0  0
    3.1071   -3.0993    1.7914 H   0  0  0  0  0  0  0  0  0  0  0  0
    6.0838   -0.4098    1.6405 H   0  0  0  0  0  0  0  0  0  0  0  0
    7.9261    3.3658    0.8800 H   0  0  0  0  0  0  0  0  0  0  0  0
    5.7133    4.1906    0.1007 H   0  0  0  0  0  0  0  0  0  0  0  0
    2.0956    1.3616    0.1464 H   0  0  0  0  0  0  0  0  0  0  0  0
   -0.4635    0.4929    0.7495 H   0  0  0  0  0  0  0  0  0  0  0  0
    1.2885   -1.9568   -1.3416 H   0  0  0  0  0  0  0  0  0  0  0  0
    0.3113   -3.1878   -3.2655 H   0  0  0  0  0  0  0  0  0  0  0  0
   -3.3483   -1.3086   -2.7096 H   0  0  0  0  0  0  0  0  0  0  0  0
   -4.4743   -0.0865   -1.8193 H   0  0  0  0  0  0  0  0  0  0  0  0
   -4.5627    2.3801   -0.2858 H   0  0  0  0  0  0  0  0  0  0  0  0
   -5.0035    1.0238    0.7952 H   0  0  0  0  0  0  0  0  0  0  0  0
   -6.1549    1.6846   -1.9785 H   0  0  0  0  0  0  0  0  0  0  0  0
   -6.7198    3.3310   -0.0135 H   0  0  0  0  0  0  0  0  0  0  0  0
   -8.0795    2.6664   -0.9627 H   0  0  0  0  0  0  0  0  0  0  0  0
   -7.6802    1.9233    0.6230 H   0  0  0  0  0  0  0  0  0  0  0  0
   -6.8600   -0.2755   -0.0257 H   0  0  0  0  0  0  0  0  0  0  0  0
  1  2  1  0
  2  3  1  0
  3  4  2  0
  4  5  1  0
  5  6  2  0
  6  7  1  0
  7  8  2  0
  8  9  1  0
  9 10  1  0
  9 11  2  0
 11 12  1  0
 12 13  2  0
 13 14  1  0
  6 15  1  0
 15 16  2  0
 16 17  1  0
 17 18  1  0
 18 19  2  0
 19 20  1  0
 20 21  2  0
 21 22  1  0
 22 23  2  0
 23 24  1  0
 24 25  2  0
 24 26  1  0
 26 27  1  0
 27 28  1  0
 28 29  1  0
 28 30  1  0
 16  3  1  0
 23 18  1  0
 13  7  1  0
  1 31  1  0
  1 32  1  0
  1 33  1  0
  4 34  1  0
  8 35  1  0
 11 36  1  0
 12 37  1  0
 15 38  1  0
 17 39  1  0
 19 40  1  0
 20 41  1  0
 22 42  1  0
 26 43  1  0
 27 44  1  0
 27 45  1  0
 28 46  1  6
 29 47  1  0
 29 48  1  0
 29 49  1  0
 30 50  1  0
M  END
$$$$
