
     RDKit          3D

 28 29  0  0  0  0  0  0  0  0999 V2000
    3.4254    1.2082    0.2563 O   0  0  0  0  0  0  0  0  0  0  0  0
    3.0079    0.2506    1.2008 C   0  0  0  0  0  0  0  0  0  0  0  0
    3.2394    0.7895    2.3016 O   0  0  0  0  0  0  0  0  0  0  0  0
    2.4204   -1.1155    0.9775 C   0  0  0  0  0  0  0  0  0  0  0  0
    2.1368   -1.3547   -0.4842 C   0  0  0  0  0  0  0  0  0  0  0  0
    1.1283   -0.3780   -1.0161 C   0  0  0  0  0  0  0  0  0  0  0  0
   -0.1922   -0.4565   -0.3495 C   0  0  0  0  0  0  0  0  0  0  0  0
   -0.5398   -1.5842    0.3593 C   0  0  0  0  0  0  0  0  0  0  0  0
   -1.7752   -1.4407    0.8693 N   0  0  0  0  0  0  0  0  0  0  0  0
   -2.2798   -0.2332    0.5216 C   0  0  0  0  0  0  0  0  0  0  0  0
   -1.2905    0.3725   -0.2352 C   0  0  0  0  0  0  0  0  0  0  0  0
   -1.4210    1.6322   -0.7864 C   0  0  0  0  0  0  0  0  0  0  0  0
   -2.6201    2.2988   -0.5496 C   0  0  0  0  0  0  0  0  0  0  0  0
   -3.6264    1.7310    0.1961 C   0  0  0  0  0  0  0  0  0  0  0  0
   -3.4645    0.4547    0.7406 C   0  0  0  0  0  0  0  0  0  0  0  0
    4.4327    1.4395    0.2382 H   0  0  0  0  0  0  0  0  0  0  0  0
    1.5354   -1.1430    1.6270 H   0  0  0  0  0  0  0  0  0  0  0  0
    3.1681   -1.8620    1.3175 H   0  0  0  0  0  0  0  0  0  0  0  0
    3.0854   -1.1709   -1.0331 H   0  0  0  0  0  0  0  0  0  0  0  0
    1.8724   -2.4002   -0.7019 H   0  0  0  0  0  0  0  0  0  0  0  0
    1.4750    0.6646   -0.8809 H   0  0  0  0  0  0  0  0  0  0  0  0
    0.9861   -0.5721   -2.1023 H   0  0  0  0  0  0  0  0  0  0  0  0
   -0.0672   -2.5373    0.5906 H   0  0  0  0  0  0  0  0  0  0  0  0
   -2.3795   -2.0856    1.4640 H   0  0  0  0  0  0  0  0  0  0  0  0
   -0.6379    2.0924   -1.3783 H   0  0  0  0  0  0  0  0  0  0  0  0
   -2.8190    3.2890   -0.9382 H   0  0  0  0  0  0  0  0  0  0  0  0
   -4.5829    2.1789    0.4265 H   0  0  0  0  0  0  0  0  0  0  0  0
   -4.2173   -0.0681    1.3464 H   0  0  0  0  0  0  0  0  0  0  0  0
  1  2  1  0
  2  3  2  0
  2  4  1  0
  4  5  1  0
  5  6  1  0
  6  7  1  0
  7  8  2  0
  8  9  1  0
  9 10  1  0
 10 11  2  0
 11 12  1  0
 12 13  2  0
 13 14  1  0
 14 15  2  0
 11  7  1  0
 15 10  1  0
  1 16  1  0
  4 17  1  0
  4 18  1  0
  5 19  1  0
  5 20  1  0
  6 21  1  0
  6 22  1  0
  8 23  1  0
  9 24  1  0
 12 25  1  0
 13 26  1  0
 14 27  1  0
 15 28  1  0
M  END
$$$$
