
     RDKit          3D

 57 61  0  0  0  0  0  0  0  0999 V2000
    6.7561   -0.6705   -1.0000 C   0  0  1  0  0  0  0  0  0  0  0  0
    7.1644   -0.7043    0.4558 C   0  0  0  0  0  0  0  0  0  0  0  0
    5.7498   -1.7680   -1.2561 C   0  0  0  0  0  0  0  0  0  0  0  0
    4.4918   -1.1631   -1.8363 C   0  0  0  0  0  0  0  0  0  0  0  0
    3.8795   -0.1894   -0.8373 C   0  0  2  0  0  0  0  0  0  0  0  0
    4.9051    0.8362   -0.4544 C   0  0  0  0  0  0  0  0  0  0  0  0
    6.1669    0.6802   -1.2883 C   0  0  0  0  0  0  0  0  0  0  0  0
    3.4856   -0.9612    0.3069 N   0  0  0  0  0  0  0  0  0  0  0  0
    2.8678   -0.2147    1.3587 C   0  0  0  0  0  0  0  0  0  0  0  0
    1.6160    0.4659    0.9282 C   0  0  0  0  0  0  0  0  0  0  0  0
    0.4367   -0.2678    1.0712 C   0  0  0  0  0  0  0  0  0  0  0  0
   -0.8158    0.2036    0.7254 C   0  0  0  0  0  0  0  0  0  0  0  0
   -0.9110    1.4777    0.2063 C   0  0  0  0  0  0  0  0  0  0  0  0
    0.2419    2.2206    0.0563 C   0  0  0  0  0  0  0  0  0  0  0  0
    1.4813    1.7326    0.4071 C   0  0  0  0  0  0  0  0  0  0  0  0
   -2.2969    1.8116   -0.1017 C   0  0  0  0  0  0  0  0  0  0  0  0
   -3.0451    0.7017    0.2455 C   0  0  0  0  0  0  0  0  0  0  0  0
   -2.1806   -0.3700    0.7813 C   0  0  0  0  0  0  0  0  0  0  0  0
   -4.3412    1.0610   -0.0612 C   0  0  0  0  0  0  0  0  0  0  0  0
   -4.3217    2.3263   -0.5623 N   0  0  0  0  0  0  0  0  0  0  0  0
   -3.0792    2.7932   -0.5912 N   0  0  0  0  0  0  0  0  0  0  0  0
   -5.5633    0.2790    0.0957 C   0  0  0  0  0  0  0  0  0  0  0  0
   -6.6306    0.9597    0.6472 C   0  0  0  0  0  0  0  0  0  0  0  0
   -7.8528    0.3387    0.8529 C   0  0  0  0  0  0  0  0  0  0  0  0
   -7.9506   -0.9836    0.4825 C   0  0  0  0  0  0  0  0  0  0  0  0
   -6.9146   -1.7116   -0.0734 C   0  0  0  0  0  0  0  0  0  0  0  0
   -5.6966   -1.0607   -0.2687 C   0  0  0  0  0  0  0  0  0  0  0  0
   -9.1869   -1.7478    0.6492 C   0  0  0  0  0  0  0  0  0  0  0  0
  -10.3859   -1.2847    1.1773 O   0  0  0  0  0  0  0  0  0  0  0  0
   -9.3899   -2.9660    0.3442 O   0  0  0  0  0  0  0  0  0  0  0  0
    7.6511   -0.7775   -1.6782 H   0  0  0  0  0  0  0  0  0  0  0  0
    6.4017   -1.2593    1.0283 H   0  0  0  0  0  0  0  0  0  0  0  0
    8.1673   -1.1903    0.5005 H   0  0  0  0  0  0  0  0  0  0  0  0
    7.1967    0.3210    0.8884 H   0  0  0  0  0  0  0  0  0  0  0  0
    6.1574   -2.5381   -1.9098 H   0  0  0  0  0  0  0  0  0  0  0  0
    5.4371   -2.2643   -0.2988 H   0  0  0  0  0  0  0  0  0  0  0  0
    4.6599   -0.6209   -2.7827 H   0  0  0  0  0  0  0  0  0  0  0  0
    3.7591   -1.9961   -1.9689 H   0  0  0  0  0  0  0  0  0  0  0  0
    3.0108    0.2640   -1.3724 H   0  0  0  0  0  0  0  0  0  0  0  0
    5.1807    0.6969    0.6106 H   0  0  0  0  0  0  0  0  0  0  0  0
    4.5767    1.8897   -0.6222 H   0  0  0  0  0  0  0  0  0  0  0  0
    5.9728    0.8770   -2.3565 H   0  0  0  0  0  0  0  0  0  0  0  0
    6.8748    1.4610   -0.8813 H   0  0  0  0  0  0  0  0  0  0  0  0
    2.9095   -1.7840    0.0780 H   0  0  0  0  0  0  0  0  0  0  0  0
    3.5531    0.5322    1.8250 H   0  0  0  0  0  0  0  0  0  0  0  0
    2.6362   -0.9389    2.1724 H   0  0  0  0  0  0  0  0  0  0  0  0
    0.4467   -1.2840    1.4769 H   0  0  0  0  0  0  0  0  0  0  0  0
    0.2740    3.2399   -0.3454 H   0  0  0  0  0  0  0  0  0  0  0  0
    2.4036    2.2809    0.3058 H   0  0  0  0  0  0  0  0  0  0  0  0
   -2.4850   -0.6574    1.8075 H   0  0  0  0  0  0  0  0  0  0  0  0
   -2.2789   -1.2855    0.1598 H   0  0  0  0  0  0  0  0  0  0  0  0
   -2.7932    3.7379   -0.9311 H   0  0  0  0  0  0  0  0  0  0  0  0
   -6.5858    1.9981    0.9484 H   0  0  0  0  0  0  0  0  0  0  0  0
   -8.7306    0.8057    1.2783 H   0  0  0  0  0  0  0  0  0  0  0  0
   -7.0010   -2.7514   -0.3616 H   0  0  0  0  0  0  0  0  0  0  0  0
   -4.8232   -1.5399   -0.6963 H   0  0  0  0  0  0  0  0  0  0  0  0
  -11.2518   -1.3492    0.6642 H   0  0  0  0  0  0  0  0  0  0  0  0
  1  2  1  0
  1  3  1  0
  3  4  1  0
  4  5  1  0
  5  6  1  0
  6  7  1  0
  5  8  1  0
  8  9  1  0
  9 10  1  0
 10 11  2  0
 11 12  1  0
 12 13  2  0
 13 14  1  0
 14 15  2  0
 13 16  1  0
 16 17  2  0
 17 18  1  0
 17 19  1  0
 19 20  2  0
 20 21  1  0
 19 22  1  0
 22 23  2  0
 23 24  1  0
 24 25  2  0
 25 26  1  0
 26 27  2  0
 25 28  1  0
 28 29  1  0
 28 30  2  0
  7  1  1  0
 15 10  1  0
 21 16  1  0
 27 22  1  0
 18 12  1  0
  1 31  1  6
  2 32  1  0
  2 33  1  0
  2 34  1  0
  3 35  1  0
  3 36  1  0
  4 37  1  0
  4 38  1  0
  5 39  1  6
  6 40  1  0
  6 41  1  0
  7 42  1  0
  7 43  1  0
  8 44  1  0
  9 45  1  0
  9 46  1  0
 11 47  1  0
 14 48  1  0
 15 49  1  0
 18 50  1  0
 18 51  1  0
 21 52  1  0
 23 53  1  0
 24 54  1  0
 26 55  1  0
 27 56  1  0
 29 57  1  0
M  END
$$$$
