
     RDKit          3D

 58 63  0  0  0  0  0  0  0  0999 V2000
    9.1695   -0.0940   -1.3523 C   0  0  0  0  0  0  0  0  0  0  0  0
    8.0810   -0.6585   -0.4813 C   0  0  0  0  0  0  0  0  0  0  0  0
    7.0273   -0.4598   -0.0639 N   0  0  0  0  0  0  0  0  0  0  0  0
    6.2599   -1.1698    0.7286 C   0  0  0  0  0  0  0  0  0  0  0  0
    4.9088   -0.7702    1.1811 C   0  0  0  0  0  0  0  0  0  0  0  0
    4.2345   -1.5133    1.9454 O   0  0  0  0  0  0  0  0  0  0  0  0
    4.3761    0.4623    0.7453 N   0  0  0  0  0  0  0  0  0  0  0  0
    3.0618    0.8222    1.2020 C   0  0  0  0  0  0  0  0  0  0  0  0
    2.9062    1.5307    2.3596 C   0  0  0  0  0  0  0  0  0  0  0  0
    1.6565    1.8802    2.8057 C   0  0  0  0  0  0  0  0  0  0  0  0
    0.5163    1.5177    2.0836 C   0  0  0  0  0  0  0  0  0  0  0  0
    0.6467    0.8101    0.9246 C   0  0  0  0  0  0  0  0  0  0  0  0
    1.9431    0.4755    0.5082 C   0  0  0  0  0  0  0  0  0  0  0  0
   -0.4752    0.3716    0.0752 C   0  0  0  0  0  0  0  0  0  0  0  0
   -0.3321    0.8427   -1.3469 C   0  0  0  0  0  0  0  0  0  0  0  0
   -0.2733   -0.2008   -2.3942 C   0  0  0  0  0  0  0  0  0  0  0  0
    0.2451   -1.4430   -1.9229 O   0  0  0  0  0  0  0  0  0  0  0  0
   -0.1754   -1.9165   -0.6995 C   0  0  0  0  0  0  0  0  0  0  0  0
   -0.2560   -3.3239   -0.4161 N   0  0  0  0  0  0  0  0  0  0  0  0
   -0.4995   -1.0891    0.1988 N   0  0  0  0  0  0  0  0  0  0  0  0
   -1.7746    0.8016    0.6537 C   0  0  0  0  0  0  0  0  0  0  0  0
   -2.9524    0.4635   -0.0312 C   0  0  0  0  0  0  0  0  0  0  0  0
   -4.1684    0.8285    0.4452 C   0  0  0  0  0  0  0  0  0  0  0  0
   -5.4093    0.4775   -0.2677 C   0  0  0  0  0  0  0  0  0  0  0  0
   -5.3949   -0.2013   -1.3911 C   0  0  0  0  0  0  0  0  0  0  0  0
   -6.6846   -0.5209   -2.0573 C   0  0  0  0  0  0  0  0  0  0  0  0
   -7.8676   -0.4105   -1.1414 C   0  0  0  0  0  0  0  0  0  0  0  0
   -7.5310   -0.2806    0.2041 O   0  0  0  0  0  0  0  0  0  0  0  0
   -6.7383    0.8879    0.2736 C   0  0  0  0  0  0  0  0  0  0  0  0
   -4.2390    1.5320    1.6036 N   0  0  0  0  0  0  0  0  0  0  0  0
   -3.1268    1.8590    2.2630 C   0  0  0  0  0  0  0  0  0  0  0  0
   -3.1632    2.5711    3.4392 F   0  0  0  0  0  0  0  0  0  0  0  0
   -1.8365    1.5082    1.8181 C   0  0  0  0  0  0  0  0  0  0  0  0
   -0.7377    1.8956    2.5766 O   0  0  0  0  0  0  0  0  0  0  0  0
    6.8060   -2.3549    1.1307 C   0  0  0  0  0  0  0  0  0  0  0  0
    8.4323   -2.3498    0.3083 S   0  0  0  0  0  0  0  0  0  0  0  0
    9.8833   -0.8550   -1.6738 H   0  0  0  0  0  0  0  0  0  0  0  0
    9.7165    0.6391   -0.7073 H   0  0  0  0  0  0  0  0  0  0  0  0
    8.6595    0.4126   -2.1835 H   0  0  0  0  0  0  0  0  0  0  0  0
    4.9196    1.0815    0.1177 H   0  0  0  0  0  0  0  0  0  0  0  0
    3.8056    1.8069    2.9132 H   0  0  0  0  0  0  0  0  0  0  0  0
    1.5507    2.4499    3.7387 H   0  0  0  0  0  0  0  0  0  0  0  0
    2.0967   -0.0899   -0.4128 H   0  0  0  0  0  0  0  0  0  0  0  0
   -1.1978    1.5039   -1.5625 H   0  0  0  0  0  0  0  0  0  0  0  0
    0.6102    1.4551   -1.3912 H   0  0  0  0  0  0  0  0  0  0  0  0
   -1.2765   -0.4442   -2.8059 H   0  0  0  0  0  0  0  0  0  0  0  0
    0.3186    0.1519   -3.2861 H   0  0  0  0  0  0  0  0  0  0  0  0
    0.0674   -3.7040    0.4953 H   0  0  0  0  0  0  0  0  0  0  0  0
   -0.6402   -3.9741   -1.1246 H   0  0  0  0  0  0  0  0  0  0  0  0
   -2.8166   -0.0960   -0.9439 H   0  0  0  0  0  0  0  0  0  0  0  0
   -4.5110   -0.5449   -1.8671 H   0  0  0  0  0  0  0  0  0  0  0  0
   -6.6047   -1.5910   -2.3924 H   0  0  0  0  0  0  0  0  0  0  0  0
   -6.8642    0.1323   -2.9466 H   0  0  0  0  0  0  0  0  0  0  0  0
   -8.5116   -1.3094   -1.2284 H   0  0  0  0  0  0  0  0  0  0  0  0
   -8.5037    0.4770   -1.3823 H   0  0  0  0  0  0  0  0  0  0  0  0
   -7.1845    1.6806   -0.3657 H   0  0  0  0  0  0  0  0  0  0  0  0
   -6.5917    1.2110    1.3172 H   0  0  0  0  0  0  0  0  0  0  0  0
    6.4394   -3.1745    1.7839 H   0  0  0  0  0  0  0  0  0  0  0  0
  1  2  1  0
  2  3  2  0
  3  4  1  0
  4  5  1  0
  5  6  2  0
  5  7  1  0
  7  8  1  0
  8  9  2  0
  9 10  1  0
 10 11  2  0
 11 12  1  0
 12 13  2  0
 12 14  1  0
 14 15  1  0
 15 16  1  0
 16 17  1  0
 17 18  1  0
 18 19  1  0
 18 20  2  0
 14 21  1  0
 21 22  2  0
 22 23  1  0
 23 24  1  0
 24 25  2  0
 25 26  1  0
 26 27  1  0
 27 28  1  0
 28 29  1  0
 23 30  2  0
 30 31  1  0
 31 32  1  0
 31 33  2  0
 33 34  1  0
  4 35  2  0
 35 36  1  0
 36  2  1  0
 13  8  1  0
 20 14  1  0
 33 21  1  0
 34 11  1  0
 29 24  1  0
  1 37  1  0
  1 38  1  0
  1 39  1  0
  7 40  1  0
  9 41  1  0
 10 42  1  0
 13 43  1  0
 15 44  1  0
 15 45  1  0
 16 46  1  0
 16 47  1  0
 19 48  1  0
 19 49  1  0
 22 50  1  0
 25 51  1  0
 26 52  1  0
 26 53  1  0
 27 54  1  0
 27 55  1  0
 29 56  1  0
 29 57  1  0
 35 58  1  0
M  END
$$$$
