
     RDKit          3D

 46 47  0  0  0  0  0  0  0  0999 V2000
   -5.1281    0.2995   -1.8804 C   0  0  0  0  0  0  0  0  0  0  0  0
   -4.8006   -0.8535   -0.9970 C   0  0  0  0  0  0  0  0  0  0  0  0
   -3.9361   -0.6708    0.0717 N   0  0  0  0  0  0  0  0  0  0  0  0
   -4.2937    0.1214    1.1823 C   0  0  0  0  0  0  0  0  0  0  0  0
   -3.1588    1.1334    1.3523 C   0  0  0  0  0  0  0  0  0  0  0  0
   -2.4581    1.0630   -0.0038 C   0  0  0  0  0  0  0  0  0  0  0  0
   -2.5507   -0.3601   -0.3161 C   0  0  0  0  0  0  0  0  0  0  0  0
   -1.6347   -1.3757    0.2096 C   0  0  0  0  0  0  0  0  0  0  0  0
   -0.2492   -1.1976   -0.0707 N   0  0  0  0  0  0  0  0  0  0  0  0
    0.6316   -0.2437    0.4341 C   0  0  0  0  0  0  0  0  0  0  0  0
    0.1604    0.5873    1.3020 O   0  0  0  0  0  0  0  0  0  0  0  0
    2.0287   -0.0924    0.0794 C   0  0  0  0  0  0  0  0  0  0  0  0
    2.7885    0.9259    0.6905 C   0  0  0  0  0  0  0  0  0  0  0  0
    4.1066    1.1385    0.4201 C   0  0  0  0  0  0  0  0  0  0  0  0
    5.0421    2.4024    1.1845 S   0  0  0  0  0  6  0  0  0  0  0  0
    5.7768    1.7777    2.6277 N   0  0  0  0  0  0  0  0  0  0  0  0
    6.0632    2.9449    0.2319 O   0  0  0  0  0  0  0  0  0  0  0  0
    4.1264    3.5307    1.5914 O   0  0  0  0  0  0  0  0  0  0  0  0
    4.7422    0.3229   -0.4964 C   0  0  0  0  0  0  0  0  0  0  0  0
    4.0571   -0.6864   -1.1254 C   0  0  0  0  0  0  0  0  0  0  0  0
    2.6964   -0.8644   -0.8108 C   0  0  0  0  0  0  0  0  0  0  0  0
    2.0772   -1.8883   -1.4751 O   0  0  0  0  0  0  0  0  0  0  0  0
    2.7250   -2.7065   -2.3981 C   0  0  0  0  0  0  0  0  0  0  0  0
   -4.2905    0.5339   -2.5696 H   0  0  0  0  0  0  0  0  0  0  0  0
   -5.4286    1.2131   -1.3724 H   0  0  0  0  0  0  0  0  0  0  0  0
   -5.9508   -0.0455   -2.5817 H   0  0  0  0  0  0  0  0  0  0  0  0
   -5.7634   -1.3100   -0.6086 H   0  0  0  0  0  0  0  0  0  0  0  0
   -4.3833   -1.6754   -1.6547 H   0  0  0  0  0  0  0  0  0  0  0  0
   -5.2830    0.6181    1.1040 H   0  0  0  0  0  0  0  0  0  0  0  0
   -4.3447   -0.4742    2.1414 H   0  0  0  0  0  0  0  0  0  0  0  0
   -3.4923    2.1280    1.6293 H   0  0  0  0  0  0  0  0  0  0  0  0
   -2.4454    0.7468    2.0985 H   0  0  0  0  0  0  0  0  0  0  0  0
   -1.5511    1.6018   -0.1106 H   0  0  0  0  0  0  0  0  0  0  0  0
   -3.1626    1.5947   -0.7657 H   0  0  0  0  0  0  0  0  0  0  0  0
   -2.5898   -0.4885   -1.4587 H   0  0  0  0  0  0  0  0  0  0  0  0
   -1.7842   -1.3930    1.3373 H   0  0  0  0  0  0  0  0  0  0  0  0
   -1.9285   -2.4139   -0.1711 H   0  0  0  0  0  0  0  0  0  0  0  0
    0.1511   -1.9011   -0.7659 H   0  0  0  0  0  0  0  0  0  0  0  0
    2.2883    1.5547    1.4003 H   0  0  0  0  0  0  0  0  0  0  0  0
    5.2782    2.0630    3.4846 H   0  0  0  0  0  0  0  0  0  0  0  0
    6.7861    2.0179    2.6549 H   0  0  0  0  0  0  0  0  0  0  0  0
    5.7919    0.4624   -0.7364 H   0  0  0  0  0  0  0  0  0  0  0  0
    4.5297   -1.3421   -1.8491 H   0  0  0  0  0  0  0  0  0  0  0  0
    2.0382   -3.4450   -2.8558 H   0  0  0  0  0  0  0  0  0  0  0  0
    3.1428   -2.1232   -3.2655 H   0  0  0  0  0  0  0  0  0  0  0  0
    3.5799   -3.2306   -1.8792 H   0  0  0  0  0  0  0  0  0  0  0  0
  1  2  1  0
  2  3  1  0
  3  4  1  0
  4  5  1  0
  5  6  1  0
  6  7  1  0
  7  8  1  0
  8  9  1  0
  9 10  1  0
 10 11  2  0
 10 12  1  0
 12 13  2  0
 13 14  1  0
 14 15  1  0
 15 16  1  0
 15 17  2  0
 15 18  2  0
 14 19  2  0
 19 20  1  0
 20 21  2  0
 21 22  1  0
 22 23  1  0
  7  3  1  0
 21 12  1  0
  1 24  1  0
  1 25  1  0
  1 26  1  0
  2 27  1  0
  2 28  1  0
  4 29  1  0
  4 30  1  0
  5 31  1  0
  5 32  1  0
  6 33  1  0
  6 34  1  0
  7 35  1  0
  8 36  1  0
  8 37  1  0
  9 38  1  0
 13 39  1  0
 16 40  1  0
 16 41  1  0
 19 42  1  0
 20 43  1  0
 23 44  1  0
 23 45  1  0
 23 46  1  0
M  END
$$$$
