
     RDKit          3D

 41 43  0  0  0  0  0  0  0  0999 V2000
   -6.1044   -1.5277    0.2238 N   0  0  0  0  0  0  0  0  0  0  0  0
   -5.0501   -0.7321    1.3233 S   0  0  0  0  0  0  0  0  0  0  0  0
   -4.7301   -1.7598    2.3820 O   0  0  0  0  0  0  0  0  0  0  0  0
   -5.7509    0.3730    2.0725 O   0  0  0  0  0  0  0  0  0  0  0  0
   -3.5565   -0.2203    0.6275 C   0  0  0  0  0  0  0  0  0  0  0  0
   -2.3153   -0.6763    1.0895 C   0  0  0  0  0  0  0  0  0  0  0  0
   -1.1110   -0.3215    0.5967 C   0  0  0  0  0  0  0  0  0  0  0  0
   -1.0261    0.5535   -0.4414 C   0  0  0  0  0  0  0  0  0  0  0  0
    0.2145    0.9276   -0.9593 N   0  0  0  0  0  0  0  0  0  0  0  0
    1.4707    0.3469   -0.6682 C   0  0  0  0  0  0  0  0  0  0  0  0
    2.4696    1.3687   -0.1085 C   0  0  0  0  0  0  0  0  0  0  0  0
    3.7379    0.6401    0.1538 C   0  0  0  0  0  0  0  0  0  0  0  0
    4.6846    0.5638   -0.8604 C   0  0  0  0  0  0  0  0  0  0  0  0
    5.8907   -0.0860   -0.7223 C   0  0  0  0  0  0  0  0  0  0  0  0
    6.1941   -0.7023    0.4840 C   0  0  0  0  0  0  0  0  0  0  0  0
    5.2762   -0.6387    1.4944 C   0  0  0  0  0  0  0  0  0  0  0  0
    4.0864    0.0107    1.3365 C   0  0  0  0  0  0  0  0  0  0  0  0
    1.5216   -0.8311    0.1051 N   0  0  0  0  0  0  0  0  0  0  0  0
    0.3297   -1.0017    1.3110 S   0  0  0  0  0  0  0  0  0  0  0  0
    0.1480   -2.4432    1.6662 O   0  0  0  0  0  0  0  0  0  0  0  0
    0.6503   -0.1583    2.5036 O   0  0  0  0  0  0  0  0  0  0  0  0
   -2.2186    1.0401   -0.9426 C   0  0  0  0  0  0  0  0  0  0  0  0
   -3.4694    0.6753   -0.4350 C   0  0  0  0  0  0  0  0  0  0  0  0
   -4.6916    1.2263   -1.0103 C   0  0  0  0  0  0  0  0  0  0  0  0
   -5.5794    0.3592   -1.5347 F   0  0  0  0  0  0  0  0  0  0  0  0
   -5.3993    1.9605   -0.0462 F   0  0  0  0  0  0  0  0  0  0  0  0
   -4.3587    2.1839   -1.9733 F   0  0  0  0  0  0  0  0  0  0  0  0
   -6.9789   -1.7326    0.7401 H   0  0  0  0  0  0  0  0  0  0  0  0
   -5.6008   -2.4090   -0.0744 H   0  0  0  0  0  0  0  0  0  0  0  0
   -2.3688   -1.3828    1.9267 H   0  0  0  0  0  0  0  0  0  0  0  0
    0.2492    1.7226   -1.6405 H   0  0  0  0  0  0  0  0  0  0  0  0
    1.9273    0.0830   -1.6692 H   0  0  0  0  0  0  0  0  0  0  0  0
    2.1126    1.8234    0.8169 H   0  0  0  0  0  0  0  0  0  0  0  0
    2.6846    2.1459   -0.8922 H   0  0  0  0  0  0  0  0  0  0  0  0
    4.5565    1.0090   -1.8484 H   0  0  0  0  0  0  0  0  0  0  0  0
    6.6326   -0.1505   -1.5050 H   0  0  0  0  0  0  0  0  0  0  0  0
    7.1089   -1.2377    0.6990 H   0  0  0  0  0  0  0  0  0  0  0  0
    5.4529   -1.1000    2.4620 H   0  0  0  0  0  0  0  0  0  0  0  0
    3.3663    0.0593    2.1324 H   0  0  0  0  0  0  0  0  0  0  0  0
    1.7147   -1.7083   -0.3977 H   0  0  0  0  0  0  0  0  0  0  0  0
   -2.1703    1.7472   -1.7803 H   0  0  0  0  0  0  0  0  0  0  0  0
  1  2  1  0
  2  3  2  0
  2  4  2  0
  2  5  1  0
  5  6  2  0
  6  7  1  0
  7  8  2  0
  8  9  1  0
  9 10  1  0
 10 11  1  0
 11 12  1  0
 12 13  2  0
 13 14  1  0
 14 15  2  0
 15 16  1  0
 16 17  2  0
 10 18  1  0
 18 19  1  0
 19 20  2  0
 19 21  2  0
  8 22  1  0
 22 23  2  0
 23 24  1  0
 24 25  1  0
 24 26  1  0
 24 27  1  0
 23  5  1  0
 19  7  1  0
 17 12  1  0
  1 28  1  0
  1 29  1  0
  6 30  1  0
  9 31  1  0
 10 32  1  0
 11 33  1  0
 11 34  1  0
 13 35  1  0
 14 36  1  0
 15 37  1  0
 16 38  1  0
 17 39  1  0
 18 40  1  0
 22 41  1  0
M  END
$$$$
