
     RDKit          3D

117122  0  0  0  0  0  0  0  0999 V2000
   -2.6476   -0.1472    0.3963 C   0  0  1  0  0  0  0  0  0  0  0  0
   -2.5402    1.2442    0.8519 C   0  0  2  0  0  0  0  0  0  0  0  0
   -3.5448    2.0359    0.2580 O   0  0  0  0  0  0  0  0  0  0  0  0
   -4.4602    2.7358    0.9790 C   0  0  0  0  0  0  0  0  0  0  0  0
   -4.6227    2.8450    2.2020 O   0  0  0  0  0  0  0  0  0  0  0  0
   -5.4500    3.5131    0.2216 C   0  0  0  0  0  0  0  0  0  0  0  0
   -5.4608    3.5602   -1.1542 C   0  0  0  0  0  0  0  0  0  0  0  0
   -6.3028    4.2235   -1.9915 C   0  0  0  0  0  0  0  0  0  0  0  0
   -7.2950    4.9589   -1.3507 C   0  0  0  0  0  0  0  0  0  0  0  0
   -7.3809    4.9850    0.0230 C   0  0  0  0  0  0  0  0  0  0  0  0
   -6.4795    4.2785    0.7902 C   0  0  0  0  0  0  0  0  0  0  0  0
   -1.1793    1.9209    0.8241 C   0  0  2  0  0  0  0  0  0  0  0  0
   -1.5100    3.2730    0.9222 O   0  0  0  0  0  0  0  0  0  0  0  0
   -0.3097    1.6075   -0.3240 C   0  0  0  0  0  0  0  0  0  0  0  0
    1.0709    1.0573   -0.0353 C   0  0  2  0  0  0  0  0  0  0  0  0
    1.5106    0.3033   -1.1833 O   0  0  0  0  0  0  0  0  0  0  0  0
    2.5873    0.6179   -1.9565 C   0  0  0  0  0  0  0  0  0  0  0  0
    3.2323    1.6481   -1.6300 O   0  0  0  0  0  0  0  0  0  0  0  0
    2.9275   -0.2661   -3.1264 C   0  0  2  0  0  0  0  0  0  0  0  0
    2.0871   -1.3711   -3.1311 O   0  0  0  0  0  0  0  0  0  0  0  0
    4.3498   -0.7343   -2.9131 C   0  0  1  0  0  0  0  0  0  0  0  0
    4.5327   -1.4246   -1.6548 N   0  0  0  0  0  0  0  0  0  0  0  0
    5.3919   -0.8441   -0.6983 C   0  0  0  0  0  0  0  0  0  0  0  0
    5.9951    0.2533   -0.9161 O   0  0  0  0  0  0  0  0  0  0  0  0
    5.8154   -1.1867    0.5828 O   0  0  0  0  0  0  0  0  0  0  0  0
    6.7072   -0.3850    1.3188 C   0  0  0  0  0  0  0  0  0  0  0  0
    6.1996    1.0080    1.5860 C   0  0  0  0  0  0  0  0  0  0  0  0
    6.9262   -1.0706    2.6473 C   0  0  0  0  0  0  0  0  0  0  0  0
    8.0581   -0.2397    0.6461 C   0  0  0  0  0  0  0  0  0  0  0  0
    4.7915   -1.6221   -4.0317 C   0  0  0  0  0  0  0  0  0  0  0  0
    5.5831   -1.3191   -5.1248 C   0  0  0  0  0  0  0  0  0  0  0  0
    5.8688   -2.2965   -6.0514 C   0  0  0  0  0  0  0  0  0  0  0  0
    5.3817   -3.5771   -5.9138 C   0  0  0  0  0  0  0  0  0  0  0  0
    4.5935   -3.8723   -4.8223 C   0  0  0  0  0  0  0  0  0  0  0  0
    4.2913   -2.9074   -3.8761 C   0  0  0  0  0  0  0  0  0  0  0  0
    1.0815    0.0900    1.0863 C   0  0  0  0  0  0  0  0  0  0  0  0
    1.9272   -1.1044    1.3502 C   0  0  0  0  0  0  0  0  0  0  0  0
    0.1648    0.3274    2.0126 C   0  0  0  0  0  0  0  0  0  0  0  0
   -0.1882   -0.8679    2.8020 C   0  0  1  0  0  0  0  0  0  0  0  0
   -0.2634   -0.6421    4.1698 O   0  0  0  0  0  0  0  0  0  0  0  0
    0.3897   -1.6747    4.8287 C   0  0  0  0  0  0  0  0  0  0  0  0
   -1.5869   -1.1949    2.3051 C   0  0  0  0  0  0  0  0  0  0  0  0
   -1.8648   -2.0662    3.1116 O   0  0  0  0  0  0  0  0  0  0  0  0
   -2.8755   -1.1673    1.4777 C   0  0  1  0  0  0  0  0  0  0  0  0
   -3.9313   -0.7848    2.4900 C   0  0  0  0  0  0  0  0  0  0  0  0
   -3.0236   -2.5680    0.9865 C   0  0  2  0  0  0  0  0  0  0  0  0
   -2.8994   -2.7584   -0.4888 C   0  0  0  0  0  0  0  0  0  0  0  0
   -3.5869   -1.7100   -1.3127 C   0  0  1  0  0  0  0  0  0  0  0  0
   -4.9383   -1.7784   -1.2569 O   0  0  0  0  0  0  0  0  0  0  0  0
   -5.0016   -0.6065   -0.5773 C   0  0  0  0  0  0  0  0  0  0  0  0
   -3.6021   -0.3527   -0.7857 C   0  0  1  0  0  0  0  0  0  0  0  0
   -3.2571    0.5197   -1.8524 O   0  0  0  0  0  0  0  0  0  0  0  0
   -3.9214    0.5669   -3.0395 C   0  0  0  0  0  0  0  0  0  0  0  0
   -3.4768    1.5185   -4.0944 C   0  0  0  0  0  0  0  0  0  0  0  0
   -4.8957   -0.1524   -3.2978 O   0  0  0  0  0  0  0  0  0  0  0  0
   -4.2351   -3.0399    1.4841 O   0  0  0  0  0  0  0  0  0  0  0  0
   -4.2062   -4.1084    2.3138 C   0  0  0  0  0  0  0  0  0  0  0  0
   -0.4165    1.7092    2.1446 C   0  0  0  0  0  0  0  0  0  0  0  0
    0.7251    2.6544    2.3188 C   0  0  0  0  0  0  0  0  0  0  0  0
   -1.3086    1.8935    3.3211 C   0  0  0  0  0  0  0  0  0  0  0  0
   -1.6588   -0.4924   -0.0767 H   0  0  0  0  0  0  0  0  0  0  0  0
   -2.7714    1.3241    1.9273 H   0  0  0  0  0  0  0  0  0  0  0  0
   -4.6733    2.9768   -1.6386 H   0  0  0  0  0  0  0  0  0  0  0  0
   -6.2364    4.2026   -3.0541 H   0  0  0  0  0  0  0  0  0  0  0  0
   -8.0316    5.5335   -1.8848 H   0  0  0  0  0  0  0  0  0  0  0  0
   -8.1181    5.5277    0.6030 H   0  0  0  0  0  0  0  0  0  0  0  0
   -6.5236    4.2797    1.8912 H   0  0  0  0  0  0  0  0  0  0  0  0
   -1.0978    3.7809    1.6233 H   0  0  0  0  0  0  0  0  0  0  0  0
   -0.0990    2.5941   -0.8434 H   0  0  0  0  0  0  0  0  0  0  0  0
   -0.7147    0.9817   -1.1172 H   0  0  0  0  0  0  0  0  0  0  0  0
    1.8279    1.8607    0.0436 H   0  0  0  0  0  0  0  0  0  0  0  0
    2.8301    0.3279   -4.0585 H   0  0  0  0  0  0  0  0  0  0  0  0
    2.0238   -1.7416   -2.2130 H   0  0  0  0  0  0  0  0  0  0  0  0
    4.9632    0.1909   -2.8718 H   0  0  0  0  0  0  0  0  0  0  0  0
    4.1526   -2.3122   -1.2642 H   0  0  0  0  0  0  0  0  0  0  0  0
    6.6975    1.3426    2.5398 H   0  0  0  0  0  0  0  0  0  0  0  0
    5.1105    1.0197    1.8339 H   0  0  0  0  0  0  0  0  0  0  0  0
    6.4532    1.7494    0.8253 H   0  0  0  0  0  0  0  0  0  0  0  0
    7.9673   -0.8354    2.9998 H   0  0  0  0  0  0  0  0  0  0  0  0
    6.2580   -0.7020    3.4416 H   0  0  0  0  0  0  0  0  0  0  0  0
    6.8892   -2.1882    2.5258 H   0  0  0  0  0  0  0  0  0  0  0  0
    8.3416   -1.1045    0.0394 H   0  0  0  0  0  0  0  0  0  0  0  0
    8.8182   -0.1178    1.4431 H   0  0  0  0  0  0  0  0  0  0  0  0
    8.0697    0.7214    0.0702 H   0  0  0  0  0  0  0  0  0  0  0  0
    5.9037   -0.2872   -5.1214 H   0  0  0  0  0  0  0  0  0  0  0  0
    6.4983   -1.9635   -6.8753 H   0  0  0  0  0  0  0  0  0  0  0  0
    5.6615   -4.2692   -6.6903 H   0  0  0  0  0  0  0  0  0  0  0  0
    4.2565   -4.9173   -4.8068 H   0  0  0  0  0  0  0  0  0  0  0  0
    3.6663   -3.3212   -3.1004 H   0  0  0  0  0  0  0  0  0  0  0  0
    2.8289   -0.9522    0.6806 H   0  0  0  0  0  0  0  0  0  0  0  0
    1.4895   -2.0492    0.9678 H   0  0  0  0  0  0  0  0  0  0  0  0
    2.3313   -1.1310    2.3563 H   0  0  0  0  0  0  0  0  0  0  0  0
    0.3757   -1.7714    2.6247 H   0  0  0  0  0  0  0  0  0  0  0  0
   -0.0690   -2.6699    4.5950 H   0  0  0  0  0  0  0  0  0  0  0  0
    0.3215   -1.5727    5.9332 H   0  0  0  0  0  0  0  0  0  0  0  0
    1.4321   -1.7091    4.4724 H   0  0  0  0  0  0  0  0  0  0  0  0
   -3.5313   -0.6928    3.5462 H   0  0  0  0  0  0  0  0  0  0  0  0
   -4.7054   -1.5991    2.6286 H   0  0  0  0  0  0  0  0  0  0  0  0
   -4.4027    0.1912    2.3310 H   0  0  0  0  0  0  0  0  0  0  0  0
   -2.2683   -3.2278    1.4538 H   0  0  0  0  0  0  0  0  0  0  0  0
   -1.8241   -2.7199   -0.7642 H   0  0  0  0  0  0  0  0  0  0  0  0
   -3.2128   -3.7585   -0.8349 H   0  0  0  0  0  0  0  0  0  0  0  0
   -3.2929   -1.8265   -2.4152 H   0  0  0  0  0  0  0  0  0  0  0  0
   -5.3725   -0.8416    0.4426 H   0  0  0  0  0  0  0  0  0  0  0  0
   -5.7487    0.1466   -0.9629 H   0  0  0  0  0  0  0  0  0  0  0  0
   -2.7576    2.2267   -3.6659 H   0  0  0  0  0  0  0  0  0  0  0  0
   -4.3906    2.0079   -4.5052 H   0  0  0  0  0  0  0  0  0  0  0  0
   -3.0502    0.9062   -4.9164 H   0  0  0  0  0  0  0  0  0  0  0  0
   -5.2914   -4.3210    2.5824 H   0  0  0  0  0  0  0  0  0  0  0  0
   -3.8840   -5.0634    1.8002 H   0  0  0  0  0  0  0  0  0  0  0  0
   -3.7273   -3.9961    3.2929 H   0  0  0  0  0  0  0  0  0  0  0  0
    1.7137    2.1140    2.4192 H   0  0  0  0  0  0  0  0  0  0  0  0
    0.8769    3.4118    1.5605 H   0  0  0  0  0  0  0  0  0  0  0  0
    0.6920    3.2344    3.2920 H   0  0  0  0  0  0  0  0  0  0  0  0
   -0.7056    2.2392    4.2153 H   0  0  0  0  0  0  0  0  0  0  0  0
   -1.9839    2.7519    3.1251 H   0  0  0  0  0  0  0  0  0  0  0  0
   -1.8350    1.0029    3.6923 H   0  0  0  0  0  0  0  0  0  0  0  0
  1  2  1  0
  2  3  1  0
  3  4  1  0
  4  5  2  0
  4  6  1  0
  6  7  2  0
  7  8  1  0
  8  9  2  0
  9 10  1  0
 10 11  2  0
  2 12  1  0
 12 13  1  6
 12 14  1  0
 14 15  1  0
 15 16  1  0
 16 17  1  0
 17 18  2  0
 17 19  1  0
 19 20  1  0
 19 21  1  0
 21 22  1  0
 22 23  1  0
 23 24  2  0
 23 25  1  0
 25 26  1  0
 26 27  1  0
 26 28  1  0
 26 29  1  0
 21 30  1  0
 30 31  2  0
 31 32  1  0
 32 33  2  0
 33 34  1  0
 34 35  2  0
 15 36  1  0
 36 37  1  0
 36 38  2  0
 38 39  1  0
 39 40  1  0
 40 41  1  0
 39 42  1  0
 42 43  2  0
 42 44  1  0
 44 45  1  1
 44 46  1  0
 46 47  1  0
 47 48  1  0
 48 49  1  0
 49 50  1  0
 50 51  1  0
 51 52  1  6
 52 53  1  0
 53 54  1  0
 53 55  2  0
 46 56  1  0
 56 57  1  0
 38 58  1  0
 58 59  1  0
 58 60  1  0
 44  1  1  0
 51 48  1  0
 51  1  1  0
 11  6  1  0
 58 12  1  0
 35 30  1  0
  1 61  1  6
  2 62  1  1
  7 63  1  0
  8 64  1  0
  9 65  1  0
 10 66  1  0
 11 67  1  0
 13 68  1  0
 14 69  1  0
 14 70  1  0
 15 71  1  1
 19 72  1  6
 20 73  1  0
 21 74  1  1
 22 75  1  0
 27 76  1  0
 27 77  1  0
 27 78  1  0
 28 79  1  0
 28 80  1  0
 28 81  1  0
 29 82  1  0
 29 83  1  0
 29 84  1  0
 31 85  1  0
 32 86  1  0
 33 87  1  0
 34 88  1  0
 35 89  1  0
 37 90  1  0
 37 91  1  0
 37 92  1  0
 39 93  1  1
 41 94  1  0
 41 95  1  0
 41 96  1  0
 45 97  1  0
 45 98  1  0
 45 99  1  0
 46100  1  1
 47101  1  0
 47102  1  0
 48103  1  6
 50104  1  0
 50105  1  0
 54106  1  0
 54107  1  0
 54108  1  0
 57109  1  0
 57110  1  0
 57111  1  0
 59112  1  0
 59113  1  0
 59114  1  0
 60115  1  0
 60116  1  0
 60117  1  0
M  END
$$$$
