
     RDKit          3D

 60 63  0  0  0  0  0  0  0  0999 V2000
    7.1379    2.9547    1.2639 C   0  0  0  0  0  0  0  0  0  0  0  0
    5.8638    2.1989    1.3329 C   0  0  0  0  0  0  0  0  0  0  0  0
    5.7519    1.1774    0.2169 C   0  0  0  0  0  0  0  0  0  0  0  0
    5.7048    1.4757    2.6469 C   0  0  0  0  0  0  0  0  0  0  0  0
    4.4468    0.6706    2.6632 C   0  0  0  0  0  0  0  0  0  0  0  0
    3.3202    1.4406    2.0938 C   0  0  0  0  0  0  0  0  0  0  0  0
    2.0183    0.9669    2.2725 C   0  0  0  0  0  0  0  0  0  0  0  0
    0.9068    1.6040    1.7565 C   0  0  0  0  0  0  0  0  0  0  0  0
   -0.6784    0.9609    2.0253 S   0  0  0  0  0  6  0  0  0  0  0  0
   -0.7402    0.4095    3.4184 O   0  0  0  0  0  0  0  0  0  0  0  0
   -1.7370    2.0232    1.9254 O   0  0  0  0  0  0  0  0  0  0  0  0
   -0.9628   -0.3366    0.9237 N   0  0  0  0  0  0  0  0  0  0  0  0
   -0.9056    0.1168   -0.4486 C   0  0  0  0  0  0  0  0  0  0  0  0
    0.4561   -0.1747   -0.9728 C   0  0  0  0  0  0  0  0  0  0  0  0
    1.2661   -0.8239   -0.2834 O   0  0  0  0  0  0  0  0  0  0  0  0
    0.8699    0.2559   -2.2245 O   0  0  0  0  0  0  0  0  0  0  0  0
   -2.0792   -1.1550    1.2458 C   0  0  0  0  0  0  0  0  0  0  0  0
   -3.3004   -0.9491    0.4498 C   0  0  0  0  0  0  0  0  0  0  0  0
   -4.2053    0.0210    0.7927 C   0  0  0  0  0  0  0  0  0  0  0  0
   -5.3499    0.1629    0.0270 C   0  0  0  0  0  0  0  0  0  0  0  0
   -5.5812   -0.6599   -1.0690 C   0  0  0  0  0  0  0  0  0  0  0  0
   -4.6851   -1.6455   -1.4335 C   0  0  0  0  0  0  0  0  0  0  0  0
   -4.9209   -2.5223   -2.5657 C   0  0  0  0  0  0  0  0  0  0  0  0
   -4.4355   -3.8311   -2.5293 C   0  0  0  0  0  0  0  0  0  0  0  0
   -4.6208   -4.7294   -3.5535 C   0  0  0  0  0  0  0  0  0  0  0  0
   -5.3095   -4.3646   -4.6856 C   0  0  0  0  0  0  0  0  0  0  0  0
   -5.8017   -3.0776   -4.7533 C   0  0  0  0  0  0  0  0  0  0  0  0
   -5.6080   -2.1744   -3.7070 C   0  0  0  0  0  0  0  0  0  0  0  0
   -3.5632   -1.7560   -0.6523 C   0  0  0  0  0  0  0  0  0  0  0  0
    1.1236    2.7664    1.0324 C   0  0  0  0  0  0  0  0  0  0  0  0
    2.3864    3.2587    0.8388 C   0  0  0  0  0  0  0  0  0  0  0  0
    3.4613    2.5900    1.3708 C   0  0  0  0  0  0  0  0  0  0  0  0
    4.7657    3.0997    1.1673 O   0  0  0  0  0  0  0  0  0  0  0  0
    7.9488    2.5400    1.8866 H   0  0  0  0  0  0  0  0  0  0  0  0
    7.5170    2.9299    0.2027 H   0  0  0  0  0  0  0  0  0  0  0  0
    6.9427    4.0289    1.5439 H   0  0  0  0  0  0  0  0  0  0  0  0
    6.5717    0.4445    0.2295 H   0  0  0  0  0  0  0  0  0  0  0  0
    5.7318    1.7186   -0.7708 H   0  0  0  0  0  0  0  0  0  0  0  0
    4.7926    0.6379    0.2786 H   0  0  0  0  0  0  0  0  0  0  0  0
    5.6618    2.2171    3.4774 H   0  0  0  0  0  0  0  0  0  0  0  0
    6.5807    0.8126    2.7790 H   0  0  0  0  0  0  0  0  0  0  0  0
    4.2649    0.3561    3.7330 H   0  0  0  0  0  0  0  0  0  0  0  0
    4.5583   -0.3039    2.1157 H   0  0  0  0  0  0  0  0  0  0  0  0
    1.9123    0.0619    2.8439 H   0  0  0  0  0  0  0  0  0  0  0  0
   -0.9948    1.2434   -0.4894 H   0  0  0  0  0  0  0  0  0  0  0  0
   -1.6201   -0.3633   -1.1233 H   0  0  0  0  0  0  0  0  0  0  0  0
    1.7058   -0.0377   -2.6961 H   0  0  0  0  0  0  0  0  0  0  0  0
   -2.2720   -1.1180    2.3426 H   0  0  0  0  0  0  0  0  0  0  0  0
   -1.7688   -2.2260    1.0680 H   0  0  0  0  0  0  0  0  0  0  0  0
   -4.0703    0.6923    1.6517 H   0  0  0  0  0  0  0  0  0  0  0  0
   -6.0451    0.9426    0.3245 H   0  0  0  0  0  0  0  0  0  0  0  0
   -6.4786   -0.5323   -1.6543 H   0  0  0  0  0  0  0  0  0  0  0  0
   -3.8892   -4.1516   -1.6531 H   0  0  0  0  0  0  0  0  0  0  0  0
   -4.2267   -5.7571   -3.4845 H   0  0  0  0  0  0  0  0  0  0  0  0
   -5.4794   -5.0426   -5.5134 H   0  0  0  0  0  0  0  0  0  0  0  0
   -6.3461   -2.7824   -5.6479 H   0  0  0  0  0  0  0  0  0  0  0  0
   -5.9908   -1.1789   -3.7722 H   0  0  0  0  0  0  0  0  0  0  0  0
   -2.8601   -2.5326   -0.9398 H   0  0  0  0  0  0  0  0  0  0  0  0
    0.2686    3.2807    0.6213 H   0  0  0  0  0  0  0  0  0  0  0  0
    2.5903    4.1662    0.2764 H   0  0  0  0  0  0  0  0  0  0  0  0
  1  2  1  0
  2  3  1  0
  2  4  1  0
  4  5  1  0
  5  6  1  0
  6  7  2  0
  7  8  1  0
  8  9  1  0
  9 10  2  0
  9 11  2  0
  9 12  1  0
 12 13  1  0
 13 14  1  0
 14 15  2  0
 14 16  1  0
 12 17  1  0
 17 18  1  0
 18 19  2  0
 19 20  1  0
 20 21  2  0
 21 22  1  0
 22 23  1  0
 23 24  2  0
 24 25  1  0
 25 26  2  0
 26 27  1  0
 27 28  2  0
 22 29  2  0
  8 30  2  0
 30 31  1  0
 31 32  2  0
 32 33  1  0
 33  2  1  0
 32  6  1  0
 29 18  1  0
 28 23  1  0
  1 34  1  0
  1 35  1  0
  1 36  1  0
  3 37  1  0
  3 38  1  0
  3 39  1  0
  4 40  1  0
  4 41  1  0
  5 42  1  0
  5 43  1  0
  7 44  1  0
 13 45  1  0
 13 46  1  0
 16 47  1  0
 17 48  1  0
 17 49  1  0
 19 50  1  0
 20 51  1  0
 21 52  1  0
 24 53  1  0
 25 54  1  0
 26 55  1  0
 27 56  1  0
 28 57  1  0
 29 58  1  0
 30 59  1  0
 31 60  1  0
M  END
$$$$
