
     RDKit          3D

 62 67  0  0  0  0  0  0  0  0999 V2000
   -4.6874    3.6179    1.2735 N   0  0  0  0  0  0  0  0  0  0  0  0
   -3.4804    4.3393    1.2940 C   0  0  0  0  0  0  0  0  0  0  0  0
   -3.5278    5.6523    1.5443 N   0  0  0  0  0  0  0  0  0  0  0  0
   -2.4013    6.3839    1.5746 C   0  0  0  0  0  0  0  0  0  0  0  0
   -1.2004    5.7726    1.3466 C   0  0  0  0  0  0  0  0  0  0  0  0
   -1.1369    4.4030    1.0842 C   0  0  0  0  0  0  0  0  0  0  0  0
   -2.2816    3.6551    1.0525 C   0  0  0  0  0  0  0  0  0  0  0  0
   -2.3148    2.2325    0.7889 C   0  0  0  0  0  0  0  0  0  0  0  0
   -3.4874    1.5064    0.7634 N   0  0  0  0  0  0  0  0  0  0  0  0
   -3.2368    0.2212    0.4987 C   0  0  0  0  0  0  0  0  0  0  0  0
   -3.9866   -0.9111    0.3568 C   0  0  0  0  0  0  0  0  0  0  0  0
   -3.4166   -2.1273    0.0746 C   0  0  0  0  0  0  0  0  0  0  0  0
   -4.2740   -3.2925   -0.0629 C   0  0  0  0  0  0  0  0  0  0  0  0
   -3.9297   -4.3198   -0.9169 C   0  0  0  0  0  0  0  0  0  0  0  0
   -4.7668   -5.4050   -1.0179 C   0  0  0  0  0  0  0  0  0  0  0  0
   -5.9325   -5.4873   -0.2902 C   0  0  0  0  0  0  0  0  0  0  0  0
   -6.2855   -4.4649    0.5666 C   0  0  0  0  0  0  0  0  0  0  0  0
   -5.4572   -3.3800    0.6734 C   0  0  0  0  0  0  0  0  0  0  0  0
   -2.0397   -2.1627   -0.0620 C   0  0  0  0  0  0  0  0  0  0  0  0
   -1.2838   -1.0622    0.0734 N   0  0  0  0  0  0  0  0  0  0  0  0
   -1.8740    0.1143    0.3500 C   0  0  0  0  0  0  0  0  0  0  0  0
   -1.3416    1.3772    0.5366 N   0  0  0  0  0  0  0  0  0  0  0  0
    0.0472    1.6004    0.4473 C   0  0  0  0  0  0  0  0  0  0  0  0
    0.9072    1.4919    1.5197 C   0  0  0  0  0  0  0  0  0  0  0  0
    2.2637    1.6928    1.3603 C   0  0  0  0  0  0  0  0  0  0  0  0
    2.8381    2.0071    0.1491 C   0  0  0  0  0  0  0  0  0  0  0  0
    4.2912    2.2194   -0.0676 C   0  0  0  0  0  0  0  0  0  0  0  0
    4.8869    0.9709   -0.5056 N   0  0  0  0  0  0  0  0  0  0  0  0
    5.2033   -0.1203    0.3311 C   0  0  0  0  0  0  0  0  0  0  0  0
    4.9582   -0.0194    1.5640 O   0  0  0  0  0  0  0  0  0  0  0  0
    5.7976   -1.3540   -0.1597 C   0  0  0  0  0  0  0  0  0  0  0  0
    6.0849   -2.3822    0.7395 C   0  0  0  0  0  0  0  0  0  0  0  0
    6.6416   -3.5802    0.3890 C   0  0  0  0  0  0  0  0  0  0  0  0
    6.9416   -3.7888   -0.9521 C   0  0  0  0  0  0  0  0  0  0  0  0
    6.6798   -2.8081   -1.8859 C   0  0  0  0  0  0  0  0  0  0  0  0
    6.1092   -1.5996   -1.4752 C   0  0  0  0  0  0  0  0  0  0  0  0
    1.9631    2.1176   -0.9415 C   0  0  0  0  0  0  0  0  0  0  0  0
    0.6141    1.9190   -0.7878 C   0  0  0  0  0  0  0  0  0  0  0  0
   -5.1512    3.3391    2.1528 H   0  0  0  0  0  0  0  0  0  0  0  0
   -5.1175    3.3625    0.3701 H   0  0  0  0  0  0  0  0  0  0  0  0
   -2.4613    7.4614    1.7819 H   0  0  0  0  0  0  0  0  0  0  0  0
   -0.2725    6.3647    1.3696 H   0  0  0  0  0  0  0  0  0  0  0  0
   -0.1591    3.9918    0.9145 H   0  0  0  0  0  0  0  0  0  0  0  0
   -5.0556   -0.8530    0.4678 H   0  0  0  0  0  0  0  0  0  0  0  0
   -3.0264   -4.2993   -1.5071 H   0  0  0  0  0  0  0  0  0  0  0  0
   -4.5261   -6.2369   -1.6840 H   0  0  0  0  0  0  0  0  0  0  0  0
   -6.5630   -6.3514   -0.3948 H   0  0  0  0  0  0  0  0  0  0  0  0
   -7.2083   -4.5590    1.1252 H   0  0  0  0  0  0  0  0  0  0  0  0
   -5.7067   -2.5758    1.3295 H   0  0  0  0  0  0  0  0  0  0  0  0
   -1.6093   -3.1439   -0.2869 H   0  0  0  0  0  0  0  0  0  0  0  0
    0.4926    1.2459    2.4874 H   0  0  0  0  0  0  0  0  0  0  0  0
    2.9252    1.6081    2.2407 H   0  0  0  0  0  0  0  0  0  0  0  0
    4.7462    2.5447    0.9066 H   0  0  0  0  0  0  0  0  0  0  0  0
    4.4856    2.9822   -0.8304 H   0  0  0  0  0  0  0  0  0  0  0  0
    5.1160    0.8375   -1.5402 H   0  0  0  0  0  0  0  0  0  0  0  0
    5.8411   -2.1983    1.7910 H   0  0  0  0  0  0  0  0  0  0  0  0
    6.8496   -4.3565    1.1233 H   0  0  0  0  0  0  0  0  0  0  0  0
    7.3793   -4.7309   -1.2274 H   0  0  0  0  0  0  0  0  0  0  0  0
    6.9228   -2.9968   -2.9203 H   0  0  0  0  0  0  0  0  0  0  0  0
    5.9084   -0.8362   -2.2224 H   0  0  0  0  0  0  0  0  0  0  0  0
    2.3819    2.3672   -1.9244 H   0  0  0  0  0  0  0  0  0  0  0  0
   -0.0764    2.0033   -1.6339 H   0  0  0  0  0  0  0  0  0  0  0  0
  1  2  1  0
  2  3  2  0
  3  4  1  0
  4  5  2  0
  5  6  1  0
  6  7  2  0
  7  8  1  0
  8  9  2  0
  9 10  1  0
 10 11  2  0
 11 12  1  0
 12 13  1  0
 13 14  2  0
 14 15  1  0
 15 16  2  0
 16 17  1  0
 17 18  2  0
 12 19  2  0
 19 20  1  0
 20 21  2  0
 21 22  1  0
 22 23  1  0
 23 24  2  0
 24 25  1  0
 25 26  2  0
 26 27  1  0
 27 28  1  0
 28 29  1  0
 29 30  2  0
 29 31  1  0
 31 32  2  0
 32 33  1  0
 33 34  2  0
 34 35  1  0
 35 36  2  0
 26 37  1  0
 37 38  2  0
  7  2  1  0
 22  8  1  0
 38 23  1  0
 21 10  1  0
 36 31  1  0
 18 13  1  0
  1 39  1  0
  1 40  1  0
  4 41  1  0
  5 42  1  0
  6 43  1  0
 11 44  1  0
 14 45  1  0
 15 46  1  0
 16 47  1  0
 17 48  1  0
 18 49  1  0
 19 50  1  0
 24 51  1  0
 25 52  1  0
 27 53  1  0
 27 54  1  0
 28 55  1  0
 32 56  1  0
 33 57  1  0
 34 58  1  0
 35 59  1  0
 36 60  1  0
 37 61  1  0
 38 62  1  0
M  END
$$$$
