
     RDKit          3D

 84 91  0  0  0  0  0  0  0  0999 V2000
   12.3957    0.4443   -0.8458 O   0  0  0  0  0  0  0  0  0  0  0  0
   11.7310    1.6423   -1.1656 C   0  0  0  0  0  0  0  0  0  0  0  0
   10.6807    1.8390   -0.0779 C   0  0  0  0  0  0  0  0  0  0  0  0
    9.9083    3.0487   -0.2794 N   0  0  0  0  0  0  0  0  0  0  0  0
    9.0604    2.9668   -1.4368 C   0  0  0  0  0  0  0  0  0  0  0  0
    8.0691    1.8628   -1.3555 C   0  0  0  0  0  0  0  0  0  0  0  0
    8.2083    0.5896   -1.7748 N   0  0  0  0  0  0  0  0  0  0  0  0
    7.0862   -0.0618   -1.5102 N   0  0  0  0  0  0  0  0  0  0  0  0
    6.2211    0.7631   -0.9271 C   0  0  0  0  0  0  0  0  0  0  0  0
    4.9345    0.5207   -0.4787 C   0  0  0  0  0  0  0  0  0  0  0  0
    4.3574   -0.7162   -0.5977 C   0  0  0  0  0  0  0  0  0  0  0  0
    3.0589   -0.8931   -0.1238 C   0  0  0  0  0  0  0  0  0  0  0  0
    2.4300   -2.2067   -0.2439 C   0  0  0  0  0  0  0  0  0  0  0  0
    3.0358   -3.2624    0.3999 C   0  0  0  0  0  0  0  0  0  0  0  0
    2.4541   -4.4992    0.2919 C   0  0  0  0  0  0  0  0  0  0  0  0
    1.3053   -4.6845   -0.4329 C   0  0  0  0  0  0  0  0  0  0  0  0
    0.7139   -3.5944   -1.0745 C   0  0  0  0  0  0  0  0  0  0  0  0
    1.2756   -2.3481   -0.9823 C   0  0  0  0  0  0  0  0  0  0  0  0
    2.3734    0.1541    0.4514 C   0  0  0  0  0  0  0  0  0  0  0  0
    1.0173   -0.0368    0.9501 C   0  0  0  0  0  0  0  0  0  0  0  0
    0.7732   -0.9184    1.9812 C   0  0  0  0  0  0  0  0  0  0  0  0
   -0.4972   -1.1152    2.4712 C   0  0  0  0  0  0  0  0  0  0  0  0
   -1.6063   -0.4416    1.9591 C   0  0  0  0  0  0  0  0  0  0  0  0
   -2.9556   -0.6798    2.5310 C   0  0  0  0  0  0  0  0  0  0  0  0
   -3.5657   -1.7826    1.8796 N   0  0  0  0  0  0  0  0  0  0  0  0
   -4.8632   -2.1284    2.4146 C   0  0  0  0  0  0  0  0  0  0  0  0
   -5.8892   -2.2025    1.3046 C   0  0  0  0  0  0  0  0  0  0  0  0
   -5.7642   -0.8671    0.5496 C   0  0  0  0  0  0  0  0  0  0  0  0
   -6.9644   -0.6320   -0.2811 C   0  0  0  0  0  0  0  0  0  0  0  0
   -7.4311   -1.3423   -1.3206 N   0  0  0  0  0  0  0  0  0  0  0  0
   -8.5350   -0.7616   -1.7503 N   0  0  0  0  0  0  0  0  0  0  0  0
   -8.8079    0.3273   -1.0094 C   0  0  0  0  0  0  0  0  0  0  0  0
   -9.9465    1.2228   -1.1856 C   0  0  0  0  0  0  0  0  0  0  0  0
  -10.1465    2.3170   -0.3769 C   0  0  0  0  0  0  0  0  0  0  0  0
  -11.2369    3.1673   -0.5529 C   0  0  0  0  0  0  0  0  0  0  0  0
  -12.1347    2.9097   -1.5572 C   0  0  0  0  0  0  0  0  0  0  0  0
  -11.9156    1.8076   -2.3575 C   0  0  0  0  0  0  0  0  0  0  0  0
  -10.8386    0.9907   -2.1622 N   0  0  0  0  0  0  0  0  0  0  0  0
   -7.8187    0.3855   -0.1050 N   0  0  0  0  0  0  0  0  0  0  0  0
   -4.4880   -0.9669   -0.2462 C   0  0  0  0  0  0  0  0  0  0  0  0
   -3.4882   -1.8454    0.4683 C   0  0  0  0  0  0  0  0  0  0  0  0
   -1.3525    0.4423    0.9229 C   0  0  0  0  0  0  0  0  0  0  0  0
   -0.0703    0.6333    0.4374 C   0  0  0  0  0  0  0  0  0  0  0  0
    3.0008    1.3438    0.5364 N   0  0  0  0  0  0  0  0  0  0  0  0
    4.2417    1.5885    0.1046 C   0  0  0  0  0  0  0  0  0  0  0  0
    4.8574    2.8084    0.2054 C   0  0  0  0  0  0  0  0  0  0  0  0
    6.1318    2.9651   -0.2624 C   0  0  0  0  0  0  0  0  0  0  0  0
    6.8267    1.9514   -0.8314 N   0  0  0  0  0  0  0  0  0  0  0  0
   12.5661    0.4302    0.1449 H   0  0  0  0  0  0  0  0  0  0  0  0
   12.4447    2.4888   -1.1198 H   0  0  0  0  0  0  0  0  0  0  0  0
   11.2658    1.5622   -2.1651 H   0  0  0  0  0  0  0  0  0  0  0  0
    9.9474    0.9830   -0.1300 H   0  0  0  0  0  0  0  0  0  0  0  0
   11.1550    1.8423    0.9069 H   0  0  0  0  0  0  0  0  0  0  0  0
    9.2833    3.1303    0.5558 H   0  0  0  0  0  0  0  0  0  0  0  0
    8.5520    3.9549   -1.5510 H   0  0  0  0  0  0  0  0  0  0  0  0
    9.6832    2.8254   -2.3367 H   0  0  0  0  0  0  0  0  0  0  0  0
    4.8798   -1.5533   -1.0475 H   0  0  0  0  0  0  0  0  0  0  0  0
    3.9467   -3.1350    0.9792 H   0  0  0  0  0  0  0  0  0  0  0  0
    2.8806   -5.3778    0.7756 H   0  0  0  0  0  0  0  0  0  0  0  0
    0.8536   -5.6642   -0.5111 H   0  0  0  0  0  0  0  0  0  0  0  0
   -0.1882   -3.7790   -1.6344 H   0  0  0  0  0  0  0  0  0  0  0  0
    0.8065   -1.5172   -1.4848 H   0  0  0  0  0  0  0  0  0  0  0  0
    1.6188   -1.4515    2.3927 H   0  0  0  0  0  0  0  0  0  0  0  0
   -0.6882   -1.8197    3.2947 H   0  0  0  0  0  0  0  0  0  0  0  0
   -3.5151    0.2769    2.4162 H   0  0  0  0  0  0  0  0  0  0  0  0
   -2.8050   -0.8782    3.6178 H   0  0  0  0  0  0  0  0  0  0  0  0
   -4.8480   -3.0606    3.0056 H   0  0  0  0  0  0  0  0  0  0  0  0
   -5.1819   -1.3032    3.0893 H   0  0  0  0  0  0  0  0  0  0  0  0
   -6.9122   -2.2836    1.7001 H   0  0  0  0  0  0  0  0  0  0  0  0
   -5.6033   -3.0262    0.6354 H   0  0  0  0  0  0  0  0  0  0  0  0
   -5.6414   -0.0502    1.2880 H   0  0  0  0  0  0  0  0  0  0  0  0
   -9.4431    2.5186    0.4078 H   0  0  0  0  0  0  0  0  0  0  0  0
  -11.4128    4.0320    0.0714 H   0  0  0  0  0  0  0  0  0  0  0  0
  -13.0070    3.5368   -1.7471 H   0  0  0  0  0  0  0  0  0  0  0  0
  -12.6152    1.5881   -3.1572 H   0  0  0  0  0  0  0  0  0  0  0  0
   -7.7702    1.1489    0.6217 H   0  0  0  0  0  0  0  0  0  0  0  0
   -4.7634   -1.5197   -1.1914 H   0  0  0  0  0  0  0  0  0  0  0  0
   -4.0935   -0.0026   -0.5753 H   0  0  0  0  0  0  0  0  0  0  0  0
   -2.4811   -1.5454    0.1322 H   0  0  0  0  0  0  0  0  0  0  0  0
   -3.6245   -2.9247    0.1764 H   0  0  0  0  0  0  0  0  0  0  0  0
   -2.2019    0.9907    0.4959 H   0  0  0  0  0  0  0  0  0  0  0  0
    0.0758    1.3315   -0.3696 H   0  0  0  0  0  0  0  0  0  0  0  0
    4.3389    3.6299    0.6470 H   0  0  0  0  0  0  0  0  0  0  0  0
    6.6656    3.9169   -0.2053 H   0  0  0  0  0  0  0  0  0  0  0  0
  1  2  1  0
  2  3  1  0
  3  4  1  0
  4  5  1  0
  5  6  1  0
  6  7  2  0
  7  8  1  0
  8  9  2  0
  9 10  1  0
 10 11  2  0
 11 12  1  0
 12 13  1  0
 13 14  2  0
 14 15  1  0
 15 16  2  0
 16 17  1  0
 17 18  2  0
 12 19  2  0
 19 20  1  0
 20 21  2  0
 21 22  1  0
 22 23  2  0
 23 24  1  0
 24 25  1  0
 25 26  1  0
 26 27  1  0
 27 28  1  0
 28 29  1  0
 29 30  2  0
 30 31  1  0
 31 32  2  0
 32 33  1  0
 33 34  2  0
 34 35  1  0
 35 36  2  0
 36 37  1  0
 37 38  2  0
 32 39  1  0
 28 40  1  0
 40 41  1  0
 23 42  1  0
 42 43  2  0
 19 44  1  0
 44 45  2  0
 45 46  1  0
 46 47  2  0
 47 48  1  0
 48  6  1  0
 48  9  1  0
 45 10  1  0
 18 13  1  0
 43 20  1  0
 41 25  1  0
 39 29  1  0
 38 33  1  0
  1 49  1  0
  2 50  1  0
  2 51  1  0
  3 52  1  0
  3 53  1  0
  4 54  1  0
  5 55  1  0
  5 56  1  0
 11 57  1  0
 14 58  1  0
 15 59  1  0
 16 60  1  0
 17 61  1  0
 18 62  1  0
 21 63  1  0
 22 64  1  0
 24 65  1  0
 24 66  1  0
 26 67  1  0
 26 68  1  0
 27 69  1  0
 27 70  1  0
 28 71  1  0
 34 72  1  0
 35 73  1  0
 36 74  1  0
 37 75  1  0
 39 76  1  0
 40 77  1  0
 40 78  1  0
 41 79  1  0
 41 80  1  0
 42 81  1  0
 43 82  1  0
 46 83  1  0
 47 84  1  0
M  END
$$$$
