
     RDKit          3D

 49 54  0  0  0  0  0  0  0  0999 V2000
   -8.0853    0.1954    0.5985 C   0  0  0  0  0  0  0  0  0  0  0  0
   -6.7091    0.0120    1.0159 N   0  0  0  0  0  0  0  0  0  0  0  0
   -6.3472   -0.5927    2.2415 C   0  0  0  0  0  0  0  0  0  0  0  0
   -7.1879   -1.3131    2.8357 O   0  0  0  0  0  0  0  0  0  0  0  0
   -4.9683   -0.3476    2.7834 C   0  0  0  0  0  0  0  0  0  0  0  0
   -4.0133   -0.2918    1.7256 O   0  0  0  0  0  0  0  0  0  0  0  0
   -4.3651    0.2998    0.5263 C   0  0  0  0  0  0  0  0  0  0  0  0
   -5.6857    0.4665    0.1430 C   0  0  0  0  0  0  0  0  0  0  0  0
   -6.0238    1.0559   -1.0517 C   0  0  0  0  0  0  0  0  0  0  0  0
   -5.0764    1.4928   -1.8923 N   0  0  0  0  0  0  0  0  0  0  0  0
   -3.7870    1.3378   -1.5334 C   0  0  0  0  0  0  0  0  0  0  0  0
   -2.7620    1.7791   -2.3785 C   0  0  0  0  0  0  0  0  0  0  0  0
   -1.4405    1.6300   -2.0283 C   0  0  0  0  0  0  0  0  0  0  0  0
   -1.0448    1.0463   -0.8430 C   0  0  0  0  0  0  0  0  0  0  0  0
    0.6759    0.8622   -0.4026 S   0  0  0  0  0  0  0  0  0  0  0  0
    1.3116   -0.6920   -0.9946 C   0  0  0  0  0  0  0  0  0  0  0  0
    0.6735   -1.6544   -1.6817 N   0  0  0  0  0  0  0  0  0  0  0  0
    1.5028   -2.6535   -1.9310 N   0  0  0  0  0  0  0  0  0  0  0  0
    2.6955   -2.3665   -1.4144 C   0  0  0  0  0  0  0  0  0  0  0  0
    3.8887   -3.0580   -1.3941 C   0  0  0  0  0  0  0  0  0  0  0  0
    3.9381   -4.2655   -1.9920 F   0  0  0  0  0  0  0  0  0  0  0  0
    4.9521   -2.4571   -0.7581 C   0  0  0  0  0  0  0  0  0  0  0  0
    4.8212   -1.2038   -0.1627 C   0  0  0  0  0  0  0  0  0  0  0  0
    5.9744   -0.6159    0.4950 C   0  0  0  0  0  0  0  0  0  0  0  0
    6.9943   -1.2712    1.1515 C   0  0  0  0  0  0  0  0  0  0  0  0
    7.8454   -0.3342    1.6035 N   0  0  0  0  0  0  0  0  0  0  0  0
    7.4446    0.8711    1.2844 N   0  0  0  0  0  0  0  0  0  0  0  0
    8.1320    2.0995    1.6186 C   0  0  0  0  0  0  0  0  0  0  0  0
    6.2969    0.7338    0.6022 C   0  0  0  0  0  0  0  0  0  0  0  0
    3.6133   -0.5404   -0.2018 C   0  0  0  0  0  0  0  0  0  0  0  0
    2.5619   -1.1364   -0.8315 N   0  0  0  0  0  0  0  0  0  0  0  0
   -2.0440    0.6084   -0.0039 C   0  0  0  0  0  0  0  0  0  0  0  0
   -3.3910    0.7566   -0.3532 C   0  0  0  0  0  0  0  0  0  0  0  0
   -8.2938    1.2614    0.3392 H   0  0  0  0  0  0  0  0  0  0  0  0
   -8.7813   -0.1223    1.4006 H   0  0  0  0  0  0  0  0  0  0  0  0
   -8.2313   -0.4448   -0.2938 H   0  0  0  0  0  0  0  0  0  0  0  0
   -4.9898    0.5958    3.3344 H   0  0  0  0  0  0  0  0  0  0  0  0
   -4.7050   -1.2085    3.4189 H   0  0  0  0  0  0  0  0  0  0  0  0
   -7.0643    1.1676   -1.3146 H   0  0  0  0  0  0  0  0  0  0  0  0
   -3.0431    2.2395   -3.3124 H   0  0  0  0  0  0  0  0  0  0  0  0
   -0.6240    1.9679   -2.6741 H   0  0  0  0  0  0  0  0  0  0  0  0
    5.8953   -2.9778   -0.7289 H   0  0  0  0  0  0  0  0  0  0  0  0
    7.1025   -2.3243    1.2852 H   0  0  0  0  0  0  0  0  0  0  0  0
    9.2424    1.9948    1.5516 H   0  0  0  0  0  0  0  0  0  0  0  0
    7.8384    2.9174    0.9478 H   0  0  0  0  0  0  0  0  0  0  0  0
    7.8839    2.3730    2.6571 H   0  0  0  0  0  0  0  0  0  0  0  0
    5.6885    1.5206    0.1851 H   0  0  0  0  0  0  0  0  0  0  0  0
    3.4839    0.4465    0.2588 H   0  0  0  0  0  0  0  0  0  0  0  0
   -1.7931    0.1399    0.9449 H   0  0  0  0  0  0  0  0  0  0  0  0
  1  2  1  0
  2  3  1  0
  3  4  2  0
  3  5  1  0
  5  6  1  0
  6  7  1  0
  7  8  2  0
  8  9  1  0
  9 10  2  0
 10 11  1  0
 11 12  2  0
 12 13  1  0
 13 14  2  0
 14 15  1  0
 15 16  1  0
 16 17  2  0
 17 18  1  0
 18 19  2  0
 19 20  1  0
 20 21  1  0
 20 22  2  0
 22 23  1  0
 23 24  1  0
 24 25  1  0
 25 26  2  0
 26 27  1  0
 27 28  1  0
 27 29  1  0
 23 30  2  0
 30 31  1  0
 14 32  1  0
 32 33  2  0
  8  2  1  0
 33 11  1  0
 33  7  1  0
 31 16  1  0
 31 19  1  0
 29 24  2  0
  1 34  1  0
  1 35  1  0
  1 36  1  0
  5 37  1  0
  5 38  1  0
  9 39  1  0
 12 40  1  0
 13 41  1  0
 22 42  1  0
 25 43  1  0
 28 44  1  0
 28 45  1  0
 28 46  1  0
 29 47  1  0
 30 48  1  0
 32 49  1  0
M  END
$$$$
