
     RDKit          3D

 54 58  0  0  0  0  0  0  0  0999 V2000
   -6.5871   -0.6914   -1.7384 C   0  0  0  0  0  0  0  0  0  0  0  0
   -6.1077    0.2989   -0.7456 C   0  0  0  0  0  0  0  0  0  0  0  0
   -6.8832    1.2234   -0.1630 N   0  0  0  0  0  0  0  0  0  0  0  0
   -6.1511    1.9594    0.6805 N   0  0  0  0  0  0  0  0  0  0  0  0
   -6.6887    3.0470    1.4714 C   0  0  0  0  0  0  0  0  0  0  0  0
   -4.8875    1.4801    0.6208 C   0  0  0  0  0  0  0  0  0  0  0  0
   -4.8300    0.4440   -0.2605 C   0  0  0  0  0  0  0  0  0  0  0  0
   -3.6356   -0.3308   -0.5956 C   0  0  0  0  0  0  0  0  0  0  0  0
   -3.5624   -1.3656   -1.4715 N   0  0  0  0  0  0  0  0  0  0  0  0
   -2.3227   -1.8584   -1.5496 C   0  0  0  0  0  0  0  0  0  0  0  0
   -1.7299   -2.8573   -2.2483 N   0  0  0  0  0  0  0  0  0  0  0  0
   -0.4172   -3.1137   -2.1010 C   0  0  0  0  0  0  0  0  0  0  0  0
    0.3833   -2.3949   -1.2529 C   0  0  0  0  0  0  0  0  0  0  0  0
    2.0778   -2.6874   -1.0295 Cl  0  0  0  0  0  0  0  0  0  0  0  0
   -0.2097   -1.3758   -0.5368 C   0  0  0  0  0  0  0  0  0  0  0  0
    0.5203   -0.5621    0.3736 N   0  0  0  0  0  0  0  0  0  0  0  0
    0.5929   -1.0075    1.7491 C   0  0  0  0  0  0  0  0  0  0  0  0
    2.0318   -1.0646    2.1942 C   0  0  0  0  0  0  0  0  0  0  0  0
    2.9467   -0.4127    1.3645 N   0  0  0  0  0  0  0  0  0  0  0  0
    4.2821   -0.8551    1.3368 C   0  0  0  0  0  0  0  0  0  0  0  0
    5.1178   -0.0559    0.4072 C   0  0  0  0  0  0  0  0  0  0  0  0
    5.7950    1.0853    0.8299 C   0  0  0  0  0  0  0  0  0  0  0  0
    6.5685    1.8182   -0.0459 C   0  0  0  0  0  0  0  0  0  0  0  0
    6.6874    1.4340   -1.3642 C   0  0  0  0  0  0  0  0  0  0  0  0
    7.6713    2.3522   -2.5119 Cl  0  0  0  0  0  0  0  0  0  0  0  0
    6.0268    0.3043   -1.8159 C   0  0  0  0  0  0  0  0  0  0  0  0
    5.2692   -0.3983   -0.9217 C   0  0  0  0  0  0  0  0  0  0  0  0
    2.5631    0.7009    0.6118 C   0  0  0  0  0  0  0  0  0  0  0  0
    1.1828    0.6566    0.0286 C   0  0  0  0  0  0  0  0  0  0  0  0
   -1.5738   -1.0954   -0.6777 C   0  0  0  0  0  0  0  0  0  0  0  0
   -2.3885   -0.1859   -0.1190 N   0  0  0  0  0  0  0  0  0  0  0  0
   -7.5936   -1.0766   -1.5078 H   0  0  0  0  0  0  0  0  0  0  0  0
   -6.5851   -0.2662   -2.7791 H   0  0  0  0  0  0  0  0  0  0  0  0
   -5.9166   -1.5832   -1.7997 H   0  0  0  0  0  0  0  0  0  0  0  0
   -5.9559    3.8751    1.6002 H   0  0  0  0  0  0  0  0  0  0  0  0
   -7.1149    2.6875    2.4149 H   0  0  0  0  0  0  0  0  0  0  0  0
   -7.5526    3.4979    0.9014 H   0  0  0  0  0  0  0  0  0  0  0  0
   -4.0788    1.8863    1.2002 H   0  0  0  0  0  0  0  0  0  0  0  0
    0.0763   -3.9189   -2.6598 H   0  0  0  0  0  0  0  0  0  0  0  0
    0.0878   -0.2042    2.3585 H   0  0  0  0  0  0  0  0  0  0  0  0
    0.0423   -1.9484    1.9225 H   0  0  0  0  0  0  0  0  0  0  0  0
    2.2967   -2.1618    2.2372 H   0  0  0  0  0  0  0  0  0  0  0  0
    2.1372   -0.6898    3.2413 H   0  0  0  0  0  0  0  0  0  0  0  0
    4.7331   -0.7102    2.3609 H   0  0  0  0  0  0  0  0  0  0  0  0
    4.4281   -1.9213    1.0568 H   0  0  0  0  0  0  0  0  0  0  0  0
    5.7049    1.3871    1.8545 H   0  0  0  0  0  0  0  0  0  0  0  0
    7.0887    2.6952    0.2794 H   0  0  0  0  0  0  0  0  0  0  0  0
    6.1110   -0.0124   -2.8559 H   0  0  0  0  0  0  0  0  0  0  0  0
    4.7289   -1.2993   -1.2366 H   0  0  0  0  0  0  0  0  0  0  0  0
    3.2722    0.8688   -0.2282 H   0  0  0  0  0  0  0  0  0  0  0  0
    2.6439    1.6217    1.2604 H   0  0  0  0  0  0  0  0  0  0  0  0
    0.5751    1.5306    0.3694 H   0  0  0  0  0  0  0  0  0  0  0  0
    1.1928    0.7364   -1.0893 H   0  0  0  0  0  0  0  0  0  0  0  0
   -2.0634    0.5143    0.5793 H   0  0  0  0  0  0  0  0  0  0  0  0
  1  2  1  0
  2  3  2  0
  3  4  1  0
  4  5  1  0
  4  6  1  0
  6  7  2  0
  7  8  1  0
  8  9  2  0
  9 10  1  0
 10 11  2  0
 11 12  1  0
 12 13  2  0
 13 14  1  0
 13 15  1  0
 15 16  1  0
 16 17  1  0
 17 18  1  0
 18 19  1  0
 19 20  1  0
 20 21  1  0
 21 22  2  0
 22 23  1  0
 23 24  2  0
 24 25  1  0
 24 26  1  0
 26 27  2  0
 19 28  1  0
 28 29  1  0
 15 30  2  0
 30 31  1  0
  7  2  1  0
 31  8  1  0
 30 10  1  0
 29 16  1  0
 27 21  1  0
  1 32  1  0
  1 33  1  0
  1 34  1  0
  5 35  1  0
  5 36  1  0
  5 37  1  0
  6 38  1  0
 12 39  1  0
 17 40  1  0
 17 41  1  0
 18 42  1  0
 18 43  1  0
 20 44  1  0
 20 45  1  0
 22 46  1  0
 23 47  1  0
 26 48  1  0
 27 49  1  0
 28 50  1  0
 28 51  1  0
 29 52  1  0
 29 53  1  0
 31 54  1  0
M  END
$$$$
