
     RDKit          3D

 36 37  0  0  0  0  0  0  0  0999 V2000
   -5.6615   -1.5573    0.1600 O   0  0  0  0  0  0  0  0  0  0  0  0
   -5.1649   -0.4477   -0.1026 C   0  0  0  0  0  0  0  0  0  0  0  0
   -3.9337   -0.0075    0.5726 C   0  0  0  0  0  0  0  0  0  0  0  0
   -3.5010   -1.0217    1.4807 N   0  0  0  0  0  0  0  0  0  0  0  0
   -2.0772   -0.6393    2.3343 S   0  0  0  0  0  6  0  0  0  0  0  0
   -1.7605   -1.7416    3.2892 O   0  0  0  0  0  0  0  0  0  0  0  0
   -2.3124    0.6713    3.0561 O   0  0  0  0  0  0  0  0  0  0  0  0
   -0.7809   -0.4281    1.1534 C   0  0  0  0  0  0  0  0  0  0  0  0
   -0.0103   -1.5043    0.7721 C   0  0  0  0  0  0  0  0  0  0  0  0
    1.0129   -1.3679   -0.1519 C   0  0  0  0  0  0  0  0  0  0  0  0
    1.2409   -0.1260   -0.6811 C   0  0  0  0  0  0  0  0  0  0  0  0
    2.2663    0.0074   -1.6062 O   0  0  0  0  0  0  0  0  0  0  0  0
    3.5376    0.3126   -1.1362 C   0  0  0  0  0  0  0  0  0  0  0  0
    4.4199   -0.7009   -0.7991 C   0  0  0  0  0  0  0  0  0  0  0  0
    5.6888   -0.3977   -0.3301 C   0  0  0  0  0  0  0  0  0  0  0  0
    6.1078    0.9104   -0.1860 C   0  0  0  0  0  0  0  0  0  0  0  0
    5.2352    1.9365   -0.5196 C   0  0  0  0  0  0  0  0  0  0  0  0
    3.9697    1.6095   -0.9872 C   0  0  0  0  0  0  0  0  0  0  0  0
    0.4735    0.9451   -0.3013 C   0  0  0  0  0  0  0  0  0  0  0  0
   -0.5596    0.8221    0.6277 C   0  0  0  0  0  0  0  0  0  0  0  0
   -5.7741    0.4016   -1.0491 N   0  0  0  0  0  0  0  0  0  0  0  0
   -6.9165   -0.0390   -1.6571 O   0  0  0  0  0  0  0  0  0  0  0  0
   -4.0647    0.9427    1.1284 H   0  0  0  0  0  0  0  0  0  0  0  0
   -3.1002    0.1333   -0.1779 H   0  0  0  0  0  0  0  0  0  0  0  0
   -3.5659   -1.9818    1.1322 H   0  0  0  0  0  0  0  0  0  0  0  0
   -0.2115   -2.4893    1.2096 H   0  0  0  0  0  0  0  0  0  0  0  0
    1.5935   -2.2353   -0.4240 H   0  0  0  0  0  0  0  0  0  0  0  0
    4.0685   -1.7179   -0.9207 H   0  0  0  0  0  0  0  0  0  0  0  0
    6.3807   -1.2030   -0.0657 H   0  0  0  0  0  0  0  0  0  0  0  0
    7.0930    1.1373    0.1782 H   0  0  0  0  0  0  0  0  0  0  0  0
    5.5675    2.9584   -0.4052 H   0  0  0  0  0  0  0  0  0  0  0  0
    3.2798    2.4091   -1.2509 H   0  0  0  0  0  0  0  0  0  0  0  0
    0.6523    1.9179   -0.7161 H   0  0  0  0  0  0  0  0  0  0  0  0
   -1.1651    1.6674    0.9273 H   0  0  0  0  0  0  0  0  0  0  0  0
   -5.4256    1.3411   -1.3257 H   0  0  0  0  0  0  0  0  0  0  0  0
   -6.6026   -0.5171   -2.4707 H   0  0  0  0  0  0  0  0  0  0  0  0
  1  2  2  0
  2  3  1  0
  3  4  1  0
  4  5  1  0
  5  6  2  0
  5  7  2  0
  5  8  1  0
  8  9  2  0
  9 10  1  0
 10 11  2  0
 11 12  1  0
 12 13  1  0
 13 14  2  0
 14 15  1  0
 15 16  2  0
 16 17  1  0
 17 18  2  0
 11 19  1  0
 19 20  2  0
  2 21  1  0
 21 22  1  0
 20  8  1  0
 18 13  1  0
  3 23  1  0
  3 24  1  0
  4 25  1  0
  9 26  1  0
 10 27  1  0
 14 28  1  0
 15 29  1  0
 16 30  1  0
 17 31  1  0
 18 32  1  0
 19 33  1  0
 20 34  1  0
 21 35  1  0
 22 36  1  0
M  END
$$$$
