
     RDKit          3D

 32 32  0  0  0  0  0  0  0  0999 V2000
   -3.3983   -0.9783   -1.1677 C   0  0  0  0  0  0  0  0  0  0  0  0
   -3.0625   -0.6205    0.1895 N   0  0  0  0  0  0  0  0  0  0  0  0
   -1.6526   -0.4035    0.4162 C   0  0  0  0  0  0  0  0  0  0  0  0
   -0.9043   -1.7039    0.2513 C   0  0  0  0  0  0  0  0  0  0  0  0
    0.5560   -1.4209    0.5458 C   0  0  0  0  0  0  0  0  0  0  0  0
    1.0866   -0.4271   -0.2730 O   0  0  0  0  0  0  0  0  0  0  0  0
    2.4111   -0.0310   -0.1269 C   0  0  0  0  0  0  0  0  0  0  0  0
    3.3820   -0.4961    0.7546 C   0  0  0  0  0  0  0  0  0  0  0  0
    4.6476    0.0402    0.7302 C   0  0  0  0  0  0  0  0  0  0  0  0
    5.0032    1.0515   -0.1590 C   0  0  0  0  0  0  0  0  0  0  0  0
    6.6261    1.7114   -0.1553 Cl  0  0  0  0  0  0  0  0  0  0  0  0
    4.0253    1.5118   -1.0389 C   0  0  0  0  0  0  0  0  0  0  0  0
    2.7374    0.9823   -1.0311 C   0  0  0  0  0  0  0  0  0  0  0  0
    1.6358    1.6726   -2.1947 Cl  0  0  0  0  0  0  0  0  0  0  0  0
   -3.8474    0.5243    0.6355 C   0  0  0  0  0  0  0  0  0  0  0  0
   -3.4545    1.7087   -0.1104 C   0  0  0  0  0  0  0  0  0  0  0  0
   -3.1286    2.7019   -0.7115 C   0  0  0  0  0  0  0  0  0  0  0  0
   -4.0152   -1.9215   -1.0766 H   0  0  0  0  0  0  0  0  0  0  0  0
   -4.0926   -0.2075   -1.6033 H   0  0  0  0  0  0  0  0  0  0  0  0
   -2.5603   -1.0824   -1.8544 H   0  0  0  0  0  0  0  0  0  0  0  0
   -1.5379   -0.0135    1.4499 H   0  0  0  0  0  0  0  0  0  0  0  0
   -1.2326    0.3711   -0.2612 H   0  0  0  0  0  0  0  0  0  0  0  0
   -1.0638   -2.0922   -0.7846 H   0  0  0  0  0  0  0  0  0  0  0  0
   -1.3051   -2.4871    0.9198 H   0  0  0  0  0  0  0  0  0  0  0  0
    0.6693   -1.2259    1.6256 H   0  0  0  0  0  0  0  0  0  0  0  0
    1.0901   -2.4106    0.3930 H   0  0  0  0  0  0  0  0  0  0  0  0
    3.0129   -1.2790    1.3987 H   0  0  0  0  0  0  0  0  0  0  0  0
    5.3597   -0.3647    1.4432 H   0  0  0  0  0  0  0  0  0  0  0  0
    4.3362    2.2955   -1.7105 H   0  0  0  0  0  0  0  0  0  0  0  0
   -3.5834    0.6821    1.7228 H   0  0  0  0  0  0  0  0  0  0  0  0
   -4.9156    0.3269    0.5708 H   0  0  0  0  0  0  0  0  0  0  0  0
   -2.8245    3.5854   -1.2396 H   0  0  0  0  0  0  0  0  0  0  0  0
  1  2  1  0
  2  3  1  0
  3  4  1  0
  4  5  1  0
  5  6  1  0
  6  7  1  0
  7  8  2  0
  8  9  1  0
  9 10  2  0
 10 11  1  0
 10 12  1  0
 12 13  2  0
 13 14  1  0
  2 15  1  0
 15 16  1  0
 16 17  3  0
 13  7  1  0
  1 18  1  0
  1 19  1  0
  1 20  1  0
  3 21  1  0
  3 22  1  0
  4 23  1  0
  4 24  1  0
  5 25  1  0
  5 26  1  0
  8 27  1  0
  9 28  1  0
 12 29  1  0
 15 30  1  0
 15 31  1  0
 17 32  1  0
M  END
$$$$
