
     RDKit          3D

 62 66  0  0  0  0  0  0  0  0999 V2000
    2.2071   -3.8604   -0.3794 C   0  0  0  0  0  0  0  0  0  0  0  0
    1.4285   -2.7128   -0.2300 O   0  0  0  0  0  0  0  0  0  0  0  0
    1.9996   -1.4593   -0.0292 C   0  0  0  0  0  0  0  0  0  0  0  0
    3.3738   -1.3717    0.0203 C   0  0  0  0  0  0  0  0  0  0  0  0
    4.0078   -0.1655    0.2157 C   0  0  0  0  0  0  0  0  0  0  0  0
    5.4230   -0.0901    0.2615 N   0  0  0  0  0  0  0  0  0  0  0  0
    6.2268   -1.2690    0.0215 C   0  0  0  0  0  0  0  0  0  0  0  0
    7.6253   -0.9046   -0.4312 C   0  0  0  0  0  0  0  0  0  0  0  0
    8.2508    0.1111    0.3577 N   0  0  0  0  0  0  0  0  0  0  0  0
    8.7982    1.1777   -0.4819 C   0  0  0  0  0  0  0  0  0  0  0  0
    7.3809    0.7438    1.3145 C   0  0  0  0  0  0  0  0  0  0  0  0
    6.1121    1.1480    0.5489 C   0  0  0  0  0  0  0  0  0  0  0  0
    3.2344    0.9633    0.3624 C   0  0  0  0  0  0  0  0  0  0  0  0
    1.8392    0.8429    0.3075 C   0  0  0  0  0  0  0  0  0  0  0  0
    1.1777   -0.3270    0.1167 C   0  0  0  0  0  0  0  0  0  0  0  0
   -0.1996   -0.5242    0.0512 N   0  0  0  0  0  0  0  0  0  0  0  0
   -1.1953    0.4751    0.1733 C   0  0  0  0  0  0  0  0  0  0  0  0
   -0.9266    1.7701    0.3715 N   0  0  0  0  0  0  0  0  0  0  0  0
   -1.8268    2.7172    0.4895 C   0  0  0  0  0  0  0  0  0  0  0  0
   -3.1742    2.3757    0.4059 C   0  0  0  0  0  0  0  0  0  0  0  0
   -3.5066    1.0705    0.2028 C   0  0  0  0  0  0  0  0  0  0  0  0
   -4.8760    0.5616    0.1516 C   0  0  0  0  0  0  0  0  0  0  0  0
   -5.2507   -0.7514    0.4290 C   0  0  0  0  0  0  0  0  0  0  0  0
   -6.5721   -0.9241    0.2539 N   0  0  0  0  0  0  0  0  0  0  0  0
   -7.3298   -2.1496    0.4458 C   0  0  0  0  0  0  0  0  0  0  0  0
   -7.1016    0.2476   -0.1387 C   0  0  0  0  0  0  0  0  0  0  0  0
   -8.3807    0.6231   -0.4656 C   0  0  0  0  0  0  0  0  0  0  0  0
   -9.5065   -0.3700   -0.3901 C   0  0  0  0  0  0  0  0  0  0  0  0
   -8.6529    1.8991   -0.8622 N   0  0  0  0  0  0  0  0  0  0  0  0
   -7.6739    2.8008   -0.9379 C   0  0  0  0  0  0  0  0  0  0  0  0
   -6.3772    2.4566   -0.6158 C   0  0  0  0  0  0  0  0  0  0  0  0
   -6.0308    1.1777   -0.2025 C   0  0  0  0  0  0  0  0  0  0  0  0
   -2.4942    0.1567    0.0933 N   0  0  0  0  0  0  0  0  0  0  0  0
    2.9489   -3.7322   -1.2109 H   0  0  0  0  0  0  0  0  0  0  0  0
    1.5896   -4.7554   -0.5813 H   0  0  0  0  0  0  0  0  0  0  0  0
    2.7790   -4.0965    0.5656 H   0  0  0  0  0  0  0  0  0  0  0  0
    3.9461   -2.3052   -0.1014 H   0  0  0  0  0  0  0  0  0  0  0  0
    5.8031   -1.8921   -0.7945 H   0  0  0  0  0  0  0  0  0  0  0  0
    6.3515   -1.8811    0.9501 H   0  0  0  0  0  0  0  0  0  0  0  0
    8.2515   -1.8314   -0.3329 H   0  0  0  0  0  0  0  0  0  0  0  0
    7.6404   -0.6496   -1.5048 H   0  0  0  0  0  0  0  0  0  0  0  0
    8.8125    2.1483    0.0186 H   0  0  0  0  0  0  0  0  0  0  0  0
    9.8388    0.9085   -0.7449 H   0  0  0  0  0  0  0  0  0  0  0  0
    8.1649    1.2518   -1.4037 H   0  0  0  0  0  0  0  0  0  0  0  0
    7.1074    0.0072    2.0964 H   0  0  0  0  0  0  0  0  0  0  0  0
    7.8753    1.6446    1.7082 H   0  0  0  0  0  0  0  0  0  0  0  0
    6.3863    1.6555   -0.3934 H   0  0  0  0  0  0  0  0  0  0  0  0
    5.5660    1.8107    1.2489 H   0  0  0  0  0  0  0  0  0  0  0  0
    3.6822    1.9342    0.5170 H   0  0  0  0  0  0  0  0  0  0  0  0
    1.2941    1.7462    0.4268 H   0  0  0  0  0  0  0  0  0  0  0  0
   -0.5616   -1.5153   -0.1054 H   0  0  0  0  0  0  0  0  0  0  0  0
   -1.5991    3.7425    0.6468 H   0  0  0  0  0  0  0  0  0  0  0  0
   -3.9260    3.1458    0.5375 H   0  0  0  0  0  0  0  0  0  0  0  0
   -4.5491   -1.5261    0.7460 H   0  0  0  0  0  0  0  0  0  0  0  0
   -6.5437   -2.9764    0.4685 H   0  0  0  0  0  0  0  0  0  0  0  0
   -7.9711   -2.4207   -0.4013 H   0  0  0  0  0  0  0  0  0  0  0  0
   -7.8005   -2.2235    1.4462 H   0  0  0  0  0  0  0  0  0  0  0  0
   -9.5955   -0.9836   -1.2983 H   0  0  0  0  0  0  0  0  0  0  0  0
  -10.4600    0.2513   -0.3849 H   0  0  0  0  0  0  0  0  0  0  0  0
   -9.5193   -0.8944    0.5593 H   0  0  0  0  0  0  0  0  0  0  0  0
   -7.9178    3.8011   -1.2554 H   0  0  0  0  0  0  0  0  0  0  0  0
   -5.6034    3.1967   -0.7139 H   0  0  0  0  0  0  0  0  0  0  0  0
  1  2  1  0
  2  3  1  0
  3  4  2  0
  4  5  1  0
  5  6  1  0
  6  7  1  0
  7  8  1  0
  8  9  1  0
  9 10  1  0
  9 11  1  0
 11 12  1  0
  5 13  2  0
 13 14  1  0
 14 15  2  0
 15 16  1  0
 16 17  1  0
 17 18  2  0
 18 19  1  0
 19 20  2  0
 20 21  1  0
 21 22  1  0
 22 23  2  0
 23 24  1  0
 24 25  1  0
 24 26  1  0
 26 27  2  0
 27 28  1  0
 27 29  1  0
 29 30  2  0
 30 31  1  0
 31 32  2  0
 21 33  2  0
 15  3  1  0
 33 17  1  0
 12  6  1  0
 32 22  1  0
 32 26  1  0
  1 34  1  0
  1 35  1  0
  1 36  1  0
  4 37  1  0
  7 38  1  0
  7 39  1  0
  8 40  1  0
  8 41  1  0
 10 42  1  0
 10 43  1  0
 10 44  1  0
 11 45  1  0
 11 46  1  0
 12 47  1  0
 12 48  1  0
 13 49  1  0
 14 50  1  0
 16 51  1  0
 19 52  1  0
 20 53  1  0
 23 54  1  0
 25 55  1  0
 25 56  1  0
 25 57  1  0
 28 58  1  0
 28 59  1  0
 28 60  1  0
 30 61  1  0
 31 62  1  0
M  END
$$$$
