
     RDKit          3D

 59 64  0  0  0  0  0  0  0  0999 V2000
    8.2078    1.7648   -1.8756 C   0  0  0  0  0  0  0  0  0  0  0  0
    7.2304    0.8214   -1.9732 C   0  0  0  0  0  0  0  0  0  0  0  0
    6.7575    0.1870   -0.8286 C   0  0  0  0  0  0  0  0  0  0  0  0
    5.7126   -0.8356   -0.9298 C   0  0  0  0  0  0  0  0  0  0  0  0
    5.8667   -2.1834   -1.1393 C   0  0  0  0  0  0  0  0  0  0  0  0
    4.6564   -2.7333   -1.1656 N   0  0  0  0  0  0  0  0  0  0  0  0
    3.7498   -1.7870   -0.9814 N   0  0  0  0  0  0  0  0  0  0  0  0
    2.3937   -1.8061   -0.9165 C   0  0  0  0  0  0  0  0  0  0  0  0
    1.6163   -0.6898   -0.7082 C   0  0  0  0  0  0  0  0  0  0  0  0
    0.1411   -0.8007   -0.6381 C   0  0  0  0  0  0  0  0  0  0  0  0
   -0.5222   -1.7546   -1.3803 C   0  0  0  0  0  0  0  0  0  0  0  0
   -1.8802   -1.9267   -1.3408 C   0  0  0  0  0  0  0  0  0  0  0  0
   -2.6017   -1.0746   -0.4944 C   0  0  0  0  0  0  0  0  0  0  0  0
   -3.9650   -1.2871   -0.4865 O   0  0  0  0  0  0  0  0  0  0  0  0
   -4.7664   -0.4619    0.3529 C   0  0  0  0  0  0  0  0  0  0  0  0
   -6.2215   -0.8466    0.2431 C   0  0  0  0  0  0  0  0  0  0  0  0
   -6.9955    0.0072    1.1053 N   0  0  0  0  0  0  0  0  0  0  0  0
   -8.3980   -0.3857    1.1304 C   0  0  0  0  0  0  0  0  0  0  0  0
   -9.1114   -0.0166   -0.1439 C   0  0  0  0  0  0  0  0  0  0  0  0
   -9.0894    1.4034   -0.3631 N   0  0  0  0  0  0  0  0  0  0  0  0
   -8.2466    2.0552    0.6250 C   0  0  0  0  0  0  0  0  0  0  0  0
   -6.8689    1.3773    0.6647 C   0  0  0  0  0  0  0  0  0  0  0  0
   -1.9711   -0.1426    0.2320 N   0  0  0  0  0  0  0  0  0  0  0  0
   -0.6303    0.0016    0.1706 C   0  0  0  0  0  0  0  0  0  0  0  0
    2.2766    0.5057   -0.5596 C   0  0  0  0  0  0  0  0  0  0  0  0
    3.6157    0.5205   -0.6245 N   0  0  0  0  0  0  0  0  0  0  0  0
    4.3621   -0.5974   -0.8310 C   0  0  0  0  0  0  0  0  0  0  0  0
    7.2976    0.5343    0.3880 C   0  0  0  0  0  0  0  0  0  0  0  0
    6.8570   -0.0680    1.5546 C   0  0  0  0  0  0  0  0  0  0  0  0
    7.4251    0.3137    2.7507 C   0  0  0  0  0  0  0  0  0  0  0  0
    8.4187    1.2750    2.8300 C   0  0  0  0  0  0  0  0  0  0  0  0
    8.8220    1.8408    1.6615 N   0  0  0  0  0  0  0  0  0  0  0  0
    8.2877    1.4902    0.4815 C   0  0  0  0  0  0  0  0  0  0  0  0
    8.7528    2.1181   -0.6682 C   0  0  0  0  0  0  0  0  0  0  0  0
    8.6113    2.2936   -2.7489 H   0  0  0  0  0  0  0  0  0  0  0  0
    6.8030    0.5475   -2.9278 H   0  0  0  0  0  0  0  0  0  0  0  0
    6.8421   -2.6706   -1.2585 H   0  0  0  0  0  0  0  0  0  0  0  0
    1.8777   -2.7599   -1.0367 H   0  0  0  0  0  0  0  0  0  0  0  0
    0.0701   -2.3891   -2.0191 H   0  0  0  0  0  0  0  0  0  0  0  0
   -2.3955   -2.6912   -1.9390 H   0  0  0  0  0  0  0  0  0  0  0  0
   -4.6469    0.5812    0.0643 H   0  0  0  0  0  0  0  0  0  0  0  0
   -4.3781   -0.6564    1.3940 H   0  0  0  0  0  0  0  0  0  0  0  0
   -6.3630   -1.9180    0.4516 H   0  0  0  0  0  0  0  0  0  0  0  0
   -6.5980   -0.6709   -0.7987 H   0  0  0  0  0  0  0  0  0  0  0  0
   -8.4942   -1.4897    1.2505 H   0  0  0  0  0  0  0  0  0  0  0  0
   -8.8564    0.0899    2.0177 H   0  0  0  0  0  0  0  0  0  0  0  0
   -8.6120   -0.5443   -0.9794 H   0  0  0  0  0  0  0  0  0  0  0  0
  -10.1685   -0.3530   -0.0547 H   0  0  0  0  0  0  0  0  0  0  0  0
   -8.6413    1.5970   -1.2940 H   0  0  0  0  0  0  0  0  0  0  0  0
   -8.0467    3.1125    0.3246 H   0  0  0  0  0  0  0  0  0  0  0  0
   -8.6516    2.0694    1.6334 H   0  0  0  0  0  0  0  0  0  0  0  0
   -6.2478    2.0078    1.3136 H   0  0  0  0  0  0  0  0  0  0  0  0
   -6.4347    1.3729   -0.3637 H   0  0  0  0  0  0  0  0  0  0  0  0
   -0.1497    0.7676    0.7733 H   0  0  0  0  0  0  0  0  0  0  0  0
    1.7608    1.4346   -0.3932 H   0  0  0  0  0  0  0  0  0  0  0  0
    6.0814   -0.8175    1.4861 H   0  0  0  0  0  0  0  0  0  0  0  0
    7.0757   -0.1626    3.6675 H   0  0  0  0  0  0  0  0  0  0  0  0
    8.8434    1.5550    3.7814 H   0  0  0  0  0  0  0  0  0  0  0  0
    9.5398    2.8761   -0.5823 H   0  0  0  0  0  0  0  0  0  0  0  0
  1  2  2  0
  2  3  1  0
  3  4  1  0
  4  5  1  0
  5  6  2  0
  6  7  1  0
  7  8  1  0
  8  9  2  0
  9 10  1  0
 10 11  2  0
 11 12  1  0
 12 13  2  0
 13 14  1  0
 14 15  1  0
 15 16  1  0
 16 17  1  0
 17 18  1  0
 18 19  1  0
 19 20  1  0
 20 21  1  0
 21 22  1  0
 13 23  1  0
 23 24  2  0
  9 25  1  0
 25 26  2  0
 26 27  1  0
  3 28  2  0
 28 29  1  0
 29 30  2  0
 30 31  1  0
 31 32  2  0
 32 33  1  0
 33 34  2  0
 34  1  1  0
 27  4  2  0
 33 28  1  0
 27  7  1  0
 24 10  1  0
 22 17  1  0
  1 35  1  0
  2 36  1  0
  5 37  1  0
  8 38  1  0
 11 39  1  0
 12 40  1  0
 15 41  1  0
 15 42  1  0
 16 43  1  0
 16 44  1  0
 18 45  1  0
 18 46  1  0
 19 47  1  0
 19 48  1  0
 20 49  1  0
 21 50  1  0
 21 51  1  0
 22 52  1  0
 22 53  1  0
 24 54  1  0
 25 55  1  0
 29 56  1  0
 30 57  1  0
 31 58  1  0
 34 59  1  0
M  END
$$$$
