
     RDKit          3D

 28 28  0  0  0  0  0  0  0  0999 V2000
    2.3635    1.3657   -0.0405 N   0  0  0  0  0  0  0  0  0  0  0  0
    1.3908    0.6341    0.7914 C   0  0  1  0  0  0  0  0  0  0  0  0
    0.0631    1.2164    0.5756 C   0  0  0  0  0  0  0  0  0  0  0  0
   -0.9360    0.3778   -0.1517 C   0  0  2  0  0  0  0  0  0  0  0  0
   -0.7086    0.3297   -1.5337 O   0  0  0  0  0  0  0  0  0  0  0  0
   -2.3263    0.9347    0.0427 C   0  0  0  0  0  0  0  0  0  0  0  0
   -2.3586    2.2040   -0.5253 O   0  0  0  0  0  0  0  0  0  0  0  0
   -0.8170   -1.0432    0.3569 C   0  0  1  0  0  0  0  0  0  0  0  0
   -1.8490   -1.8497   -0.0432 O   0  0  0  0  0  0  0  0  0  0  0  0
    0.5300   -1.5002   -0.2237 C   0  0  2  0  0  0  0  0  0  0  0  0
    0.6638   -2.8736   -0.1326 O   0  0  0  0  0  0  0  0  0  0  0  0
    1.5875   -0.8038    0.5643 C   0  0  1  0  0  0  0  0  0  0  0  0
    2.8159   -1.0572   -0.0929 O   0  0  0  0  0  0  0  0  0  0  0  0
    2.5028    2.3422    0.3366 H   0  0  0  0  0  0  0  0  0  0  0  0
    2.0792    1.3614   -1.0438 H   0  0  0  0  0  0  0  0  0  0  0  0
    1.7182    0.8708    1.8476 H   0  0  0  0  0  0  0  0  0  0  0  0
   -0.4238    1.5148    1.5522 H   0  0  0  0  0  0  0  0  0  0  0  0
    0.1207    2.1942    0.0106 H   0  0  0  0  0  0  0  0  0  0  0  0
   -1.2631   -0.4236   -1.8806 H   0  0  0  0  0  0  0  0  0  0  0  0
   -3.0971    0.3124   -0.4355 H   0  0  0  0  0  0  0  0  0  0  0  0
   -2.5120    1.0611    1.1315 H   0  0  0  0  0  0  0  0  0  0  0  0
   -2.4702    2.1625   -1.5080 H   0  0  0  0  0  0  0  0  0  0  0  0
   -0.6691   -1.0031    1.4559 H   0  0  0  0  0  0  0  0  0  0  0  0
   -2.5693   -1.8054    0.6479 H   0  0  0  0  0  0  0  0  0  0  0  0
    0.6311   -1.1858   -1.2848 H   0  0  0  0  0  0  0  0  0  0  0  0
    1.1992   -3.1747   -0.9095 H   0  0  0  0  0  0  0  0  0  0  0  0
    1.6831   -1.3685    1.5384 H   0  0  0  0  0  0  0  0  0  0  0  0
    2.6513   -0.7929   -1.0460 H   0  0  0  0  0  0  0  0  0  0  0  0
  1  2  1  0
  2  3  1  0
  3  4  1  0
  4  5  1  6
  4  6  1  0
  6  7  1  0
  4  8  1  0
  8  9  1  0
  8 10  1  0
 10 11  1  0
 10 12  1  0
 12 13  1  0
 12  2  1  0
  1 14  1  0
  1 15  1  0
  2 16  1  1
  3 17  1  0
  3 18  1  0
  5 19  1  0
  6 20  1  0
  6 21  1  0
  7 22  1  0
  8 23  1  1
  9 24  1  0
 10 25  1  6
 11 26  1  0
 12 27  1  1
 13 28  1  0
M  END
$$$$
