
     RDKit          3D

 54 57  0  0  0  0  0  0  0  0999 V2000
   -5.6453    0.7382    1.5361 C   0  0  0  0  0  0  0  0  0  0  0  0
   -4.5040    0.8782    0.6823 N   0  0  0  0  0  0  0  0  0  0  0  0
   -4.8384    1.7800   -0.3897 C   0  0  0  0  0  0  0  0  0  0  0  0
   -4.4984    1.1198   -1.6818 C   0  0  0  0  0  0  0  0  0  0  0  0
   -4.0199   -0.2577   -1.3505 C   0  0  0  0  0  0  0  0  0  0  0  0
   -4.0557   -0.3516    0.1349 C   0  0  1  0  0  0  0  0  0  0  0  0
   -2.7672   -0.8483    0.7374 C   0  0  0  0  0  0  0  0  0  0  0  0
   -1.6535    0.1551    0.5235 C   0  0  0  0  0  0  0  0  0  0  0  0
   -0.4190   -0.3249    1.1016 N   0  0  0  0  0  0  0  0  0  0  0  0
   -0.3159   -0.4264    2.5564 C   0  0  0  0  0  0  0  0  0  0  0  0
    0.9431   -1.1892    2.9015 C   0  0  0  0  0  0  0  0  0  0  0  0
    2.0916   -0.4651    2.2071 C   0  0  0  0  0  0  0  0  0  0  0  0
    1.9418   -0.7667    0.7593 C   0  0  0  0  0  0  0  0  0  0  0  0
    2.9963   -1.1120   -0.0515 C   0  0  0  0  0  0  0  0  0  0  0  0
    2.8402   -1.3966   -1.4145 C   0  0  0  0  0  0  0  0  0  0  0  0
    3.9528   -1.7555   -2.2166 N   0  0  0  0  0  0  0  0  0  0  0  0
    4.9977   -1.0342   -2.3395 C   0  0  0  0  0  0  0  0  0  0  0  0
    6.0971   -1.4499   -3.1664 N   0  0  0  0  0  0  0  0  0  0  0  0
    5.1156    0.2228   -1.6724 C   0  0  0  0  0  0  0  0  0  0  0  0
    4.1693    1.2443   -1.4578 C   0  0  0  0  0  0  0  0  0  0  0  0
    4.5417    2.3199   -0.7900 C   0  0  0  0  0  0  0  0  0  0  0  0
    5.8310    2.4366   -0.3150 C   0  0  0  0  0  0  0  0  0  0  0  0
    6.5433    0.8788   -0.8785 S   0  0  0  0  0  0  0  0  0  0  0  0
    1.5577   -1.3135   -1.9140 C   0  0  0  0  0  0  0  0  0  0  0  0
    0.5049   -0.9666   -1.0941 C   0  0  0  0  0  0  0  0  0  0  0  0
    0.6643   -0.6876    0.2443 C   0  0  0  0  0  0  0  0  0  0  0  0
   -5.9047    1.7267    1.9900 H   0  0  0  0  0  0  0  0  0  0  0  0
   -6.5154    0.4518    0.8962 H   0  0  0  0  0  0  0  0  0  0  0  0
   -5.5404   -0.0223    2.3178 H   0  0  0  0  0  0  0  0  0  0  0  0
   -4.2611    2.7204   -0.3000 H   0  0  0  0  0  0  0  0  0  0  0  0
   -5.9136    2.0782   -0.3556 H   0  0  0  0  0  0  0  0  0  0  0  0
   -3.7570    1.6968   -2.2802 H   0  0  0  0  0  0  0  0  0  0  0  0
   -5.3996    1.0242   -2.3514 H   0  0  0  0  0  0  0  0  0  0  0  0
   -4.6391   -1.0351   -1.8540 H   0  0  0  0  0  0  0  0  0  0  0  0
   -2.9734   -0.3578   -1.7121 H   0  0  0  0  0  0  0  0  0  0  0  0
   -4.8261   -1.1390    0.3891 H   0  0  0  0  0  0  0  0  0  0  0  0
   -2.9175   -0.9214    1.8435 H   0  0  0  0  0  0  0  0  0  0  0  0
   -2.5449   -1.8376    0.3004 H   0  0  0  0  0  0  0  0  0  0  0  0
   -1.9486    1.0739    1.1125 H   0  0  0  0  0  0  0  0  0  0  0  0
   -1.5754    0.5033   -0.5105 H   0  0  0  0  0  0  0  0  0  0  0  0
   -0.3298    0.5704    3.0296 H   0  0  0  0  0  0  0  0  0  0  0  0
   -1.1701   -1.0467    2.9212 H   0  0  0  0  0  0  0  0  0  0  0  0
    0.8372   -2.1959    2.4139 H   0  0  0  0  0  0  0  0  0  0  0  0
    1.0985   -1.2776    3.9726 H   0  0  0  0  0  0  0  0  0  0  0  0
    3.0760   -0.7986    2.5924 H   0  0  0  0  0  0  0  0  0  0  0  0
    2.0240    0.6378    2.3841 H   0  0  0  0  0  0  0  0  0  0  0  0
    3.9955   -1.1710    0.3611 H   0  0  0  0  0  0  0  0  0  0  0  0
    6.6034   -2.3451   -3.0303 H   0  0  0  0  0  0  0  0  0  0  0  0
    6.3973   -0.8252   -3.9345 H   0  0  0  0  0  0  0  0  0  0  0  0
    3.1197    1.1104   -1.8723 H   0  0  0  0  0  0  0  0  0  0  0  0
    3.8214    3.1799   -0.5847 H   0  0  0  0  0  0  0  0  0  0  0  0
    6.3166    3.1962    0.2280 H   0  0  0  0  0  0  0  0  0  0  0  0
    1.3779   -1.5221   -2.9594 H   0  0  0  0  0  0  0  0  0  0  0  0
   -0.5219   -0.9026   -1.4906 H   0  0  0  0  0  0  0  0  0  0  0  0
  1  2  1  0
  2  3  1  0
  3  4  1  0
  4  5  1  0
  5  6  1  0
  6  7  1  0
  7  8  1  0
  8  9  1  0
  9 10  1  0
 10 11  1  0
 11 12  1  0
 12 13  1  0
 13 14  2  0
 14 15  1  0
 15 16  1  0
 16 17  2  3
 17 18  1  0
 17 19  1  0
 19 20  2  0
 20 21  1  0
 21 22  2  0
 22 23  1  0
 15 24  2  0
 24 25  1  0
 25 26  2  0
  6  2  1  0
 26  9  1  0
 26 13  1  0
 23 19  1  0
  1 27  1  0
  1 28  1  0
  1 29  1  0
  3 30  1  0
  3 31  1  0
  4 32  1  0
  4 33  1  0
  5 34  1  0
  5 35  1  0
  6 36  1  6
  7 37  1  0
  7 38  1  0
  8 39  1  0
  8 40  1  0
 10 41  1  0
 10 42  1  0
 11 43  1  0
 11 44  1  0
 12 45  1  0
 12 46  1  0
 14 47  1  0
 18 48  1  0
 18 49  1  0
 20 50  1  0
 21 51  1  0
 22 52  1  0
 24 53  1  0
 25 54  1  0
M  END
$$$$
