
     RDKit          3D

 46 48  0  0  0  0  0  0  0  0999 V2000
   -3.3760    2.2735    0.1135 C   0  0  0  0  0  0  0  0  0  0  0  0
   -2.1925    2.4807    0.9979 C   0  0  0  0  0  0  0  0  0  0  0  0
   -0.9623    2.1095    0.3289 N   0  0  0  0  0  0  0  0  0  0  0  0
   -0.4570    3.3037   -0.3757 C   0  0  0  0  0  0  0  0  0  0  0  0
    0.4455    4.1367    0.4678 C   0  0  0  0  0  0  0  0  0  0  0  0
   -0.2097    0.9323    0.2097 C   0  0  0  0  0  0  0  0  0  0  0  0
    0.8066    1.2369   -0.4846 O   0  0  0  0  0  0  0  0  0  0  0  0
   -0.1434   -0.4654    0.5660 C   0  0  0  0  0  0  0  0  0  0  0  0
    1.0727   -1.0358    0.2724 C   0  0  0  0  0  0  0  0  0  0  0  0
    2.3422   -0.8322   -0.2435 N   0  0  0  0  0  0  0  0  0  0  0  0
    2.6698   -0.9996   -1.6171 C   0  0  0  0  0  0  0  0  0  0  0  0
    1.7437   -1.3508   -2.3844 O   0  0  0  0  0  0  0  0  0  0  0  0
    4.0381   -0.7377   -1.9340 C   0  0  0  0  0  0  0  0  0  0  0  0
    4.6057   -0.8410   -3.2618 C   0  0  0  0  0  0  0  0  0  0  0  0
    5.9267   -0.5635   -3.4286 C   0  0  0  0  0  0  0  0  0  0  0  0
    6.7200   -0.1688   -2.2413 C   0  0  0  0  0  0  0  0  0  0  0  0
    5.3840   -0.2408   -0.8947 S   0  0  0  0  0  0  0  0  0  0  0  0
    0.8916   -2.7960    0.8071 S   0  0  0  0  0  0  0  0  0  0  0  0
   -0.8436   -2.5848    1.3859 C   0  0  0  0  0  0  0  0  0  0  0  0
   -1.0971   -1.2643    1.1262 C   0  0  0  0  0  0  0  0  0  0  0  0
   -2.4980   -1.1849    1.5816 C   0  0  0  0  0  0  0  0  0  0  0  0
   -3.3146   -2.1733    0.7515 C   0  0  0  0  0  0  0  0  0  0  0  0
   -3.0770   -3.5226    1.3850 C   0  0  0  0  0  0  0  0  0  0  0  0
   -1.6951   -3.6140    1.9854 C   0  0  0  0  0  0  0  0  0  0  0  0
   -3.0787    1.6026   -0.7326 H   0  0  0  0  0  0  0  0  0  0  0  0
   -4.1989    1.6965    0.6276 H   0  0  0  0  0  0  0  0  0  0  0  0
   -3.8255    3.2126   -0.2367 H   0  0  0  0  0  0  0  0  0  0  0  0
   -2.3517    1.8920    1.9474 H   0  0  0  0  0  0  0  0  0  0  0  0
   -2.1813    3.5672    1.2636 H   0  0  0  0  0  0  0  0  0  0  0  0
    0.1012    2.9456   -1.2945 H   0  0  0  0  0  0  0  0  0  0  0  0
   -1.2757    3.9077   -0.7666 H   0  0  0  0  0  0  0  0  0  0  0  0
    1.1688    4.6858   -0.1602 H   0  0  0  0  0  0  0  0  0  0  0  0
    0.9209    3.5153    1.2336 H   0  0  0  0  0  0  0  0  0  0  0  0
   -0.1516    4.9275    0.9986 H   0  0  0  0  0  0  0  0  0  0  0  0
    3.0439   -0.5375    0.4998 H   0  0  0  0  0  0  0  0  0  0  0  0
    3.9867   -1.1318   -4.0907 H   0  0  0  0  0  0  0  0  0  0  0  0
    6.4454   -0.6096   -4.3694 H   0  0  0  0  0  0  0  0  0  0  0  0
    7.7736    0.0664   -2.2961 H   0  0  0  0  0  0  0  0  0  0  0  0
   -2.9879   -0.2204    1.4279 H   0  0  0  0  0  0  0  0  0  0  0  0
   -2.6315   -1.4363    2.6578 H   0  0  0  0  0  0  0  0  0  0  0  0
   -4.3828   -1.9177    0.9032 H   0  0  0  0  0  0  0  0  0  0  0  0
   -3.0607   -2.1061   -0.3052 H   0  0  0  0  0  0  0  0  0  0  0  0
   -3.1531   -4.2866    0.5851 H   0  0  0  0  0  0  0  0  0  0  0  0
   -3.8732   -3.7328    2.1219 H   0  0  0  0  0  0  0  0  0  0  0  0
   -1.8238   -3.5320    3.0839 H   0  0  0  0  0  0  0  0  0  0  0  0
   -1.2445   -4.6061    1.7884 H   0  0  0  0  0  0  0  0  0  0  0  0
  1  2  1  0
  2  3  1  0
  3  4  1  0
  4  5  1  0
  3  6  1  0
  6  7  2  0
  6  8  1  0
  8  9  2  0
  9 10  1  0
 10 11  1  0
 11 12  2  0
 11 13  1  0
 13 14  2  0
 14 15  1  0
 15 16  2  0
 16 17  1  0
  9 18  1  0
 18 19  1  0
 19 20  2  0
 20 21  1  0
 21 22  1  0
 22 23  1  0
 23 24  1  0
 20  8  1  0
 17 13  1  0
 24 19  1  0
  1 25  1  0
  1 26  1  0
  1 27  1  0
  2 28  1  0
  2 29  1  0
  4 30  1  0
  4 31  1  0
  5 32  1  0
  5 33  1  0
  5 34  1  0
 10 35  1  0
 14 36  1  0
 15 37  1  0
 16 38  1  0
 21 39  1  0
 21 40  1  0
 22 41  1  0
 22 42  1  0
 23 43  1  0
 23 44  1  0
 24 45  1  0
 24 46  1  0
M  END
$$$$
