
     RDKit          3D

 73 80  0  0  0  0  0  0  0  0999 V2000
   -6.8234   -1.1456   -2.9440 O   0  0  0  0  0  0  0  0  0  0  0  0
   -7.0749   -0.3708   -1.9698 C   0  0  0  0  0  0  0  0  0  0  0  0
   -8.1634    0.3990   -1.8585 N   0  0  0  0  0  0  0  0  0  0  0  0
   -8.0786    1.0839   -0.6835 C   0  0  0  0  0  0  0  0  0  0  0  0
   -8.9023    2.0014   -0.0667 C   0  0  0  0  0  0  0  0  0  0  0  0
   -8.5585    2.5462    1.1505 C   0  0  0  0  0  0  0  0  0  0  0  0
   -7.3640    2.1232    1.6986 C   0  0  0  0  0  0  0  0  0  0  0  0
   -6.5379    1.2064    1.0853 C   0  0  0  0  0  0  0  0  0  0  0  0
   -6.8887    0.6784   -0.1124 C   0  0  0  0  0  0  0  0  0  0  0  0
   -6.2573   -0.2272   -0.9065 N   0  0  0  0  0  0  0  0  0  0  0  0
   -4.9797   -0.8788   -0.6346 C   0  0  0  0  0  0  0  0  0  0  0  0
   -3.8681    0.0902   -0.5406 C   0  0  0  0  0  0  0  0  0  0  0  0
   -2.9411   -0.0977    0.6227 C   0  0  0  0  0  0  0  0  0  0  0  0
   -2.6876   -1.4823    0.7931 N   0  0  0  0  0  0  0  0  0  0  0  0
   -1.8422   -2.1092   -0.1521 C   0  0  0  0  0  0  0  0  0  0  0  0
   -0.4996   -1.4865   -0.1246 C   0  0  0  0  0  0  0  0  0  0  0  0
   -0.1686   -0.4495   -0.9574 C   0  0  0  0  0  0  0  0  0  0  0  0
    1.0977    0.0964   -0.8892 C   0  0  0  0  0  0  0  0  0  0  0  0
    2.0360   -0.3896    0.0083 C   0  0  0  0  0  0  0  0  0  0  0  0
    3.3694    0.1862    0.0801 C   0  0  0  0  0  0  0  0  0  0  0  0
    3.5317    1.4950    0.3922 N   0  0  0  0  0  0  0  0  0  0  0  0
    4.7530    2.0583    0.4664 C   0  0  0  0  0  0  0  0  0  0  0  0
    4.9362    3.3908    0.7830 C   0  0  0  0  0  0  0  0  0  0  0  0
    6.1991    3.9456    0.8528 C   0  0  0  0  0  0  0  0  0  0  0  0
    7.3153    3.1845    0.6084 C   0  0  0  0  0  0  0  0  0  0  0  0
    8.6328    3.7763    0.6848 C   0  0  0  0  0  0  0  0  0  0  0  0
    9.7980    3.1627    0.4741 N   0  0  0  0  0  0  0  0  0  0  0  0
   10.8005    4.0428    0.6376 N   0  0  0  0  0  0  0  0  0  0  0  0
   10.2106    5.1812    0.9469 N   0  0  0  0  0  0  0  0  0  0  0  0
    8.9001    5.0473    0.9821 N   0  0  0  0  0  0  0  0  0  0  0  0
    7.1058    1.8527    0.2934 C   0  0  0  0  0  0  0  0  0  0  0  0
    5.8556    1.2755    0.2174 C   0  0  0  0  0  0  0  0  0  0  0  0
    5.6772   -0.0270   -0.0923 N   0  0  0  0  0  0  0  0  0  0  0  0
    4.4735   -0.6218   -0.1753 C   0  0  0  0  0  0  0  0  0  0  0  0
    4.3053   -2.0229   -0.5098 C   0  0  0  0  0  0  0  0  0  0  0  0
    4.8454   -2.9792    0.3129 C   0  0  0  0  0  0  0  0  0  0  0  0
    4.6920   -4.3313    0.0024 C   0  0  0  0  0  0  0  0  0  0  0  0
    4.0085   -4.7295   -1.1149 C   0  0  0  0  0  0  0  0  0  0  0  0
    3.4663   -3.7792   -1.9413 C   0  0  0  0  0  0  0  0  0  0  0  0
    3.6229   -2.4318   -1.6259 C   0  0  0  0  0  0  0  0  0  0  0  0
    1.6849   -1.4215    0.8268 C   0  0  0  0  0  0  0  0  0  0  0  0
    0.4298   -1.9782    0.7741 C   0  0  0  0  0  0  0  0  0  0  0  0
   -3.8491   -2.2537    1.1576 C   0  0  0  0  0  0  0  0  0  0  0  0
   -5.1007   -1.8614    0.4824 C   0  0  0  0  0  0  0  0  0  0  0  0
   -8.9761    0.5158   -2.5029 H   0  0  0  0  0  0  0  0  0  0  0  0
   -9.8323    2.3184   -0.5119 H   0  0  0  0  0  0  0  0  0  0  0  0
   -9.2015    3.2793    1.6588 H   0  0  0  0  0  0  0  0  0  0  0  0
   -7.0992    2.5659    2.6728 H   0  0  0  0  0  0  0  0  0  0  0  0
   -5.6394    0.9337    1.5700 H   0  0  0  0  0  0  0  0  0  0  0  0
   -4.7720   -1.4947   -1.5643 H   0  0  0  0  0  0  0  0  0  0  0  0
   -3.2461    0.1582   -1.4583 H   0  0  0  0  0  0  0  0  0  0  0  0
   -4.3100    1.1239   -0.4278 H   0  0  0  0  0  0  0  0  0  0  0  0
   -3.3062    0.3924    1.5499 H   0  0  0  0  0  0  0  0  0  0  0  0
   -1.9914    0.4218    0.3903 H   0  0  0  0  0  0  0  0  0  0  0  0
   -2.3054   -2.0073   -1.1572 H   0  0  0  0  0  0  0  0  0  0  0  0
   -1.7786   -3.1964    0.1242 H   0  0  0  0  0  0  0  0  0  0  0  0
   -0.8683   -0.0332   -1.6797 H   0  0  0  0  0  0  0  0  0  0  0  0
    1.3771    0.9266   -1.5492 H   0  0  0  0  0  0  0  0  0  0  0  0
    4.0954    4.0294    0.9830 H   0  0  0  0  0  0  0  0  0  0  0  0
    6.2988    5.0104    1.1081 H   0  0  0  0  0  0  0  0  0  0  0  0
    8.2544    5.8368    1.2087 H   0  0  0  0  0  0  0  0  0  0  0  0
    7.9794    1.2329    0.0962 H   0  0  0  0  0  0  0  0  0  0  0  0
    5.3825   -2.6611    1.1921 H   0  0  0  0  0  0  0  0  0  0  0  0
    5.1353   -5.0452    0.6809 H   0  0  0  0  0  0  0  0  0  0  0  0
    3.9074   -5.8050   -1.3281 H   0  0  0  0  0  0  0  0  0  0  0  0
    2.9272   -4.0979   -2.8228 H   0  0  0  0  0  0  0  0  0  0  0  0
    3.1834   -1.7150   -2.2978 H   0  0  0  0  0  0  0  0  0  0  0  0
    2.3933   -1.8429    1.5568 H   0  0  0  0  0  0  0  0  0  0  0  0
    0.1511   -2.8006    1.4268 H   0  0  0  0  0  0  0  0  0  0  0  0
   -3.9230   -2.2337    2.2660 H   0  0  0  0  0  0  0  0  0  0  0  0
   -3.5795   -3.3274    0.9213 H   0  0  0  0  0  0  0  0  0  0  0  0
   -5.7991   -1.4347    1.2337 H   0  0  0  0  0  0  0  0  0  0  0  0
   -5.6193   -2.7997    0.1276 H   0  0  0  0  0  0  0  0  0  0  0  0
  1  2  2  0
  2  3  1  0
  3  4  1  0
  4  5  2  0
  5  6  1  0
  6  7  2  0
  7  8  1  0
  8  9  2  0
  9 10  1  0
 10 11  1  0
 11 12  1  0
 12 13  1  0
 13 14  1  0
 14 15  1  0
 15 16  1  0
 16 17  2  0
 17 18  1  0
 18 19  2  0
 19 20  1  0
 20 21  2  0
 21 22  1  0
 22 23  2  0
 23 24  1  0
 24 25  2  0
 25 26  1  0
 26 27  2  0
 27 28  1  0
 28 29  2  0
 29 30  1  0
 25 31  1  0
 31 32  2  0
 32 33  1  0
 33 34  2  0
 34 35  1  0
 35 36  2  0
 36 37  1  0
 37 38  2  0
 38 39  1  0
 39 40  2  0
 19 41  1  0
 41 42  2  0
 14 43  1  0
 43 44  1  0
 10  2  1  0
 44 11  1  0
  9  4  1  0
 42 16  1  0
 34 20  1  0
 40 35  1  0
 32 22  1  0
 30 26  1  0
  3 45  1  0
  5 46  1  0
  6 47  1  0
  7 48  1  0
  8 49  1  0
 11 50  1  0
 12 51  1  0
 12 52  1  0
 13 53  1  0
 13 54  1  0
 15 55  1  0
 15 56  1  0
 17 57  1  0
 18 58  1  0
 23 59  1  0
 24 60  1  0
 30 61  1  0
 31 62  1  0
 36 63  1  0
 37 64  1  0
 38 65  1  0
 39 66  1  0
 40 67  1  0
 41 68  1  0
 42 69  1  0
 43 70  1  0
 43 71  1  0
 44 72  1  0
 44 73  1  0
M  END
$$$$
