
     RDKit          3D

 59 62  0  0  0  0  0  0  0  0999 V2000
    5.8354   -2.4125    1.6627 C   0  0  0  0  0  0  0  0  0  0  0  0
    4.5574   -2.0445    0.9344 C   0  0  0  0  0  0  0  0  0  0  0  0
    3.4258   -2.0205    1.9107 C   0  0  0  0  0  0  0  0  0  0  0  0
    2.2197   -1.4006    1.1861 C   0  0  0  0  0  0  0  0  0  0  0  0
    2.5498   -0.0152    0.8721 N   0  0  0  0  0  0  0  0  0  0  0  0
    1.5478    0.9312    0.5968 C   0  0  0  0  0  0  0  0  0  0  0  0
    1.9250    2.1622    0.4871 O   0  0  0  0  0  0  0  0  0  0  0  0
    0.1416    0.6653    0.4194 C   0  0  0  0  0  0  0  0  0  0  0  0
   -0.6002    1.6800   -0.4408 C   0  0  0  0  0  0  0  0  0  0  0  0
   -0.6565    3.0567    0.1562 C   0  0  0  0  0  0  0  0  0  0  0  0
   -1.3766    3.9199   -0.7922 N   0  0  0  0  0  0  0  0  0  0  0  0
   -2.6854    4.0691   -0.9884 C   0  0  0  0  0  0  0  0  0  0  0  0
   -2.9113    4.9921   -2.0166 C   0  0  0  0  0  0  0  0  0  0  0  0
   -1.6639    5.3924   -2.4305 C   0  0  0  0  0  0  0  0  0  0  0  0
   -0.7355    4.7158   -1.6573 C   0  0  0  0  0  0  0  0  0  0  0  0
    0.6912    4.9216   -1.7671 C   0  0  0  0  0  0  0  0  0  0  0  0
    1.8450    5.0728   -1.8699 N   0  0  0  0  0  0  0  0  0  0  0  0
   -0.3268   -0.6535    0.2519 N   0  0  0  0  0  0  0  0  0  0  0  0
   -1.5062   -1.1779    1.3978 S   0  0  0  0  0  6  0  0  0  0  0  0
   -1.6807   -0.1605    2.4916 O   0  0  0  0  0  0  0  0  0  0  0  0
   -1.1243   -2.5069    2.0403 O   0  0  0  0  0  0  0  0  0  0  0  0
   -2.9693   -1.4412    0.5329 C   0  0  0  0  0  0  0  0  0  0  0  0
   -4.1482   -0.6829    0.7816 C   0  0  0  0  0  0  0  0  0  0  0  0
   -5.2476   -0.9665    0.0069 C   0  0  0  0  0  0  0  0  0  0  0  0
   -5.2766   -1.9130   -0.9666 C   0  0  0  0  0  0  0  0  0  0  0  0
   -4.1240   -2.6798   -1.2396 C   0  0  0  0  0  0  0  0  0  0  0  0
   -3.8614   -3.6548   -2.0868 N   0  0  0  0  0  0  0  0  0  0  0  0
   -2.5522   -4.0620   -1.8989 C   0  0  0  0  0  0  0  0  0  0  0  0
   -2.0554   -3.2830   -0.9036 C   0  0  0  0  0  0  0  0  0  0  0  0
   -3.0591   -2.3718   -0.4548 C   0  0  0  0  0  0  0  0  0  0  0  0
    3.9463    0.3821    0.7711 C   0  0  0  0  0  0  0  0  0  0  0  0
    4.7671   -0.7511    0.1932 C   0  0  0  0  0  0  0  0  0  0  0  0
    5.7869   -3.4343    2.1007 H   0  0  0  0  0  0  0  0  0  0  0  0
    6.7094   -2.4235    0.9794 H   0  0  0  0  0  0  0  0  0  0  0  0
    6.0637   -1.7053    2.5033 H   0  0  0  0  0  0  0  0  0  0  0  0
    4.3788   -2.8688    0.2015 H   0  0  0  0  0  0  0  0  0  0  0  0
    3.6871   -1.4204    2.8051 H   0  0  0  0  0  0  0  0  0  0  0  0
    3.1381   -3.0409    2.1845 H   0  0  0  0  0  0  0  0  0  0  0  0
    2.1130   -1.9464    0.2393 H   0  0  0  0  0  0  0  0  0  0  0  0
    1.3817   -1.5093    1.8709 H   0  0  0  0  0  0  0  0  0  0  0  0
   -0.3206    0.9626    1.4737 H   0  0  0  0  0  0  0  0  0  0  0  0
   -0.1873    1.7655   -1.4605 H   0  0  0  0  0  0  0  0  0  0  0  0
   -1.6777    1.3272   -0.4485 H   0  0  0  0  0  0  0  0  0  0  0  0
    0.2789    3.5291    0.4315 H   0  0  0  0  0  0  0  0  0  0  0  0
   -1.3464    2.9983    1.0639 H   0  0  0  0  0  0  0  0  0  0  0  0
   -3.4661    3.5390   -0.4261 H   0  0  0  0  0  0  0  0  0  0  0  0
   -3.8540    5.3157   -2.3945 H   0  0  0  0  0  0  0  0  0  0  0  0
   -1.4857    6.1045   -3.2081 H   0  0  0  0  0  0  0  0  0  0  0  0
   -0.6944   -0.7974   -0.7007 H   0  0  0  0  0  0  0  0  0  0  0  0
   -4.1714    0.0792    1.5370 H   0  0  0  0  0  0  0  0  0  0  0  0
   -6.1885   -0.4070    0.1600 H   0  0  0  0  0  0  0  0  0  0  0  0
   -6.1378   -2.1403   -1.5789 H   0  0  0  0  0  0  0  0  0  0  0  0
   -4.4716   -4.0834   -2.7886 H   0  0  0  0  0  0  0  0  0  0  0  0
   -2.0215   -4.8261   -2.4222 H   0  0  0  0  0  0  0  0  0  0  0  0
   -1.0698   -3.3058   -0.4756 H   0  0  0  0  0  0  0  0  0  0  0  0
    4.0049    1.2423    0.0833 H   0  0  0  0  0  0  0  0  0  0  0  0
    4.3346    0.6900    1.7524 H   0  0  0  0  0  0  0  0  0  0  0  0
    5.8329   -0.4859    0.2153 H   0  0  0  0  0  0  0  0  0  0  0  0
    4.4913   -0.9219   -0.8779 H   0  0  0  0  0  0  0  0  0  0  0  0
  1  2  1  0
  2  3  1  0
  3  4  1  0
  4  5  1  0
  5  6  1  0
  6  7  2  0
  6  8  1  0
  8  9  1  0
  9 10  1  0
 10 11  1  0
 11 12  1  0
 12 13  2  0
 13 14  1  0
 14 15  2  0
 15 16  1  0
 16 17  3  0
  8 18  1  0
 18 19  1  0
 19 20  2  0
 19 21  2  0
 19 22  1  0
 22 23  2  0
 23 24  1  0
 24 25  2  0
 25 26  1  0
 26 27  1  0
 27 28  1  0
 28 29  2  0
 29 30  1  0
  5 31  1  0
 31 32  1  0
 32  2  1  0
 15 11  1  0
 30 22  1  0
 30 26  2  0
  1 33  1  0
  1 34  1  0
  1 35  1  0
  2 36  1  0
  3 37  1  0
  3 38  1  0
  4 39  1  0
  4 40  1  0
  8 41  1  0
  9 42  1  0
  9 43  1  0
 10 44  1  0
 10 45  1  0
 12 46  1  0
 13 47  1  0
 14 48  1  0
 18 49  1  0
 23 50  1  0
 24 51  1  0
 25 52  1  0
 27 53  1  0
 28 54  1  0
 29 55  1  0
 31 56  1  0
 31 57  1  0
 32 58  1  0
 32 59  1  0
M  END
$$$$
