
     RDKit          3D

 38 39  0  0  0  0  0  0  0  0999 V2000
    3.9794    2.6155   -0.1114 C   0  0  0  0  0  0  0  0  0  0  0  0
    3.9364    1.1394   -0.1748 C   0  0  0  0  0  0  0  0  0  0  0  0
    2.7475    0.5085   -0.4088 C   0  0  0  0  0  0  0  0  0  0  0  0
    2.7144   -0.8168   -0.4648 N   0  0  0  0  0  0  0  0  0  0  0  0
    1.5082   -1.5631   -0.7062 C   0  0  2  0  0  0  0  0  0  0  0  0
    0.4064   -0.7690   -0.3867 O   0  0  0  0  0  0  0  0  0  0  0  0
   -0.6515   -1.6538   -0.1650 C   0  0  2  0  0  0  0  0  0  0  0  0
   -1.7179   -0.9823    0.6354 C   0  0  0  0  0  0  0  0  0  0  0  0
   -2.1503    0.1045   -0.0842 O   0  0  0  0  0  0  0  0  0  0  0  0
   -3.3537    0.9974    0.6463 P   0  0  1  0  0  5  0  0  0  0  0  0
   -4.7469    0.1265    0.9688 O   0  0  0  0  0  0  0  0  0  0  0  0
   -2.7869    1.6328    1.8954 O   0  0  0  0  0  0  0  0  0  0  0  0
   -3.7812    2.2527   -0.4074 O   0  0  0  0  0  0  0  0  0  0  0  0
   -5.4195    2.2228   -0.8098 P   0  0  0  0  0  0  0  0  0  0  0  0
   -5.8355    0.8933   -1.7534 O   0  0  0  0  0  0  0  0  0  0  0  0
   -6.3267    2.2565    0.5928 O   0  0  0  0  0  0  0  0  0  0  0  0
   -5.6955    3.4802   -1.6081 O   0  0  0  0  0  0  0  0  0  0  0  0
    0.0695   -2.7167    0.5851 C   0  0  0  0  0  0  0  0  0  0  0  0
    1.3816   -2.6949    0.2846 C   0  0  0  0  0  0  0  0  0  0  0  0
    3.8569   -1.5342   -0.2900 C   0  0  0  0  0  0  0  0  0  0  0  0
    3.9259   -2.8072   -0.3259 O   0  0  0  0  0  0  0  0  0  0  0  0
    5.0479   -0.9484   -0.0573 N   0  0  0  0  0  0  0  0  0  0  0  0
    5.0784    0.3929   -0.0012 C   0  0  0  0  0  0  0  0  0  0  0  0
    6.1637    1.0110    0.2140 O   0  0  0  0  0  0  0  0  0  0  0  0
    5.0174    2.9316   -0.3546 H   0  0  0  0  0  0  0  0  0  0  0  0
    3.2443    3.0602   -0.8067 H   0  0  0  0  0  0  0  0  0  0  0  0
    3.7229    2.9737    0.9170 H   0  0  0  0  0  0  0  0  0  0  0  0
    1.8193    1.0490   -0.5524 H   0  0  0  0  0  0  0  0  0  0  0  0
    1.3964   -1.9204   -1.7448 H   0  0  0  0  0  0  0  0  0  0  0  0
   -1.0452   -2.0334   -1.1134 H   0  0  0  0  0  0  0  0  0  0  0  0
   -1.3061   -0.6109    1.5960 H   0  0  0  0  0  0  0  0  0  0  0  0
   -2.5149   -1.7097    0.8807 H   0  0  0  0  0  0  0  0  0  0  0  0
   -4.6386   -0.8513    0.9080 H   0  0  0  0  0  0  0  0  0  0  0  0
   -5.6312    0.0433   -1.3128 H   0  0  0  0  0  0  0  0  0  0  0  0
   -5.7818    2.1775    1.4002 H   0  0  0  0  0  0  0  0  0  0  0  0
   -0.5471   -3.3288    1.2386 H   0  0  0  0  0  0  0  0  0  0  0  0
    1.9771   -3.4472    0.7972 H   0  0  0  0  0  0  0  0  0  0  0  0
    5.9368   -1.4812    0.0796 H   0  0  0  0  0  0  0  0  0  0  0  0
  1  2  1  0
  2  3  2  0
  3  4  1  0
  4  5  1  0
  5  6  1  0
  6  7  1  0
  7  8  1  0
  8  9  1  0
 10  9  1  6
 10 11  1  0
 10 12  2  0
 10 13  1  0
 13 14  1  0
 14 15  1  0
 14 16  1  0
 14 17  2  0
  7 18  1  0
 18 19  2  0
  4 20  1  0
 20 21  2  0
 20 22  1  0
 22 23  1  0
 23 24  2  0
 23  2  1  0
 19  5  1  0
  1 25  1  0
  1 26  1  0
  1 27  1  0
  3 28  1  0
  5 29  1  6
  7 30  1  6
  8 31  1  0
  8 32  1  0
 11 33  1  0
 15 34  1  0
 16 35  1  0
 18 36  1  0
 19 37  1  0
 22 38  1  0
M  END
$$$$
