
     RDKit          3D

 57 61  0  0  0  0  0  0  0  0999 V2000
   -4.2832   -0.5956   -0.3437 C   0  0  0  0  0  0  0  0  0  0  0  0
   -3.0686   -0.0287    0.4223 C   0  0  0  0  0  0  0  0  0  0  0  0
   -3.1117   -0.6920    1.7781 C   0  0  0  0  0  0  0  0  0  0  0  0
   -3.2744    1.4563    0.4960 C   0  0  2  0  0  0  0  0  0  0  0  0
   -4.4010    1.8665   -0.2621 O   0  0  0  0  0  0  0  0  0  0  0  0
   -2.1328    2.3272    0.2089 C   0  0  0  0  0  0  0  0  0  0  0  0
   -0.9915    1.7736   -0.5576 C   0  0  0  0  0  0  0  0  0  0  0  0
   -0.6445    0.3508   -0.0751 C   0  0  2  0  0  0  0  0  0  0  0  0
   -0.3998    0.5252    1.3853 C   0  0  0  0  0  0  0  0  0  0  0  0
    0.5444   -0.2093   -0.7500 C   0  0  1  0  0  0  0  0  0  0  0  0
    0.5916   -0.0518   -2.2351 C   0  0  0  0  0  0  0  0  0  0  0  0
    1.8622    0.2630   -0.2340 C   0  0  0  0  0  0  0  0  0  0  0  0
    2.5486    1.3220    0.2265 N   0  0  0  0  0  0  0  0  0  0  0  0
    3.8089    0.9717    0.5301 C   0  0  0  0  0  0  0  0  0  0  0  0
    4.8756    1.6833    1.0255 C   0  0  0  0  0  0  0  0  0  0  0  0
    6.0947    1.0537    1.2503 C   0  0  0  0  0  0  0  0  0  0  0  0
    6.2523   -0.2901    0.9807 C   0  0  0  0  0  0  0  0  0  0  0  0
    5.1708   -0.9867    0.4843 C   0  0  0  0  0  0  0  0  0  0  0  0
    3.9331   -0.3656    0.2517 C   0  0  0  0  0  0  0  0  0  0  0  0
    2.7254   -0.8081   -0.2232 C   0  0  0  0  0  0  0  0  0  0  0  0
    2.0124   -2.0288   -0.7348 C   0  0  0  0  0  0  0  0  0  0  0  0
    0.6261   -1.6819   -0.3718 C   0  0  2  0  0  0  0  0  0  0  0  0
   -0.4669   -2.4042   -1.0700 C   0  0  0  0  0  0  0  0  0  0  0  0
   -1.7659   -1.9013   -0.4651 C   0  0  0  0  0  0  0  0  0  0  0  0
   -1.8802   -0.4344   -0.4138 C   0  0  1  0  0  0  0  0  0  0  0  0
   -2.2427   -0.0171   -1.7252 O   0  0  0  0  0  0  0  0  0  0  0  0
   -5.1457    0.0941   -0.2176 H   0  0  0  0  0  0  0  0  0  0  0  0
   -4.0586   -0.8302   -1.3803 H   0  0  0  0  0  0  0  0  0  0  0  0
   -4.6249   -1.5630    0.1213 H   0  0  0  0  0  0  0  0  0  0  0  0
   -3.9371   -1.4611    1.8648 H   0  0  0  0  0  0  0  0  0  0  0  0
   -3.3843    0.0406    2.5952 H   0  0  0  0  0  0  0  0  0  0  0  0
   -2.2113   -1.2204    2.0744 H   0  0  0  0  0  0  0  0  0  0  0  0
   -3.6081    1.6621    1.5606 H   0  0  0  0  0  0  0  0  0  0  0  0
   -4.2790    2.7918   -0.5873 H   0  0  0  0  0  0  0  0  0  0  0  0
   -2.4925    3.2334   -0.3708 H   0  0  0  0  0  0  0  0  0  0  0  0
   -1.7190    2.8080    1.1479 H   0  0  0  0  0  0  0  0  0  0  0  0
   -0.0865    2.3742   -0.3351 H   0  0  0  0  0  0  0  0  0  0  0  0
   -1.0997    1.8059   -1.6598 H   0  0  0  0  0  0  0  0  0  0  0  0
   -1.2910    0.9755    1.9180 H   0  0  0  0  0  0  0  0  0  0  0  0
    0.0019   -0.3190    1.9325 H   0  0  0  0  0  0  0  0  0  0  0  0
    0.3622    1.3449    1.4923 H   0  0  0  0  0  0  0  0  0  0  0  0
    0.6200    1.0512   -2.4521 H   0  0  0  0  0  0  0  0  0  0  0  0
   -0.2309   -0.4744   -2.8020 H   0  0  0  0  0  0  0  0  0  0  0  0
    1.5801   -0.4303   -2.5792 H   0  0  0  0  0  0  0  0  0  0  0  0
    2.1844    2.3194    0.3457 H   0  0  0  0  0  0  0  0  0  0  0  0
    4.7494    2.7287    1.2342 H   0  0  0  0  0  0  0  0  0  0  0  0
    6.9151    1.6191    1.6356 H   0  0  0  0  0  0  0  0  0  0  0  0
    7.2155   -0.7604    1.1647 H   0  0  0  0  0  0  0  0  0  0  0  0
    5.2829   -2.0358    0.2704 H   0  0  0  0  0  0  0  0  0  0  0  0
    2.3237   -2.9323   -0.1603 H   0  0  0  0  0  0  0  0  0  0  0  0
    2.2135   -2.2231   -1.7842 H   0  0  0  0  0  0  0  0  0  0  0  0
    0.5006   -1.8505    0.7101 H   0  0  0  0  0  0  0  0  0  0  0  0
   -0.4496   -2.3896   -2.1551 H   0  0  0  0  0  0  0  0  0  0  0  0
   -0.3772   -3.4939   -0.7803 H   0  0  0  0  0  0  0  0  0  0  0  0
   -1.9191   -2.4433    0.4773 H   0  0  0  0  0  0  0  0  0  0  0  0
   -2.5735   -2.2860   -1.1565 H   0  0  0  0  0  0  0  0  0  0  0  0
   -2.8443    0.7668   -1.7027 H   0  0  0  0  0  0  0  0  0  0  0  0
  1  2  1  0
  2  3  1  0
  2  4  1  0
  4  5  1  0
  4  6  1  0
  6  7  1  0
  7  8  1  0
  8  9  1  1
  8 10  1  0
 10 11  1  6
 10 12  1  0
 12 13  1  0
 13 14  1  0
 14 15  2  0
 15 16  1  0
 16 17  2  0
 17 18  1  0
 18 19  2  0
 19 20  1  0
 20 21  1  0
 21 22  1  0
 22 23  1  0
 23 24  1  0
 24 25  1  0
 25 26  1  6
 25  2  1  0
 25  8  1  0
 22 10  1  0
 20 12  2  0
 19 14  1  0
  1 27  1  0
  1 28  1  0
  1 29  1  0
  3 30  1  0
  3 31  1  0
  3 32  1  0
  4 33  1  1
  5 34  1  0
  6 35  1  0
  6 36  1  0
  7 37  1  0
  7 38  1  0
  9 39  1  0
  9 40  1  0
  9 41  1  0
 11 42  1  0
 11 43  1  0
 11 44  1  0
 13 45  1  0
 15 46  1  0
 16 47  1  0
 17 48  1  0
 18 49  1  0
 21 50  1  0
 21 51  1  0
 22 52  1  1
 23 53  1  0
 23 54  1  0
 24 55  1  0
 24 56  1  0
 26 57  1  0
M  END
$$$$
