
     RDKit          3D

 62 63  0  0  0  0  0  0  0  0999 V2000
    4.1025   -1.1214    0.8677 O   0  0  0  0  0  0  0  0  0  0  0  0
    4.1610   -0.5295   -0.2180 C   0  0  0  0  0  0  0  0  0  0  0  0
    3.1029    0.3525   -0.5854 N   0  0  0  0  0  0  0  0  0  0  0  0
    1.9653    0.5921    0.2430 C   0  0  0  0  0  0  0  0  0  0  0  0
    1.0423    1.5700   -0.4372 C   0  0  0  0  0  0  0  0  0  0  0  0
    0.5207    1.1404   -1.7445 C   0  0  0  0  0  0  0  0  0  0  0  0
   -0.2205   -0.1101   -1.9053 C   0  0  0  0  0  0  0  0  0  0  0  0
   -1.4898   -0.3251   -1.1670 C   0  0  0  0  0  0  0  0  0  0  0  0
   -1.4332   -0.3827    0.3218 C   0  0  0  0  0  0  0  0  0  0  0  0
   -2.7472   -0.6329    0.9128 N   0  0  0  0  0  0  0  0  0  0  0  0
   -3.8286    0.2518    0.7483 C   0  0  0  0  0  0  0  0  0  0  0  0
   -3.6700    1.2990    0.0765 O   0  0  0  0  0  0  0  0  0  0  0  0
   -5.0873    0.0123    1.3072 O   0  0  0  0  0  0  0  0  0  0  0  0
   -6.0884    0.9285    1.0974 N   0  0  0  0  0  0  0  0  0  0  0  0
   -7.1153    0.6861    0.3760 C   0  0  0  0  0  0  0  0  0  0  0  0
   -8.1703    1.6855    0.1694 C   0  0  0  0  0  0  0  0  0  0  0  0
   -9.5609    1.1005    0.2615 C   0  0  0  0  0  0  0  0  0  0  0  0
   -9.6476   -0.2619   -0.3874 C   0  0  0  0  0  0  0  0  0  0  0  0
   -8.5980   -1.2059    0.1501 C   0  0  0  0  0  0  0  0  0  0  0  0
   -7.2428   -0.6422   -0.2694 C   0  0  0  0  0  0  0  0  0  0  0  0
    5.2271   -0.7197   -1.0536 O   0  0  0  0  0  0  0  0  0  0  0  0
    6.2442   -1.5703   -0.6957 N   0  0  0  0  0  0  0  0  0  0  0  0
    7.0867   -1.2193    0.2026 C   0  0  0  0  0  0  0  0  0  0  0  0
    6.9685    0.0999    0.8569 C   0  0  0  0  0  0  0  0  0  0  0  0
    8.2813    0.7843    1.0740 C   0  0  0  0  0  0  0  0  0  0  0  0
    9.4269    0.0312    0.4810 C   0  0  0  0  0  0  0  0  0  0  0  0
    9.4481   -1.4117    0.9384 C   0  0  0  0  0  0  0  0  0  0  0  0
    8.1684   -2.1306    0.5792 C   0  0  0  0  0  0  0  0  0  0  0  0
    3.1791    0.8339   -1.4995 H   0  0  0  0  0  0  0  0  0  0  0  0
    1.4593   -0.3280    0.5840 H   0  0  0  0  0  0  0  0  0  0  0  0
    2.3259    1.0982    1.1810 H   0  0  0  0  0  0  0  0  0  0  0  0
    1.7913    2.4380   -0.7125 H   0  0  0  0  0  0  0  0  0  0  0  0
    0.3651    2.1272    0.2295 H   0  0  0  0  0  0  0  0  0  0  0  0
   -0.1831    1.9814   -2.0848 H   0  0  0  0  0  0  0  0  0  0  0  0
    1.3622    1.2429   -2.4940 H   0  0  0  0  0  0  0  0  0  0  0  0
   -0.4956   -0.1728   -3.0222 H   0  0  0  0  0  0  0  0  0  0  0  0
    0.4457   -1.0281   -1.8096 H   0  0  0  0  0  0  0  0  0  0  0  0
   -1.9727   -1.3124   -1.4828 H   0  0  0  0  0  0  0  0  0  0  0  0
   -2.2696    0.4428   -1.4779 H   0  0  0  0  0  0  0  0  0  0  0  0
   -0.7762   -1.2607    0.6176 H   0  0  0  0  0  0  0  0  0  0  0  0
   -1.0138    0.5474    0.7201 H   0  0  0  0  0  0  0  0  0  0  0  0
   -2.9100   -1.5038    1.4874 H   0  0  0  0  0  0  0  0  0  0  0  0
   -8.1036    2.4895    0.9128 H   0  0  0  0  0  0  0  0  0  0  0  0
   -8.0077    2.1348   -0.8384 H   0  0  0  0  0  0  0  0  0  0  0  0
   -9.8856    1.1025    1.3093 H   0  0  0  0  0  0  0  0  0  0  0  0
  -10.2406    1.7752   -0.3026 H   0  0  0  0  0  0  0  0  0  0  0  0
   -9.5126   -0.1431   -1.4738 H   0  0  0  0  0  0  0  0  0  0  0  0
  -10.6431   -0.6744   -0.1525 H   0  0  0  0  0  0  0  0  0  0  0  0
   -8.5986   -1.1988    1.2638 H   0  0  0  0  0  0  0  0  0  0  0  0
   -8.7749   -2.2029   -0.2743 H   0  0  0  0  0  0  0  0  0  0  0  0
   -7.2778   -0.4665   -1.3702 H   0  0  0  0  0  0  0  0  0  0  0  0
   -6.4229   -1.3264    0.0286 H   0  0  0  0  0  0  0  0  0  0  0  0
    6.5394   -0.1015    1.8821 H   0  0  0  0  0  0  0  0  0  0  0  0
    6.2154    0.7497    0.3623 H   0  0  0  0  0  0  0  0  0  0  0  0
    8.5004    0.9802    2.1451 H   0  0  0  0  0  0  0  0  0  0  0  0
    8.2216    1.7827    0.5902 H   0  0  0  0  0  0  0  0  0  0  0  0
   10.3639    0.5099    0.8291 H   0  0  0  0  0  0  0  0  0  0  0  0
    9.3975    0.0569   -0.6335 H   0  0  0  0  0  0  0  0  0  0  0  0
   10.3498   -1.9109    0.5514 H   0  0  0  0  0  0  0  0  0  0  0  0
    9.5083   -1.3962    2.0529 H   0  0  0  0  0  0  0  0  0  0  0  0
    7.8064   -2.7749    1.4158 H   0  0  0  0  0  0  0  0  0  0  0  0
    8.4111   -2.7626   -0.3156 H   0  0  0  0  0  0  0  0  0  0  0  0
  1  2  2  0
  2  3  1  0
  3  4  1  0
  4  5  1  0
  5  6  1  0
  6  7  1  0
  7  8  1  0
  8  9  1  0
  9 10  1  0
 10 11  1  0
 11 12  2  0
 11 13  1  0
 13 14  1  0
 14 15  2  3
 15 16  1  0
 16 17  1  0
 17 18  1  0
 18 19  1  0
 19 20  1  0
  2 21  1  0
 21 22  1  0
 22 23  2  3
 23 24  1  0
 24 25  1  0
 25 26  1  0
 26 27  1  0
 27 28  1  0
 20 15  1  0
 28 23  1  0
  3 29  1  0
  4 30  1  0
  4 31  1  0
  5 32  1  0
  5 33  1  0
  6 34  1  0
  6 35  1  0
  7 36  1  0
  7 37  1  0
  8 38  1  0
  8 39  1  0
  9 40  1  0
  9 41  1  0
 10 42  1  0
 16 43  1  0
 16 44  1  0
 17 45  1  0
 17 46  1  0
 18 47  1  0
 18 48  1  0
 19 49  1  0
 19 50  1  0
 20 51  1  0
 20 52  1  0
 24 53  1  0
 24 54  1  0
 25 55  1  0
 25 56  1  0
 26 57  1  0
 26 58  1  0
 27 59  1  0
 27 60  1  0
 28 61  1  0
 28 62  1  0
M  END
$$$$
