
     RDKit          3D

 57 61  0  0  0  0  0  0  0  0999 V2000
   -4.3428    1.4062    1.5089 C   0  0  0  0  0  0  0  0  0  0  0  0
   -3.6113    1.0056    0.2624 C   0  0  1  0  0  0  0  0  0  0  0  0
   -3.3486   -0.3668    0.3231 O   0  0  0  0  0  0  0  0  0  0  0  0
   -2.0674   -0.8834    0.3533 C   0  0  0  0  0  0  0  0  0  0  0  0
   -0.9880   -0.0637    0.3248 N   0  0  0  0  0  0  0  0  0  0  0  0
    0.2506   -0.5718    0.3544 C   0  0  0  0  0  0  0  0  0  0  0  0
    1.4222    0.3104    0.3238 C   0  0  0  0  0  0  0  0  0  0  0  0
    1.4350    1.6780    0.2650 C   0  0  0  0  0  0  0  0  0  0  0  0
    2.7311    2.0707    0.2562 N   0  0  0  0  0  0  0  0  0  0  0  0
    3.5266    1.0256    0.3061 N   0  0  0  0  0  0  0  0  0  0  0  0
    4.9632    0.9322    0.3191 C   0  0  0  0  0  0  0  0  0  0  0  0
    5.4505   -0.3519   -0.2321 C   0  0  0  0  0  0  0  0  0  0  0  0
    6.8474   -0.4245   -0.6641 C   0  0  0  0  0  0  0  0  0  0  0  0
    7.5329    0.8034   -0.9002 N   0  0  0  0  0  0  0  0  0  0  0  0
    7.1163    1.9012   -0.0761 C   0  0  0  0  0  0  0  0  0  0  0  0
    5.6347    2.1125   -0.3497 C   0  0  0  0  0  0  0  0  0  0  0  0
    2.7347   -0.0840    0.3489 C   0  0  0  0  0  0  0  0  0  0  0  0
    0.4301   -1.9381    0.4143 C   0  0  0  0  0  0  0  0  0  0  0  0
   -0.6661   -2.8058    0.4448 C   0  0  0  0  0  0  0  0  0  0  0  0
   -0.8052   -4.1275    0.5008 N   0  0  0  0  0  0  0  0  0  0  0  0
   -2.0885   -4.4200    0.5054 N   0  0  0  0  0  0  0  0  0  0  0  0
   -2.6473   -5.7600    0.5595 C   0  0  0  0  0  0  0  0  0  0  0  0
   -2.8347   -3.2980    0.4524 C   0  0  0  0  0  0  0  0  0  0  0  0
   -1.9240   -2.2534    0.4132 C   0  0  0  0  0  0  0  0  0  0  0  0
   -4.3549    1.3763   -0.9963 C   0  0  1  0  0  0  0  0  0  0  0  0
   -5.7124    0.7269   -1.0861 C   0  0  0  0  0  0  0  0  0  0  0  0
   -6.6251    1.7677   -0.6208 N   0  0  0  0  0  0  0  0  0  0  0  0
   -6.0096    3.0311   -0.7962 C   0  0  0  0  0  0  0  0  0  0  0  0
   -6.6361    4.1297   -0.7093 O   0  0  0  0  0  0  0  0  0  0  0  0
   -4.5679    2.8522   -1.0866 C   0  0  0  0  0  0  0  0  0  0  0  0
   -5.0986    0.6518    1.8227 H   0  0  0  0  0  0  0  0  0  0  0  0
   -3.5765    1.4158    2.3375 H   0  0  0  0  0  0  0  0  0  0  0  0
   -4.7565    2.4290    1.4789 H   0  0  0  0  0  0  0  0  0  0  0  0
   -2.6479    1.5409    0.2453 H   0  0  0  0  0  0  0  0  0  0  0  0
    0.5458    2.3116    0.2322 H   0  0  0  0  0  0  0  0  0  0  0  0
    5.2682    0.9872    1.4047 H   0  0  0  0  0  0  0  0  0  0  0  0
    5.2803   -1.1436    0.5576 H   0  0  0  0  0  0  0  0  0  0  0  0
    4.7380   -0.6568   -1.0558 H   0  0  0  0  0  0  0  0  0  0  0  0
    7.4779   -1.0189    0.0621 H   0  0  0  0  0  0  0  0  0  0  0  0
    6.9075   -1.0188   -1.6161 H   0  0  0  0  0  0  0  0  0  0  0  0
    8.5462    0.7209   -1.0167 H   0  0  0  0  0  0  0  0  0  0  0  0
    7.7252    2.7757   -0.3049 H   0  0  0  0  0  0  0  0  0  0  0  0
    7.2193    1.5735    0.9906 H   0  0  0  0  0  0  0  0  0  0  0  0
    5.2536    3.0546    0.0384 H   0  0  0  0  0  0  0  0  0  0  0  0
    5.4563    1.9889   -1.4522 H   0  0  0  0  0  0  0  0  0  0  0  0
    3.0591   -1.1160    0.3953 H   0  0  0  0  0  0  0  0  0  0  0  0
    1.4310   -2.3447    0.4380 H   0  0  0  0  0  0  0  0  0  0  0  0
   -3.6128   -5.8253    0.0327 H   0  0  0  0  0  0  0  0  0  0  0  0
   -1.9273   -6.4988    0.1555 H   0  0  0  0  0  0  0  0  0  0  0  0
   -2.8353   -5.9715    1.6389 H   0  0  0  0  0  0  0  0  0  0  0  0
   -3.9055   -3.2388    0.4432 H   0  0  0  0  0  0  0  0  0  0  0  0
   -3.7404    1.0524   -1.8584 H   0  0  0  0  0  0  0  0  0  0  0  0
   -5.8296   -0.1588   -0.4627 H   0  0  0  0  0  0  0  0  0  0  0  0
   -5.9460    0.4594   -2.1401 H   0  0  0  0  0  0  0  0  0  0  0  0
   -7.5650    1.6187   -0.2275 H   0  0  0  0  0  0  0  0  0  0  0  0
   -4.3172    3.2686   -2.0938 H   0  0  0  0  0  0  0  0  0  0  0  0
   -3.9953    3.3624   -0.2959 H   0  0  0  0  0  0  0  0  0  0  0  0
  1  2  1  0
  2  3  1  0
  3  4  1  0
  4  5  2  0
  5  6  1  0
  6  7  1  0
  7  8  1  0
  8  9  2  0
  9 10  1  0
 10 11  1  0
 11 12  1  0
 12 13  1  0
 13 14  1  0
 14 15  1  0
 15 16  1  0
 10 17  1  0
  6 18  2  0
 18 19  1  0
 19 20  2  0
 20 21  1  0
 21 22  1  0
 21 23  1  0
 23 24  2  0
  2 25  1  0
 25 26  1  0
 26 27  1  0
 27 28  1  0
 28 29  2  0
 28 30  1  0
 24  4  1  0
 30 25  1  0
 17  7  2  0
 24 19  1  0
 16 11  1  0
  1 31  1  0
  1 32  1  0
  1 33  1  0
  2 34  1  6
  8 35  1  0
 11 36  1  0
 12 37  1  0
 12 38  1  0
 13 39  1  0
 13 40  1  0
 14 41  1  0
 15 42  1  0
 15 43  1  0
 16 44  1  0
 16 45  1  0
 17 46  1  0
 18 47  1  0
 22 48  1  0
 22 49  1  0
 22 50  1  0
 23 51  1  0
 25 52  1  6
 26 53  1  0
 26 54  1  0
 27 55  1  0
 30 56  1  0
 30 57  1  0
M  END
$$$$
