
     RDKit          3D

 55 58  0  0  0  0  0  0  0  0999 V2000
   -4.6765    2.6991   -1.0123 C   0  0  0  0  0  0  0  0  0  0  0  0
   -3.7605    1.8719   -0.1336 C   0  0  0  0  0  0  0  0  0  0  0  0
   -3.8262    0.4623   -0.4624 N   0  0  0  0  0  0  0  0  0  0  0  0
   -3.0281   -0.1614   -1.3819 C   0  0  0  0  0  0  0  0  0  0  0  0
   -1.9779    0.5107   -2.1949 C   0  0  0  0  0  0  0  0  0  0  0  0
   -0.7054    0.5628   -1.5479 N   0  0  0  0  0  0  0  0  0  0  0  0
    0.1610   -0.5453   -1.3820 C   0  0  0  0  0  0  0  0  0  0  0  0
   -0.1127   -1.7905   -1.9048 C   0  0  0  0  0  0  0  0  0  0  0  0
    0.7471   -2.8778   -1.7080 C   0  0  0  0  0  0  0  0  0  0  0  0
    1.8962   -2.6992   -0.9743 C   0  0  0  0  0  0  0  0  0  0  0  0
    2.1794   -1.4361   -0.4417 C   0  0  0  0  0  0  0  0  0  0  0  0
    3.4101   -1.3085    0.3262 C   0  0  0  0  0  0  0  0  0  0  0  0
    4.1584   -2.2998    0.4850 O   0  0  0  0  0  0  0  0  0  0  0  0
    3.8126   -0.0893    0.9167 N   0  0  0  0  0  0  0  0  0  0  0  0
    5.0422    0.0450    1.6823 C   0  0  0  0  0  0  0  0  0  0  0  0
    6.2558    0.1340    0.8358 C   0  0  0  0  0  0  0  0  0  0  0  0
    6.6520    1.3903    0.3529 C   0  0  0  0  0  0  0  0  0  0  0  0
    7.7796    1.5232   -0.4290 C   0  0  0  0  0  0  0  0  0  0  0  0
    8.5682    0.4458   -0.7744 C   0  0  0  0  0  0  0  0  0  0  0  0
    8.1893   -0.7887   -0.3067 C   0  0  0  0  0  0  0  0  0  0  0  0
    7.0509   -0.9299    0.4840 C   0  0  0  0  0  0  0  0  0  0  0  0
    1.3412   -0.3843   -0.6354 C   0  0  0  0  0  0  0  0  0  0  0  0
   -3.4009   -1.4376   -1.3857 N   0  0  0  0  0  0  0  0  0  0  0  0
   -4.3711   -1.6250   -0.5292 N   0  0  0  0  0  0  0  0  0  0  0  0
   -4.6551   -0.4510    0.0611 C   0  0  0  0  0  0  0  0  0  0  0  0
   -5.6868   -0.2532    1.0831 C   0  0  0  0  0  0  0  0  0  0  0  0
   -6.9630    0.1563    0.7736 C   0  0  0  0  0  0  0  0  0  0  0  0
   -7.9271    0.3389    1.7557 C   0  0  0  0  0  0  0  0  0  0  0  0
   -7.6132    0.1121    3.0428 N   0  0  0  0  0  0  0  0  0  0  0  0
   -6.3605   -0.2926    3.3733 C   0  0  0  0  0  0  0  0  0  0  0  0
   -5.3699   -0.4843    2.4022 C   0  0  0  0  0  0  0  0  0  0  0  0
   -5.2697    3.3772   -0.3579 H   0  0  0  0  0  0  0  0  0  0  0  0
   -5.3903    2.0529   -1.5731 H   0  0  0  0  0  0  0  0  0  0  0  0
   -4.0867    3.2728   -1.7388 H   0  0  0  0  0  0  0  0  0  0  0  0
   -2.7488    2.2764   -0.2214 H   0  0  0  0  0  0  0  0  0  0  0  0
   -4.0614    1.9632    0.9306 H   0  0  0  0  0  0  0  0  0  0  0  0
   -2.3397    1.5266   -2.4964 H   0  0  0  0  0  0  0  0  0  0  0  0
   -1.8923   -0.0828   -3.1471 H   0  0  0  0  0  0  0  0  0  0  0  0
   -0.4086    1.5027   -1.1744 H   0  0  0  0  0  0  0  0  0  0  0  0
   -1.0037   -1.9364   -2.4967 H   0  0  0  0  0  0  0  0  0  0  0  0
    0.4809   -3.8379   -2.1432 H   0  0  0  0  0  0  0  0  0  0  0  0
    2.5817   -3.5087   -0.8009 H   0  0  0  0  0  0  0  0  0  0  0  0
    3.1964    0.7749    0.8022 H   0  0  0  0  0  0  0  0  0  0  0  0
    4.9602    0.9505    2.3304 H   0  0  0  0  0  0  0  0  0  0  0  0
    5.1511   -0.8268    2.3820 H   0  0  0  0  0  0  0  0  0  0  0  0
    6.0271    2.2384    0.6276 H   0  0  0  0  0  0  0  0  0  0  0  0
    8.0829    2.5111   -0.8033 H   0  0  0  0  0  0  0  0  0  0  0  0
    9.4499    0.5575   -1.3867 H   0  0  0  0  0  0  0  0  0  0  0  0
    8.7982   -1.6403   -0.5701 H   0  0  0  0  0  0  0  0  0  0  0  0
    6.8047   -1.9071    0.8271 H   0  0  0  0  0  0  0  0  0  0  0  0
    1.5246    0.6149   -0.2380 H   0  0  0  0  0  0  0  0  0  0  0  0
   -7.2269    0.3414   -0.2558 H   0  0  0  0  0  0  0  0  0  0  0  0
   -8.9281    0.6588    1.5237 H   0  0  0  0  0  0  0  0  0  0  0  0
   -6.1178   -0.4708    4.3962 H   0  0  0  0  0  0  0  0  0  0  0  0
   -4.3929   -0.8067    2.7240 H   0  0  0  0  0  0  0  0  0  0  0  0
  1  2  1  0
  2  3  1  0
  3  4  1  0
  4  5  1  0
  5  6  1  0
  6  7  1  0
  7  8  2  0
  8  9  1  0
  9 10  2  0
 10 11  1  0
 11 12  1  0
 12 13  2  0
 12 14  1  0
 14 15  1  0
 15 16  1  0
 16 17  2  0
 17 18  1  0
 18 19  2  0
 19 20  1  0
 20 21  2  0
 11 22  2  0
  4 23  2  0
 23 24  1  0
 24 25  2  0
 25 26  1  0
 26 27  2  0
 27 28  1  0
 28 29  2  0
 29 30  1  0
 30 31  2  0
 25  3  1  0
 31 26  1  0
 22  7  1  0
 21 16  1  0
  1 32  1  0
  1 33  1  0
  1 34  1  0
  2 35  1  0
  2 36  1  0
  5 37  1  0
  5 38  1  0
  6 39  1  0
  8 40  1  0
  9 41  1  0
 10 42  1  0
 14 43  1  0
 15 44  1  0
 15 45  1  0
 17 46  1  0
 18 47  1  0
 19 48  1  0
 20 49  1  0
 21 50  1  0
 22 51  1  0
 27 52  1  0
 28 53  1  0
 30 54  1  0
 31 55  1  0
M  END
$$$$
