
     RDKit          3D

 49 51  0  0  0  0  0  0  0  0999 V2000
    1.8241    2.9159    1.1537 C   0  0  0  0  0  0  0  0  0  0  0  0
    1.2812    1.7576    0.3960 C   0  0  0  0  0  0  0  0  0  0  0  0
   -0.0467    1.8236    0.0476 C   0  0  0  0  0  0  0  0  0  0  0  0
   -0.7184    0.8531   -0.6483 C   0  0  0  0  0  0  0  0  0  0  0  0
   -1.9815    0.6628   -1.1064 O   0  0  0  0  0  0  0  0  0  0  0  0
   -3.0655    1.5184   -0.9421 C   0  0  0  0  0  0  0  0  0  0  0  0
   -3.4602    1.6887    0.4959 C   0  0  0  0  0  0  0  0  0  0  0  0
   -3.8156    0.3561    1.0029 N   0  0  0  0  0  0  0  0  0  0  0  0
   -4.8916   -0.5210    0.7582 C   0  0  0  0  0  0  0  0  0  0  0  0
   -4.9866   -1.7910    1.3432 C   0  0  0  0  0  0  0  0  0  0  0  0
   -6.0937   -2.5475    1.0423 C   0  0  0  0  0  0  0  0  0  0  0  0
   -7.1020   -2.1804    0.2328 N   0  0  0  0  0  4  0  0  0  0  0  0
   -7.0240   -0.9634   -0.3357 C   0  0  0  0  0  0  0  0  0  0  0  0
   -5.9354   -0.1607   -0.0693 C   0  0  0  0  0  0  0  0  0  0  0  0
    0.0617   -0.2625   -1.0027 C   0  0  0  0  0  0  0  0  0  0  0  0
    1.4097   -0.3919   -0.6823 C   0  0  0  0  0  0  0  0  0  0  0  0
    2.1965   -1.5106   -1.0554 N   0  0  0  0  0  0  0  0  0  0  0  0
    3.7328   -1.7074   -1.7962 S   0  0  0  0  0  0  0  0  0  0  0  0
    3.7309   -1.1318   -3.1878 O   0  0  0  0  0  0  0  0  0  0  0  0
    4.0223   -3.1935   -1.8907 O   0  0  0  0  0  0  0  0  0  0  0  0
    4.9976   -1.0024   -0.8245 C   0  0  0  0  0  0  0  0  0  0  0  0
    5.5556   -1.7849    0.1891 C   0  0  0  0  0  0  0  0  0  0  0  0
    6.5656   -1.3691    1.0274 C   0  0  0  0  0  0  0  0  0  0  0  0
    7.0779   -0.1185    0.8873 C   0  0  0  0  0  0  0  0  0  0  0  0
    6.5536    0.6761   -0.0974 C   0  0  0  0  0  0  0  0  0  0  0  0
    5.5558    0.2760   -0.9314 C   0  0  0  0  0  0  0  0  0  0  0  0
    1.9936    0.6397    0.0214 C   0  0  0  0  0  0  0  0  0  0  0  0
    2.0157    3.7276    0.4153 H   0  0  0  0  0  0  0  0  0  0  0  0
    2.7387    2.6378    1.7114 H   0  0  0  0  0  0  0  0  0  0  0  0
    1.0190    3.2931    1.8284 H   0  0  0  0  0  0  0  0  0  0  0  0
   -0.6419    2.6687    0.2932 H   0  0  0  0  0  0  0  0  0  0  0  0
   -2.8009    2.5782   -1.2844 H   0  0  0  0  0  0  0  0  0  0  0  0
   -3.9483    1.2293   -1.5469 H   0  0  0  0  0  0  0  0  0  0  0  0
   -2.6844    2.1215    1.1136 H   0  0  0  0  0  0  0  0  0  0  0  0
   -4.3424    2.3728    0.5906 H   0  0  0  0  0  0  0  0  0  0  0  0
   -3.1168   -0.0407    1.7050 H   0  0  0  0  0  0  0  0  0  0  0  0
   -4.1975   -2.1092    1.9925 H   0  0  0  0  0  0  0  0  0  0  0  0
   -6.1034   -3.5065    1.5224 H   0  0  0  0  0  0  0  0  0  0  0  0
   -7.9025   -2.8283    0.0662 H   0  0  0  0  0  0  0  0  0  0  0  0
   -7.8508   -0.7081   -0.9763 H   0  0  0  0  0  0  0  0  0  0  0  0
   -6.0095    0.7727   -0.5743 H   0  0  0  0  0  0  0  0  0  0  0  0
   -0.2808   -1.1479   -1.5606 H   0  0  0  0  0  0  0  0  0  0  0  0
    1.6352   -2.3438   -0.7767 H   0  0  0  0  0  0  0  0  0  0  0  0
    5.2035   -2.8011    0.3706 H   0  0  0  0  0  0  0  0  0  0  0  0
    6.9660   -2.0069    1.7963 H   0  0  0  0  0  0  0  0  0  0  0  0
    7.8571    0.3258    1.4669 H   0  0  0  0  0  0  0  0  0  0  0  0
    6.8750    1.6984   -0.3147 H   0  0  0  0  0  0  0  0  0  0  0  0
    5.1061    0.8655   -1.7260 H   0  0  0  0  0  0  0  0  0  0  0  0
    3.0253    0.6699    0.3396 H   0  0  0  0  0  0  0  0  0  0  0  0
  1  2  1  0
  2  3  2  0
  3  4  1  0
  4  5  1  0
  5  6  1  0
  6  7  1  0
  7  8  1  0
  8  9  1  0
  9 10  2  0
 10 11  1  0
 11 12  2  0
 12 13  1  0
 13 14  2  0
  4 15  2  0
 15 16  1  0
 16 17  1  0
 17 18  1  0
 18 19  2  0
 18 20  2  0
 18 21  1  0
 21 22  2  0
 22 23  1  0
 23 24  2  0
 24 25  1  0
 25 26  2  0
 16 27  2  0
 27  2  1  0
 14  9  1  0
 26 21  1  0
  1 28  1  0
  1 29  1  0
  1 30  1  0
  3 31  1  0
  6 32  1  0
  6 33  1  0
  7 34  1  0
  7 35  1  0
  8 36  1  0
 10 37  1  0
 11 38  1  0
 12 39  1  0
 13 40  1  0
 14 41  1  0
 15 42  1  0
 17 43  1  0
 22 44  1  0
 23 45  1  0
 24 46  1  0
 25 47  1  0
 26 48  1  0
 27 49  1  0
M  CHG  1  12   1
M  END
$$$$
