
     RDKit          3D

 45 48  0  0  0  0  0  0  0  0999 V2000
    2.0046   -1.6811   -1.8317 O   0  0  0  0  0  0  0  0  0  0  0  0
    2.4198   -0.6998   -1.1494 C   0  0  0  0  0  0  0  0  0  0  0  0
    1.4971    0.2564   -0.6987 N   0  0  0  0  0  0  0  0  0  0  0  0
    0.1256    0.1778   -0.9692 N   0  0  0  0  0  0  0  0  0  0  0  0
   -0.7885   -0.4980   -0.1222 C   0  0  0  0  0  0  0  0  0  0  0  0
   -1.0604   -1.8193   -0.3231 N   0  0  0  0  0  0  0  0  0  0  0  0
   -1.9221   -2.4626    0.4845 C   0  0  0  0  0  0  0  0  0  0  0  0
   -2.1950   -3.8200    0.2701 C   0  0  0  0  0  0  0  0  0  0  0  0
   -3.0683   -4.4481    1.0985 C   0  0  0  0  0  0  0  0  0  0  0  0
   -3.6867   -3.7860    2.1361 C   0  0  0  0  0  0  0  0  0  0  0  0
   -3.4242   -2.4632    2.3493 C   0  0  0  0  0  0  0  0  0  0  0  0
   -2.5303   -1.7830    1.5167 C   0  0  0  0  0  0  0  0  0  0  0  0
   -2.2801   -0.4805    1.7367 N   0  0  0  0  0  0  0  0  0  0  0  0
   -1.4088    0.1598    0.9156 C   0  0  0  0  0  0  0  0  0  0  0  0
   -1.1533    1.6099    1.1736 C   0  0  0  0  0  0  0  0  0  0  0  0
   -1.8757    2.5107    0.2559 C   0  0  0  0  0  0  0  0  0  0  0  0
   -1.3130    3.0924   -0.8457 C   0  0  0  0  0  0  0  0  0  0  0  0
   -2.0095    3.9309   -1.6974 C   0  0  0  0  0  0  0  0  0  0  0  0
   -3.3283    4.2041   -1.4412 C   0  0  0  0  0  0  0  0  0  0  0  0
   -3.9320    3.6308   -0.3311 C   0  0  0  0  0  0  0  0  0  0  0  0
   -3.2087    2.7938    0.5052 C   0  0  0  0  0  0  0  0  0  0  0  0
    3.8418   -0.6174   -0.8685 C   0  0  0  0  0  0  0  0  0  0  0  0
    4.7261   -1.5814   -1.3387 C   0  0  0  0  0  0  0  0  0  0  0  0
    6.0778   -1.5497   -1.1007 C   0  0  0  0  0  0  0  0  0  0  0  0
    6.6048   -0.5127   -0.3565 C   0  0  0  0  0  0  0  0  0  0  0  0
    8.3426   -0.4440   -0.0331 Cl  0  0  0  0  0  0  0  0  0  0  0  0
    5.7604    0.4498    0.1192 C   0  0  0  0  0  0  0  0  0  0  0  0
    4.3934    0.4005   -0.1325 C   0  0  0  0  0  0  0  0  0  0  0  0
    1.8568    1.0674   -0.1343 H   0  0  0  0  0  0  0  0  0  0  0  0
   -0.2295    0.6274   -1.8257 H   0  0  0  0  0  0  0  0  0  0  0  0
   -1.6823   -4.2936   -0.5596 H   0  0  0  0  0  0  0  0  0  0  0  0
   -3.2939   -5.4988    0.9503 H   0  0  0  0  0  0  0  0  0  0  0  0
   -4.3916   -4.3099    2.7979 H   0  0  0  0  0  0  0  0  0  0  0  0
   -3.9004   -1.9040    3.1685 H   0  0  0  0  0  0  0  0  0  0  0  0
   -0.0672    1.8068    1.0500 H   0  0  0  0  0  0  0  0  0  0  0  0
   -1.4892    1.8188    2.2125 H   0  0  0  0  0  0  0  0  0  0  0  0
   -0.2877    2.9138   -1.0839 H   0  0  0  0  0  0  0  0  0  0  0  0
   -1.5163    4.3664   -2.5572 H   0  0  0  0  0  0  0  0  0  0  0  0
   -3.8980    4.8681   -2.1068 H   0  0  0  0  0  0  0  0  0  0  0  0
   -4.9751    3.8605   -0.1469 H   0  0  0  0  0  0  0  0  0  0  0  0
   -3.7043    2.3659    1.3559 H   0  0  0  0  0  0  0  0  0  0  0  0
    4.2901   -2.3921   -1.9243 H   0  0  0  0  0  0  0  0  0  0  0  0
    6.7476   -2.3216   -1.4834 H   0  0  0  0  0  0  0  0  0  0  0  0
    6.1440    1.2759    0.7056 H   0  0  0  0  0  0  0  0  0  0  0  0
    3.7879    1.1788    0.2649 H   0  0  0  0  0  0  0  0  0  0  0  0
  1  2  2  0
  2  3  1  0
  3  4  1  0
  4  5  1  0
  5  6  2  0
  6  7  1  0
  7  8  2  0
  8  9  1  0
  9 10  2  0
 10 11  1  0
 11 12  2  0
 12 13  1  0
 13 14  2  0
 14 15  1  0
 15 16  1  0
 16 17  2  0
 17 18  1  0
 18 19  2  0
 19 20  1  0
 20 21  2  0
  2 22  1  0
 22 23  2  0
 23 24  1  0
 24 25  2  0
 25 26  1  0
 25 27  1  0
 27 28  2  0
 14  5  1  0
 21 16  1  0
 28 22  1  0
 12  7  1  0
  3 29  1  0
  4 30  1  0
  8 31  1  0
  9 32  1  0
 10 33  1  0
 11 34  1  0
 15 35  1  0
 15 36  1  0
 17 37  1  0
 18 38  1  0
 19 39  1  0
 20 40  1  0
 21 41  1  0
 23 42  1  0
 24 43  1  0
 27 44  1  0
 28 45  1  0
M  END
$$$$
