
     RDKit          3D

 72 77  0  0  0  0  0  0  0  0999 V2000
   10.0573    1.3912    3.1648 O   0  0  0  0  0  0  0  0  0  0  0  0
    9.8525    1.1707    1.9616 C   0  0  0  0  0  0  0  0  0  0  0  0
   10.9338    0.7951    1.1761 O   0  0  0  0  0  0  0  0  0  0  0  0
    8.5326    1.2956    1.3710 C   0  0  0  0  0  0  0  0  0  0  0  0
    7.5679    1.6419    2.1150 O   0  0  0  0  0  0  0  0  0  0  0  0
    8.3637    1.0284   -0.0107 N   0  0  0  0  0  0  0  0  0  0  0  0
    7.0944    1.1423   -0.6186 C   0  0  0  0  0  0  0  0  0  0  0  0
    6.7259    2.3635   -1.1592 C   0  0  0  0  0  0  0  0  0  0  0  0
    5.5075    2.5085   -1.7697 C   0  0  0  0  0  0  0  0  0  0  0  0
    4.6662    1.4249   -1.8331 C   0  0  0  0  0  0  0  0  0  0  0  0
    3.4396    1.2529   -2.3722 N   0  0  0  0  0  0  0  0  0  0  0  0
    3.0266   -0.0085   -2.1935 C   0  0  0  0  0  0  0  0  0  0  0  0
    4.0181   -0.7212   -1.5017 C   0  0  0  0  0  0  0  0  0  0  0  0
    3.8511   -2.1305   -1.1000 C   0  0  0  0  0  0  0  0  0  0  0  0
    3.2984   -2.2749    0.3086 C   0  0  2  0  0  0  0  0  0  0  0  0
    1.9990   -1.5960    0.3235 N   0  0  0  0  0  0  0  0  0  0  0  0
    0.7845   -2.3158    0.4730 C   0  0  0  0  0  0  0  0  0  0  0  0
    0.8664   -3.5607    0.6015 O   0  0  0  0  0  0  0  0  0  0  0  0
   -0.5363   -1.7068    0.4841 C   0  0  0  0  0  0  0  0  0  0  0  0
   -1.6609   -2.4858    0.6441 C   0  0  0  0  0  0  0  0  0  0  0  0
   -2.9540   -1.9733    0.6476 C   0  0  0  0  0  0  0  0  0  0  0  0
   -3.1162   -0.6322    0.4849 C   0  0  0  0  0  0  0  0  0  0  0  0
   -2.0028    0.1963    0.3196 C   0  0  0  0  0  0  0  0  0  0  0  0
   -0.7432   -0.3455    0.3216 C   0  0  0  0  0  0  0  0  0  0  0  0
   -2.5165    1.4211    0.1871 N   0  0  0  0  0  0  0  0  0  0  0  0
   -3.8291    1.3942    0.2584 C   0  0  0  0  0  0  0  0  0  0  0  0
   -4.6533    2.5983    0.1424 C   0  0  0  0  0  0  0  0  0  0  0  0
   -5.3775    3.1916    1.1417 C   0  0  0  0  0  0  0  0  0  0  0  0
   -5.9903    4.2953    0.5650 C   0  0  0  0  0  0  0  0  0  0  0  0
   -5.6396    4.3395   -0.7030 O   0  0  0  0  0  0  0  0  0  0  0  0
   -4.8349    3.3365   -1.0006 C   0  0  0  0  0  0  0  0  0  0  0  0
   -4.2465    0.1047    0.4476 N   0  0  0  0  0  0  0  0  0  0  0  0
   -5.6196   -0.1878    0.5550 C   0  0  0  0  0  0  0  0  0  0  0  0
   -6.1002   -1.4958    0.9611 C   0  0  0  0  0  0  0  0  0  0  0  0
   -7.6196   -1.3321    1.2349 C   0  0  0  0  0  0  0  0  0  0  0  0
   -8.2684   -1.2020   -0.1114 C   0  0  0  0  0  0  0  0  0  0  0  0
   -7.3215   -0.8063   -1.2003 C   0  0  0  0  0  0  0  0  0  0  0  0
   -6.2804    0.2058   -0.7748 C   0  0  0  0  0  0  0  0  0  0  0  0
    4.2045   -1.8564    1.3535 C   0  0  0  0  0  0  0  0  0  0  0  0
    3.9427   -0.9130    2.1514 O   0  0  0  0  0  0  0  0  0  0  0  0
    5.4249   -2.4907    1.5297 O   0  0  0  0  0  0  0  0  0  0  0  0
    5.0220    0.1899   -1.2927 C   0  0  0  0  0  0  0  0  0  0  0  0
    6.2441    0.0691   -0.6884 C   0  0  0  0  0  0  0  0  0  0  0  0
   11.7228    0.2983    1.5865 H   0  0  0  0  0  0  0  0  0  0  0  0
    9.1966    0.7470   -0.5623 H   0  0  0  0  0  0  0  0  0  0  0  0
    7.4015    3.2262   -1.1064 H   0  0  0  0  0  0  0  0  0  0  0  0
    5.2419    3.4634   -2.1817 H   0  0  0  0  0  0  0  0  0  0  0  0
    2.9330    2.0426   -2.8528 H   0  0  0  0  0  0  0  0  0  0  0  0
    2.0754   -0.4003   -2.5347 H   0  0  0  0  0  0  0  0  0  0  0  0
    3.2090   -2.6877   -1.8048 H   0  0  0  0  0  0  0  0  0  0  0  0
    4.8296   -2.6805   -1.0852 H   0  0  0  0  0  0  0  0  0  0  0  0
    3.0808   -3.3789    0.4326 H   0  0  0  0  0  0  0  0  0  0  0  0
    1.9365   -0.5627    0.2237 H   0  0  0  0  0  0  0  0  0  0  0  0
   -1.5816   -3.5732    0.7790 H   0  0  0  0  0  0  0  0  0  0  0  0
   -3.8169   -2.5954    0.7727 H   0  0  0  0  0  0  0  0  0  0  0  0
    0.0962    0.2913    0.1969 H   0  0  0  0  0  0  0  0  0  0  0  0
   -5.4885    2.9113    2.1777 H   0  0  0  0  0  0  0  0  0  0  0  0
   -6.6439    5.0276    1.0011 H   0  0  0  0  0  0  0  0  0  0  0  0
   -4.3841    3.1052   -1.9481 H   0  0  0  0  0  0  0  0  0  0  0  0
   -6.0611    0.5583    1.2919 H   0  0  0  0  0  0  0  0  0  0  0  0
   -6.0912   -2.2917    0.1890 H   0  0  0  0  0  0  0  0  0  0  0  0
   -5.7253   -1.8292    1.9601 H   0  0  0  0  0  0  0  0  0  0  0  0
   -7.7388   -0.3842    1.8172 H   0  0  0  0  0  0  0  0  0  0  0  0
   -7.9930   -2.2092    1.8024 H   0  0  0  0  0  0  0  0  0  0  0  0
   -9.1170   -0.4874    0.0088 H   0  0  0  0  0  0  0  0  0  0  0  0
   -8.6921   -2.2101   -0.3759 H   0  0  0  0  0  0  0  0  0  0  0  0
   -6.8852   -1.6739   -1.7369 H   0  0  0  0  0  0  0  0  0  0  0  0
   -7.9456   -0.2792   -1.9818 H   0  0  0  0  0  0  0  0  0  0  0  0
   -5.5223    0.2428   -1.5871 H   0  0  0  0  0  0  0  0  0  0  0  0
   -6.7678    1.1845   -0.7409 H   0  0  0  0  0  0  0  0  0  0  0  0
    6.0628   -2.2887    2.2892 H   0  0  0  0  0  0  0  0  0  0  0  0
    6.5551   -0.8884   -0.2676 H   0  0  0  0  0  0  0  0  0  0  0  0
  1  2  2  0
  2  3  1  0
  2  4  1  0
  4  5  2  0
  4  6  1  0
  6  7  1  0
  7  8  2  0
  8  9  1  0
  9 10  2  0
 10 11  1  0
 11 12  1  0
 12 13  2  0
 13 14  1  0
 14 15  1  0
 15 16  1  0
 16 17  1  0
 17 18  2  0
 17 19  1  0
 19 20  2  0
 20 21  1  0
 21 22  2  0
 22 23  1  0
 23 24  2  0
 23 25  1  0
 25 26  2  0
 26 27  1  0
 27 28  1  0
 28 29  2  0
 29 30  1  0
 30 31  1  0
 26 32  1  0
 32 33  1  0
 33 34  1  0
 34 35  1  0
 35 36  1  0
 36 37  1  0
 37 38  1  0
 15 39  1  0
 39 40  2  0
 39 41  1  0
 13 42  1  0
 42 43  2  0
 43  7  1  0
 42 10  1  0
 24 19  1  0
 31 27  2  0
 38 33  1  0
 32 22  1  0
  3 44  1  0
  6 45  1  0
  8 46  1  0
  9 47  1  0
 11 48  1  0
 12 49  1  0
 14 50  1  0
 14 51  1  0
 15 52  1  1
 16 53  1  0
 20 54  1  0
 21 55  1  0
 24 56  1  0
 28 57  1  0
 29 58  1  0
 31 59  1  0
 33 60  1  0
 34 61  1  0
 34 62  1  0
 35 63  1  0
 35 64  1  0
 36 65  1  0
 36 66  1  0
 37 67  1  0
 37 68  1  0
 38 69  1  0
 38 70  1  0
 41 71  1  0
 43 72  1  0
M  END
$$$$
