
     RDKit          3D

 40 41  0  0  0  0  0  0  0  0999 V2000
    2.1884   -0.5607    0.5007 C   0  0  2  0  0  0  0  0  0  0  0  0
    2.0485   -2.0737    0.4182 C   0  0  0  0  0  0  0  0  0  0  0  0
    1.2741    0.0789   -0.4426 N   0  0  0  0  0  0  0  0  0  0  0  0
   -0.1204   -0.2235   -0.2128 C   0  0  0  0  0  0  0  0  0  0  0  0
   -0.6602   -1.0606    0.5798 N   0  0  0  0  0  0  0  0  0  0  0  0
   -2.0476   -1.1306    0.5829 C   0  0  0  0  0  0  0  0  0  0  0  0
   -2.5471   -2.2692    0.8575 O   0  0  0  0  0  0  0  0  0  0  0  0
   -2.6789    0.1973    0.2502 C   0  0  1  0  0  0  0  0  0  0  0  0
   -2.4724    1.2082    1.3273 C   0  0  0  0  0  0  0  0  0  0  0  0
   -1.4903    0.5983   -1.0804 S   0  0  0  0  0  0  0  0  0  0  0  0
   -4.0730    0.0817   -0.2440 C   0  0  0  0  0  0  0  0  0  0  0  0
   -4.5886    1.4699   -0.5395 C   0  0  0  0  0  0  0  0  0  0  0  0
   -4.9172   -0.4697    0.8814 C   0  0  0  0  0  0  0  0  0  0  0  0
   -4.1352   -0.7133   -1.3603 O   0  0  0  0  0  0  0  0  0  0  0  0
    3.5746   -0.0962    0.3519 C   0  0  0  0  0  0  0  0  0  0  0  0
    4.1475    0.0250   -0.8912 C   0  0  0  0  0  0  0  0  0  0  0  0
    5.4532    0.4631   -1.0233 C   0  0  0  0  0  0  0  0  0  0  0  0
    6.2085    0.7880    0.0911 C   0  0  0  0  0  0  0  0  0  0  0  0
    7.4821    1.2182    0.0104 F   0  0  0  0  0  0  0  0  0  0  0  0
    5.6690    0.6795    1.3537 C   0  0  0  0  0  0  0  0  0  0  0  0
    4.3633    0.2397    1.4583 C   0  0  0  0  0  0  0  0  0  0  0  0
    1.8752   -0.3155    1.5586 H   0  0  0  0  0  0  0  0  0  0  0  0
    1.2663   -2.4649    1.1075 H   0  0  0  0  0  0  0  0  0  0  0  0
    1.8027   -2.3127   -0.6400 H   0  0  0  0  0  0  0  0  0  0  0  0
    3.0043   -2.5309    0.7121 H   0  0  0  0  0  0  0  0  0  0  0  0
    1.5000    0.7149   -1.2462 H   0  0  0  0  0  0  0  0  0  0  0  0
   -1.3826    1.1269    1.6141 H   0  0  0  0  0  0  0  0  0  0  0  0
   -2.5715    2.2277    0.8657 H   0  0  0  0  0  0  0  0  0  0  0  0
   -3.1358    1.0679    2.1895 H   0  0  0  0  0  0  0  0  0  0  0  0
   -4.5493    2.0887    0.3859 H   0  0  0  0  0  0  0  0  0  0  0  0
   -5.6682    1.3706   -0.7949 H   0  0  0  0  0  0  0  0  0  0  0  0
   -4.0739    1.9496   -1.3893 H   0  0  0  0  0  0  0  0  0  0  0  0
   -5.5692   -1.2941    0.5221 H   0  0  0  0  0  0  0  0  0  0  0  0
   -4.2902   -0.9158    1.6921 H   0  0  0  0  0  0  0  0  0  0  0  0
   -5.5061    0.3371    1.3931 H   0  0  0  0  0  0  0  0  0  0  0  0
   -5.1085   -0.9405   -1.5055 H   0  0  0  0  0  0  0  0  0  0  0  0
    3.6166   -0.2120   -1.8170 H   0  0  0  0  0  0  0  0  0  0  0  0
    5.9505    0.5754   -1.9821 H   0  0  0  0  0  0  0  0  0  0  0  0
    6.2264    0.9236    2.2486 H   0  0  0  0  0  0  0  0  0  0  0  0
    3.9349    0.1539    2.4672 H   0  0  0  0  0  0  0  0  0  0  0  0
  1  2  1  0
  1  3  1  0
  3  4  1  0
  4  5  2  0
  5  6  1  0
  6  7  2  0
  6  8  1  0
  8  9  1  1
  8 10  1  0
  8 11  1  0
 11 12  1  0
 11 13  1  0
 11 14  1  0
  1 15  1  0
 15 16  2  0
 16 17  1  0
 17 18  2  0
 18 19  1  0
 18 20  1  0
 20 21  2  0
 10  4  1  0
 21 15  1  0
  1 22  1  1
  2 23  1  0
  2 24  1  0
  2 25  1  0
  3 26  1  0
  9 27  1  0
  9 28  1  0
  9 29  1  0
 12 30  1  0
 12 31  1  0
 12 32  1  0
 13 33  1  0
 13 34  1  0
 13 35  1  0
 14 36  1  0
 16 37  1  0
 17 38  1  0
 20 39  1  0
 21 40  1  0
M  END
$$$$
