
     RDKit          3D

 52 55  0  0  0  0  0  0  0  0999 V2000
    8.9640    0.7039   -0.1990 C   0  0  0  0  0  0  0  0  0  0  0  0
    7.5082    0.4239   -0.0861 C   0  0  0  0  0  0  0  0  0  0  0  0
    7.0882   -0.8748    0.0466 C   0  0  0  0  0  0  0  0  0  0  0  0
    5.7309   -1.1135    0.1496 C   0  0  0  0  0  0  0  0  0  0  0  0
    4.8090   -0.1176    0.1244 C   0  0  0  0  0  0  0  0  0  0  0  0
    3.3579   -0.3658    0.2316 C   0  0  0  0  0  0  0  0  0  0  0  0
    2.8432   -1.6270    0.3608 C   0  0  0  0  0  0  0  0  0  0  0  0
    1.4605   -1.8152    0.4567 C   0  0  0  0  0  0  0  0  0  0  0  0
    0.5850   -0.7545    0.4247 C   0  0  0  0  0  0  0  0  0  0  0  0
   -0.8830   -0.8628    0.5167 C   0  0  1  0  0  0  0  0  0  0  0  0
   -1.5375    0.2382    1.3345 C   0  0  0  0  0  0  0  0  0  0  0  0
   -1.7747    0.1528   -0.0995 C   0  0  2  0  0  0  0  0  0  0  0  0
   -2.9633   -0.1772   -0.7686 N   0  0  0  0  0  0  0  0  0  0  0  0
   -4.0214   -0.8314   -0.1065 C   0  0  0  0  0  0  0  0  0  0  0  0
   -4.7034   -0.0950    0.9932 C   0  0  0  0  0  0  0  0  0  0  0  0
   -6.2165   -0.3379    0.9075 C   0  0  0  0  0  0  0  0  0  0  0  0
   -6.7311    0.4801   -0.2486 C   0  0  0  0  0  0  0  0  0  0  0  0
   -6.6511    1.8991    0.0307 N   0  0  0  0  0  0  0  0  0  0  0  0
   -5.9217    0.0710   -1.4639 C   0  0  0  0  0  0  0  0  0  0  0  0
   -5.0695   -1.1317   -1.1919 C   0  0  0  0  0  0  0  0  0  0  0  0
    1.1520    0.4936    0.2937 C   0  0  0  0  0  0  0  0  0  0  0  0
    2.4878    0.6722    0.2013 N   0  0  0  0  0  0  0  0  0  0  0  0
    5.2673    1.1960   -0.0119 C   0  0  0  0  0  0  0  0  0  0  0  0
    6.6038    1.4608   -0.1159 C   0  0  0  0  0  0  0  0  0  0  0  0
    7.1188    2.7449   -0.2535 O   0  0  0  0  0  0  0  0  0  0  0  0
    9.0656    1.6156   -0.8388 H   0  0  0  0  0  0  0  0  0  0  0  0
    9.4089    0.8603    0.7987 H   0  0  0  0  0  0  0  0  0  0  0  0
    9.4775   -0.1475   -0.7267 H   0  0  0  0  0  0  0  0  0  0  0  0
    7.8107   -1.6689    0.0677 H   0  0  0  0  0  0  0  0  0  0  0  0
    5.4316   -2.1402    0.2520 H   0  0  0  0  0  0  0  0  0  0  0  0
    3.4735   -2.5016    0.3914 H   0  0  0  0  0  0  0  0  0  0  0  0
    1.0397   -2.8031    0.5606 H   0  0  0  0  0  0  0  0  0  0  0  0
   -1.2325   -1.9178    0.6405 H   0  0  0  0  0  0  0  0  0  0  0  0
   -2.1467   -0.1639    2.1415 H   0  0  0  0  0  0  0  0  0  0  0  0
   -0.8657    1.0610    1.7193 H   0  0  0  0  0  0  0  0  0  0  0  0
   -1.1657    0.9069   -0.7116 H   0  0  0  0  0  0  0  0  0  0  0  0
   -3.2940    0.5662   -1.4039 H   0  0  0  0  0  0  0  0  0  0  0  0
   -3.7614   -1.8385    0.2941 H   0  0  0  0  0  0  0  0  0  0  0  0
   -4.5080    0.9891    1.0076 H   0  0  0  0  0  0  0  0  0  0  0  0
   -4.4478   -0.4606    2.0156 H   0  0  0  0  0  0  0  0  0  0  0  0
   -6.6685   -0.0258    1.8745 H   0  0  0  0  0  0  0  0  0  0  0  0
   -6.4533   -1.3919    0.7457 H   0  0  0  0  0  0  0  0  0  0  0  0
   -7.8067    0.2191   -0.3710 H   0  0  0  0  0  0  0  0  0  0  0  0
   -6.1946    2.1226    0.9385 H   0  0  0  0  0  0  0  0  0  0  0  0
   -6.2415    2.4415   -0.7580 H   0  0  0  0  0  0  0  0  0  0  0  0
   -5.3215    0.9332   -1.8116 H   0  0  0  0  0  0  0  0  0  0  0  0
   -6.6325   -0.1842   -2.2638 H   0  0  0  0  0  0  0  0  0  0  0  0
   -5.6617   -2.0153   -0.9944 H   0  0  0  0  0  0  0  0  0  0  0  0
   -4.5198   -1.3383   -2.1544 H   0  0  0  0  0  0  0  0  0  0  0  0
    0.5585    1.3977    0.2577 H   0  0  0  0  0  0  0  0  0  0  0  0
    4.5443    1.9931   -0.0330 H   0  0  0  0  0  0  0  0  0  0  0  0
    7.6080    3.0595   -1.0760 H   0  0  0  0  0  0  0  0  0  0  0  0
  1  2  1  0
  2  3  2  0
  3  4  1  0
  4  5  2  0
  5  6  1  0
  6  7  2  0
  7  8  1  0
  8  9  2  0
  9 10  1  0
 10 11  1  0
 11 12  1  0
 12 13  1  0
 13 14  1  0
 14 15  1  0
 15 16  1  0
 16 17  1  0
 17 18  1  0
 17 19  1  0
 19 20  1  0
  9 21  1  0
 21 22  2  0
  5 23  1  0
 23 24  2  0
 24 25  1  0
 24  2  1  0
 22  6  1  0
 12 10  1  0
 20 14  1  0
  1 26  1  0
  1 27  1  0
  1 28  1  0
  3 29  1  0
  4 30  1  0
  7 31  1  0
  8 32  1  0
 10 33  1  1
 11 34  1  0
 11 35  1  0
 12 36  1  6
 13 37  1  0
 14 38  1  0
 15 39  1  0
 15 40  1  0
 16 41  1  0
 16 42  1  0
 17 43  1  0
 18 44  1  0
 18 45  1  0
 19 46  1  0
 19 47  1  0
 20 48  1  0
 20 49  1  0
 21 50  1  0
 23 51  1  0
 25 52  1  0
M  END
$$$$
