
     RDKit          3D

 13 12  0  0  0  0  0  0  0  0999 V2000
    1.5491    0.3229   -0.9048 O   0  0  0  0  0  0  0  0  0  0  0  0
    0.9469    0.7543    0.2764 C   0  0  0  0  0  0  0  0  0  0  0  0
    0.1280   -0.4133    0.8433 C   0  0  0  0  0  0  0  0  0  0  0  0
   -0.9078   -0.7808   -0.2016 C   0  0  0  0  0  0  0  0  0  0  0  0
   -1.7088    0.3023   -0.4408 O   0  0  0  0  0  0  0  0  0  0  0  0
    0.8593    0.3221   -1.6019 H   0  0  0  0  0  0  0  0  0  0  0  0
    1.7556    1.0510    0.9706 H   0  0  0  0  0  0  0  0  0  0  0  0
    0.2679    1.6125    0.0953 H   0  0  0  0  0  0  0  0  0  0  0  0
    0.7961   -1.2775    1.0145 H   0  0  0  0  0  0  0  0  0  0  0  0
   -0.3564   -0.1280    1.7895 H   0  0  0  0  0  0  0  0  0  0  0  0
   -1.5756   -1.5723    0.2453 H   0  0  0  0  0  0  0  0  0  0  0  0
   -0.3961   -1.2053   -1.0872 H   0  0  0  0  0  0  0  0  0  0  0  0
   -1.3582    1.0121   -0.9985 H   0  0  0  0  0  0  0  0  0  0  0  0
  1  2  1  0
  2  3  1  0
  3  4  1  0
  4  5  1  0
  1  6  1  0
  2  7  1  0
  2  8  1  0
  3  9  1  0
  3 10  1  0
  4 11  1  0
  4 12  1  0
  5 13  1  0
M  END
$$$$
