
     RDKit          3D

 96101  0  0  0  0  0  0  0  0999 V2000
    9.2827    3.7023    1.6970 C   0  0  0  0  0  0  0  0  0  0  0  0
    7.9441    3.2754    1.8087 O   0  0  0  0  0  0  0  0  0  0  0  0
    7.4411    2.2418    0.9962 C   0  0  0  0  0  0  0  0  0  0  0  0
    8.3157    1.6752    0.0955 C   0  0  0  0  0  0  0  0  0  0  0  0
    7.9244    0.6595   -0.7434 C   0  0  0  0  0  0  0  0  0  0  0  0
    8.8073    0.0352   -1.7115 C   0  0  0  0  0  0  0  0  0  0  0  0
    8.3774   -0.9556   -2.3790 O   0  0  0  0  0  0  0  0  0  0  0  0
   10.1174    0.5398   -1.8897 N   0  0  0  0  0  0  0  0  0  0  0  0
   10.9851   -0.0911   -2.8503 C   0  0  0  0  0  0  0  0  0  0  0  0
   11.2810   -1.5271   -2.5786 C   0  0  0  0  0  0  0  0  0  0  0  0
   11.9248   -1.8099   -1.3346 N   0  0  0  0  0  0  0  0  0  0  0  0
   12.1592   -3.2682   -1.3247 C   0  0  0  0  0  0  0  0  0  0  0  0
   11.0977   -1.5694   -0.1642 C   0  0  0  0  0  0  0  0  0  0  0  0
    6.6160    0.2525   -0.6232 C   0  0  0  0  0  0  0  0  0  0  0  0
    5.7224    0.8219    0.2876 C   0  0  0  0  0  0  0  0  0  0  0  0
    6.1127    1.8340    1.1233 C   0  0  0  0  0  0  0  0  0  0  0  0
    5.3341    2.4818    2.0876 N   0  0  0  0  0  0  0  0  0  0  0  0
    3.9554    2.2576    2.2937 C   0  0  0  0  0  0  0  0  0  0  0  0
    3.3641    2.9100    3.3379 N   0  0  0  0  0  0  0  0  0  0  0  0
    2.0541    2.7285    3.5364 C   0  0  0  0  0  0  0  0  0  0  0  0
    1.3098    1.9133    2.7231 C   0  0  0  0  0  0  0  0  0  0  0  0
    1.9192    1.2657    1.6784 C   0  0  0  0  0  0  0  0  0  0  0  0
    1.2277    0.4194    0.8117 O   0  0  0  0  0  0  0  0  0  0  0  0
   -0.1512    0.2542    0.9322 C   0  0  0  0  0  0  0  0  0  0  0  0
   -0.6624   -0.9929    1.2992 C   0  0  0  0  0  0  0  0  0  0  0  0
   -2.0174   -1.1897    1.4292 C   0  0  0  0  0  0  0  0  0  0  0  0
   -2.8906   -0.1727    1.2024 C   0  0  0  0  0  0  0  0  0  0  0  0
   -4.3121   -0.3293    1.3275 N   0  0  0  0  0  0  0  0  0  0  0  0
   -5.1518   -0.6709    0.2232 C   0  0  0  0  0  0  0  0  0  0  0  0
   -4.6330   -0.8362   -0.9028 O   0  0  0  0  0  0  0  0  0  0  0  0
   -6.5475   -0.8286    0.3537 N   0  0  0  0  0  0  0  0  0  0  0  0
   -7.4431   -1.1447   -0.6993 C   0  0  0  0  0  0  0  0  0  0  0  0
   -7.1641   -1.3258   -2.0278 C   0  0  0  0  0  0  0  0  0  0  0  0
   -8.3452   -1.6121   -2.6722 C   0  0  0  0  0  0  0  0  0  0  0  0
   -8.5621   -1.8888   -4.1382 C   0  0  0  0  0  0  0  0  0  0  0  0
   -9.2586   -3.1877   -4.3417 C   0  0  0  0  0  0  0  0  0  0  0  0
   -9.3809   -0.7395   -4.6995 C   0  0  0  0  0  0  0  0  0  0  0  0
   -9.3018   -1.5964   -1.7151 N   0  0  0  0  0  0  0  0  0  0  0  0
   -8.7765   -1.3190   -0.5348 N   0  0  0  0  0  0  0  0  0  0  0  0
   -9.4680   -1.2202    0.7043 C   0  0  0  0  0  0  0  0  0  0  0  0
   -9.4806   -0.0515    1.4298 C   0  0  0  0  0  0  0  0  0  0  0  0
  -10.1558    0.0416    2.6431 C   0  0  0  0  0  0  0  0  0  0  0  0
  -10.8412   -1.0347    3.1687 C   0  0  0  0  0  0  0  0  0  0  0  0
  -11.5622   -0.9284    4.4762 C   0  0  0  0  0  0  0  0  0  0  0  0
  -10.8297   -2.2069    2.4430 C   0  0  0  0  0  0  0  0  0  0  0  0
  -10.1601   -2.3010    1.2394 C   0  0  0  0  0  0  0  0  0  0  0  0
   -2.4255    1.0704    0.8367 C   0  0  0  0  0  0  0  0  0  0  0  0
   -3.3165    2.1010    0.5850 C   0  0  0  0  0  0  0  0  0  0  0  0
   -2.8237    3.3285    0.1990 C   0  0  0  0  0  0  0  0  0  0  0  0
   -1.4733    3.5515    0.0587 C   0  0  0  0  0  0  0  0  0  0  0  0
   -0.6100    2.5127    0.3150 C   0  0  0  0  0  0  0  0  0  0  0  0
   -1.0658    1.2604    0.7081 C   0  0  0  0  0  0  0  0  0  0  0  0
    3.2346    1.4675    1.5056 N   0  0  0  0  0  0  0  0  0  0  0  0
    9.4051    4.6037    2.3569 H   0  0  0  0  0  0  0  0  0  0  0  0
    9.5124    3.9765    0.6305 H   0  0  0  0  0  0  0  0  0  0  0  0
    9.9308    2.9011    2.0673 H   0  0  0  0  0  0  0  0  0  0  0  0
    9.3451    2.0349    0.0436 H   0  0  0  0  0  0  0  0  0  0  0  0
   10.5210    1.3633   -1.3678 H   0  0  0  0  0  0  0  0  0  0  0  0
   10.4218   -0.0622   -3.8304 H   0  0  0  0  0  0  0  0  0  0  0  0
   11.9012    0.5063   -3.0526 H   0  0  0  0  0  0  0  0  0  0  0  0
   11.9610   -1.8698   -3.4109 H   0  0  0  0  0  0  0  0  0  0  0  0
   10.3480   -2.1460   -2.6680 H   0  0  0  0  0  0  0  0  0  0  0  0
   11.3059   -3.7229   -1.8255 H   0  0  0  0  0  0  0  0  0  0  0  0
   12.2795   -3.5778   -0.2530 H   0  0  0  0  0  0  0  0  0  0  0  0
   13.0952   -3.4393   -1.8970 H   0  0  0  0  0  0  0  0  0  0  0  0
   11.6268   -2.0413    0.7150 H   0  0  0  0  0  0  0  0  0  0  0  0
   10.1209   -2.0774   -0.2521 H   0  0  0  0  0  0  0  0  0  0  0  0
   11.0622   -0.4964    0.0222 H   0  0  0  0  0  0  0  0  0  0  0  0
    6.2790   -0.5568   -1.2786 H   0  0  0  0  0  0  0  0  0  0  0  0
    4.7233    0.4383    0.3200 H   0  0  0  0  0  0  0  0  0  0  0  0
    5.8318    3.2024    2.7155 H   0  0  0  0  0  0  0  0  0  0  0  0
    1.6118    3.2651    4.3816 H   0  0  0  0  0  0  0  0  0  0  0  0
    0.2726    1.8057    2.9394 H   0  0  0  0  0  0  0  0  0  0  0  0
    0.0393   -1.7929    1.4770 H   0  0  0  0  0  0  0  0  0  0  0  0
   -2.3964   -2.1594    1.7150 H   0  0  0  0  0  0  0  0  0  0  0  0
   -4.7857   -0.1942    2.2536 H   0  0  0  0  0  0  0  0  0  0  0  0
   -6.9244   -0.6779    1.3370 H   0  0  0  0  0  0  0  0  0  0  0  0
   -6.2246   -1.2694   -2.5343 H   0  0  0  0  0  0  0  0  0  0  0  0
   -7.5954   -1.8949   -4.6581 H   0  0  0  0  0  0  0  0  0  0  0  0
   -9.8223   -3.1079   -5.3133 H   0  0  0  0  0  0  0  0  0  0  0  0
  -10.0312   -3.3792   -3.5643 H   0  0  0  0  0  0  0  0  0  0  0  0
   -8.5809   -4.0505   -4.4843 H   0  0  0  0  0  0  0  0  0  0  0  0
  -10.2275   -0.4759   -4.0114 H   0  0  0  0  0  0  0  0  0  0  0  0
   -9.7706   -1.0749   -5.6829 H   0  0  0  0  0  0  0  0  0  0  0  0
   -8.7160    0.1304   -4.8555 H   0  0  0  0  0  0  0  0  0  0  0  0
   -8.9451    0.8132    1.0326 H   0  0  0  0  0  0  0  0  0  0  0  0
  -10.1658    0.9580    3.2168 H   0  0  0  0  0  0  0  0  0  0  0  0
  -10.9074   -0.3682    5.1640 H   0  0  0  0  0  0  0  0  0  0  0  0
  -11.6692   -1.9520    4.9325 H   0  0  0  0  0  0  0  0  0  0  0  0
  -12.5360   -0.4345    4.3984 H   0  0  0  0  0  0  0  0  0  0  0  0
  -11.3573   -3.0555    2.8347 H   0  0  0  0  0  0  0  0  0  0  0  0
  -10.1309   -3.2099    0.6432 H   0  0  0  0  0  0  0  0  0  0  0  0
   -4.3670    1.9006    0.7017 H   0  0  0  0  0  0  0  0  0  0  0  0
   -3.5086    4.1456   -0.0023 H   0  0  0  0  0  0  0  0  0  0  0  0
   -1.0912    4.5355   -0.2513 H   0  0  0  0  0  0  0  0  0  0  0  0
    0.4617    2.7027    0.1806 H   0  0  0  0  0  0  0  0  0  0  0  0
  1  2  1  0
  2  3  1  0
  3  4  2  0
  4  5  1  0
  5  6  1  0
  6  7  2  0
  6  8  1  0
  8  9  1  0
  9 10  1  0
 10 11  1  0
 11 12  1  0
 11 13  1  0
  5 14  2  0
 14 15  1  0
 15 16  2  0
 16 17  1  0
 17 18  1  0
 18 19  2  0
 19 20  1  0
 20 21  2  0
 21 22  1  0
 22 23  1  0
 23 24  1  0
 24 25  2  0
 25 26  1  0
 26 27  2  0
 27 28  1  0
 28 29  1  0
 29 30  2  0
 29 31  1  0
 31 32  1  0
 32 33  2  0
 33 34  1  0
 34 35  1  0
 35 36  1  0
 35 37  1  0
 34 38  2  0
 38 39  1  0
 39 40  1  0
 40 41  2  0
 41 42  1  0
 42 43  2  0
 43 44  1  0
 43 45  1  0
 45 46  2  0
 27 47  1  0
 47 48  2  0
 48 49  1  0
 49 50  2  0
 50 51  1  0
 51 52  2  0
 22 53  2  0
 16  3  1  0
 53 18  1  0
 52 24  1  0
 39 32  1  0
 46 40  1  0
 52 47  1  0
  1 54  1  0
  1 55  1  0
  1 56  1  0
  4 57  1  0
  8 58  1  0
  9 59  1  0
  9 60  1  0
 10 61  1  0
 10 62  1  0
 12 63  1  0
 12 64  1  0
 12 65  1  0
 13 66  1  0
 13 67  1  0
 13 68  1  0
 14 69  1  0
 15 70  1  0
 17 71  1  0
 20 72  1  0
 21 73  1  0
 25 74  1  0
 26 75  1  0
 28 76  1  0
 31 77  1  0
 33 78  1  0
 35 79  1  0
 36 80  1  0
 36 81  1  0
 36 82  1  0
 37 83  1  0
 37 84  1  0
 37 85  1  0
 41 86  1  0
 42 87  1  0
 44 88  1  0
 44 89  1  0
 44 90  1  0
 45 91  1  0
 46 92  1  0
 48 93  1  0
 49 94  1  0
 50 95  1  0
 51 96  1  0
M  END
$$$$
