
     RDKit          3D

 44 47  0  0  0  0  0  0  0  0999 V2000
   -2.1138   -3.8548   -0.9780 C   0  0  0  0  0  0  0  0  0  0  0  0
   -1.8893   -2.6497   -0.0712 C   0  0  0  0  0  0  0  0  0  0  0  0
   -2.0092   -1.4157   -0.9337 C   0  0  0  0  0  0  0  0  0  0  0  0
   -1.7998   -0.1672   -0.1686 C   0  0  0  0  0  0  0  0  0  0  0  0
   -0.5412    0.3182    0.2274 C   0  0  0  0  0  0  0  0  0  0  0  0
    0.9607   -0.4987   -0.2160 S   0  0  0  0  0  0  0  0  0  0  0  0
    2.3959    0.5224   -0.1182 C   0  0  0  0  0  0  0  0  0  0  0  0
    2.3861    1.8968   -0.0557 C   0  0  0  0  0  0  0  0  0  0  0  0
    3.5576    2.6552    0.0647 C   0  0  0  0  0  0  0  0  0  0  0  0
    4.7489    2.0036    0.1197 C   0  0  0  0  0  0  0  0  0  0  0  0
    4.7957    0.6303    0.0583 C   0  0  0  0  0  0  0  0  0  0  0  0
    6.0552    0.0402    0.1181 C   0  0  0  0  0  0  0  0  0  0  0  0
    6.1068   -1.3330    0.0550 C   0  0  0  0  0  0  0  0  0  0  0  0
    4.9488   -2.0800   -0.0629 C   0  0  0  0  0  0  0  0  0  0  0  0
    3.7019   -1.4901   -0.1221 C   0  0  0  0  0  0  0  0  0  0  0  0
    3.6486   -0.1115   -0.0587 C   0  0  0  0  0  0  0  0  0  0  0  0
   -0.7962    1.4412    0.8907 N   0  0  0  0  0  0  0  0  0  0  0  0
   -2.1370    1.6883    0.9316 C   0  0  0  0  0  0  0  0  0  0  0  0
   -2.8722    2.6721    1.4680 N   0  0  0  0  0  0  0  0  0  0  0  0
   -4.2178    2.7048    1.3770 C   0  0  0  0  0  0  0  0  0  0  0  0
   -5.0253    3.7300    1.9325 N   0  0  0  0  0  0  0  0  0  0  0  0
   -4.8449    1.7039    0.7185 N   0  0  0  0  0  0  0  0  0  0  0  0
   -4.1854    0.6951    0.1606 C   0  0  0  0  0  0  0  0  0  0  0  0
   -4.8505   -0.3487   -0.5239 N   0  0  0  0  0  0  0  0  0  0  0  0
   -2.7996    0.6667    0.2571 C   0  0  0  0  0  0  0  0  0  0  0  0
   -2.7445   -4.6038   -0.4232 H   0  0  0  0  0  0  0  0  0  0  0  0
   -1.1774   -4.3003   -1.3184 H   0  0  0  0  0  0  0  0  0  0  0  0
   -2.7316   -3.5265   -1.8294 H   0  0  0  0  0  0  0  0  0  0  0  0
   -2.7483   -2.5917    0.6486 H   0  0  0  0  0  0  0  0  0  0  0  0
   -0.9370   -2.7407    0.4549 H   0  0  0  0  0  0  0  0  0  0  0  0
   -2.9973   -1.4464   -1.4256 H   0  0  0  0  0  0  0  0  0  0  0  0
   -1.2770   -1.4692   -1.7946 H   0  0  0  0  0  0  0  0  0  0  0  0
    1.4444    2.4110   -0.1357 H   0  0  0  0  0  0  0  0  0  0  0  0
    3.4529    3.7251    0.1079 H   0  0  0  0  0  0  0  0  0  0  0  0
    5.6536    2.6150    0.2139 H   0  0  0  0  0  0  0  0  0  0  0  0
    6.9283    0.6656    0.2098 H   0  0  0  0  0  0  0  0  0  0  0  0
    7.0670   -1.8306    0.0978 H   0  0  0  0  0  0  0  0  0  0  0  0
    5.0035   -3.1366   -0.1111 H   0  0  0  0  0  0  0  0  0  0  0  0
    2.7858   -2.0439   -0.2135 H   0  0  0  0  0  0  0  0  0  0  0  0
   -0.0907    2.0552    1.3533 H   0  0  0  0  0  0  0  0  0  0  0  0
   -4.8911    4.7217    1.6392 H   0  0  0  0  0  0  0  0  0  0  0  0
   -5.7671    3.5341    2.6399 H   0  0  0  0  0  0  0  0  0  0  0  0
   -5.0951   -0.2359   -1.5451 H   0  0  0  0  0  0  0  0  0  0  0  0
   -5.1028   -1.2217   -0.0436 H   0  0  0  0  0  0  0  0  0  0  0  0
  1  2  1  0
  2  3  1  0
  3  4  1  0
  4  5  2  0
  5  6  1  0
  6  7  1  0
  7  8  2  0
  8  9  1  0
  9 10  2  0
 10 11  1  0
 11 12  2  0
 12 13  1  0
 13 14  2  0
 14 15  1  0
 15 16  2  0
  5 17  1  0
 17 18  1  0
 18 19  2  0
 19 20  1  0
 20 21  1  0
 20 22  2  0
 22 23  1  0
 23 24  1  0
 23 25  2  0
 25  4  1  0
 16  7  1  0
 25 18  1  0
 16 11  1  0
  1 26  1  0
  1 27  1  0
  1 28  1  0
  2 29  1  0
  2 30  1  0
  3 31  1  0
  3 32  1  0
  8 33  1  0
  9 34  1  0
 10 35  1  0
 12 36  1  0
 13 37  1  0
 14 38  1  0
 15 39  1  0
 17 40  1  0
 21 41  1  0
 21 42  1  0
 24 43  1  0
 24 44  1  0
M  END
$$$$
