
     RDKit          3D

 26 27  0  0  0  0  0  0  0  0999 V2000
   -0.9572   -1.2746   -1.0519 C   0  0  0  0  0  0  0  0  0  0  0  0
   -0.8077   -0.6891    0.3285 C   0  0  0  0  0  0  0  0  0  0  0  0
   -1.9355   -0.9753    1.2429 C   0  0  0  0  0  0  0  0  0  0  0  0
   -0.3966    0.7525    0.2678 C   0  0  2  0  0  0  0  0  0  0  0  0
   -1.3626    1.5933   -0.4680 C   0  0  0  0  0  0  0  0  0  0  0  0
   -2.5617    1.5902   -0.0846 O   0  0  0  0  0  0  0  0  0  0  0  0
   -1.0453    2.3865   -1.5512 O   0  0  0  0  0  0  0  0  0  0  0  0
    0.9020    0.8347   -0.2452 N   0  0  0  0  0  0  0  0  0  0  0  0
    2.0779    1.3378   -0.8184 C   0  0  0  0  0  0  0  0  0  0  0  0
    2.3468    2.1063   -1.7189 O   0  0  0  0  0  0  0  0  0  0  0  0
    2.7815    0.5000    0.1792 C   0  0  0  0  0  0  0  0  0  0  0  0
    1.6905   -0.4121   -0.1939 C   0  0  1  0  0  0  0  0  0  0  0  0
    0.7645   -1.3041    1.0045 S   0  0  0  0  0  6  0  0  0  0  0  0
    0.8281   -2.7730    0.8699 O   0  0  0  0  0  0  0  0  0  0  0  0
    0.8959   -0.7760    2.3757 O   0  0  0  0  0  0  0  0  0  0  0  0
   -0.4762   -2.2756   -1.0876 H   0  0  0  0  0  0  0  0  0  0  0  0
   -2.0017   -1.3000   -1.3707 H   0  0  0  0  0  0  0  0  0  0  0  0
   -0.3767   -0.6364   -1.7547 H   0  0  0  0  0  0  0  0  0  0  0  0
   -2.7945   -1.3712    0.6366 H   0  0  0  0  0  0  0  0  0  0  0  0
   -1.6233   -1.8227    1.9125 H   0  0  0  0  0  0  0  0  0  0  0  0
   -2.2308   -0.1470    1.9018 H   0  0  0  0  0  0  0  0  0  0  0  0
   -0.4785    1.0946    1.3570 H   0  0  0  0  0  0  0  0  0  0  0  0
   -1.5870    3.2550   -1.6782 H   0  0  0  0  0  0  0  0  0  0  0  0
    3.8165    0.2164   -0.0880 H   0  0  0  0  0  0  0  0  0  0  0  0
    2.6855    0.9901    1.1851 H   0  0  0  0  0  0  0  0  0  0  0  0
    1.8463   -0.9002   -1.1501 H   0  0  0  0  0  0  0  0  0  0  0  0
  1  2  1  0
  2  3  1  0
  2  4  1  0
  4  5  1  0
  5  6  2  0
  5  7  1  0
  4  8  1  0
  8  9  1  0
  9 10  2  0
  9 11  1  0
 11 12  1  0
 12 13  1  0
 13 14  2  0
 13 15  2  0
 13  2  1  0
 12  8  1  0
  1 16  1  0
  1 17  1  0
  1 18  1  0
  3 19  1  0
  3 20  1  0
  3 21  1  0
  4 22  1  1
  7 23  1  0
 11 24  1  0
 11 25  1  0
 12 26  1  6
M  END
$$$$
