
     RDKit          3D

 53 56  0  0  0  0  0  0  0  0999 V2000
   10.4958    0.7959   -3.9233 C   0  0  0  0  0  0  0  0  0  0  0  0
    9.4219    0.4037   -3.4890 C   0  0  0  0  0  0  0  0  0  0  0  0
    8.1718   -0.0462   -2.9584 C   0  0  0  0  0  0  0  0  0  0  0  0
    7.4702    1.0655   -2.3929 O   0  0  0  0  0  0  0  0  0  0  0  0
    6.2286    0.8008   -1.8113 C   0  0  0  0  0  0  0  0  0  0  0  0
    5.4366    1.7570   -1.2349 C   0  0  0  0  0  0  0  0  0  0  0  0
    4.2292    1.4484   -0.6810 N   0  0  0  0  0  0  0  0  0  0  0  0
    3.7713    0.1610   -0.6848 C   0  0  0  0  0  0  0  0  0  0  0  0
    2.4622   -0.1411   -0.0967 C   0  0  0  0  0  0  0  0  0  0  0  0
    1.7265    0.8767    0.4123 F   0  0  0  0  0  0  0  0  0  0  0  0
    1.9378   -1.3407   -0.0220 C   0  0  0  0  0  0  0  0  0  0  0  0
    0.6488   -1.6794    0.5487 C   0  0  0  0  0  0  0  0  0  0  0  0
    0.4525   -2.8609    1.2888 C   0  0  0  0  0  0  0  0  0  0  0  0
   -0.7610   -3.2109    1.8237 C   0  0  0  0  0  0  0  0  0  0  0  0
   -1.8128   -2.3345    1.6000 C   0  0  0  0  0  0  0  0  0  0  0  0
   -3.0066   -2.7213    2.1487 F   0  0  0  0  0  0  0  0  0  0  0  0
   -1.6587   -1.1772    0.8872 C   0  0  0  0  0  0  0  0  0  0  0  0
   -2.8323   -0.2887    0.6171 C   0  0  1  0  0  0  0  0  0  0  0  0
   -2.4396    0.8871   -0.2417 C   0  0  0  0  0  0  0  0  0  0  0  0
   -3.7400   -1.1162   -0.1708 N   0  0  0  0  0  0  0  0  0  0  0  0
   -4.9412   -0.8227   -0.4600 C   0  0  0  0  0  0  0  0  0  0  0  0
   -5.7522   -1.6628   -1.2228 N   0  0  0  0  0  0  0  0  0  0  0  0
   -5.5551    0.7196    0.2038 S   0  0  0  0  0  0  0  0  0  0  0  0
   -4.7224    0.8725    1.8263 C   0  0  1  0  0  0  0  0  0  0  0  0
   -5.1477    2.2268    2.8769 S   0  0  0  0  0  6  0  0  0  0  0  0
   -4.7982    3.7754    2.0696 C   0  0  0  0  0  0  0  0  0  0  0  0
   -6.6385    2.1230    3.1585 O   0  0  0  0  0  0  0  0  0  0  0  0
   -4.4444    2.0915    4.1884 O   0  0  0  0  0  0  0  0  0  0  0  0
   -4.6234   -0.4972    2.5274 C   0  0  0  0  0  0  0  0  0  0  0  0
   -3.4665    0.1328    1.8986 C   0  0  1  0  0  0  0  0  0  0  0  0
   -0.4199   -0.8329    0.3502 C   0  0  0  0  0  0  0  0  0  0  0  0
    4.5713   -0.7837   -1.2626 C   0  0  0  0  0  0  0  0  0  0  0  0
    5.7553   -0.4788   -1.8062 N   0  0  0  0  0  0  0  0  0  0  0  0
   11.4328    1.1571   -4.3081 H   0  0  0  0  0  0  0  0  0  0  0  0
    8.2842   -0.8285   -2.1737 H   0  0  0  0  0  0  0  0  0  0  0  0
    7.5473   -0.5157   -3.7705 H   0  0  0  0  0  0  0  0  0  0  0  0
    5.8332    2.7718   -1.2399 H   0  0  0  0  0  0  0  0  0  0  0  0
    2.5263   -2.1645   -0.4297 H   0  0  0  0  0  0  0  0  0  0  0  0
    1.3266   -3.4800    1.4086 H   0  0  0  0  0  0  0  0  0  0  0  0
   -0.8512   -4.1225    2.3798 H   0  0  0  0  0  0  0  0  0  0  0  0
   -2.0510    0.6058   -1.2154 H   0  0  0  0  0  0  0  0  0  0  0  0
   -1.6343    1.4996    0.2644 H   0  0  0  0  0  0  0  0  0  0  0  0
   -3.2844    1.5767   -0.4082 H   0  0  0  0  0  0  0  0  0  0  0  0
   -6.2141   -2.4949   -0.7477 H   0  0  0  0  0  0  0  0  0  0  0  0
   -5.9577   -1.5646   -2.2353 H   0  0  0  0  0  0  0  0  0  0  0  0
   -4.8660    4.6256    2.7766 H   0  0  0  0  0  0  0  0  0  0  0  0
   -3.8096    3.8068    1.6067 H   0  0  0  0  0  0  0  0  0  0  0  0
   -5.5669    3.9152    1.2831 H   0  0  0  0  0  0  0  0  0  0  0  0
   -5.2375   -1.3079    2.1315 H   0  0  0  0  0  0  0  0  0  0  0  0
   -4.6985   -0.4547    3.6537 H   0  0  0  0  0  0  0  0  0  0  0  0
   -2.7094    0.5801    2.6192 H   0  0  0  0  0  0  0  0  0  0  0  0
   -0.3583    0.0786   -0.2040 H   0  0  0  0  0  0  0  0  0  0  0  0
    4.2690   -1.8265   -1.3003 H   0  0  0  0  0  0  0  0  0  0  0  0
  1  2  3  0
  2  3  1  0
  3  4  1  0
  4  5  1  0
  5  6  2  0
  6  7  1  0
  7  8  2  0
  8  9  1  0
  9 10  1  0
  9 11  2  0
 11 12  1  0
 12 13  2  0
 13 14  1  0
 14 15  2  0
 15 16  1  0
 15 17  1  0
 17 18  1  0
 18 19  1  6
 18 20  1  0
 20 21  2  0
 21 22  1  0
 21 23  1  0
 23 24  1  0
 24 25  1  1
 25 26  1  0
 25 27  2  0
 25 28  2  0
 24 29  1  0
 29 30  1  0
 17 31  2  0
  8 32  1  0
 32 33  2  0
 33  5  1  0
 31 12  1  0
 30 18  1  0
 30 24  1  0
  1 34  1  0
  3 35  1  0
  3 36  1  0
  6 37  1  0
 11 38  1  0
 13 39  1  0
 14 40  1  0
 19 41  1  0
 19 42  1  0
 19 43  1  0
 22 44  1  0
 22 45  1  0
 26 46  1  0
 26 47  1  0
 26 48  1  0
 29 49  1  0
 29 50  1  0
 30 51  1  1
 31 52  1  0
 32 53  1  0
M  END
$$$$
