
     RDKit          3D

 58 62  0  0  0  0  0  0  0  0999 V2000
    5.2115    3.2787    0.2239 C   0  0  0  0  0  0  0  0  0  0  0  0
    5.9731    2.0035    0.1621 C   0  0  0  0  0  0  0  0  0  0  0  0
    6.9242    1.6940    1.0732 N   0  0  0  0  0  0  0  0  0  0  0  0
    7.4276    0.4836    0.7495 C   0  0  0  0  0  0  0  0  0  0  0  0
    6.7450    0.0828   -0.3839 C   0  0  0  0  0  0  0  0  0  0  0  0
    5.8628    1.0068   -0.7387 N   0  0  0  0  0  0  0  0  0  0  0  0
    4.9415    0.9851   -1.8682 C   0  0  0  0  0  0  0  0  0  0  0  0
    3.6518    0.3547   -1.4440 C   0  0  0  0  0  0  0  0  0  0  0  0
    3.5327   -0.9980   -1.5929 C   0  0  0  0  0  0  0  0  0  0  0  0
    2.3445   -1.6196   -1.2074 C   0  0  0  0  0  0  0  0  0  0  0  0
    1.2928   -0.9104   -0.6831 C   0  0  0  0  0  0  0  0  0  0  0  0
    0.0309   -1.5246   -0.2662 C   0  0  0  0  0  0  0  0  0  0  0  0
   -0.2212   -2.8770   -0.3604 C   0  0  0  0  0  0  0  0  0  0  0  0
   -1.4175   -3.4508    0.0368 C   0  0  0  0  0  0  0  0  0  0  0  0
   -1.9396   -4.6883    0.0676 N   0  0  0  0  0  0  0  0  0  0  0  0
   -3.1658   -4.6720    0.5620 N   0  0  0  0  0  0  0  0  0  0  0  0
   -4.0406   -5.8422    0.7439 C   0  0  0  0  0  0  0  0  0  0  0  0
   -3.4863   -3.4046    0.8737 C   0  0  0  0  0  0  0  0  0  0  0  0
   -2.3964   -2.6265    0.5487 C   0  0  0  0  0  0  0  0  0  0  0  0
   -2.1440   -1.2541    0.6457 C   0  0  0  0  0  0  0  0  0  0  0  0
   -3.1633   -0.4758    1.1671 O   0  0  0  0  0  0  0  0  0  0  0  0
   -3.0808    0.9131    1.3333 C   0  0  2  0  0  0  0  0  0  0  0  0
   -3.1856    1.3312    2.7820 C   0  0  0  0  0  0  0  0  0  0  0  0
   -4.1401    1.6020    0.5348 C   0  0  1  0  0  0  0  0  0  0  0  0
   -4.0680    3.1047    0.7009 C   0  0  0  0  0  0  0  0  0  0  0  0
   -4.4140    3.6570   -0.6132 N   0  0  0  0  0  0  0  0  0  0  0  0
   -4.2507    2.6613   -1.6041 C   0  0  0  0  0  0  0  0  0  0  0  0
   -4.3329    2.8437   -2.8362 O   0  0  0  0  0  0  0  0  0  0  0  0
   -3.9675    1.3717   -0.9542 C   0  0  0  0  0  0  0  0  0  0  0  0
   -0.9728   -0.7754    0.2448 N   0  0  0  0  0  0  0  0  0  0  0  0
    1.4365    0.4486   -0.5432 C   0  0  0  0  0  0  0  0  0  0  0  0
    2.6135    1.0883   -0.9216 C   0  0  0  0  0  0  0  0  0  0  0  0
    5.8278    4.0780    0.6622 H   0  0  0  0  0  0  0  0  0  0  0  0
    4.8430    3.5528   -0.7939 H   0  0  0  0  0  0  0  0  0  0  0  0
    4.2950    3.0945    0.8505 H   0  0  0  0  0  0  0  0  0  0  0  0
    8.2080   -0.0746    1.2628 H   0  0  0  0  0  0  0  0  0  0  0  0
    6.9360   -0.8594   -0.8786 H   0  0  0  0  0  0  0  0  0  0  0  0
    4.7768    1.9904   -2.2736 H   0  0  0  0  0  0  0  0  0  0  0  0
    5.3836    0.3766   -2.6860 H   0  0  0  0  0  0  0  0  0  0  0  0
    4.3633   -1.5798   -2.0101 H   0  0  0  0  0  0  0  0  0  0  0  0
    2.2774   -2.6849   -1.3354 H   0  0  0  0  0  0  0  0  0  0  0  0
    0.5463   -3.5429   -0.7645 H   0  0  0  0  0  0  0  0  0  0  0  0
   -4.7692   -5.6759    1.5622 H   0  0  0  0  0  0  0  0  0  0  0  0
   -4.6207   -5.9755   -0.1989 H   0  0  0  0  0  0  0  0  0  0  0  0
   -3.4767   -6.7459    0.9839 H   0  0  0  0  0  0  0  0  0  0  0  0
   -4.4127   -3.0293    1.2997 H   0  0  0  0  0  0  0  0  0  0  0  0
   -2.0849    1.2410    0.9752 H   0  0  0  0  0  0  0  0  0  0  0  0
   -3.6067    0.4987    3.3860 H   0  0  0  0  0  0  0  0  0  0  0  0
   -2.2051    1.5753    3.2253 H   0  0  0  0  0  0  0  0  0  0  0  0
   -3.8798    2.1928    2.9141 H   0  0  0  0  0  0  0  0  0  0  0  0
   -5.1294    1.2851    0.8959 H   0  0  0  0  0  0  0  0  0  0  0  0
   -3.0709    3.4611    1.0044 H   0  0  0  0  0  0  0  0  0  0  0  0
   -4.8194    3.4925    1.4201 H   0  0  0  0  0  0  0  0  0  0  0  0
   -4.7296    4.6495   -0.7406 H   0  0  0  0  0  0  0  0  0  0  0  0
   -4.7323    0.6420   -1.2701 H   0  0  0  0  0  0  0  0  0  0  0  0
   -2.9252    1.0081   -1.1930 H   0  0  0  0  0  0  0  0  0  0  0  0
    0.6525    1.0843   -0.1368 H   0  0  0  0  0  0  0  0  0  0  0  0
    2.7514    2.1537   -0.8220 H   0  0  0  0  0  0  0  0  0  0  0  0
  1  2  1  0
  2  3  2  0
  3  4  1  0
  4  5  2  0
  5  6  1  0
  6  7  1  0
  7  8  1  0
  8  9  2  0
  9 10  1  0
 10 11  2  0
 11 12  1  0
 12 13  2  0
 13 14  1  0
 14 15  2  0
 15 16  1  0
 16 17  1  0
 16 18  1  0
 18 19  2  0
 19 20  1  0
 20 21  1  0
 21 22  1  0
 22 23  1  0
 22 24  1  0
 24 25  1  0
 25 26  1  0
 26 27  1  0
 27 28  2  0
 27 29  1  0
 20 30  2  0
 11 31  1  0
 31 32  2  0
  6  2  1  0
 32  8  1  0
 30 12  1  0
 19 14  1  0
 29 24  1  0
  1 33  1  0
  1 34  1  0
  1 35  1  0
  4 36  1  0
  5 37  1  0
  7 38  1  0
  7 39  1  0
  9 40  1  0
 10 41  1  0
 13 42  1  0
 17 43  1  0
 17 44  1  0
 17 45  1  0
 18 46  1  0
 22 47  1  6
 23 48  1  0
 23 49  1  0
 23 50  1  0
 24 51  1  1
 25 52  1  0
 25 53  1  0
 26 54  1  0
 29 55  1  0
 29 56  1  0
 31 57  1  0
 32 58  1  0
M  END
$$$$
