
     RDKit          3D

 88 93  0  0  0  0  0  0  0  0999 V2000
   -7.7254   -2.4693    2.0515 C   0  0  0  0  0  0  0  0  0  0  0  0
   -7.5213   -3.0728    0.6801 C   0  0  0  0  0  0  0  0  0  0  0  0
   -8.3477   -2.2851   -0.2706 C   0  0  0  0  0  0  0  0  0  0  0  0
   -9.5534   -2.7880   -0.7752 C   0  0  0  0  0  0  0  0  0  0  0  0
  -10.2466   -1.9661   -1.6617 C   0  0  0  0  0  0  0  0  0  0  0  0
   -9.7664   -0.7248   -2.0199 C   0  0  0  0  0  0  0  0  0  0  0  0
   -8.5759   -0.2440   -1.5130 C   0  0  0  0  0  0  0  0  0  0  0  0
   -8.0575    1.0801   -1.8921 C   0  0  0  0  0  0  0  0  0  0  0  0
   -8.3003    2.0421   -0.7462 C   0  0  0  0  0  0  0  0  0  0  0  0
   -7.9024   -1.0455   -0.6500 C   0  0  0  0  0  0  0  0  0  0  0  0
   -6.6590   -0.5730   -0.1039 N   0  0  0  0  0  0  0  0  0  0  0  0
   -5.4928   -0.8832   -0.8272 C   0  0  0  0  0  0  0  0  0  0  0  0
   -5.6234   -1.5621   -1.9178 O   0  0  0  0  0  0  0  0  0  0  0  0
   -4.1496   -0.5106   -0.4605 C   0  0  0  0  0  0  0  0  0  0  0  0
   -3.0336   -0.8317   -1.1808 N   0  0  0  0  0  0  0  0  0  0  0  0
   -1.9599   -0.3579   -0.5991 N   0  0  0  0  0  0  0  0  0  0  0  0
   -0.6030   -0.5175   -1.1135 C   0  0  0  0  0  0  0  0  0  0  0  0
   -2.3274    0.2876    0.5174 C   0  0  0  0  0  0  0  0  0  0  0  0
   -3.7194    0.2102    0.6378 C   0  0  0  0  0  0  0  0  0  0  0  0
   -4.4161    0.8231    1.7758 C   0  0  0  0  0  0  0  0  0  0  0  0
   -3.6115    1.5915    2.7481 C   0  0  0  0  0  0  0  0  0  0  0  0
   -2.1611    1.6014    2.5367 C   0  0  0  0  0  0  0  0  0  0  0  0
   -1.3956    2.2743    3.4624 C   0  0  0  0  0  0  0  0  0  0  0  0
   -0.0739    2.3460    3.3579 N   0  0  0  0  0  0  0  0  0  0  0  0
    0.5882    1.7481    2.3162 C   0  0  0  0  0  0  0  0  0  0  0  0
    1.9944    1.8873    2.2398 N   0  0  0  0  0  0  0  0  0  0  0  0
    2.8788    1.1543    1.4118 C   0  0  0  0  0  0  0  0  0  0  0  0
    2.5289    0.0455    0.6895 C   0  0  0  0  0  0  0  0  0  0  0  0
    3.4587   -0.6498   -0.0755 C   0  0  0  0  0  0  0  0  0  0  0  0
    4.7843   -0.2740   -0.1565 C   0  0  0  0  0  0  0  0  0  0  0  0
    5.7180   -1.0446   -0.9826 C   0  0  0  0  0  0  0  0  0  0  0  0
    5.2662   -1.9727   -1.6776 O   0  0  0  0  0  0  0  0  0  0  0  0
    7.1133   -0.8044   -1.0450 N   0  0  0  0  0  0  0  0  0  0  0  0
    8.0090   -1.5835   -1.8736 C   0  0  0  0  0  0  0  0  0  0  0  0
    9.0449   -2.3374   -1.0691 C   0  0  0  0  0  0  0  0  0  0  0  0
    9.9691   -1.4031   -0.3279 C   0  0  0  0  0  0  0  0  0  0  0  0
   10.5912   -0.4396   -1.1910 N   0  0  0  0  0  0  0  0  0  0  0  0
   10.3560    0.8777   -0.6871 C   0  0  0  0  0  0  0  0  0  0  0  0
   10.2329   -0.6271   -2.5646 C   0  0  0  0  0  0  0  0  0  0  0  0
    8.7381   -0.6467   -2.8061 C   0  0  0  0  0  0  0  0  0  0  0  0
    5.1419    0.8395    0.5681 C   0  0  0  0  0  0  0  0  0  0  0  0
    4.2279    1.5348    1.3277 C   0  0  0  0  0  0  0  0  0  0  0  0
    4.6223    2.6454    2.0378 O   0  0  0  0  0  0  0  0  0  0  0  0
    4.6231    3.9610    1.5643 C   0  0  0  0  0  0  0  0  0  0  0  0
    3.3978    4.4374    1.1784 F   0  0  0  0  0  0  0  0  0  0  0  0
    5.4700    4.1262    0.4661 F   0  0  0  0  0  0  0  0  0  0  0  0
    5.1872    4.7555    2.5715 F   0  0  0  0  0  0  0  0  0  0  0  0
   -0.1673    1.1004    1.4281 N   0  0  0  0  0  0  0  0  0  0  0  0
   -1.5075    1.0070    1.5007 C   0  0  0  0  0  0  0  0  0  0  0  0
   -8.2464   -1.4814    2.0017 H   0  0  0  0  0  0  0  0  0  0  0  0
   -8.4206   -3.1395    2.6171 H   0  0  0  0  0  0  0  0  0  0  0  0
   -6.7702   -2.4112    2.6106 H   0  0  0  0  0  0  0  0  0  0  0  0
   -6.4379   -2.9518    0.3877 H   0  0  0  0  0  0  0  0  0  0  0  0
   -7.7906   -4.1419    0.7043 H   0  0  0  0  0  0  0  0  0  0  0  0
   -9.9120   -3.7551   -0.4844 H   0  0  0  0  0  0  0  0  0  0  0  0
  -11.1835   -2.3415   -2.0621 H   0  0  0  0  0  0  0  0  0  0  0  0
  -10.3310   -0.1190   -2.7066 H   0  0  0  0  0  0  0  0  0  0  0  0
   -6.9559    1.0098   -2.0947 H   0  0  0  0  0  0  0  0  0  0  0  0
   -8.5119    1.4785   -2.8273 H   0  0  0  0  0  0  0  0  0  0  0  0
   -8.4461    1.5134    0.2135 H   0  0  0  0  0  0  0  0  0  0  0  0
   -9.1718    2.6630   -1.0311 H   0  0  0  0  0  0  0  0  0  0  0  0
   -7.4258    2.7233   -0.7088 H   0  0  0  0  0  0  0  0  0  0  0  0
   -6.6717   -0.0369    0.7773 H   0  0  0  0  0  0  0  0  0  0  0  0
   -0.1613   -1.3343   -0.5322 H   0  0  0  0  0  0  0  0  0  0  0  0
   -0.6470   -0.7684   -2.1984 H   0  0  0  0  0  0  0  0  0  0  0  0
    0.0053    0.3906   -0.9663 H   0  0  0  0  0  0  0  0  0  0  0  0
   -4.9733   -0.0085    2.2801 H   0  0  0  0  0  0  0  0  0  0  0  0
   -5.1513    1.5565    1.3290 H   0  0  0  0  0  0  0  0  0  0  0  0
   -3.7701    1.1350    3.7657 H   0  0  0  0  0  0  0  0  0  0  0  0
   -3.9617    2.6449    2.8888 H   0  0  0  0  0  0  0  0  0  0  0  0
   -1.8579    2.7743    4.3185 H   0  0  0  0  0  0  0  0  0  0  0  0
    2.4037    2.6388    2.8976 H   0  0  0  0  0  0  0  0  0  0  0  0
    1.5093   -0.2896    0.7465 H   0  0  0  0  0  0  0  0  0  0  0  0
    3.1630   -1.5280   -0.6447 H   0  0  0  0  0  0  0  0  0  0  0  0
    7.4962   -0.0279   -0.4626 H   0  0  0  0  0  0  0  0  0  0  0  0
    7.3859   -2.2620   -2.4800 H   0  0  0  0  0  0  0  0  0  0  0  0
    9.6618   -2.8949   -1.8217 H   0  0  0  0  0  0  0  0  0  0  0  0
    8.5918   -3.0157   -0.3154 H   0  0  0  0  0  0  0  0  0  0  0  0
    9.4715   -0.9322    0.5395 H   0  0  0  0  0  0  0  0  0  0  0  0
   10.7761   -2.0478    0.1075 H   0  0  0  0  0  0  0  0  0  0  0  0
    9.8636    1.5529   -1.4261 H   0  0  0  0  0  0  0  0  0  0  0  0
    9.6557    0.8706    0.1993 H   0  0  0  0  0  0  0  0  0  0  0  0
   11.3021    1.3331   -0.2773 H   0  0  0  0  0  0  0  0  0  0  0  0
   10.6634   -1.5548   -2.9930 H   0  0  0  0  0  0  0  0  0  0  0  0
   10.6441    0.2218   -3.1562 H   0  0  0  0  0  0  0  0  0  0  0  0
    8.5992   -0.9498   -3.8816 H   0  0  0  0  0  0  0  0  0  0  0  0
    8.3696    0.3928   -2.7055 H   0  0  0  0  0  0  0  0  0  0  0  0
    6.1916    1.1505    0.5118 H   0  0  0  0  0  0  0  0  0  0  0  0
  1  2  1  0
  2  3  1  0
  3  4  2  0
  4  5  1  0
  5  6  2  0
  6  7  1  0
  7  8  1  0
  8  9  1  0
  7 10  2  0
 10 11  1  0
 11 12  1  0
 12 13  2  0
 12 14  1  0
 14 15  2  0
 15 16  1  0
 16 17  1  0
 16 18  1  0
 18 19  2  0
 19 20  1  0
 20 21  1  0
 21 22  1  0
 22 23  2  0
 23 24  1  0
 24 25  2  0
 25 26  1  0
 26 27  1  0
 27 28  2  0
 28 29  1  0
 29 30  2  0
 30 31  1  0
 31 32  2  0
 31 33  1  0
 33 34  1  0
 34 35  1  0
 35 36  1  0
 36 37  1  0
 37 38  1  0
 37 39  1  0
 39 40  1  0
 30 41  1  0
 41 42  2  0
 42 43  1  0
 43 44  1  0
 44 45  1  0
 44 46  1  0
 44 47  1  0
 25 48  1  0
 48 49  2  0
 10  3  1  0
 19 14  1  0
 49 22  1  0
 49 18  1  0
 42 27  1  0
 40 34  1  0
  1 50  1  0
  1 51  1  0
  1 52  1  0
  2 53  1  0
  2 54  1  0
  4 55  1  0
  5 56  1  0
  6 57  1  0
  8 58  1  0
  8 59  1  0
  9 60  1  0
  9 61  1  0
  9 62  1  0
 11 63  1  0
 17 64  1  0
 17 65  1  0
 17 66  1  0
 20 67  1  0
 20 68  1  0
 21 69  1  0
 21 70  1  0
 23 71  1  0
 26 72  1  0
 28 73  1  0
 29 74  1  0
 33 75  1  0
 34 76  1  0
 35 77  1  0
 35 78  1  0
 36 79  1  0
 36 80  1  0
 38 81  1  0
 38 82  1  0
 38 83  1  0
 39 84  1  0
 39 85  1  0
 40 86  1  0
 40 87  1  0
 41 88  1  0
M  END
$$$$
