
     RDKit          3D

 30 31  0  0  0  0  0  0  0  0999 V2000
   -1.6314   -1.5496    1.7713 O   0  0  0  0  0  0  0  0  0  0  0  0
   -1.6508   -0.7419    0.8301 C   0  0  0  0  0  0  0  0  0  0  0  0
   -0.3719   -0.3168    0.2615 C   0  0  0  0  0  0  0  0  0  0  0  0
    0.7636   -0.7760    0.7325 C   0  0  0  0  0  0  0  0  0  0  0  0
    2.0629   -0.4080    0.2293 C   0  0  0  0  0  0  0  0  0  0  0  0
    3.1889   -0.9713    0.8223 C   0  0  0  0  0  0  0  0  0  0  0  0
    4.4573   -0.6660    0.3940 C   0  0  0  0  0  0  0  0  0  0  0  0
    4.6874    0.2112   -0.6423 C   0  0  0  0  0  0  0  0  0  0  0  0
    5.9861    0.5158   -1.0715 O   0  0  0  0  0  0  0  0  0  0  0  0
    3.5818    0.7760   -1.2382 C   0  0  0  0  0  0  0  0  0  0  0  0
    3.7890    1.6555   -2.2760 O   0  0  0  0  0  0  0  0  0  0  0  0
    2.2917    0.4677   -0.8052 C   0  0  0  0  0  0  0  0  0  0  0  0
   -2.9165   -0.2399    0.3165 C   0  0  0  0  0  0  0  0  0  0  0  0
   -4.0970   -0.6824    0.9000 C   0  0  0  0  0  0  0  0  0  0  0  0
   -5.3346   -0.2526    0.4691 C   0  0  0  0  0  0  0  0  0  0  0  0
   -5.4530    0.6455   -0.5719 C   0  0  0  0  0  0  0  0  0  0  0  0
   -4.2805    1.0845   -1.1509 C   0  0  0  0  0  0  0  0  0  0  0  0
   -3.0374    0.6489   -0.7135 C   0  0  0  0  0  0  0  0  0  0  0  0
   -0.3453    0.3857   -0.5596 H   0  0  0  0  0  0  0  0  0  0  0  0
    0.6949   -1.4881    1.5672 H   0  0  0  0  0  0  0  0  0  0  0  0
    3.0789   -1.6787    1.6538 H   0  0  0  0  0  0  0  0  0  0  0  0
    5.3500   -1.1042    0.8544 H   0  0  0  0  0  0  0  0  0  0  0  0
    6.7191    0.3715   -0.3882 H   0  0  0  0  0  0  0  0  0  0  0  0
    4.2300    1.4187   -3.1538 H   0  0  0  0  0  0  0  0  0  0  0  0
    1.4334    0.9276   -1.2928 H   0  0  0  0  0  0  0  0  0  0  0  0
   -4.0130   -1.3977    1.7298 H   0  0  0  0  0  0  0  0  0  0  0  0
   -6.2274   -0.6324    0.9630 H   0  0  0  0  0  0  0  0  0  0  0  0
   -6.4288    0.9759   -0.9019 H   0  0  0  0  0  0  0  0  0  0  0  0
   -4.3745    1.7960   -1.9756 H   0  0  0  0  0  0  0  0  0  0  0  0
   -2.1528    1.0254   -1.2030 H   0  0  0  0  0  0  0  0  0  0  0  0
  1  2  2  0
  2  3  1  0
  3  4  2  0
  4  5  1  0
  5  6  2  0
  6  7  1  0
  7  8  2  0
  8  9  1  0
  8 10  1  0
 10 11  1  0
 10 12  2  0
  2 13  1  0
 13 14  2  0
 14 15  1  0
 15 16  2  0
 16 17  1  0
 17 18  2  0
 12  5  1  0
 18 13  1  0
  3 19  1  0
  4 20  1  0
  6 21  1  0
  7 22  1  0
  9 23  1  0
 11 24  1  0
 12 25  1  0
 14 26  1  0
 15 27  1  0
 16 28  1  0
 17 29  1  0
 18 30  1  0
M  END
$$$$
