
     RDKit          3D

 64 66  0  0  0  0  0  0  0  0999 V2000
   -8.6363    0.1361   -1.0833 C   0  0  0  0  0  0  0  0  0  0  0  0
   -7.1725    0.1267   -1.3150 C   0  0  0  0  0  0  0  0  0  0  0  0
   -6.6685    0.7752   -2.2945 N   0  0  0  0  0  0  0  0  0  0  0  0
   -6.3841   -0.6420   -0.3881 N   0  0  0  0  0  0  0  0  0  0  0  0
   -6.4313   -2.0799   -0.4645 C   0  0  0  0  0  0  0  0  0  0  0  0
   -5.5587    0.0097    0.6017 C   0  0  0  0  0  0  0  0  0  0  0  0
   -4.1118   -0.2204    0.2617 C   0  0  0  0  0  0  0  0  0  0  0  0
   -3.8114   -1.6103    0.3016 N   0  0  0  0  0  0  0  0  0  0  0  0
   -3.8291   -2.1815    1.6125 C   0  0  0  0  0  0  0  0  0  0  0  0
   -2.6125   -2.0050   -0.3891 C   0  0  0  0  0  0  0  0  0  0  0  0
   -1.3875   -1.3331    0.1696 C   0  0  0  0  0  0  0  0  0  0  0  0
   -0.6455   -1.8681    1.1855 C   0  0  0  0  0  0  0  0  0  0  0  0
    0.4893   -1.2240    1.6933 C   0  0  0  0  0  0  0  0  0  0  0  0
    0.8733   -0.0054    1.1494 C   0  0  0  0  0  0  0  0  0  0  0  0
    2.0280    0.7045    1.6397 C   0  0  0  0  0  0  0  0  0  0  0  0
    2.6707    0.1996    2.6236 O   0  0  0  0  0  0  0  0  0  0  0  0
    2.5462    1.9242    1.1481 N   0  0  0  0  0  0  0  0  0  0  0  0
    3.6836    2.5771    1.6726 C   0  0  0  0  0  0  0  0  0  0  0  0
    3.6490    3.5111    2.6847 C   0  0  0  0  0  0  0  0  0  0  0  0
    4.7670    4.1406    3.1781 C   0  0  0  0  0  0  0  0  0  0  0  0
    5.9833    3.8072    2.6176 C   0  0  0  0  0  0  0  0  0  0  0  0
    7.4438    4.5795    3.2067 Cl  0  0  0  0  0  0  0  0  0  0  0  0
    6.0651    2.8771    1.6009 C   0  0  0  0  0  0  0  0  0  0  0  0
    4.9184    2.2746    1.1420 C   0  0  0  0  0  0  0  0  0  0  0  0
    4.9933    1.2864    0.0818 C   0  0  0  0  0  0  0  0  0  0  0  0
    3.9451    0.7022   -0.3378 O   0  0  0  0  0  0  0  0  0  0  0  0
    6.1943    0.8905   -0.5645 N   0  0  0  0  0  0  0  0  0  0  0  0
    6.2542   -0.0864   -1.6022 C   0  0  0  0  0  0  0  0  0  0  0  0
    6.1326    0.1626   -2.9306 C   0  0  0  0  0  0  0  0  0  0  0  0
    6.2172   -0.8820   -3.8256 C   0  0  0  0  0  0  0  0  0  0  0  0
    6.4229   -2.1723   -3.3892 C   0  0  0  0  0  0  0  0  0  0  0  0
    6.5235   -3.4791   -4.5704 Cl  0  0  0  0  0  0  0  0  0  0  0  0
    6.5427   -2.4010   -2.0436 C   0  0  0  0  0  0  0  0  0  0  0  0
    6.4553   -1.3608   -1.2039 N   0  0  0  0  0  0  0  0  0  0  0  0
    0.1163    0.5096    0.1344 C   0  0  0  0  0  0  0  0  0  0  0  0
   -1.0079   -0.1221   -0.3731 C   0  0  0  0  0  0  0  0  0  0  0  0
   -8.9996   -0.9192   -1.0377 H   0  0  0  0  0  0  0  0  0  0  0  0
   -9.1382    0.6109   -1.9553 H   0  0  0  0  0  0  0  0  0  0  0  0
   -8.9099    0.6241   -0.1282 H   0  0  0  0  0  0  0  0  0  0  0  0
   -5.6700    0.8254   -2.5298 H   0  0  0  0  0  0  0  0  0  0  0  0
   -5.5629   -2.5118   -0.9657 H   0  0  0  0  0  0  0  0  0  0  0  0
   -6.4962   -2.4912    0.5589 H   0  0  0  0  0  0  0  0  0  0  0  0
   -7.3233   -2.3681   -1.0773 H   0  0  0  0  0  0  0  0  0  0  0  0
   -5.7500    1.1093    0.5391 H   0  0  0  0  0  0  0  0  0  0  0  0
   -5.8243   -0.3512    1.6266 H   0  0  0  0  0  0  0  0  0  0  0  0
   -3.4384    0.3848    0.9291 H   0  0  0  0  0  0  0  0  0  0  0  0
   -3.9721    0.2243   -0.7601 H   0  0  0  0  0  0  0  0  0  0  0  0
   -4.7805   -2.0096    2.1305 H   0  0  0  0  0  0  0  0  0  0  0  0
   -2.9985   -1.7568    2.2389 H   0  0  0  0  0  0  0  0  0  0  0  0
   -3.7039   -3.2925    1.5052 H   0  0  0  0  0  0  0  0  0  0  0  0
   -2.5397   -3.1072   -0.3363 H   0  0  0  0  0  0  0  0  0  0  0  0
   -2.6692   -1.7519   -1.4861 H   0  0  0  0  0  0  0  0  0  0  0  0
   -0.9554   -2.8304    1.6067 H   0  0  0  0  0  0  0  0  0  0  0  0
    1.0330   -1.6860    2.4878 H   0  0  0  0  0  0  0  0  0  0  0  0
    2.0173    2.3494    0.3263 H   0  0  0  0  0  0  0  0  0  0  0  0
    2.6935    3.7658    3.1176 H   0  0  0  0  0  0  0  0  0  0  0  0
    4.6449    4.8555    3.9710 H   0  0  0  0  0  0  0  0  0  0  0  0
    7.0358    2.6553    1.2007 H   0  0  0  0  0  0  0  0  0  0  0  0
    7.0945    1.3267   -0.2806 H   0  0  0  0  0  0  0  0  0  0  0  0
    5.9719    1.1833   -3.2537 H   0  0  0  0  0  0  0  0  0  0  0  0
    6.1176   -0.6713   -4.9018 H   0  0  0  0  0  0  0  0  0  0  0  0
    6.7057   -3.4244   -1.7123 H   0  0  0  0  0  0  0  0  0  0  0  0
    0.3693    1.4524   -0.3239 H   0  0  0  0  0  0  0  0  0  0  0  0
   -1.6093    0.2835   -1.1764 H   0  0  0  0  0  0  0  0  0  0  0  0
  1  2  1  0
  2  3  2  3
  2  4  1  0
  4  5  1  0
  4  6  1  0
  6  7  1  0
  7  8  1  0
  8  9  1  0
  8 10  1  0
 10 11  1  0
 11 12  2  0
 12 13  1  0
 13 14  2  0
 14 15  1  0
 15 16  2  0
 15 17  1  0
 17 18  1  0
 18 19  2  0
 19 20  1  0
 20 21  2  0
 21 22  1  0
 21 23  1  0
 23 24  2  0
 24 25  1  0
 25 26  2  0
 25 27  1  0
 27 28  1  0
 28 29  2  0
 29 30  1  0
 30 31  2  0
 31 32  1  0
 31 33  1  0
 33 34  2  0
 14 35  1  0
 35 36  2  0
 36 11  1  0
 24 18  1  0
 34 28  1  0
  1 37  1  0
  1 38  1  0
  1 39  1  0
  3 40  1  0
  5 41  1  0
  5 42  1  0
  5 43  1  0
  6 44  1  0
  6 45  1  0
  7 46  1  0
  7 47  1  0
  9 48  1  0
  9 49  1  0
  9 50  1  0
 10 51  1  0
 10 52  1  0
 12 53  1  0
 13 54  1  0
 17 55  1  0
 19 56  1  0
 20 57  1  0
 23 58  1  0
 27 59  1  0
 29 60  1  0
 30 61  1  0
 33 62  1  0
 35 63  1  0
 36 64  1  0
M  END
$$$$
