
     RDKit          3D

 37 39  0  0  0  0  0  0  0  0999 V2000
   -0.3215   -3.2541   -2.3744 N   0  0  0  0  0  0  0  0  0  0  0  0
   -0.1882   -2.3316   -1.6643 C   0  0  0  0  0  0  0  0  0  0  0  0
   -0.0127   -1.1938   -0.7978 C   0  0  0  0  0  0  0  0  0  0  0  0
    1.2130   -0.7910   -0.4303 N   0  0  0  0  0  0  0  0  0  0  0  0
    1.4314    0.2487    0.3654 C   0  0  0  0  0  0  0  0  0  0  0  0
    2.7044    0.6761    0.7565 N   0  0  0  0  0  0  0  0  0  0  0  0
    3.9377    0.1301    0.3153 C   0  0  0  0  0  0  0  0  0  0  0  0
    5.0855    0.3944    1.0735 C   0  0  0  0  0  0  0  0  0  0  0  0
    6.2945   -0.0917    0.6818 C   0  0  0  0  0  0  0  0  0  0  0  0
    7.4402    0.1470    1.3994 F   0  0  0  0  0  0  0  0  0  0  0  0
    6.3892   -0.8551   -0.4782 C   0  0  0  0  0  0  0  0  0  0  0  0
    5.2689   -1.1078   -1.2105 C   0  0  0  0  0  0  0  0  0  0  0  0
    5.3082   -1.8553   -2.3613 F   0  0  0  0  0  0  0  0  0  0  0  0
    4.0296   -0.6194   -0.8248 C   0  0  0  0  0  0  0  0  0  0  0  0
    0.3665    0.9632    0.8491 N   0  0  0  0  0  0  0  0  0  0  0  0
   -0.8710    0.5739    0.4913 C   0  0  0  0  0  0  0  0  0  0  0  0
   -2.0146    1.2771    0.9658 N   0  0  0  0  0  0  0  0  0  0  0  0
   -3.3649    0.9580    0.6566 C   0  0  0  0  0  0  0  0  0  0  0  0
   -3.7959   -0.4370    1.0788 C   0  0  0  0  0  0  0  0  0  0  0  0
   -5.2158   -0.4488    0.4943 C   0  0  0  0  0  0  0  0  0  0  0  0
   -5.1028    0.3231   -0.8013 C   0  0  0  0  0  0  0  0  0  0  0  0
   -3.6950    0.9340   -0.8168 C   0  0  0  0  0  0  0  0  0  0  0  0
   -1.0477   -0.4905   -0.3208 N   0  0  0  0  0  0  0  0  0  0  0  0
    2.7968    1.4935    1.4520 H   0  0  0  0  0  0  0  0  0  0  0  0
    5.0095    0.9786    1.9620 H   0  0  0  0  0  0  0  0  0  0  0  0
    7.3371   -1.2608   -0.8238 H   0  0  0  0  0  0  0  0  0  0  0  0
    3.1602   -0.8487   -1.4686 H   0  0  0  0  0  0  0  0  0  0  0  0
   -1.8484    2.0996    1.5967 H   0  0  0  0  0  0  0  0  0  0  0  0
   -4.0991    1.6575    1.1197 H   0  0  0  0  0  0  0  0  0  0  0  0
   -3.7930   -0.5798    2.1637 H   0  0  0  0  0  0  0  0  0  0  0  0
   -3.1574   -1.1528    0.5264 H   0  0  0  0  0  0  0  0  0  0  0  0
   -5.8237    0.1814    1.1923 H   0  0  0  0  0  0  0  0  0  0  0  0
   -5.6060   -1.4616    0.3733 H   0  0  0  0  0  0  0  0  0  0  0  0
   -5.2422   -0.3553   -1.6675 H   0  0  0  0  0  0  0  0  0  0  0  0
   -5.8005    1.1743   -0.8600 H   0  0  0  0  0  0  0  0  0  0  0  0
   -3.7095    1.9448   -1.2706 H   0  0  0  0  0  0  0  0  0  0  0  0
   -3.0627    0.2197   -1.3427 H   0  0  0  0  0  0  0  0  0  0  0  0
  1  2  3  0
  2  3  1  0
  3  4  2  0
  4  5  1  0
  5  6  1  0
  6  7  1  0
  7  8  2  0
  8  9  1  0
  9 10  1  0
  9 11  2  0
 11 12  1  0
 12 13  1  0
 12 14  2  0
  5 15  2  0
 15 16  1  0
 16 17  1  0
 17 18  1  0
 18 19  1  0
 19 20  1  0
 20 21  1  0
 21 22  1  0
 16 23  2  0
 23  3  1  0
 14  7  1  0
 22 18  1  0
  6 24  1  0
  8 25  1  0
 11 26  1  0
 14 27  1  0
 17 28  1  0
 18 29  1  0
 19 30  1  0
 19 31  1  0
 20 32  1  0
 20 33  1  0
 21 34  1  0
 21 35  1  0
 22 36  1  0
 22 37  1  0
M  END
$$$$
