
     RDKit          3D

 57 60  0  0  0  0  0  0  0  0999 V2000
    0.7213   -0.7438    0.4728 C   0  0  2  0  0  0  0  0  0  0  0  0
    1.7269   -1.0238    1.5027 C   0  0  0  0  0  0  0  0  0  0  0  0
    2.9523   -1.2370    0.5946 C   0  0  1  0  0  0  0  0  0  0  0  0
    2.7065   -2.5286   -0.1377 C   0  0  0  0  0  0  0  0  0  0  0  0
    2.7855   -0.1114   -0.4419 C   0  0  2  0  0  0  0  0  0  0  0  0
    3.1614   -0.5755   -1.7063 O   0  0  0  0  0  0  0  0  0  0  0  0
    3.7553    0.9527   -0.0897 C   0  0  0  0  0  0  0  0  0  0  0  0
    4.5218    1.0266   -1.0563 O   0  0  0  0  0  0  0  0  0  0  0  0
    4.7174    2.0116    0.2651 C   0  0  0  0  0  0  0  0  0  0  0  0
    5.6220    2.1621   -0.7854 O   0  0  0  0  0  0  0  0  0  0  0  0
    1.3665    0.3206   -0.3868 C   0  0  2  0  0  0  0  0  0  0  0  0
    1.2614    1.7015    0.1936 C   0  0  0  0  0  0  0  0  0  0  0  0
    0.6410    0.2799   -1.6972 C   0  0  0  0  0  0  0  0  0  0  0  0
   -0.8297    0.2111   -1.6134 C   0  0  2  0  0  0  0  0  0  0  0  0
   -1.3055    1.5337   -1.7885 O   0  0  0  0  0  0  0  0  0  0  0  0
   -1.4571   -0.2941   -0.3605 C   0  0  1  0  0  0  0  0  0  0  0  0
   -0.5938   -0.1731    0.8793 C   0  0  1  0  0  0  0  0  0  0  0  0
   -1.2590   -0.9048    1.9995 C   0  0  0  0  0  0  0  0  0  0  0  0
   -2.6498   -0.3451    2.1539 C   0  0  2  0  0  0  0  0  0  0  0  0
   -3.2700   -0.8608    3.2974 F   0  0  0  0  0  0  0  0  0  0  0  0
   -3.4879   -0.5832    0.9695 C   0  0  0  0  0  0  0  0  0  0  0  0
   -4.5771   -1.3343    0.9806 C   0  0  0  0  0  0  0  0  0  0  0  0
   -5.2549   -1.4370   -0.3059 C   0  0  0  0  0  0  0  0  0  0  0  0
   -6.2873   -2.1223   -0.3894 O   0  0  0  0  0  0  0  0  0  0  0  0
   -4.7582   -0.7600   -1.4978 C   0  0  0  0  0  0  0  0  0  0  0  0
   -3.6563   -0.0419   -1.3524 C   0  0  0  0  0  0  0  0  0  0  0  0
   -2.8500    0.1715   -0.1262 C   0  0  2  0  0  0  0  0  0  0  0  0
   -2.9556    1.6434    0.1980 C   0  0  0  0  0  0  0  0  0  0  0  0
    0.5636   -1.6529   -0.1352 H   0  0  0  0  0  0  0  0  0  0  0  0
    1.8965   -0.2550    2.2538 H   0  0  0  0  0  0  0  0  0  0  0  0
    1.5537   -1.9960    2.0129 H   0  0  0  0  0  0  0  0  0  0  0  0
    3.8879   -1.1801    1.1432 H   0  0  0  0  0  0  0  0  0  0  0  0
    3.6167   -3.1839   -0.1694 H   0  0  0  0  0  0  0  0  0  0  0  0
    2.3665   -2.3767   -1.1856 H   0  0  0  0  0  0  0  0  0  0  0  0
    1.8969   -3.1446    0.3427 H   0  0  0  0  0  0  0  0  0  0  0  0
    4.1347   -0.7297   -1.7417 H   0  0  0  0  0  0  0  0  0  0  0  0
    4.2378    2.9864    0.4565 H   0  0  0  0  0  0  0  0  0  0  0  0
    5.3153    1.7353    1.1783 H   0  0  0  0  0  0  0  0  0  0  0  0
    5.9227    3.0987   -0.9062 H   0  0  0  0  0  0  0  0  0  0  0  0
    2.0362    2.3888   -0.2101 H   0  0  0  0  0  0  0  0  0  0  0  0
    1.2723    1.7696    1.2774 H   0  0  0  0  0  0  0  0  0  0  0  0
    0.2937    2.1427   -0.1823 H   0  0  0  0  0  0  0  0  0  0  0  0
    1.0469   -0.6257   -2.2298 H   0  0  0  0  0  0  0  0  0  0  0  0
    0.9807    1.1440   -2.3087 H   0  0  0  0  0  0  0  0  0  0  0  0
   -1.2079   -0.3413   -2.5004 H   0  0  0  0  0  0  0  0  0  0  0  0
   -1.3685    1.7818   -2.7383 H   0  0  0  0  0  0  0  0  0  0  0  0
   -1.5533   -1.4146   -0.4955 H   0  0  0  0  0  0  0  0  0  0  0  0
   -0.5594    0.8882    1.1574 H   0  0  0  0  0  0  0  0  0  0  0  0
   -0.6880   -0.6679    2.9218 H   0  0  0  0  0  0  0  0  0  0  0  0
   -1.2407   -1.9964    1.8970 H   0  0  0  0  0  0  0  0  0  0  0  0
   -2.5724    0.7394    2.3489 H   0  0  0  0  0  0  0  0  0  0  0  0
   -4.8933   -1.8100    1.8973 H   0  0  0  0  0  0  0  0  0  0  0  0
   -5.2594   -0.8373   -2.4519 H   0  0  0  0  0  0  0  0  0  0  0  0
   -3.3139    0.4509   -2.2743 H   0  0  0  0  0  0  0  0  0  0  0  0
   -3.3947    2.2303   -0.6623 H   0  0  0  0  0  0  0  0  0  0  0  0
   -3.6877    1.8045    1.0160 H   0  0  0  0  0  0  0  0  0  0  0  0
   -2.0299    2.1139    0.5168 H   0  0  0  0  0  0  0  0  0  0  0  0
  1  2  1  0
  2  3  1  0
  3  4  1  0
  3  5  1  0
  5  6  1  6
  5  7  1  0
  7  8  2  0
  7  9  1  0
  9 10  1  0
  5 11  1  0
 11 12  1  1
 11 13  1  0
 13 14  1  0
 14 15  1  0
 14 16  1  0
 16 17  1  0
 17 18  1  0
 18 19  1  0
 19 20  1  0
 19 21  1  0
 21 22  2  0
 22 23  1  0
 23 24  2  0
 23 25  1  0
 25 26  2  0
 26 27  1  0
 27 28  1  1
 11  1  1  0
 27 16  1  0
 17  1  1  0
 27 21  1  0
  1 29  1  6
  2 30  1  0
  2 31  1  0
  3 32  1  1
  4 33  1  0
  4 34  1  0
  4 35  1  0
  6 36  1  0
  9 37  1  0
  9 38  1  0
 10 39  1  0
 12 40  1  0
 12 41  1  0
 12 42  1  0
 13 43  1  0
 13 44  1  0
 14 45  1  6
 15 46  1  0
 16 47  1  6
 17 48  1  1
 18 49  1  0
 18 50  1  0
 19 51  1  1
 22 52  1  0
 25 53  1  0
 26 54  1  0
 28 55  1  0
 28 56  1  0
 28 57  1  0
M  END
$$$$
