
     RDKit          3D

 46 48  0  0  0  0  0  0  0  0999 V2000
    4.9661    0.3789    0.4423 C   0  0  1  0  0  0  0  0  0  0  0  0
    6.3326   -0.0388    0.5291 N   0  0  0  0  0  0  0  0  0  0  0  0
    4.5054    0.4531   -1.0071 C   0  0  0  0  0  0  0  0  0  0  0  0
    3.6398   -0.7435   -1.3406 C   0  0  0  0  0  0  0  0  0  0  0  0
    2.3476   -0.7745   -0.5406 C   0  0  1  0  0  0  0  0  0  0  0  0
    2.6359   -0.2471    0.8336 C   0  0  0  0  0  0  0  0  0  0  0  0
    4.0683   -0.6106    1.1962 C   0  0  0  0  0  0  0  0  0  0  0  0
    1.3243   -0.0031   -1.2225 N   0  0  0  0  0  0  0  0  0  0  0  0
   -0.0663    0.2133   -0.9870 C   0  0  0  0  0  0  0  0  0  0  0  0
   -0.8187    1.0295   -1.7827 N   0  0  0  0  0  0  0  0  0  0  0  0
   -2.1202    1.1774   -1.5084 C   0  0  0  0  0  0  0  0  0  0  0  0
   -3.0008    1.9648   -2.2239 C   0  0  0  0  0  0  0  0  0  0  0  0
   -4.2074    1.7973   -1.5741 C   0  0  0  0  0  0  0  0  0  0  0  0
   -3.9870    0.9550   -0.5511 N   0  0  0  0  0  0  0  0  0  0  0  0
   -2.7414    0.5652   -0.4859 N   0  0  0  0  0  0  0  0  0  0  0  0
   -2.0811   -0.2569    0.3503 C   0  0  0  0  0  0  0  0  0  0  0  0
   -2.6633   -0.9215    1.4342 N   0  0  0  0  0  0  0  0  0  0  0  0
   -4.0040   -0.8592    1.9020 C   0  0  0  0  0  0  0  0  0  0  0  0
   -4.3714    0.5397    2.3493 C   0  0  0  0  0  0  0  0  0  0  0  0
   -5.0132   -1.4436    0.9431 C   0  0  0  0  0  0  0  0  0  0  0  0
   -0.7392   -0.3955    0.0491 C   0  0  0  0  0  0  0  0  0  0  0  0
   -2.7620    2.7833   -3.3798 C   0  0  0  0  0  0  0  0  0  0  0  0
   -2.5709    3.4392   -4.3274 N   0  0  0  0  0  0  0  0  0  0  0  0
    4.8193    1.3807    0.8793 H   0  0  0  0  0  0  0  0  0  0  0  0
    7.0178    0.7241    0.4660 H   0  0  0  0  0  0  0  0  0  0  0  0
    6.5322   -0.8132   -0.1447 H   0  0  0  0  0  0  0  0  0  0  0  0
    5.4112    0.3526   -1.6359 H   0  0  0  0  0  0  0  0  0  0  0  0
    4.0003    1.3997   -1.2258 H   0  0  0  0  0  0  0  0  0  0  0  0
    4.2295   -1.6647   -1.2424 H   0  0  0  0  0  0  0  0  0  0  0  0
    3.3763   -0.6472   -2.4175 H   0  0  0  0  0  0  0  0  0  0  0  0
    1.9729   -1.8124   -0.4451 H   0  0  0  0  0  0  0  0  0  0  0  0
    2.5920    0.8621    0.8032 H   0  0  0  0  0  0  0  0  0  0  0  0
    1.9517   -0.6393    1.5990 H   0  0  0  0  0  0  0  0  0  0  0  0
    4.2789   -1.6029    0.7865 H   0  0  0  0  0  0  0  0  0  0  0  0
    4.2477   -0.5501    2.2769 H   0  0  0  0  0  0  0  0  0  0  0  0
    1.6661    0.5156   -2.0776 H   0  0  0  0  0  0  0  0  0  0  0  0
   -5.1641    2.2394   -1.8108 H   0  0  0  0  0  0  0  0  0  0  0  0
   -2.0163   -1.5638    1.9868 H   0  0  0  0  0  0  0  0  0  0  0  0
   -4.1235   -1.4873    2.8365 H   0  0  0  0  0  0  0  0  0  0  0  0
   -5.3071    0.9203    1.8903 H   0  0  0  0  0  0  0  0  0  0  0  0
   -3.4846    1.1907    2.1684 H   0  0  0  0  0  0  0  0  0  0  0  0
   -4.5921    0.5765    3.4591 H   0  0  0  0  0  0  0  0  0  0  0  0
   -4.6027   -1.7145   -0.0457 H   0  0  0  0  0  0  0  0  0  0  0  0
   -5.8086   -0.6894    0.7728 H   0  0  0  0  0  0  0  0  0  0  0  0
   -5.5046   -2.3414    1.3363 H   0  0  0  0  0  0  0  0  0  0  0  0
   -0.1651   -1.0510    0.6860 H   0  0  0  0  0  0  0  0  0  0  0  0
  1  2  1  0
  1  3  1  0
  3  4  1  0
  4  5  1  0
  5  6  1  0
  6  7  1  0
  5  8  1  0
  8  9  1  0
  9 10  2  0
 10 11  1  0
 11 12  2  0
 12 13  1  0
 13 14  2  0
 14 15  1  0
 15 16  1  0
 16 17  1  0
 17 18  1  0
 18 19  1  0
 18 20  1  0
 16 21  2  0
 12 22  1  0
 22 23  3  0
  7  1  1  0
 21  9  1  0
 15 11  1  0
  1 24  1  1
  2 25  1  0
  2 26  1  0
  3 27  1  0
  3 28  1  0
  4 29  1  0
  4 30  1  0
  5 31  1  1
  6 32  1  0
  6 33  1  0
  7 34  1  0
  7 35  1  0
  8 36  1  0
 13 37  1  0
 17 38  1  0
 18 39  1  0
 19 40  1  0
 19 41  1  0
 19 42  1  0
 20 43  1  0
 20 44  1  0
 20 45  1  0
 21 46  1  0
M  END
$$$$
