
     RDKit          3D

 39 42  0  0  0  0  0  0  0  0999 V2000
   -5.9968    0.5498   -0.4018 C   0  0  0  0  0  0  0  0  0  0  0  0
   -4.5016    0.4893   -0.3403 C   0  0  0  0  0  0  0  0  0  0  0  0
   -3.7798    1.3282   -1.1143 N   0  0  0  0  0  0  0  0  0  0  0  0
   -2.4343    1.3238   -1.1051 C   0  0  0  0  0  0  0  0  0  0  0  0
   -1.7678    2.0992   -1.8206 O   0  0  0  0  0  0  0  0  0  0  0  0
   -1.7537    0.4411   -0.2854 C   0  0  0  0  0  0  0  0  0  0  0  0
   -2.4959   -0.4202    0.5093 C   0  0  0  0  0  0  0  0  0  0  0  0
   -1.8316   -1.3049    1.3308 C   0  0  0  0  0  0  0  0  0  0  0  0
   -0.4522   -1.3557    1.3829 C   0  0  0  0  0  0  0  0  0  0  0  0
    0.2347   -0.4831    0.5777 C   0  0  0  0  0  0  0  0  0  0  0  0
    1.5499   -0.2928    0.4063 N   0  0  0  0  0  0  0  0  0  0  0  0
    1.7833    0.6691   -0.4833 C   0  0  0  0  0  0  0  0  0  0  0  0
    3.0431    1.1463   -0.9205 N   0  0  0  0  0  0  0  0  0  0  0  0
    4.2651    0.6148   -0.4238 C   0  0  0  0  0  0  0  0  0  0  0  0
    4.8782   -0.4631   -1.0538 C   0  0  0  0  0  0  0  0  0  0  0  0
    4.0976   -1.1257   -2.4568 Cl  0  0  0  0  0  0  0  0  0  0  0  0
    6.0643   -1.0002   -0.5947 C   0  0  0  0  0  0  0  0  0  0  0  0
    6.6859   -0.4751    0.5198 C   0  0  0  0  0  0  0  0  0  0  0  0
    6.0816    0.5924    1.1462 C   0  0  0  0  0  0  0  0  0  0  0  0
    4.8876    1.1378    0.6892 C   0  0  0  0  0  0  0  0  0  0  0  0
    4.1561    2.4868    1.5089 Cl  0  0  0  0  0  0  0  0  0  0  0  0
    0.5870    1.1153   -0.9009 N   0  0  0  0  0  0  0  0  0  0  0  0
   -0.3779    0.4188   -0.2597 C   0  0  0  0  0  0  0  0  0  0  0  0
   -3.8874   -0.4153    0.4995 C   0  0  0  0  0  0  0  0  0  0  0  0
   -4.6545   -1.3324    1.3458 C   0  0  0  0  0  0  0  0  0  0  0  0
   -6.3048    1.1997   -1.2459 H   0  0  0  0  0  0  0  0  0  0  0  0
   -6.4260   -0.4606   -0.6279 H   0  0  0  0  0  0  0  0  0  0  0  0
   -6.3708    0.9659    0.5511 H   0  0  0  0  0  0  0  0  0  0  0  0
   -4.2920    1.9936   -1.7322 H   0  0  0  0  0  0  0  0  0  0  0  0
   -2.4558   -1.9632    1.9379 H   0  0  0  0  0  0  0  0  0  0  0  0
    0.0233   -2.0631    2.0396 H   0  0  0  0  0  0  0  0  0  0  0  0
    2.3149   -0.8273    0.9040 H   0  0  0  0  0  0  0  0  0  0  0  0
    3.1120    1.9110   -1.6282 H   0  0  0  0  0  0  0  0  0  0  0  0
    6.5384   -1.8432   -1.0921 H   0  0  0  0  0  0  0  0  0  0  0  0
    7.6127   -0.8927    0.8808 H   0  0  0  0  0  0  0  0  0  0  0  0
    6.5903    0.9874    2.0207 H   0  0  0  0  0  0  0  0  0  0  0  0
   -4.5002   -1.1780    2.4311 H   0  0  0  0  0  0  0  0  0  0  0  0
   -5.7349   -1.1583    1.1603 H   0  0  0  0  0  0  0  0  0  0  0  0
   -4.4881   -2.4150    1.0758 H   0  0  0  0  0  0  0  0  0  0  0  0
  1  2  1  0
  2  3  1  0
  3  4  1  0
  4  5  2  0
  4  6  1  0
  6  7  2  0
  7  8  1  0
  8  9  2  0
  9 10  1  0
 10 11  1  0
 11 12  1  0
 12 13  1  0
 13 14  1  0
 14 15  2  0
 15 16  1  0
 15 17  1  0
 17 18  2  0
 18 19  1  0
 19 20  2  0
 20 21  1  0
 12 22  2  0
 22 23  1  0
  7 24  1  0
 24 25  1  0
 24  2  2  0
 23  6  1  0
 23 10  2  0
 20 14  1  0
  1 26  1  0
  1 27  1  0
  1 28  1  0
  3 29  1  0
  8 30  1  0
  9 31  1  0
 11 32  1  0
 13 33  1  0
 17 34  1  0
 18 35  1  0
 19 36  1  0
 25 37  1  0
 25 38  1  0
 25 39  1  0
M  END
$$$$
