
     RDKit          3D

 54 56  0  0  0  0  0  0  0  0999 V2000
   -5.4308    3.4591    0.1209 C   0  0  0  0  0  0  0  0  0  0  0  0
   -6.3285    2.3664   -0.3825 C   0  0  0  0  0  0  0  0  0  0  0  0
   -5.9825    1.0928    0.1327 O   0  0  0  0  0  0  0  0  0  0  0  0
   -4.7498    0.5196   -0.0788 C   0  0  0  0  0  0  0  0  0  0  0  0
   -3.8962    1.1327   -0.7468 O   0  0  0  0  0  0  0  0  0  0  0  0
   -4.4360   -0.8064    0.4766 C   0  0  0  0  0  0  0  0  0  0  0  0
   -4.5643   -0.6976    1.9920 C   0  0  0  0  0  0  0  0  0  0  0  0
   -5.4559   -1.8256    0.0294 C   0  0  0  0  0  0  0  0  0  0  0  0
   -3.0468   -1.2552    0.1526 C   0  0  0  0  0  0  0  0  0  0  0  0
   -2.8130   -2.5407   -0.2968 C   0  0  0  0  0  0  0  0  0  0  0  0
   -1.5314   -2.9540   -0.5931 C   0  0  0  0  0  0  0  0  0  0  0  0
   -0.4351   -2.1297   -0.4619 C   0  0  0  0  0  0  0  0  0  0  0  0
    0.8384   -2.5628   -0.7639 C   0  0  0  0  0  0  0  0  0  0  0  0
    1.0706   -3.9691   -1.2525 C   0  0  0  0  0  0  0  0  0  0  0  0
    1.9154   -1.7114   -0.6215 C   0  0  0  0  0  0  0  0  0  0  0  0
    1.6876   -0.4229   -0.1718 C   0  0  0  0  0  0  0  0  0  0  0  0
    2.6567    0.4615   -0.0050 O   0  0  0  0  0  0  0  0  0  0  0  0
    3.9058    0.8144   -0.0474 C   0  0  0  0  0  0  0  0  0  0  0  0
    4.9979    0.0407   -0.4392 C   0  0  0  0  0  0  0  0  0  0  0  0
    6.2911    0.5064   -0.4502 C   0  0  0  0  0  0  0  0  0  0  0  0
    6.5478    1.7991   -0.0590 C   0  0  0  0  0  0  0  0  0  0  0  0
    7.9195    2.2903   -0.0717 C   0  0  0  0  0  0  0  0  0  0  0  0
    8.1832    3.5254   -0.2839 N   0  0  0  0  0  0  0  0  0  0  0  0
    8.9947    1.3928    0.1544 N   0  0  0  0  0  0  0  0  0  0  0  0
    5.5069    2.6046    0.3367 C   0  0  0  0  0  0  0  0  0  0  0  0
    4.2279    2.1400    0.3463 C   0  0  0  0  0  0  0  0  0  0  0  0
    0.3775   -0.0414    0.1180 N   0  0  0  0  0  0  0  0  0  0  0  0
   -0.6609   -0.8406   -0.0122 C   0  0  0  0  0  0  0  0  0  0  0  0
   -1.9628   -0.4221    0.2885 C   0  0  0  0  0  0  0  0  0  0  0  0
   -5.2467    3.3313    1.2021 H   0  0  0  0  0  0  0  0  0  0  0  0
   -5.9762    4.4253   -0.0023 H   0  0  0  0  0  0  0  0  0  0  0  0
   -4.4748    3.5384   -0.4276 H   0  0  0  0  0  0  0  0  0  0  0  0
   -6.3662    2.3672   -1.4753 H   0  0  0  0  0  0  0  0  0  0  0  0
   -7.3714    2.5978   -0.0326 H   0  0  0  0  0  0  0  0  0  0  0  0
   -5.6143   -0.8663    2.2469 H   0  0  0  0  0  0  0  0  0  0  0  0
   -3.9482   -1.4604    2.4921 H   0  0  0  0  0  0  0  0  0  0  0  0
   -4.3044    0.3466    2.3231 H   0  0  0  0  0  0  0  0  0  0  0  0
   -6.4549   -1.4099    0.2131 H   0  0  0  0  0  0  0  0  0  0  0  0
   -5.3476   -2.7263    0.6584 H   0  0  0  0  0  0  0  0  0  0  0  0
   -5.3919   -2.0467   -1.0612 H   0  0  0  0  0  0  0  0  0  0  0  0
   -3.6610   -3.2247   -0.4135 H   0  0  0  0  0  0  0  0  0  0  0  0
   -1.3304   -3.9744   -0.9518 H   0  0  0  0  0  0  0  0  0  0  0  0
    0.6723   -4.6998   -0.5170 H   0  0  0  0  0  0  0  0  0  0  0  0
    2.1627   -4.1512   -1.3082 H   0  0  0  0  0  0  0  0  0  0  0  0
    0.6632   -4.1122   -2.2733 H   0  0  0  0  0  0  0  0  0  0  0  0
    2.9141   -2.0744   -0.8659 H   0  0  0  0  0  0  0  0  0  0  0  0
    4.8507   -0.9669   -0.7508 H   0  0  0  0  0  0  0  0  0  0  0  0
    7.1075   -0.1291   -0.7618 H   0  0  0  0  0  0  0  0  0  0  0  0
    7.3984    4.1813   -0.4490 H   0  0  0  0  0  0  0  0  0  0  0  0
    9.9761    1.7262    0.1810 H   0  0  0  0  0  0  0  0  0  0  0  0
    8.8506    0.3660    0.3030 H   0  0  0  0  0  0  0  0  0  0  0  0
    5.7656    3.6315    0.6406 H   0  0  0  0  0  0  0  0  0  0  0  0
    3.4119    2.7719    0.6566 H   0  0  0  0  0  0  0  0  0  0  0  0
   -2.1119    0.5921    0.6408 H   0  0  0  0  0  0  0  0  0  0  0  0
  1  2  1  0
  2  3  1  0
  3  4  1  0
  4  5  2  0
  4  6  1  0
  6  7  1  0
  6  8  1  0
  6  9  1  0
  9 10  2  0
 10 11  1  0
 11 12  2  0
 12 13  1  0
 13 14  1  0
 13 15  2  0
 15 16  1  0
 16 17  1  0
 17 18  1  0
 18 19  2  0
 19 20  1  0
 20 21  2  0
 21 22  1  0
 22 23  2  3
 22 24  1  0
 21 25  1  0
 25 26  2  0
 16 27  2  0
 27 28  1  0
 28 29  2  0
 29  9  1  0
 28 12  1  0
 26 18  1  0
  1 30  1  0
  1 31  1  0
  1 32  1  0
  2 33  1  0
  2 34  1  0
  7 35  1  0
  7 36  1  0
  7 37  1  0
  8 38  1  0
  8 39  1  0
  8 40  1  0
 10 41  1  0
 11 42  1  0
 14 43  1  0
 14 44  1  0
 14 45  1  0
 15 46  1  0
 19 47  1  0
 20 48  1  0
 23 49  1  0
 24 50  1  0
 24 51  1  0
 25 52  1  0
 26 53  1  0
 29 54  1  0
M  END
$$$$
