
     RDKit          3D

 46 47  0  0  0  0  0  0  0  0999 V2000
    6.2931    1.1162   -2.1918 C   0  0  0  0  0  0  0  0  0  0  0  0
    4.9966    0.5906   -1.5707 C   0  0  0  0  0  0  0  0  0  0  0  0
    5.1037    0.6374   -0.1615 O   0  0  0  0  0  0  0  0  0  0  0  0
    4.0296    0.1957    0.5871 C   0  0  0  0  0  0  0  0  0  0  0  0
    2.9081   -0.2701    0.0351 N   0  0  0  0  0  0  0  0  0  0  0  0
    1.8582   -0.7022    0.7621 C   0  0  0  0  0  0  0  0  0  0  0  0
    0.6078   -1.2280    0.3700 N   0  0  0  0  0  0  0  0  0  0  0  0
   -0.5744   -0.4845    0.1162 C   0  0  0  0  0  0  0  0  0  0  0  0
   -0.5334    0.7836    0.2423 O   0  0  0  0  0  0  0  0  0  0  0  0
   -1.7130   -1.3624   -0.2723 C   0  0  0  0  0  0  0  0  0  0  0  0
   -2.9414   -0.5775   -0.5465 C   0  0  0  0  0  0  0  0  0  0  0  0
   -3.9630   -0.5216    0.3847 C   0  0  0  0  0  0  0  0  0  0  0  0
   -5.0945    0.2051    0.1396 C   0  0  0  0  0  0  0  0  0  0  0  0
   -6.1835    0.3399    0.9897 O   0  0  0  0  0  0  0  0  0  0  0  0
   -6.2132   -0.3065    2.2654 C   0  0  0  0  0  0  0  0  0  0  0  0
   -5.2690    0.9169   -1.0502 C   0  0  0  0  0  0  0  0  0  0  0  0
   -6.7968    1.9614   -1.5054 Br  0  0  0  0  0  0  0  0  0  0  0  0
   -4.2457    0.8671   -1.9954 C   0  0  0  0  0  0  0  0  0  0  0  0
   -3.0965    0.1180   -1.7251 C   0  0  0  0  0  0  0  0  0  0  0  0
   -2.0208    0.0172   -2.6261 O   0  0  0  0  0  0  0  0  0  0  0  0
   -2.0991    0.7090   -3.8782 C   0  0  0  0  0  0  0  0  0  0  0  0
    1.9449   -0.6618    2.1507 C   0  0  0  0  0  0  0  0  0  0  0  0
    3.0937   -0.1842    2.7906 C   0  0  0  0  0  0  0  0  0  0  0  0
    3.2243   -0.1260    4.2047 N   0  0  0  0  0  0  0  0  0  0  0  0
    4.1353    0.2440    1.9627 C   0  0  0  0  0  0  0  0  0  0  0  0
    5.3333    0.7401    2.6198 C   0  0  0  0  0  0  0  0  0  0  0  0
    6.2963    1.1273    3.1506 N   0  0  0  0  0  0  0  0  0  0  0  0
    6.1829    2.1712   -2.4846 H   0  0  0  0  0  0  0  0  0  0  0  0
    6.5342    0.5397   -3.1135 H   0  0  0  0  0  0  0  0  0  0  0  0
    7.0970    1.0046   -1.4157 H   0  0  0  0  0  0  0  0  0  0  0  0
    4.1899    1.2917   -1.9264 H   0  0  0  0  0  0  0  0  0  0  0  0
    4.7293   -0.4131   -1.8985 H   0  0  0  0  0  0  0  0  0  0  0  0
    0.7246   -2.2789    0.3034 H   0  0  0  0  0  0  0  0  0  0  0  0
   -1.8947   -2.0442    0.5854 H   0  0  0  0  0  0  0  0  0  0  0  0
   -1.4611   -1.9576   -1.1582 H   0  0  0  0  0  0  0  0  0  0  0  0
   -3.9109   -1.0497    1.3465 H   0  0  0  0  0  0  0  0  0  0  0  0
   -5.2193   -0.0630    2.7229 H   0  0  0  0  0  0  0  0  0  0  0  0
   -6.9689    0.1384    2.9175 H   0  0  0  0  0  0  0  0  0  0  0  0
   -6.2859   -1.3920    2.1935 H   0  0  0  0  0  0  0  0  0  0  0  0
   -4.2974    1.3777   -2.9248 H   0  0  0  0  0  0  0  0  0  0  0  0
   -1.1133    0.6759   -4.3611 H   0  0  0  0  0  0  0  0  0  0  0  0
   -2.8344    0.1923   -4.5441 H   0  0  0  0  0  0  0  0  0  0  0  0
   -2.4411    1.7308   -3.7114 H   0  0  0  0  0  0  0  0  0  0  0  0
    1.1902   -0.9711    2.8641 H   0  0  0  0  0  0  0  0  0  0  0  0
    2.9601    0.5267    4.9723 H   0  0  0  0  0  0  0  0  0  0  0  0
    3.7384   -1.0372    4.3846 H   0  0  0  0  0  0  0  0  0  0  0  0
  1  2  1  0
  2  3  1  0
  3  4  1  0
  4  5  2  0
  5  6  1  0
  6  7  1  0
  7  8  1  0
  8  9  2  0
  8 10  1  0
 10 11  1  0
 11 12  2  0
 12 13  1  0
 13 14  1  0
 14 15  1  0
 13 16  2  0
 16 17  1  0
 16 18  1  0
 18 19  2  0
 19 20  1  0
 20 21  1  0
  6 22  2  0
 22 23  1  0
 23 24  1  0
 23 25  2  0
 25 26  1  0
 26 27  3  0
 25  4  1  0
 19 11  1  0
  1 28  1  0
  1 29  1  0
  1 30  1  0
  2 31  1  0
  2 32  1  0
  7 33  1  0
 10 34  1  0
 10 35  1  0
 12 36  1  0
 15 37  1  0
 15 38  1  0
 15 39  1  0
 18 40  1  0
 21 41  1  0
 21 42  1  0
 21 43  1  0
 22 44  1  0
 24 45  1  0
 24 46  1  0
M  END
$$$$
