
     RDKit          3D

 80 84  0  0  0  0  0  0  0  0999 V2000
    6.1473    3.6498   -0.8075 C   0  0  0  0  0  0  0  0  0  0  0  0
    5.3586    3.9722   -1.9612 N   0  0  0  0  0  0  0  0  0  0  0  0
    4.5647    2.8401   -2.3311 C   0  0  0  0  0  0  0  0  0  0  0  0
    3.6400    2.4821   -1.1887 C   0  0  0  0  0  0  0  0  0  0  0  0
    2.3788    3.0664   -1.1327 C   0  0  0  0  0  0  0  0  0  0  0  0
    1.5642    2.7221   -0.0850 C   0  0  0  0  0  0  0  0  0  0  0  0
    1.9656    1.8136    0.9088 C   0  0  0  0  0  0  0  0  0  0  0  0
    0.8397    1.5919    2.2714 Cl  0  0  0  0  0  0  0  0  0  0  0  0
    3.1942    1.2503    0.8379 C   0  0  0  0  0  0  0  0  0  0  0  0
    3.6773    0.2004    1.7813 C   0  0  0  0  0  0  0  0  0  0  0  0
    3.4611   -1.1854    1.2894 N   0  0  0  0  0  0  0  0  0  0  0  0
    2.3243   -1.8736    1.6129 C   0  0  0  0  0  0  0  0  0  0  0  0
    1.4334   -1.2748    2.3422 O   0  0  0  0  0  0  0  0  0  0  0  0
    1.8813   -3.2483    1.2794 C   0  0  1  0  0  0  0  0  0  0  0  0
    2.5510   -4.3223    2.0911 C   0  0  0  0  0  0  0  0  0  0  0  0
    2.0762   -5.5830    1.5969 N   0  0  0  0  0  0  0  0  0  0  0  0
    1.1870   -5.5169    0.4845 C   0  0  0  0  0  0  0  0  0  0  0  0
   -0.0255   -4.6417    0.6754 C   0  0  0  0  0  0  0  0  0  0  0  0
    0.3809   -3.4538    1.5276 C   0  0  2  0  0  0  0  0  0  0  0  0
   -0.4168   -2.2619    1.2472 C   0  0  0  0  0  0  0  0  0  0  0  0
   -1.2843   -1.7429    2.1842 C   0  0  0  0  0  0  0  0  0  0  0  0
   -2.0401   -0.6208    1.9414 C   0  0  0  0  0  0  0  0  0  0  0  0
   -1.9640    0.0584    0.7133 C   0  0  0  0  0  0  0  0  0  0  0  0
   -2.7392    1.1549    0.5528 O   0  0  0  0  0  0  0  0  0  0  0  0
   -2.9474    2.0450   -0.4575 C   0  0  0  0  0  0  0  0  0  0  0  0
   -3.4907    1.5779   -1.7493 C   0  0  0  0  0  0  0  0  0  0  0  0
   -4.7326    0.9832   -1.7989 O   0  0  0  0  0  0  0  0  0  0  0  0
   -5.9600    1.5156   -1.4540 C   0  0  0  0  0  0  0  0  0  0  0  0
   -6.5660    1.3590   -0.2431 C   0  0  0  0  0  0  0  0  0  0  0  0
   -5.8076    0.3694    1.0160 Cl  0  0  0  0  0  0  0  0  0  0  0  0
   -7.8160    1.9403    0.0298 C   0  0  0  0  0  0  0  0  0  0  0  0
   -8.4907    2.6920   -0.9039 C   0  0  0  0  0  0  0  0  0  0  0  0
   -9.8113    3.3143   -0.6372 C   0  0  0  0  0  0  0  0  0  0  0  0
   -7.8707    2.8434   -2.1242 C   0  0  0  0  0  0  0  0  0  0  0  0
   -6.6550    2.2872   -2.4110 C   0  0  0  0  0  0  0  0  0  0  0  0
   -5.9116    2.5089   -3.9722 Cl  0  0  0  0  0  0  0  0  0  0  0  0
   -1.0993   -0.4573   -0.2227 C   0  0  0  0  0  0  0  0  0  0  0  0
   -0.3555   -1.5842    0.0518 C   0  0  0  0  0  0  0  0  0  0  0  0
    4.5111   -1.6714    0.4285 C   0  0  0  0  0  0  0  0  0  0  0  0
    4.7576   -2.9676   -0.1425 C   0  0  0  0  0  0  0  0  0  0  0  0
    4.1142   -1.9185   -1.0437 C   0  0  0  0  0  0  0  0  0  0  0  0
    4.0326    1.6027   -0.2324 C   0  0  0  0  0  0  0  0  0  0  0  0
    5.5157    3.5822    0.0920 H   0  0  0  0  0  0  0  0  0  0  0  0
    6.8895    4.4838   -0.6860 H   0  0  0  0  0  0  0  0  0  0  0  0
    6.7050    2.7102   -1.0130 H   0  0  0  0  0  0  0  0  0  0  0  0
    5.8874    4.3600   -2.7580 H   0  0  0  0  0  0  0  0  0  0  0  0
    5.1879    1.9473   -2.4846 H   0  0  0  0  0  0  0  0  0  0  0  0
    3.9698    3.0725   -3.2312 H   0  0  0  0  0  0  0  0  0  0  0  0
    2.0979    3.7600   -1.9101 H   0  0  0  0  0  0  0  0  0  0  0  0
    0.5646    3.1681   -0.0157 H   0  0  0  0  0  0  0  0  0  0  0  0
    4.7575    0.3815    1.9482 H   0  0  0  0  0  0  0  0  0  0  0  0
    3.1628    0.3349    2.7492 H   0  0  0  0  0  0  0  0  0  0  0  0
    2.0117   -3.4449    0.2190 H   0  0  0  0  0  0  0  0  0  0  0  0
    3.6354   -4.2967    2.1286 H   0  0  0  0  0  0  0  0  0  0  0  0
    2.1198   -4.2178    3.1356 H   0  0  0  0  0  0  0  0  0  0  0  0
    1.6334   -6.1759    2.3337 H   0  0  0  0  0  0  0  0  0  0  0  0
    1.6915   -5.3182   -0.4849 H   0  0  0  0  0  0  0  0  0  0  0  0
    0.7708   -6.5613    0.3642 H   0  0  0  0  0  0  0  0  0  0  0  0
   -0.3488   -4.2670   -0.3376 H   0  0  0  0  0  0  0  0  0  0  0  0
   -0.9071   -5.1778    1.0763 H   0  0  0  0  0  0  0  0  0  0  0  0
    0.2582   -3.7885    2.5761 H   0  0  0  0  0  0  0  0  0  0  0  0
   -1.3647   -2.2510    3.1487 H   0  0  0  0  0  0  0  0  0  0  0  0
   -2.7261   -0.2122    2.6867 H   0  0  0  0  0  0  0  0  0  0  0  0
   -2.0392    2.6990   -0.6535 H   0  0  0  0  0  0  0  0  0  0  0  0
   -3.6906    2.8197   -0.0644 H   0  0  0  0  0  0  0  0  0  0  0  0
   -3.5976    2.5330   -2.3857 H   0  0  0  0  0  0  0  0  0  0  0  0
   -2.7862    0.9673   -2.3649 H   0  0  0  0  0  0  0  0  0  0  0  0
   -8.2596    1.7958    0.9916 H   0  0  0  0  0  0  0  0  0  0  0  0
   -9.6563    4.4082   -0.4552 H   0  0  0  0  0  0  0  0  0  0  0  0
  -10.4083    3.2320   -1.5933 H   0  0  0  0  0  0  0  0  0  0  0  0
  -10.3842    2.8203    0.1509 H   0  0  0  0  0  0  0  0  0  0  0  0
   -8.4165    3.4417   -2.8603 H   0  0  0  0  0  0  0  0  0  0  0  0
   -0.9984    0.0499   -1.2017 H   0  0  0  0  0  0  0  0  0  0  0  0
    0.3271   -1.9884   -0.6931 H   0  0  0  0  0  0  0  0  0  0  0  0
    5.4396   -0.9692    0.3760 H   0  0  0  0  0  0  0  0  0  0  0  0
    4.2059   -3.8943   -0.1147 H   0  0  0  0  0  0  0  0  0  0  0  0
    5.8533   -3.2130   -0.4266 H   0  0  0  0  0  0  0  0  0  0  0  0
    4.7616   -1.5311   -1.8494 H   0  0  0  0  0  0  0  0  0  0  0  0
    3.0397   -1.9272   -1.2024 H   0  0  0  0  0  0  0  0  0  0  0  0
    5.0409    1.1505   -0.2685 H   0  0  0  0  0  0  0  0  0  0  0  0
  1  2  1  0
  2  3  1  0
  3  4  1  0
  4  5  2  0
  5  6  1  0
  6  7  2  0
  7  8  1  0
  7  9  1  0
  9 10  1  0
 10 11  1  0
 11 12  1  0
 12 13  2  0
 12 14  1  0
 14 15  1  0
 15 16  1  0
 16 17  1  0
 17 18  1  0
 18 19  1  0
 19 20  1  0
 20 21  2  0
 21 22  1  0
 22 23  2  0
 23 24  1  0
 24 25  1  0
 25 26  1  0
 26 27  1  0
 27 28  1  0
 28 29  2  0
 29 30  1  0
 29 31  1  0
 31 32  2  0
 32 33  1  0
 32 34  1  0
 34 35  2  0
 35 36  1  0
 23 37  1  0
 37 38  2  0
 11 39  1  0
 39 40  1  0
 40 41  1  0
  9 42  2  0
 42  4  1  0
 19 14  1  0
 38 20  1  0
 41 39  1  0
 35 28  1  0
  1 43  1  0
  1 44  1  0
  1 45  1  0
  2 46  1  0
  3 47  1  0
  3 48  1  0
  5 49  1  0
  6 50  1  0
 10 51  1  0
 10 52  1  0
 14 53  1  6
 15 54  1  0
 15 55  1  0
 16 56  1  0
 17 57  1  0
 17 58  1  0
 18 59  1  0
 18 60  1  0
 19 61  1  1
 21 62  1  0
 22 63  1  0
 25 64  1  0
 25 65  1  0
 26 66  1  0
 26 67  1  0
 31 68  1  0
 33 69  1  0
 33 70  1  0
 33 71  1  0
 34 72  1  0
 37 73  1  0
 38 74  1  0
 39 75  1  0
 40 76  1  0
 40 77  1  0
 41 78  1  0
 41 79  1  0
 42 80  1  0
M  END
$$$$
