
     RDKit          3D

 83 88  0  0  0  0  0  0  0  0999 V2000
   12.1609    2.9326   -1.7249 O   0  0  0  0  0  0  0  0  0  0  0  0
   11.6193    1.8663   -1.3170 C   0  0  0  0  0  0  0  0  0  0  0  0
   12.3768    0.8322   -0.8306 C   0  0  0  0  0  0  0  0  0  0  0  0
   11.7513   -0.3131   -0.3964 C   0  0  0  0  0  0  0  0  0  0  0  0
   10.3814   -0.3569   -0.4758 C   0  0  0  0  0  0  0  0  0  0  0  0
    9.7395   -1.4778   -0.0543 C   0  0  0  0  0  0  0  0  0  0  0  0
    8.3547   -1.5665   -0.1168 C   0  0  0  0  0  0  0  0  0  0  0  0
    7.6401   -0.5073   -0.6092 C   0  0  0  0  0  0  0  0  0  0  0  0
    6.2948   -0.4842   -0.7101 O   0  0  0  0  0  0  0  0  0  0  0  0
    5.2607   -1.3244   -0.4089 C   0  0  0  0  0  0  0  0  0  0  0  0
    5.0964   -1.6478    1.0543 C   0  0  0  0  0  0  0  0  0  0  0  0
    3.9362   -2.5715    1.2373 C   0  0  0  0  0  0  0  0  0  0  0  0
    2.6598   -1.9618    0.7551 C   0  0  0  0  0  0  0  0  0  0  0  0
    2.3401   -0.6834    1.4923 C   0  0  0  0  0  0  0  0  0  0  0  0
    1.0833   -0.1671    0.9727 N   0  0  0  0  0  0  0  0  0  0  0  0
    0.6764    1.0251    1.6134 C   0  0  0  0  0  0  0  0  0  0  0  0
   -0.5516    1.6207    1.0672 C   0  0  0  0  0  0  0  0  0  0  0  0
   -1.2981    0.7608    0.2532 N   0  0  0  0  0  0  0  0  0  0  0  0
   -2.3241    1.3070   -0.5237 C   0  0  0  0  0  0  0  0  0  0  0  0
   -3.1043    0.3459   -1.3873 C   0  0  0  0  0  0  0  0  0  0  0  0
   -4.1855    1.1310   -2.1768 C   0  0  0  0  0  0  0  0  0  0  0  0
   -5.0972    1.7647   -1.3061 N   0  0  0  0  0  0  0  0  0  0  0  0
   -6.1058    1.2690   -0.4919 C   0  0  0  0  0  0  0  0  0  0  0  0
   -6.5753   -0.0481   -0.6459 C   0  0  0  0  0  0  0  0  0  0  0  0
   -7.4250   -0.5179    0.3122 C   0  0  0  0  0  0  0  0  0  0  0  0
   -7.8231    0.2515    1.3831 N   0  0  0  0  0  0  0  0  0  0  0  0
   -7.3963    1.4944    1.5379 C   0  0  0  0  0  0  0  0  0  0  0  0
   -7.8233    2.2512    2.6414 C   0  0  0  0  0  0  0  0  0  0  0  0
   -7.3884    3.5270    2.8100 C   0  0  0  0  0  0  0  0  0  0  0  0
   -6.5197    4.0621    1.8752 C   0  0  0  0  0  0  0  0  0  0  0  0
   -6.0847    3.3344    0.7793 C   0  0  0  0  0  0  0  0  0  0  0  0
   -6.5307    2.0478    0.6194 C   0  0  0  0  0  0  0  0  0  0  0  0
   -7.9373   -1.9308    0.2925 C   0  0  0  0  0  0  0  0  0  0  0  0
   -7.4376   -2.6985   -0.8868 C   0  0  0  0  0  0  0  0  0  0  0  0
   -7.4175   -1.8125   -2.1057 C   0  0  0  0  0  0  0  0  0  0  0  0
   -6.2677   -0.8063   -1.8731 C   0  0  0  0  0  0  0  0  0  0  0  0
   -1.2815   -0.6178    0.5438 C   0  0  0  0  0  0  0  0  0  0  0  0
    0.1153   -1.1710    0.7341 C   0  0  0  0  0  0  0  0  0  0  0  0
    8.3223    0.6518   -1.0449 C   0  0  0  0  0  0  0  0  0  0  0  0
    9.6859    0.7349   -0.9823 C   0  0  0  0  0  0  0  0  0  0  0  0
   10.3175    1.8182   -1.3907 O   0  0  0  0  0  0  0  0  0  0  0  0
   13.4561    0.9162   -0.7868 H   0  0  0  0  0  0  0  0  0  0  0  0
   12.2888   -1.1627   -0.0006 H   0  0  0  0  0  0  0  0  0  0  0  0
   10.2683   -2.3253    0.3379 H   0  0  0  0  0  0  0  0  0  0  0  0
    7.8480   -2.4547    0.1982 H   0  0  0  0  0  0  0  0  0  0  0  0
    5.4245   -2.2946   -0.9831 H   0  0  0  0  0  0  0  0  0  0  0  0
    4.3100   -0.9169   -0.8411 H   0  0  0  0  0  0  0  0  0  0  0  0
    6.0311   -2.0940    1.4997 H   0  0  0  0  0  0  0  0  0  0  0  0
    4.9635   -0.6559    1.5681 H   0  0  0  0  0  0  0  0  0  0  0  0
    4.1752   -3.4925    0.6310 H   0  0  0  0  0  0  0  0  0  0  0  0
    3.7719   -2.8495    2.3058 H   0  0  0  0  0  0  0  0  0  0  0  0
    2.6568   -1.8417   -0.3309 H   0  0  0  0  0  0  0  0  0  0  0  0
    1.8340   -2.7240    0.9455 H   0  0  0  0  0  0  0  0  0  0  0  0
    2.3094   -0.8261    2.5797 H   0  0  0  0  0  0  0  0  0  0  0  0
    3.1537    0.0420    1.2717 H   0  0  0  0  0  0  0  0  0  0  0  0
    1.5070    1.7759    1.5595 H   0  0  0  0  0  0  0  0  0  0  0  0
    0.5016    0.7615    2.7031 H   0  0  0  0  0  0  0  0  0  0  0  0
   -1.2315    1.9653    1.9137 H   0  0  0  0  0  0  0  0  0  0  0  0
   -0.3697    2.5720    0.5056 H   0  0  0  0  0  0  0  0  0  0  0  0
   -3.0897    1.7779    0.1604 H   0  0  0  0  0  0  0  0  0  0  0  0
   -1.9386    2.1551   -1.1523 H   0  0  0  0  0  0  0  0  0  0  0  0
   -2.5313   -0.1977   -2.1248 H   0  0  0  0  0  0  0  0  0  0  0  0
   -3.6567   -0.3628   -0.7512 H   0  0  0  0  0  0  0  0  0  0  0  0
   -4.4770    0.4901   -2.9696 H   0  0  0  0  0  0  0  0  0  0  0  0
   -3.5264    1.9184   -2.7023 H   0  0  0  0  0  0  0  0  0  0  0  0
   -4.9590    2.8382   -1.3222 H   0  0  0  0  0  0  0  0  0  0  0  0
   -8.5011    1.8446    3.3794 H   0  0  0  0  0  0  0  0  0  0  0  0
   -7.7217    4.1084    3.6667 H   0  0  0  0  0  0  0  0  0  0  0  0
   -6.2054    5.0805    2.0577 H   0  0  0  0  0  0  0  0  0  0  0  0
   -5.4234    3.8126    0.1184 H   0  0  0  0  0  0  0  0  0  0  0  0
   -9.0567   -1.8310    0.1861 H   0  0  0  0  0  0  0  0  0  0  0  0
   -7.7572   -2.4560    1.2330 H   0  0  0  0  0  0  0  0  0  0  0  0
   -6.4080   -3.0840   -0.7356 H   0  0  0  0  0  0  0  0  0  0  0  0
   -8.1247   -3.5519   -1.1261 H   0  0  0  0  0  0  0  0  0  0  0  0
   -8.3362   -1.1716   -2.1430 H   0  0  0  0  0  0  0  0  0  0  0  0
   -7.2683   -2.4051   -3.0100 H   0  0  0  0  0  0  0  0  0  0  0  0
   -6.4200   -0.1443   -2.7856 H   0  0  0  0  0  0  0  0  0  0  0  0
   -5.3752   -1.4060   -1.8809 H   0  0  0  0  0  0  0  0  0  0  0  0
   -1.8880   -0.8031    1.4675 H   0  0  0  0  0  0  0  0  0  0  0  0
   -1.7623   -1.2112   -0.2585 H   0  0  0  0  0  0  0  0  0  0  0  0
    0.4356   -1.7723   -0.1559 H   0  0  0  0  0  0  0  0  0  0  0  0
    0.0912   -1.8744    1.5867 H   0  0  0  0  0  0  0  0  0  0  0  0
    7.7632    1.4862   -1.4356 H   0  0  0  0  0  0  0  0  0  0  0  0
  1  2  2  0
  2  3  1  0
  3  4  2  0
  4  5  1  0
  5  6  2  0
  6  7  1  0
  7  8  2  0
  8  9  1  0
  9 10  1  0
 10 11  1  0
 11 12  1  0
 12 13  1  0
 13 14  1  0
 14 15  1  0
 15 16  1  0
 16 17  1  0
 17 18  1  0
 18 19  1  0
 19 20  1  0
 20 21  1  0
 21 22  1  0
 22 23  1  0
 23 24  2  0
 24 25  1  0
 25 26  2  0
 26 27  1  0
 27 28  2  0
 28 29  1  0
 29 30  2  0
 30 31  1  0
 31 32  2  0
 25 33  1  0
 33 34  1  0
 34 35  1  0
 35 36  1  0
 18 37  1  0
 37 38  1  0
  8 39  1  0
 39 40  2  0
 40 41  1  0
 41  2  1  0
 40  5  1  0
 38 15  1  0
 32 23  1  0
 36 24  1  0
 32 27  1  0
  3 42  1  0
  4 43  1  0
  6 44  1  0
  7 45  1  0
 10 46  1  0
 10 47  1  0
 11 48  1  0
 11 49  1  0
 12 50  1  0
 12 51  1  0
 13 52  1  0
 13 53  1  0
 14 54  1  0
 14 55  1  0
 16 56  1  0
 16 57  1  0
 17 58  1  0
 17 59  1  0
 19 60  1  0
 19 61  1  0
 20 62  1  0
 20 63  1  0
 21 64  1  0
 21 65  1  0
 22 66  1  0
 28 67  1  0
 29 68  1  0
 30 69  1  0
 31 70  1  0
 33 71  1  0
 33 72  1  0
 34 73  1  0
 34 74  1  0
 35 75  1  0
 35 76  1  0
 36 77  1  0
 36 78  1  0
 37 79  1  0
 37 80  1  0
 38 81  1  0
 38 82  1  0
 39 83  1  0
M  END
$$$$
