
     RDKit          3D

 65 67  0  0  0  0  0  0  0  0999 V2000
    4.0755   -0.3519    1.1600 C   0  0  2  0  0  0  0  0  0  0  0  0
    3.8258   -1.8379    1.3381 C   0  0  0  0  0  0  0  0  0  0  0  0
    3.0268   -2.2106    0.0745 C   0  0  2  0  0  0  0  0  0  0  0  0
    2.4313   -0.9246   -0.3270 N   0  0  0  0  0  0  0  0  0  0  0  0
    1.0207   -0.8743   -0.5623 C   0  0  0  0  0  0  0  0  0  0  0  0
    0.4483   -1.9799   -0.4373 O   0  0  0  0  0  0  0  0  0  0  0  0
    0.2876    0.4051   -0.9326 C   0  0  2  0  0  0  0  0  0  0  0  0
    0.5290    1.4121    0.1886 C   0  0  0  0  0  0  0  0  0  0  0  0
   -1.0489    0.2320   -1.2695 N   0  0  0  0  0  0  0  0  0  0  0  0
   -2.1210    0.1117   -0.4171 C   0  0  1  0  0  0  0  0  0  0  0  0
   -2.1236   -0.7109    0.7872 C   0  0  0  0  0  0  0  0  0  0  0  0
   -3.4733   -0.6295    1.4814 C   0  0  0  0  0  0  0  0  0  0  0  0
   -4.5881   -1.1335    0.6429 C   0  0  0  0  0  0  0  0  0  0  0  0
   -4.7653   -2.5190    0.7799 C   0  0  0  0  0  0  0  0  0  0  0  0
   -5.7294   -3.2409    0.1245 C   0  0  0  0  0  0  0  0  0  0  0  0
   -6.5922   -2.6100   -0.7245 C   0  0  0  0  0  0  0  0  0  0  0  0
   -6.4397   -1.2530   -0.8759 C   0  0  0  0  0  0  0  0  0  0  0  0
   -5.4772   -0.5409   -0.2196 C   0  0  0  0  0  0  0  0  0  0  0  0
   -2.6561    1.4938   -0.1288 C   0  0  0  0  0  0  0  0  0  0  0  0
   -3.4103    2.3063    0.4655 O   0  0  0  0  0  0  0  0  0  0  0  0
   -2.1572    2.5970   -0.8051 O   0  0  0  0  0  0  0  0  0  0  0  0
   -2.6442    3.8887   -0.5536 C   0  0  0  0  0  0  0  0  0  0  0  0
   -1.9466    4.9288   -1.4163 C   0  0  0  0  0  0  0  0  0  0  0  0
    3.6779   -0.2314   -0.3193 C   0  0  1  0  0  0  0  0  0  0  0  0
    3.7002    1.2101   -0.6401 C   0  0  0  0  0  0  0  0  0  0  0  0
    5.1996    1.5559   -0.8003 C   0  0  0  0  0  0  0  0  0  0  0  0
    6.0516    0.5646   -0.0686 C   0  0  0  0  0  0  0  0  0  0  0  0
    5.5007    0.0609    1.2227 C   0  0  0  0  0  0  0  0  0  0  0  0
    2.0833   -3.2796    0.3209 C   0  0  0  0  0  0  0  0  0  0  0  0
    1.1894   -4.2987    0.5562 O   0  0  0  0  0  0  0  0  0  0  0  0
    2.7921   -4.2892    0.6577 O   0  0  0  0  0  0  0  0  0  0  0  0
    3.3948    0.2507    1.8034 H   0  0  0  0  0  0  0  0  0  0  0  0
    3.1486   -1.9562    2.2027 H   0  0  0  0  0  0  0  0  0  0  0  0
    4.7592   -2.3984    1.4087 H   0  0  0  0  0  0  0  0  0  0  0  0
    3.7765   -2.4811   -0.7225 H   0  0  0  0  0  0  0  0  0  0  0  0
    0.8398    0.7867   -1.8071 H   0  0  0  0  0  0  0  0  0  0  0  0
    0.9393    2.3594   -0.1885 H   0  0  0  0  0  0  0  0  0  0  0  0
    1.3002    1.0060    0.9065 H   0  0  0  0  0  0  0  0  0  0  0  0
   -0.3355    1.6167    0.8110 H   0  0  0  0  0  0  0  0  0  0  0  0
   -1.1084   -0.3131   -2.1578 H   0  0  0  0  0  0  0  0  0  0  0  0
   -2.9864   -0.3259   -1.0643 H   0  0  0  0  0  0  0  0  0  0  0  0
   -1.3962   -0.3777    1.5817 H   0  0  0  0  0  0  0  0  0  0  0  0
   -2.0007   -1.8080    0.6152 H   0  0  0  0  0  0  0  0  0  0  0  0
   -3.6712    0.4238    1.7309 H   0  0  0  0  0  0  0  0  0  0  0  0
   -3.4416   -1.1823    2.4579 H   0  0  0  0  0  0  0  0  0  0  0  0
   -4.1428   -3.1560    1.4295 H   0  0  0  0  0  0  0  0  0  0  0  0
   -5.8622   -4.3084    0.2333 H   0  0  0  0  0  0  0  0  0  0  0  0
   -7.3971   -3.0346   -1.3084 H   0  0  0  0  0  0  0  0  0  0  0  0
   -7.0667   -0.6404   -1.5245 H   0  0  0  0  0  0  0  0  0  0  0  0
   -5.3260    0.5225   -0.3036 H   0  0  0  0  0  0  0  0  0  0  0  0
   -2.3872    4.1518    0.5094 H   0  0  0  0  0  0  0  0  0  0  0  0
   -3.7150    4.0140   -0.7444 H   0  0  0  0  0  0  0  0  0  0  0  0
   -2.3519    5.9138   -1.1178 H   0  0  0  0  0  0  0  0  0  0  0  0
   -2.1988    4.7627   -2.4721 H   0  0  0  0  0  0  0  0  0  0  0  0
   -0.8635    4.9064   -1.2220 H   0  0  0  0  0  0  0  0  0  0  0  0
    4.4539   -0.8166   -0.8716 H   0  0  0  0  0  0  0  0  0  0  0  0
    3.1756    1.4945   -1.5503 H   0  0  0  0  0  0  0  0  0  0  0  0
    3.4145    1.7969    0.2722 H   0  0  0  0  0  0  0  0  0  0  0  0
    5.4615    1.4967   -1.8778 H   0  0  0  0  0  0  0  0  0  0  0  0
    5.3900    2.5874   -0.4728 H   0  0  0  0  0  0  0  0  0  0  0  0
    6.9982    1.1217    0.1921 H   0  0  0  0  0  0  0  0  0  0  0  0
    6.4075   -0.2563   -0.7586 H   0  0  0  0  0  0  0  0  0  0  0  0
    5.5596    0.9198    1.9488 H   0  0  0  0  0  0  0  0  0  0  0  0
    6.1858   -0.7138    1.6012 H   0  0  0  0  0  0  0  0  0  0  0  0
    0.3793   -4.2141    1.1572 H   0  0  0  0  0  0  0  0  0  0  0  0
  1  2  1  0
  2  3  1  0
  3  4  1  0
  4  5  1  0
  5  6  2  0
  5  7  1  0
  7  8  1  0
  7  9  1  0
  9 10  1  0
 10 11  1  0
 11 12  1  0
 12 13  1  0
 13 14  2  0
 14 15  1  0
 15 16  2  0
 16 17  1  0
 17 18  2  0
 10 19  1  0
 19 20  2  0
 19 21  1  0
 21 22  1  0
 22 23  1  0
  4 24  1  0
 24 25  1  0
 25 26  1  0
 26 27  1  0
 27 28  1  0
  3 29  1  0
 29 30  1  0
 29 31  2  0
 24  1  1  0
 28  1  1  0
 18 13  1  0
  1 32  1  1
  2 33  1  0
  2 34  1  0
  3 35  1  6
  7 36  1  6
  8 37  1  0
  8 38  1  0
  8 39  1  0
  9 40  1  0
 10 41  1  6
 11 42  1  0
 11 43  1  0
 12 44  1  0
 12 45  1  0
 14 46  1  0
 15 47  1  0
 16 48  1  0
 17 49  1  0
 18 50  1  0
 22 51  1  0
 22 52  1  0
 23 53  1  0
 23 54  1  0
 23 55  1  0
 24 56  1  6
 25 57  1  0
 25 58  1  0
 26 59  1  0
 26 60  1  0
 27 61  1  0
 27 62  1  0
 28 63  1  0
 28 64  1  0
 30 65  1  0
M  END
$$$$
