
     RDKit          3D

 55 59  0  0  0  0  0  0  0  0999 V2000
   -2.9743   -3.8130   -0.7312 C   0  0  0  0  0  0  0  0  0  0  0  0
   -2.8839   -2.3954   -0.2724 C   0  0  0  0  0  0  0  0  0  0  0  0
   -3.1816   -2.2862    1.2048 C   0  0  0  0  0  0  0  0  0  0  0  0
   -3.8497   -1.5387   -1.0614 C   0  0  0  0  0  0  0  0  0  0  0  0
   -3.7280   -0.1477   -0.5618 C   0  0  0  0  0  0  0  0  0  0  0  0
   -4.8587    0.5119   -0.6265 N   0  0  0  0  0  0  0  0  0  0  0  0
   -5.1395    1.8297   -0.2538 N   0  0  0  0  0  0  0  0  0  0  0  0
   -4.2563    2.8483    0.2316 C   0  0  0  0  0  0  0  0  0  0  0  0
   -4.6846    3.9927    0.4181 O   0  0  0  0  0  0  0  0  0  0  0  0
   -2.8284    2.7006    0.5539 C   0  0  0  0  0  0  0  0  0  0  0  0
   -2.2354    3.8200    1.0530 C   0  0  0  0  0  0  0  0  0  0  0  0
   -0.8934    3.7864    1.3909 C   0  0  0  0  0  0  0  0  0  0  0  0
   -0.1642    2.6149    1.2191 C   0  0  0  0  0  0  0  0  0  0  0  0
   -0.7381    1.4670    0.7161 C   0  0  0  0  0  0  0  0  0  0  0  0
   -2.0847    1.5387    0.3886 C   0  0  0  0  0  0  0  0  0  0  0  0
   -2.4326    0.3004   -0.0834 C   0  0  0  0  0  0  0  0  0  0  0  0
   -1.3195   -0.4876   -0.0367 C   0  0  0  0  0  0  0  0  0  0  0  0
   -0.2878    0.2238    0.4501 N   0  0  0  0  0  0  0  0  0  0  0  0
    1.0673   -0.1981    0.6689 C   0  0  0  0  0  0  0  0  0  0  0  0
    1.9489    0.0344   -0.5336 C   0  0  0  0  0  0  0  0  0  0  0  0
    3.3052   -0.4071   -0.2552 N   0  0  0  0  0  0  0  0  0  0  0  0
    3.8673    0.4793    0.7404 C   0  0  0  0  0  0  0  0  0  0  0  0
    5.1567    1.0973    0.2592 C   0  0  0  0  0  0  0  0  0  0  0  0
    6.1090   -0.0630   -0.0558 C   0  0  0  0  0  0  0  0  0  0  0  0
    5.5237   -0.8122   -1.2373 C   0  0  0  0  0  0  0  0  0  0  0  0
    4.0916   -0.4567   -1.4774 C   0  0  0  0  0  0  0  0  0  0  0  0
   -1.4736   -1.8951   -0.5051 C   0  0  0  0  0  0  0  0  0  0  0  0
   -2.4831   -3.9760   -1.7049 H   0  0  0  0  0  0  0  0  0  0  0  0
   -4.0661   -4.0946   -0.7502 H   0  0  0  0  0  0  0  0  0  0  0  0
   -2.5366   -4.4514    0.0744 H   0  0  0  0  0  0  0  0  0  0  0  0
   -2.9295   -3.2563    1.6761 H   0  0  0  0  0  0  0  0  0  0  0  0
   -2.6192   -1.5032    1.7179 H   0  0  0  0  0  0  0  0  0  0  0  0
   -4.2851   -2.1475    1.3805 H   0  0  0  0  0  0  0  0  0  0  0  0
   -3.4615   -1.5084   -2.1208 H   0  0  0  0  0  0  0  0  0  0  0  0
   -4.8726   -1.9230   -1.0158 H   0  0  0  0  0  0  0  0  0  0  0  0
   -6.1536    2.1369   -0.3375 H   0  0  0  0  0  0  0  0  0  0  0  0
   -2.8377    4.7112    1.1716 H   0  0  0  0  0  0  0  0  0  0  0  0
   -0.4026    4.6672    1.7900 H   0  0  0  0  0  0  0  0  0  0  0  0
    0.8731    2.5730    1.4753 H   0  0  0  0  0  0  0  0  0  0  0  0
    1.0419   -1.3069    0.8310 H   0  0  0  0  0  0  0  0  0  0  0  0
    1.5195    0.2248    1.5785 H   0  0  0  0  0  0  0  0  0  0  0  0
    1.5893   -0.4701   -1.4285 H   0  0  0  0  0  0  0  0  0  0  0  0
    2.0253    1.1556   -0.6528 H   0  0  0  0  0  0  0  0  0  0  0  0
    4.1453   -0.1782    1.6099 H   0  0  0  0  0  0  0  0  0  0  0  0
    3.1748    1.2819    1.0441 H   0  0  0  0  0  0  0  0  0  0  0  0
    5.5989    1.7491    1.0333 H   0  0  0  0  0  0  0  0  0  0  0  0
    4.9572    1.6364   -0.6811 H   0  0  0  0  0  0  0  0  0  0  0  0
    6.1026   -0.7138    0.8420 H   0  0  0  0  0  0  0  0  0  0  0  0
    7.1328    0.2827   -0.2315 H   0  0  0  0  0  0  0  0  0  0  0  0
    6.1008   -0.4677   -2.1356 H   0  0  0  0  0  0  0  0  0  0  0  0
    5.6676   -1.8971   -1.1734 H   0  0  0  0  0  0  0  0  0  0  0  0
    3.9906    0.4874   -2.0587 H   0  0  0  0  0  0  0  0  0  0  0  0
    3.6499   -1.2569   -2.1073 H   0  0  0  0  0  0  0  0  0  0  0  0
   -1.1637   -1.9544   -1.5630 H   0  0  0  0  0  0  0  0  0  0  0  0
   -0.8137   -2.5451    0.1335 H   0  0  0  0  0  0  0  0  0  0  0  0
  1  2  1  0
  2  3  1  0
  2  4  1  0
  4  5  1  0
  5  6  2  0
  6  7  1  0
  7  8  1  0
  8  9  2  0
  8 10  1  0
 10 11  2  0
 11 12  1  0
 12 13  2  0
 13 14  1  0
 14 15  2  0
 15 16  1  0
 16 17  2  0
 17 18  1  0
 18 19  1  0
 19 20  1  0
 20 21  1  0
 21 22  1  0
 22 23  1  0
 23 24  1  0
 24 25  1  0
 25 26  1  0
 17 27  1  0
 27  2  1  0
 16  5  1  0
 26 21  1  0
 15 10  1  0
 18 14  1  0
  1 28  1  0
  1 29  1  0
  1 30  1  0
  3 31  1  0
  3 32  1  0
  3 33  1  0
  4 34  1  0
  4 35  1  0
  7 36  1  0
 11 37  1  0
 12 38  1  0
 13 39  1  0
 19 40  1  0
 19 41  1  0
 20 42  1  0
 20 43  1  0
 22 44  1  0
 22 45  1  0
 23 46  1  0
 23 47  1  0
 24 48  1  0
 24 49  1  0
 25 50  1  0
 25 51  1  0
 26 52  1  0
 26 53  1  0
 27 54  1  0
 27 55  1  0
M  END
$$$$
