
     RDKit          3D

 38 41  0  0  0  0  0  0  0  0999 V2000
    6.6938   -0.9748   -1.9073 N   0  0  0  0  0  0  0  0  0  0  0  0
    5.6256   -0.5762   -1.8968 C   0  0  0  0  0  0  0  0  0  0  0  0
    4.2209   -0.0637   -1.8682 C   0  0  0  0  0  0  0  0  0  0  0  0
    3.7431    0.5240   -3.0133 C   0  0  0  0  0  0  0  0  0  0  0  0
    2.0427    0.9787   -2.5853 S   0  0  0  0  0  0  0  0  0  0  0  0
    2.1297    0.3456   -0.9333 C   0  0  0  0  0  0  0  0  0  0  0  0
    1.0389    0.3687    0.0075 N   0  0  0  0  0  0  0  0  0  0  0  0
    0.0743   -0.6904   -0.0263 C   0  0  0  0  0  0  0  0  0  0  0  0
    0.2822   -1.5609   -0.9553 O   0  0  0  0  0  0  0  0  0  0  0  0
   -1.0626   -0.8599    0.8623 C   0  0  0  0  0  0  0  0  0  0  0  0
   -2.3998   -0.6658    0.3206 C   0  0  0  0  0  0  0  0  0  0  0  0
   -3.1141   -1.7736   -0.1611 C   0  0  0  0  0  0  0  0  0  0  0  0
   -4.3693   -1.6449   -0.6846 C   0  0  0  0  0  0  0  0  0  0  0  0
   -4.9323   -0.3731   -0.7290 C   0  0  0  0  0  0  0  0  0  0  0  0
   -4.2389    0.6855   -0.2627 C   0  0  0  0  0  0  0  0  0  0  0  0
   -4.8149    1.9176   -0.2908 N   0  0  0  0  0  0  0  0  0  0  0  0
   -4.2118    3.0112    0.1697 C   0  0  0  0  0  0  0  0  0  0  0  0
   -2.9395    2.9416    0.7094 C   0  0  0  0  0  0  0  0  0  0  0  0
   -2.3261    1.7190    0.7528 C   0  0  0  0  0  0  0  0  0  0  0  0
   -2.9701    0.6089    0.2731 C   0  0  0  0  0  0  0  0  0  0  0  0
    3.3774   -0.1440   -0.8110 C   0  0  0  0  0  0  0  0  0  0  0  0
    3.8192   -0.7005    0.5081 C   0  0  0  0  0  0  0  0  0  0  0  0
    5.0088   -1.2202    0.7621 N   0  0  0  0  0  0  0  0  0  0  0  0
    5.1012   -1.5722    2.0401 N   0  0  0  0  0  0  0  0  0  0  0  0
    3.9252   -1.2726    2.6441 C   0  0  0  0  0  0  0  0  0  0  0  0
    3.1530   -0.7333    1.6595 N   0  0  0  0  0  0  0  0  0  0  0  0
    4.2135    0.7053   -3.9748 H   0  0  0  0  0  0  0  0  0  0  0  0
    0.9654    1.1511    0.6709 H   0  0  0  0  0  0  0  0  0  0  0  0
   -0.9005   -0.2590    1.8166 H   0  0  0  0  0  0  0  0  0  0  0  0
   -1.0369   -1.9227    1.2699 H   0  0  0  0  0  0  0  0  0  0  0  0
   -2.6572   -2.7409   -0.1145 H   0  0  0  0  0  0  0  0  0  0  0  0
   -4.9045   -2.5012   -1.0514 H   0  0  0  0  0  0  0  0  0  0  0  0
   -5.9330   -0.2964   -1.1440 H   0  0  0  0  0  0  0  0  0  0  0  0
   -4.6722    3.9782    0.1476 H   0  0  0  0  0  0  0  0  0  0  0  0
   -2.4301    3.8383    1.1027 H   0  0  0  0  0  0  0  0  0  0  0  0
   -1.3358    1.6020    1.1570 H   0  0  0  0  0  0  0  0  0  0  0  0
    3.6375   -1.4115    3.6741 H   0  0  0  0  0  0  0  0  0  0  0  0
    2.1976   -0.4180    1.8617 H   0  0  0  0  0  0  0  0  0  0  0  0
  1  2  3  0
  2  3  1  0
  3  4  2  0
  4  5  1  0
  5  6  1  0
  6  7  1  0
  7  8  1  0
  8  9  2  0
  8 10  1  0
 10 11  1  0
 11 12  2  0
 12 13  1  0
 13 14  2  0
 14 15  1  0
 15 16  2  0
 16 17  1  0
 17 18  2  0
 18 19  1  0
 19 20  2  0
  6 21  2  0
 21 22  1  0
 22 23  2  0
 23 24  1  0
 24 25  2  0
 25 26  1  0
 21  3  1  0
 26 22  1  0
 20 11  1  0
 20 15  1  0
  4 27  1  0
  7 28  1  0
 10 29  1  0
 10 30  1  0
 12 31  1  0
 13 32  1  0
 14 33  1  0
 17 34  1  0
 18 35  1  0
 19 36  1  0
 25 37  1  0
 26 38  1  0
M  END
$$$$
