
     RDKit          3D

 11 11  0  0  0  0  0  0  0  0999 V2000
   -2.3837   -1.2055   -0.0716 O   0  0  0  0  0  0  0  0  0  0  0  0
   -1.2805   -0.5683   -0.0709 C   0  0  0  0  0  0  0  0  0  0  0  0
   -1.1671    0.7716   -0.0065 N   0  0  0  0  0  0  0  0  0  0  0  0
    0.1400    1.0858   -0.0279 C   0  0  0  0  0  0  0  0  0  0  0  0
    0.8649   -0.0816   -0.1074 C   0  0  0  0  0  0  0  0  0  0  0  0
    2.2669   -0.1737   -0.1520 O   0  0  0  0  0  0  0  0  0  0  0  0
   -0.0356   -1.0722   -0.1318 N   0  0  0  0  0  0  0  0  0  0  0  0
   -1.9845    1.4281    0.0499 H   0  0  0  0  0  0  0  0  0  0  0  0
    0.5473    2.0746    0.0104 H   0  0  0  0  0  0  0  0  0  0  0  0
    2.8128   -0.1734    0.6979 H   0  0  0  0  0  0  0  0  0  0  0  0
    0.2195   -2.0855   -0.1901 H   0  0  0  0  0  0  0  0  0  0  0  0
  1  2  2  0
  2  3  1  0
  3  4  1  0
  4  5  2  0
  5  6  1  0
  5  7  1  0
  7  2  1  0
  3  8  1  0
  4  9  1  0
  6 10  1  0
  7 11  1  0
M  END
$$$$
