
     RDKit          3D

 28 30  0  0  0  0  0  0  0  0999 V2000
   -2.5102    2.5383    0.3574 C   0  0  0  0  0  0  0  0  0  0  0  0
   -2.1648    1.1302    0.2903 N   0  0  0  0  0  0  0  0  0  0  0  0
   -3.0420    0.1415    0.2828 N   0  0  0  0  0  0  0  0  0  0  0  0
   -2.4207   -1.0429    0.2146 C   0  0  0  0  0  0  0  0  0  0  0  0
   -2.9566   -2.4294    0.1796 C   0  0  0  0  0  0  0  0  0  0  0  0
   -1.0834   -0.7169    0.1800 C   0  0  0  0  0  0  0  0  0  0  0  0
   -0.9120    0.6514    0.2272 C   0  0  0  0  0  0  0  0  0  0  0  0
    0.3219    1.2322    0.2061 N   0  0  0  0  0  0  0  0  0  0  0  0
    0.3253    2.6058    0.2595 O   0  0  0  0  0  0  0  0  0  0  0  0
    1.4339    0.4588    0.1366 C   0  0  0  0  0  0  0  0  0  0  0  0
    1.3203   -0.9314    0.0864 C   0  0  0  0  0  0  0  0  0  0  0  0
    2.4785   -1.6719    0.0165 C   0  0  0  0  0  0  0  0  0  0  0  0
    3.6872   -1.0089   -0.0005 C   0  0  0  0  0  0  0  0  0  0  0  0
    5.1165   -1.9920   -0.0895 Cl  0  0  0  0  0  0  0  0  0  0  0  0
    3.8277    0.3524    0.0476 C   0  0  0  0  0  0  0  0  0  0  0  0
    2.6552    1.1002    0.1183 C   0  0  0  0  0  0  0  0  0  0  0  0
    0.0611   -1.4942    0.1091 C   0  0  0  0  0  0  0  0  0  0  0  0
    0.0198   -2.7527    0.0615 O   0  0  0  0  0  0  0  0  0  0  0  0
   -2.4311    2.9508   -0.6827 H   0  0  0  0  0  0  0  0  0  0  0  0
   -1.8755    3.1264    1.0250 H   0  0  0  0  0  0  0  0  0  0  0  0
   -3.5692    2.6844    0.6450 H   0  0  0  0  0  0  0  0  0  0  0  0
   -2.2434   -3.1264    0.6366 H   0  0  0  0  0  0  0  0  0  0  0  0
   -3.9385   -2.4859    0.6726 H   0  0  0  0  0  0  0  0  0  0  0  0
   -3.0486   -2.6937   -0.9056 H   0  0  0  0  0  0  0  0  0  0  0  0
    0.9907    3.1425   -0.2615 H   0  0  0  0  0  0  0  0  0  0  0  0
    2.4122   -2.7687   -0.0239 H   0  0  0  0  0  0  0  0  0  0  0  0
    4.8039    0.8174    0.0311 H   0  0  0  0  0  0  0  0  0  0  0  0
    2.7417    2.1830    0.1574 H   0  0  0  0  0  0  0  0  0  0  0  0
  1  2  1  0
  2  3  1  0
  3  4  2  0
  4  5  1  0
  4  6  1  0
  6  7  2  0
  7  8  1  0
  8  9  1  0
  8 10  1  0
 10 11  2  0
 11 12  1  0
 12 13  2  0
 13 14  1  0
 13 15  1  0
 15 16  2  0
 11 17  1  0
 17 18  2  0
  7  2  1  0
 16 10  1  0
 17  6  1  0
  1 19  1  0
  1 20  1  0
  1 21  1  0
  5 22  1  0
  5 23  1  0
  5 24  1  0
  9 25  1  0
 12 26  1  0
 15 27  1  0
 16 28  1  0
M  END
$$$$
