
     RDKit          3D

 80 85  0  0  0  0  0  0  0  0999 V2000
   -5.9761   -2.2568   -2.8681 N   0  0  0  0  0  0  0  0  0  0  0  0
   -4.7734   -2.1498   -2.1376 C   0  0  0  0  0  0  0  0  0  0  0  0
   -3.6775   -2.8861   -2.5323 N   0  0  0  0  0  0  0  0  0  0  0  0
   -2.5426   -2.7607   -1.8451 C   0  0  0  0  0  0  0  0  0  0  0  0
   -2.3857   -1.9764   -0.8145 N   0  0  0  0  0  0  0  0  0  0  0  0
   -3.4479   -1.2252   -0.3919 C   0  0  0  0  0  0  0  0  0  0  0  0
   -4.6654   -1.3098   -1.0588 C   0  0  0  0  0  0  0  0  0  0  0  0
   -5.5094   -0.4224   -0.4333 C   0  0  0  0  0  0  0  0  0  0  0  0
   -6.9478   -0.2390   -0.7016 C   0  0  0  0  0  0  0  0  0  0  0  0
   -7.7543   -1.3500   -0.7584 C   0  0  0  0  0  0  0  0  0  0  0  0
   -9.1349   -1.3398   -0.9566 C   0  0  0  0  0  0  0  0  0  0  0  0
   -9.8202   -2.5579   -1.0012 O   0  0  0  0  0  0  0  0  0  0  0  0
   -9.7155   -0.1235   -1.0978 C   0  0  0  0  0  0  0  0  0  0  0  0
   -8.9348    1.0202   -1.0430 C   0  0  0  0  0  0  0  0  0  0  0  0
   -9.5887    2.2006   -1.1829 F   0  0  0  0  0  0  0  0  0  0  0  0
   -7.5614    0.9719   -0.8459 C   0  0  0  0  0  0  0  0  0  0  0  0
   -4.8165    0.1782    0.5572 N   0  0  0  0  0  0  0  0  0  0  0  0
   -3.5352   -0.3425    0.5675 N   0  0  0  0  0  0  0  0  0  0  0  0
   -2.6790   -0.1244    1.6853 C   0  0  0  0  0  0  0  0  0  0  0  0
   -1.2535   -0.1881    1.4686 C   0  0  0  0  0  0  0  0  0  0  0  0
   -0.7201   -1.2732    2.1579 N   0  0  0  0  0  0  0  0  0  0  0  0
    0.5792   -1.5918    2.1630 C   0  0  0  0  0  0  0  0  0  0  0  0
    1.0206   -2.6749    2.8632 C   0  0  0  0  0  0  0  0  0  0  0  0
    2.3976   -3.0069    2.8716 C   0  0  0  0  0  0  0  0  0  0  0  0
    3.1607   -2.1581    2.1402 C   0  0  0  0  0  0  0  0  0  0  0  0
    2.7641   -1.0600    1.4248 C   0  0  0  0  0  0  0  0  0  0  0  0
    3.7303   -0.1973    0.8753 C   0  0  0  0  0  0  0  0  0  0  0  0
    4.6004    0.5693    0.3619 C   0  0  0  0  0  0  0  0  0  0  0  0
    5.5797    1.4238   -0.1941 C   0  0  0  0  0  0  0  0  0  0  0  0
    6.7459    1.4267    0.5811 O   0  0  0  0  0  0  0  0  0  0  0  0
    7.5383    0.3298    0.5139 C   0  0  0  0  0  0  0  0  0  0  0  0
    6.9807   -1.0142    0.6976 C   0  0  0  0  0  0  0  0  0  0  0  0
    7.8287   -2.0323    0.6205 O   0  0  0  0  0  0  0  0  0  0  0  0
    8.6068   -2.5120   -0.2848 C   0  0  0  0  0  0  0  0  0  0  0  0
    9.7847   -1.7902   -0.8444 C   0  0  0  0  0  0  0  0  0  0  0  0
   10.4373   -2.6093   -1.8206 O   0  0  0  0  0  0  0  0  0  0  0  0
    1.3842   -0.7703    1.4311 C   0  0  0  0  0  0  0  0  0  0  0  0
    0.9036    0.3000    0.7395 C   0  0  0  0  0  0  0  0  0  0  0  0
    1.6987    1.0092    0.0996 O   0  0  0  0  0  0  0  0  0  0  0  0
   -0.4550    0.5999    0.7525 N   0  0  0  0  0  0  0  0  0  0  0  0
   -0.9508    1.5223   -0.1787 C   0  0  0  0  0  0  0  0  0  0  0  0
   -0.5666    2.9139   -0.2122 C   0  0  0  0  0  0  0  0  0  0  0  0
    0.2023    3.2953   -1.3516 C   0  0  0  0  0  0  0  0  0  0  0  0
    0.6275    4.5691   -1.5590 C   0  0  0  0  0  0  0  0  0  0  0  0
    0.3154    5.5318   -0.6506 C   0  0  0  0  0  0  0  0  0  0  0  0
   -0.4191    5.1872    0.4523 C   0  0  0  0  0  0  0  0  0  0  0  0
   -0.8802    3.8781    0.6985 C   0  0  0  0  0  0  0  0  0  0  0  0
   -1.6960    3.6122    1.8932 C   0  0  0  0  0  0  0  0  0  0  0  0
   -1.7368    4.8259    2.6174 F   0  0  0  0  0  0  0  0  0  0  0  0
   -1.1311    2.7026    2.7572 F   0  0  0  0  0  0  0  0  0  0  0  0
   -3.0291    3.3533    1.6259 F   0  0  0  0  0  0  0  0  0  0  0  0
   -6.2463   -1.5255   -3.5327 H   0  0  0  0  0  0  0  0  0  0  0  0
   -6.5736   -3.0899   -2.7183 H   0  0  0  0  0  0  0  0  0  0  0  0
   -1.6711   -3.3590   -2.1927 H   0  0  0  0  0  0  0  0  0  0  0  0
   -7.3202   -2.3539   -0.5893 H   0  0  0  0  0  0  0  0  0  0  0  0
   -9.3233   -3.4468   -1.1250 H   0  0  0  0  0  0  0  0  0  0  0  0
  -10.7703   -0.0521   -1.2430 H   0  0  0  0  0  0  0  0  0  0  0  0
   -6.9659    1.8864   -0.8087 H   0  0  0  0  0  0  0  0  0  0  0  0
   -2.9801    0.8280    2.2428 H   0  0  0  0  0  0  0  0  0  0  0  0
   -2.9950   -0.8989    2.4530 H   0  0  0  0  0  0  0  0  0  0  0  0
    0.3686   -3.3246    3.4425 H   0  0  0  0  0  0  0  0  0  0  0  0
    2.7203   -3.8360    3.4008 H   0  0  0  0  0  0  0  0  0  0  0  0
    4.2673   -2.3314    2.1117 H   0  0  0  0  0  0  0  0  0  0  0  0
    5.1754    2.4791   -0.1066 H   0  0  0  0  0  0  0  0  0  0  0  0
    5.7848    1.2865   -1.2813 H   0  0  0  0  0  0  0  0  0  0  0  0
    8.3055    0.4655    1.3604 H   0  0  0  0  0  0  0  0  0  0  0  0
    8.2193    0.4560   -0.4018 H   0  0  0  0  0  0  0  0  0  0  0  0
    6.1628   -1.2348   -0.0785 H   0  0  0  0  0  0  0  0  0  0  0  0
    6.4850   -1.0480    1.7160 H   0  0  0  0  0  0  0  0  0  0  0  0
    7.9682   -2.9306   -1.1543 H   0  0  0  0  0  0  0  0  0  0  0  0
    9.0539   -3.5112    0.0820 H   0  0  0  0  0  0  0  0  0  0  0  0
    9.4850   -0.8952   -1.3944 H   0  0  0  0  0  0  0  0  0  0  0  0
   10.5659   -1.5606   -0.0931 H   0  0  0  0  0  0  0  0  0  0  0  0
   10.9416   -1.9869   -2.4029 H   0  0  0  0  0  0  0  0  0  0  0  0
   -2.1012    1.5367   -0.1502 H   0  0  0  0  0  0  0  0  0  0  0  0
   -0.8240    1.0336   -1.1930 H   0  0  0  0  0  0  0  0  0  0  0  0
    0.4582    2.5508   -2.0739 H   0  0  0  0  0  0  0  0  0  0  0  0
    1.2129    4.8351   -2.4669 H   0  0  0  0  0  0  0  0  0  0  0  0
    0.6529    6.5479   -0.8156 H   0  0  0  0  0  0  0  0  0  0  0  0
   -0.6382    6.0015    1.1697 H   0  0  0  0  0  0  0  0  0  0  0  0
  1  2  1  0
  2  3  2  0
  3  4  1  0
  4  5  2  0
  5  6  1  0
  6  7  2  0
  7  8  1  0
  8  9  1  0
  9 10  2  0
 10 11  1  0
 11 12  1  0
 11 13  2  0
 13 14  1  0
 14 15  1  0
 14 16  2  0
  8 17  2  0
 17 18  1  0
 18 19  1  0
 19 20  1  0
 20 21  2  0
 21 22  1  0
 22 23  2  0
 23 24  1  0
 24 25  2  0
 25 26  1  0
 26 27  1  0
 27 28  3  0
 28 29  1  0
 29 30  1  0
 30 31  1  0
 31 32  1  0
 32 33  1  0
 33 34  1  0
 34 35  1  0
 35 36  1  0
 26 37  2  0
 37 38  1  0
 38 39  2  0
 38 40  1  0
 40 41  1  0
 41 42  1  0
 42 43  2  0
 43 44  1  0
 44 45  2  0
 45 46  1  0
 46 47  2  0
 47 48  1  0
 48 49  1  0
 48 50  1  0
 48 51  1  0
  7  2  1  0
 16  9  1  0
 40 20  1  0
 47 42  1  0
 18  6  1  0
 37 22  1  0
  1 52  1  0
  1 53  1  0
  4 54  1  0
 10 55  1  0
 12 56  1  0
 13 57  1  0
 16 58  1  0
 19 59  1  0
 19 60  1  0
 23 61  1  0
 24 62  1  0
 25 63  1  0
 29 64  1  0
 29 65  1  0
 31 66  1  0
 31 67  1  0
 32 68  1  0
 32 69  1  0
 34 70  1  0
 34 71  1  0
 35 72  1  0
 35 73  1  0
 36 74  1  0
 41 75  1  0
 41 76  1  0
 43 77  1  0
 44 78  1  0
 45 79  1  0
 46 80  1  0
M  END
$$$$
