
     RDKit          3D

 92 97  0  0  0  0  0  0  0  0999 V2000
    9.1661   -2.6956    4.6432 C   0  0  0  0  0  0  0  0  0  0  0  0
    8.2598   -2.2273    3.6667 O   0  0  0  0  0  0  0  0  0  0  0  0
    8.7899   -1.6947    2.5001 C   0  0  0  0  0  0  0  0  0  0  0  0
   10.1311   -1.5987    2.2634 C   0  0  0  0  0  0  0  0  0  0  0  0
   10.6510   -1.0687    1.1041 C   0  0  0  0  0  0  0  0  0  0  0  0
    9.7978   -0.5999    0.1048 C   0  0  0  0  0  0  0  0  0  0  0  0
   10.3921   -0.0228   -1.0988 C   0  0  0  0  0  0  0  0  0  0  0  0
   11.6233    0.2744   -1.1237 O   0  0  0  0  0  0  0  0  0  0  0  0
    9.6133    0.2106   -2.2476 N   0  0  0  0  0  0  0  0  0  0  0  0
   10.1066    0.7869   -3.4620 C   0  0  0  0  0  0  0  0  0  0  0  0
   10.5880    2.2012   -3.3586 C   0  0  0  0  0  0  0  0  0  0  0  0
   11.6122    2.3915   -2.4883 O   0  0  0  0  0  0  0  0  0  0  0  0
    8.4487   -0.6951    0.3391 C   0  0  0  0  0  0  0  0  0  0  0  0
    7.9091   -1.2249    1.5005 C   0  0  0  0  0  0  0  0  0  0  0  0
    6.5390   -1.3135    1.7803 N   0  0  0  0  0  0  0  0  0  0  0  0
    5.4326   -0.9909    0.9501 C   0  0  0  0  0  0  0  0  0  0  0  0
    5.6117   -0.6640   -0.3392 N   0  0  0  0  0  0  0  0  0  0  0  0
    4.6075   -0.3457   -1.1663 C   0  0  0  0  0  0  0  0  0  0  0  0
    3.3430   -0.3686   -0.6220 C   0  0  0  0  0  0  0  0  0  0  0  0
    3.0807   -0.6973    0.7045 C   0  0  0  0  0  0  0  0  0  0  0  0
    1.9038   -0.7277    1.2523 O   0  0  0  0  0  0  0  0  0  0  0  0
    0.6385   -0.6391    1.3716 C   0  0  0  0  0  0  0  0  0  0  0  0
    0.0766    0.2932    2.2651 C   0  0  0  0  0  0  0  0  0  0  0  0
   -1.2827    0.4143    2.4303 C   0  0  0  0  0  0  0  0  0  0  0  0
   -2.1486   -0.3817    1.7190 C   0  0  0  0  0  0  0  0  0  0  0  0
   -3.5282   -0.2759    1.9129 N   0  0  0  0  0  0  0  0  0  0  0  0
   -4.3965    0.5304    1.1619 C   0  0  0  0  0  0  0  0  0  0  0  0
   -3.9789    1.2165    0.2345 O   0  0  0  0  0  0  0  0  0  0  0  0
   -5.8051    0.5932    1.4412 N   0  0  0  0  0  0  0  0  0  0  0  0
   -6.7214    1.3702    0.7034 C   0  0  0  0  0  0  0  0  0  0  0  0
   -7.1331    2.6631    0.8769 C   0  0  0  0  0  0  0  0  0  0  0  0
   -8.0612    2.9929   -0.1148 C   0  0  0  0  0  0  0  0  0  0  0  0
   -8.7750    4.2767   -0.3301 C   0  0  0  0  0  0  0  0  0  0  0  0
  -10.0655    4.2680    0.4733 C   0  0  0  0  0  0  0  0  0  0  0  0
   -9.1366    4.4317   -1.7898 C   0  0  0  0  0  0  0  0  0  0  0  0
   -7.9195    5.4164    0.1521 C   0  0  0  0  0  0  0  0  0  0  0  0
   -8.1692    1.8576   -0.8578 N   0  0  0  0  0  0  0  0  0  0  0  0
   -7.3903    0.9051   -0.3870 N   0  0  0  0  0  0  0  0  0  0  0  0
   -7.2514   -0.4164   -0.9099 C   0  0  0  0  0  0  0  0  0  0  0  0
   -7.8321   -1.4832   -0.2183 C   0  0  0  0  0  0  0  0  0  0  0  0
   -7.7283   -2.7675   -0.6635 C   0  0  0  0  0  0  0  0  0  0  0  0
   -7.0261   -3.0286   -1.8378 C   0  0  0  0  0  0  0  0  0  0  0  0
   -6.9320   -4.4407   -2.2956 C   0  0  0  0  0  0  0  0  0  0  0  0
   -6.4606   -1.9672   -2.5065 C   0  0  0  0  0  0  0  0  0  0  0  0
   -6.5542   -0.6538   -2.0711 C   0  0  0  0  0  0  0  0  0  0  0  0
   -1.6247   -1.2962    0.8408 C   0  0  0  0  0  0  0  0  0  0  0  0
   -2.5089   -2.0812    0.1341 C   0  0  0  0  0  0  0  0  0  0  0  0
   -1.9867   -3.0099   -0.7616 C   0  0  0  0  0  0  0  0  0  0  0  0
   -0.6222   -3.1307   -0.9280 C   0  0  0  0  0  0  0  0  0  0  0  0
    0.2706   -2.3455   -0.2212 C   0  0  0  0  0  0  0  0  0  0  0  0
   -0.2586   -1.4228    0.6696 C   0  0  0  0  0  0  0  0  0  0  0  0
    4.1913   -1.0013    1.4399 N   0  0  0  0  0  0  0  0  0  0  0  0
    9.8563   -1.9270    5.0276 H   0  0  0  0  0  0  0  0  0  0  0  0
    8.5490   -3.1754    5.4411 H   0  0  0  0  0  0  0  0  0  0  0  0
    9.8155   -3.5027    4.2203 H   0  0  0  0  0  0  0  0  0  0  0  0
   10.8127   -1.9640    3.0434 H   0  0  0  0  0  0  0  0  0  0  0  0
   11.7283   -0.9929    0.9128 H   0  0  0  0  0  0  0  0  0  0  0  0
    8.5794   -0.0714   -2.1979 H   0  0  0  0  0  0  0  0  0  0  0  0
   10.9433    0.1346   -3.8199 H   0  0  0  0  0  0  0  0  0  0  0  0
    9.2972    0.7855   -4.2317 H   0  0  0  0  0  0  0  0  0  0  0  0
    9.6876    2.8256   -3.0896 H   0  0  0  0  0  0  0  0  0  0  0  0
   10.9261    2.4812   -4.4021 H   0  0  0  0  0  0  0  0  0  0  0  0
   11.4514    2.9867   -1.7334 H   0  0  0  0  0  0  0  0  0  0  0  0
    7.7951   -0.3216   -0.4354 H   0  0  0  0  0  0  0  0  0  0  0  0
    6.2382   -1.6735    2.7438 H   0  0  0  0  0  0  0  0  0  0  0  0
    4.8357   -0.0942   -2.1859 H   0  0  0  0  0  0  0  0  0  0  0  0
    2.5153   -0.1131   -1.2795 H   0  0  0  0  0  0  0  0  0  0  0  0
    0.7076    0.9525    2.8555 H   0  0  0  0  0  0  0  0  0  0  0  0
   -1.7179    1.1434    3.1256 H   0  0  0  0  0  0  0  0  0  0  0  0
   -3.9779   -0.8460    2.6918 H   0  0  0  0  0  0  0  0  0  0  0  0
   -6.1457   -0.0011    2.2478 H   0  0  0  0  0  0  0  0  0  0  0  0
   -6.8216    3.3443    1.6344 H   0  0  0  0  0  0  0  0  0  0  0  0
  -10.7637    5.0549    0.1257 H   0  0  0  0  0  0  0  0  0  0  0  0
   -9.8734    4.4269    1.5341 H   0  0  0  0  0  0  0  0  0  0  0  0
  -10.5248    3.2564    0.2751 H   0  0  0  0  0  0  0  0  0  0  0  0
   -9.6951    3.5410   -2.1133 H   0  0  0  0  0  0  0  0  0  0  0  0
   -9.8088    5.3046   -1.8722 H   0  0  0  0  0  0  0  0  0  0  0  0
   -8.1968    4.5828   -2.3444 H   0  0  0  0  0  0  0  0  0  0  0  0
   -7.1101    5.6485   -0.5756 H   0  0  0  0  0  0  0  0  0  0  0  0
   -8.5207    6.3610    0.2102 H   0  0  0  0  0  0  0  0  0  0  0  0
   -7.5064    5.2263    1.1432 H   0  0  0  0  0  0  0  0  0  0  0  0
   -8.3664   -1.2241    0.6873 H   0  0  0  0  0  0  0  0  0  0  0  0
   -8.1983   -3.5561   -0.0849 H   0  0  0  0  0  0  0  0  0  0  0  0
   -7.0011   -4.5409   -3.3964 H   0  0  0  0  0  0  0  0  0  0  0  0
   -7.8107   -5.0222   -1.8983 H   0  0  0  0  0  0  0  0  0  0  0  0
   -6.0177   -4.9577   -1.9130 H   0  0  0  0  0  0  0  0  0  0  0  0
   -5.9136   -2.1721   -3.4202 H   0  0  0  0  0  0  0  0  0  0  0  0
   -6.1080    0.1680   -2.6018 H   0  0  0  0  0  0  0  0  0  0  0  0
   -3.5736   -1.9558    0.2944 H   0  0  0  0  0  0  0  0  0  0  0  0
   -2.6666   -3.6180   -1.3078 H   0  0  0  0  0  0  0  0  0  0  0  0
   -0.2396   -3.8723   -1.6402 H   0  0  0  0  0  0  0  0  0  0  0  0
    1.3337   -2.4391   -0.3502 H   0  0  0  0  0  0  0  0  0  0  0  0
  1  2  1  0
  2  3  1  0
  3  4  2  0
  4  5  1  0
  5  6  2  0
  6  7  1  0
  7  8  2  0
  7  9  1  0
  9 10  1  0
 10 11  1  0
 11 12  1  0
  6 13  1  0
 13 14  2  0
 14 15  1  0
 15 16  1  0
 16 17  2  0
 17 18  1  0
 18 19  2  0
 19 20  1  0
 20 21  1  0
 21 22  1  0
 22 23  2  0
 23 24  1  0
 24 25  2  0
 25 26  1  0
 26 27  1  0
 27 28  2  0
 27 29  1  0
 29 30  1  0
 30 31  2  0
 31 32  1  0
 32 33  1  0
 33 34  1  0
 33 35  1  0
 33 36  1  0
 32 37  2  0
 37 38  1  0
 38 39  1  0
 39 40  2  0
 40 41  1  0
 41 42  2  0
 42 43  1  0
 42 44  1  0
 44 45  2  0
 25 46  1  0
 46 47  2  0
 47 48  1  0
 48 49  2  0
 49 50  1  0
 50 51  2  0
 20 52  2  0
 14  3  1  0
 52 16  1  0
 51 22  1  0
 38 30  1  0
 45 39  1  0
 51 46  1  0
  1 53  1  0
  1 54  1  0
  1 55  1  0
  4 56  1  0
  5 57  1  0
  9 58  1  0
 10 59  1  0
 10 60  1  0
 11 61  1  0
 11 62  1  0
 12 63  1  0
 13 64  1  0
 15 65  1  0
 18 66  1  0
 19 67  1  0
 23 68  1  0
 24 69  1  0
 26 70  1  0
 29 71  1  0
 31 72  1  0
 34 73  1  0
 34 74  1  0
 34 75  1  0
 35 76  1  0
 35 77  1  0
 35 78  1  0
 36 79  1  0
 36 80  1  0
 36 81  1  0
 40 82  1  0
 41 83  1  0
 43 84  1  0
 43 85  1  0
 43 86  1  0
 44 87  1  0
 45 88  1  0
 47 89  1  0
 48 90  1  0
 49 91  1  0
 50 92  1  0
M  END
$$$$
