
     RDKit          3D

 29 30  0  0  0  0  0  0  0  0999 V2000
   -5.5499   -0.6411   -0.0889 N   0  0  0  0  0  0  0  0  0  0  0  0
   -4.3651   -0.0537    0.4281 C   0  0  0  0  0  0  0  0  0  0  0  0
   -4.3209    0.6346    1.4944 O   0  0  0  0  0  0  0  0  0  0  0  0
   -3.0777   -0.2186   -0.2723 C   0  0  0  0  0  0  0  0  0  0  0  0
   -1.9212    0.3123    0.1657 N   0  0  0  0  0  0  0  0  0  0  0  0
   -0.9476   -0.0238   -0.6961 N   0  0  0  0  0  0  0  0  0  0  0  0
   -1.4933   -0.7693   -1.6807 C   0  0  0  0  0  0  0  0  0  0  0  0
   -2.8123   -0.8850   -1.4104 N   0  0  0  0  0  0  0  0  0  0  0  0
    0.3771    0.4306   -0.4359 C   0  0  2  0  0  0  0  0  0  0  0  0
    1.3639   -0.3232   -1.0509 O   0  0  0  0  0  0  0  0  0  0  0  0
    2.5391    0.2262   -0.5335 C   0  0  2  0  0  0  0  0  0  0  0  0
    3.6682   -0.7785   -0.4823 C   0  0  0  0  0  0  0  0  0  0  0  0
    3.3300   -1.8643    0.3217 O   0  0  0  0  0  0  0  0  0  0  0  0
    2.2377    0.6772    0.8619 C   0  0  1  0  0  0  0  0  0  0  0  0
    2.1892    2.0774    0.8790 O   0  0  0  0  0  0  0  0  0  0  0  0
    0.8011    0.2118    1.0246 C   0  0  1  0  0  0  0  0  0  0  0  0
    0.0658    0.9650    1.9045 O   0  0  0  0  0  0  0  0  0  0  0  0
   -6.4295   -0.2014    0.2662 H   0  0  0  0  0  0  0  0  0  0  0  0
   -5.4357   -1.4347   -0.7566 H   0  0  0  0  0  0  0  0  0  0  0  0
   -0.8912   -1.1535   -2.4907 H   0  0  0  0  0  0  0  0  0  0  0  0
    0.5217    1.4767   -0.7464 H   0  0  0  0  0  0  0  0  0  0  0  0
    2.8081    1.0657   -1.2024 H   0  0  0  0  0  0  0  0  0  0  0  0
    4.5172   -0.2663    0.0144 H   0  0  0  0  0  0  0  0  0  0  0  0
    4.0385   -1.0931   -1.4725 H   0  0  0  0  0  0  0  0  0  0  0  0
    2.4258   -2.2341    0.1247 H   0  0  0  0  0  0  0  0  0  0  0  0
    2.9046    0.2533    1.6256 H   0  0  0  0  0  0  0  0  0  0  0  0
    2.9612    2.4218    0.3899 H   0  0  0  0  0  0  0  0  0  0  0  0
    0.7453   -0.8809    1.2028 H   0  0  0  0  0  0  0  0  0  0  0  0
   -0.2503    0.3274    2.6162 H   0  0  0  0  0  0  0  0  0  0  0  0
  1  2  1  0
  2  3  2  0
  2  4  1  0
  4  5  2  0
  5  6  1  0
  6  7  1  0
  7  8  2  0
  6  9  1  0
  9 10  1  0
 10 11  1  0
 11 12  1  0
 12 13  1  0
 11 14  1  0
 14 15  1  0
 14 16  1  0
 16 17  1  0
  8  4  1  0
 16  9  1  0
  1 18  1  0
  1 19  1  0
  7 20  1  0
  9 21  1  6
 11 22  1  6
 12 23  1  0
 12 24  1  0
 13 25  1  0
 14 26  1  1
 15 27  1  0
 16 28  1  1
 17 29  1  0
M  END
$$$$
