
     RDKit          3D

 51 54  0  0  0  0  0  0  0  0999 V2000
    2.1662   -1.3714    1.3548 O   0  0  0  0  0  0  0  0  0  0  0  0
    2.1264   -0.3026    0.6861 C   0  0  0  0  0  0  0  0  0  0  0  0
    0.8896    0.0118    0.1283 O   0  0  0  0  0  0  0  0  0  0  0  0
   -0.2247   -0.7977    0.2974 C   0  0  2  0  0  0  0  0  0  0  0  0
   -0.6971   -1.4279   -1.0056 C   0  0  0  0  0  0  0  0  0  0  0  0
   -1.5359   -2.5732   -0.6004 C   0  0  0  0  0  0  0  0  0  0  0  0
   -1.4864   -3.7362   -1.3091 C   0  0  0  0  0  0  0  0  0  0  0  0
   -0.6774   -3.9274   -2.4224 O   0  0  0  0  0  0  0  0  0  0  0  0
   -2.2804   -4.8235   -0.9260 C   0  0  0  0  0  0  0  0  0  0  0  0
   -3.0997   -4.6869    0.1697 C   0  0  0  0  0  0  0  0  0  0  0  0
   -3.8793   -5.7744    0.5349 O   0  0  0  0  0  0  0  0  0  0  0  0
   -3.1204   -3.4921    0.8602 C   0  0  0  0  0  0  0  0  0  0  0  0
   -2.3440   -2.4089    0.4968 C   0  0  0  0  0  0  0  0  0  0  0  0
   -2.3658   -1.1889    1.2026 O   0  0  0  0  0  0  0  0  0  0  0  0
   -1.3727   -0.1801    1.0001 C   0  0  2  0  0  0  0  0  0  0  0  0
   -2.0231    0.9453    0.3361 C   0  0  0  0  0  0  0  0  0  0  0  0
   -3.2911    1.3066    0.7905 C   0  0  0  0  0  0  0  0  0  0  0  0
   -3.9789    2.3604    0.2269 C   0  0  0  0  0  0  0  0  0  0  0  0
   -5.2464    2.7403    0.6635 O   0  0  0  0  0  0  0  0  0  0  0  0
   -3.4272    3.0824   -0.8009 C   0  0  0  0  0  0  0  0  0  0  0  0
   -4.1216    4.1394   -1.3634 O   0  0  0  0  0  0  0  0  0  0  0  0
   -2.1764    2.7478   -1.2695 C   0  0  0  0  0  0  0  0  0  0  0  0
   -1.5988    3.4698   -2.3136 O   0  0  0  0  0  0  0  0  0  0  0  0
   -1.4985    1.6890   -0.6950 C   0  0  0  0  0  0  0  0  0  0  0  0
    3.3014    0.5321    0.5193 C   0  0  0  0  0  0  0  0  0  0  0  0
    3.3015    1.7040   -0.2011 C   0  0  0  0  0  0  0  0  0  0  0  0
    4.4450    2.4634   -0.3308 C   0  0  0  0  0  0  0  0  0  0  0  0
    4.3888    3.6293   -1.0641 O   0  0  0  0  0  0  0  0  0  0  0  0
    5.6028    2.0375    0.2723 C   0  0  0  0  0  0  0  0  0  0  0  0
    6.7830    2.7846    0.1609 O   0  0  0  0  0  0  0  0  0  0  0  0
    5.6305    0.8694    0.9985 C   0  0  0  0  0  0  0  0  0  0  0  0
    6.8290    0.4609    1.6029 O   0  0  0  0  0  0  0  0  0  0  0  0
    4.4799    0.1361    1.1101 C   0  0  0  0  0  0  0  0  0  0  0  0
    0.0850   -1.6822    0.9323 H   0  0  0  0  0  0  0  0  0  0  0  0
    0.1631   -1.7334   -1.6391 H   0  0  0  0  0  0  0  0  0  0  0  0
   -1.3488   -0.7386   -1.5546 H   0  0  0  0  0  0  0  0  0  0  0  0
    0.3295   -3.9402   -2.2483 H   0  0  0  0  0  0  0  0  0  0  0  0
   -2.2225   -5.7283   -1.5016 H   0  0  0  0  0  0  0  0  0  0  0  0
   -3.4761   -6.5141    1.1059 H   0  0  0  0  0  0  0  0  0  0  0  0
   -3.7665   -3.4176    1.7059 H   0  0  0  0  0  0  0  0  0  0  0  0
   -1.0184    0.1786    2.0041 H   0  0  0  0  0  0  0  0  0  0  0  0
   -3.7802    0.7780    1.5964 H   0  0  0  0  0  0  0  0  0  0  0  0
   -5.3911    3.0401    1.6203 H   0  0  0  0  0  0  0  0  0  0  0  0
   -3.6514    4.9649   -1.7072 H   0  0  0  0  0  0  0  0  0  0  0  0
   -0.9920    4.2696   -2.1154 H   0  0  0  0  0  0  0  0  0  0  0  0
   -0.5264    1.4324   -1.0562 H   0  0  0  0  0  0  0  0  0  0  0  0
    2.3633    2.0215   -0.6728 H   0  0  0  0  0  0  0  0  0  0  0  0
    4.7547    3.6781   -2.0126 H   0  0  0  0  0  0  0  0  0  0  0  0
    7.3403    2.7473   -0.6873 H   0  0  0  0  0  0  0  0  0  0  0  0
    7.0801    1.0140    2.4366 H   0  0  0  0  0  0  0  0  0  0  0  0
    4.5592   -0.7894    1.7024 H   0  0  0  0  0  0  0  0  0  0  0  0
  1  2  2  0
  2  3  1  0
  3  4  1  0
  4  5  1  0
  5  6  1  0
  6  7  2  0
  7  8  1  0
  7  9  1  0
  9 10  2  0
 10 11  1  0
 10 12  1  0
 12 13  2  0
 13 14  1  0
 14 15  1  0
 15 16  1  0
 16 17  2  0
 17 18  1  0
 18 19  1  0
 18 20  2  0
 20 21  1  0
 20 22  1  0
 22 23  1  0
 22 24  2  0
  2 25  1  0
 25 26  2  0
 26 27  1  0
 27 28  1  0
 27 29  2  0
 29 30  1  0
 29 31  1  0
 31 32  1  0
 31 33  2  0
 15  4  1  0
 24 16  1  0
 33 25  1  0
 13  6  1  0
  4 34  1  1
  5 35  1  0
  5 36  1  0
  8 37  1  0
  9 38  1  0
 11 39  1  0
 12 40  1  0
 15 41  1  1
 17 42  1  0
 19 43  1  0
 21 44  1  0
 23 45  1  0
 24 46  1  0
 26 47  1  0
 28 48  1  0
 30 49  1  0
 32 50  1  0
 33 51  1  0
M  END
$$$$
