
     RDKit          3D

 21 22  0  0  0  0  0  0  0  0999 V2000
   -3.1033   -0.0777   -0.2265 C   0  0  0  0  0  0  0  0  0  0  0  0
   -1.7240   -0.5810   -0.1656 N   0  0  0  0  0  0  0  0  0  0  0  0
   -1.3031   -1.8550   -0.2199 C   0  0  0  0  0  0  0  0  0  0  0  0
    0.0552   -1.8882   -0.1298 N   0  0  0  0  0  0  0  0  0  0  0  0
    0.5203   -0.6384   -0.0169 C   0  0  0  0  0  0  0  0  0  0  0  0
   -0.6147    0.1674   -0.0416 C   0  0  0  0  0  0  0  0  0  0  0  0
   -0.4665    1.5446    0.0580 C   0  0  0  0  0  0  0  0  0  0  0  0
   -1.4264    2.3474    0.0450 O   0  0  0  0  0  0  0  0  0  0  0  0
    0.7698    2.1108    0.1788 N   0  0  0  0  0  0  0  0  0  0  0  0
    1.8398    1.3069    0.1992 C   0  0  0  0  0  0  0  0  0  0  0  0
    3.0244    1.7338    0.3074 O   0  0  0  0  0  0  0  0  0  0  0  0
    1.7183   -0.0347    0.1037 N   0  0  0  0  0  0  0  0  0  0  0  0
    2.8293   -0.9704    0.1183 C   0  0  0  0  0  0  0  0  0  0  0  0
   -3.4800    0.0147   -1.2462 H   0  0  0  0  0  0  0  0  0  0  0  0
   -3.7680   -0.8059    0.3266 H   0  0  0  0  0  0  0  0  0  0  0  0
   -3.2035    0.8645    0.3829 H   0  0  0  0  0  0  0  0  0  0  0  0
   -1.9566   -2.7200   -0.3205 H   0  0  0  0  0  0  0  0  0  0  0  0
    0.9498    3.1334    0.2575 H   0  0  0  0  0  0  0  0  0  0  0  0
    3.7023   -0.4784    0.6092 H   0  0  0  0  0  0  0  0  0  0  0  0
    2.5934   -1.8863    0.7000 H   0  0  0  0  0  0  0  0  0  0  0  0
    3.0436   -1.2875   -0.9196 H   0  0  0  0  0  0  0  0  0  0  0  0
  1  2  1  0
  2  3  1  0
  3  4  2  0
  4  5  1  0
  5  6  2  0
  6  7  1  0
  7  8  2  0
  7  9  1  0
  9 10  1  0
 10 11  2  0
 10 12  1  0
 12 13  1  0
  6  2  1  0
 12  5  1  0
  1 14  1  0
  1 15  1  0
  1 16  1  0
  3 17  1  0
  9 18  1  0
 13 19  1  0
 13 20  1  0
 13 21  1  0
M  END
$$$$
