
     RDKit          3D

 61 66  0  0  0  0  0  0  0  0999 V2000
    2.9070   -2.5675    1.0480 Cl  0  0  0  0  0  0  0  0  0  0  0  0
    1.9723   -1.4730    0.0425 C   0  0  0  0  0  0  0  0  0  0  0  0
    0.6067   -1.5746    0.0306 C   0  0  0  0  0  0  0  0  0  0  0  0
   -0.2028   -0.7515   -0.7316 C   0  0  0  0  0  0  0  0  0  0  0  0
   -1.6552   -0.8549   -0.7477 C   0  0  0  0  0  0  0  0  0  0  0  0
   -2.4490    0.2725   -0.9525 C   0  0  0  0  0  0  0  0  0  0  0  0
   -3.7898    0.1398   -0.9631 N   0  0  0  0  0  0  0  0  0  0  0  0
   -4.3686   -1.0428   -0.7825 C   0  0  0  0  0  0  0  0  0  0  0  0
   -5.7057   -1.3731   -0.7616 C   0  0  0  0  0  0  0  0  0  0  0  0
   -6.8377   -0.4642   -0.9383 C   0  0  0  0  0  0  0  0  0  0  0  0
   -7.3791   -0.1915   -2.1771 C   0  0  0  0  0  0  0  0  0  0  0  0
   -8.4483    0.6645   -2.3618 C   0  0  0  0  0  0  0  0  0  0  0  0
   -8.9737    1.2519   -1.2663 N   0  0  0  0  0  0  0  0  0  0  0  0
   -8.4913    1.0261   -0.0411 C   0  0  0  0  0  0  0  0  0  0  0  0
   -9.0686    1.6549    1.0465 C   0  0  0  0  0  0  0  0  0  0  0  0
   -8.5933    1.4420    2.3218 C   0  0  0  0  0  0  0  0  0  0  0  0
   -7.5317    0.5955    2.5276 C   0  0  0  0  0  0  0  0  0  0  0  0
   -6.9553   -0.0335    1.4346 C   0  0  0  0  0  0  0  0  0  0  0  0
   -7.4111    0.1623    0.1536 C   0  0  0  0  0  0  0  0  0  0  0  0
   -5.7369   -2.7447   -0.5373 C   0  0  0  0  0  0  0  0  0  0  0  0
   -4.4472   -3.1571   -0.4375 N   0  0  0  0  0  0  0  0  0  0  0  0
   -3.6144   -2.1448   -0.5829 N   0  0  0  0  0  0  0  0  0  0  0  0
   -2.2582   -2.0709   -0.5622 C   0  0  0  0  0  0  0  0  0  0  0  0
    0.4482    0.2081   -1.5051 C   0  0  0  0  0  0  0  0  0  0  0  0
    1.8225    0.3129   -1.4955 C   0  0  0  0  0  0  0  0  0  0  0  0
    2.6048   -0.5217   -0.7252 C   0  0  0  0  0  0  0  0  0  0  0  0
    3.9971   -0.4281   -0.7048 O   0  0  0  0  0  0  0  0  0  0  0  0
    4.5766    0.5693   -1.5160 C   0  0  0  0  0  0  0  0  0  0  0  0
    6.0658    0.6315   -1.4614 C   0  0  0  0  0  0  0  0  0  0  0  0
    6.5265    0.8925   -0.1499 N   0  0  0  0  0  0  0  0  0  0  0  0
    6.3582   -0.0988    0.8331 C   0  0  0  0  0  0  0  0  0  0  0  0
    7.6159   -0.5010    1.5585 C   0  0  0  0  0  0  0  0  0  0  0  0
    8.5162    0.6559    1.8820 C   0  0  0  0  0  0  0  0  0  0  0  0
    8.8258    1.3561    0.5723 C   0  0  0  0  0  0  0  0  0  0  0  0
    7.5159    1.8791    0.0299 C   0  0  0  0  0  0  0  0  0  0  0  0
    0.0757   -2.3204    0.6303 H   0  0  0  0  0  0  0  0  0  0  0  0
   -1.9634    1.2153   -1.0958 H   0  0  0  0  0  0  0  0  0  0  0  0
   -6.9460   -0.6699   -3.0417 H   0  0  0  0  0  0  0  0  0  0  0  0
   -8.8678    0.8707   -3.3572 H   0  0  0  0  0  0  0  0  0  0  0  0
   -9.9065    2.3201    0.8689 H   0  0  0  0  0  0  0  0  0  0  0  0
   -9.0302    1.9207    3.1677 H   0  0  0  0  0  0  0  0  0  0  0  0
   -7.1074    0.3819    3.5013 H   0  0  0  0  0  0  0  0  0  0  0  0
   -6.1168   -0.7074    1.5601 H   0  0  0  0  0  0  0  0  0  0  0  0
   -6.6371   -3.3517   -0.4602 H   0  0  0  0  0  0  0  0  0  0  0  0
   -1.6616   -2.9528   -0.4025 H   0  0  0  0  0  0  0  0  0  0  0  0
   -0.1401    0.8804   -2.1224 H   0  0  0  0  0  0  0  0  0  0  0  0
    2.3519    1.0583   -2.0952 H   0  0  0  0  0  0  0  0  0  0  0  0
    4.2424    0.4272   -2.5713 H   0  0  0  0  0  0  0  0  0  0  0  0
    4.1606    1.5504   -1.2047 H   0  0  0  0  0  0  0  0  0  0  0  0
    6.3879    1.4698   -2.1164 H   0  0  0  0  0  0  0  0  0  0  0  0
    6.5536   -0.2870   -1.8725 H   0  0  0  0  0  0  0  0  0  0  0  0
    5.9667   -1.0295    0.3673 H   0  0  0  0  0  0  0  0  0  0  0  0
    5.5742    0.2155    1.5804 H   0  0  0  0  0  0  0  0  0  0  0  0
    8.1915   -1.2166    0.9351 H   0  0  0  0  0  0  0  0  0  0  0  0
    7.3389   -1.0150    2.4944 H   0  0  0  0  0  0  0  0  0  0  0  0
    9.4363    0.2441    2.3422 H   0  0  0  0  0  0  0  0  0  0  0  0
    7.9812    1.3795    2.5348 H   0  0  0  0  0  0  0  0  0  0  0  0
    9.2280    0.5778   -0.1203 H   0  0  0  0  0  0  0  0  0  0  0  0
    9.5020    2.2190    0.6903 H   0  0  0  0  0  0  0  0  0  0  0  0
    7.7480    2.3684   -0.9499 H   0  0  0  0  0  0  0  0  0  0  0  0
    7.1968    2.7298    0.7022 H   0  0  0  0  0  0  0  0  0  0  0  0
  1  2  1  0
  2  3  2  0
  3  4  1  0
  4  5  1  0
  5  6  1  0
  6  7  2  0
  7  8  1  0
  8  9  2  0
  9 10  1  0
 10 11  2  0
 11 12  1  0
 12 13  2  0
 13 14  1  0
 14 15  2  0
 15 16  1  0
 16 17  2  0
 17 18  1  0
 18 19  2  0
  9 20  1  0
 20 21  2  0
 21 22  1  0
 22 23  1  0
  4 24  2  0
 24 25  1  0
 25 26  2  0
 26 27  1  0
 27 28  1  0
 28 29  1  0
 29 30  1  0
 30 31  1  0
 31 32  1  0
 32 33  1  0
 33 34  1  0
 34 35  1  0
 26  2  1  0
 35 30  1  0
 23  5  2  0
 22  8  1  0
 19 10  1  0
 19 14  1  0
  3 36  1  0
  6 37  1  0
 11 38  1  0
 12 39  1  0
 15 40  1  0
 16 41  1  0
 17 42  1  0
 18 43  1  0
 20 44  1  0
 23 45  1  0
 24 46  1  0
 25 47  1  0
 28 48  1  0
 28 49  1  0
 29 50  1  0
 29 51  1  0
 31 52  1  0
 31 53  1  0
 32 54  1  0
 32 55  1  0
 33 56  1  0
 33 57  1  0
 34 58  1  0
 34 59  1  0
 35 60  1  0
 35 61  1  0
M  END
$$$$
