
     RDKit          3D

 61 64  0  0  0  0  0  0  0  0999 V2000
    7.5058    2.8988    1.1834 C   0  0  0  0  0  0  0  0  0  0  0  0
    7.7650    1.4243    1.3901 C   0  0  0  0  0  0  0  0  0  0  0  0
    6.8842    0.6337    0.5549 N   0  0  0  0  0  0  0  0  0  0  0  0
    7.1960    0.2181   -0.7770 C   0  0  0  0  0  0  0  0  0  0  0  0
    8.1667    0.5711   -1.4883 O   0  0  0  0  0  0  0  0  0  0  0  0
    6.1498   -0.7208   -1.1734 C   0  0  0  0  0  0  0  0  0  0  0  0
    5.0831   -0.5624   -0.1753 N   0  0  0  0  0  0  0  0  0  0  0  0
    3.7803   -1.0986   -0.3762 C   0  0  0  0  0  0  0  0  0  0  0  0
    2.7787   -0.3153   -0.9236 C   0  0  0  0  0  0  0  0  0  0  0  0
    1.5150   -0.7966   -1.1502 C   0  0  0  0  0  0  0  0  0  0  0  0
    1.1580   -2.1210   -0.8389 C   0  0  0  0  0  0  0  0  0  0  0  0
   -0.2271   -2.5672   -1.1395 C   0  0  0  0  0  0  0  0  0  0  0  0
   -1.1956   -2.2046   -0.0888 C   0  0  0  0  0  0  0  0  0  0  0  0
   -1.9107   -1.0163   -0.2180 C   0  0  0  0  0  0  0  0  0  0  0  0
   -2.8077   -0.5363    0.6833 C   0  0  0  0  0  0  0  0  0  0  0  0
   -3.5586    0.7375    0.6006 C   0  0  2  0  0  0  0  0  0  0  0  0
   -4.9155    0.4195    0.7406 O   0  0  0  0  0  0  0  0  0  0  0  0
   -5.7397    1.4325    0.3065 C   0  0  2  0  0  0  0  0  0  0  0  0
   -7.1557    1.0996    0.7301 C   0  0  0  0  0  0  0  0  0  0  0  0
   -7.5520   -0.1077    0.1746 O   0  0  0  0  0  0  0  0  0  0  0  0
   -5.7177    1.6594   -1.1879 C   0  0  1  0  0  0  0  0  0  0  0  0
   -5.6172    3.0455   -1.4699 O   0  0  0  0  0  0  0  0  0  0  0  0
   -4.4146    1.0592   -1.7253 C   0  0  2  0  0  0  0  0  0  0  0  0
   -4.4783   -0.3120   -1.8510 O   0  0  0  0  0  0  0  0  0  0  0  0
   -3.3583    1.4604   -0.6889 C   0  0  1  0  0  0  0  0  0  0  0  0
   -3.5621    2.8626   -0.4953 O   0  0  0  0  0  0  0  0  0  0  0  0
   -2.9918   -1.3482    1.8232 C   0  0  0  0  0  0  0  0  0  0  0  0
   -2.3127   -2.5224    1.9937 C   0  0  0  0  0  0  0  0  0  0  0  0
   -1.3939   -2.9713    1.0271 C   0  0  0  0  0  0  0  0  0  0  0  0
   -0.5656   -4.4822    1.2464 Cl  0  0  0  0  0  0  0  0  0  0  0  0
    2.1488   -2.8953   -0.2980 C   0  0  0  0  0  0  0  0  0  0  0  0
    3.4419   -2.3968   -0.0676 C   0  0  0  0  0  0  0  0  0  0  0  0
    5.6038    0.1617    0.9228 C   0  0  0  0  0  0  0  0  0  0  0  0
    4.9674    0.3168    2.0183 O   0  0  0  0  0  0  0  0  0  0  0  0
    8.4556    3.4362    1.4690 H   0  0  0  0  0  0  0  0  0  0  0  0
    6.6508    3.1928    1.7905 H   0  0  0  0  0  0  0  0  0  0  0  0
    7.3108    3.0380    0.0831 H   0  0  0  0  0  0  0  0  0  0  0  0
    7.6174    1.1558    2.4604 H   0  0  0  0  0  0  0  0  0  0  0  0
    8.8255    1.1879    1.1504 H   0  0  0  0  0  0  0  0  0  0  0  0
    5.6759   -0.5035   -2.1578 H   0  0  0  0  0  0  0  0  0  0  0  0
    6.5023   -1.7766   -1.2239 H   0  0  0  0  0  0  0  0  0  0  0  0
    3.0437    0.7233   -1.1735 H   0  0  0  0  0  0  0  0  0  0  0  0
    0.7349   -0.1716   -1.5816 H   0  0  0  0  0  0  0  0  0  0  0  0
   -0.2675   -3.6579   -1.3580 H   0  0  0  0  0  0  0  0  0  0  0  0
   -0.5266   -2.0647   -2.0922 H   0  0  0  0  0  0  0  0  0  0  0  0
   -1.7244   -0.4595   -1.1079 H   0  0  0  0  0  0  0  0  0  0  0  0
   -3.2403    1.3954    1.4776 H   0  0  0  0  0  0  0  0  0  0  0  0
   -5.4440    2.3907    0.8154 H   0  0  0  0  0  0  0  0  0  0  0  0
   -7.8541    1.8711    0.3194 H   0  0  0  0  0  0  0  0  0  0  0  0
   -7.2289    1.0954    1.8487 H   0  0  0  0  0  0  0  0  0  0  0  0
   -7.1937   -0.8507    0.7565 H   0  0  0  0  0  0  0  0  0  0  0  0
   -6.5999    1.2628   -1.7176 H   0  0  0  0  0  0  0  0  0  0  0  0
   -5.8073    3.5407   -0.6102 H   0  0  0  0  0  0  0  0  0  0  0  0
   -4.1706    1.6031   -2.6462 H   0  0  0  0  0  0  0  0  0  0  0  0
   -3.9565   -0.6461   -2.6476 H   0  0  0  0  0  0  0  0  0  0  0  0
   -2.3775    1.3461   -1.1664 H   0  0  0  0  0  0  0  0  0  0  0  0
   -3.1042    3.0532    0.3796 H   0  0  0  0  0  0  0  0  0  0  0  0
   -3.6900   -1.0378    2.5878 H   0  0  0  0  0  0  0  0  0  0  0  0
   -2.4370   -3.1614    2.8573 H   0  0  0  0  0  0  0  0  0  0  0  0
    1.9382   -3.9307   -0.0502 H   0  0  0  0  0  0  0  0  0  0  0  0
    4.1979   -3.0577    0.3689 H   0  0  0  0  0  0  0  0  0  0  0  0
  1  2  1  0
  2  3  1  0
  3  4  1  0
  4  5  2  0
  4  6  1  0
  6  7  1  0
  7  8  1  0
  8  9  2  0
  9 10  1  0
 10 11  2  0
 11 12  1  0
 12 13  1  0
 13 14  2  0
 14 15  1  0
 15 16  1  0
 16 17  1  0
 17 18  1  0
 18 19  1  0
 19 20  1  0
 18 21  1  0
 21 22  1  0
 21 23  1  0
 23 24  1  0
 23 25  1  0
 25 26  1  0
 15 27  2  0
 27 28  1  0
 28 29  2  0
 29 30  1  0
 11 31  1  0
 31 32  2  0
  7 33  1  0
 33 34  2  0
 33  3  1  0
 32  8  1  0
 29 13  1  0
 25 16  1  0
  1 35  1  0
  1 36  1  0
  1 37  1  0
  2 38  1  0
  2 39  1  0
  6 40  1  0
  6 41  1  0
  9 42  1  0
 10 43  1  0
 12 44  1  0
 12 45  1  0
 14 46  1  0
 16 47  1  1
 18 48  1  1
 19 49  1  0
 19 50  1  0
 20 51  1  0
 21 52  1  6
 22 53  1  0
 23 54  1  6
 24 55  1  0
 25 56  1  6
 26 57  1  0
 27 58  1  0
 28 59  1  0
 31 60  1  0
 32 61  1  0
M  END
$$$$
