
     RDKit          3D

 52 56  0  0  0  0  0  0  0  0999 V2000
   -1.3721   -0.4005    2.0930 O   0  0  0  0  0  0  0  0  0  0  0  0
   -1.9867   -0.7582    1.0724 C   0  0  0  0  0  0  0  0  0  0  0  0
   -3.4525   -0.6697    1.0905 C   0  0  0  0  0  0  0  0  0  0  0  0
   -4.2388   -1.7151    1.5177 C   0  0  0  0  0  0  0  0  0  0  0  0
   -5.6073   -1.5583    1.5062 C   0  0  0  0  0  0  0  0  0  0  0  0
   -6.1854   -0.3831    1.0779 C   0  0  0  0  0  0  0  0  0  0  0  0
   -5.3948    0.6593    0.6518 C   0  0  0  0  0  0  0  0  0  0  0  0
   -5.9869    1.7999    0.2371 F   0  0  0  0  0  0  0  0  0  0  0  0
   -4.0240    0.5143    0.6586 C   0  0  0  0  0  0  0  0  0  0  0  0
   -3.1617    1.5832    0.2198 N   0  0  0  0  0  0  0  0  0  0  0  0
   -3.1824    2.0432   -1.0186 N   0  0  0  0  0  0  0  0  0  0  0  0
   -2.2659    3.0233   -1.0835 C   0  0  0  0  0  0  0  0  0  0  0  0
   -1.6916    3.1373    0.1616 C   0  0  0  0  0  0  0  0  0  0  0  0
   -2.2672    2.2338    0.9428 N   0  0  0  0  0  0  0  0  0  0  0  0
   -1.2695   -1.2283   -0.0481 N   0  0  0  0  0  0  0  0  0  0  0  0
   -1.8863   -1.6681   -1.2831 C   0  0  0  0  0  0  0  0  0  0  0  0
   -1.0175   -2.6277   -2.0365 C   0  0  0  0  0  0  0  0  0  0  0  0
   -0.1093   -3.3072   -1.3011 O   0  0  0  0  0  0  0  0  0  0  0  0
    0.6228   -2.6362   -0.3848 C   0  0  0  0  0  0  0  0  0  0  0  0
    0.1737   -1.2880    0.0051 C   0  0  1  0  0  0  0  0  0  0  0  0
    0.7106   -0.1607   -0.8309 C   0  0  0  0  0  0  0  0  0  0  0  0
    2.1685   -0.0845   -0.8793 C   0  0  0  0  0  0  0  0  0  0  0  0
    2.8610   -0.7543   -1.8549 C   0  0  0  0  0  0  0  0  0  0  0  0
    4.2443   -0.6543   -1.8628 C   0  0  0  0  0  0  0  0  0  0  0  0
    4.9241    0.0930   -0.9243 C   0  0  0  0  0  0  0  0  0  0  0  0
    4.2310    0.7684    0.0588 C   0  0  0  0  0  0  0  0  0  0  0  0
    4.9489    1.5384    1.0240 N   0  0  0  0  0  0  0  0  0  0  0  0
    5.7961    2.4851    0.6755 N   0  0  0  0  0  0  0  0  0  0  0  0
    6.2869    2.9994    1.8121 C   0  0  0  0  0  0  0  0  0  0  0  0
    5.7112    2.3352    2.8708 C   0  0  0  0  0  0  0  0  0  0  0  0
    4.8804    1.4293    2.3348 N   0  0  0  0  0  0  0  0  0  0  0  0
    2.8629    0.6528    0.0441 C   0  0  0  0  0  0  0  0  0  0  0  0
   -3.7509   -2.6199    1.8459 H   0  0  0  0  0  0  0  0  0  0  0  0
   -6.2044   -2.3865    1.8437 H   0  0  0  0  0  0  0  0  0  0  0  0
   -7.2638   -0.3244    1.0936 H   0  0  0  0  0  0  0  0  0  0  0  0
   -2.0028    3.6349   -1.9515 H   0  0  0  0  0  0  0  0  0  0  0  0
   -0.9044    3.8375    0.4700 H   0  0  0  0  0  0  0  0  0  0  0  0
   -2.0070   -0.7499   -1.9200 H   0  0  0  0  0  0  0  0  0  0  0  0
   -2.9171   -2.0468   -1.1246 H   0  0  0  0  0  0  0  0  0  0  0  0
   -1.7200   -3.3868   -2.4972 H   0  0  0  0  0  0  0  0  0  0  0  0
   -0.5288   -2.1549   -2.9391 H   0  0  0  0  0  0  0  0  0  0  0  0
    1.7016   -2.6597   -0.7221 H   0  0  0  0  0  0  0  0  0  0  0  0
    0.6418   -3.2713    0.5535 H   0  0  0  0  0  0  0  0  0  0  0  0
    0.5286   -1.0805    1.0583 H   0  0  0  0  0  0  0  0  0  0  0  0
    0.3361   -0.1852   -1.8789 H   0  0  0  0  0  0  0  0  0  0  0  0
    0.2623    0.7841   -0.3996 H   0  0  0  0  0  0  0  0  0  0  0  0
    2.3793   -1.3558   -2.6174 H   0  0  0  0  0  0  0  0  0  0  0  0
    4.8281   -1.1679   -2.6162 H   0  0  0  0  0  0  0  0  0  0  0  0
    6.0175    0.1724   -0.9301 H   0  0  0  0  0  0  0  0  0  0  0  0
    7.0172    3.8061    1.8790 H   0  0  0  0  0  0  0  0  0  0  0  0
    5.9337    2.5552    3.9041 H   0  0  0  0  0  0  0  0  0  0  0  0
    2.3303    1.1979    0.8348 H   0  0  0  0  0  0  0  0  0  0  0  0
  1  2  2  0
  2  3  1  0
  3  4  2  0
  4  5  1  0
  5  6  2  0
  6  7  1  0
  7  8  1  0
  7  9  2  0
  9 10  1  0
 10 11  1  0
 11 12  2  0
 12 13  1  0
 13 14  2  0
  2 15  1  0
 15 16  1  0
 16 17  1  0
 17 18  1  0
 18 19  1  0
 19 20  1  0
 20 21  1  0
 21 22  1  0
 22 23  2  0
 23 24  1  0
 24 25  2  0
 25 26  1  0
 26 27  1  0
 27 28  1  0
 28 29  2  0
 29 30  1  0
 30 31  2  0
 26 32  2  0
  9  3  1  0
 14 10  1  0
 20 15  1  0
 32 22  1  0
 31 27  1  0
  4 33  1  0
  5 34  1  0
  6 35  1  0
 12 36  1  0
 13 37  1  0
 16 38  1  0
 16 39  1  0
 17 40  1  0
 17 41  1  0
 19 42  1  0
 19 43  1  0
 20 44  1  1
 21 45  1  0
 21 46  1  0
 23 47  1  0
 24 48  1  0
 25 49  1  0
 29 50  1  0
 30 51  1  0
 32 52  1  0
M  END
$$$$
