
     RDKit          3D

 39 40  0  0  0  0  0  0  0  0999 V2000
   -4.2266    0.3322   -1.6109 C   0  0  0  0  0  0  0  0  0  0  0  0
   -3.8074    0.2514   -0.1579 C   0  0  1  0  0  0  0  0  0  0  0  0
   -4.6934   -0.5221    0.6488 N   0  0  0  0  0  0  0  0  0  0  0  0
   -2.3796   -0.2494   -0.1271 C   0  0  1  0  0  0  0  0  0  0  0  0
   -1.4516    0.6534   -0.8532 C   0  0  0  0  0  0  0  0  0  0  0  0
   -0.6221    1.5457    0.0341 C   0  0  0  0  0  0  0  0  0  0  0  0
    0.0506    0.8442    1.1517 C   0  0  2  0  0  0  0  0  0  0  0  0
    1.5209    0.8574    1.1198 C   0  0  0  0  0  0  0  0  0  0  0  0
    2.1304    1.3831    2.0783 O   0  0  0  0  0  0  0  0  0  0  0  0
    2.2272    0.2930    0.0385 N   0  0  0  0  0  0  0  0  0  0  0  0
    3.6343    0.2361   -0.1218 C   0  0  0  0  0  0  0  0  0  0  0  0
    4.1286   -0.3712   -1.2751 C   0  0  0  0  0  0  0  0  0  0  0  0
    5.4766   -0.4481   -1.4706 C   0  0  0  0  0  0  0  0  0  0  0  0
    6.3588    0.0475   -0.5788 N   0  0  0  0  0  0  0  0  0  0  0  0
    5.9383    0.6411    0.5460 C   0  0  0  0  0  0  0  0  0  0  0  0
    4.5645    0.7239    0.7535 C   0  0  0  0  0  0  0  0  0  0  0  0
   -0.4036   -0.6227    1.2142 C   0  0  0  0  0  0  0  0  0  0  0  0
   -1.9166   -0.5425    1.2895 C   0  0  0  0  0  0  0  0  0  0  0  0
   -4.1025    1.3766   -2.0031 H   0  0  0  0  0  0  0  0  0  0  0  0
   -3.6328   -0.3972   -2.1993 H   0  0  0  0  0  0  0  0  0  0  0  0
   -5.3115    0.0418   -1.7200 H   0  0  0  0  0  0  0  0  0  0  0  0
   -3.7845    1.2960    0.2279 H   0  0  0  0  0  0  0  0  0  0  0  0
   -4.4719   -1.5400    0.6818 H   0  0  0  0  0  0  0  0  0  0  0  0
   -5.6797   -0.4563    0.3055 H   0  0  0  0  0  0  0  0  0  0  0  0
   -2.3839   -1.2339   -0.6518 H   0  0  0  0  0  0  0  0  0  0  0  0
   -2.0521    1.3068   -1.5235 H   0  0  0  0  0  0  0  0  0  0  0  0
   -0.7482    0.1018   -1.5380 H   0  0  0  0  0  0  0  0  0  0  0  0
   -1.3329    2.3262    0.4309 H   0  0  0  0  0  0  0  0  0  0  0  0
    0.0588    2.1127   -0.6378 H   0  0  0  0  0  0  0  0  0  0  0  0
   -0.2677    1.2753    2.1184 H   0  0  0  0  0  0  0  0  0  0  0  0
    1.5792   -0.1176   -0.7035 H   0  0  0  0  0  0  0  0  0  0  0  0
    3.4038   -0.7605   -1.9745 H   0  0  0  0  0  0  0  0  0  0  0  0
    5.8492   -0.9257   -2.3770 H   0  0  0  0  0  0  0  0  0  0  0  0
    6.6393    1.0382    1.2608 H   0  0  0  0  0  0  0  0  0  0  0  0
    4.2484    1.2036    1.6615 H   0  0  0  0  0  0  0  0  0  0  0  0
    0.0325   -1.1097    2.1111 H   0  0  0  0  0  0  0  0  0  0  0  0
   -0.0715   -1.0936    0.2707 H   0  0  0  0  0  0  0  0  0  0  0  0
   -2.2775   -1.5091    1.6642 H   0  0  0  0  0  0  0  0  0  0  0  0
   -2.2235    0.3212    1.9167 H   0  0  0  0  0  0  0  0  0  0  0  0
  1  2  1  0
  2  3  1  0
  2  4  1  0
  4  5  1  0
  5  6  1  0
  6  7  1  0
  7  8  1  0
  8  9  2  0
  8 10  1  0
 10 11  1  0
 11 12  2  0
 12 13  1  0
 13 14  2  0
 14 15  1  0
 15 16  2  0
  7 17  1  0
 17 18  1  0
 18  4  1  0
 16 11  1  0
  1 19  1  0
  1 20  1  0
  1 21  1  0
  2 22  1  1
  3 23  1  0
  3 24  1  0
  4 25  1  6
  5 26  1  0
  5 27  1  0
  6 28  1  0
  6 29  1  0
  7 30  1  1
 10 31  1  0
 12 32  1  0
 13 33  1  0
 15 34  1  0
 16 35  1  0
 17 36  1  0
 17 37  1  0
 18 38  1  0
 18 39  1  0
M  END
$$$$
