
     RDKit          3D

 45 46  0  0  0  0  0  0  0  0999 V2000
    5.9793   -1.0820   -2.2405 C   0  0  0  0  0  0  0  0  0  0  0  0
    5.6595   -0.9365   -0.8921 O   0  0  0  0  0  0  0  0  0  0  0  0
    4.4310   -0.3911   -0.4706 C   0  0  0  0  0  0  0  0  0  0  0  0
    3.5058    0.0160   -1.4069 C   0  0  0  0  0  0  0  0  0  0  0  0
    2.2948    0.5537   -0.9664 C   0  0  0  0  0  0  0  0  0  0  0  0
    2.0169    0.6806    0.3691 C   0  0  0  0  0  0  0  0  0  0  0  0
    0.4760    1.3646    0.8817 S   0  0  0  0  0  6  0  0  0  0  0  0
   -0.0111    2.3208   -0.1860 O   0  0  0  0  0  0  0  0  0  0  0  0
    0.6905    2.1277    2.1494 O   0  0  0  0  0  0  0  0  0  0  0  0
   -0.7071    0.1448    1.0733 N   0  0  0  0  0  0  0  0  0  0  0  0
   -0.2983   -0.8213    2.1018 C   0  0  0  0  0  0  0  0  0  0  0  0
    0.4702   -1.9327    1.4965 C   0  0  0  0  0  0  0  0  0  0  0  0
    0.7136   -1.9988    0.2706 O   0  0  0  0  0  0  0  0  0  0  0  0
    0.9492   -2.9625    2.3377 N   0  0  0  0  0  0  0  0  0  0  0  0
    1.6626   -4.0145    1.8495 O   0  0  0  0  0  0  0  0  0  0  0  0
   -1.9274    0.7308    1.5865 C   0  0  0  0  0  0  0  0  0  0  0  0
   -2.8760    1.1798    0.5450 C   0  0  0  0  0  0  0  0  0  0  0  0
   -2.9271    2.5098    0.2104 C   0  0  0  0  0  0  0  0  0  0  0  0
   -3.8141    2.8884   -0.7891 C   0  0  0  0  0  0  0  0  0  0  0  0
   -4.6190    1.9724   -1.4280 C   0  0  0  0  0  0  0  0  0  0  0  0
   -4.5831    0.6328   -1.1058 C   0  0  0  0  0  0  0  0  0  0  0  0
   -5.4401   -0.3338   -1.7873 C   0  0  0  0  0  0  0  0  0  0  0  0
   -5.3729   -1.5440   -1.4603 O   0  0  0  0  0  0  0  0  0  0  0  0
   -6.3210    0.0615   -2.7832 O   0  0  0  0  0  0  0  0  0  0  0  0
   -3.7022    0.2667   -0.1161 C   0  0  0  0  0  0  0  0  0  0  0  0
    2.9258    0.2807    1.3100 C   0  0  0  0  0  0  0  0  0  0  0  0
    4.1380   -0.2575    0.8648 C   0  0  0  0  0  0  0  0  0  0  0  0
    5.7820   -0.1797   -2.8433 H   0  0  0  0  0  0  0  0  0  0  0  0
    5.3734   -1.9014   -2.6703 H   0  0  0  0  0  0  0  0  0  0  0  0
    7.0685   -1.2814   -2.3190 H   0  0  0  0  0  0  0  0  0  0  0  0
    3.7524   -0.0962   -2.4513 H   0  0  0  0  0  0  0  0  0  0  0  0
    1.5833    0.8667   -1.7236 H   0  0  0  0  0  0  0  0  0  0  0  0
    0.3030   -0.3466    2.8942 H   0  0  0  0  0  0  0  0  0  0  0  0
   -1.1959   -1.2566    2.5807 H   0  0  0  0  0  0  0  0  0  0  0  0
    0.7702   -2.9489    3.3662 H   0  0  0  0  0  0  0  0  0  0  0  0
    1.8548   -3.8949    0.8853 H   0  0  0  0  0  0  0  0  0  0  0  0
   -2.4425    0.0430    2.2930 H   0  0  0  0  0  0  0  0  0  0  0  0
   -1.6307    1.6070    2.2365 H   0  0  0  0  0  0  0  0  0  0  0  0
   -2.3143    3.2618    0.7125 H   0  0  0  0  0  0  0  0  0  0  0  0
   -3.8490    3.9431   -1.0495 H   0  0  0  0  0  0  0  0  0  0  0  0
   -5.3187    2.2584   -2.2137 H   0  0  0  0  0  0  0  0  0  0  0  0
   -6.9317   -0.5697   -3.2646 H   0  0  0  0  0  0  0  0  0  0  0  0
   -3.6488   -0.7830    0.1626 H   0  0  0  0  0  0  0  0  0  0  0  0
    2.7049    0.3816    2.3671 H   0  0  0  0  0  0  0  0  0  0  0  0
    4.8247   -0.5595    1.6310 H   0  0  0  0  0  0  0  0  0  0  0  0
  1  2  1  0
  2  3  1  0
  3  4  2  0
  4  5  1  0
  5  6  2  0
  6  7  1  0
  7  8  2  0
  7  9  2  0
  7 10  1  0
 10 11  1  0
 11 12  1  0
 12 13  2  0
 12 14  1  0
 14 15  1  0
 10 16  1  0
 16 17  1  0
 17 18  2  0
 18 19  1  0
 19 20  2  0
 20 21  1  0
 21 22  1  0
 22 23  2  0
 22 24  1  0
 21 25  2  0
  6 26  1  0
 26 27  2  0
 27  3  1  0
 25 17  1  0
  1 28  1  0
  1 29  1  0
  1 30  1  0
  4 31  1  0
  5 32  1  0
 11 33  1  0
 11 34  1  0
 14 35  1  0
 15 36  1  0
 16 37  1  0
 16 38  1  0
 18 39  1  0
 19 40  1  0
 20 41  1  0
 24 42  1  0
 25 43  1  0
 26 44  1  0
 27 45  1  0
M  END
$$$$
