
     RDKit          3D

 44 46  0  0  0  0  0  0  0  0999 V2000
   -2.0396   -0.9115   -1.8803 C   0  0  0  0  0  0  0  0  0  0  0  0
   -1.8847   -0.6730   -0.3742 C   0  0  0  0  0  0  0  0  0  0  0  0
   -2.8618    0.4075   -0.0553 C   0  0  0  0  0  0  0  0  0  0  0  0
   -4.1166    0.0538    0.3539 C   0  0  0  0  0  0  0  0  0  0  0  0
   -5.0295    1.0679    0.6459 C   0  0  0  0  0  0  0  0  0  0  0  0
   -4.6892    2.3974    0.5293 C   0  0  0  0  0  0  0  0  0  0  0  0
   -3.4106    2.7006    0.1126 C   0  0  0  0  0  0  0  0  0  0  0  0
   -2.4774    1.7384   -0.1862 C   0  0  0  0  0  0  0  0  0  0  0  0
   -2.3380   -1.9172    0.3437 C   0  0  0  0  0  0  0  0  0  0  0  0
   -1.3401   -3.0488    0.2038 C   0  0  0  0  0  0  0  0  0  0  0  0
   -0.0532   -2.6245    0.8525 C   0  0  0  0  0  0  0  0  0  0  0  0
    0.3586   -1.3066    0.4680 N   0  0  0  0  0  0  0  0  0  0  0  0
    1.7558   -0.9830    0.6215 C   0  0  0  0  0  0  0  0  0  0  0  0
    2.5223   -1.8544    1.0742 O   0  0  0  0  0  0  0  0  0  0  0  0
    2.2815    0.2635    0.2840 N   0  0  0  0  0  0  0  0  0  0  0  0
    3.6201    0.7151    0.3813 C   0  0  0  0  0  0  0  0  0  0  0  0
    4.6813   -0.0206    0.8435 C   0  0  0  0  0  0  0  0  0  0  0  0
    5.9857    0.4884    0.9139 C   0  0  0  0  0  0  0  0  0  0  0  0
    6.2505    1.7628    0.5157 C   0  0  0  0  0  0  0  0  0  0  0  0
    7.8893    2.3538    0.6213 Cl  0  0  0  0  0  0  0  0  0  0  0  0
    5.2095    2.5292    0.0466 C   0  0  0  0  0  0  0  0  0  0  0  0
    3.9374    2.0232   -0.0186 C   0  0  0  0  0  0  0  0  0  0  0  0
   -0.4870   -0.2879   -0.0520 C   0  0  0  0  0  0  0  0  0  0  0  0
   -1.0048   -1.0363   -2.2994 H   0  0  0  0  0  0  0  0  0  0  0  0
   -2.4773   -0.0333   -2.3893 H   0  0  0  0  0  0  0  0  0  0  0  0
   -2.5724   -1.8539   -2.0649 H   0  0  0  0  0  0  0  0  0  0  0  0
   -4.4998   -0.9432    0.4850 H   0  0  0  0  0  0  0  0  0  0  0  0
   -6.0402    0.8041    0.9753 H   0  0  0  0  0  0  0  0  0  0  0  0
   -5.4383    3.1316    0.7694 H   0  0  0  0  0  0  0  0  0  0  0  0
   -3.1467    3.7495    0.0223 H   0  0  0  0  0  0  0  0  0  0  0  0
   -1.4680    1.9865   -0.5173 H   0  0  0  0  0  0  0  0  0  0  0  0
   -3.2580   -2.3022   -0.1897 H   0  0  0  0  0  0  0  0  0  0  0  0
   -2.5226   -1.7370    1.4024 H   0  0  0  0  0  0  0  0  0  0  0  0
   -1.7474   -3.9073    0.7605 H   0  0  0  0  0  0  0  0  0  0  0  0
   -1.1556   -3.3324   -0.8435 H   0  0  0  0  0  0  0  0  0  0  0  0
   -0.1371   -2.6848    1.9551 H   0  0  0  0  0  0  0  0  0  0  0  0
    0.7328   -3.3591    0.5542 H   0  0  0  0  0  0  0  0  0  0  0  0
    1.5776    0.9686   -0.0982 H   0  0  0  0  0  0  0  0  0  0  0  0
    4.5227   -1.0408    1.1725 H   0  0  0  0  0  0  0  0  0  0  0  0
    6.7662   -0.1857    1.3007 H   0  0  0  0  0  0  0  0  0  0  0  0
    5.4512    3.5400   -0.2631 H   0  0  0  0  0  0  0  0  0  0  0  0
    3.1279    2.6550   -0.3961 H   0  0  0  0  0  0  0  0  0  0  0  0
   -0.0108    0.0736   -1.0112 H   0  0  0  0  0  0  0  0  0  0  0  0
   -0.4635    0.6330    0.6046 H   0  0  0  0  0  0  0  0  0  0  0  0
  1  2  1  0
  2  3  1  0
  3  4  2  0
  4  5  1  0
  5  6  2  0
  6  7  1  0
  7  8  2  0
  2  9  1  0
  9 10  1  0
 10 11  1  0
 11 12  1  0
 12 13  1  0
 13 14  2  0
 13 15  1  0
 15 16  1  0
 16 17  2  0
 17 18  1  0
 18 19  2  0
 19 20  1  0
 19 21  1  0
 21 22  2  0
 12 23  1  0
 23  2  1  0
  8  3  1  0
 22 16  1  0
  1 24  1  0
  1 25  1  0
  1 26  1  0
  4 27  1  0
  5 28  1  0
  6 29  1  0
  7 30  1  0
  8 31  1  0
  9 32  1  0
  9 33  1  0
 10 34  1  0
 10 35  1  0
 11 36  1  0
 11 37  1  0
 15 38  1  0
 17 39  1  0
 18 40  1  0
 21 41  1  0
 22 42  1  0
 23 43  1  0
 23 44  1  0
M  END
$$$$
