
     RDKit          3D

 75 77  0  0  0  0  0  0  0  0999 V2000
   -7.9231   -0.3438    2.5024 C   0  0  0  0  0  0  0  0  0  0  0  0
   -8.7283   -1.1777    1.5492 C   0  0  0  0  0  0  0  0  0  0  0  0
   -7.9107   -1.8245    0.6453 O   0  0  0  0  0  0  0  0  0  0  0  0
   -6.9862   -2.6802    1.1625 C   0  0  0  0  0  0  0  0  0  0  0  0
   -7.4670   -3.9782    0.7229 O   0  0  0  0  0  0  0  0  0  0  0  0
   -7.8050   -4.7598    1.8028 C   0  0  0  0  0  0  0  0  0  0  0  0
   -8.3200   -6.0808    1.2239 C   0  0  0  0  0  0  0  0  0  0  0  0
   -5.6200   -2.5080    0.6127 C   0  0  0  0  0  0  0  0  0  0  0  0
   -5.3896   -2.6105   -0.7550 C   0  0  0  0  0  0  0  0  0  0  0  0
   -4.1481   -2.4856   -1.3231 C   0  0  0  0  0  0  0  0  0  0  0  0
   -3.0502   -2.2420   -0.4762 C   0  0  0  0  0  0  0  0  0  0  0  0
   -1.7262   -2.1684   -1.0691 C   0  0  0  0  0  0  0  0  0  0  0  0
   -0.8110   -1.2832   -0.8443 C   0  0  0  0  0  0  0  0  0  0  0  0
   -1.0325   -0.1739    0.1031 C   0  0  0  0  0  0  0  0  0  0  0  0
   -0.2653    1.0025   -0.3308 N   0  0  0  0  0  0  0  0  0  0  0  0
   -0.6776    1.4943   -1.6100 C   0  0  0  0  0  0  0  0  0  0  0  0
    1.1525    0.7249   -0.2591 C   0  0  0  0  0  0  0  0  0  0  0  0
    1.4870   -0.3347   -1.2289 C   0  0  0  0  0  0  0  0  0  0  0  0
    2.6535   -0.4305   -1.8628 C   0  0  0  0  0  0  0  0  0  0  0  0
    3.6837    0.5452   -1.6203 C   0  0  0  0  0  0  0  0  0  0  0  0
    3.5811    1.8873   -1.8783 C   0  0  0  0  0  0  0  0  0  0  0  0
    4.6074    2.7503   -1.5837 C   0  0  0  0  0  0  0  0  0  0  0  0
    5.7684    2.2927   -1.0200 C   0  0  0  0  0  0  0  0  0  0  0  0
    6.8784    3.2370   -0.7236 C   0  0  0  0  0  0  0  0  0  0  0  0
    6.3242    4.4710   -0.4254 O   0  0  0  0  0  0  0  0  0  0  0  0
    6.5134    4.8902    0.8739 C   0  0  0  0  0  0  0  0  0  0  0  0
    5.8566    3.9347    1.8661 C   0  0  0  0  0  0  0  0  0  0  0  0
    7.7761    3.3711   -1.7522 O   0  0  0  0  0  0  0  0  0  0  0  0
    9.0706    3.0545   -1.3600 C   0  0  0  0  0  0  0  0  0  0  0  0
   10.0400    3.2034   -2.5125 C   0  0  0  0  0  0  0  0  0  0  0  0
    5.9133    0.9547   -0.7450 C   0  0  0  0  0  0  0  0  0  0  0  0
    4.8613    0.0812   -1.0498 C   0  0  0  0  0  0  0  0  0  0  0  0
    0.4780   -1.3443   -1.5218 C   0  0  0  0  0  0  0  0  0  0  0  0
    0.7277   -2.2590   -2.3556 O   0  0  0  0  0  0  0  0  0  0  0  0
   -3.2594   -2.1361    0.8813 C   0  0  0  0  0  0  0  0  0  0  0  0
   -4.5300   -2.2668    1.4202 C   0  0  0  0  0  0  0  0  0  0  0  0
   -6.9251   -0.1063    2.1026 H   0  0  0  0  0  0  0  0  0  0  0  0
   -8.4424    0.6465    2.6644 H   0  0  0  0  0  0  0  0  0  0  0  0
   -7.8286   -0.8589    3.4918 H   0  0  0  0  0  0  0  0  0  0  0  0
   -9.4171   -0.4872    1.0023 H   0  0  0  0  0  0  0  0  0  0  0  0
   -9.3748   -1.8710    2.1349 H   0  0  0  0  0  0  0  0  0  0  0  0
   -7.0316   -2.6998    2.2643 H   0  0  0  0  0  0  0  0  0  0  0  0
   -6.9773   -5.0229    2.4601 H   0  0  0  0  0  0  0  0  0  0  0  0
   -8.6017   -4.2935    2.4381 H   0  0  0  0  0  0  0  0  0  0  0  0
   -7.5000   -6.5138    0.6289 H   0  0  0  0  0  0  0  0  0  0  0  0
   -9.1254   -5.8213    0.4969 H   0  0  0  0  0  0  0  0  0  0  0  0
   -8.6712   -6.7381    2.0192 H   0  0  0  0  0  0  0  0  0  0  0  0
   -6.2761   -2.7990   -1.3735 H   0  0  0  0  0  0  0  0  0  0  0  0
   -3.9887   -2.5669   -2.3937 H   0  0  0  0  0  0  0  0  0  0  0  0
   -1.4769   -2.9615   -1.7996 H   0  0  0  0  0  0  0  0  0  0  0  0
   -0.6612   -0.3649    1.1331 H   0  0  0  0  0  0  0  0  0  0  0  0
   -2.0894    0.1331    0.0569 H   0  0  0  0  0  0  0  0  0  0  0  0
   -1.8053    1.5250   -1.6098 H   0  0  0  0  0  0  0  0  0  0  0  0
   -0.3629    2.5448   -1.7640 H   0  0  0  0  0  0  0  0  0  0  0  0
   -0.3863    0.8341   -2.4367 H   0  0  0  0  0  0  0  0  0  0  0  0
    1.2930    0.2471    0.7598 H   0  0  0  0  0  0  0  0  0  0  0  0
    1.7016    1.6564   -0.3407 H   0  0  0  0  0  0  0  0  0  0  0  0
    2.7962   -1.2673   -2.5595 H   0  0  0  0  0  0  0  0  0  0  0  0
    2.6819    2.2881   -2.3392 H   0  0  0  0  0  0  0  0  0  0  0  0
    4.5210    3.8344   -1.7948 H   0  0  0  0  0  0  0  0  0  0  0  0
    7.4027    2.9082    0.2236 H   0  0  0  0  0  0  0  0  0  0  0  0
    6.1356    5.9156    0.9718 H   0  0  0  0  0  0  0  0  0  0  0  0
    7.5892    4.9300    1.1391 H   0  0  0  0  0  0  0  0  0  0  0  0
    5.3914    4.4477    2.7149 H   0  0  0  0  0  0  0  0  0  0  0  0
    6.5679    3.1597    2.2069 H   0  0  0  0  0  0  0  0  0  0  0  0
    5.0691    3.4028    1.2667 H   0  0  0  0  0  0  0  0  0  0  0  0
    9.1212    2.0090   -0.9360 H   0  0  0  0  0  0  0  0  0  0  0  0
    9.3503    3.7701   -0.5432 H   0  0  0  0  0  0  0  0  0  0  0  0
   10.5552    4.1828   -2.3864 H   0  0  0  0  0  0  0  0  0  0  0  0
    9.4544    3.2619   -3.4462 H   0  0  0  0  0  0  0  0  0  0  0  0
   10.7974    2.3866   -2.5152 H   0  0  0  0  0  0  0  0  0  0  0  0
    6.8223    0.5789   -0.3023 H   0  0  0  0  0  0  0  0  0  0  0  0
    4.9863   -0.9787   -0.8265 H   0  0  0  0  0  0  0  0  0  0  0  0
   -2.3937   -1.9489    1.4860 H   0  0  0  0  0  0  0  0  0  0  0  0
   -4.6242   -2.1700    2.5025 H   0  0  0  0  0  0  0  0  0  0  0  0
  1  2  1  0
  2  3  1  0
  3  4  1  0
  4  5  1  0
  5  6  1  0
  6  7  1  0
  4  8  1  0
  8  9  2  0
  9 10  1  0
 10 11  2  0
 11 12  1  0
 12 13  2  0
 13 14  1  0
 14 15  1  0
 15 16  1  0
 15 17  1  0
 17 18  1  0
 18 19  2  0
 19 20  1  0
 20 21  2  0
 21 22  1  0
 22 23  2  0
 23 24  1  0
 24 25  1  0
 25 26  1  0
 26 27  1  0
 24 28  1  0
 28 29  1  0
 29 30  1  0
 23 31  1  0
 31 32  2  0
 18 33  1  0
 33 34  2  0
 11 35  1  0
 35 36  2  0
 36  8  1  0
 33 13  1  0
 32 20  1  0
  1 37  1  0
  1 38  1  0
  1 39  1  0
  2 40  1  0
  2 41  1  0
  4 42  1  0
  6 43  1  0
  6 44  1  0
  7 45  1  0
  7 46  1  0
  7 47  1  0
  9 48  1  0
 10 49  1  0
 12 50  1  0
 14 51  1  0
 14 52  1  0
 16 53  1  0
 16 54  1  0
 16 55  1  0
 17 56  1  0
 17 57  1  0
 19 58  1  0
 21 59  1  0
 22 60  1  0
 24 61  1  0
 26 62  1  0
 26 63  1  0
 27 64  1  0
 27 65  1  0
 27 66  1  0
 29 67  1  0
 29 68  1  0
 30 69  1  0
 30 70  1  0
 30 71  1  0
 31 72  1  0
 32 73  1  0
 35 74  1  0
 36 75  1  0
M  END
$$$$
