
     RDKit          3D

 47 48  0  0  0  0  0  0  0  0999 V2000
   -7.9849    1.1891    1.2723 C   0  0  0  0  0  0  0  0  0  0  0  0
   -7.4961   -0.1570    1.3150 O   0  0  0  0  0  0  0  0  0  0  0  0
   -6.1258   -0.2999    1.2069 C   0  0  0  0  0  0  0  0  0  0  0  0
   -5.2460    0.7317    1.0608 C   0  0  0  0  0  0  0  0  0  0  0  0
   -3.8557    0.5999    0.9509 C   0  0  0  0  0  0  0  0  0  0  0  0
   -3.0583    1.7635    0.8425 C   0  0  0  0  0  0  0  0  0  0  0  0
   -1.8784    2.1012    0.5981 C   0  0  0  0  0  0  0  0  0  0  0  0
   -0.6117    1.5649    0.2794 C   0  0  0  0  0  0  0  0  0  0  0  0
    0.3661    2.4471    0.1152 O   0  0  0  0  0  0  0  0  0  0  0  0
   -0.2158    0.2038    0.1000 C   0  0  0  0  0  0  0  0  0  0  0  0
    1.2566    0.0961   -0.3880 C   0  0  0  0  0  0  0  0  0  0  0  0
    1.8060    1.1801   -0.5835 O   0  0  0  0  0  0  0  0  0  0  0  0
    1.7228   -1.2412   -0.5231 C   0  0  0  0  0  0  0  0  0  0  0  0
    2.8142   -1.8214   -0.8451 C   0  0  0  0  0  0  0  0  0  0  0  0
    4.1247   -1.4309   -1.2281 C   0  0  0  0  0  0  0  0  0  0  0  0
    5.0089   -2.4180   -1.7210 C   0  0  0  0  0  0  0  0  0  0  0  0
    6.3112   -2.1597   -2.0671 C   0  0  0  0  0  0  0  0  0  0  0  0
    6.8196   -0.9031   -1.9469 C   0  0  0  0  0  0  0  0  0  0  0  0
    8.1192   -0.5896   -2.2807 O   0  0  0  0  0  0  0  0  0  0  0  0
    5.9938    0.1162   -1.4650 C   0  0  0  0  0  0  0  0  0  0  0  0
    6.5401    1.3778   -1.3540 O   0  0  0  0  0  0  0  0  0  0  0  0
    5.7718    2.4538   -0.8745 C   0  0  0  0  0  0  0  0  0  0  0  0
    4.6694   -0.1749   -1.1187 C   0  0  0  0  0  0  0  0  0  0  0  0
   -3.4041   -0.6774    1.0012 C   0  0  0  0  0  0  0  0  0  0  0  0
   -4.2862   -1.7737    1.1512 C   0  0  0  0  0  0  0  0  0  0  0  0
   -5.6250   -1.5940    1.2530 C   0  0  0  0  0  0  0  0  0  0  0  0
   -6.4822   -2.6600    1.3977 O   0  0  0  0  0  0  0  0  0  0  0  0
   -7.4319    1.7422    2.0615 H   0  0  0  0  0  0  0  0  0  0  0  0
   -7.6782    1.5901    0.2703 H   0  0  0  0  0  0  0  0  0  0  0  0
   -9.0758    1.2086    1.4248 H   0  0  0  0  0  0  0  0  0  0  0  0
   -5.6656    1.7188    1.0228 H   0  0  0  0  0  0  0  0  0  0  0  0
   -3.6965    2.7542    1.0751 H   0  0  0  0  0  0  0  0  0  0  0  0
   -1.8086    3.3041    0.6569 H   0  0  0  0  0  0  0  0  0  0  0  0
   -0.1955   -0.3968    1.0611 H   0  0  0  0  0  0  0  0  0  0  0  0
   -0.8380   -0.3558   -0.6208 H   0  0  0  0  0  0  0  0  0  0  0  0
    0.8803   -2.0014   -0.2729 H   0  0  0  0  0  0  0  0  0  0  0  0
    2.7266   -2.9910   -0.8040 H   0  0  0  0  0  0  0  0  0  0  0  0
    4.6541   -3.4224   -1.8393 H   0  0  0  0  0  0  0  0  0  0  0  0
    6.9774   -2.9266   -2.4446 H   0  0  0  0  0  0  0  0  0  0  0  0
    8.8399   -0.8707   -1.6012 H   0  0  0  0  0  0  0  0  0  0  0  0
    6.4461    3.3026   -0.5381 H   0  0  0  0  0  0  0  0  0  0  0  0
    5.1988    2.8953   -1.7395 H   0  0  0  0  0  0  0  0  0  0  0  0
    5.1093    2.1757   -0.0318 H   0  0  0  0  0  0  0  0  0  0  0  0
    4.0888    0.6337   -0.7387 H   0  0  0  0  0  0  0  0  0  0  0  0
   -2.3743   -0.9541    0.9597 H   0  0  0  0  0  0  0  0  0  0  0  0
   -3.8717   -2.7591    1.1817 H   0  0  0  0  0  0  0  0  0  0  0  0
   -7.3394   -2.5718    1.9454 H   0  0  0  0  0  0  0  0  0  0  0  0
  1  2  1  0
  2  3  1  0
  3  4  2  0
  4  5  1  0
  5  6  1  0
  6  7  2  3
  7  8  1  0
  8  9  2  0
  8 10  1  0
 10 11  1  0
 11 12  2  0
 11 13  1  0
 13 14  2  3
 14 15  1  0
 15 16  2  0
 16 17  1  0
 17 18  2  0
 18 19  1  0
 18 20  1  0
 20 21  1  0
 21 22  1  0
 20 23  2  0
  5 24  2  0
 24 25  1  0
 25 26  2  0
 26 27  1  0
 26  3  1  0
 23 15  1  0
  1 28  1  0
  1 29  1  0
  1 30  1  0
  4 31  1  0
  6 32  1  0
  7 33  1  0
 10 34  1  0
 10 35  1  0
 13 36  1  0
 14 37  1  0
 16 38  1  0
 17 39  1  0
 19 40  1  0
 22 41  1  0
 22 42  1  0
 22 43  1  0
 23 44  1  0
 24 45  1  0
 25 46  1  0
 27 47  1  0
M  END
$$$$
