
     RDKit          3D

 37 39  0  0  0  0  0  0  0  0999 V2000
    6.1494   -1.4850    0.0371 C   0  0  0  0  0  0  0  0  0  0  0  0
    5.2185   -0.3355    0.3106 C   0  0  0  0  0  0  0  0  0  0  0  0
    5.6175    0.6747    1.1581 C   0  0  0  0  0  0  0  0  0  0  0  0
    4.7848    1.7264    1.4178 C   0  0  0  0  0  0  0  0  0  0  0  0
    3.5296    1.7389    0.7997 C   0  0  0  0  0  0  0  0  0  0  0  0
    3.1493    0.7168   -0.0461 C   0  0  0  0  0  0  0  0  0  0  0  0
    1.8401    0.8292   -0.6270 N   0  0  0  0  0  0  0  0  0  0  0  0
    0.6858    0.3157   -0.0463 C   0  0  0  0  0  0  0  0  0  0  0  0
    0.8653   -0.2856    1.0783 O   0  0  0  0  0  0  0  0  0  0  0  0
   -0.6714    0.3633   -0.5255 C   0  0  0  0  0  0  0  0  0  0  0  0
   -1.7163   -0.2173    0.2066 C   0  0  0  0  0  0  0  0  0  0  0  0
   -3.0094   -0.1638   -0.2644 C   0  0  0  0  0  0  0  0  0  0  0  0
   -4.0299   -0.7389    0.4650 C   0  0  0  0  0  0  0  0  0  0  0  0
   -5.3491   -0.7275    0.0616 C   0  0  0  0  0  0  0  0  0  0  0  0
   -6.4042   -1.3655    0.8932 C   0  0  0  0  0  0  0  0  0  0  0  0
   -5.6225   -0.0974   -1.1418 C   0  0  0  0  0  0  0  0  0  0  0  0
   -4.6137    0.4825   -1.8831 C   0  0  0  0  0  0  0  0  0  0  0  0
   -3.2921    0.4597   -1.4586 C   0  0  0  0  0  0  0  0  0  0  0  0
   -2.3189    0.9844   -2.1119 O   0  0  0  0  0  0  0  0  0  0  0  0
   -1.0443    0.9580   -1.6945 C   0  0  0  0  0  0  0  0  0  0  0  0
   -0.1908    1.5115   -2.4340 O   0  0  0  0  0  0  0  0  0  0  0  0
    3.9920   -0.3301   -0.2978 C   0  0  0  0  0  0  0  0  0  0  0  0
    5.7990   -2.0525   -0.8502 H   0  0  0  0  0  0  0  0  0  0  0  0
    7.1425   -1.0421   -0.2206 H   0  0  0  0  0  0  0  0  0  0  0  0
    6.2061   -2.1806    0.8796 H   0  0  0  0  0  0  0  0  0  0  0  0
    6.6123    0.6241    1.6218 H   0  0  0  0  0  0  0  0  0  0  0  0
    5.1072    2.5023    2.0766 H   0  0  0  0  0  0  0  0  0  0  0  0
    2.9028    2.5871    1.0315 H   0  0  0  0  0  0  0  0  0  0  0  0
    1.7882    1.3255   -1.5273 H   0  0  0  0  0  0  0  0  0  0  0  0
   -1.4673   -0.7045    1.1480 H   0  0  0  0  0  0  0  0  0  0  0  0
   -3.8175   -1.2409    1.4223 H   0  0  0  0  0  0  0  0  0  0  0  0
   -7.1453   -1.8916    0.2229 H   0  0  0  0  0  0  0  0  0  0  0  0
   -5.9203   -2.1270    1.5341 H   0  0  0  0  0  0  0  0  0  0  0  0
   -6.9218   -0.6276    1.5534 H   0  0  0  0  0  0  0  0  0  0  0  0
   -6.6572   -0.0628   -1.5040 H   0  0  0  0  0  0  0  0  0  0  0  0
   -4.8380    0.9809   -2.8372 H   0  0  0  0  0  0  0  0  0  0  0  0
    3.6395   -1.1048   -0.9709 H   0  0  0  0  0  0  0  0  0  0  0  0
  1  2  1  0
  2  3  2  0
  3  4  1  0
  4  5  2  0
  5  6  1  0
  6  7  1  0
  7  8  1  0
  8  9  2  0
  8 10  1  0
 10 11  2  0
 11 12  1  0
 12 13  2  0
 13 14  1  0
 14 15  1  0
 14 16  2  0
 16 17  1  0
 17 18  2  0
 18 19  1  0
 19 20  1  0
 20 21  2  0
  6 22  2  0
 22  2  1  0
 20 10  1  0
 18 12  1  0
  1 23  1  0
  1 24  1  0
  1 25  1  0
  3 26  1  0
  4 27  1  0
  5 28  1  0
  7 29  1  0
 11 30  1  0
 13 31  1  0
 15 32  1  0
 15 33  1  0
 15 34  1  0
 16 35  1  0
 17 36  1  0
 22 37  1  0
M  END
$$$$
