
     RDKit          3D

 34 35  0  0  0  0  0  0  0  0999 V2000
    1.2400   -1.5281   -1.5368 O   0  0  0  0  0  0  0  0  0  0  0  0
    1.2771   -0.7441   -0.5596 C   0  0  0  0  0  0  0  0  0  0  0  0
    0.1913    0.2297   -0.3577 C   0  0  0  0  0  0  0  0  0  0  0  0
   -1.1911    0.2570   -1.4553 S   0  0  0  0  0  0  0  0  0  0  0  0
   -1.3172   -1.2326   -2.4259 C   0  0  0  0  0  0  0  0  0  0  0  0
   -1.7337   -2.4601   -1.6360 C   0  0  0  0  0  0  0  0  0  0  0  0
   -3.0044   -2.2207   -1.0878 O   0  0  0  0  0  0  0  0  0  0  0  0
    0.2013    1.0857    0.6697 C   0  0  0  0  0  0  0  0  0  0  0  0
   -1.0646    2.2736    0.9668 S   0  0  0  0  0  0  0  0  0  0  0  0
   -2.3586    2.2804   -0.2417 C   0  0  0  0  0  0  0  0  0  0  0  0
   -3.4055    3.3785    0.1354 C   0  0  0  0  0  0  0  0  0  0  0  0
   -3.9286    3.0900    1.3791 O   0  0  0  0  0  0  0  0  0  0  0  0
    1.3436    1.0524    1.6423 C   0  0  0  0  0  0  0  0  0  0  0  0
    1.3324    1.8672    2.6036 O   0  0  0  0  0  0  0  0  0  0  0  0
    2.3967    0.1084    1.4503 C   0  0  0  0  0  0  0  0  0  0  0  0
    3.4590    0.0633    2.3391 C   0  0  0  0  0  0  0  0  0  0  0  0
    4.4478   -0.8603    2.1144 C   0  0  0  0  0  0  0  0  0  0  0  0
    4.4382   -1.7394    1.0567 C   0  0  0  0  0  0  0  0  0  0  0  0
    3.3821   -1.6888    0.1799 C   0  0  0  0  0  0  0  0  0  0  0  0
    2.3787   -0.7649    0.3922 C   0  0  0  0  0  0  0  0  0  0  0  0
   -0.4185   -1.5164   -3.0047 H   0  0  0  0  0  0  0  0  0  0  0  0
   -2.1286   -1.0540   -3.2274 H   0  0  0  0  0  0  0  0  0  0  0  0
   -1.7367   -3.3075   -2.3509 H   0  0  0  0  0  0  0  0  0  0  0  0
   -1.0257   -2.5982   -0.8102 H   0  0  0  0  0  0  0  0  0  0  0  0
   -3.3144   -3.0830   -0.6840 H   0  0  0  0  0  0  0  0  0  0  0  0
   -2.0345    2.4901   -1.2922 H   0  0  0  0  0  0  0  0  0  0  0  0
   -2.9546    1.3447   -0.2677 H   0  0  0  0  0  0  0  0  0  0  0  0
   -2.8594    4.3323    0.1829 H   0  0  0  0  0  0  0  0  0  0  0  0
   -4.1581    3.3434   -0.6498 H   0  0  0  0  0  0  0  0  0  0  0  0
   -4.7853    2.5720    1.2803 H   0  0  0  0  0  0  0  0  0  0  0  0
    3.4613    0.7439    3.1531 H   0  0  0  0  0  0  0  0  0  0  0  0
    5.2867   -0.9122    2.7968 H   0  0  0  0  0  0  0  0  0  0  0  0
    5.2630   -2.4621    0.9265 H   0  0  0  0  0  0  0  0  0  0  0  0
    3.3201   -2.3402   -0.6526 H   0  0  0  0  0  0  0  0  0  0  0  0
  1  2  2  0
  2  3  1  0
  3  4  1  0
  4  5  1  0
  5  6  1  0
  6  7  1  0
  3  8  2  0
  8  9  1  0
  9 10  1  0
 10 11  1  0
 11 12  1  0
  8 13  1  0
 13 14  2  0
 13 15  1  0
 15 16  2  0
 16 17  1  0
 17 18  2  0
 18 19  1  0
 19 20  2  0
 20  2  1  0
 20 15  1  0
  5 21  1  0
  5 22  1  0
  6 23  1  0
  6 24  1  0
  7 25  1  0
 10 26  1  0
 10 27  1  0
 11 28  1  0
 11 29  1  0
 12 30  1  0
 16 31  1  0
 17 32  1  0
 18 33  1  0
 19 34  1  0
M  END
$$$$
