
     RDKit          3D

 54 56  0  0  0  0  0  0  0  0999 V2000
   -1.8819    0.1122   -0.0671 C   0  0  1  0  0  0  0  0  0  0  0  0
   -2.7080   -0.7409    0.8596 C   0  0  0  0  0  0  0  0  0  0  0  0
   -4.1019   -0.7577    0.3647 C   0  0  0  0  0  0  0  0  0  0  0  0
   -4.3493   -1.7664   -0.5106 N   0  0  0  0  0  0  0  0  0  0  0  0
   -5.5650   -1.9333   -1.0584 C   0  0  0  0  0  0  0  0  0  0  0  0
   -5.8149   -2.9989   -1.9762 N   0  0  0  0  0  0  0  0  0  0  0  0
   -6.5947   -1.0746   -0.7389 C   0  0  0  0  0  0  0  0  0  0  0  0
   -6.3700   -0.0399    0.1496 C   0  0  0  0  0  0  0  0  0  0  0  0
   -7.4270    0.9065    0.5272 C   0  0  0  0  0  0  0  0  0  0  0  0
   -5.1055    0.1234    0.7111 C   0  0  0  0  0  0  0  0  0  0  0  0
   -2.3808    1.5383   -0.1310 C   0  0  0  0  0  0  0  0  0  0  0  0
   -2.0619    1.9779    1.2122 N   0  0  0  0  0  0  0  0  0  0  0  0
   -0.6940    1.5235    1.3753 C   0  0  0  0  0  0  0  0  0  0  0  0
   -0.4857    0.3457    0.4774 C   0  0  2  0  0  0  0  0  0  0  0  0
    0.3320    0.6189   -0.6716 N   0  0  0  0  0  0  0  0  0  0  0  0
    1.7340    0.8076   -0.3795 C   0  0  0  0  0  0  0  0  0  0  0  0
    2.3834   -0.4849    0.0857 C   0  0  0  0  0  0  0  0  0  0  0  0
    3.7921   -0.3405    0.3849 N   0  0  0  0  0  0  0  0  0  0  0  0
    4.5734   -0.0919   -0.8046 C   0  0  0  0  0  0  0  0  0  0  0  0
    6.0274    0.0153   -0.4991 C   0  0  0  0  0  0  0  0  0  0  0  0
    6.6369   -1.2371   -0.5753 C   0  0  0  0  0  0  0  0  0  0  0  0
    7.9826   -1.4204   -0.3366 C   0  0  0  0  0  0  0  0  0  0  0  0
    8.7891   -2.9727   -0.4193 Cl  0  0  0  0  0  0  0  0  0  0  0  0
    8.7190   -0.2790   -0.0100 C   0  0  0  0  0  0  0  0  0  0  0  0
    8.1182    0.9580    0.0653 C   0  0  0  0  0  0  0  0  0  0  0  0
    6.7556    1.1210   -0.1801 C   0  0  0  0  0  0  0  0  0  0  0  0
   -1.8287   -0.3481   -1.0803 H   0  0  0  0  0  0  0  0  0  0  0  0
   -2.6597   -0.2892    1.8748 H   0  0  0  0  0  0  0  0  0  0  0  0
   -2.2599   -1.7405    0.8946 H   0  0  0  0  0  0  0  0  0  0  0  0
   -6.3232   -3.9179   -1.8393 H   0  0  0  0  0  0  0  0  0  0  0  0
   -5.5161   -3.0385   -2.9837 H   0  0  0  0  0  0  0  0  0  0  0  0
   -7.5627   -1.2303   -1.1918 H   0  0  0  0  0  0  0  0  0  0  0  0
   -8.1141    1.0924   -0.3342 H   0  0  0  0  0  0  0  0  0  0  0  0
   -7.0197    1.9300    0.7747 H   0  0  0  0  0  0  0  0  0  0  0  0
   -8.0170    0.6242    1.4125 H   0  0  0  0  0  0  0  0  0  0  0  0
   -4.8274    0.8874    1.4028 H   0  0  0  0  0  0  0  0  0  0  0  0
   -1.7498    2.1178   -0.8091 H   0  0  0  0  0  0  0  0  0  0  0  0
   -3.4284    1.6240   -0.4120 H   0  0  0  0  0  0  0  0  0  0  0  0
   -2.1756    3.0065    1.3511 H   0  0  0  0  0  0  0  0  0  0  0  0
   -0.0298    2.3854    1.1822 H   0  0  0  0  0  0  0  0  0  0  0  0
   -0.5346    1.2138    2.4297 H   0  0  0  0  0  0  0  0  0  0  0  0
   -0.1910   -0.5613    1.0445 H   0  0  0  0  0  0  0  0  0  0  0  0
    0.2810   -0.2293   -1.2824 H   0  0  0  0  0  0  0  0  0  0  0  0
    1.9506    1.6442    0.3085 H   0  0  0  0  0  0  0  0  0  0  0  0
    2.2155    1.0765   -1.3431 H   0  0  0  0  0  0  0  0  0  0  0  0
    2.3266   -1.2657   -0.7055 H   0  0  0  0  0  0  0  0  0  0  0  0
    1.8225   -0.8915    0.9399 H   0  0  0  0  0  0  0  0  0  0  0  0
    3.9459    0.4606    1.0385 H   0  0  0  0  0  0  0  0  0  0  0  0
    4.2683    0.9347   -1.1598 H   0  0  0  0  0  0  0  0  0  0  0  0
    4.3476   -0.7722   -1.6451 H   0  0  0  0  0  0  0  0  0  0  0  0
    6.1431   -2.1859   -0.8228 H   0  0  0  0  0  0  0  0  0  0  0  0
    9.7858   -0.3447    0.1932 H   0  0  0  0  0  0  0  0  0  0  0  0
    8.6602    1.8678    0.3161 H   0  0  0  0  0  0  0  0  0  0  0  0
    6.1873    2.0397   -0.1486 H   0  0  0  0  0  0  0  0  0  0  0  0
  1  2  1  0
  2  3  1  0
  3  4  2  0
  4  5  1  0
  5  6  1  0
  5  7  2  0
  7  8  1  0
  8  9  1  0
  8 10  2  0
  1 11  1  0
 11 12  1  0
 12 13  1  0
 13 14  1  0
 14 15  1  0
 15 16  1  0
 16 17  1  0
 17 18  1  0
 18 19  1  0
 19 20  1  0
 20 21  2  0
 21 22  1  0
 22 23  1  0
 22 24  2  0
 24 25  1  0
 25 26  2  0
 14  1  1  0
 26 20  1  0
 10  3  1  0
  1 27  1  6
  2 28  1  0
  2 29  1  0
  6 30  1  0
  6 31  1  0
  7 32  1  0
  9 33  1  0
  9 34  1  0
  9 35  1  0
 10 36  1  0
 11 37  1  0
 11 38  1  0
 12 39  1  0
 13 40  1  0
 13 41  1  0
 14 42  1  1
 15 43  1  0
 16 44  1  0
 16 45  1  0
 17 46  1  0
 17 47  1  0
 18 48  1  0
 19 49  1  0
 19 50  1  0
 21 51  1  0
 24 52  1  0
 25 53  1  0
 26 54  1  0
M  END
$$$$
