
     RDKit          3D

 44 46  0  0  0  0  0  0  0  0999 V2000
   -7.5495    0.9710    0.0297 C   0  0  0  0  0  0  0  0  0  0  0  0
   -6.2128    0.4892   -0.4213 C   0  0  0  0  0  0  0  0  0  0  0  0
   -5.1406    0.8305    0.5517 C   0  0  0  0  0  0  0  0  0  0  0  0
   -5.4323    1.4176    1.6206 O   0  0  0  0  0  0  0  0  0  0  0  0
   -3.7899    0.4929    0.2733 N   0  0  0  0  0  0  0  0  0  0  0  0
   -2.4444    0.8264    1.3211 S   0  0  0  0  0  0  0  0  0  0  0  0
   -2.3808    2.2812    1.6229 O   0  0  0  0  0  0  0  0  0  0  0  0
   -2.6550    0.1000    2.6402 O   0  0  0  0  0  0  0  0  0  0  0  0
   -0.9953    0.2711    0.5201 C   0  0  0  0  0  0  0  0  0  0  0  0
   -0.5190   -1.0182    0.5375 C   0  0  0  0  0  0  0  0  0  0  0  0
    0.6312   -1.4443   -0.0970 C   0  0  0  0  0  0  0  0  0  0  0  0
    1.3145   -0.4380   -0.7922 C   0  0  0  0  0  0  0  0  0  0  0  0
    0.8824    0.8924   -0.8488 C   0  0  0  0  0  0  0  0  0  0  0  0
   -0.2851    1.2437   -0.1835 C   0  0  0  0  0  0  0  0  0  0  0  0
    2.5354   -0.8975   -1.4758 C   0  0  0  0  0  0  0  0  0  0  0  0
    2.4853   -1.5003   -2.7426 C   0  0  0  0  0  0  0  0  0  0  0  0
    1.2180   -1.7421   -3.5225 C   0  0  0  0  0  0  0  0  0  0  0  0
    3.7184   -1.7985   -3.0955 O   0  0  0  0  0  0  0  0  0  0  0  0
    4.5673   -1.4456   -2.1765 N   0  0  0  0  0  0  0  0  0  0  0  0
    3.9021   -0.8943   -1.1721 C   0  0  0  0  0  0  0  0  0  0  0  0
    4.2901   -0.3134    0.1172 C   0  0  0  0  0  0  0  0  0  0  0  0
    5.1272    0.7849    0.1006 C   0  0  0  0  0  0  0  0  0  0  0  0
    5.5161    1.3619    1.3062 C   0  0  0  0  0  0  0  0  0  0  0  0
    5.0388    0.8000    2.4828 C   0  0  0  0  0  0  0  0  0  0  0  0
    4.1912   -0.3127    2.5017 C   0  0  0  0  0  0  0  0  0  0  0  0
    3.8135   -0.8756    1.2775 C   0  0  0  0  0  0  0  0  0  0  0  0
   -8.0006    1.5933   -0.7764 H   0  0  0  0  0  0  0  0  0  0  0  0
   -7.5452    1.5398    0.9593 H   0  0  0  0  0  0  0  0  0  0  0  0
   -8.1985    0.0752    0.2348 H   0  0  0  0  0  0  0  0  0  0  0  0
   -5.9702    0.8854   -1.4069 H   0  0  0  0  0  0  0  0  0  0  0  0
   -6.1724   -0.6300   -0.5170 H   0  0  0  0  0  0  0  0  0  0  0  0
   -3.6328    0.0073   -0.6398 H   0  0  0  0  0  0  0  0  0  0  0  0
   -1.1309   -1.7358    1.1105 H   0  0  0  0  0  0  0  0  0  0  0  0
    0.9802   -2.4479   -0.0691 H   0  0  0  0  0  0  0  0  0  0  0  0
    1.5252    1.5383   -1.4272 H   0  0  0  0  0  0  0  0  0  0  0  0
   -0.5608    2.2801   -0.2661 H   0  0  0  0  0  0  0  0  0  0  0  0
    1.5316   -2.2579   -4.4525 H   0  0  0  0  0  0  0  0  0  0  0  0
    0.7584   -0.8018   -3.8396 H   0  0  0  0  0  0  0  0  0  0  0  0
    0.5370   -2.4200   -2.9862 H   0  0  0  0  0  0  0  0  0  0  0  0
    5.4695    1.1829   -0.8521 H   0  0  0  0  0  0  0  0  0  0  0  0
    6.1732    2.2236    1.2968 H   0  0  0  0  0  0  0  0  0  0  0  0
    5.3796    1.2991    3.3777 H   0  0  0  0  0  0  0  0  0  0  0  0
    3.8776   -0.6708    3.4748 H   0  0  0  0  0  0  0  0  0  0  0  0
    3.1521   -1.7430    1.3096 H   0  0  0  0  0  0  0  0  0  0  0  0
  1  2  1  0
  2  3  1  0
  3  4  2  0
  3  5  1  0
  5  6  1  0
  6  7  2  0
  6  8  2  0
  6  9  1  0
  9 10  2  0
 10 11  1  0
 11 12  2  0
 12 13  1  0
 13 14  2  0
 12 15  1  0
 15 16  2  0
 16 17  1  0
 16 18  1  0
 18 19  1  0
 19 20  2  0
 20 21  1  0
 21 22  2  0
 22 23  1  0
 23 24  2  0
 24 25  1  0
 25 26  2  0
 14  9  1  0
 20 15  1  0
 26 21  1  0
  1 27  1  0
  1 28  1  0
  1 29  1  0
  2 30  1  0
  2 31  1  0
  5 32  1  0
 10 33  1  0
 11 34  1  0
 13 35  1  0
 14 36  1  0
 17 37  1  0
 17 38  1  0
 17 39  1  0
 22 40  1  0
 23 41  1  0
 24 42  1  0
 25 43  1  0
 26 44  1  0
M  END
$$$$
