
     RDKit          3D

 25 27  0  0  0  0  0  0  0  0999 V2000
    3.6846    0.5177   -2.9049 O   0  0  0  0  0  0  0  0  0  0  0  0
    3.6131    0.2989   -1.6430 C   0  0  0  0  0  0  0  0  0  0  0  0
    4.7221    0.2360   -0.8252 N   0  0  0  0  0  0  0  0  0  0  0  0
    4.5771    0.0179    0.4028 C   0  0  0  0  0  0  0  0  0  0  0  0
    5.5729   -0.0743    1.3474 O   0  0  0  0  0  0  0  0  0  0  0  0
    2.8277   -0.1557    0.7212 S   0  0  0  0  0  0  0  0  0  0  0  0
    2.3273    0.1003   -0.9900 C   0  0  0  0  0  0  0  0  0  0  0  0
    1.1146    0.1091   -1.5045 C   0  0  0  0  0  0  0  0  0  0  0  0
   -0.0475   -0.1134   -0.6697 C   0  0  0  0  0  0  0  0  0  0  0  0
   -0.0751   -1.0238    0.3599 C   0  0  0  0  0  0  0  0  0  0  0  0
   -1.2133   -1.2051    1.1431 C   0  0  0  0  0  0  0  0  0  0  0  0
   -2.3537   -0.4699    0.9051 C   0  0  0  0  0  0  0  0  0  0  0  0
   -3.4714   -0.6162    1.6391 N   0  0  0  0  0  0  0  0  0  0  0  0
   -4.5797    0.1031    1.4023 C   0  0  0  0  0  0  0  0  0  0  0  0
   -4.5705    1.0207    0.3739 C   0  0  0  0  0  0  0  0  0  0  0  0
   -3.4777    1.1896   -0.3725 N   0  0  0  0  0  0  0  0  0  0  0  0
   -2.3520    0.4546   -0.1272 C   0  0  0  0  0  0  0  0  0  0  0  0
   -1.2191    0.6091   -0.8778 C   0  0  0  0  0  0  0  0  0  0  0  0
    6.5345   -0.3645    1.1072 H   0  0  0  0  0  0  0  0  0  0  0  0
    1.0239    0.2875   -2.5670 H   0  0  0  0  0  0  0  0  0  0  0  0
    0.7733   -1.6218    0.5886 H   0  0  0  0  0  0  0  0  0  0  0  0
   -1.2445   -1.9183    1.9543 H   0  0  0  0  0  0  0  0  0  0  0  0
   -5.4605   -0.0468    2.0194 H   0  0  0  0  0  0  0  0  0  0  0  0
   -5.4905    1.5869    0.2116 H   0  0  0  0  0  0  0  0  0  0  0  0
   -1.2157    1.3394   -1.6942 H   0  0  0  0  0  0  0  0  0  0  0  0
  1  2  2  0
  2  3  1  0
  3  4  2  0
  4  5  1  0
  4  6  1  0
  6  7  1  0
  7  8  2  3
  8  9  1  0
  9 10  2  0
 10 11  1  0
 11 12  2  0
 12 13  1  0
 13 14  2  0
 14 15  1  0
 15 16  2  0
 16 17  1  0
 17 18  2  0
  7  2  1  0
 18  9  1  0
 17 12  1  0
  5 19  1  0
  8 20  1  0
 10 21  1  0
 11 22  1  0
 14 23  1  0
 15 24  1  0
 18 25  1  0
M  END
$$$$
