
     RDKit          3D

 78 83  0  0  0  0  0  0  0  0999 V2000
   -9.3850   -1.6952   -1.6796 C   0  0  0  0  0  0  0  0  0  0  0  0
   -9.8611   -0.4352   -2.1223 O   0  0  0  0  0  0  0  0  0  0  0  0
   -9.1605    0.7338   -1.9504 C   0  0  0  0  0  0  0  0  0  0  0  0
   -7.9389    0.6919   -1.3151 C   0  0  0  0  0  0  0  0  0  0  0  0
   -7.2609    1.8953   -1.1625 C   0  0  0  0  0  0  0  0  0  0  0  0
   -5.9654    1.9344   -0.4982 C   0  0  0  0  0  0  0  0  0  0  0  0
   -5.5703    3.0501    0.2002 C   0  0  0  0  0  0  0  0  0  0  0  0
   -4.3417    3.1244    0.8417 C   0  0  0  0  0  0  0  0  0  0  0  0
   -3.5009    2.0300    0.7645 C   0  0  0  0  0  0  0  0  0  0  0  0
   -3.8877    0.8846    0.0591 C   0  0  0  0  0  0  0  0  0  0  0  0
   -5.1193    0.8530   -0.5654 C   0  0  0  0  0  0  0  0  0  0  0  0
   -3.2024   -0.3451   -0.1375 N   0  0  0  0  0  0  0  0  0  0  0  0
   -1.9963   -0.7863    0.4752 C   0  0  0  0  0  0  0  0  0  0  0  0
   -1.8125   -2.1437    0.3663 C   0  0  0  0  0  0  0  0  0  0  0  0
   -0.6862   -2.7080    0.9018 C   0  0  0  0  0  0  0  0  0  0  0  0
    0.2971   -1.9605    1.5611 C   0  0  0  0  0  0  0  0  0  0  0  0
    1.4689   -2.6158    2.1448 C   0  0  0  0  0  0  0  0  0  0  0  0
    1.3604   -2.5592    3.6896 C   0  0  0  0  0  0  0  0  0  0  0  0
    1.4168   -4.1241    1.8453 C   0  0  0  0  0  0  0  0  0  0  0  0
    2.7385   -2.0841    1.6900 C   0  0  0  0  0  0  0  0  0  0  0  0
    3.4414   -2.8155    0.8694 O   0  0  0  0  0  0  0  0  0  0  0  0
    3.3598   -0.8600    2.0036 N   0  0  0  0  0  0  0  0  0  0  0  0
    4.6332   -0.4873    1.4459 C   0  0  0  0  0  0  0  0  0  0  0  0
    5.8106   -0.7456    2.1077 C   0  0  0  0  0  0  0  0  0  0  0  0
    7.0194   -0.4034    1.5433 C   0  0  0  0  0  0  0  0  0  0  0  0
    7.1263    0.2117    0.2958 C   0  0  0  0  0  0  0  0  0  0  0  0
    8.3840    0.5507   -0.2392 N   0  0  0  0  0  0  0  0  0  0  0  0
    9.5433    0.6285    0.6213 C   0  0  0  0  0  0  0  0  0  0  0  0
   10.7549    1.1077   -0.1979 C   0  0  0  0  0  0  0  0  0  0  0  0
   10.9282    0.4234   -1.3652 O   0  0  0  0  0  0  0  0  0  0  0  0
    9.8241   -0.0565   -2.0004 C   0  0  0  0  0  0  0  0  0  0  0  0
    8.6106    0.8151   -1.6409 C   0  0  0  0  0  0  0  0  0  0  0  0
    5.9311    0.4625   -0.3514 C   0  0  0  0  0  0  0  0  0  0  0  0
    4.7166    0.1211    0.2107 C   0  0  0  0  0  0  0  0  0  0  0  0
    0.0995   -0.6150    1.6613 C   0  0  0  0  0  0  0  0  0  0  0  0
   -1.0449   -0.0021    1.1239 C   0  0  0  0  0  0  0  0  0  0  0  0
   -1.0658    1.3970    1.3571 N   0  0  0  0  0  0  0  0  0  0  0  0
   -2.2481    2.2155    1.4452 C   0  0  0  0  0  0  0  0  0  0  0  0
   -2.1759    3.2010    2.2007 O   0  0  0  0  0  0  0  0  0  0  0  0
   -7.7731    3.0936   -1.6218 C   0  0  0  0  0  0  0  0  0  0  0  0
   -8.9887    3.1068   -2.2489 C   0  0  0  0  0  0  0  0  0  0  0  0
   -9.6780    1.9321   -2.4118 C   0  0  0  0  0  0  0  0  0  0  0  0
  -10.9527    1.9268   -3.0666 N   0  0  0  0  0  0  0  0  0  0  0  0
  -10.0205   -2.5158   -2.0331 H   0  0  0  0  0  0  0  0  0  0  0  0
   -9.3178   -1.6509   -0.5812 H   0  0  0  0  0  0  0  0  0  0  0  0
   -8.3558   -1.9201   -2.0451 H   0  0  0  0  0  0  0  0  0  0  0  0
   -7.4638   -0.1930   -0.9277 H   0  0  0  0  0  0  0  0  0  0  0  0
   -6.2135    3.9042    0.2689 H   0  0  0  0  0  0  0  0  0  0  0  0
   -4.0276    4.0004    1.3935 H   0  0  0  0  0  0  0  0  0  0  0  0
   -5.4015   -0.0377   -1.1034 H   0  0  0  0  0  0  0  0  0  0  0  0
   -3.6291   -1.0342   -0.8212 H   0  0  0  0  0  0  0  0  0  0  0  0
   -2.5774   -2.7172   -0.1447 H   0  0  0  0  0  0  0  0  0  0  0  0
   -0.5351   -3.7558    0.8210 H   0  0  0  0  0  0  0  0  0  0  0  0
    0.5936   -3.3122    3.9828 H   0  0  0  0  0  0  0  0  0  0  0  0
    2.3077   -2.8824    4.1251 H   0  0  0  0  0  0  0  0  0  0  0  0
    0.9913   -1.5869    4.0175 H   0  0  0  0  0  0  0  0  0  0  0  0
    1.5805   -4.3521    0.7931 H   0  0  0  0  0  0  0  0  0  0  0  0
    0.5448   -4.5764    2.3217 H   0  0  0  0  0  0  0  0  0  0  0  0
    2.3052   -4.5418    2.4110 H   0  0  0  0  0  0  0  0  0  0  0  0
    2.9248   -0.2109    2.6620 H   0  0  0  0  0  0  0  0  0  0  0  0
    5.7578   -1.2242    3.0814 H   0  0  0  0  0  0  0  0  0  0  0  0
    7.9655   -0.5992    2.0506 H   0  0  0  0  0  0  0  0  0  0  0  0
    9.8056   -0.3795    0.9802 H   0  0  0  0  0  0  0  0  0  0  0  0
    9.4155    1.3859    1.4231 H   0  0  0  0  0  0  0  0  0  0  0  0
   10.7086    2.2068   -0.3437 H   0  0  0  0  0  0  0  0  0  0  0  0
   11.6363    0.9370    0.4539 H   0  0  0  0  0  0  0  0  0  0  0  0
    9.6094   -1.1172   -1.6703 H   0  0  0  0  0  0  0  0  0  0  0  0
    9.9745   -0.1083   -3.0855 H   0  0  0  0  0  0  0  0  0  0  0  0
    7.7870    0.3961   -2.2841 H   0  0  0  0  0  0  0  0  0  0  0  0
    8.8602    1.8538   -1.8794 H   0  0  0  0  0  0  0  0  0  0  0  0
    5.9829    0.9488   -1.3387 H   0  0  0  0  0  0  0  0  0  0  0  0
    3.7895    0.3246   -0.3047 H   0  0  0  0  0  0  0  0  0  0  0  0
    0.7792    0.0620    2.1534 H   0  0  0  0  0  0  0  0  0  0  0  0
   -0.1421    1.8374    1.4731 H   0  0  0  0  0  0  0  0  0  0  0  0
   -7.2177    4.0099   -1.4877 H   0  0  0  0  0  0  0  0  0  0  0  0
   -9.4360    4.0087   -2.6263 H   0  0  0  0  0  0  0  0  0  0  0  0
  -11.6736    2.6038   -2.7065 H   0  0  0  0  0  0  0  0  0  0  0  0
  -11.1566    1.2881   -3.8511 H   0  0  0  0  0  0  0  0  0  0  0  0
  1  2  1  0
  2  3  1  0
  3  4  2  0
  4  5  1  0
  5  6  1  0
  6  7  2  0
  7  8  1  0
  8  9  2  0
  9 10  1  0
 10 11  2  0
 10 12  1  0
 12 13  1  0
 13 14  2  0
 14 15  1  0
 15 16  2  0
 16 17  1  0
 17 18  1  0
 17 19  1  0
 17 20  1  0
 20 21  2  0
 20 22  1  0
 22 23  1  0
 23 24  2  0
 24 25  1  0
 25 26  2  0
 26 27  1  0
 27 28  1  0
 28 29  1  0
 29 30  1  0
 30 31  1  0
 31 32  1  0
 26 33  1  0
 33 34  2  0
 16 35  1  0
 35 36  2  0
 36 37  1  0
 37 38  1  0
 38 39  2  0
  5 40  2  0
 40 41  1  0
 41 42  2  0
 42 43  1  0
 42  3  1  0
 11  6  1  0
 36 13  1  0
 38  9  1  0
 34 23  1  0
 32 27  1  0
  1 44  1  0
  1 45  1  0
  1 46  1  0
  4 47  1  0
  7 48  1  0
  8 49  1  0
 11 50  1  0
 12 51  1  0
 14 52  1  0
 15 53  1  0
 18 54  1  0
 18 55  1  0
 18 56  1  0
 19 57  1  0
 19 58  1  0
 19 59  1  0
 22 60  1  0
 24 61  1  0
 25 62  1  0
 28 63  1  0
 28 64  1  0
 29 65  1  0
 29 66  1  0
 31 67  1  0
 31 68  1  0
 32 69  1  0
 32 70  1  0
 33 71  1  0
 34 72  1  0
 35 73  1  0
 37 74  1  0
 40 75  1  0
 41 76  1  0
 43 77  1  0
 43 78  1  0
M  END
$$$$
