
     RDKit          3D

 66 69  0  0  0  0  0  0  0  0999 V2000
   -0.0571    0.6884   -2.5789 C   0  0  0  0  0  0  0  0  0  0  0  0
    0.3551   -0.4594   -1.6149 C   0  0  1  0  0  0  0  0  0  0  0  0
    1.7317   -0.2344   -1.1454 C   0  0  0  0  0  0  0  0  0  0  0  0
    2.7067   -1.1927   -1.4540 C   0  0  0  0  0  0  0  0  0  0  0  0
    4.0249   -1.0574   -1.0790 C   0  0  0  0  0  0  0  0  0  0  0  0
    4.4543    0.0447   -0.3712 C   0  0  0  0  0  0  0  0  0  0  0  0
    5.8595    0.1928    0.0311 C   0  0  0  0  0  0  0  0  0  0  0  0
    6.4633    1.4261    0.1489 C   0  0  0  0  0  0  0  0  0  0  0  0
    7.7724    1.5825    0.5225 C   0  0  0  0  0  0  0  0  0  0  0  0
    8.5098    0.4905    0.7883 N   0  0  0  0  0  0  0  0  0  0  0  0
    9.8965    0.6389    1.1847 C   0  0  0  0  0  0  0  0  0  0  0  0
    7.9526   -0.7375    0.6837 C   0  0  0  0  0  0  0  0  0  0  0  0
    8.6968   -1.7151    0.9460 O   0  0  0  0  0  0  0  0  0  0  0  0
    6.6420   -0.9207    0.3110 C   0  0  0  0  0  0  0  0  0  0  0  0
    3.5113    0.9980   -0.0587 C   0  0  0  0  0  0  0  0  0  0  0  0
    2.1704    0.8596   -0.4409 C   0  0  0  0  0  0  0  0  0  0  0  0
   -0.6415   -0.5451   -0.5661 N   0  0  0  0  0  0  0  0  0  0  0  0
   -0.8013    0.4280    0.4901 C   0  0  0  0  0  0  0  0  0  0  0  0
   -1.9495    0.0645    1.3824 C   0  0  0  0  0  0  0  0  0  0  0  0
   -3.2158   -0.2857    0.5852 C   0  0  2  0  0  0  0  0  0  0  0  0
   -3.4108    0.7790   -0.4106 C   0  0  0  0  0  0  0  0  0  0  0  0
   -4.5566    0.7242   -1.3407 C   0  0  0  0  0  0  0  0  0  0  0  0
   -5.9219    0.7286   -0.7290 C   0  0  0  0  0  0  0  0  0  0  0  0
   -4.4380   -0.3768   -2.3820 C   0  0  0  0  0  0  0  0  0  0  0  0
   -4.4908    1.9248   -2.1024 O   0  0  0  0  0  0  0  0  0  0  0  0
   -4.3182   -0.6345    1.4618 C   0  0  0  0  0  0  0  0  0  0  0  0
   -4.8224   -1.9152    1.5406 C   0  0  0  0  0  0  0  0  0  0  0  0
   -5.8495   -2.2939    2.3546 C   0  0  0  0  0  0  0  0  0  0  0  0
   -6.4324   -1.3393    3.1591 C   0  0  0  0  0  0  0  0  0  0  0  0
   -5.9717   -0.0401    3.1249 C   0  0  0  0  0  0  0  0  0  0  0  0
   -4.9280    0.2915    2.2821 C   0  0  0  0  0  0  0  0  0  0  0  0
   -4.5107    1.5603    2.2781 F   0  0  0  0  0  0  0  0  0  0  0  0
   -2.8364   -1.4901   -0.1173 O   0  0  0  0  0  0  0  0  0  0  0  0
   -1.5273   -1.6624   -0.5495 C   0  0  0  0  0  0  0  0  0  0  0  0
   -1.1122   -2.7970   -0.9285 O   0  0  0  0  0  0  0  0  0  0  0  0
   -0.2712    1.5956   -2.0097 H   0  0  0  0  0  0  0  0  0  0  0  0
   -0.8599    0.3381   -3.2268 H   0  0  0  0  0  0  0  0  0  0  0  0
    0.8484    0.8648   -3.1984 H   0  0  0  0  0  0  0  0  0  0  0  0
    0.2617   -1.3567   -2.2553 H   0  0  0  0  0  0  0  0  0  0  0  0
    2.3727   -2.0748   -2.0181 H   0  0  0  0  0  0  0  0  0  0  0  0
    4.7601   -1.8068   -1.3264 H   0  0  0  0  0  0  0  0  0  0  0  0
    5.9021    2.3288   -0.0567 H   0  0  0  0  0  0  0  0  0  0  0  0
    8.2185    2.5839    0.6053 H   0  0  0  0  0  0  0  0  0  0  0  0
   10.5581    0.6908    0.2992 H   0  0  0  0  0  0  0  0  0  0  0  0
   10.2343   -0.2017    1.8257 H   0  0  0  0  0  0  0  0  0  0  0  0
    9.9918    1.6001    1.7257 H   0  0  0  0  0  0  0  0  0  0  0  0
    6.1930   -1.9003    0.2263 H   0  0  0  0  0  0  0  0  0  0  0  0
    3.8456    1.8638    0.4966 H   0  0  0  0  0  0  0  0  0  0  0  0
    1.4831    1.6333   -0.1889 H   0  0  0  0  0  0  0  0  0  0  0  0
    0.1076    0.3778    1.1795 H   0  0  0  0  0  0  0  0  0  0  0  0
   -0.8864    1.4471    0.0644 H   0  0  0  0  0  0  0  0  0  0  0  0
   -2.1711    0.9808    1.9940 H   0  0  0  0  0  0  0  0  0  0  0  0
   -1.6350   -0.7836    2.0139 H   0  0  0  0  0  0  0  0  0  0  0  0
   -3.4688    1.7932    0.0972 H   0  0  0  0  0  0  0  0  0  0  0  0
   -2.4947    0.9057   -1.0615 H   0  0  0  0  0  0  0  0  0  0  0  0
   -6.0415    1.5833   -0.0389 H   0  0  0  0  0  0  0  0  0  0  0  0
   -6.2224   -0.2489   -0.3276 H   0  0  0  0  0  0  0  0  0  0  0  0
   -6.6972    0.9353   -1.5316 H   0  0  0  0  0  0  0  0  0  0  0  0
   -4.8447   -0.0409   -3.3734 H   0  0  0  0  0  0  0  0  0  0  0  0
   -5.0985   -1.2166   -2.0711 H   0  0  0  0  0  0  0  0  0  0  0  0
   -3.3995   -0.6738   -2.5671 H   0  0  0  0  0  0  0  0  0  0  0  0
   -5.3310    2.0144   -2.5996 H   0  0  0  0  0  0  0  0  0  0  0  0
   -4.3847   -2.7085    0.9140 H   0  0  0  0  0  0  0  0  0  0  0  0
   -6.2096   -3.3125    2.3805 H   0  0  0  0  0  0  0  0  0  0  0  0
   -7.2577   -1.6115    3.8226 H   0  0  0  0  0  0  0  0  0  0  0  0
   -6.4583    0.6746    3.7725 H   0  0  0  0  0  0  0  0  0  0  0  0
  1  2  1  0
  2  3  1  0
  3  4  2  0
  4  5  1  0
  5  6  2  0
  6  7  1  0
  7  8  1  0
  8  9  2  0
  9 10  1  0
 10 11  1  0
 10 12  1  0
 12 13  2  0
 12 14  1  0
  6 15  1  0
 15 16  2  0
  2 17  1  0
 17 18  1  0
 18 19  1  0
 19 20  1  0
 20 21  1  6
 21 22  1  0
 22 23  1  0
 22 24  1  0
 22 25  1  0
 20 26  1  0
 26 27  2  0
 27 28  1  0
 28 29  2  0
 29 30  1  0
 30 31  2  0
 31 32  1  0
 20 33  1  0
 33 34  1  0
 34 35  2  0
 16  3  1  0
 34 17  1  0
 14  7  2  0
 31 26  1  0
  1 36  1  0
  1 37  1  0
  1 38  1  0
  2 39  1  6
  4 40  1  0
  5 41  1  0
  8 42  1  0
  9 43  1  0
 11 44  1  0
 11 45  1  0
 11 46  1  0
 14 47  1  0
 15 48  1  0
 16 49  1  0
 18 50  1  0
 18 51  1  0
 19 52  1  0
 19 53  1  0
 21 54  1  0
 21 55  1  0
 23 56  1  0
 23 57  1  0
 23 58  1  0
 24 59  1  0
 24 60  1  0
 24 61  1  0
 25 62  1  0
 27 63  1  0
 28 64  1  0
 29 65  1  0
 30 66  1  0
M  END
$$$$
