
     RDKit          3D

 39 39  0  0  0  0  0  0  0  0999 V2000
    3.1888   -0.2886   -1.6636 O   0  0  0  0  0  0  0  0  0  0  0  0
    2.8567   -1.2517   -0.7366 C   0  0  0  0  0  0  0  0  0  0  0  0
    2.4762   -0.6465    0.5684 C   0  0  0  0  0  0  0  0  0  0  0  0
    3.7367    0.1420    1.0132 C   0  0  0  0  0  0  0  0  0  0  0  0
    3.8866    1.2258    0.1368 O   0  0  0  0  0  0  0  0  0  0  0  0
    1.4097    0.2485    0.6560 N   0  0  0  0  0  0  0  0  0  0  0  0
    0.0967   -0.0852    0.2790 C   0  0  1  0  0  0  0  0  0  0  0  0
   -0.9140    0.9037    0.9042 C   0  0  0  0  0  0  0  0  0  0  0  0
   -2.3170    0.4081    0.7344 C   0  0  2  0  0  0  0  0  0  0  0  0
   -3.1952    1.5044    0.6225 O   0  0  0  0  0  0  0  0  0  0  0  0
   -2.7994   -0.3797    1.9301 C   0  0  0  0  0  0  0  0  0  0  0  0
   -2.7409    0.4604    3.0618 O   0  0  0  0  0  0  0  0  0  0  0  0
   -2.3800   -0.4595   -0.5017 C   0  0  1  0  0  0  0  0  0  0  0  0
   -3.6801   -0.5350   -1.0060 O   0  0  0  0  0  0  0  0  0  0  0  0
   -1.4994    0.0380   -1.5965 C   0  0  2  0  0  0  0  0  0  0  0  0
   -1.6468   -0.7793   -2.7126 O   0  0  0  0  0  0  0  0  0  0  0  0
   -0.0277    0.0812   -1.2493 C   0  0  1  0  0  0  0  0  0  0  0  0
    0.5597    1.2695   -1.6797 O   0  0  0  0  0  0  0  0  0  0  0  0
    2.7239   -0.3841   -2.5165 H   0  0  0  0  0  0  0  0  0  0  0  0
    2.2342   -2.0803   -1.0965 H   0  0  0  0  0  0  0  0  0  0  0  0
    3.8578   -1.7856   -0.5147 H   0  0  0  0  0  0  0  0  0  0  0  0
    2.4259   -1.4934    1.3119 H   0  0  0  0  0  0  0  0  0  0  0  0
    4.6406   -0.4804    0.9136 H   0  0  0  0  0  0  0  0  0  0  0  0
    3.6082    0.5554    2.0129 H   0  0  0  0  0  0  0  0  0  0  0  0
    4.0044    2.0846    0.6010 H   0  0  0  0  0  0  0  0  0  0  0  0
    1.5276    1.0858    1.2387 H   0  0  0  0  0  0  0  0  0  0  0  0
   -0.2608   -1.0934    0.5202 H   0  0  0  0  0  0  0  0  0  0  0  0
   -0.6959    0.9853    1.9851 H   0  0  0  0  0  0  0  0  0  0  0  0
   -0.8339    1.9065    0.4564 H   0  0  0  0  0  0  0  0  0  0  0  0
   -4.0415    1.2086    0.1990 H   0  0  0  0  0  0  0  0  0  0  0  0
   -2.2132   -1.2877    2.1418 H   0  0  0  0  0  0  0  0  0  0  0  0
   -3.8379   -0.6964    1.7542 H   0  0  0  0  0  0  0  0  0  0  0  0
   -2.5417    1.3965    2.7808 H   0  0  0  0  0  0  0  0  0  0  0  0
   -2.1162   -1.4858   -0.1995 H   0  0  0  0  0  0  0  0  0  0  0  0
   -3.6832   -0.5160   -2.0156 H   0  0  0  0  0  0  0  0  0  0  0  0
   -1.8382    1.0599   -1.8731 H   0  0  0  0  0  0  0  0  0  0  0  0
   -1.5080   -1.7230   -2.4591 H   0  0  0  0  0  0  0  0  0  0  0  0
    0.4808   -0.7492   -1.7266 H   0  0  0  0  0  0  0  0  0  0  0  0
    1.0562    1.6369   -0.9102 H   0  0  0  0  0  0  0  0  0  0  0  0
  1  2  1  0
  2  3  1  0
  3  4  1  0
  4  5  1  0
  3  6  1  0
  6  7  1  0
  7  8  1  0
  8  9  1  0
  9 10  1  6
  9 11  1  0
 11 12  1  0
  9 13  1  0
 13 14  1  0
 13 15  1  0
 15 16  1  0
 15 17  1  0
 17 18  1  0
 17  7  1  0
  1 19  1  0
  2 20  1  0
  2 21  1  0
  3 22  1  0
  4 23  1  0
  4 24  1  0
  5 25  1  0
  6 26  1  0
  7 27  1  6
  8 28  1  0
  8 29  1  0
 10 30  1  0
 11 31  1  0
 11 32  1  0
 12 33  1  0
 13 34  1  1
 14 35  1  0
 15 36  1  6
 16 37  1  0
 17 38  1  6
 18 39  1  0
M  END
$$$$
