
     RDKit          3D

 48 50  0  0  0  0  0  0  0  0999 V2000
    4.8029   -1.7711    0.0622 C   0  0  0  0  0  0  0  0  0  0  0  0
    4.9599   -0.3239   -0.1217 C   0  0  0  0  0  0  0  0  0  0  0  0
    6.1454    0.2054   -0.5697 C   0  0  0  0  0  0  0  0  0  0  0  0
    6.2723    1.5667   -0.7346 C   0  0  0  0  0  0  0  0  0  0  0  0
    7.4929    2.1553   -1.1999 C   0  0  0  0  0  0  0  0  0  0  0  0
    8.4824    2.6455   -1.5686 N   0  0  0  0  0  0  0  0  0  0  0  0
    5.1897    2.3726   -0.4412 C   0  0  0  0  0  0  0  0  0  0  0  0
    4.0525    1.8573   -0.0109 N   0  0  0  0  0  0  0  0  0  0  0  0
    3.9025    0.5065    0.1609 C   0  0  0  0  0  0  0  0  0  0  0  0
    2.6358   -0.0337    0.6382 C   0  0  0  0  0  0  0  0  0  0  0  0
    2.5243   -1.2714    0.7854 O   0  0  0  0  0  0  0  0  0  0  0  0
    1.5104    0.7606    0.9498 N   0  0  0  0  0  0  0  0  0  0  0  0
    0.2759    0.2562    1.4136 C   0  0  0  0  0  0  0  0  0  0  0  0
    0.1148    0.1334    2.7790 C   0  0  0  0  0  0  0  0  0  0  0  0
   -1.0441   -0.3472    3.3549 C   0  0  0  0  0  0  0  0  0  0  0  0
   -1.2094   -0.4874    5.0937 Cl  0  0  0  0  0  0  0  0  0  0  0  0
   -2.0603   -0.7087    2.4878 C   0  0  0  0  0  0  0  0  0  0  0  0
   -3.1956   -1.1779    3.0156 F   0  0  0  0  0  0  0  0  0  0  0  0
   -1.9472   -0.6049    1.1266 C   0  0  0  0  0  0  0  0  0  0  0  0
   -3.0827   -1.0126    0.2684 C   0  0  2  0  0  0  0  0  0  0  0  0
   -3.4900   -2.4401    0.5561 C   0  0  0  0  0  0  0  0  0  0  0  0
   -2.8066   -0.9116   -1.1991 C   0  0  0  0  0  0  0  0  0  0  0  0
   -3.0090    0.4543   -1.7761 C   0  0  1  0  0  0  0  0  0  0  0  0
   -3.9718    0.4478   -2.9605 C   0  0  0  0  0  0  0  0  0  0  0  0
   -3.4648   -0.3615   -3.9394 F   0  0  0  0  0  0  0  0  0  0  0  0
   -5.2371    0.0450   -2.5869 F   0  0  0  0  0  0  0  0  0  0  0  0
   -4.0723    1.7633   -3.3991 F   0  0  0  0  0  0  0  0  0  0  0  0
   -3.5097    1.3930   -0.8574 O   0  0  0  0  0  0  0  0  0  0  0  0
   -4.4010    1.0064    0.1204 C   0  0  0  0  0  0  0  0  0  0  0  0
   -5.5049    1.7912    0.5542 N   0  0  0  0  0  0  0  0  0  0  0  0
   -4.2020   -0.1511    0.6674 N   0  0  0  0  0  0  0  0  0  0  0  0
   -0.7730   -0.1205    0.6009 C   0  0  0  0  0  0  0  0  0  0  0  0
    4.0827   -2.2508   -0.6291 H   0  0  0  0  0  0  0  0  0  0  0  0
    5.7908   -2.2484   -0.2118 H   0  0  0  0  0  0  0  0  0  0  0  0
    4.6711   -2.0801    1.1308 H   0  0  0  0  0  0  0  0  0  0  0  0
    6.9749   -0.4395   -0.7926 H   0  0  0  0  0  0  0  0  0  0  0  0
    5.2474    3.4651   -0.5590 H   0  0  0  0  0  0  0  0  0  0  0  0
    1.6235    1.7914    0.8198 H   0  0  0  0  0  0  0  0  0  0  0  0
    0.9237    0.4212    3.4712 H   0  0  0  0  0  0  0  0  0  0  0  0
   -4.0865   -2.7795   -0.3383 H   0  0  0  0  0  0  0  0  0  0  0  0
   -2.5954   -3.1108    0.5644 H   0  0  0  0  0  0  0  0  0  0  0  0
   -4.1386   -2.5518    1.4239 H   0  0  0  0  0  0  0  0  0  0  0  0
   -3.5364   -1.5900   -1.7358 H   0  0  0  0  0  0  0  0  0  0  0  0
   -1.8145   -1.3004   -1.4802 H   0  0  0  0  0  0  0  0  0  0  0  0
   -2.0543    0.8575   -2.1692 H   0  0  0  0  0  0  0  0  0  0  0  0
   -6.4277    1.7866    0.0715 H   0  0  0  0  0  0  0  0  0  0  0  0
   -5.4174    2.4079    1.3889 H   0  0  0  0  0  0  0  0  0  0  0  0
   -0.6236   -0.0153   -0.4533 H   0  0  0  0  0  0  0  0  0  0  0  0
  1  2  1  0
  2  3  2  0
  3  4  1  0
  4  5  1  0
  5  6  3  0
  4  7  2  0
  7  8  1  0
  8  9  2  0
  9 10  1  0
 10 11  2  0
 10 12  1  0
 12 13  1  0
 13 14  2  0
 14 15  1  0
 15 16  1  0
 15 17  2  0
 17 18  1  0
 17 19  1  0
 19 20  1  0
 20 21  1  6
 20 22  1  0
 22 23  1  0
 23 24  1  0
 24 25  1  0
 24 26  1  0
 24 27  1  0
 23 28  1  0
 28 29  1  0
 29 30  1  0
 29 31  2  0
 19 32  2  0
  9  2  1  0
 32 13  1  0
 31 20  1  0
  1 33  1  0
  1 34  1  0
  1 35  1  0
  3 36  1  0
  7 37  1  0
 12 38  1  0
 14 39  1  0
 21 40  1  0
 21 41  1  0
 21 42  1  0
 22 43  1  0
 22 44  1  0
 23 45  1  6
 30 46  1  0
 30 47  1  0
 32 48  1  0
M  END
$$$$
