
     RDKit          3D

 57 60  0  0  0  0  0  0  0  0999 V2000
   -1.0955    6.7602    0.8015 C   0  0  0  0  0  0  0  0  0  0  0  0
   -1.6975    5.5939    0.1047 C   0  0  0  0  0  0  0  0  0  0  0  0
   -1.3834    4.2303    0.3164 C   0  0  0  0  0  0  0  0  0  0  0  0
   -2.1401    3.4662   -0.5083 C   0  0  0  0  0  0  0  0  0  0  0  0
   -2.2787    2.0365   -0.7487 C   0  0  0  0  0  0  0  0  0  0  0  0
   -3.4535    1.5546   -1.3417 C   0  0  0  0  0  0  0  0  0  0  0  0
   -3.6008    0.2709   -1.5787 N   0  0  0  0  0  0  0  0  0  0  0  0
   -2.6842   -0.6686   -1.2909 C   0  0  0  0  0  0  0  0  0  0  0  0
   -2.9232   -2.0412   -1.5785 N   0  0  0  0  0  0  0  0  0  0  0  0
   -3.5269   -2.9343   -0.6837 C   0  0  0  0  0  0  0  0  0  0  0  0
   -3.7281   -4.2484   -1.0265 C   0  0  0  0  0  0  0  0  0  0  0  0
   -4.3223   -5.1356   -0.1511 C   0  0  0  0  0  0  0  0  0  0  0  0
   -4.5608   -6.7978   -0.6232 Cl  0  0  0  0  0  0  0  0  0  0  0  0
   -4.7406   -4.7451    1.1055 C   0  0  0  0  0  0  0  0  0  0  0  0
   -4.5369   -3.4280    1.4441 C   0  0  0  0  0  0  0  0  0  0  0  0
   -5.0629   -2.9196    3.0352 Cl  0  0  0  0  0  0  0  0  0  0  0  0
   -3.9453   -2.5422    0.5741 C   0  0  0  0  0  0  0  0  0  0  0  0
   -1.5579   -0.2255   -0.7273 N   0  0  0  0  0  0  0  0  0  0  0  0
   -1.3322    1.0971   -0.4522 C   0  0  0  0  0  0  0  0  0  0  0  0
   -0.0554    1.4443    0.0451 N   0  0  0  0  0  0  0  0  0  0  0  0
    0.8962    0.3850    0.4145 C   0  0  0  0  0  0  0  0  0  0  0  0
    2.1314    1.0280    1.0669 C   0  0  0  0  0  0  0  0  0  0  0  0
    3.1437   -0.0259    1.3722 C   0  0  0  0  0  0  0  0  0  0  0  0
    3.7092   -0.5930    0.0872 C   0  0  0  0  0  0  0  0  0  0  0  0
    4.6288   -1.6574    0.3830 N   0  0  0  0  0  0  0  0  0  0  0  0
    5.7431   -1.2321    1.1931 C   0  0  0  0  0  0  0  0  0  0  0  0
    5.1855   -2.1193   -0.8962 C   0  0  0  0  0  0  0  0  0  0  0  0
    2.5537   -1.1712   -0.6794 C   0  0  0  0  0  0  0  0  0  0  0  0
    1.4167   -0.1932   -0.8904 C   0  0  0  0  0  0  0  0  0  0  0  0
   -2.8842    4.3452   -1.1891 O   0  0  0  0  0  0  0  0  0  0  0  0
   -2.6397    5.5494   -0.8488 N   0  0  0  0  0  0  0  0  0  0  0  0
   -1.9560    7.4050    1.1366 H   0  0  0  0  0  0  0  0  0  0  0  0
   -0.5971    6.4028    1.7151 H   0  0  0  0  0  0  0  0  0  0  0  0
   -0.4255    7.3383    0.1266 H   0  0  0  0  0  0  0  0  0  0  0  0
   -0.6778    3.9259    1.0566 H   0  0  0  0  0  0  0  0  0  0  0  0
   -4.2026    2.3102   -1.5759 H   0  0  0  0  0  0  0  0  0  0  0  0
   -2.6242   -2.3833   -2.5158 H   0  0  0  0  0  0  0  0  0  0  0  0
   -3.4058   -4.5916   -2.0216 H   0  0  0  0  0  0  0  0  0  0  0  0
   -5.2073   -5.4242    1.8044 H   0  0  0  0  0  0  0  0  0  0  0  0
   -3.7936   -1.5154    0.8553 H   0  0  0  0  0  0  0  0  0  0  0  0
    0.2908    2.3836    0.1405 H   0  0  0  0  0  0  0  0  0  0  0  0
    0.4373   -0.3654    1.0491 H   0  0  0  0  0  0  0  0  0  0  0  0
    2.5419    1.7069    0.2673 H   0  0  0  0  0  0  0  0  0  0  0  0
    1.8629    1.6145    1.9524 H   0  0  0  0  0  0  0  0  0  0  0  0
    2.6810   -0.8289    1.9885 H   0  0  0  0  0  0  0  0  0  0  0  0
    3.9715    0.4219    1.9585 H   0  0  0  0  0  0  0  0  0  0  0  0
    4.2215    0.2155   -0.4385 H   0  0  0  0  0  0  0  0  0  0  0  0
    5.5033   -1.3198    2.2765 H   0  0  0  0  0  0  0  0  0  0  0  0
    6.0419   -0.2030    0.9134 H   0  0  0  0  0  0  0  0  0  0  0  0
    6.6066   -1.8883    0.9352 H   0  0  0  0  0  0  0  0  0  0  0  0
    4.4766   -2.7730   -1.4305 H   0  0  0  0  0  0  0  0  0  0  0  0
    6.1352   -2.6716   -0.7464 H   0  0  0  0  0  0  0  0  0  0  0  0
    5.4262   -1.2409   -1.5350 H   0  0  0  0  0  0  0  0  0  0  0  0
    2.1524   -2.0238   -0.0894 H   0  0  0  0  0  0  0  0  0  0  0  0
    2.9154   -1.4643   -1.6687 H   0  0  0  0  0  0  0  0  0  0  0  0
    1.7597    0.6477   -1.5254 H   0  0  0  0  0  0  0  0  0  0  0  0
    0.6076   -0.7620   -1.3576 H   0  0  0  0  0  0  0  0  0  0  0  0
  1  2  1  0
  2  3  1  0
  3  4  2  0
  4  5  1  0
  5  6  2  0
  6  7  1  0
  7  8  2  0
  8  9  1  0
  9 10  1  0
 10 11  2  0
 11 12  1  0
 12 13  1  0
 12 14  2  0
 14 15  1  0
 15 16  1  0
 15 17  2  0
  8 18  1  0
 18 19  2  0
 19 20  1  0
 20 21  1  0
 21 22  1  0
 22 23  1  0
 23 24  1  0
 24 25  1  0
 25 26  1  0
 25 27  1  0
 24 28  1  0
 28 29  1  0
  4 30  1  0
 30 31  1  0
 31  2  2  0
 19  5  1  0
 29 21  1  0
 17 10  1  0
  1 32  1  0
  1 33  1  0
  1 34  1  0
  3 35  1  0
  6 36  1  0
  9 37  1  0
 11 38  1  0
 14 39  1  0
 17 40  1  0
 20 41  1  0
 21 42  1  0
 22 43  1  0
 22 44  1  0
 23 45  1  0
 23 46  1  0
 24 47  1  0
 26 48  1  0
 26 49  1  0
 26 50  1  0
 27 51  1  0
 27 52  1  0
 27 53  1  0
 28 54  1  0
 28 55  1  0
 29 56  1  0
 29 57  1  0
M  END
$$$$
