
     RDKit          3D

 71 74  0  0  0  0  0  0  0  0999 V2000
   -2.3273    2.7005    1.2773 C   0  0  0  0  0  0  0  0  0  0  0  0
   -3.1644    1.9878    2.2843 C   0  0  0  0  0  0  0  0  0  0  0  0
   -2.8926    0.5524    2.5073 C   0  0  0  0  0  0  0  0  0  0  0  0
   -3.0401   -0.3760    1.4617 N   0  0  0  0  0  0  0  0  0  0  0  0
   -4.3271   -1.0255    1.2034 C   0  0  0  0  0  0  0  0  0  0  0  0
   -5.2603   -0.7691    1.9984 O   0  0  0  0  0  0  0  0  0  0  0  0
   -4.5803   -1.9362    0.1056 C   0  0  0  0  0  0  0  0  0  0  0  0
   -5.1848   -1.4605   -1.1453 C   0  0  0  0  0  0  0  0  0  0  0  0
   -6.5314   -0.8260   -1.1064 C   0  0  0  0  0  0  0  0  0  0  0  0
   -6.9742   -0.4663   -2.5534 C   0  0  0  0  0  0  0  0  0  0  0  0
   -6.4176    0.5280   -0.4098 C   0  0  0  0  0  0  0  0  0  0  0  0
   -3.3732   -2.6851   -0.2447 N   0  0  0  0  0  0  0  0  0  0  0  0
   -2.1666   -2.3128    0.3485 C   0  0  0  0  0  0  0  0  0  0  0  0
   -1.2887   -3.1295    0.6660 O   0  0  0  0  0  0  0  0  0  0  0  0
   -1.9464   -0.8223    0.6073 C   0  0  0  0  0  0  0  0  0  0  0  0
   -0.5957   -0.7413    1.2761 C   0  0  0  0  0  0  0  0  0  0  0  0
    0.4971   -0.9493    0.2056 C   0  0  0  0  0  0  0  0  0  0  0  0
    0.5739    0.1762   -0.6609 N   0  0  0  0  0  0  0  0  0  0  0  0
    1.3981    1.2574   -0.2274 C   0  0  0  0  0  0  0  0  0  0  0  0
    2.8128    0.9089   -0.0071 C   0  0  0  0  0  0  0  0  0  0  0  0
    3.2276    0.5045    1.2501 C   0  0  0  0  0  0  0  0  0  0  0  0
    4.5613    0.1832    1.4063 C   0  0  0  0  0  0  0  0  0  0  0  0
    5.4838    0.2465    0.3817 C   0  0  0  0  0  0  0  0  0  0  0  0
    6.7841   -0.1092    0.7021 O   0  0  0  0  0  0  0  0  0  0  0  0
    7.8519   -0.1277   -0.1343 C   0  0  0  0  0  0  0  0  0  0  0  0
    8.1543   -1.2633   -0.8399 C   0  0  0  0  0  0  0  0  0  0  0  0
    9.2458   -1.2971   -1.7008 C   0  0  0  0  0  0  0  0  0  0  0  0
   10.0247   -0.1832   -1.8431 C   0  0  0  0  0  0  0  0  0  0  0  0
    9.7341    0.9561   -1.1451 C   0  0  0  0  0  0  0  0  0  0  0  0
    8.6418    0.9804   -0.2876 C   0  0  0  0  0  0  0  0  0  0  0  0
    5.0755    0.6471   -0.8654 C   0  0  0  0  0  0  0  0  0  0  0  0
    3.7483    0.9714   -1.0391 C   0  0  0  0  0  0  0  0  0  0  0  0
   -0.7027    0.5934   -1.1200 C   0  0  0  0  0  0  0  0  0  0  0  0
   -1.8927   -0.1882   -0.7331 C   0  0  0  0  0  0  0  0  0  0  0  0
   -1.2792    2.3433    1.2492 H   0  0  0  0  0  0  0  0  0  0  0  0
   -2.2416    3.7745    1.5801 H   0  0  0  0  0  0  0  0  0  0  0  0
   -2.7186    2.6194    0.2343 H   0  0  0  0  0  0  0  0  0  0  0  0
   -2.9472    2.4994    3.2769 H   0  0  0  0  0  0  0  0  0  0  0  0
   -4.2616    2.2166    2.1574 H   0  0  0  0  0  0  0  0  0  0  0  0
   -1.8676    0.5155    2.9940 H   0  0  0  0  0  0  0  0  0  0  0  0
   -3.6477    0.2351    3.3156 H   0  0  0  0  0  0  0  0  0  0  0  0
   -5.2671   -2.7474    0.5173 H   0  0  0  0  0  0  0  0  0  0  0  0
   -4.4783   -0.8442   -1.7876 H   0  0  0  0  0  0  0  0  0  0  0  0
   -5.3326   -2.3986   -1.7914 H   0  0  0  0  0  0  0  0  0  0  0  0
   -7.3051   -1.4699   -0.7032 H   0  0  0  0  0  0  0  0  0  0  0  0
   -7.9850    0.0065   -2.4949 H   0  0  0  0  0  0  0  0  0  0  0  0
   -6.2551    0.2597   -2.9725 H   0  0  0  0  0  0  0  0  0  0  0  0
   -7.0791   -1.3639   -3.1635 H   0  0  0  0  0  0  0  0  0  0  0  0
   -6.7754    1.3579   -1.0935 H   0  0  0  0  0  0  0  0  0  0  0  0
   -7.0282    0.5392    0.5048 H   0  0  0  0  0  0  0  0  0  0  0  0
   -5.3786    0.7929   -0.1544 H   0  0  0  0  0  0  0  0  0  0  0  0
   -3.4506   -3.4569   -0.9024 H   0  0  0  0  0  0  0  0  0  0  0  0
   -0.3750    0.2050    1.7734 H   0  0  0  0  0  0  0  0  0  0  0  0
   -0.4208   -1.5518    2.0137 H   0  0  0  0  0  0  0  0  0  0  0  0
    0.2422   -1.8286   -0.3903 H   0  0  0  0  0  0  0  0  0  0  0  0
    1.4179   -1.1865    0.7558 H   0  0  0  0  0  0  0  0  0  0  0  0
    0.9718    1.7621    0.6638 H   0  0  0  0  0  0  0  0  0  0  0  0
    1.3770    2.0283   -1.0392 H   0  0  0  0  0  0  0  0  0  0  0  0
    2.5266    0.4414    2.0991 H   0  0  0  0  0  0  0  0  0  0  0  0
    4.8619   -0.1344    2.4141 H   0  0  0  0  0  0  0  0  0  0  0  0
    7.5664   -2.1885   -0.7675 H   0  0  0  0  0  0  0  0  0  0  0  0
    9.5043   -2.1855   -2.2697 H   0  0  0  0  0  0  0  0  0  0  0  0
   10.8703   -0.2169   -2.5131 H   0  0  0  0  0  0  0  0  0  0  0  0
   10.3516    1.8265   -1.2631 H   0  0  0  0  0  0  0  0  0  0  0  0
    8.4663    1.9213    0.2389 H   0  0  0  0  0  0  0  0  0  0  0  0
    5.8062    0.6936   -1.6614 H   0  0  0  0  0  0  0  0  0  0  0  0
    3.4468    1.2833   -2.0232 H   0  0  0  0  0  0  0  0  0  0  0  0
   -0.6426    0.5129   -2.2635 H   0  0  0  0  0  0  0  0  0  0  0  0
   -0.8921    1.6790   -0.9803 H   0  0  0  0  0  0  0  0  0  0  0  0
   -2.7817    0.5045   -0.8122 H   0  0  0  0  0  0  0  0  0  0  0  0
   -2.1473   -0.9701   -1.5293 H   0  0  0  0  0  0  0  0  0  0  0  0
  1  2  1  0
  2  3  1  0
  3  4  1  0
  4  5  1  0
  5  6  2  0
  5  7  1  0
  7  8  1  0
  8  9  1  0
  9 10  1  0
  9 11  1  0
  7 12  1  0
 12 13  1  0
 13 14  2  0
 13 15  1  0
 15 16  1  0
 16 17  1  0
 17 18  1  0
 18 19  1  0
 19 20  1  0
 20 21  2  0
 21 22  1  0
 22 23  2  0
 23 24  1  0
 24 25  1  0
 25 26  2  0
 26 27  1  0
 27 28  2  0
 28 29  1  0
 29 30  2  0
 23 31  1  0
 31 32  2  0
 18 33  1  0
 33 34  1  0
 15  4  1  0
 32 20  1  0
 34 15  1  0
 30 25  1  0
  1 35  1  0
  1 36  1  0
  1 37  1  0
  2 38  1  0
  2 39  1  0
  3 40  1  0
  3 41  1  0
  7 42  1  0
  8 43  1  0
  8 44  1  0
  9 45  1  0
 10 46  1  0
 10 47  1  0
 10 48  1  0
 11 49  1  0
 11 50  1  0
 11 51  1  0
 12 52  1  0
 16 53  1  0
 16 54  1  0
 17 55  1  0
 17 56  1  0
 19 57  1  0
 19 58  1  0
 21 59  1  0
 22 60  1  0
 26 61  1  0
 27 62  1  0
 28 63  1  0
 29 64  1  0
 30 65  1  0
 31 66  1  0
 32 67  1  0
 33 68  1  0
 33 69  1  0
 34 70  1  0
 34 71  1  0
M  END
$$$$
