
     RDKit          3D

 47 50  0  0  0  0  0  0  0  0999 V2000
    3.8976   -3.8113   -0.5783 N   0  0  0  0  0  0  0  0  0  0  0  0
    2.8347   -2.8847   -0.4284 C   0  0  0  0  0  0  0  0  0  0  0  0
    1.9971   -3.0850    0.4780 O   0  0  0  0  0  0  0  0  0  0  0  0
    2.7565   -1.7415   -1.3281 C   0  0  0  0  0  0  0  0  0  0  0  0
    3.6393   -1.4329   -2.3687 C   0  0  0  0  0  0  0  0  0  0  0  0
    3.2128   -0.2999   -2.9507 N   0  0  0  0  0  0  0  0  0  0  0  0
    2.0960    0.1344   -2.3319 C   0  0  0  0  0  0  0  0  0  0  0  0
    1.2924    1.2517   -2.5651 C   0  0  0  0  0  0  0  0  0  0  0  0
    0.2028    1.4327   -1.7536 C   0  0  0  0  0  0  0  0  0  0  0  0
   -0.0968    0.5561   -0.7473 C   0  0  0  0  0  0  0  0  0  0  0  0
   -1.2405    0.7631    0.1134 C   0  0  0  0  0  0  0  0  0  0  0  0
   -1.2162    1.7624    1.1016 C   0  0  0  0  0  0  0  0  0  0  0  0
   -0.1069    2.6688    1.3960 C   0  0  0  0  0  0  0  0  0  0  0  0
   -0.2886    4.0378    1.2895 C   0  0  0  0  0  0  0  0  0  0  0  0
    0.7445    4.9288    1.5604 C   0  0  0  0  0  0  0  0  0  0  0  0
    1.9817    4.4758    1.9434 C   0  0  0  0  0  0  0  0  0  0  0  0
    3.0121    5.3220    2.2150 F   0  0  0  0  0  0  0  0  0  0  0  0
    2.1863    3.1148    2.0563 C   0  0  0  0  0  0  0  0  0  0  0  0
    1.1454    2.2533    1.7819 C   0  0  0  0  0  0  0  0  0  0  0  0
   -2.4179    1.7230    1.7281 N   0  0  0  0  0  0  0  0  0  0  0  0
   -3.1354    0.7529    1.1534 C   0  0  0  0  0  0  0  0  0  0  0  0
   -2.4172    0.1535    0.1545 N   0  0  0  0  0  0  0  0  0  0  0  0
   -2.8519   -0.9113   -0.6721 C   0  0  0  0  0  0  0  0  0  0  0  0
   -2.5682   -2.2989   -0.1286 C   0  0  2  0  0  0  0  0  0  0  0  0
   -3.0430   -3.2706   -1.0277 O   0  0  0  0  0  0  0  0  0  0  0  0
   -3.2798   -2.4848    1.1868 C   0  0  0  0  0  0  0  0  0  0  0  0
   -3.0152   -3.7646    1.6773 O   0  0  0  0  0  0  0  0  0  0  0  0
    0.7497   -0.5383   -0.5715 C   0  0  0  0  0  0  0  0  0  0  0  0
    1.8389   -0.7494   -1.3571 N   0  0  0  0  0  0  0  0  0  0  0  0
    3.7782   -4.8036   -0.2726 H   0  0  0  0  0  0  0  0  0  0  0  0
    4.8257   -3.5644   -0.9873 H   0  0  0  0  0  0  0  0  0  0  0  0
    4.5059   -2.0332   -2.6259 H   0  0  0  0  0  0  0  0  0  0  0  0
    1.5169    1.9457   -3.3509 H   0  0  0  0  0  0  0  0  0  0  0  0
   -0.4813    2.2758   -1.8605 H   0  0  0  0  0  0  0  0  0  0  0  0
   -1.2417    4.4502    0.9921 H   0  0  0  0  0  0  0  0  0  0  0  0
    0.6008    5.9926    1.4773 H   0  0  0  0  0  0  0  0  0  0  0  0
    3.1701    2.7859    2.3594 H   0  0  0  0  0  0  0  0  0  0  0  0
    1.3495    1.1990    1.8828 H   0  0  0  0  0  0  0  0  0  0  0  0
   -4.1522    0.4498    1.4136 H   0  0  0  0  0  0  0  0  0  0  0  0
   -2.6046   -0.8183   -1.7445 H   0  0  0  0  0  0  0  0  0  0  0  0
   -3.9891   -0.8803   -0.6810 H   0  0  0  0  0  0  0  0  0  0  0  0
   -1.4798   -2.4190   -0.0722 H   0  0  0  0  0  0  0  0  0  0  0  0
   -3.6562   -2.8444   -1.6895 H   0  0  0  0  0  0  0  0  0  0  0  0
   -2.9173   -1.7702    1.9441 H   0  0  0  0  0  0  0  0  0  0  0  0
   -4.3741   -2.3528    0.9766 H   0  0  0  0  0  0  0  0  0  0  0  0
   -3.3335   -4.4027    1.0025 H   0  0  0  0  0  0  0  0  0  0  0  0
    0.5730   -1.2681    0.2092 H   0  0  0  0  0  0  0  0  0  0  0  0
  1  2  1  0
  2  3  2  0
  2  4  1  0
  4  5  2  0
  5  6  1  0
  6  7  2  0
  7  8  1  0
  8  9  2  0
  9 10  1  0
 10 11  1  0
 11 12  2  0
 12 13  1  0
 13 14  2  0
 14 15  1  0
 15 16  2  0
 16 17  1  0
 16 18  1  0
 18 19  2  0
 12 20  1  0
 20 21  2  0
 21 22  1  0
 22 23  1  0
 23 24  1  0
 24 25  1  0
 24 26  1  0
 26 27  1  0
 10 28  2  0
 28 29  1  0
 29  4  1  0
 29  7  1  0
 22 11  1  0
 19 13  1  0
  1 30  1  0
  1 31  1  0
  5 32  1  0
  8 33  1  0
  9 34  1  0
 14 35  1  0
 15 36  1  0
 18 37  1  0
 19 38  1  0
 21 39  1  0
 23 40  1  0
 23 41  1  0
 24 42  1  1
 25 43  1  0
 26 44  1  0
 26 45  1  0
 27 46  1  0
 28 47  1  0
M  END
$$$$
