
     RDKit          3D

 41 42  0  0  0  0  0  0  0  0999 V2000
   -1.7569   -3.7041   -1.3033 C   0  0  0  0  0  0  0  0  0  0  0  0
   -1.5572   -2.4311   -0.7499 O   0  0  0  0  0  0  0  0  0  0  0  0
   -0.3434   -1.7669   -0.7119 C   0  0  0  0  0  0  0  0  0  0  0  0
    0.8130   -2.3042   -1.2258 C   0  0  0  0  0  0  0  0  0  0  0  0
    1.9740   -1.5633   -1.1399 C   0  0  0  0  0  0  0  0  0  0  0  0
    1.9713   -0.3154   -0.5526 C   0  0  0  0  0  0  0  0  0  0  0  0
    0.7642    0.1827   -0.0457 C   0  0  0  0  0  0  0  0  0  0  0  0
   -0.4450   -0.5343   -0.1095 C   0  0  0  0  0  0  0  0  0  0  0  0
   -1.4366    0.1914    0.4558 O   0  0  0  0  0  0  0  0  0  0  0  0
   -2.7750   -0.0660    0.6371 C   0  0  0  0  0  0  0  0  0  0  0  0
   -3.1637    0.0402    2.1247 C   0  0  0  0  0  0  0  0  0  0  0  0
   -4.6751    0.1251    2.0036 C   0  0  0  0  0  0  0  0  0  0  0  0
   -4.8382    1.1951    0.9515 C   0  0  0  0  0  0  0  0  0  0  0  0
   -3.6745    1.0009    0.0082 C   0  0  0  0  0  0  0  0  0  0  0  0
    3.2170    0.4359   -0.4809 C   0  0  0  0  0  0  0  0  0  0  0  0
    4.4700   -0.1376   -1.0336 C   0  0  0  0  0  0  0  0  0  0  0  0
    3.2320    1.5920    0.0593 N   0  0  0  0  0  0  0  0  0  0  0  0
    4.4393    2.2783    0.1091 O   0  0  0  0  0  0  0  0  0  0  0  0
    4.4616    3.6578    0.0936 C   0  0  0  0  0  0  0  0  0  0  0  0
    5.7755    4.1922    0.1504 N   0  0  0  0  0  0  0  0  0  0  0  0
    3.4948    4.4599    0.0374 O   0  0  0  0  0  0  0  0  0  0  0  0
   -1.1710   -4.5041   -0.8354 H   0  0  0  0  0  0  0  0  0  0  0  0
   -2.8397   -3.9096   -1.3215 H   0  0  0  0  0  0  0  0  0  0  0  0
   -1.4017   -3.6544   -2.3713 H   0  0  0  0  0  0  0  0  0  0  0  0
    0.7076   -3.2918   -1.6663 H   0  0  0  0  0  0  0  0  0  0  0  0
    2.8460   -2.0422   -1.5620 H   0  0  0  0  0  0  0  0  0  0  0  0
    0.9020    1.1779    0.3911 H   0  0  0  0  0  0  0  0  0  0  0  0
   -3.0495   -1.0483    0.2375 H   0  0  0  0  0  0  0  0  0  0  0  0
   -2.8212   -0.8361    2.7001 H   0  0  0  0  0  0  0  0  0  0  0  0
   -2.7704    1.0045    2.4742 H   0  0  0  0  0  0  0  0  0  0  0  0
   -5.0510   -0.8367    1.6436 H   0  0  0  0  0  0  0  0  0  0  0  0
   -5.1429    0.4813    2.9416 H   0  0  0  0  0  0  0  0  0  0  0  0
   -5.8242    1.0855    0.4394 H   0  0  0  0  0  0  0  0  0  0  0  0
   -4.8553    2.2122    1.3938 H   0  0  0  0  0  0  0  0  0  0  0  0
   -3.0576    1.8997   -0.1291 H   0  0  0  0  0  0  0  0  0  0  0  0
   -4.1123    0.6355   -0.9577 H   0  0  0  0  0  0  0  0  0  0  0  0
    4.4847   -1.2095   -0.6773 H   0  0  0  0  0  0  0  0  0  0  0  0
    4.4676   -0.1702   -2.1222 H   0  0  0  0  0  0  0  0  0  0  0  0
    5.3710    0.3059   -0.5774 H   0  0  0  0  0  0  0  0  0  0  0  0
    6.6269    3.7247    0.5258 H   0  0  0  0  0  0  0  0  0  0  0  0
    6.7438    4.5779    0.1956 H   0  0  0  0  0  0  0  0  0  0  0  0
  1  2  1  0
  2  3  1  0
  3  4  2  0
  4  5  1  0
  5  6  2  0
  6  7  1  0
  7  8  2  0
  8  9  1  0
  9 10  1  0
 10 11  1  0
 11 12  1  0
 12 13  1  0
 13 14  1  0
  6 15  1  0
 15 16  1  0
 15 17  2  0
 17 18  1  0
 18 19  1  0
 19 20  1  0
 19 21  2  0
  8  3  1  0
 14 10  1  0
  1 22  1  0
  1 23  1  0
  1 24  1  0
  4 25  1  0
  5 26  1  0
  7 27  1  0
 10 28  1  0
 11 29  1  0
 11 30  1  0
 12 31  1  0
 12 32  1  0
 13 33  1  0
 13 34  1  0
 14 35  1  0
 14 36  1  0
 16 37  1  0
 16 38  1  0
 16 39  1  0
 20 40  1  0
 20 41  1  0
M  END
$$$$
