
     RDKit          3D

 71 76  0  0  0  0  0  0  0  0999 V2000
    7.3601   -1.2336   -1.7253 C   0  0  0  0  0  0  0  0  0  0  0  0
    7.5928   -0.0673   -0.8468 C   0  0  0  0  0  0  0  0  0  0  0  0
    8.9277    0.3185   -0.6638 C   0  0  0  0  0  0  0  0  0  0  0  0
    9.2813    1.3531    0.1650 C   0  0  0  0  0  0  0  0  0  0  0  0
   10.6512    1.7772    0.3762 C   0  0  0  0  0  0  0  0  0  0  0  0
   10.8785    2.7309    1.1505 O   0  0  0  0  0  0  0  0  0  0  0  0
   11.7179    1.1635   -0.2493 O   0  0  0  0  0  0  0  0  0  0  0  0
    8.2428    1.9912    0.8079 C   0  0  0  0  0  0  0  0  0  0  0  0
    6.9356    1.6295    0.6411 C   0  0  0  0  0  0  0  0  0  0  0  0
    6.5573    0.5655   -0.2116 C   0  0  0  0  0  0  0  0  0  0  0  0
    5.1636    0.2209   -0.3159 C   0  0  0  0  0  0  0  0  0  0  0  0
    4.5108   -0.4135   -1.3284 C   0  0  0  0  0  0  0  0  0  0  0  0
    3.1207   -0.6253   -1.2993 C   0  0  0  0  0  0  0  0  0  0  0  0
    2.3590   -0.1955   -0.2399 C   0  0  0  0  0  0  0  0  0  0  0  0
    0.9527   -0.4161   -0.2238 N   0  0  0  0  0  0  0  0  0  0  0  0
    0.2288   -1.5157    0.3003 C   0  0  0  0  0  0  0  0  0  0  0  0
    0.7422   -2.5135    0.8615 O   0  0  0  0  0  0  0  0  0  0  0  0
   -1.1899   -1.3415    0.1050 N   0  0  0  0  0  0  0  0  0  0  0  0
   -2.1603   -2.3686    0.2362 C   0  0  0  0  0  0  0  0  0  0  0  0
   -2.5303   -3.1634   -0.8196 C   0  0  0  0  0  0  0  0  0  0  0  0
   -3.4620   -4.1266   -0.6160 N   0  0  0  0  0  0  0  0  0  0  0  0
   -4.0423   -4.3400    0.5777 C   0  0  0  0  0  0  0  0  0  0  0  0
   -3.6678   -3.5400    1.6330 C   0  0  0  0  0  0  0  0  0  0  0  0
   -2.7468   -2.5913    1.4217 N   0  0  0  0  0  0  0  0  0  0  0  0
   -1.3734    0.0389   -0.2311 C   0  0  0  0  0  0  0  0  0  0  0  0
   -1.6614    0.9193    0.9505 C   0  0  0  0  0  0  0  0  0  0  0  0
   -3.0743    0.9110    1.4080 C   0  0  0  0  0  0  0  0  0  0  0  0
   -4.0742    0.9898    0.4038 N   0  0  0  0  0  0  0  0  0  0  0  0
   -5.2872    0.3577    0.9543 C   0  0  0  0  0  0  0  0  0  0  0  0
   -6.4044    0.4087   -0.0207 C   0  0  0  0  0  0  0  0  0  0  0  0
   -6.7475   -0.6875   -0.7099 N   0  0  0  0  0  0  0  0  0  0  0  0
   -7.7389   -0.7286   -1.6078 C   0  0  0  0  0  0  0  0  0  0  0  0
   -8.4721    0.4390   -1.8524 C   0  0  0  0  0  0  0  0  0  0  0  0
   -8.1330    1.5711   -1.1538 C   0  0  0  0  0  0  0  0  0  0  0  0
   -7.1050    1.5724   -0.2375 C   0  0  0  0  0  0  0  0  0  0  0  0
   -6.7295    2.7820    0.5221 C   0  0  0  0  0  0  0  0  0  0  0  0
   -3.7960    0.2587   -0.8080 C   0  0  0  0  0  0  0  0  0  0  0  0
   -2.3866    0.3228   -1.2818 C   0  0  0  0  0  0  0  0  0  0  0  0
   -0.0288    0.4682   -0.7593 C   0  0  0  0  0  0  0  0  0  0  0  0
    0.1683    1.4338   -1.5306 O   0  0  0  0  0  0  0  0  0  0  0  0
    3.0475    0.4439    0.7678 C   0  0  0  0  0  0  0  0  0  0  0  0
    4.3712    0.6333    0.7181 N   0  0  0  0  0  0  0  0  0  0  0  0
    7.2218   -0.9712   -2.7729 H   0  0  0  0  0  0  0  0  0  0  0  0
    8.3562   -1.8133   -1.7416 H   0  0  0  0  0  0  0  0  0  0  0  0
    6.6790   -1.9679   -1.2844 H   0  0  0  0  0  0  0  0  0  0  0  0
    9.7369   -0.1919   -1.1754 H   0  0  0  0  0  0  0  0  0  0  0  0
   12.6870    1.2658    0.0260 H   0  0  0  0  0  0  0  0  0  0  0  0
    8.4981    2.8224    1.4762 H   0  0  0  0  0  0  0  0  0  0  0  0
    6.1198    2.1441    1.1546 H   0  0  0  0  0  0  0  0  0  0  0  0
    5.0411   -0.7457   -2.2078 H   0  0  0  0  0  0  0  0  0  0  0  0
    2.6794   -1.1401   -2.1449 H   0  0  0  0  0  0  0  0  0  0  0  0
   -2.1002   -3.0319   -1.7783 H   0  0  0  0  0  0  0  0  0  0  0  0
   -4.7886   -5.1066    0.7550 H   0  0  0  0  0  0  0  0  0  0  0  0
   -4.0761   -3.6337    2.6275 H   0  0  0  0  0  0  0  0  0  0  0  0
   -1.0280    0.5232    1.7972 H   0  0  0  0  0  0  0  0  0  0  0  0
   -1.2848    1.9388    0.7514 H   0  0  0  0  0  0  0  0  0  0  0  0
   -3.2052    1.8251    2.0625 H   0  0  0  0  0  0  0  0  0  0  0  0
   -3.2925    0.0646    2.1072 H   0  0  0  0  0  0  0  0  0  0  0  0
   -4.9941   -0.7080    1.1131 H   0  0  0  0  0  0  0  0  0  0  0  0
   -5.5425    0.7595    1.9444 H   0  0  0  0  0  0  0  0  0  0  0  0
   -8.0139   -1.6158   -2.1634 H   0  0  0  0  0  0  0  0  0  0  0  0
   -9.2837    0.4637   -2.5675 H   0  0  0  0  0  0  0  0  0  0  0  0
   -8.7168    2.4826   -1.3555 H   0  0  0  0  0  0  0  0  0  0  0  0
   -5.9317    3.3753    0.0306 H   0  0  0  0  0  0  0  0  0  0  0  0
   -7.6375    3.4329    0.6094 H   0  0  0  0  0  0  0  0  0  0  0  0
   -6.4557    2.5466    1.5860 H   0  0  0  0  0  0  0  0  0  0  0  0
   -4.4318    0.7372   -1.6124 H   0  0  0  0  0  0  0  0  0  0  0  0
   -4.1788   -0.7872   -0.7546 H   0  0  0  0  0  0  0  0  0  0  0  0
   -2.3104   -0.2869   -2.1954 H   0  0  0  0  0  0  0  0  0  0  0  0
   -2.2116    1.3918   -1.6075 H   0  0  0  0  0  0  0  0  0  0  0  0
    2.4661    0.7936    1.6168 H   0  0  0  0  0  0  0  0  0  0  0  0
  1  2  1  0
  2  3  2  0
  3  4  1  0
  4  5  1  0
  5  6  2  0
  5  7  1  0
  4  8  2  0
  8  9  1  0
  9 10  2  0
 10 11  1  0
 11 12  2  0
 12 13  1  0
 13 14  2  0
 14 15  1  0
 15 16  1  0
 16 17  2  0
 16 18  1  0
 18 19  1  0
 19 20  2  0
 20 21  1  0
 21 22  2  0
 22 23  1  0
 23 24  2  0
 18 25  1  0
 25 26  1  0
 26 27  1  0
 27 28  1  0
 28 29  1  0
 29 30  1  0
 30 31  2  0
 31 32  1  0
 32 33  2  0
 33 34  1  0
 34 35  2  0
 35 36  1  0
 28 37  1  0
 37 38  1  0
 25 39  1  0
 39 40  2  0
 14 41  1  0
 41 42  2  0
 10  2  1  0
 42 11  1  0
 39 15  1  0
 24 19  1  0
 38 25  1  0
 35 30  1  0
  1 43  1  0
  1 44  1  0
  1 45  1  0
  3 46  1  0
  7 47  1  0
  8 48  1  0
  9 49  1  0
 12 50  1  0
 13 51  1  0
 20 52  1  0
 22 53  1  0
 23 54  1  0
 26 55  1  0
 26 56  1  0
 27 57  1  0
 27 58  1  0
 29 59  1  0
 29 60  1  0
 32 61  1  0
 33 62  1  0
 34 63  1  0
 36 64  1  0
 36 65  1  0
 36 66  1  0
 37 67  1  0
 37 68  1  0
 38 69  1  0
 38 70  1  0
 41 71  1  0
M  END
$$$$
