
     RDKit          3D

 54 56  0  0  0  0  0  0  0  0999 V2000
    1.8390   -4.1988    1.4019 C   0  0  0  0  0  0  0  0  0  0  0  0
    1.8628   -3.6215    0.0025 C   0  0  0  0  0  0  0  0  0  0  0  0
    3.1275   -4.2036   -0.6790 C   0  0  0  0  0  0  0  0  0  0  0  0
    1.9954   -2.1388    0.0807 C   0  0  0  0  0  0  0  0  0  0  0  0
    3.2645   -1.6339    0.4182 C   0  0  0  0  0  0  0  0  0  0  0  0
    3.5197   -0.3236    0.5001 N   0  0  0  0  0  0  0  0  0  0  0  0
    2.5866    0.6167    0.2673 C   0  0  0  0  0  0  0  0  0  0  0  0
    2.8999    2.0436    0.3597 C   0  0  0  0  0  0  0  0  0  0  0  0
    2.0091    3.0617    0.1723 C   0  0  0  0  0  0  0  0  0  0  0  0
    2.3680    4.3913    0.2683 C   0  0  0  0  0  0  0  0  0  0  0  0
    1.1532    5.6438    0.0142 Cl  0  0  0  0  0  0  0  0  0  0  0  0
    3.6656    4.7623    0.5629 C   0  0  0  0  0  0  0  0  0  0  0  0
    4.5784    3.7456    0.7551 C   0  0  0  0  0  0  0  0  0  0  0  0
    4.2104    2.4230    0.6572 C   0  0  0  0  0  0  0  0  0  0  0  0
    5.1378    1.4635    0.8520 F   0  0  0  0  0  0  0  0  0  0  0  0
    1.3440    0.1558   -0.0621 C   0  0  0  0  0  0  0  0  0  0  0  0
    1.0221   -1.2202   -0.1621 C   0  0  0  0  0  0  0  0  0  0  0  0
   -0.2673   -1.5560   -0.5796 N   0  0  0  0  0  0  0  0  0  0  0  0
   -1.2979   -2.1688    0.1638 C   0  0  0  0  0  0  0  0  0  0  0  0
   -1.1125   -3.3108    0.8618 N   0  0  0  0  0  0  0  0  0  0  0  0
   -2.0971   -3.8775    1.5527 C   0  0  0  0  0  0  0  0  0  0  0  0
   -3.3090   -3.3100    1.5643 N   0  0  0  0  0  0  0  0  0  0  0  0
   -3.5529   -2.1583    0.8792 C   0  0  0  0  0  0  0  0  0  0  0  0
   -2.5597   -1.5580    0.1635 C   0  0  0  0  0  0  0  0  0  0  0  0
   -2.7942   -0.3200   -0.5603 C   0  0  0  0  0  0  0  0  0  0  0  0
   -1.8870    0.2684   -1.1814 O   0  0  0  0  0  0  0  0  0  0  0  0
   -4.0707    0.3123   -0.6154 N   0  0  0  0  0  0  0  0  0  0  0  0
   -4.4126    1.5179   -1.2786 C   0  0  0  0  0  0  0  0  0  0  0  0
   -3.7457    2.7669   -0.8318 C   0  0  2  0  0  0  0  0  0  0  0  0
   -4.2554    3.9699   -1.6402 C   0  0  0  0  0  0  0  0  0  0  0  0
   -2.3837    2.7299   -0.9686 O   0  0  0  0  0  0  0  0  0  0  0  0
    1.0540   -5.0115    1.3875 H   0  0  0  0  0  0  0  0  0  0  0  0
    1.5031   -3.4581    2.1495 H   0  0  0  0  0  0  0  0  0  0  0  0
    2.8298   -4.6142    1.6844 H   0  0  0  0  0  0  0  0  0  0  0  0
    1.0422   -3.9608   -0.6153 H   0  0  0  0  0  0  0  0  0  0  0  0
    2.8443   -5.1335   -1.1641 H   0  0  0  0  0  0  0  0  0  0  0  0
    3.9195   -4.3292    0.0958 H   0  0  0  0  0  0  0  0  0  0  0  0
    3.4746   -3.4147   -1.3708 H   0  0  0  0  0  0  0  0  0  0  0  0
    4.0473   -2.3692    0.6156 H   0  0  0  0  0  0  0  0  0  0  0  0
    0.9872    2.8277   -0.0588 H   0  0  0  0  0  0  0  0  0  0  0  0
    3.9495    5.8070    0.6388 H   0  0  0  0  0  0  0  0  0  0  0  0
    5.5920    4.0548    0.9852 H   0  0  0  0  0  0  0  0  0  0  0  0
    0.5655    0.8852   -0.2557 H   0  0  0  0  0  0  0  0  0  0  0  0
   -0.4656   -1.3335   -1.6129 H   0  0  0  0  0  0  0  0  0  0  0  0
   -1.8668   -4.8033    2.0926 H   0  0  0  0  0  0  0  0  0  0  0  0
   -4.5618   -1.8026    0.9670 H   0  0  0  0  0  0  0  0  0  0  0  0
   -4.8409   -0.2018   -0.0902 H   0  0  0  0  0  0  0  0  0  0  0  0
   -4.2828    1.4616   -2.3901 H   0  0  0  0  0  0  0  0  0  0  0  0
   -5.5239    1.6936   -1.1425 H   0  0  0  0  0  0  0  0  0  0  0  0
   -4.0694    2.9985    0.2154 H   0  0  0  0  0  0  0  0  0  0  0  0
   -3.9369    3.9078   -2.6876 H   0  0  0  0  0  0  0  0  0  0  0  0
   -5.3553    4.0440   -1.5805 H   0  0  0  0  0  0  0  0  0  0  0  0
   -3.7916    4.8633   -1.1502 H   0  0  0  0  0  0  0  0  0  0  0  0
   -1.9526    3.6162   -0.8997 H   0  0  0  0  0  0  0  0  0  0  0  0
  1  2  1  0
  2  3  1  0
  2  4  1  0
  4  5  2  0
  5  6  1  0
  6  7  2  0
  7  8  1  0
  8  9  2  0
  9 10  1  0
 10 11  1  0
 10 12  2  0
 12 13  1  0
 13 14  2  0
 14 15  1  0
  7 16  1  0
 16 17  2  0
 17 18  1  0
 18 19  1  0
 19 20  2  0
 20 21  1  0
 21 22  2  0
 22 23  1  0
 23 24  2  0
 24 25  1  0
 25 26  2  0
 25 27  1  0
 27 28  1  0
 28 29  1  0
 29 30  1  0
 29 31  1  0
 17  4  1  0
 24 19  1  0
 14  8  1  0
  1 32  1  0
  1 33  1  0
  1 34  1  0
  2 35  1  0
  3 36  1  0
  3 37  1  0
  3 38  1  0
  5 39  1  0
  9 40  1  0
 12 41  1  0
 13 42  1  0
 16 43  1  0
 18 44  1  0
 21 45  1  0
 23 46  1  0
 27 47  1  0
 28 48  1  0
 28 49  1  0
 29 50  1  1
 30 51  1  0
 30 52  1  0
 30 53  1  0
 31 54  1  0
M  END
$$$$
