
     RDKit          3D

 54 57  0  0  0  0  0  0  0  0999 V2000
    4.6659    1.3530   -2.2405 C   0  0  0  0  0  0  0  0  0  0  0  0
    3.5187    1.4384   -1.2524 C   0  0  1  0  0  0  0  0  0  0  0  0
    2.4071    0.6082   -1.7642 C   0  0  0  0  0  0  0  0  0  0  0  0
    2.5970   -0.0452   -2.8265 O   0  0  0  0  0  0  0  0  0  0  0  0
    1.1627    0.5345   -1.1011 N   0  0  0  0  0  0  0  0  0  0  0  0
    0.8670    1.2560    0.1113 C   0  0  0  0  0  0  0  0  0  0  0  0
    0.1098   -0.3057   -1.6430 C   0  0  2  0  0  0  0  0  0  0  0  0
   -1.0594    0.4916   -2.1202 C   0  0  0  0  0  0  0  0  0  0  0  0
   -2.2444   -0.4765   -2.2157 C   0  0  0  0  0  0  0  0  0  0  0  0
   -2.5639   -0.8276   -0.8037 C   0  0  0  0  0  0  0  0  0  0  0  0
   -3.7181   -0.8227   -0.0604 C   0  0  0  0  0  0  0  0  0  0  0  0
   -5.0877   -0.4490   -0.4915 C   0  0  0  0  0  0  0  0  0  0  0  0
   -5.2771    1.0259   -0.6064 C   0  0  0  0  0  0  0  0  0  0  0  0
   -4.3600    1.8599   -0.3633 O   0  0  0  0  0  0  0  0  0  0  0  0
   -6.5406    1.4519   -1.0030 O   0  0  0  0  0  0  0  0  0  0  0  0
   -3.3525   -1.2473    1.2027 C   0  0  0  0  0  0  0  0  0  0  0  0
   -4.0702   -1.4453    2.3789 C   0  0  0  0  0  0  0  0  0  0  0  0
   -3.3792   -1.8806    3.4659 C   0  0  0  0  0  0  0  0  0  0  0  0
   -2.0219   -2.1295    3.4516 C   0  0  0  0  0  0  0  0  0  0  0  0
   -1.3573   -1.9327    2.3143 N   0  0  0  0  0  0  0  0  0  0  0  0
   -2.0177   -1.5021    1.2241 C   0  0  0  0  0  0  0  0  0  0  0  0
   -1.5415   -1.2357   -0.0348 N   0  0  0  0  0  0  0  0  0  0  0  0
   -0.2170   -1.3357   -0.6036 C   0  0  0  0  0  0  0  0  0  0  0  0
    3.9109    0.9097    0.0779 C   0  0  0  0  0  0  0  0  0  0  0  0
    3.8968    1.7054    1.2020 C   0  0  0  0  0  0  0  0  0  0  0  0
    4.2625    1.2245    2.4465 C   0  0  0  0  0  0  0  0  0  0  0  0
    4.6596   -0.0878    2.6065 C   0  0  0  0  0  0  0  0  0  0  0  0
    5.0223   -0.5705    3.8316 F   0  0  0  0  0  0  0  0  0  0  0  0
    4.6767   -0.8950    1.4811 C   0  0  0  0  0  0  0  0  0  0  0  0
    4.3109   -0.4074    0.2473 C   0  0  0  0  0  0  0  0  0  0  0  0
    5.5735    1.8679   -1.8924 H   0  0  0  0  0  0  0  0  0  0  0  0
    4.3272    1.8508   -3.1661 H   0  0  0  0  0  0  0  0  0  0  0  0
    4.8379    0.2831   -2.4744 H   0  0  0  0  0  0  0  0  0  0  0  0
    3.1971    2.4978   -1.1027 H   0  0  0  0  0  0  0  0  0  0  0  0
   -0.2479    1.4007    0.2334 H   0  0  0  0  0  0  0  0  0  0  0  0
    1.2868    2.2817    0.1127 H   0  0  0  0  0  0  0  0  0  0  0  0
    1.1798    0.7270    1.0167 H   0  0  0  0  0  0  0  0  0  0  0  0
    0.5368   -0.7881   -2.5777 H   0  0  0  0  0  0  0  0  0  0  0  0
   -1.3756    1.3073   -1.4591 H   0  0  0  0  0  0  0  0  0  0  0  0
   -0.8884    0.8664   -3.1535 H   0  0  0  0  0  0  0  0  0  0  0  0
   -3.0903   -0.0501   -2.7604 H   0  0  0  0  0  0  0  0  0  0  0  0
   -1.8944   -1.3861   -2.7519 H   0  0  0  0  0  0  0  0  0  0  0  0
   -5.1902   -0.8372   -1.5484 H   0  0  0  0  0  0  0  0  0  0  0  0
   -5.8819   -0.9496    0.0733 H   0  0  0  0  0  0  0  0  0  0  0  0
   -6.6730    2.4209   -1.2970 H   0  0  0  0  0  0  0  0  0  0  0  0
   -5.1260   -1.2405    2.3493 H   0  0  0  0  0  0  0  0  0  0  0  0
   -3.9309   -2.0382    4.3909 H   0  0  0  0  0  0  0  0  0  0  0  0
   -1.5370   -2.4792    4.3704 H   0  0  0  0  0  0  0  0  0  0  0  0
   -0.0375   -2.3347   -1.0637 H   0  0  0  0  0  0  0  0  0  0  0  0
    0.4994   -1.2837    0.2716 H   0  0  0  0  0  0  0  0  0  0  0  0
    3.5937    2.7601    1.1566 H   0  0  0  0  0  0  0  0  0  0  0  0
    4.2452    1.8746    3.3342 H   0  0  0  0  0  0  0  0  0  0  0  0
    4.9950   -1.9334    1.6292 H   0  0  0  0  0  0  0  0  0  0  0  0
    4.3412   -1.0804   -0.6025 H   0  0  0  0  0  0  0  0  0  0  0  0
  1  2  1  0
  2  3  1  0
  3  4  2  0
  3  5  1  0
  5  6  1  0
  5  7  1  0
  7  8  1  0
  8  9  1  0
  9 10  1  0
 10 11  2  0
 11 12  1  0
 12 13  1  0
 13 14  2  0
 13 15  1  0
 11 16  1  0
 16 17  2  0
 17 18  1  0
 18 19  2  0
 19 20  1  0
 20 21  2  0
 21 22  1  0
 22 23  1  0
  2 24  1  0
 24 25  2  0
 25 26  1  0
 26 27  2  0
 27 28  1  0
 27 29  1  0
 29 30  2  0
 23  7  1  0
 30 24  1  0
 22 10  1  0
 21 16  1  0
  1 31  1  0
  1 32  1  0
  1 33  1  0
  2 34  1  1
  6 35  1  0
  6 36  1  0
  6 37  1  0
  7 38  1  6
  8 39  1  0
  8 40  1  0
  9 41  1  0
  9 42  1  0
 12 43  1  0
 12 44  1  0
 15 45  1  0
 17 46  1  0
 18 47  1  0
 19 48  1  0
 23 49  1  0
 23 50  1  0
 25 51  1  0
 26 52  1  0
 29 53  1  0
 30 54  1  0
M  END
$$$$
