
     RDKit          3D

 67 71  0  0  0  0  0  0  0  0999 V2000
    8.9581    4.0673   -0.5147 C   0  0  0  0  0  0  0  0  0  0  0  0
    8.0814    3.0478   -0.0480 O   0  0  0  0  0  0  0  0  0  0  0  0
    7.9524    1.8545   -0.7290 C   0  0  0  0  0  0  0  0  0  0  0  0
    8.5772    1.4722   -1.8505 N   0  0  0  0  0  0  0  0  0  0  0  0
    8.1926    0.2656   -2.1938 N   0  0  0  0  0  0  0  0  0  0  0  0
    8.6397   -0.5125   -3.3540 C   0  0  0  0  0  0  0  0  0  0  0  0
    7.2945   -0.1728   -1.2889 C   0  0  0  0  0  0  0  0  0  0  0  0
    7.1129    0.8068   -0.3397 C   0  0  0  0  0  0  0  0  0  0  0  0
    6.2597    0.7536    0.7978 N   0  0  0  0  0  0  0  0  0  0  0  0
    5.4922   -0.4063    1.0271 C   0  0  0  0  0  0  0  0  0  0  0  0
    6.1584   -1.5549    1.2490 N   0  0  0  0  0  0  0  0  0  0  0  0
    5.4361   -2.6728    1.4953 C   0  0  0  0  0  0  0  0  0  0  0  0
    4.0526   -2.6267    1.5173 C   0  0  0  0  0  0  0  0  0  0  0  0
    2.9678   -4.1569    1.8548 Br  0  0  0  0  0  0  0  0  0  0  0  0
    3.3720   -1.4360    1.2874 C   0  0  0  0  0  0  0  0  0  0  0  0
    1.9238   -1.3387    1.3208 C   0  0  0  0  0  0  0  0  0  0  0  0
    1.0961   -1.7019    2.3545 C   0  0  0  0  0  0  0  0  0  0  0  0
   -0.1865   -1.4396    2.0205 N   0  0  0  0  0  0  0  0  0  0  0  0
   -0.2228   -0.9023    0.7694 C   0  0  0  0  0  0  0  0  0  0  0  0
   -1.2804   -0.4635   -0.0173 C   0  0  0  0  0  0  0  0  0  0  0  0
   -2.5860   -0.5626    0.5248 N   0  0  0  0  0  0  0  0  0  0  0  0
   -3.7811   -0.0870   -0.0544 C   0  0  0  0  0  0  0  0  0  0  0  0
   -3.7238    0.4937   -1.1620 O   0  0  0  0  0  0  0  0  0  0  0  0
   -5.1225   -0.2362    0.5896 C   0  0  1  0  0  0  0  0  0  0  0  0
   -5.0808   -1.0891    1.8353 C   0  0  0  0  0  0  0  0  0  0  0  0
   -5.7842    0.9776    0.8463 N   0  0  0  0  0  0  0  0  0  0  0  0
   -6.0539    1.8844   -0.2010 C   0  0  0  0  0  0  0  0  0  0  0  0
   -7.4059    1.5854   -0.8473 C   0  0  0  0  0  0  0  0  0  0  0  0
   -7.7768    0.2188   -0.5789 N   0  0  0  0  0  0  0  0  0  0  0  0
   -8.8057   -0.2495   -1.4706 C   0  0  0  0  0  0  0  0  0  0  0  0
   -8.0767    0.0560    0.8180 C   0  0  0  0  0  0  0  0  0  0  0  0
   -6.9888    0.7553    1.6216 C   0  0  0  0  0  0  0  0  0  0  0  0
   -0.9440    0.0291   -1.2449 C   0  0  0  0  0  0  0  0  0  0  0  0
    0.3661    0.1054   -1.7177 C   0  0  0  0  0  0  0  0  0  0  0  0
    1.4009   -0.3382   -0.9113 C   0  0  0  0  0  0  0  0  0  0  0  0
    1.1033   -0.8418    0.3343 C   0  0  0  0  0  0  0  0  0  0  0  0
    4.1380   -0.3470    1.0450 N   0  0  0  0  0  0  0  0  0  0  0  0
    9.1251    4.8154    0.2761 H   0  0  0  0  0  0  0  0  0  0  0  0
    8.5632    4.5584   -1.4096 H   0  0  0  0  0  0  0  0  0  0  0  0
    9.9381    3.5507   -0.6846 H   0  0  0  0  0  0  0  0  0  0  0  0
    9.2112    0.1690   -3.9901 H   0  0  0  0  0  0  0  0  0  0  0  0
    9.2491   -1.3884   -3.0500 H   0  0  0  0  0  0  0  0  0  0  0  0
    7.6935   -0.8561   -3.8663 H   0  0  0  0  0  0  0  0  0  0  0  0
    6.7784   -1.1182   -1.2698 H   0  0  0  0  0  0  0  0  0  0  0  0
    6.2222    1.5847    1.4409 H   0  0  0  0  0  0  0  0  0  0  0  0
    5.9315   -3.6060    1.6781 H   0  0  0  0  0  0  0  0  0  0  0  0
    1.4413   -2.1395    3.3037 H   0  0  0  0  0  0  0  0  0  0  0  0
   -1.0303   -1.6057    2.5949 H   0  0  0  0  0  0  0  0  0  0  0  0
   -2.7275   -1.0326    1.4773 H   0  0  0  0  0  0  0  0  0  0  0  0
   -5.6953   -0.8875   -0.1588 H   0  0  0  0  0  0  0  0  0  0  0  0
   -6.0885   -1.5802    2.0044 H   0  0  0  0  0  0  0  0  0  0  0  0
   -4.7185   -0.5723    2.7307 H   0  0  0  0  0  0  0  0  0  0  0  0
   -4.4324   -1.9842    1.5723 H   0  0  0  0  0  0  0  0  0  0  0  0
   -6.2304    2.8947    0.3064 H   0  0  0  0  0  0  0  0  0  0  0  0
   -5.2811    2.0931   -0.9321 H   0  0  0  0  0  0  0  0  0  0  0  0
   -7.3210    1.7471   -1.9470 H   0  0  0  0  0  0  0  0  0  0  0  0
   -8.2164    2.2263   -0.4417 H   0  0  0  0  0  0  0  0  0  0  0  0
   -9.7713   -0.2536   -0.9506 H   0  0  0  0  0  0  0  0  0  0  0  0
   -8.4954   -1.2415   -1.8678 H   0  0  0  0  0  0  0  0  0  0  0  0
   -8.7891    0.4437   -2.3544 H   0  0  0  0  0  0  0  0  0  0  0  0
   -9.0769    0.5457    0.9797 H   0  0  0  0  0  0  0  0  0  0  0  0
   -8.2075   -0.9958    1.1171 H   0  0  0  0  0  0  0  0  0  0  0  0
   -7.4296    1.7347    1.9586 H   0  0  0  0  0  0  0  0  0  0  0  0
   -6.7437    0.2182    2.5434 H   0  0  0  0  0  0  0  0  0  0  0  0
   -1.6894    0.3845   -1.9176 H   0  0  0  0  0  0  0  0  0  0  0  0
    0.5898    0.5003   -2.6991 H   0  0  0  0  0  0  0  0  0  0  0  0
    2.4449   -0.3021   -1.2286 H   0  0  0  0  0  0  0  0  0  0  0  0
  1  2  1  0
  2  3  1  0
  3  4  2  0
  4  5  1  0
  5  6  1  0
  5  7  1  0
  7  8  2  0
  8  9  1  0
  9 10  1  0
 10 11  2  0
 11 12  1  0
 12 13  2  0
 13 14  1  0
 13 15  1  0
 15 16  1  0
 16 17  2  0
 17 18  1  0
 18 19  1  0
 19 20  2  0
 20 21  1  0
 21 22  1  0
 22 23  2  0
 22 24  1  0
 24 25  1  0
 24 26  1  0
 26 27  1  0
 27 28  1  0
 28 29  1  0
 29 30  1  0
 29 31  1  0
 31 32  1  0
 20 33  1  0
 33 34  2  0
 34 35  1  0
 35 36  2  0
 15 37  2  0
  8  3  1  0
 37 10  1  0
 36 16  1  0
 36 19  1  0
 32 26  1  0
  1 38  1  0
  1 39  1  0
  1 40  1  0
  6 41  1  0
  6 42  1  0
  6 43  1  0
  7 44  1  0
  9 45  1  0
 12 46  1  0
 17 47  1  0
 18 48  1  0
 21 49  1  0
 24 50  1  6
 25 51  1  0
 25 52  1  0
 25 53  1  0
 27 54  1  0
 27 55  1  0
 28 56  1  0
 28 57  1  0
 30 58  1  0
 30 59  1  0
 30 60  1  0
 31 61  1  0
 31 62  1  0
 32 63  1  0
 32 64  1  0
 33 65  1  0
 34 66  1  0
 35 67  1  0
M  END
$$$$
