
     RDKit          3D

 62 65  0  0  0  0  0  0  0  0999 V2000
    6.5973    2.1183    1.1836 C   0  0  0  0  0  0  0  0  0  0  0  0
    5.5305    2.7224    0.4134 N   0  0  0  0  0  0  0  0  0  0  0  0
    4.3419    1.9999    0.1932 C   0  0  0  0  0  0  0  0  0  0  0  0
    4.0147    1.3020   -0.8649 C   0  0  0  0  0  0  0  0  0  0  0  0
    4.8878    1.1923   -1.9896 C   0  0  0  0  0  0  0  0  0  0  0  0
    6.0004    1.7362   -2.1895 N   0  0  0  0  0  0  0  0  0  0  0  0
    2.7693    0.5316   -0.8135 C   0  0  0  0  0  0  0  0  0  0  0  0
    2.3513    0.0886    0.4528 C   0  0  0  0  0  0  0  0  0  0  0  0
    1.2079   -0.6112    0.6564 C   0  0  0  0  0  0  0  0  0  0  0  0
    0.4246   -0.8992   -0.4338 C   0  0  0  0  0  0  0  0  0  0  0  0
    0.7613   -0.4994   -1.7036 C   0  0  0  0  0  0  0  0  0  0  0  0
    1.9618    0.2311   -1.8633 C   0  0  0  0  0  0  0  0  0  0  0  0
    2.1877    0.7983   -3.2236 C   0  0  0  0  0  0  0  0  0  0  0  0
    0.9474    1.3080   -3.6608 F   0  0  0  0  0  0  0  0  0  0  0  0
    2.3952   -0.3032   -4.0631 F   0  0  0  0  0  0  0  0  0  0  0  0
   -0.7761   -1.6451   -0.2208 N   0  0  0  0  0  0  0  0  0  0  0  0
   -1.9076   -1.4266   -1.0543 C   0  0  0  0  0  0  0  0  0  0  0  0
   -1.9870   -2.0763   -2.2819 C   0  0  0  0  0  0  0  0  0  0  0  0
   -3.0865   -1.9240   -3.0976 C   0  0  0  0  0  0  0  0  0  0  0  0
   -4.1406   -1.1238   -2.7210 C   0  0  0  0  0  0  0  0  0  0  0  0
   -4.1034   -0.4619   -1.5136 C   0  0  0  0  0  0  0  0  0  0  0  0
   -2.9717   -0.6315   -0.6996 C   0  0  0  0  0  0  0  0  0  0  0  0
   -2.7473   -0.0045    0.5567 N   0  0  0  0  0  0  0  0  0  0  0  0
   -3.4846    1.1052    1.1138 C   0  0  2  0  0  0  0  0  0  0  0  0
   -2.8509    1.6236    2.3787 C   0  0  0  0  0  0  0  0  0  0  0  0
   -4.9173    0.7395    1.3264 C   0  0  0  0  0  0  0  0  0  0  0  0
   -5.6792    0.7439    0.0240 C   0  0  0  0  0  0  0  0  0  0  0  0
   -6.8396    1.1998    0.1393 O   0  0  0  0  0  0  0  0  0  0  0  0
   -5.2607    0.3142   -1.2565 N   0  0  0  0  0  0  0  0  0  0  0  0
   -0.8393   -2.5995    0.8329 C   0  0  0  0  0  0  0  0  0  0  0  0
    0.0102   -2.3278    2.0230 C   0  0  2  0  0  0  0  0  0  0  0  0
   -0.8102   -2.3544    3.3198 C   0  0  0  0  0  0  0  0  0  0  0  0
    0.7635   -1.0555    2.0088 C   0  0  0  0  0  0  0  0  0  0  0  0
    7.5478    2.5338    0.8210 H   0  0  0  0  0  0  0  0  0  0  0  0
    6.6460    1.0090    1.0048 H   0  0  0  0  0  0  0  0  0  0  0  0
    6.4664    2.2347    2.2729 H   0  0  0  0  0  0  0  0  0  0  0  0
    5.6464    3.6741    0.0521 H   0  0  0  0  0  0  0  0  0  0  0  0
    3.6246    2.0769    1.0475 H   0  0  0  0  0  0  0  0  0  0  0  0
    4.6303    0.4772   -2.8303 H   0  0  0  0  0  0  0  0  0  0  0  0
    6.5205    2.3575   -1.6212 H   0  0  0  0  0  0  0  0  0  0  0  0
    2.9486    0.2812    1.3555 H   0  0  0  0  0  0  0  0  0  0  0  0
    0.1268   -0.7284   -2.5437 H   0  0  0  0  0  0  0  0  0  0  0  0
    2.9214    1.5653   -3.3268 H   0  0  0  0  0  0  0  0  0  0  0  0
   -1.1434   -2.7096   -2.5507 H   0  0  0  0  0  0  0  0  0  0  0  0
   -3.1326   -2.4344   -4.0468 H   0  0  0  0  0  0  0  0  0  0  0  0
   -5.0349   -0.9780   -3.3450 H   0  0  0  0  0  0  0  0  0  0  0  0
   -1.9494   -0.3968    1.1254 H   0  0  0  0  0  0  0  0  0  0  0  0
   -3.4254    1.9545    0.3712 H   0  0  0  0  0  0  0  0  0  0  0  0
   -2.8937    0.9265    3.2203 H   0  0  0  0  0  0  0  0  0  0  0  0
   -1.8081    1.9329    2.1238 H   0  0  0  0  0  0  0  0  0  0  0  0
   -3.3787    2.5597    2.6537 H   0  0  0  0  0  0  0  0  0  0  0  0
   -5.3700    1.5371    1.9480 H   0  0  0  0  0  0  0  0  0  0  0  0
   -4.9673   -0.2599    1.8018 H   0  0  0  0  0  0  0  0  0  0  0  0
   -5.8267    0.5743   -2.0642 H   0  0  0  0  0  0  0  0  0  0  0  0
   -0.5809   -3.6003    0.3641 H   0  0  0  0  0  0  0  0  0  0  0  0
   -1.8951   -2.7277    1.1776 H   0  0  0  0  0  0  0  0  0  0  0  0
    0.7688   -3.1622    2.1037 H   0  0  0  0  0  0  0  0  0  0  0  0
   -1.6575   -3.0245    3.1413 H   0  0  0  0  0  0  0  0  0  0  0  0
   -0.1683   -2.7991    4.1243 H   0  0  0  0  0  0  0  0  0  0  0  0
   -1.1247   -1.3213    3.5649 H   0  0  0  0  0  0  0  0  0  0  0  0
    1.6574   -1.1320    2.6824 H   0  0  0  0  0  0  0  0  0  0  0  0
    0.1014   -0.2314    2.4003 H   0  0  0  0  0  0  0  0  0  0  0  0
  1  2  1  0
  2  3  1  0
  3  4  2  0
  4  5  1  0
  5  6  2  0
  4  7  1  0
  7  8  2  0
  8  9  1  0
  9 10  2  0
 10 11  1  0
 11 12  2  0
 12 13  1  0
 13 14  1  0
 13 15  1  0
 10 16  1  0
 16 17  1  0
 17 18  2  0
 18 19  1  0
 19 20  2  0
 20 21  1  0
 21 22  2  0
 22 23  1  0
 23 24  1  0
 24 25  1  0
 24 26  1  0
 26 27  1  0
 27 28  2  0
 27 29  1  0
 16 30  1  0
 30 31  1  0
 31 32  1  0
 31 33  1  0
 12  7  1  0
 22 17  1  0
 33  9  1  0
 29 21  1  0
  1 34  1  0
  1 35  1  0
  1 36  1  0
  2 37  1  0
  3 38  1  0
  5 39  1  0
  6 40  1  0
  8 41  1  0
 11 42  1  0
 13 43  1  0
 18 44  1  0
 19 45  1  0
 20 46  1  0
 23 47  1  0
 24 48  1  6
 25 49  1  0
 25 50  1  0
 25 51  1  0
 26 52  1  0
 26 53  1  0
 29 54  1  0
 30 55  1  0
 30 56  1  0
 31 57  1  1
 32 58  1  0
 32 59  1  0
 32 60  1  0
 33 61  1  0
 33 62  1  0
M  END
$$$$
