
     RDKit          3D

 49 52  0  0  0  0  0  0  0  0999 V2000
   -4.3586   -1.2529   -1.3331 C   0  0  0  0  0  0  0  0  0  0  0  0
   -3.4395   -1.0153   -0.1506 C   0  0  0  0  0  0  0  0  0  0  0  0
   -4.2174   -1.1410    1.1619 C   0  0  0  0  0  0  0  0  0  0  0  0
   -2.3581   -2.0418   -0.1435 C   0  0  0  0  0  0  0  0  0  0  0  0
   -1.1039   -1.2960   -0.0906 N   0  0  0  0  0  0  0  0  0  0  0  0
    0.2069   -1.5202   -0.0011 C   0  0  0  0  0  0  0  0  0  0  0  0
    0.9202   -2.8290    0.0871 C   0  0  0  0  0  0  0  0  0  0  0  0
    1.3566   -3.0209    1.5158 C   0  0  0  0  0  0  0  0  0  0  0  0
    1.9856   -3.7848    2.4713 O   0  0  0  0  0  0  0  0  0  0  0  0
    0.9590   -1.9991    2.1354 O   0  0  0  0  0  0  0  0  0  0  0  0
    0.8933   -0.2995    0.0012 C   0  0  0  0  0  0  0  0  0  0  0  0
   -0.0873    0.6713   -0.0925 C   0  0  0  0  0  0  0  0  0  0  0  0
   -1.3080    0.0244   -0.1475 C   0  0  0  0  0  0  0  0  0  0  0  0
   -2.7578    0.3039   -0.2488 C   0  0  0  0  0  0  0  0  0  0  0  0
    0.0989    2.1089   -0.1301 C   0  0  0  0  0  0  0  0  0  0  0  0
    0.5994    2.9925    0.8062 C   0  0  0  0  0  0  0  0  0  0  0  0
    0.6623    4.3343    0.4923 C   0  0  0  0  0  0  0  0  0  0  0  0
    0.2537    4.8386   -0.7015 C   0  0  0  0  0  0  0  0  0  0  0  0
   -0.2443    3.9798   -1.6392 C   0  0  0  0  0  0  0  0  0  0  0  0
   -0.3226    2.6124   -1.3551 C   0  0  0  0  0  0  0  0  0  0  0  0
    2.3393   -0.1208    0.0888 C   0  0  0  0  0  0  0  0  0  0  0  0
    2.9785   -0.5922   -1.0516 C   0  0  0  0  0  0  0  0  0  0  0  0
    4.3553   -0.5237   -1.1761 C   0  0  0  0  0  0  0  0  0  0  0  0
    5.1302    0.0222   -0.1549 C   0  0  0  0  0  0  0  0  0  0  0  0
    6.8594    0.1309   -0.2673 Cl  0  0  0  0  0  0  0  0  0  0  0  0
    4.4764    0.4830    0.9668 C   0  0  0  0  0  0  0  0  0  0  0  0
    3.1060    0.4204    1.1027 C   0  0  0  0  0  0  0  0  0  0  0  0
   -3.8191   -0.9491   -2.2410 H   0  0  0  0  0  0  0  0  0  0  0  0
   -4.6475   -2.3354   -1.3464 H   0  0  0  0  0  0  0  0  0  0  0  0
   -5.3045   -0.6706   -1.2697 H   0  0  0  0  0  0  0  0  0  0  0  0
   -4.9920   -0.3575    1.1221 H   0  0  0  0  0  0  0  0  0  0  0  0
   -4.6139   -2.1610    1.2172 H   0  0  0  0  0  0  0  0  0  0  0  0
   -3.4877   -1.0187    1.9661 H   0  0  0  0  0  0  0  0  0  0  0  0
   -2.4113   -2.6673   -1.0660 H   0  0  0  0  0  0  0  0  0  0  0  0
   -2.4005   -2.6797    0.7523 H   0  0  0  0  0  0  0  0  0  0  0  0
    1.8293   -2.8443   -0.5130 H   0  0  0  0  0  0  0  0  0  0  0  0
    0.2197   -3.6094   -0.2060 H   0  0  0  0  0  0  0  0  0  0  0  0
    2.8196   -3.4371    2.9090 H   0  0  0  0  0  0  0  0  0  0  0  0
   -3.0827    0.9511    0.5865 H   0  0  0  0  0  0  0  0  0  0  0  0
   -3.0029    0.7508   -1.2464 H   0  0  0  0  0  0  0  0  0  0  0  0
    0.8904    2.4836    1.7142 H   0  0  0  0  0  0  0  0  0  0  0  0
    1.0803    4.9126    1.3287 H   0  0  0  0  0  0  0  0  0  0  0  0
    0.3574    5.9287   -0.8239 H   0  0  0  0  0  0  0  0  0  0  0  0
   -0.5639    4.4187   -2.5856 H   0  0  0  0  0  0  0  0  0  0  0  0
   -0.7406    2.0578   -2.2003 H   0  0  0  0  0  0  0  0  0  0  0  0
    2.4935   -1.0439   -1.9325 H   0  0  0  0  0  0  0  0  0  0  0  0
    4.8905   -0.8857   -2.0585 H   0  0  0  0  0  0  0  0  0  0  0  0
    4.9896    0.9211    1.8100 H   0  0  0  0  0  0  0  0  0  0  0  0
    2.5126    0.7500    1.9371 H   0  0  0  0  0  0  0  0  0  0  0  0
  1  2  1  0
  2  3  1  0
  2  4  1  0
  4  5  1  0
  5  6  1  0
  6  7  1  0
  7  8  1  0
  8  9  1  0
  8 10  2  0
  6 11  2  0
 11 12  1  0
 12 13  2  0
 13 14  1  0
 12 15  1  0
 15 16  2  0
 16 17  1  0
 17 18  2  0
 18 19  1  0
 19 20  2  0
 11 21  1  0
 21 22  2  0
 22 23  1  0
 23 24  2  0
 24 25  1  0
 24 26  1  0
 26 27  2  0
 14  2  1  0
 20 15  1  0
 27 21  1  0
 13  5  1  0
  1 28  1  0
  1 29  1  0
  1 30  1  0
  3 31  1  0
  3 32  1  0
  3 33  1  0
  4 34  1  0
  4 35  1  0
  7 36  1  0
  7 37  1  0
  9 38  1  0
 14 39  1  0
 14 40  1  0
 16 41  1  0
 17 42  1  0
 18 43  1  0
 19 44  1  0
 20 45  1  0
 22 46  1  0
 23 47  1  0
 26 48  1  0
 27 49  1  0
M  END
$$$$
