
     RDKit          3D

 46 49  0  0  0  0  0  0  0  0999 V2000
    6.4703   -1.9603   -1.5201 N   0  0  0  0  0  0  0  0  0  0  0  0
    5.1187   -2.7817   -0.7919 S   0  0  0  0  0  6  0  0  0  0  0  0
    4.4926   -3.7868   -1.6762 O   0  0  0  0  0  0  0  0  0  0  0  0
    5.6395   -3.3886    0.5046 O   0  0  0  0  0  0  0  0  0  0  0  0
    3.9744   -1.5348   -0.3045 C   0  0  0  0  0  0  0  0  0  0  0  0
    3.8284   -1.1417    1.0032 C   0  0  0  0  0  0  0  0  0  0  0  0
    2.9215   -0.1625    1.3439 C   0  0  0  0  0  0  0  0  0  0  0  0
    2.1293    0.4642    0.4139 C   0  0  0  0  0  0  0  0  0  0  0  0
    1.1089    1.4899    0.8327 C   0  0  0  0  0  0  0  0  0  0  0  0
   -0.2236    0.9687    0.4641 C   0  0  0  0  0  0  0  0  0  0  0  0
   -0.4978   -0.3681    0.3483 C   0  0  0  0  0  0  0  0  0  0  0  0
   -1.7776   -0.4873   -0.0357 N   0  0  0  0  0  0  0  0  0  0  0  0
   -2.4960   -1.6992   -0.3053 C   0  0  0  0  0  0  0  0  0  0  0  0
   -3.5053   -2.2711    0.0402 N   0  0  0  0  0  0  0  0  0  0  0  0
   -3.9698   -3.4126   -0.3786 C   0  0  0  0  0  0  0  0  0  0  0  0
   -5.2340   -3.9882    0.1394 C   0  0  0  0  0  0  0  0  0  0  0  0
   -5.9161   -3.3956    1.0138 O   0  0  0  0  0  0  0  0  0  0  0  0
   -5.6517   -5.2011   -0.3625 O   0  0  0  0  0  0  0  0  0  0  0  0
   -3.2304   -4.0628   -1.3352 C   0  0  0  0  0  0  0  0  0  0  0  0
   -1.8514   -2.9264   -1.5747 S   0  0  0  0  0  0  0  0  0  0  0  0
   -2.2952    0.7467   -0.1557 N   0  0  0  0  0  0  0  0  0  0  0  0
   -1.3569    1.6728    0.1471 C   0  0  0  0  0  0  0  0  0  0  0  0
   -1.5903    3.1353    0.1473 C   0  0  0  0  0  0  0  0  0  0  0  0
   -0.7918    4.0541   -0.4442 C   0  0  0  0  0  0  0  0  0  0  0  0
   -1.1331    5.4158   -0.3536 C   0  0  0  0  0  0  0  0  0  0  0  0
   -2.2440    5.8557    0.3120 C   0  0  0  0  0  0  0  0  0  0  0  0
   -2.5301    7.1800    0.3688 F   0  0  0  0  0  0  0  0  0  0  0  0
   -3.0450    4.9113    0.9069 C   0  0  0  0  0  0  0  0  0  0  0  0
   -4.1567    5.3655    1.5684 F   0  0  0  0  0  0  0  0  0  0  0  0
   -2.7294    3.5882    0.8278 C   0  0  0  0  0  0  0  0  0  0  0  0
    2.2704    0.0786   -0.8949 C   0  0  0  0  0  0  0  0  0  0  0  0
    3.1842   -0.9144   -1.2586 C   0  0  0  0  0  0  0  0  0  0  0  0
    7.1813   -1.6712   -0.8250 H   0  0  0  0  0  0  0  0  0  0  0  0
    6.8715   -2.6725   -2.1818 H   0  0  0  0  0  0  0  0  0  0  0  0
    4.4500   -1.6306    1.7366 H   0  0  0  0  0  0  0  0  0  0  0  0
    2.8069    0.1460    2.3855 H   0  0  0  0  0  0  0  0  0  0  0  0
    1.3334    2.4740    0.4579 H   0  0  0  0  0  0  0  0  0  0  0  0
    1.0988    1.5628    1.9565 H   0  0  0  0  0  0  0  0  0  0  0  0
    0.1725   -1.2185    0.5265 H   0  0  0  0  0  0  0  0  0  0  0  0
   -6.6050   -5.5447   -0.2758 H   0  0  0  0  0  0  0  0  0  0  0  0
   -3.3811   -4.9914   -1.8378 H   0  0  0  0  0  0  0  0  0  0  0  0
    0.0801    3.7639   -0.9905 H   0  0  0  0  0  0  0  0  0  0  0  0
   -0.4873    6.1226   -0.8266 H   0  0  0  0  0  0  0  0  0  0  0  0
   -3.3651    2.8578    1.2980 H   0  0  0  0  0  0  0  0  0  0  0  0
    1.6504    0.5632   -1.6361 H   0  0  0  0  0  0  0  0  0  0  0  0
    3.2816   -1.2049   -2.2926 H   0  0  0  0  0  0  0  0  0  0  0  0
  1  2  1  0
  2  3  2  0
  2  4  2  0
  2  5  1  0
  5  6  2  0
  6  7  1  0
  7  8  2  0
  8  9  1  0
  9 10  1  0
 10 11  2  0
 11 12  1  0
 12 13  1  0
 13 14  2  0
 14 15  1  0
 15 16  1  0
 16 17  2  0
 16 18  1  0
 15 19  2  0
 19 20  1  0
 12 21  1  0
 21 22  2  0
 22 23  1  0
 23 24  2  0
 24 25  1  0
 25 26  2  0
 26 27  1  0
 26 28  1  0
 28 29  1  0
 28 30  2  0
  8 31  1  0
 31 32  2  0
 32  5  1  0
 22 10  1  0
 30 23  1  0
 20 13  1  0
  1 33  1  0
  1 34  1  0
  6 35  1  0
  7 36  1  0
  9 37  1  0
  9 38  1  0
 11 39  1  0
 18 40  1  0
 19 41  1  0
 24 42  1  0
 25 43  1  0
 30 44  1  0
 31 45  1  0
 32 46  1  0
M  END
$$$$
