
     RDKit          3D

 47 48  0  0  0  0  0  0  0  0999 V2000
    5.5629   -1.7093    0.1366 C   0  0  0  0  0  0  0  0  0  0  0  0
    4.7859   -1.3294   -0.9720 O   0  0  0  0  0  0  0  0  0  0  0  0
    3.5022   -0.8709   -0.7947 C   0  0  0  0  0  0  0  0  0  0  0  0
    2.9104   -0.7560    0.4325 C   0  0  0  0  0  0  0  0  0  0  0  0
    1.6133   -0.2918    0.6020 C   0  0  0  0  0  0  0  0  0  0  0  0
    0.8764    0.0732   -0.5086 C   0  0  0  0  0  0  0  0  0  0  0  0
   -0.5186    0.5675   -0.4101 C   0  0  2  0  0  0  0  0  0  0  0  0
   -0.6487    1.6211    0.6341 C   0  0  0  0  0  0  0  0  0  0  0  0
    0.1893    2.7591    0.3556 N   0  0  0  0  0  0  0  0  0  0  0  0
   -0.2038    3.5207   -0.7876 C   0  0  0  0  0  0  0  0  0  0  0  0
    0.5245    3.5332    1.5125 C   0  0  0  0  0  0  0  0  0  0  0  0
   -1.5268   -0.5438   -0.2752 C   0  0  0  0  0  0  0  0  0  0  0  0
   -1.3962   -1.3426   -1.4241 O   0  0  0  0  0  0  0  0  0  0  0  0
   -2.9467    0.0045   -0.3089 C   0  0  0  0  0  0  0  0  0  0  0  0
   -3.8501   -1.1687   -0.6620 C   0  0  0  0  0  0  0  0  0  0  0  0
   -3.7609   -2.1266    0.5095 C   0  0  0  0  0  0  0  0  0  0  0  0
   -2.3603   -2.5730    0.7728 C   0  0  0  0  0  0  0  0  0  0  0  0
   -1.3803   -1.4014    0.9289 C   0  0  0  0  0  0  0  0  0  0  0  0
    1.4775   -0.0443   -1.7437 C   0  0  0  0  0  0  0  0  0  0  0  0
    2.7674   -0.5066   -1.9016 C   0  0  0  0  0  0  0  0  0  0  0  0
    6.6420   -1.7432   -0.1357 H   0  0  0  0  0  0  0  0  0  0  0  0
    5.4552   -1.0489    0.9996 H   0  0  0  0  0  0  0  0  0  0  0  0
    5.2227   -2.7264    0.4338 H   0  0  0  0  0  0  0  0  0  0  0  0
    3.4482   -1.0300    1.3182 H   0  0  0  0  0  0  0  0  0  0  0  0
    1.1642   -0.2024    1.5832 H   0  0  0  0  0  0  0  0  0  0  0  0
   -0.7577    1.0348   -1.4135 H   0  0  0  0  0  0  0  0  0  0  0  0
   -0.3041    1.2111    1.6254 H   0  0  0  0  0  0  0  0  0  0  0  0
   -1.6808    1.9702    0.7910 H   0  0  0  0  0  0  0  0  0  0  0  0
    0.5496    3.4388   -1.5994 H   0  0  0  0  0  0  0  0  0  0  0  0
   -1.1622    3.1240   -1.2176 H   0  0  0  0  0  0  0  0  0  0  0  0
   -0.3056    4.6094   -0.5743 H   0  0  0  0  0  0  0  0  0  0  0  0
    0.9685    4.4939    1.2007 H   0  0  0  0  0  0  0  0  0  0  0  0
   -0.3203    3.7161    2.2034 H   0  0  0  0  0  0  0  0  0  0  0  0
    1.3433    2.9828    2.0444 H   0  0  0  0  0  0  0  0  0  0  0  0
   -0.4318   -1.6420   -1.4192 H   0  0  0  0  0  0  0  0  0  0  0  0
   -3.2199    0.3077    0.7262 H   0  0  0  0  0  0  0  0  0  0  0  0
   -3.0465    0.8287   -1.0296 H   0  0  0  0  0  0  0  0  0  0  0  0
   -4.8885   -0.8723   -0.7984 H   0  0  0  0  0  0  0  0  0  0  0  0
   -3.3851   -1.6597   -1.5521 H   0  0  0  0  0  0  0  0  0  0  0  0
   -4.3433   -3.0247    0.2252 H   0  0  0  0  0  0  0  0  0  0  0  0
   -4.2586   -1.6589    1.3621 H   0  0  0  0  0  0  0  0  0  0  0  0
   -2.3621   -3.0825    1.7777 H   0  0  0  0  0  0  0  0  0  0  0  0
   -2.0194   -3.3083    0.0391 H   0  0  0  0  0  0  0  0  0  0  0  0
   -0.3791   -1.8827    0.9504 H   0  0  0  0  0  0  0  0  0  0  0  0
   -1.6564   -0.9058    1.8686 H   0  0  0  0  0  0  0  0  0  0  0  0
    0.9185    0.2350   -2.6172 H   0  0  0  0  0  0  0  0  0  0  0  0
    3.1919   -0.5796   -2.8880 H   0  0  0  0  0  0  0  0  0  0  0  0
  1  2  1  0
  2  3  1  0
  3  4  2  0
  4  5  1  0
  5  6  2  0
  6  7  1  0
  7  8  1  0
  8  9  1  0
  9 10  1  0
  9 11  1  0
  7 12  1  0
 12 13  1  0
 12 14  1  0
 14 15  1  0
 15 16  1  0
 16 17  1  0
 17 18  1  0
  6 19  1  0
 19 20  2  0
 20  3  1  0
 18 12  1  0
  1 21  1  0
  1 22  1  0
  1 23  1  0
  4 24  1  0
  5 25  1  0
  7 26  1  6
  8 27  1  0
  8 28  1  0
 10 29  1  0
 10 30  1  0
 10 31  1  0
 11 32  1  0
 11 33  1  0
 11 34  1  0
 13 35  1  0
 14 36  1  0
 14 37  1  0
 15 38  1  0
 15 39  1  0
 16 40  1  0
 16 41  1  0
 17 42  1  0
 17 43  1  0
 18 44  1  0
 18 45  1  0
 19 46  1  0
 20 47  1  0
M  END
$$$$
