
     RDKit          3D

 46 49  0  0  0  0  0  0  0  0999 V2000
    1.6442    0.5317    0.1924 C   0  0  2  0  0  0  0  0  0  0  0  0
    2.7606    1.0582   -0.6106 C   0  0  0  0  0  0  0  0  0  0  0  0
    3.9224    1.0441    0.3663 C   0  0  0  0  0  0  0  0  0  0  0  0
    3.3947    0.3920    1.6133 C   0  0  0  0  0  0  0  0  0  0  0  0
    3.8643    0.6687    2.7146 O   0  0  0  0  0  0  0  0  0  0  0  0
    2.3347   -0.4989    1.0661 C   0  0  2  0  0  0  0  0  0  0  0  0
    2.8834   -1.6469    0.2631 C   0  0  0  0  0  0  0  0  0  0  0  0
    1.3752   -1.0041    2.0668 C   0  0  0  0  0  0  0  0  0  0  0  0
    0.1055   -1.4797    1.3912 C   0  0  0  0  0  0  0  0  0  0  0  0
   -0.5070   -0.3770    0.6025 C   0  0  1  0  0  0  0  0  0  0  0  0
    0.4707   -0.0040   -0.5274 C   0  0  1  0  0  0  0  0  0  0  0  0
   -0.0658    1.0035   -1.4723 C   0  0  0  0  0  0  0  0  0  0  0  0
   -1.4814    1.3877   -1.2608 C   0  0  0  0  0  0  0  0  0  0  0  0
   -1.8698    2.3797   -2.0451 C   0  0  0  0  0  0  0  0  0  0  0  0
   -2.3858    0.7748   -0.2950 C   0  0  0  0  0  0  0  0  0  0  0  0
   -3.4691    1.4020    0.1068 C   0  0  0  0  0  0  0  0  0  0  0  0
   -4.2555    0.6506    1.0745 C   0  0  0  0  0  0  0  0  0  0  0  0
   -5.3184    1.1952    1.5079 O   0  0  0  0  0  0  0  0  0  0  0  0
   -3.8164   -0.6499    1.4983 C   0  0  0  0  0  0  0  0  0  0  0  0
   -2.7211   -1.2629    1.0763 C   0  0  0  0  0  0  0  0  0  0  0  0
   -1.8772   -0.5862    0.0997 C   0  0  2  0  0  0  0  0  0  0  0  0
   -1.9227   -1.4339   -1.1647 C   0  0  0  0  0  0  0  0  0  0  0  0
    1.2926    1.3216    0.8873 H   0  0  0  0  0  0  0  0  0  0  0  0
    2.5079    2.1020   -0.9176 H   0  0  0  0  0  0  0  0  0  0  0  0
    2.9948    0.5034   -1.5334 H   0  0  0  0  0  0  0  0  0  0  0  0
    4.7961    0.5014   -0.0433 H   0  0  0  0  0  0  0  0  0  0  0  0
    4.2304    2.0769    0.5439 H   0  0  0  0  0  0  0  0  0  0  0  0
    2.8185   -1.4972   -0.8255 H   0  0  0  0  0  0  0  0  0  0  0  0
    2.3237   -2.5974    0.4743 H   0  0  0  0  0  0  0  0  0  0  0  0
    3.9177   -1.8421    0.6185 H   0  0  0  0  0  0  0  0  0  0  0  0
    1.1147   -0.2994    2.8717 H   0  0  0  0  0  0  0  0  0  0  0  0
    1.8155   -1.8956    2.5697 H   0  0  0  0  0  0  0  0  0  0  0  0
    0.2732   -2.3558    0.7628 H   0  0  0  0  0  0  0  0  0  0  0  0
   -0.5754   -1.7754    2.2268 H   0  0  0  0  0  0  0  0  0  0  0  0
   -0.5307    0.5240    1.2721 H   0  0  0  0  0  0  0  0  0  0  0  0
    0.7268   -0.9628   -1.0726 H   0  0  0  0  0  0  0  0  0  0  0  0
    0.1165    0.6507   -2.5114 H   0  0  0  0  0  0  0  0  0  0  0  0
    0.5120    1.9606   -1.3471 H   0  0  0  0  0  0  0  0  0  0  0  0
   -2.8420    2.8369   -2.0836 H   0  0  0  0  0  0  0  0  0  0  0  0
   -2.1045    3.1850   -2.7147 H   0  0  0  0  0  0  0  0  0  0  0  0
   -3.6822    2.3767   -0.2908 H   0  0  0  0  0  0  0  0  0  0  0  0
   -4.4074   -1.2149    2.2295 H   0  0  0  0  0  0  0  0  0  0  0  0
   -2.3758   -2.2382    1.3866 H   0  0  0  0  0  0  0  0  0  0  0  0
   -1.7145   -0.8305   -2.0499 H   0  0  0  0  0  0  0  0  0  0  0  0
   -3.0013   -1.7512   -1.2642 H   0  0  0  0  0  0  0  0  0  0  0  0
   -1.2720   -2.3232   -1.0298 H   0  0  0  0  0  0  0  0  0  0  0  0
  1  2  1  0
  2  3  1  0
  3  4  1  0
  4  5  2  0
  4  6  1  0
  6  7  1  6
  6  8  1  0
  8  9  1  0
  9 10  1  0
 10 11  1  0
 11 12  1  0
 12 13  1  0
 13 14  2  0
 13 15  1  0
 15 16  2  0
 16 17  1  0
 17 18  2  0
 17 19  1  0
 19 20  2  0
 20 21  1  0
 21 22  1  6
  6  1  1  0
 21 10  1  0
 11  1  1  0
 21 15  1  0
  1 23  1  1
  2 24  1  0
  2 25  1  0
  3 26  1  0
  3 27  1  0
  7 28  1  0
  7 29  1  0
  7 30  1  0
  8 31  1  0
  8 32  1  0
  9 33  1  0
  9 34  1  0
 10 35  1  1
 11 36  1  6
 12 37  1  0
 12 38  1  0
 14 39  1  0
 14 40  1  0
 16 41  1  0
 19 42  1  0
 20 43  1  0
 22 44  1  0
 22 45  1  0
 22 46  1  0
M  END
$$$$
