
     RDKit          3D

 31 33  0  0  0  0  0  0  0  0999 V2000
   -2.1132   -2.7762    0.1224 O   0  0  0  0  0  0  0  0  0  0  0  0
   -1.5306   -1.6723    0.0574 C   0  0  0  0  0  0  0  0  0  0  0  0
   -0.1284   -1.5528    0.0143 C   0  0  0  0  0  0  0  0  0  0  0  0
    0.5395   -2.7561    0.0501 O   0  0  0  0  0  0  0  0  0  0  0  0
    0.5047   -0.3439   -0.0567 C   0  0  0  0  0  0  0  0  0  0  0  0
    1.9386   -0.1798   -0.1027 C   0  0  0  0  0  0  0  0  0  0  0  0
    2.8589   -1.1743   -0.0831 C   0  0  0  0  0  0  0  0  0  0  0  0
    4.2348   -0.9321   -0.1309 C   0  0  0  0  0  0  0  0  0  0  0  0
    4.6782    0.3678   -0.2009 C   0  0  0  0  0  0  0  0  0  0  0  0
    6.0401    0.5875   -0.2474 O   0  0  0  0  0  0  0  0  0  0  0  0
    3.7695    1.4010   -0.2226 C   0  0  0  0  0  0  0  0  0  0  0  0
    2.4427    1.1264   -0.1746 C   0  0  0  0  0  0  0  0  0  0  0  0
   -0.2865    0.7317   -0.0835 O   0  0  0  0  0  0  0  0  0  0  0  0
   -1.5906    0.6726   -0.0457 C   0  0  0  0  0  0  0  0  0  0  0  0
   -2.3750    1.8194   -0.0758 C   0  0  0  0  0  0  0  0  0  0  0  0
   -3.7521    1.7878   -0.0373 C   0  0  0  0  0  0  0  0  0  0  0  0
   -4.5018    2.9832   -0.0705 O   0  0  0  0  0  0  0  0  0  0  0  0
   -4.3876    0.5679    0.0343 C   0  0  0  0  0  0  0  0  0  0  0  0
   -3.6479   -0.6083    0.0669 C   0  0  0  0  0  0  0  0  0  0  0  0
   -4.3116   -1.8400    0.1398 O   0  0  0  0  0  0  0  0  0  0  0  0
   -2.2762   -0.5224    0.0261 C   0  0  0  0  0  0  0  0  0  0  0  0
    0.6097   -3.2235    0.9472 H   0  0  0  0  0  0  0  0  0  0  0  0
    2.5638   -2.1890   -0.0298 H   0  0  0  0  0  0  0  0  0  0  0  0
    4.9284   -1.7615   -0.1126 H   0  0  0  0  0  0  0  0  0  0  0  0
    6.6171   -0.0542   -0.7561 H   0  0  0  0  0  0  0  0  0  0  0  0
    4.1784    2.3990   -0.2782 H   0  0  0  0  0  0  0  0  0  0  0  0
    1.7547    1.9798   -0.1942 H   0  0  0  0  0  0  0  0  0  0  0  0
   -1.8687    2.7739   -0.1321 H   0  0  0  0  0  0  0  0  0  0  0  0
   -4.1503    3.7391    0.4968 H   0  0  0  0  0  0  0  0  0  0  0  0
   -5.4617    0.5080    0.0659 H   0  0  0  0  0  0  0  0  0  0  0  0
   -5.2768   -1.8587    0.3823 H   0  0  0  0  0  0  0  0  0  0  0  0
  1  2  2  0
  2  3  1  0
  3  4  1  0
  3  5  2  0
  5  6  1  0
  6  7  2  0
  7  8  1  0
  8  9  2  0
  9 10  1  0
  9 11  1  0
 11 12  2  0
  5 13  1  0
 13 14  1  0
 14 15  2  0
 15 16  1  0
 16 17  1  0
 16 18  2  0
 18 19  1  0
 19 20  1  0
 19 21  2  0
 21  2  1  0
 12  6  1  0
 21 14  1  0
  4 22  1  0
  7 23  1  0
  8 24  1  0
 10 25  1  0
 11 26  1  0
 12 27  1  0
 15 28  1  0
 17 29  1  0
 18 30  1  0
 20 31  1  0
M  END
$$$$
