
     RDKit          3D

 50 54  0  0  0  0  0  0  0  0999 V2000
   -3.6382    0.2842   -1.9703 C   0  0  0  0  0  0  0  0  0  0  0  0
   -2.5725   -0.3083   -1.0942 C   0  0  1  0  0  0  0  0  0  0  0  0
   -1.8953    0.7069   -0.4261 O   0  0  0  0  0  0  0  0  0  0  0  0
   -0.5351    0.8777   -0.3184 C   0  0  0  0  0  0  0  0  0  0  0  0
    0.4242    0.0811   -0.8563 C   0  0  0  0  0  0  0  0  0  0  0  0
    1.7840    0.3186   -0.6960 C   0  0  0  0  0  0  0  0  0  0  0  0
    2.7621   -0.6026   -1.3132 C   0  0  0  0  0  0  0  0  0  0  0  0
    2.8426   -1.0819   -2.5883 C   0  0  0  0  0  0  0  0  0  0  0  0
    3.8738   -1.9318   -2.7309 N   0  0  0  0  0  0  0  0  0  0  0  0
    4.4584   -1.9849   -1.4975 C   0  0  0  0  0  0  0  0  0  0  0  0
    5.5438   -2.6862   -1.0514 C   0  0  0  0  0  0  0  0  0  0  0  0
    6.0026   -2.6107    0.2744 C   0  0  0  0  0  0  0  0  0  0  0  0
    5.2846   -1.7840    1.0929 C   0  0  0  0  0  0  0  0  0  0  0  0
    5.6958   -1.6490    2.4671 C   0  0  0  0  0  0  0  0  0  0  0  0
    6.0187   -1.5539    3.5945 N   0  0  0  0  0  0  0  0  0  0  0  0
    4.1855   -1.0696    0.6554 C   0  0  0  0  0  0  0  0  0  0  0  0
    3.7888   -1.1865   -0.6519 N   0  0  0  0  0  0  0  0  0  0  0  0
    2.1640    1.4176    0.0427 C   0  0  0  0  0  0  0  0  0  0  0  0
    1.2208    2.2490    0.6024 C   0  0  0  0  0  0  0  0  0  0  0  0
    1.2755    3.3747    1.3589 N   0  0  0  0  0  0  0  0  0  0  0  0
    0.0662    3.7905    1.6397 N   0  0  0  0  0  0  0  0  0  0  0  0
   -0.3446    4.9616    2.4204 C   0  0  0  0  0  0  0  0  0  0  0  0
   -0.8401    2.9671    1.0885 C   0  0  0  0  0  0  0  0  0  0  0  0
   -0.1267    1.9879    0.4289 C   0  0  0  0  0  0  0  0  0  0  0  0
   -3.1769   -1.1942   -0.0078 C   0  0  1  0  0  0  0  0  0  0  0  0
   -4.1017   -0.3504    0.8458 C   0  0  0  0  0  0  0  0  0  0  0  0
   -5.4278   -0.8237    0.4980 N   0  0  0  0  0  0  0  0  0  0  0  0
   -5.3808   -2.0091   -0.2632 C   0  0  0  0  0  0  0  0  0  0  0  0
   -6.3715   -2.6781   -0.6597 O   0  0  0  0  0  0  0  0  0  0  0  0
   -3.9483   -2.3516   -0.5298 C   0  0  0  0  0  0  0  0  0  0  0  0
   -3.2430    0.3122   -3.0193 H   0  0  0  0  0  0  0  0  0  0  0  0
   -3.9054    1.3022   -1.6864 H   0  0  0  0  0  0  0  0  0  0  0  0
   -4.5144   -0.4124   -2.0104 H   0  0  0  0  0  0  0  0  0  0  0  0
   -1.9087   -0.9709   -1.6858 H   0  0  0  0  0  0  0  0  0  0  0  0
    0.0913   -0.7855   -1.4451 H   0  0  0  0  0  0  0  0  0  0  0  0
    2.1745   -0.8259   -3.4045 H   0  0  0  0  0  0  0  0  0  0  0  0
    6.0846   -3.3372   -1.7166 H   0  0  0  0  0  0  0  0  0  0  0  0
    6.8656   -3.1858    0.5759 H   0  0  0  0  0  0  0  0  0  0  0  0
    3.6397   -0.4322    1.3045 H   0  0  0  0  0  0  0  0  0  0  0  0
    3.2315    1.6406    0.1898 H   0  0  0  0  0  0  0  0  0  0  0  0
   -0.6765    5.7096    1.6596 H   0  0  0  0  0  0  0  0  0  0  0  0
   -1.2676    4.7240    2.9929 H   0  0  0  0  0  0  0  0  0  0  0  0
    0.4239    5.3253    3.1037 H   0  0  0  0  0  0  0  0  0  0  0  0
   -1.9353    3.0651    1.1571 H   0  0  0  0  0  0  0  0  0  0  0  0
   -2.3503   -1.5138    0.6545 H   0  0  0  0  0  0  0  0  0  0  0  0
   -3.9208   -0.4612    1.9162 H   0  0  0  0  0  0  0  0  0  0  0  0
   -3.9811    0.7457    0.6241 H   0  0  0  0  0  0  0  0  0  0  0  0
   -6.2934   -0.2900    0.8160 H   0  0  0  0  0  0  0  0  0  0  0  0
   -3.8366   -2.5095   -1.6226 H   0  0  0  0  0  0  0  0  0  0  0  0
   -3.7099   -3.2608    0.0690 H   0  0  0  0  0  0  0  0  0  0  0  0
  1  2  1  0
  2  3  1  0
  3  4  1  0
  4  5  2  0
  5  6  1  0
  6  7  1  0
  7  8  2  0
  8  9  1  0
  9 10  2  0
 10 11  1  0
 11 12  2  0
 12 13  1  0
 13 14  1  0
 14 15  3  0
 13 16  2  0
 16 17  1  0
  6 18  2  0
 18 19  1  0
 19 20  2  0
 20 21  1  0
 21 22  1  0
 21 23  1  0
 23 24  2  0
  2 25  1  0
 25 26  1  0
 26 27  1  0
 27 28  1  0
 28 29  2  0
 28 30  1  0
 24  4  1  0
 30 25  1  0
 17  7  1  0
 24 19  1  0
 17 10  1  0
  1 31  1  0
  1 32  1  0
  1 33  1  0
  2 34  1  6
  5 35  1  0
  8 36  1  0
 11 37  1  0
 12 38  1  0
 16 39  1  0
 18 40  1  0
 22 41  1  0
 22 42  1  0
 22 43  1  0
 23 44  1  0
 25 45  1  1
 26 46  1  0
 26 47  1  0
 27 48  1  0
 30 49  1  0
 30 50  1  0
M  END
$$$$
