
     RDKit          3D

 52 56  0  0  0  0  0  0  0  0999 V2000
    3.1734    1.8916   -0.7378 C   0  0  0  0  0  0  0  0  0  0  0  0
    3.4149    0.6371   -1.5343 C   0  0  2  0  0  0  0  0  0  0  0  0
    2.1329    0.0448   -1.8253 N   0  0  0  0  0  0  0  0  0  0  0  0
    1.2273   -0.2587   -0.7631 C   0  0  0  0  0  0  0  0  0  0  0  0
    1.6459   -1.0162    0.2610 N   0  0  0  0  0  0  0  0  0  0  0  0
    0.8605   -1.3384    1.3066 C   0  0  0  0  0  0  0  0  0  0  0  0
   -0.4285   -0.8601    1.3092 C   0  0  0  0  0  0  0  0  0  0  0  0
   -0.8934   -0.0823    0.2777 C   0  0  0  0  0  0  0  0  0  0  0  0
   -2.2529    0.4801    0.2196 C   0  0  0  0  0  0  0  0  0  0  0  0
   -3.4512   -0.1691    0.2319 C   0  0  0  0  0  0  0  0  0  0  0  0
   -3.6860   -1.6087    0.3481 C   0  0  0  0  0  0  0  0  0  0  0  0
   -3.6419   -2.2396    1.5886 C   0  0  0  0  0  0  0  0  0  0  0  0
   -3.8662   -3.5871    1.7381 C   0  0  0  0  0  0  0  0  0  0  0  0
   -4.1419   -4.3290    0.6243 C   0  0  0  0  0  0  0  0  0  0  0  0
   -4.3785   -5.6658    0.6621 F   0  0  0  0  0  0  0  0  0  0  0  0
   -4.1924   -3.7353   -0.6175 C   0  0  0  0  0  0  0  0  0  0  0  0
   -3.9658   -2.3912   -0.7456 C   0  0  0  0  0  0  0  0  0  0  0  0
   -4.3914    0.8085    0.1287 N   0  0  0  0  0  0  0  0  0  0  0  0
   -3.7974    2.0108    0.0564 C   0  0  0  0  0  0  0  0  0  0  0  0
   -4.2472    3.2753   -0.0568 N   0  0  0  0  0  0  0  0  0  0  0  0
   -3.4585    4.3636   -0.1185 C   0  0  0  0  0  0  0  0  0  0  0  0
   -3.9762    5.6798   -0.2430 N   0  0  0  0  0  0  0  0  0  0  0  0
   -2.0895    4.1729   -0.0614 C   0  0  0  0  0  0  0  0  0  0  0  0
   -1.6262    2.8829    0.0543 C   0  0  0  0  0  0  0  0  0  0  0  0
   -2.4655    1.8328    0.1112 N   0  0  0  0  0  0  0  0  0  0  0  0
   -0.0184    0.1878   -0.7361 N   0  0  0  0  0  0  0  0  0  0  0  0
    4.3464   -0.2314   -0.8153 C   0  0  0  0  0  0  0  0  0  0  0  0
    4.5776   -1.5350   -1.2451 C   0  0  0  0  0  0  0  0  0  0  0  0
    5.4574   -2.3429   -0.5599 C   0  0  0  0  0  0  0  0  0  0  0  0
    6.1379   -1.9155    0.5576 C   0  0  0  0  0  0  0  0  0  0  0  0
    5.9055   -0.6183    0.9823 C   0  0  0  0  0  0  0  0  0  0  0  0
    5.0270    0.1968    0.3033 C   0  0  0  0  0  0  0  0  0  0  0  0
    2.9371    1.6199    0.3325 H   0  0  0  0  0  0  0  0  0  0  0  0
    2.2916    2.4599   -1.1011 H   0  0  0  0  0  0  0  0  0  0  0  0
    4.1079    2.4875   -0.7292 H   0  0  0  0  0  0  0  0  0  0  0  0
    3.8504    0.9237   -2.5355 H   0  0  0  0  0  0  0  0  0  0  0  0
    1.8340   -0.1747   -2.7954 H   0  0  0  0  0  0  0  0  0  0  0  0
    1.2719   -1.9543    2.0948 H   0  0  0  0  0  0  0  0  0  0  0  0
   -1.0552   -1.1082    2.1427 H   0  0  0  0  0  0  0  0  0  0  0  0
   -3.4238   -1.6372    2.4532 H   0  0  0  0  0  0  0  0  0  0  0  0
   -3.8298   -4.0804    2.7156 H   0  0  0  0  0  0  0  0  0  0  0  0
   -4.4164   -4.3470   -1.5146 H   0  0  0  0  0  0  0  0  0  0  0  0
   -4.0021   -1.9035   -1.7288 H   0  0  0  0  0  0  0  0  0  0  0  0
   -4.3544    5.9694   -1.1701 H   0  0  0  0  0  0  0  0  0  0  0  0
   -3.9851    6.3412    0.5555 H   0  0  0  0  0  0  0  0  0  0  0  0
   -1.4185    5.0323   -0.1079 H   0  0  0  0  0  0  0  0  0  0  0  0
   -0.5640    2.7075    0.1022 H   0  0  0  0  0  0  0  0  0  0  0  0
    4.0556   -1.9123   -2.1274 H   0  0  0  0  0  0  0  0  0  0  0  0
    5.5936   -3.3491   -0.9468 H   0  0  0  0  0  0  0  0  0  0  0  0
    6.8285   -2.5385    1.0999 H   0  0  0  0  0  0  0  0  0  0  0  0
    6.4437   -0.2864    1.8654 H   0  0  0  0  0  0  0  0  0  0  0  0
    4.8973    1.2101    0.7043 H   0  0  0  0  0  0  0  0  0  0  0  0
  1  2  1  0
  2  3  1  0
  3  4  1  0
  4  5  2  0
  5  6  1  0
  6  7  2  0
  7  8  1  0
  8  9  1  0
  9 10  2  0
 10 11  1  0
 11 12  2  0
 12 13  1  0
 13 14  2  0
 14 15  1  0
 14 16  1  0
 16 17  2  0
 10 18  1  0
 18 19  2  0
 19 20  1  0
 20 21  2  0
 21 22  1  0
 21 23  1  0
 23 24  2  0
 24 25  1  0
  8 26  2  0
  2 27  1  0
 27 28  2  0
 28 29  1  0
 29 30  2  0
 30 31  1  0
 31 32  2  0
 26  4  1  0
 32 27  1  0
 25  9  1  0
 17 11  1  0
 25 19  1  0
  1 33  1  0
  1 34  1  0
  1 35  1  0
  2 36  1  6
  3 37  1  0
  6 38  1  0
  7 39  1  0
 12 40  1  0
 13 41  1  0
 16 42  1  0
 17 43  1  0
 22 44  1  0
 22 45  1  0
 23 46  1  0
 24 47  1  0
 28 48  1  0
 29 49  1  0
 30 50  1  0
 31 51  1  0
 32 52  1  0
M  END
$$$$
