
     RDKit          3D

 56 59  0  0  0  0  0  0  0  0999 V2000
    9.1267    0.8670    1.2666 C   0  0  0  0  0  0  0  0  0  0  0  0
    7.6946    0.9371    0.7755 C   0  0  0  0  0  0  0  0  0  0  0  0
    7.3715   -0.3544    0.0803 C   0  0  0  0  0  0  0  0  0  0  0  0
    6.0517   -0.4410   -0.4537 N   0  0  0  0  0  0  0  0  0  0  0  0
    4.8336   -0.3525    0.2685 C   0  0  0  0  0  0  0  0  0  0  0  0
    4.8956   -0.1746    1.5104 O   0  0  0  0  0  0  0  0  0  0  0  0
    3.5385   -0.4718   -0.4517 C   0  0  0  0  0  0  0  0  0  0  0  0
    3.3919   -0.3906   -1.8107 C   0  0  0  0  0  0  0  0  0  0  0  0
    2.1024   -0.5487   -2.1159 N   0  0  0  0  0  0  0  0  0  0  0  0
    1.4820   -0.5469   -3.2881 N   0  0  0  0  0  0  0  0  0  0  0  0
    0.1676   -0.7188   -3.4175 C   0  0  0  0  0  0  0  0  0  0  0  0
   -0.5445   -0.9016   -2.3132 N   0  0  0  0  0  0  0  0  0  0  0  0
    0.0444   -0.9137   -1.0730 C   0  0  0  0  0  0  0  0  0  0  0  0
   -0.7830   -1.1610    0.0470 N   0  0  0  0  0  0  0  0  0  0  0  0
   -1.9303   -0.3276    0.2144 C   0  0  0  0  0  0  0  0  0  0  0  0
   -3.2056   -0.8881    0.1159 C   0  0  0  0  0  0  0  0  0  0  0  0
   -4.3688   -0.1620    0.2599 C   0  0  0  0  0  0  0  0  0  0  0  0
   -5.6858   -0.7772    0.1416 C   0  0  0  0  0  0  0  0  0  0  0  0
   -5.7281   -2.0223    0.0107 O   0  0  0  0  0  0  0  0  0  0  0  0
   -6.8929   -0.0721    0.1650 N   0  0  0  0  0  0  0  0  0  0  0  0
   -8.2248   -0.6769    0.0523 C   0  0  0  0  0  0  0  0  0  0  0  0
   -9.2967    0.0648    0.8102 C   0  0  0  0  0  0  0  0  0  0  0  0
   -9.2886    0.0770   -0.6766 C   0  0  0  0  0  0  0  0  0  0  0  0
   -4.1965    1.1841    0.5149 C   0  0  0  0  0  0  0  0  0  0  0  0
   -2.9731    1.8012    0.6260 C   0  0  0  0  0  0  0  0  0  0  0  0
   -1.8261    1.0121    0.4699 C   0  0  0  0  0  0  0  0  0  0  0  0
   -0.5160    1.6717    0.6240 C   0  0  0  0  0  0  0  0  0  0  0  0
    1.3976   -0.7350   -0.9489 C   0  0  0  0  0  0  0  0  0  0  0  0
    2.2873   -0.6882    0.1034 C   0  0  0  0  0  0  0  0  0  0  0  0
    2.0008   -0.8077    1.5354 C   0  0  0  0  0  0  0  0  0  0  0  0
    9.2201    0.8982    2.3607 H   0  0  0  0  0  0  0  0  0  0  0  0
    9.6505   -0.0630    0.9116 H   0  0  0  0  0  0  0  0  0  0  0  0
    9.7526    1.7080    0.8802 H   0  0  0  0  0  0  0  0  0  0  0  0
    7.0421    1.0775    1.6687 H   0  0  0  0  0  0  0  0  0  0  0  0
    7.6466    1.8123    0.0838 H   0  0  0  0  0  0  0  0  0  0  0  0
    8.0952   -0.4132   -0.7819 H   0  0  0  0  0  0  0  0  0  0  0  0
    7.6480   -1.2089    0.7389 H   0  0  0  0  0  0  0  0  0  0  0  0
    5.9323   -0.5823   -1.5082 H   0  0  0  0  0  0  0  0  0  0  0  0
    4.2076   -0.2263   -2.5025 H   0  0  0  0  0  0  0  0  0  0  0  0
   -0.3079   -0.7051   -4.4201 H   0  0  0  0  0  0  0  0  0  0  0  0
   -0.5952   -1.9334    0.6965 H   0  0  0  0  0  0  0  0  0  0  0  0
   -3.2516   -1.9471   -0.0876 H   0  0  0  0  0  0  0  0  0  0  0  0
   -6.8662    0.9672    0.2671 H   0  0  0  0  0  0  0  0  0  0  0  0
   -8.3209   -1.7730   -0.0086 H   0  0  0  0  0  0  0  0  0  0  0  0
  -10.1414   -0.4880    1.2816 H   0  0  0  0  0  0  0  0  0  0  0  0
   -9.0581    1.0267    1.3075 H   0  0  0  0  0  0  0  0  0  0  0  0
   -8.9579    0.9853   -1.2446 H   0  0  0  0  0  0  0  0  0  0  0  0
  -10.0715   -0.4956   -1.1976 H   0  0  0  0  0  0  0  0  0  0  0  0
   -5.0801    1.7853    0.6372 H   0  0  0  0  0  0  0  0  0  0  0  0
   -2.8523    2.8542    0.8227 H   0  0  0  0  0  0  0  0  0  0  0  0
   -0.7044    2.7424    0.9438 H   0  0  0  0  0  0  0  0  0  0  0  0
    0.1064    1.7064   -0.2731 H   0  0  0  0  0  0  0  0  0  0  0  0
    0.0523    1.2433    1.4871 H   0  0  0  0  0  0  0  0  0  0  0  0
    2.3237    0.1160    2.1031 H   0  0  0  0  0  0  0  0  0  0  0  0
    2.6327   -1.6202    2.0044 H   0  0  0  0  0  0  0  0  0  0  0  0
    0.9717   -0.9491    1.8276 H   0  0  0  0  0  0  0  0  0  0  0  0
  1  2  1  0
  2  3  1  0
  3  4  1  0
  4  5  1  0
  5  6  2  0
  5  7  1  0
  7  8  2  0
  8  9  1  0
  9 10  1  0
 10 11  2  0
 11 12  1  0
 12 13  2  0
 13 14  1  0
 14 15  1  0
 15 16  2  0
 16 17  1  0
 17 18  1  0
 18 19  2  0
 18 20  1  0
 20 21  1  0
 21 22  1  0
 22 23  1  0
 17 24  2  0
 24 25  1  0
 25 26  2  0
 26 27  1  0
 13 28  1  0
 28 29  2  0
 29 30  1  0
 29  7  1  0
 28  9  1  0
 26 15  1  0
 23 21  1  0
  1 31  1  0
  1 32  1  0
  1 33  1  0
  2 34  1  0
  2 35  1  0
  3 36  1  0
  3 37  1  0
  4 38  1  0
  8 39  1  0
 11 40  1  0
 14 41  1  0
 16 42  1  0
 20 43  1  0
 21 44  1  0
 22 45  1  0
 22 46  1  0
 23 47  1  0
 23 48  1  0
 24 49  1  0
 25 50  1  0
 27 51  1  0
 27 52  1  0
 27 53  1  0
 30 54  1  0
 30 55  1  0
 30 56  1  0
M  END
$$$$
