
     RDKit          3D

 52 55  0  0  0  0  0  0  0  0999 V2000
    1.9776   -1.8468    1.5126 C   0  0  0  0  0  0  0  0  0  0  0  0
    1.7057   -0.8410    0.4319 C   0  0  0  0  0  0  0  0  0  0  0  0
    2.4572    0.2912    0.2167 C   0  0  0  0  0  0  0  0  0  0  0  0
    3.5614    0.7848    0.8705 O   0  0  0  0  0  0  0  0  0  0  0  0
    4.8782    0.4410    0.6516 C   0  0  0  0  0  0  0  0  0  0  0  0
    5.5167   -0.5201    1.4308 C   0  0  0  0  0  0  0  0  0  0  0  0
    6.8406   -0.8808    1.2237 C   0  0  0  0  0  0  0  0  0  0  0  0
    7.5272   -0.2551    0.2094 C   0  0  0  0  0  0  0  0  0  0  0  0
    9.2141   -0.7064   -0.0642 Cl  0  0  0  0  0  0  0  0  0  0  0  0
    6.9341    0.7014   -0.5847 C   0  0  0  0  0  0  0  0  0  0  0  0
    5.5966    1.0426   -0.3500 C   0  0  0  0  0  0  0  0  0  0  0  0
    1.8615    0.9217   -0.8754 C   0  0  0  0  0  0  0  0  0  0  0  0
    2.1514    2.1017   -1.5623 C   0  0  0  0  0  0  0  0  0  0  0  0
    1.3304    2.4321   -2.6159 C   0  0  0  0  0  0  0  0  0  0  0  0
    0.2582    1.6673   -3.0144 C   0  0  0  0  0  0  0  0  0  0  0  0
   -0.5306    2.0463   -4.0773 F   0  0  0  0  0  0  0  0  0  0  0  0
    0.0111    0.5440   -2.3318 N   0  0  0  0  0  0  0  0  0  0  0  0
    0.7941    0.1668   -1.2758 C   0  0  0  0  0  0  0  0  0  0  0  0
    0.7086   -0.9183   -0.4603 N   0  0  0  0  0  0  0  0  0  0  0  0
   -0.3286   -1.9526   -0.6044 C   0  0  0  0  0  0  0  0  0  0  0  0
   -1.5468   -1.5795    0.1932 C   0  0  0  0  0  0  0  0  0  0  0  0
   -1.6456   -2.0156    1.4953 C   0  0  0  0  0  0  0  0  0  0  0  0
   -2.7669   -1.6590    2.2031 C   0  0  0  0  0  0  0  0  0  0  0  0
   -3.7563   -0.8751    1.5830 C   0  0  0  0  0  0  0  0  0  0  0  0
   -4.8124   -0.5893    2.3800 F   0  0  0  0  0  0  0  0  0  0  0  0
   -3.6540   -0.4440    0.2883 C   0  0  0  0  0  0  0  0  0  0  0  0
   -4.5987    0.3078   -0.3139 O   0  0  0  0  0  0  0  0  0  0  0  0
   -5.7791    0.8104    0.1065 C   0  0  1  0  0  0  0  0  0  0  0  0
   -5.8489    2.3507   -0.0267 C   0  0  0  0  0  0  0  0  0  0  0  0
   -6.9092    0.2873   -0.7347 C   0  0  0  0  0  0  0  0  0  0  0  0
   -6.6239   -0.5015   -1.6654 O   0  0  0  0  0  0  0  0  0  0  0  0
   -8.2204    0.6764   -0.4744 O   0  0  0  0  0  0  0  0  0  0  0  0
   -2.4888   -0.8227   -0.4253 C   0  0  0  0  0  0  0  0  0  0  0  0
    1.4295   -2.7856    1.2522 H   0  0  0  0  0  0  0  0  0  0  0  0
    1.5774   -1.5021    2.4838 H   0  0  0  0  0  0  0  0  0  0  0  0
    3.0485   -2.1033    1.5601 H   0  0  0  0  0  0  0  0  0  0  0  0
    5.0112   -1.0193    2.2348 H   0  0  0  0  0  0  0  0  0  0  0  0
    7.3557   -1.6216    1.8128 H   0  0  0  0  0  0  0  0  0  0  0  0
    7.4615    1.2024   -1.3864 H   0  0  0  0  0  0  0  0  0  0  0  0
    5.1135    1.7865   -0.9570 H   0  0  0  0  0  0  0  0  0  0  0  0
    2.9764    2.6816   -1.2352 H   0  0  0  0  0  0  0  0  0  0  0  0
    1.5640    3.3590   -3.1504 H   0  0  0  0  0  0  0  0  0  0  0  0
    0.0893   -2.9221   -0.2771 H   0  0  0  0  0  0  0  0  0  0  0  0
   -0.6323   -2.0201   -1.6507 H   0  0  0  0  0  0  0  0  0  0  0  0
   -0.8452   -2.6130    1.8943 H   0  0  0  0  0  0  0  0  0  0  0  0
   -2.8535   -1.9933    3.2171 H   0  0  0  0  0  0  0  0  0  0  0  0
   -6.0670    0.6238    1.1507 H   0  0  0  0  0  0  0  0  0  0  0  0
   -6.9287    2.5899   -0.0119 H   0  0  0  0  0  0  0  0  0  0  0  0
   -5.3660    2.8117    0.8474 H   0  0  0  0  0  0  0  0  0  0  0  0
   -5.3639    2.6343   -0.9786 H   0  0  0  0  0  0  0  0  0  0  0  0
   -8.9519    0.1958   -0.9640 H   0  0  0  0  0  0  0  0  0  0  0  0
   -2.4333   -0.4705   -1.4446 H   0  0  0  0  0  0  0  0  0  0  0  0
  1  2  1  0
  2  3  2  0
  3  4  1  0
  4  5  1  0
  5  6  2  0
  6  7  1  0
  7  8  2  0
  8  9  1  0
  8 10  1  0
 10 11  2  0
  3 12  1  0
 12 13  2  0
 13 14  1  0
 14 15  2  0
 15 16  1  0
 15 17  1  0
 17 18  2  0
 18 19  1  0
 19 20  1  0
 20 21  1  0
 21 22  2  0
 22 23  1  0
 23 24  2  0
 24 25  1  0
 24 26  1  0
 26 27  1  0
 27 28  1  0
 28 29  1  0
 28 30  1  0
 30 31  2  0
 30 32  1  0
 26 33  2  0
 19  2  1  0
 33 21  1  0
 11  5  1  0
 18 12  1  0
  1 34  1  0
  1 35  1  0
  1 36  1  0
  6 37  1  0
  7 38  1  0
 10 39  1  0
 11 40  1  0
 13 41  1  0
 14 42  1  0
 20 43  1  0
 20 44  1  0
 22 45  1  0
 23 46  1  0
 28 47  1  1
 29 48  1  0
 29 49  1  0
 29 50  1  0
 32 51  1  0
 33 52  1  0
M  END
$$$$
