
     RDKit          3D

 51 55  0  0  0  0  0  0  0  0999 V2000
    3.7717   -0.4720    2.7908 C   0  0  0  0  0  0  0  0  0  0  0  0
    3.0380   -0.4566    1.5797 O   0  0  0  0  0  0  0  0  0  0  0  0
    3.3773   -1.2783    0.5133 C   0  0  0  0  0  0  0  0  0  0  0  0
    4.4507   -2.1662    0.5573 C   0  0  0  0  0  0  0  0  0  0  0  0
    4.7172   -2.9540   -0.5645 C   0  0  0  0  0  0  0  0  0  0  0  0
    3.9560   -2.8887   -1.7226 C   0  0  0  0  0  0  0  0  0  0  0  0
    2.8854   -1.9995   -1.7591 C   0  0  0  0  0  0  0  0  0  0  0  0
    2.6167   -1.2105   -0.6386 C   0  0  0  0  0  0  0  0  0  0  0  0
    1.4873   -0.2925   -0.7170 C   0  0  0  0  0  0  0  0  0  0  0  0
    0.2431   -0.7341   -0.3221 C   0  0  0  0  0  0  0  0  0  0  0  0
   -0.8089    0.1211   -0.3952 C   0  0  0  0  0  0  0  0  0  0  0  0
   -0.6708    1.4117   -0.8505 C   0  0  0  0  0  0  0  0  0  0  0  0
   -1.8590    2.0481   -0.8239 C   0  0  0  0  0  0  0  0  0  0  0  0
   -2.7582    1.1270   -0.3390 C   0  0  0  0  0  0  0  0  0  0  0  0
   -4.1088    1.3869   -0.1553 C   0  0  0  0  0  0  0  0  0  0  0  0
   -4.6201    2.6379   -0.4675 C   0  0  0  0  0  0  0  0  0  0  0  0
   -3.7353    3.6026   -0.9640 C   0  0  0  0  0  0  0  0  0  0  0  0
   -4.2526    4.8550   -1.2756 O   0  0  0  0  0  0  0  0  0  0  0  0
   -2.4140    3.2563   -1.1133 C   0  0  0  0  0  0  0  0  0  0  0  0
   -2.1027   -0.0394   -0.0835 N   0  0  0  0  0  0  0  0  0  0  0  0
   -2.6736   -1.2766    0.4405 C   0  0  0  0  0  0  0  0  0  0  0  0
   -2.6422   -1.3390    1.9297 C   0  0  0  0  0  0  0  0  0  0  0  0
   -3.2561   -2.6578    2.3551 C   0  0  0  0  0  0  0  0  0  0  0  0
   -2.5884   -3.7630    1.8622 O   0  0  0  0  0  0  0  0  0  0  0  0
    0.5547    1.8545   -1.2420 C   0  0  0  0  0  0  0  0  0  0  0  0
    1.6376    1.0122   -1.1794 C   0  0  0  0  0  0  0  0  0  0  0  0
    2.8736    1.6396   -1.6343 C   0  0  0  0  0  0  0  0  0  0  0  0
    4.0235    1.1332   -1.6963 O   0  0  0  0  0  0  0  0  0  0  0  0
    2.4608    2.9745   -1.9941 N   0  0  0  0  0  0  0  0  0  0  0  0
    1.0703    3.0871   -1.7535 C   0  0  0  0  0  0  0  0  0  0  0  0
    0.5768    4.1891   -2.0200 O   0  0  0  0  0  0  0  0  0  0  0  0
    4.7081    0.1093    2.5871 H   0  0  0  0  0  0  0  0  0  0  0  0
    4.0048   -1.5322    3.0502 H   0  0  0  0  0  0  0  0  0  0  0  0
    3.1628   -0.0072    3.5979 H   0  0  0  0  0  0  0  0  0  0  0  0
    5.0510   -2.2314    1.4432 H   0  0  0  0  0  0  0  0  0  0  0  0
    5.5714   -3.6325   -0.4737 H   0  0  0  0  0  0  0  0  0  0  0  0
    4.2381   -3.5406   -2.5468 H   0  0  0  0  0  0  0  0  0  0  0  0
    2.2942   -1.9530   -2.6670 H   0  0  0  0  0  0  0  0  0  0  0  0
    0.1484   -1.7458    0.0320 H   0  0  0  0  0  0  0  0  0  0  0  0
   -4.7611    0.6383    0.2232 H   0  0  0  0  0  0  0  0  0  0  0  0
   -5.6667    2.7962   -0.3109 H   0  0  0  0  0  0  0  0  0  0  0  0
   -3.8385    5.6805   -0.8349 H   0  0  0  0  0  0  0  0  0  0  0  0
   -1.8218    4.0501   -1.4946 H   0  0  0  0  0  0  0  0  0  0  0  0
   -3.7452   -1.3933    0.1328 H   0  0  0  0  0  0  0  0  0  0  0  0
   -2.1346   -2.1641    0.0526 H   0  0  0  0  0  0  0  0  0  0  0  0
   -3.2564   -0.5502    2.4181 H   0  0  0  0  0  0  0  0  0  0  0  0
   -1.5928   -1.3444    2.3221 H   0  0  0  0  0  0  0  0  0  0  0  0
   -4.2927   -2.6806    1.9121 H   0  0  0  0  0  0  0  0  0  0  0  0
   -3.3988   -2.7094    3.4521 H   0  0  0  0  0  0  0  0  0  0  0  0
   -3.1091   -4.2364    1.1465 H   0  0  0  0  0  0  0  0  0  0  0  0
    3.1891    3.6383   -2.3595 H   0  0  0  0  0  0  0  0  0  0  0  0
  1  2  1  0
  2  3  1  0
  3  4  2  0
  4  5  1  0
  5  6  2  0
  6  7  1  0
  7  8  2  0
  8  9  1  0
  9 10  2  0
 10 11  1  0
 11 12  2  0
 12 13  1  0
 13 14  2  0
 14 15  1  0
 15 16  2  0
 16 17  1  0
 17 18  1  0
 17 19  2  0
 14 20  1  0
 20 21  1  0
 21 22  1  0
 22 23  1  0
 23 24  1  0
 12 25  1  0
 25 26  2  0
 26 27  1  0
 27 28  2  0
 27 29  1  0
 29 30  1  0
 30 31  2  0
  8  3  1  0
 26  9  1  0
 20 11  1  0
 30 25  1  0
 19 13  1  0
  1 32  1  0
  1 33  1  0
  1 34  1  0
  4 35  1  0
  5 36  1  0
  6 37  1  0
  7 38  1  0
 10 39  1  0
 15 40  1  0
 16 41  1  0
 18 42  1  0
 19 43  1  0
 21 44  1  0
 21 45  1  0
 22 46  1  0
 22 47  1  0
 23 48  1  0
 23 49  1  0
 24 50  1  0
 29 51  1  0
M  END
$$$$
