
     RDKit          3D

 69 73  0  0  0  0  0  0  0  0999 V2000
    6.0812    2.4974    0.8211 O   0  0  0  0  0  0  0  0  0  0  0  0
    6.4600    2.8801   -0.5898 P   0  0  0  0  0  5  0  0  0  0  0  0
    7.2491    4.3721   -0.5189 O   0  0  0  0  0  0  0  0  0  0  0  0
    7.5237    1.7543   -1.2182 O   0  0  0  0  0  0  0  0  0  0  0  0
    4.9802    3.0712   -1.6283 C   0  0  0  0  0  0  0  0  0  0  0  0
    5.2918    2.5519   -2.8742 F   0  0  0  0  0  0  0  0  0  0  0  0
    4.6322    4.4058   -1.6906 F   0  0  0  0  0  0  0  0  0  0  0  0
    3.8417    2.2813   -1.0923 C   0  0  0  0  0  0  0  0  0  0  0  0
    2.5508    2.7158   -1.2060 C   0  0  0  0  0  0  0  0  0  0  0  0
    1.4923    1.9389   -0.6853 C   0  0  0  0  0  0  0  0  0  0  0  0
    1.7099    0.7611   -0.0666 C   0  0  0  0  0  0  0  0  0  0  0  0
    0.7428   -0.0816    0.5768 C   0  0  0  0  0  0  0  0  0  0  0  0
   -0.2275   -0.9008   -0.1953 C   0  0  0  0  0  0  0  0  0  0  0  0
   -1.2688   -0.1363   -0.9614 C   0  0  0  0  0  0  0  0  0  0  0  0
   -2.2618    0.6157   -0.2219 C   0  0  0  0  0  0  0  0  0  0  0  0
   -2.1059    1.8063    0.3887 C   0  0  0  0  0  0  0  0  0  0  0  0
   -3.1783    2.4684    1.0301 C   0  0  0  0  0  0  0  0  0  0  0  0
   -4.4290    1.9008    1.0458 C   0  0  0  0  0  0  0  0  0  0  0  0
   -5.5689    2.5974    1.7252 C   0  0  0  0  0  0  0  0  0  0  0  0
   -5.9436    1.8471    2.8382 F   0  0  0  0  0  0  0  0  0  0  0  0
   -5.1509    3.8276    2.1799 F   0  0  0  0  0  0  0  0  0  0  0  0
   -6.9759    2.8461    0.6428 P   0  0  0  0  0  5  0  0  0  0  0  0
   -8.2459    2.9007    1.4863 O   0  0  0  0  0  0  0  0  0  0  0  0
   -7.1860    1.6375   -0.4918 O   0  0  0  0  0  0  0  0  0  0  0  0
   -6.8871    4.3582   -0.1454 O   0  0  0  0  0  0  0  0  0  0  0  0
   -4.6061    0.6941    0.4320 C   0  0  0  0  0  0  0  0  0  0  0  0
   -3.5588    0.0663   -0.1848 C   0  0  0  0  0  0  0  0  0  0  0  0
    0.3463   -1.8383   -1.2006 C   0  0  0  0  0  0  0  0  0  0  0  0
   -0.1463   -3.1219   -1.2643 C   0  0  0  0  0  0  0  0  0  0  0  0
    0.3041   -4.0627   -2.1990 C   0  0  0  0  0  0  0  0  0  0  0  0
    1.2820   -3.6838   -3.0919 C   0  0  0  0  0  0  0  0  0  0  0  0
    1.7084   -4.6055   -3.9901 F   0  0  0  0  0  0  0  0  0  0  0  0
    1.7725   -2.4144   -3.0347 C   0  0  0  0  0  0  0  0  0  0  0  0
    2.7407   -2.0625   -3.9301 F   0  0  0  0  0  0  0  0  0  0  0  0
    1.3133   -1.4802   -2.0943 C   0  0  0  0  0  0  0  0  0  0  0  0
   -0.8296   -1.7510    0.8616 N   0  0  0  0  0  0  0  0  0  0  0  0
   -2.0336   -1.6341    1.2969 N   0  0  0  0  0  0  0  0  0  0  0  0
   -2.2500   -2.5128    2.2380 N   0  0  0  0  0  0  0  0  0  0  0  0
   -1.1268   -3.2348    2.4194 C   0  0  0  0  0  0  0  0  0  0  0  0
   -0.8155   -4.2759    3.2749 C   0  0  0  0  0  0  0  0  0  0  0  0
    0.4460   -4.8323    3.2330 C   0  0  0  0  0  0  0  0  0  0  0  0
    1.3506   -4.3186    2.3285 C   0  0  0  0  0  0  0  0  0  0  0  0
    1.0752   -3.2878    1.4667 C   0  0  0  0  0  0  0  0  0  0  0  0
   -0.2082   -2.7318    1.5193 C   0  0  0  0  0  0  0  0  0  0  0  0
    3.0532    0.3513    0.0282 C   0  0  0  0  0  0  0  0  0  0  0  0
    4.0896    1.0838   -0.4669 C   0  0  0  0  0  0  0  0  0  0  0  0
    7.9798    4.3784    0.1442 H   0  0  0  0  0  0  0  0  0  0  0  0
    7.5061    0.8939   -0.7374 H   0  0  0  0  0  0  0  0  0  0  0  0
    2.3689    3.6587   -1.6996 H   0  0  0  0  0  0  0  0  0  0  0  0
    0.5139    2.3515   -0.8409 H   0  0  0  0  0  0  0  0  0  0  0  0
    0.0651    0.5333    1.2871 H   0  0  0  0  0  0  0  0  0  0  0  0
    1.2389   -0.7574    1.3504 H   0  0  0  0  0  0  0  0  0  0  0  0
   -1.7522   -0.9020   -1.6550 H   0  0  0  0  0  0  0  0  0  0  0  0
   -0.6941    0.4953   -1.6942 H   0  0  0  0  0  0  0  0  0  0  0  0
   -1.1764    2.3335    0.4453 H   0  0  0  0  0  0  0  0  0  0  0  0
   -3.0477    3.4192    1.5161 H   0  0  0  0  0  0  0  0  0  0  0  0
   -6.5478    1.7639   -1.2389 H   0  0  0  0  0  0  0  0  0  0  0  0
   -6.5815    4.2183   -1.0806 H   0  0  0  0  0  0  0  0  0  0  0  0
   -5.5878    0.1985    0.4173 H   0  0  0  0  0  0  0  0  0  0  0  0
   -3.7559   -0.8968   -0.6781 H   0  0  0  0  0  0  0  0  0  0  0  0
   -0.9308   -3.5158   -0.6107 H   0  0  0  0  0  0  0  0  0  0  0  0
   -0.0927   -5.0614   -2.2329 H   0  0  0  0  0  0  0  0  0  0  0  0
    1.7535   -0.5121   -2.1714 H   0  0  0  0  0  0  0  0  0  0  0  0
   -1.5540   -4.6608    3.9802 H   0  0  0  0  0  0  0  0  0  0  0  0
    0.7021   -5.6505    3.9004 H   0  0  0  0  0  0  0  0  0  0  0  0
    2.3423   -4.7588    2.2982 H   0  0  0  0  0  0  0  0  0  0  0  0
    1.7975   -2.9052    0.7669 H   0  0  0  0  0  0  0  0  0  0  0  0
    3.2792   -0.6060    0.5252 H   0  0  0  0  0  0  0  0  0  0  0  0
    5.1408    0.7183   -0.3688 H   0  0  0  0  0  0  0  0  0  0  0  0
  1  2  2  0
  2  3  1  0
  2  4  1  0
  2  5  1  0
  5  6  1  0
  5  7  1  0
  5  8  1  0
  8  9  2  0
  9 10  1  0
 10 11  2  0
 11 12  1  0
 12 13  1  0
 13 14  1  0
 14 15  1  0
 15 16  2  0
 16 17  1  0
 17 18  2  0
 18 19  1  0
 19 20  1  0
 19 21  1  0
 19 22  1  0
 22 23  2  0
 22 24  1  0
 22 25  1  0
 18 26  1  0
 26 27  2  0
 13 28  1  0
 28 29  2  0
 29 30  1  0
 30 31  2  0
 31 32  1  0
 31 33  1  0
 33 34  1  0
 33 35  2  0
 13 36  1  0
 36 37  1  0
 37 38  2  0
 38 39  1  0
 39 40  2  0
 40 41  1  0
 41 42  2  0
 42 43  1  0
 43 44  2  0
 11 45  1  0
 45 46  2  0
 46  8  1  0
 27 15  1  0
 35 28  1  0
 44 36  1  0
 44 39  1  0
  3 47  1  0
  4 48  1  0
  9 49  1  0
 10 50  1  0
 12 51  1  0
 12 52  1  0
 14 53  1  0
 14 54  1  0
 16 55  1  0
 17 56  1  0
 24 57  1  0
 25 58  1  0
 26 59  1  0
 27 60  1  0
 29 61  1  0
 30 62  1  0
 35 63  1  0
 40 64  1  0
 41 65  1  0
 42 66  1  0
 43 67  1  0
 45 68  1  0
 46 69  1  0
M  END
$$$$
