
     RDKit          3D

105111  0  0  0  0  0  0  0  0999 V2000
    8.5261   -3.1552    1.1047 C   0  0  0  0  0  0  0  0  0  0  0  0
    7.5948   -2.7773    0.6847 C   0  0  0  0  0  0  0  0  0  0  0  0
    6.3465   -2.2566    0.0956 C   0  0  0  0  0  0  0  0  0  0  0  0
    5.4170   -2.9016   -0.5763 C   0  0  0  0  0  0  0  0  0  0  0  0
    4.5623   -2.2518   -1.5052 C   0  0  0  0  0  0  0  0  0  0  0  0
    3.5305   -2.9091   -2.2089 N   0  0  0  0  0  0  0  0  0  0  0  0
    2.4227   -1.9760   -2.5019 C   0  0  0  0  0  0  0  0  0  0  0  0
    2.2491   -1.4188   -3.7192 N   0  0  0  0  0  0  0  0  0  0  0  0
    1.2533   -0.4406   -3.9261 C   0  0  0  0  0  0  0  0  0  0  0  0
    0.4936   -0.0765   -2.8508 C   0  0  0  0  0  0  0  0  0  0  0  0
    0.6444   -0.6626   -1.5212 C   0  0  0  0  0  0  0  0  0  0  0  0
   -0.0366   -0.4157   -0.4742 O   0  0  0  0  0  0  0  0  0  0  0  0
   -0.8885    0.1348    0.3020 C   0  0  0  0  0  0  0  0  0  0  0  0
   -1.6915    1.2446    0.2483 C   0  0  0  0  0  0  0  0  0  0  0  0
   -2.6647    1.7158    1.1579 C   0  0  0  0  0  0  0  0  0  0  0  0
   -2.7714    0.7997    2.3270 C   0  0  0  0  0  0  0  0  0  0  0  0
   -4.0176    0.9282    3.0658 N   0  0  0  0  0  0  0  0  0  0  0  0
   -5.1764    0.9529    2.4005 C   0  0  0  0  0  0  0  0  0  0  0  0
   -4.8343    0.9366    0.9664 O   0  0  0  0  0  0  0  0  0  0  0  0
   -6.5224    0.9816    2.4532 N   0  0  0  0  0  0  0  0  0  0  0  0
   -7.5697    1.0011    1.5481 C   0  0  0  0  0  0  0  0  0  0  0  0
   -8.8341    1.4713    2.0781 C   0  0  0  0  0  0  0  0  0  0  0  0
   -9.7504    1.3799    1.0656 C   0  0  0  0  0  0  0  0  0  0  0  0
  -11.2120    1.5735    1.1810 C   0  0  0  0  0  0  0  0  0  0  0  0
  -11.5241    3.0378    1.3008 C   0  0  0  0  0  0  0  0  0  0  0  0
  -11.6620    0.8525    2.4811 C   0  0  0  0  0  0  0  0  0  0  0  0
  -12.0055    0.9847    0.0559 C   0  0  0  0  0  0  0  0  0  0  0  0
   -9.0939    0.9212    0.0519 N   0  0  0  0  0  0  0  0  0  0  0  0
   -7.7610    0.6715    0.3217 N   0  0  0  0  0  0  0  0  0  0  0  0
   -7.0805   -0.0201   -0.7357 C   0  0  0  0  0  0  0  0  0  0  0  0
   -6.0211    0.5989   -1.5360 C   0  0  0  0  0  0  0  0  0  0  0  0
   -5.6613   -0.1762   -2.7312 C   0  0  0  0  0  0  0  0  0  0  0  0
   -6.3144   -1.3378   -2.9585 C   0  0  0  0  0  0  0  0  0  0  0  0
   -6.1184   -1.8593   -4.4390 C   0  0  0  0  0  0  0  0  0  0  0  0
   -7.2393   -1.9262   -2.2635 C   0  0  0  0  0  0  0  0  0  0  0  0
   -7.5717   -1.1226   -1.0898 C   0  0  0  0  0  0  0  0  0  0  0  0
   -1.9931   -0.2329    2.3999 C   0  0  0  0  0  0  0  0  0  0  0  0
   -2.0907   -1.0511    3.6184 C   0  0  0  0  0  0  0  0  0  0  0  0
   -1.3054   -2.0707    3.7715 C   0  0  0  0  0  0  0  0  0  0  0  0
   -0.3535   -2.4614    2.8340 C   0  0  0  0  0  0  0  0  0  0  0  0
   -0.2277   -1.7497    1.6897 C   0  0  0  0  0  0  0  0  0  0  0  0
   -1.0851   -0.6256    1.5161 C   0  0  0  0  0  0  0  0  0  0  0  0
    1.6622   -1.5818   -1.5926 N   0  0  0  0  0  0  0  0  0  0  0  0
    4.7251   -0.8633   -1.7590 C   0  0  0  0  0  0  0  0  0  0  0  0
    5.6602   -0.1932   -1.0864 C   0  0  0  0  0  0  0  0  0  0  0  0
    6.1694    1.2236   -1.5095 C   0  0  0  0  0  0  0  0  0  0  0  0
    5.5106    2.0171   -2.0846 O   0  0  0  0  0  0  0  0  0  0  0  0
    7.5291    1.3816   -1.1545 N   0  0  0  0  0  0  0  0  0  0  0  0
    8.5498    2.3692   -1.2904 C   0  0  2  0  0  0  0  0  0  0  0  0
    9.4421    2.0466   -2.4925 C   0  0  0  0  0  0  0  0  0  0  0  0
    9.3898    2.1501    0.0006 C   0  0  0  0  0  0  0  0  0  0  0  0
    9.7856    0.8728    0.2863 N   0  0  0  0  0  0  0  0  0  0  0  0
   10.6059   -0.0288   -0.2965 C   0  0  0  0  0  0  0  0  0  0  0  0
   11.9397   -0.2321    0.4637 C   0  0  0  0  0  0  0  0  0  0  0  0
   11.8223    0.0720    1.7753 O   0  0  0  0  0  0  0  0  0  0  0  0
   10.6051   -0.2470    2.3011 C   0  0  0  0  0  0  0  0  0  0  0  0
    9.4279    0.4418    1.6534 C   0  0  0  0  0  0  0  0  0  0  0  0
    6.3972   -0.8504   -0.2062 C   0  0  0  0  0  0  0  0  0  0  0  0
    9.6290   -3.5817    1.5869 H   0  0  0  0  0  0  0  0  0  0  0  0
    5.3307   -3.9650   -0.5016 H   0  0  0  0  0  0  0  0  0  0  0  0
    3.5331   -3.8207   -2.5594 H   0  0  0  0  0  0  0  0  0  0  0  0
    1.1137    0.0146   -4.8686 H   0  0  0  0  0  0  0  0  0  0  0  0
   -0.2737    0.6908   -2.8272 H   0  0  0  0  0  0  0  0  0  0  0  0
   -1.5406    1.8617   -0.6961 H   0  0  0  0  0  0  0  0  0  0  0  0
   -3.2445    2.5445    1.1052 H   0  0  0  0  0  0  0  0  0  0  0  0
   -4.0766    0.9660    4.1124 H   0  0  0  0  0  0  0  0  0  0  0  0
   -6.7884    0.9873    3.5552 H   0  0  0  0  0  0  0  0  0  0  0  0
   -9.0512    1.8520    3.0243 H   0  0  0  0  0  0  0  0  0  0  0  0
  -10.9048    3.4687    2.1728 H   0  0  0  0  0  0  0  0  0  0  0  0
  -11.2943    3.5728    0.3909 H   0  0  0  0  0  0  0  0  0  0  0  0
  -12.5969    3.2008    1.5239 H   0  0  0  0  0  0  0  0  0  0  0  0
  -12.4941    0.1967    2.1938 H   0  0  0  0  0  0  0  0  0  0  0  0
  -12.0563    1.5828    3.1565 H   0  0  0  0  0  0  0  0  0  0  0  0
  -10.8152    0.3216    2.9323 H   0  0  0  0  0  0  0  0  0  0  0  0
  -13.1150    1.1719    0.3746 H   0  0  0  0  0  0  0  0  0  0  0  0
  -11.8041    1.4275   -0.8991 H   0  0  0  0  0  0  0  0  0  0  0  0
  -11.8610   -0.1639    0.0629 H   0  0  0  0  0  0  0  0  0  0  0  0
   -5.6154    1.4939   -1.2934 H   0  0  0  0  0  0  0  0  0  0  0  0
   -4.8887    0.2045   -3.3464 H   0  0  0  0  0  0  0  0  0  0  0  0
   -5.1159   -2.1308   -4.5726 H   0  0  0  0  0  0  0  0  0  0  0  0
   -6.4530   -0.9802   -5.0794 H   0  0  0  0  0  0  0  0  0  0  0  0
   -6.8679   -2.6557   -4.5972 H   0  0  0  0  0  0  0  0  0  0  0  0
   -7.7542   -2.8265   -2.4482 H   0  0  0  0  0  0  0  0  0  0  0  0
   -8.3759   -1.6374   -0.4615 H   0  0  0  0  0  0  0  0  0  0  0  0
   -2.8777   -0.7471    4.3383 H   0  0  0  0  0  0  0  0  0  0  0  0
   -1.3385   -2.7260    4.6521 H   0  0  0  0  0  0  0  0  0  0  0  0
    0.2929   -3.2707    3.0482 H   0  0  0  0  0  0  0  0  0  0  0  0
    0.4690   -1.9792    0.9376 H   0  0  0  0  0  0  0  0  0  0  0  0
    4.1321   -0.3748   -2.4879 H   0  0  0  0  0  0  0  0  0  0  0  0
    7.9659    0.4901   -0.6530 H   0  0  0  0  0  0  0  0  0  0  0  0
    8.2550    3.3738   -1.3281 H   0  0  0  0  0  0  0  0  0  0  0  0
    8.8634    2.5756   -3.3503 H   0  0  0  0  0  0  0  0  0  0  0  0
   10.4129    2.5248   -2.4886 H   0  0  0  0  0  0  0  0  0  0  0  0
    9.3805    0.9946   -2.7810 H   0  0  0  0  0  0  0  0  0  0  0  0
   10.2561    2.8450   -0.0923 H   0  0  0  0  0  0  0  0  0  0  0  0
    8.6781    2.5425    0.7986 H   0  0  0  0  0  0  0  0  0  0  0  0
   10.0757   -1.0712   -0.2131 H   0  0  0  0  0  0  0  0  0  0  0  0
   10.8628    0.0232   -1.3574 H   0  0  0  0  0  0  0  0  0  0  0  0
   12.6729    0.3936   -0.1319 H   0  0  0  0  0  0  0  0  0  0  0  0
   12.2121   -1.3028    0.3310 H   0  0  0  0  0  0  0  0  0  0  0  0
   10.5810    0.0470    3.3773 H   0  0  0  0  0  0  0  0  0  0  0  0
   10.4505   -1.3637    2.3564 H   0  0  0  0  0  0  0  0  0  0  0  0
    9.1491    1.2586    2.2871 H   0  0  0  0  0  0  0  0  0  0  0  0
    8.6587   -0.3636    1.5650 H   0  0  0  0  0  0  0  0  0  0  0  0
    7.0450   -0.2750    0.4606 H   0  0  0  0  0  0  0  0  0  0  0  0
  1  2  3  0
  2  3  1  0
  3  4  2  0
  4  5  1  0
  5  6  1  0
  6  7  1  0
  7  8  2  0
  8  9  1  0
  9 10  2  0
 10 11  1  0
 11 12  1  0
 12 13  1  0
 13 14  2  0
 14 15  1  0
 15 16  2  0
 16 17  1  0
 17 18  1  0
 18 19  2  0
 18 20  1  0
 20 21  1  0
 21 22  2  0
 22 23  1  0
 23 24  1  0
 24 25  1  0
 24 26  1  0
 24 27  1  0
 23 28  2  0
 28 29  1  0
 29 30  1  0
 30 31  2  0
 31 32  1  0
 32 33  2  0
 33 34  1  0
 33 35  1  0
 35 36  2  0
 16 37  1  0
 37 38  2  0
 38 39  1  0
 39 40  2  0
 40 41  1  0
 41 42  2  0
 11 43  2  0
  5 44  2  0
 44 45  1  0
 45 46  1  0
 46 47  2  0
 46 48  1  0
 48 49  1  0
 49 50  1  0
 49 51  1  0
 51 52  1  0
 52 53  1  0
 53 54  1  0
 54 55  1  0
 55 56  1  0
 56 57  1  0
 45 58  2  0
 58  3  1  0
 43  7  1  0
 57 52  1  0
 42 13  1  0
 29 21  1  0
 36 30  1  0
 42 37  1  0
  1 59  1  0
  4 60  1  0
  6 61  1  0
  9 62  1  0
 10 63  1  0
 14 64  1  0
 15 65  1  0
 17 66  1  0
 20 67  1  0
 22 68  1  0
 25 69  1  0
 25 70  1  0
 25 71  1  0
 26 72  1  0
 26 73  1  0
 26 74  1  0
 27 75  1  0
 27 76  1  0
 27 77  1  0
 31 78  1  0
 32 79  1  0
 34 80  1  0
 34 81  1  0
 34 82  1  0
 35 83  1  0
 36 84  1  0
 38 85  1  0
 39 86  1  0
 40 87  1  0
 41 88  1  0
 44 89  1  0
 48 90  1  0
 49 91  1  6
 50 92  1  0
 50 93  1  0
 50 94  1  0
 51 95  1  0
 51 96  1  0
 53 97  1  0
 53 98  1  0
 54 99  1  0
 54100  1  0
 56101  1  0
 56102  1  0
 57103  1  0
 57104  1  0
 58105  1  0
M  END
$$$$
