
     RDKit          3D

 49 52  0  0  0  0  0  0  0  0999 V2000
    4.5048   -1.2199    0.8772 O   0  0  0  0  0  0  0  0  0  0  0  0
    5.5996   -0.6341    0.8673 C   0  0  0  0  0  0  0  0  0  0  0  0
    6.7409   -1.4068    1.0183 O   0  0  0  0  0  0  0  0  0  0  0  0
    5.7602    0.8000    0.7086 C   0  0  0  0  0  0  0  0  0  0  0  0
    7.0222    1.3650    0.7098 C   0  0  0  0  0  0  0  0  0  0  0  0
    7.1544    2.6947    0.5617 N   0  0  0  0  0  0  0  0  0  0  0  0
    6.0695    3.4597    0.4148 N   0  0  0  0  0  0  0  0  0  0  0  0
    4.8333    2.9290    0.4111 C   0  0  0  0  0  0  0  0  0  0  0  0
    4.6338    1.5740    0.5585 C   0  0  0  0  0  0  0  0  0  0  0  0
    3.3738    0.9325    0.5665 N   0  0  0  0  0  0  0  0  0  0  0  0
    2.7366    0.4388   -0.6135 C   0  0  0  0  0  0  0  0  0  0  0  0
    3.3592    0.6024   -1.6903 O   0  0  0  0  0  0  0  0  0  0  0  0
    1.4741   -0.2022   -0.5944 N   0  0  0  0  0  0  0  0  0  0  0  0
    0.6657   -0.4456    0.5892 C   0  0  0  0  0  0  0  0  0  0  0  0
   -0.3719   -1.4343    0.1858 C   0  0  1  0  0  0  0  0  0  0  0  0
   -1.7504   -1.1182    0.7836 C   0  0  0  0  0  0  0  0  0  0  0  0
   -2.6086   -0.8478   -0.4311 C   0  0  1  0  0  0  0  0  0  0  0  0
   -3.7983   -0.0535   -0.1961 C   0  0  0  0  0  0  0  0  0  0  0  0
   -3.7561    1.3440   -0.1998 C   0  0  0  0  0  0  0  0  0  0  0  0
   -4.8481    2.1267    0.0204 C   0  0  0  0  0  0  0  0  0  0  0  0
   -6.0699    1.5351    0.2616 C   0  0  0  0  0  0  0  0  0  0  0  0
   -6.1421    0.1793    0.2712 C   0  0  0  0  0  0  0  0  0  0  0  0
   -5.0229   -0.6323    0.0455 C   0  0  0  0  0  0  0  0  0  0  0  0
   -5.2279   -2.0936    0.0764 C   0  0  0  0  0  0  0  0  0  0  0  0
   -4.8916   -2.6927   -1.1250 F   0  0  0  0  0  0  0  0  0  0  0  0
   -6.5934   -2.3727    0.2282 F   0  0  0  0  0  0  0  0  0  0  0  0
   -4.5965   -2.7406    1.0956 F   0  0  0  0  0  0  0  0  0  0  0  0
   -1.5821   -0.1304   -1.3174 C   0  0  0  0  0  0  0  0  0  0  0  0
   -0.5037   -1.2247   -1.3045 C   0  0  1  0  0  0  0  0  0  0  0  0
    0.8197   -0.7050   -1.7836 C   0  0  0  0  0  0  0  0  0  0  0  0
    6.7608   -2.4144    0.9652 H   0  0  0  0  0  0  0  0  0  0  0  0
    7.9251    0.7815    0.8258 H   0  0  0  0  0  0  0  0  0  0  0  0
    3.9773    3.5734    0.2904 H   0  0  0  0  0  0  0  0  0  0  0  0
    2.8566    0.7971    1.4647 H   0  0  0  0  0  0  0  0  0  0  0  0
    0.2609    0.4923    1.0166 H   0  0  0  0  0  0  0  0  0  0  0  0
    1.3571   -0.9611    1.3167 H   0  0  0  0  0  0  0  0  0  0  0  0
   -0.0893   -2.4852    0.3936 H   0  0  0  0  0  0  0  0  0  0  0  0
   -2.0484   -1.9762    1.3812 H   0  0  0  0  0  0  0  0  0  0  0  0
   -1.6025   -0.1932    1.3861 H   0  0  0  0  0  0  0  0  0  0  0  0
   -2.7873   -1.8348   -0.9081 H   0  0  0  0  0  0  0  0  0  0  0  0
   -2.8183    1.8164   -0.3848 H   0  0  0  0  0  0  0  0  0  0  0  0
   -4.8220    3.2099    0.0190 H   0  0  0  0  0  0  0  0  0  0  0  0
   -6.9628    2.1160    0.4414 H   0  0  0  0  0  0  0  0  0  0  0  0
   -7.1196   -0.2789    0.4643 H   0  0  0  0  0  0  0  0  0  0  0  0
   -1.9556    0.0780   -2.3118 H   0  0  0  0  0  0  0  0  0  0  0  0
   -1.1504    0.7126   -0.7688 H   0  0  0  0  0  0  0  0  0  0  0  0
   -0.8404   -2.1328   -1.8245 H   0  0  0  0  0  0  0  0  0  0  0  0
    1.4146   -1.5004   -2.2888 H   0  0  0  0  0  0  0  0  0  0  0  0
    0.6598    0.1727   -2.4737 H   0  0  0  0  0  0  0  0  0  0  0  0
  1  2  2  0
  2  3  1  0
  2  4  1  0
  4  5  2  0
  5  6  1  0
  6  7  2  0
  7  8  1  0
  8  9  2  0
  9 10  1  0
 10 11  1  0
 11 12  2  0
 11 13  1  0
 13 14  1  0
 14 15  1  0
 15 16  1  0
 16 17  1  0
 17 18  1  0
 18 19  2  0
 19 20  1  0
 20 21  2  0
 21 22  1  0
 22 23  2  0
 23 24  1  0
 24 25  1  0
 24 26  1  0
 24 27  1  0
 17 28  1  0
 28 29  1  0
 29 30  1  0
  9  4  1  0
 30 13  1  0
 29 15  1  0
 23 18  1  0
  3 31  1  0
  5 32  1  0
  8 33  1  0
 10 34  1  0
 14 35  1  0
 14 36  1  0
 15 37  1  6
 16 38  1  0
 16 39  1  0
 17 40  1  6
 19 41  1  0
 20 42  1  0
 21 43  1  0
 22 44  1  0
 28 45  1  0
 28 46  1  0
 29 47  1  6
 30 48  1  0
 30 49  1  0
M  END
$$$$
