
     RDKit          3D

 42 44  0  0  0  0  0  0  0  0999 V2000
   -6.5923   -0.9124    1.1407 C   0  0  0  0  0  0  0  0  0  0  0  0
   -5.4795   -0.2806    0.4309 N   0  0  0  0  0  0  0  0  0  0  0  0
   -4.9123   -0.9186   -0.6989 C   0  0  0  0  0  0  0  0  0  0  0  0
   -5.4111   -2.0221   -1.0396 O   0  0  0  0  0  0  0  0  0  0  0  0
   -3.8308   -0.3593   -1.4306 N   0  0  0  0  0  0  0  0  0  0  0  0
   -3.3255   -1.0116   -2.5267 O   0  0  0  0  0  0  0  0  0  0  0  0
   -3.1782    0.8887   -1.1038 C   0  0  0  0  0  0  0  0  0  0  0  0
   -2.0201    0.6901   -0.1765 C   0  0  0  0  0  0  0  0  0  0  0  0
   -0.8062    1.0587   -0.5673 C   0  0  0  0  0  0  0  0  0  0  0  0
    0.3333    0.8781    0.3072 C   0  0  0  0  0  0  0  0  0  0  0  0
    1.6167    1.2469   -0.0527 C   0  0  0  0  0  0  0  0  0  0  0  0
    2.6981    1.0733    0.7835 C   0  0  0  0  0  0  0  0  0  0  0  0
    3.9708    1.4583    0.3812 O   0  0  0  0  0  0  0  0  0  0  0  0
    4.7812    0.5356   -0.2880 C   0  0  0  0  0  0  0  0  0  0  0  0
    4.3164   -0.7398   -0.5423 C   0  0  0  0  0  0  0  0  0  0  0  0
    5.1480   -1.6064   -1.2007 C   0  0  0  0  0  0  0  0  0  0  0  0
    6.4173   -1.2620   -1.6161 C   0  0  0  0  0  0  0  0  0  0  0  0
    7.2302   -2.1506   -2.2743 F   0  0  0  0  0  0  0  0  0  0  0  0
    6.8732    0.0122   -1.3584 C   0  0  0  0  0  0  0  0  0  0  0  0
    6.0546    0.9024   -0.6972 C   0  0  0  0  0  0  0  0  0  0  0  0
    2.5086    0.5099    2.0338 C   0  0  0  0  0  0  0  0  0  0  0  0
    1.2362    0.1417    2.3965 C   0  0  0  0  0  0  0  0  0  0  0  0
    0.1337    0.3170    1.5482 C   0  0  0  0  0  0  0  0  0  0  0  0
   -1.1292   -0.0537    1.9203 O   0  0  0  0  0  0  0  0  0  0  0  0
   -2.2900    0.0942    1.1435 C   0  0  0  0  0  0  0  0  0  0  0  0
   -6.3895   -0.9487    2.2270 H   0  0  0  0  0  0  0  0  0  0  0  0
   -7.4928   -0.2812    1.0011 H   0  0  0  0  0  0  0  0  0  0  0  0
   -6.8163   -1.8965    0.7127 H   0  0  0  0  0  0  0  0  0  0  0  0
   -5.1189    0.6383    0.7675 H   0  0  0  0  0  0  0  0  0  0  0  0
   -3.8368   -0.6348   -3.2997 H   0  0  0  0  0  0  0  0  0  0  0  0
   -2.8296    1.3888   -2.0265 H   0  0  0  0  0  0  0  0  0  0  0  0
   -3.9302    1.5557   -0.6305 H   0  0  0  0  0  0  0  0  0  0  0  0
   -0.6842    1.4878   -1.5306 H   0  0  0  0  0  0  0  0  0  0  0  0
    1.7950    1.6881   -1.0201 H   0  0  0  0  0  0  0  0  0  0  0  0
    3.3050   -1.0311   -0.2173 H   0  0  0  0  0  0  0  0  0  0  0  0
    4.7847   -2.6125   -1.4027 H   0  0  0  0  0  0  0  0  0  0  0  0
    7.8635    0.3103   -1.6721 H   0  0  0  0  0  0  0  0  0  0  0  0
    6.4268    1.8995   -0.5021 H   0  0  0  0  0  0  0  0  0  0  0  0
    3.3457    0.3688    2.6969 H   0  0  0  0  0  0  0  0  0  0  0  0
    1.0123   -0.3068    3.3631 H   0  0  0  0  0  0  0  0  0  0  0  0
   -2.8175   -0.8804    1.0744 H   0  0  0  0  0  0  0  0  0  0  0  0
   -2.9604    0.7647    1.7632 H   0  0  0  0  0  0  0  0  0  0  0  0
  1  2  1  0
  2  3  1  0
  3  4  2  0
  3  5  1  0
  5  6  1  0
  5  7  1  0
  7  8  1  0
  8  9  2  0
  9 10  1  0
 10 11  2  0
 11 12  1  0
 12 13  1  0
 13 14  1  0
 14 15  2  0
 15 16  1  0
 16 17  2  0
 17 18  1  0
 17 19  1  0
 19 20  2  0
 12 21  2  0
 21 22  1  0
 22 23  2  0
 23 24  1  0
 24 25  1  0
 25  8  1  0
 23 10  1  0
 20 14  1  0
  1 26  1  0
  1 27  1  0
  1 28  1  0
  2 29  1  0
  6 30  1  0
  7 31  1  0
  7 32  1  0
  9 33  1  0
 11 34  1  0
 15 35  1  0
 16 36  1  0
 19 37  1  0
 20 38  1  0
 21 39  1  0
 22 40  1  0
 25 41  1  0
 25 42  1  0
M  END
$$$$
