
     RDKit          3D

 49 53  0  0  0  0  0  0  0  0999 V2000
    0.1888   -0.4123    1.1957 C   0  0  2  0  0  0  0  0  0  0  0  0
    0.0791    0.2001    2.5632 C   0  0  0  0  0  0  0  0  0  0  0  0
   -0.1318    1.6920    2.5357 C   0  0  0  0  0  0  0  0  0  0  0  0
    1.2859    0.1549    0.4705 N   0  0  0  0  0  0  0  0  0  0  0  0
    2.6360   -0.0651    0.9385 C   0  0  0  0  0  0  0  0  0  0  0  0
    2.8411   -0.8208    2.0577 N   0  0  0  0  0  0  0  0  0  0  0  0
    4.0599   -1.0808    2.5566 C   0  0  0  0  0  0  0  0  0  0  0  0
    5.1803   -0.6099    1.9832 N   0  0  0  0  0  0  0  0  0  0  0  0
    5.0474    0.1415    0.8773 C   0  0  0  0  0  0  0  0  0  0  0  0
    3.7896    0.3969    0.3811 C   0  0  0  0  0  0  0  0  0  0  0  0
    3.9310    1.1622   -0.7177 N   0  0  0  0  0  0  0  0  0  0  0  0
    5.2460    1.3778   -0.9006 C   0  0  0  0  0  0  0  0  0  0  0  0
    5.9347    0.7558    0.0721 N   0  0  0  0  0  0  0  0  0  0  0  0
   -1.0361   -0.7140    0.4935 C   0  0  0  0  0  0  0  0  0  0  0  0
   -1.7448   -1.7905    0.8891 N   0  0  0  0  0  0  0  0  0  0  0  0
   -2.8768   -2.2346    0.3824 C   0  0  0  0  0  0  0  0  0  0  0  0
   -3.4845   -3.3762    0.9172 C   0  0  0  0  0  0  0  0  0  0  0  0
   -4.6695   -3.8500    0.3951 C   0  0  0  0  0  0  0  0  0  0  0  0
   -5.2509   -3.1911   -0.6574 C   0  0  0  0  0  0  0  0  0  0  0  0
   -4.6447   -2.0710   -1.1742 C   0  0  0  0  0  0  0  0  0  0  0  0
   -5.1660   -1.3593   -2.2258 F   0  0  0  0  0  0  0  0  0  0  0  0
   -3.4632   -1.5774   -0.6726 C   0  0  0  0  0  0  0  0  0  0  0  0
   -2.7693   -0.4686   -1.1097 C   0  0  0  0  0  0  0  0  0  0  0  0
   -3.3158    0.1328   -2.0831 O   0  0  0  0  0  0  0  0  0  0  0  0
   -1.6236   -0.0920   -0.5321 N   0  0  0  0  0  0  0  0  0  0  0  0
   -1.0791    1.0574   -1.1546 C   0  0  0  0  0  0  0  0  0  0  0  0
   -0.5634    0.6715   -2.4099 C   0  0  0  0  0  0  0  0  0  0  0  0
    0.0339    1.5958   -3.2759 C   0  0  0  0  0  0  0  0  0  0  0  0
    0.1240    2.9168   -2.9000 C   0  0  0  0  0  0  0  0  0  0  0  0
   -0.3786    3.2809   -1.6822 C   0  0  0  0  0  0  0  0  0  0  0  0
   -0.9650    2.3936   -0.8240 C   0  0  0  0  0  0  0  0  0  0  0  0
    0.6234   -1.4727    1.4537 H   0  0  0  0  0  0  0  0  0  0  0  0
    0.9753    0.0254    3.1898 H   0  0  0  0  0  0  0  0  0  0  0  0
   -0.7360   -0.3058    3.1680 H   0  0  0  0  0  0  0  0  0  0  0  0
    0.4211    2.1804    1.7082 H   0  0  0  0  0  0  0  0  0  0  0  0
    0.2534    2.1891    3.4568 H   0  0  0  0  0  0  0  0  0  0  0  0
   -1.2082    1.9677    2.5007 H   0  0  0  0  0  0  0  0  0  0  0  0
    1.3569    0.7360   -0.3734 H   0  0  0  0  0  0  0  0  0  0  0  0
    4.1031   -1.7018    3.4640 H   0  0  0  0  0  0  0  0  0  0  0  0
    5.6576    1.9747   -1.7277 H   0  0  0  0  0  0  0  0  0  0  0  0
    6.9681    0.7772    0.1435 H   0  0  0  0  0  0  0  0  0  0  0  0
   -3.0139   -3.8903    1.7518 H   0  0  0  0  0  0  0  0  0  0  0  0
   -5.1252   -4.7371    0.8238 H   0  0  0  0  0  0  0  0  0  0  0  0
   -6.1802   -3.5187   -1.1060 H   0  0  0  0  0  0  0  0  0  0  0  0
   -0.5525   -0.3331   -2.8637 H   0  0  0  0  0  0  0  0  0  0  0  0
    0.4389    1.3559   -4.2348 H   0  0  0  0  0  0  0  0  0  0  0  0
    0.5684    3.7029   -3.5015 H   0  0  0  0  0  0  0  0  0  0  0  0
   -0.3602    4.2846   -1.2908 H   0  0  0  0  0  0  0  0  0  0  0  0
   -1.4048    2.5493    0.1484 H   0  0  0  0  0  0  0  0  0  0  0  0
  1  2  1  0
  2  3  1  0
  1  4  1  0
  4  5  1  0
  5  6  2  0
  6  7  1  0
  7  8  2  0
  8  9  1  0
  9 10  2  0
 10 11  1  0
 11 12  2  0
 12 13  1  0
  1 14  1  0
 14 15  2  0
 15 16  1  0
 16 17  2  0
 17 18  1  0
 18 19  2  0
 19 20  1  0
 20 21  1  0
 20 22  2  0
 22 23  1  0
 23 24  2  0
 23 25  1  0
 25 26  1  0
 26 27  2  0
 27 28  1  0
 28 29  2  0
 29 30  1  0
 30 31  2  0
 10  5  1  0
 25 14  1  0
 31 26  1  0
 13  9  1  0
 22 16  1  0
  1 32  1  1
  2 33  1  0
  2 34  1  0
  3 35  1  0
  3 36  1  0
  3 37  1  0
  4 38  1  0
  7 39  1  0
 12 40  1  0
 13 41  1  0
 17 42  1  0
 18 43  1  0
 19 44  1  0
 27 45  1  0
 28 46  1  0
 29 47  1  0
 30 48  1  0
 31 49  1  0
M  END
$$$$
