
     RDKit          3D

 70 73  0  0  0  0  0  0  0  0999 V2000
    2.0052   -3.7529    0.1506 C   0  0  0  0  0  0  0  0  0  0  0  0
    1.9075   -2.5449    1.0903 C   0  0  1  0  0  0  0  0  0  0  0  0
    2.9981   -1.6074    0.7177 C   0  0  0  0  0  0  0  0  0  0  0  0
    2.9713   -0.3212    1.2145 C   0  0  0  0  0  0  0  0  0  0  0  0
    3.9642    0.5719    0.8904 C   0  0  0  0  0  0  0  0  0  0  0  0
    5.0224    0.2450    0.0689 C   0  0  0  0  0  0  0  0  0  0  0  0
    6.0678    1.2058   -0.2630 C   0  0  0  0  0  0  0  0  0  0  0  0
    6.4787    2.1949    0.6003 C   0  0  0  0  0  0  0  0  0  0  0  0
    7.4839    3.0943    0.2432 C   0  0  0  0  0  0  0  0  0  0  0  0
    8.0684    2.9783   -1.0024 C   0  0  0  0  0  0  0  0  0  0  0  0
    8.9781    3.7814   -1.3432 O   0  0  0  0  0  0  0  0  0  0  0  0
    7.6471    2.0056   -1.8203 N   0  0  0  0  0  0  0  0  0  0  0  0
    6.6793    1.1355   -1.4831 C   0  0  0  0  0  0  0  0  0  0  0  0
    5.0516   -1.0512   -0.4331 C   0  0  0  0  0  0  0  0  0  0  0  0
    4.0526   -1.9326   -0.1007 C   0  0  0  0  0  0  0  0  0  0  0  0
    0.6099   -1.9620    0.9971 N   0  0  0  0  0  0  0  0  0  0  0  0
    0.1144   -1.3371   -0.2306 C   0  0  0  0  0  0  0  0  0  0  0  0
   -0.7404   -0.1614    0.2263 C   0  0  0  0  0  0  0  0  0  0  0  0
   -1.9902   -0.6111    0.9161 C   0  0  2  0  0  0  0  0  0  0  0  0
   -2.9764   -1.2319    0.0356 C   0  0  0  0  0  0  0  0  0  0  0  0
   -3.6088   -0.5088   -1.0859 C   0  0  0  0  0  0  0  0  0  0  0  0
   -4.5760   -1.5845   -1.6730 C   0  0  0  0  0  0  0  0  0  0  0  0
   -2.7159   -0.1608   -2.2162 C   0  0  0  0  0  0  0  0  0  0  0  0
   -4.4860    0.5559   -0.6805 N   0  0  0  0  0  0  0  0  0  0  0  0
   -5.2342    1.4460   -1.8858 S   0  0  0  0  0  6  0  0  0  0  0  0
   -6.3058    0.6015   -2.9669 C   0  0  0  0  0  0  0  0  0  0  0  0
   -6.0577    2.5275   -1.1852 O   0  0  0  0  0  0  0  0  0  0  0  0
   -4.2487    2.2368   -2.7389 O   0  0  0  0  0  0  0  0  0  0  0  0
   -2.5338    0.4876    1.7537 C   0  0  0  0  0  0  0  0  0  0  0  0
   -1.9753    1.7323    1.7550 C   0  0  0  0  0  0  0  0  0  0  0  0
   -2.4797    2.7698    2.5493 C   0  0  0  0  0  0  0  0  0  0  0  0
   -3.5688    2.5098    3.3438 C   0  0  0  0  0  0  0  0  0  0  0  0
   -4.1506    1.2635    3.3606 C   0  0  0  0  0  0  0  0  0  0  0  0
   -3.6229    0.2680    2.5629 C   0  0  0  0  0  0  0  0  0  0  0  0
   -1.5803   -1.6191    1.8651 O   0  0  0  0  0  0  0  0  0  0  0  0
   -0.2710   -1.9592    2.0924 C   0  0  0  0  0  0  0  0  0  0  0  0
    0.1056   -2.2587    3.2714 O   0  0  0  0  0  0  0  0  0  0  0  0
    2.8962   -4.3424    0.4386 H   0  0  0  0  0  0  0  0  0  0  0  0
    2.1287   -3.4190   -0.9025 H   0  0  0  0  0  0  0  0  0  0  0  0
    1.1096   -4.4062    0.2672 H   0  0  0  0  0  0  0  0  0  0  0  0
    2.0546   -2.9566    2.1149 H   0  0  0  0  0  0  0  0  0  0  0  0
    2.1444   -0.0172    1.8746 H   0  0  0  0  0  0  0  0  0  0  0  0
    3.9466    1.5932    1.2823 H   0  0  0  0  0  0  0  0  0  0  0  0
    6.0412    2.3113    1.5801 H   0  0  0  0  0  0  0  0  0  0  0  0
    7.8250    3.8792    0.9015 H   0  0  0  0  0  0  0  0  0  0  0  0
    8.0759    1.8989   -2.7696 H   0  0  0  0  0  0  0  0  0  0  0  0
    6.3716    0.3600   -2.1863 H   0  0  0  0  0  0  0  0  0  0  0  0
    5.8673   -1.3423   -1.0811 H   0  0  0  0  0  0  0  0  0  0  0  0
    4.0743   -2.9592   -0.4973 H   0  0  0  0  0  0  0  0  0  0  0  0
    0.9226   -0.9256   -0.8496 H   0  0  0  0  0  0  0  0  0  0  0  0
   -0.4278   -2.0849   -0.8084 H   0  0  0  0  0  0  0  0  0  0  0  0
   -0.8376    0.5742   -0.5546 H   0  0  0  0  0  0  0  0  0  0  0  0
   -0.0950    0.3047    1.0547 H   0  0  0  0  0  0  0  0  0  0  0  0
   -3.8335   -1.6864    0.6369 H   0  0  0  0  0  0  0  0  0  0  0  0
   -2.5271   -2.1724   -0.4300 H   0  0  0  0  0  0  0  0  0  0  0  0
   -4.7008   -1.3916   -2.7482 H   0  0  0  0  0  0  0  0  0  0  0  0
   -5.4912   -1.6336   -1.0871 H   0  0  0  0  0  0  0  0  0  0  0  0
   -4.0924   -2.5958   -1.6088 H   0  0  0  0  0  0  0  0  0  0  0  0
   -3.2092   -0.4077   -3.2216 H   0  0  0  0  0  0  0  0  0  0  0  0
   -1.8139   -0.7870   -2.2375 H   0  0  0  0  0  0  0  0  0  0  0  0
   -2.4011    0.9040   -2.2298 H   0  0  0  0  0  0  0  0  0  0  0  0
   -5.1154    0.2294    0.0820 H   0  0  0  0  0  0  0  0  0  0  0  0
   -5.8363    0.3282   -3.9580 H   0  0  0  0  0  0  0  0  0  0  0  0
   -7.1431    1.2947   -3.2863 H   0  0  0  0  0  0  0  0  0  0  0  0
   -6.8112   -0.2761   -2.5595 H   0  0  0  0  0  0  0  0  0  0  0  0
   -1.1253    1.9970    1.1494 H   0  0  0  0  0  0  0  0  0  0  0  0
   -2.0078    3.7397    2.5205 H   0  0  0  0  0  0  0  0  0  0  0  0
   -3.9886    3.3034    3.9792 H   0  0  0  0  0  0  0  0  0  0  0  0
   -5.0106    1.0184    3.9732 H   0  0  0  0  0  0  0  0  0  0  0  0
   -4.0737   -0.7274    2.5648 H   0  0  0  0  0  0  0  0  0  0  0  0
  1  2  1  0
  2  3  1  0
  3  4  2  0
  4  5  1  0
  5  6  2  0
  6  7  1  0
  7  8  1  0
  8  9  2  0
  9 10  1  0
 10 11  2  0
 10 12  1  0
 12 13  1  0
  6 14  1  0
 14 15  2  0
  2 16  1  0
 16 17  1  0
 17 18  1  0
 18 19  1  0
 19 20  1  6
 20 21  1  0
 21 22  1  0
 21 23  1  0
 21 24  1  0
 24 25  1  0
 25 26  1  0
 25 27  2  0
 25 28  2  0
 19 29  1  0
 29 30  2  0
 30 31  1  0
 31 32  2  0
 32 33  1  0
 33 34  2  0
 19 35  1  0
 35 36  1  0
 36 37  2  0
 15  3  1  0
 36 16  1  0
 13  7  2  0
 34 29  1  0
  1 38  1  0
  1 39  1  0
  1 40  1  0
  2 41  1  1
  4 42  1  0
  5 43  1  0
  8 44  1  0
  9 45  1  0
 12 46  1  0
 13 47  1  0
 14 48  1  0
 15 49  1  0
 17 50  1  0
 17 51  1  0
 18 52  1  0
 18 53  1  0
 20 54  1  0
 20 55  1  0
 22 56  1  0
 22 57  1  0
 22 58  1  0
 23 59  1  0
 23 60  1  0
 23 61  1  0
 24 62  1  0
 26 63  1  0
 26 64  1  0
 26 65  1  0
 30 66  1  0
 31 67  1  0
 32 68  1  0
 33 69  1  0
 34 70  1  0
M  END
$$$$
