
     RDKit          3D

 49 51  0  0  0  0  0  0  0  0999 V2000
    9.4591   -1.2990   -0.5878 C   0  0  0  0  0  0  0  0  0  0  0  0
    8.2212   -2.0115   -0.5672 O   0  0  0  0  0  0  0  0  0  0  0  0
    7.0610   -1.2663   -0.4841 C   0  0  0  0  0  0  0  0  0  0  0  0
    5.8248   -1.8994   -0.4600 C   0  0  0  0  0  0  0  0  0  0  0  0
    4.6731   -1.2004   -0.3793 N   0  0  0  0  0  0  0  0  0  0  0  0
    4.6893    0.1310   -0.3198 C   0  0  0  0  0  0  0  0  0  0  0  0
    3.4215    0.8854   -0.2316 C   0  0  0  0  0  0  0  0  0  0  0  0
    3.5005    2.1181   -0.1793 O   0  0  0  0  0  0  0  0  0  0  0  0
    2.1784    0.2366   -0.2080 N   0  0  0  0  0  0  0  0  0  0  0  0
    0.9162    0.8556   -0.1262 C   0  0  0  0  0  0  0  0  0  0  0  0
    0.6610    2.1863   -0.0552 C   0  0  0  0  0  0  0  0  0  0  0  0
   -0.6301    2.6767    0.0220 C   0  0  0  0  0  0  0  0  0  0  0  0
   -1.6760    1.7954    0.0268 C   0  0  0  0  0  0  0  0  0  0  0  0
   -2.9269    2.3448    0.1067 F   0  0  0  0  0  0  0  0  0  0  0  0
   -1.4765    0.4307   -0.0434 C   0  0  0  0  0  0  0  0  0  0  0  0
   -2.6752   -0.4485   -0.0336 C   0  0  2  0  0  0  0  0  0  0  0  0
   -2.1357   -1.8858   -0.0264 C   0  0  0  0  0  0  0  0  0  0  0  0
   -3.4301   -0.1792   -1.3024 C   0  0  0  0  0  0  0  0  0  0  0  0
   -5.1685   -0.0087   -1.0442 S   0  0  0  0  0  6  0  0  0  0  0  0
   -5.9645   -0.6819   -2.1266 O   0  0  0  0  0  0  0  0  0  0  0  0
   -5.5949    1.4265   -1.0164 O   0  0  0  0  0  0  0  0  0  0  0  0
   -5.5607   -0.8182    0.4830 C   0  0  1  0  0  0  0  0  0  0  0  0
   -6.9217   -0.3406    0.9234 C   0  0  0  0  0  0  0  0  0  0  0  0
   -5.5903   -2.1901    0.3491 F   0  0  0  0  0  0  0  0  0  0  0  0
   -4.5804   -0.3443    1.4891 C   0  0  0  0  0  0  0  0  0  0  0  0
   -5.0234   -0.0325    2.8204 N   0  0  0  0  0  0  0  0  0  0  0  0
   -3.3764   -0.2239    1.1594 N   0  0  0  0  0  0  0  0  0  0  0  0
   -0.1978   -0.0041   -0.1176 C   0  0  0  0  0  0  0  0  0  0  0  0
    5.9115    0.7659   -0.3432 C   0  0  0  0  0  0  0  0  0  0  0  0
    7.0619    0.0772   -0.4233 N   0  0  0  0  0  0  0  0  0  0  0  0
    9.3365   -0.4000    0.0785 H   0  0  0  0  0  0  0  0  0  0  0  0
   10.2852   -1.9206   -0.1992 H   0  0  0  0  0  0  0  0  0  0  0  0
    9.6309   -0.9485   -1.6275 H   0  0  0  0  0  0  0  0  0  0  0  0
    5.8393   -2.9863   -0.5098 H   0  0  0  0  0  0  0  0  0  0  0  0
    2.2415   -0.8284   -0.2589 H   0  0  0  0  0  0  0  0  0  0  0  0
    1.5014    2.8756   -0.0599 H   0  0  0  0  0  0  0  0  0  0  0  0
   -0.7607    3.7468    0.0760 H   0  0  0  0  0  0  0  0  0  0  0  0
   -1.5097   -2.0503    0.8522 H   0  0  0  0  0  0  0  0  0  0  0  0
   -1.6068   -2.0759   -1.0064 H   0  0  0  0  0  0  0  0  0  0  0  0
   -2.9751   -2.6236   -0.0436 H   0  0  0  0  0  0  0  0  0  0  0  0
   -3.2739   -1.0405   -1.9845 H   0  0  0  0  0  0  0  0  0  0  0  0
   -3.0767    0.7218   -1.8453 H   0  0  0  0  0  0  0  0  0  0  0  0
   -7.1734   -0.8363    1.8866 H   0  0  0  0  0  0  0  0  0  0  0  0
   -6.9266    0.7655    1.0093 H   0  0  0  0  0  0  0  0  0  0  0  0
   -7.6887   -0.6352    0.1813 H   0  0  0  0  0  0  0  0  0  0  0  0
   -4.7759    0.8262    3.3182 H   0  0  0  0  0  0  0  0  0  0  0  0
   -5.6333   -0.7302    3.2980 H   0  0  0  0  0  0  0  0  0  0  0  0
   -0.0493   -1.0831   -0.1726 H   0  0  0  0  0  0  0  0  0  0  0  0
    5.9649    1.8414   -0.2968 H   0  0  0  0  0  0  0  0  0  0  0  0
  1  2  1  0
  2  3  1  0
  3  4  2  0
  4  5  1  0
  5  6  2  0
  6  7  1  0
  7  8  2  0
  7  9  1  0
  9 10  1  0
 10 11  2  0
 11 12  1  0
 12 13  2  0
 13 14  1  0
 13 15  1  0
 15 16  1  0
 16 17  1  6
 16 18  1  0
 18 19  1  0
 19 20  2  0
 19 21  2  0
 19 22  1  0
 22 23  1  0
 22 24  1  6
 22 25  1  0
 25 26  1  0
 25 27  2  0
 15 28  2  0
  6 29  1  0
 29 30  2  0
 30  3  1  0
 28 10  1  0
 27 16  1  0
  1 31  1  0
  1 32  1  0
  1 33  1  0
  4 34  1  0
  9 35  1  0
 11 36  1  0
 12 37  1  0
 17 38  1  0
 17 39  1  0
 17 40  1  0
 18 41  1  0
 18 42  1  0
 23 43  1  0
 23 44  1  0
 23 45  1  0
 26 46  1  0
 26 47  1  0
 28 48  1  0
 29 49  1  0
M  END
$$$$
