
     RDKit          3D

 58 60  0  0  0  0  0  0  0  0999 V2000
    5.2362   -0.7540   -0.5024 C   0  0  1  0  0  0  0  0  0  0  0  0
    6.0900    0.3470   -1.0896 C   0  0  0  0  0  0  0  0  0  0  0  0
    7.3639    0.3700   -0.5239 O   0  0  0  0  0  0  0  0  0  0  0  0
    7.2294    0.6025    0.8230 C   0  0  2  0  0  0  0  0  0  0  0  0
    8.6337    0.6266    1.4264 C   0  0  0  0  0  0  0  0  0  0  0  0
    6.4927   -0.3452    1.5120 O   0  0  0  0  0  0  0  0  0  0  0  0
    5.9452   -1.3107    0.6910 C   0  0  0  0  0  0  0  0  0  0  0  0
    6.6196    1.9257    1.1450 C   0  0  0  0  0  0  0  0  0  0  0  0
    6.0796    3.1313    0.7116 O   0  0  0  0  0  0  0  0  0  0  0  0
    6.5095    2.1092    2.3899 O   0  0  0  0  0  0  0  0  0  0  0  0
    3.9146   -0.3647   -0.2928 O   0  0  0  0  0  0  0  0  0  0  0  0
    2.8233   -0.9311   -0.9342 C   0  0  0  0  0  0  0  0  0  0  0  0
    2.8325   -1.8543   -1.7800 O   0  0  0  0  0  0  0  0  0  0  0  0
    1.4832   -0.5632   -0.7464 N   0  0  0  0  0  0  0  0  0  0  0  0
    0.4943   -1.2792   -1.5135 C   0  0  0  0  0  0  0  0  0  0  0  0
   -0.8840   -0.6817   -1.4034 C   0  0  0  0  0  0  0  0  0  0  0  0
   -1.1265   -0.1597   -0.0728 N   0  0  0  0  0  0  0  0  0  0  0  0
   -0.1109    0.1740    0.8778 C   0  0  0  0  0  0  0  0  0  0  0  0
    1.1956    0.4989    0.1958 C   0  0  0  0  0  0  0  0  0  0  0  0
   -2.4705    0.0537    0.3644 C   0  0  0  0  0  0  0  0  0  0  0  0
   -2.8238    0.5005    1.4910 O   0  0  0  0  0  0  0  0  0  0  0  0
   -3.5425   -0.2385   -0.4842 O   0  0  0  0  0  0  0  0  0  0  0  0
   -4.8954   -0.0508   -0.1142 C   0  0  1  0  0  0  0  0  0  0  0  0
   -5.6059    0.8661   -1.1090 C   0  0  0  0  0  0  0  0  0  0  0  0
   -6.9538    0.9381   -0.8602 O   0  0  0  0  0  0  0  0  0  0  0  0
   -7.4783   -0.1179   -0.1554 C   0  0  2  0  0  0  0  0  0  0  0  0
   -7.4273    0.0335    1.3354 C   0  0  0  0  0  0  0  0  0  0  0  0
   -6.9142   -1.3390   -0.5031 O   0  0  0  0  0  0  0  0  0  0  0  0
   -5.5700   -1.4026   -0.2120 C   0  0  0  0  0  0  0  0  0  0  0  0
   -8.9294   -0.2180   -0.5417 C   0  0  0  0  0  0  0  0  0  0  0  0
   -9.7605   -1.2089    0.0091 O   0  0  0  0  0  0  0  0  0  0  0  0
   -9.5203    0.5217   -1.3448 O   0  0  0  0  0  0  0  0  0  0  0  0
    5.2154   -1.5760   -1.2587 H   0  0  0  0  0  0  0  0  0  0  0  0
    6.2514    0.2061   -2.1831 H   0  0  0  0  0  0  0  0  0  0  0  0
    5.6033    1.3379   -0.9949 H   0  0  0  0  0  0  0  0  0  0  0  0
    9.2611   -0.0608    0.8226 H   0  0  0  0  0  0  0  0  0  0  0  0
    8.6214    0.3721    2.5037 H   0  0  0  0  0  0  0  0  0  0  0  0
    9.0655    1.6642    1.3352 H   0  0  0  0  0  0  0  0  0  0  0  0
    5.3644   -2.0127    1.2876 H   0  0  0  0  0  0  0  0  0  0  0  0
    6.8324   -1.8896    0.2962 H   0  0  0  0  0  0  0  0  0  0  0  0
    6.5839    4.0101    0.7212 H   0  0  0  0  0  0  0  0  0  0  0  0
    0.7424   -1.2755   -2.6058 H   0  0  0  0  0  0  0  0  0  0  0  0
    0.4528   -2.3385   -1.1588 H   0  0  0  0  0  0  0  0  0  0  0  0
   -0.9715    0.1858   -2.1154 H   0  0  0  0  0  0  0  0  0  0  0  0
   -1.5963   -1.4869   -1.6840 H   0  0  0  0  0  0  0  0  0  0  0  0
   -0.4025    1.0443    1.5163 H   0  0  0  0  0  0  0  0  0  0  0  0
    0.0771   -0.7327    1.5129 H   0  0  0  0  0  0  0  0  0  0  0  0
    1.1119    1.4859   -0.3376 H   0  0  0  0  0  0  0  0  0  0  0  0
    1.9954    0.5450    0.9785 H   0  0  0  0  0  0  0  0  0  0  0  0
   -4.9016    0.3471    0.9150 H   0  0  0  0  0  0  0  0  0  0  0  0
   -5.1115    1.8492   -1.1874 H   0  0  0  0  0  0  0  0  0  0  0  0
   -5.4799    0.3648   -2.0990 H   0  0  0  0  0  0  0  0  0  0  0  0
   -7.0828    1.0568    1.6424 H   0  0  0  0  0  0  0  0  0  0  0  0
   -6.8177   -0.7748    1.8284 H   0  0  0  0  0  0  0  0  0  0  0  0
   -8.4443   -0.0742    1.8114 H   0  0  0  0  0  0  0  0  0  0  0  0
   -5.0920   -1.9385   -1.0678 H   0  0  0  0  0  0  0  0  0  0  0  0
   -5.4250   -1.9972    0.7127 H   0  0  0  0  0  0  0  0  0  0  0  0
  -10.7833   -1.1111    0.0193 H   0  0  0  0  0  0  0  0  0  0  0  0
  1  2  1  0
  2  3  1  0
  3  4  1  0
  4  5  1  1
  4  6  1  0
  6  7  1  0
  4  8  1  0
  8  9  1  0
  8 10  2  0
  1 11  1  0
 11 12  1  0
 12 13  2  0
 12 14  1  0
 14 15  1  0
 15 16  1  0
 16 17  1  0
 17 18  1  0
 18 19  1  0
 17 20  1  0
 20 21  2  0
 20 22  1  0
 22 23  1  0
 23 24  1  0
 24 25  1  0
 25 26  1  0
 26 27  1  1
 26 28  1  0
 28 29  1  0
 26 30  1  0
 30 31  1  0
 30 32  2  0
  7  1  1  0
 19 14  1  0
 29 23  1  0
  1 33  1  6
  2 34  1  0
  2 35  1  0
  5 36  1  0
  5 37  1  0
  5 38  1  0
  7 39  1  0
  7 40  1  0
  9 41  1  0
 15 42  1  0
 15 43  1  0
 16 44  1  0
 16 45  1  0
 18 46  1  0
 18 47  1  0
 19 48  1  0
 19 49  1  0
 23 50  1  1
 24 51  1  0
 24 52  1  0
 27 53  1  0
 27 54  1  0
 27 55  1  0
 29 56  1  0
 29 57  1  0
 31 58  1  0
M  END
$$$$
