
     RDKit          3D

 61 64  0  0  0  0  0  0  0  0999 V2000
    2.4277   -1.2928    3.0820 O   0  0  0  0  0  0  0  0  0  0  0  0
    2.3765   -1.0897    1.8486 C   0  0  0  0  0  0  0  0  0  0  0  0
    3.4115   -1.6003    1.0946 O   0  0  0  0  0  0  0  0  0  0  0  0
    1.2633   -0.3454    1.2727 C   0  0  0  0  0  0  0  0  0  0  0  0
    1.2193   -0.1889   -0.1176 N   0  0  0  0  0  0  0  0  0  0  0  0
    0.3832   -1.0068   -0.8580 C   0  0  0  0  0  0  0  0  0  0  0  0
   -1.0369   -0.6687   -0.6043 C   0  0  0  0  0  0  0  0  0  0  0  0
   -1.4270    0.6317   -0.7397 C   0  0  0  0  0  0  0  0  0  0  0  0
   -2.6802    1.0852   -0.5360 C   0  0  0  0  0  0  0  0  0  0  0  0
   -3.7039    0.1746   -0.1504 C   0  0  0  0  0  0  0  0  0  0  0  0
   -5.0092    0.7863    0.0363 C   0  0  0  0  0  0  0  0  0  0  0  0
   -5.0304    2.0577    0.6612 C   0  0  0  0  0  0  0  0  0  0  0  0
   -6.1816    2.7909    0.7845 C   0  0  0  0  0  0  0  0  0  0  0  0
   -7.3612    2.2961    0.2940 C   0  0  0  0  0  0  0  0  0  0  0  0
   -7.3634    1.0658   -0.3127 C   0  0  0  0  0  0  0  0  0  0  0  0
   -6.1655    0.3099   -0.4346 C   0  0  0  0  0  0  0  0  0  0  0  0
   -6.2820   -0.9231   -1.0415 O   0  0  0  0  0  0  0  0  0  0  0  0
   -6.8760   -1.9709   -0.2554 C   0  0  0  0  0  0  0  0  0  0  0  0
   -8.2158   -1.5240   -0.0241 F   0  0  0  0  0  0  0  0  0  0  0  0
   -6.9077   -3.1528   -0.9137 F   0  0  0  0  0  0  0  0  0  0  0  0
   -6.3721   -2.0682    1.0146 F   0  0  0  0  0  0  0  0  0  0  0  0
   -3.3390   -1.1113   -0.0121 C   0  0  0  0  0  0  0  0  0  0  0  0
   -2.0176   -1.5478   -0.2338 C   0  0  0  0  0  0  0  0  0  0  0  0
    0.6965   -2.4881   -0.7705 C   0  0  0  0  0  0  0  0  0  0  0  0
    0.2437   -2.5985   -2.2324 C   0  0  0  0  0  0  0  0  0  0  0  0
    0.5875   -1.1298   -2.3438 C   0  0  0  0  0  0  0  0  0  0  0  0
    2.0658    1.0959   -0.6922 S   0  0  0  0  0  6  0  0  0  0  0  0
    1.6112    2.3594    0.0406 O   0  0  0  0  0  0  0  0  0  0  0  0
    1.9387    1.4209   -2.1413 O   0  0  0  0  0  0  0  0  0  0  0  0
    3.8090    1.0168   -0.3556 C   0  0  0  0  0  0  0  0  0  0  0  0
    4.3121    1.5447    0.8059 C   0  0  0  0  0  0  0  0  0  0  0  0
    5.6671    1.4854    1.0719 C   0  0  0  0  0  0  0  0  0  0  0  0
    6.5689    0.9078    0.2086 C   0  0  0  0  0  0  0  0  0  0  0  0
    7.9304    0.8223    0.4257 O   0  0  0  0  0  0  0  0  0  0  0  0
    8.6445    1.2827    1.5161 C   0  0  0  0  0  0  0  0  0  0  0  0
    9.7425    2.0516    1.1755 F   0  0  0  0  0  0  0  0  0  0  0  0
    9.1821    0.1509    2.1507 F   0  0  0  0  0  0  0  0  0  0  0  0
    6.0072    0.3852   -0.9592 C   0  0  0  0  0  0  0  0  0  0  0  0
    4.6693    0.4306   -1.2471 C   0  0  0  0  0  0  0  0  0  0  0  0
    4.0840   -2.2680    1.4559 H   0  0  0  0  0  0  0  0  0  0  0  0
    0.2715   -0.8066    1.5842 H   0  0  0  0  0  0  0  0  0  0  0  0
    1.1931    0.6720    1.7763 H   0  0  0  0  0  0  0  0  0  0  0  0
   -0.6733    1.3654   -1.0397 H   0  0  0  0  0  0  0  0  0  0  0  0
   -2.9433    2.1534   -0.6599 H   0  0  0  0  0  0  0  0  0  0  0  0
   -4.0981    2.4459    1.0475 H   0  0  0  0  0  0  0  0  0  0  0  0
   -6.1760    3.7513    1.2611 H   0  0  0  0  0  0  0  0  0  0  0  0
   -8.2727    2.8657    0.3840 H   0  0  0  0  0  0  0  0  0  0  0  0
   -8.2934    0.6626   -0.7063 H   0  0  0  0  0  0  0  0  0  0  0  0
   -4.0749   -1.8431    0.2779 H   0  0  0  0  0  0  0  0  0  0  0  0
   -1.7970   -2.5953   -0.1032 H   0  0  0  0  0  0  0  0  0  0  0  0
    0.1555   -3.0839   -0.0487 H   0  0  0  0  0  0  0  0  0  0  0  0
    1.7744   -2.7342   -0.7600 H   0  0  0  0  0  0  0  0  0  0  0  0
   -0.8197   -2.8492   -2.2688 H   0  0  0  0  0  0  0  0  0  0  0  0
    0.8307   -3.2804   -2.8447 H   0  0  0  0  0  0  0  0  0  0  0  0
   -0.1941   -0.6383   -2.9669 H   0  0  0  0  0  0  0  0  0  0  0  0
    1.5684   -0.8906   -2.7387 H   0  0  0  0  0  0  0  0  0  0  0  0
    3.6219    2.0187    1.5284 H   0  0  0  0  0  0  0  0  0  0  0  0
    6.0376    1.9111    1.9987 H   0  0  0  0  0  0  0  0  0  0  0  0
    8.0151    1.7657    2.2734 H   0  0  0  0  0  0  0  0  0  0  0  0
    6.7223   -0.0752   -1.6483 H   0  0  0  0  0  0  0  0  0  0  0  0
    4.2793    0.0074   -2.1745 H   0  0  0  0  0  0  0  0  0  0  0  0
  1  2  2  0
  2  3  1  0
  2  4  1  0
  4  5  1  0
  5  6  1  0
  6  7  1  0
  7  8  2  0
  8  9  1  0
  9 10  2  0
 10 11  1  0
 11 12  2  0
 12 13  1  0
 13 14  2  0
 14 15  1  0
 15 16  2  0
 16 17  1  0
 17 18  1  0
 18 19  1  0
 18 20  1  0
 18 21  1  0
 10 22  1  0
 22 23  2  0
  6 24  1  0
 24 25  1  0
 25 26  1  0
  5 27  1  0
 27 28  2  0
 27 29  2  0
 27 30  1  0
 30 31  2  0
 31 32  1  0
 32 33  2  0
 33 34  1  0
 34 35  1  0
 35 36  1  0
 35 37  1  0
 33 38  1  0
 38 39  2  0
 26  6  1  0
 39 30  1  0
 23  7  1  0
 16 11  1  0
  3 40  1  0
  4 41  1  0
  4 42  1  0
  8 43  1  0
  9 44  1  0
 12 45  1  0
 13 46  1  0
 14 47  1  0
 15 48  1  0
 22 49  1  0
 23 50  1  0
 24 51  1  0
 24 52  1  0
 25 53  1  0
 25 54  1  0
 26 55  1  0
 26 56  1  0
 31 57  1  0
 32 58  1  0
 35 59  1  0
 38 60  1  0
 39 61  1  0
M  END
$$$$
