
     RDKit          3D

 46 49  0  0  0  0  0  0  0  0999 V2000
   -4.4883   -0.0697    2.7475 C   0  0  0  0  0  0  0  0  0  0  0  0
   -3.2820   -0.3539    1.9782 N   0  0  0  0  0  0  0  0  0  0  0  0
   -2.3014    0.6609    2.1542 C   0  0  0  0  0  0  0  0  0  0  0  0
   -2.0483    1.5049    0.9353 C   0  0  0  0  0  0  0  0  0  0  0  0
   -1.6876    0.6223   -0.1835 C   0  0  0  0  0  0  0  0  0  0  0  0
   -2.4988   -0.5062   -0.3232 C   0  0  0  0  0  0  0  0  0  0  0  0
   -2.0924   -1.2490   -1.3877 C   0  0  0  0  0  0  0  0  0  0  0  0
   -2.4916   -2.4272   -2.0026 C   0  0  0  0  0  0  0  0  0  0  0  0
   -1.8618   -2.9476   -3.1111 C   0  0  0  0  0  0  0  0  0  0  0  0
   -0.7872   -2.2655   -3.6312 C   0  0  0  0  0  0  0  0  0  0  0  0
   -0.3596   -1.0864   -3.0452 C   0  0  0  0  0  0  0  0  0  0  0  0
   -1.0135   -0.5812   -1.9242 C   0  0  0  0  0  0  0  0  0  0  0  0
   -0.7939    0.5430   -1.1750 N   0  0  0  0  0  0  0  0  0  0  0  0
    0.2441    1.5160   -1.3949 C   0  0  0  0  0  0  0  0  0  0  0  0
    1.5114    1.2267   -0.6778 C   0  0  0  0  0  0  0  0  0  0  0  0
    2.5038    0.4418   -1.2151 C   0  0  0  0  0  0  0  0  0  0  0  0
    3.7044    0.1631   -0.5530 C   0  0  0  0  0  0  0  0  0  0  0  0
    3.9448    0.6756    0.6910 C   0  0  0  0  0  0  0  0  0  0  0  0
    5.1556    0.4499    1.4672 C   0  0  0  0  0  0  0  0  0  0  0  0
    5.3116    0.9580    2.6184 O   0  0  0  0  0  0  0  0  0  0  0  0
    6.2054   -0.3364    0.9849 N   0  0  0  0  0  0  0  0  0  0  0  0
    7.3542   -0.5653    1.6924 O   0  0  0  0  0  0  0  0  0  0  0  0
    2.9453    1.4720    1.2432 C   0  0  0  0  0  0  0  0  0  0  0  0
    1.7587    1.7448    0.5835 C   0  0  0  0  0  0  0  0  0  0  0  0
   -3.5968   -0.7118    0.6390 C   0  0  0  0  0  0  0  0  0  0  0  0
   -5.3476   -0.2324    2.0966 H   0  0  0  0  0  0  0  0  0  0  0  0
   -4.4664   -0.7577    3.6277 H   0  0  0  0  0  0  0  0  0  0  0  0
   -4.4544    0.9613    3.1609 H   0  0  0  0  0  0  0  0  0  0  0  0
   -2.6451    1.3509    2.9541 H   0  0  0  0  0  0  0  0  0  0  0  0
   -1.3565    0.2098    2.5207 H   0  0  0  0  0  0  0  0  0  0  0  0
   -1.3449    2.2991    1.1721 H   0  0  0  0  0  0  0  0  0  0  0  0
   -3.0315    2.0349    0.7421 H   0  0  0  0  0  0  0  0  0  0  0  0
   -3.3265   -2.9437   -1.5870 H   0  0  0  0  0  0  0  0  0  0  0  0
   -2.1738   -3.8696   -3.5924 H   0  0  0  0  0  0  0  0  0  0  0  0
   -0.2915   -2.6849   -4.5123 H   0  0  0  0  0  0  0  0  0  0  0  0
    0.4737   -0.5686   -3.4673 H   0  0  0  0  0  0  0  0  0  0  0  0
   -0.0935    2.5429   -1.1452 H   0  0  0  0  0  0  0  0  0  0  0  0
    0.4591    1.5256   -2.4924 H   0  0  0  0  0  0  0  0  0  0  0  0
    2.3772    0.0085   -2.1962 H   0  0  0  0  0  0  0  0  0  0  0  0
    4.4597   -0.4572   -1.0066 H   0  0  0  0  0  0  0  0  0  0  0  0
    6.1329   -0.7775    0.0488 H   0  0  0  0  0  0  0  0  0  0  0  0
    7.5229    0.1734    2.3182 H   0  0  0  0  0  0  0  0  0  0  0  0
    3.1305    1.8842    2.2356 H   0  0  0  0  0  0  0  0  0  0  0  0
    1.0077    2.3771    1.0546 H   0  0  0  0  0  0  0  0  0  0  0  0
   -4.5100   -0.1658    0.3245 H   0  0  0  0  0  0  0  0  0  0  0  0
   -3.8583   -1.7894    0.6333 H   0  0  0  0  0  0  0  0  0  0  0  0
  1  2  1  0
  2  3  1  0
  3  4  1  0
  4  5  1  0
  5  6  2  0
  6  7  1  0
  7  8  2  0
  8  9  1  0
  9 10  2  0
 10 11  1  0
 11 12  2  0
 12 13  1  0
 13 14  1  0
 14 15  1  0
 15 16  2  0
 16 17  1  0
 17 18  2  0
 18 19  1  0
 19 20  2  0
 19 21  1  0
 21 22  1  0
 18 23  1  0
 23 24  2  0
  6 25  1  0
 25  2  1  0
 13  5  1  0
 24 15  1  0
 12  7  1  0
  1 26  1  0
  1 27  1  0
  1 28  1  0
  3 29  1  0
  3 30  1  0
  4 31  1  0
  4 32  1  0
  8 33  1  0
  9 34  1  0
 10 35  1  0
 11 36  1  0
 14 37  1  0
 14 38  1  0
 16 39  1  0
 17 40  1  0
 21 41  1  0
 22 42  1  0
 23 43  1  0
 24 44  1  0
 25 45  1  0
 25 46  1  0
M  END
$$$$
