
     RDKit          3D

 54 56  0  0  0  0  0  0  0  0999 V2000
   -1.8283    5.8036   -0.8247 C   0  0  0  0  0  0  0  0  0  0  0  0
   -2.2159    4.6960    0.1632 C   0  0  0  0  0  0  0  0  0  0  0  0
   -1.1925    3.5988    0.0868 C   0  0  0  0  0  0  0  0  0  0  0  0
   -1.5210    2.4657    1.0697 C   0  0  0  0  0  0  0  0  0  0  0  0
   -0.4430    1.4450    0.9062 C   0  0  0  0  0  0  0  0  0  0  0  0
    0.6688    1.5762    1.6895 N   0  0  0  0  0  0  0  0  0  0  0  0
    1.5037    0.5829    1.3617 C   0  0  0  0  0  0  0  0  0  0  0  0
    0.8619   -0.1312    0.3739 C   0  0  0  0  0  0  0  0  0  0  0  0
    1.5635   -1.2560   -0.2235 C   0  0  0  0  0  0  0  0  0  0  0  0
    2.7807   -1.4136   -0.7663 C   0  0  0  0  0  0  0  0  0  0  0  0
    3.7093   -0.2788   -0.8360 C   0  0  0  0  0  0  0  0  0  0  0  0
    4.9636   -0.5610   -0.1690 C   0  0  0  0  0  0  0  0  0  0  0  0
    5.4279   -0.4168    1.1255 C   0  0  0  0  0  0  0  0  0  0  0  0
    6.6804   -0.7397    1.4900 C   0  0  0  0  0  0  0  0  0  0  0  0
    7.4957   -1.2613    0.3618 C   0  0  0  0  0  0  0  0  0  0  0  0
    6.3160   -1.2091   -1.0899 S   0  0  0  0  0  0  0  0  0  0  0  0
    3.1057   -2.7404   -1.2639 C   0  0  0  0  0  0  0  0  0  0  0  0
    2.2862   -3.8482   -1.2287 O   0  0  0  0  0  0  0  0  0  0  0  0
    4.2160   -2.9365   -1.7759 O   0  0  0  0  0  0  0  0  0  0  0  0
   -0.3545    0.3797    0.0681 N   0  0  0  0  0  0  0  0  0  0  0  0
   -1.3213   -0.0560   -0.9007 C   0  0  0  0  0  0  0  0  0  0  0  0
   -2.3004   -1.0308   -0.4156 C   0  0  0  0  0  0  0  0  0  0  0  0
   -2.1701   -2.3826   -0.3746 C   0  0  0  0  0  0  0  0  0  0  0  0
   -3.0630   -3.3373    0.0560 C   0  0  0  0  0  0  0  0  0  0  0  0
   -4.2881   -2.8417    0.5195 C   0  0  0  0  0  0  0  0  0  0  0  0
   -4.5191   -1.4917    0.5190 C   0  0  0  0  0  0  0  0  0  0  0  0
   -3.5384   -0.6146    0.0582 C   0  0  0  0  0  0  0  0  0  0  0  0
   -5.2915   -3.7902    0.9913 C   0  0  0  0  0  0  0  0  0  0  0  0
   -6.5157   -3.3433    1.4613 O   0  0  0  0  0  0  0  0  0  0  0  0
   -5.0295   -5.0169    0.9656 O   0  0  0  0  0  0  0  0  0  0  0  0
   -1.5476    5.3095   -1.7637 H   0  0  0  0  0  0  0  0  0  0  0  0
   -0.9695    6.3329   -0.3603 H   0  0  0  0  0  0  0  0  0  0  0  0
   -2.6563    6.5200   -0.9821 H   0  0  0  0  0  0  0  0  0  0  0  0
   -2.3403    5.1209    1.1592 H   0  0  0  0  0  0  0  0  0  0  0  0
   -3.1961    4.3195   -0.2250 H   0  0  0  0  0  0  0  0  0  0  0  0
   -0.1826    3.9662    0.3587 H   0  0  0  0  0  0  0  0  0  0  0  0
   -1.1728    3.1967   -0.9407 H   0  0  0  0  0  0  0  0  0  0  0  0
   -1.5393    2.8965    2.1010 H   0  0  0  0  0  0  0  0  0  0  0  0
   -2.5204    2.1010    0.8705 H   0  0  0  0  0  0  0  0  0  0  0  0
    2.4285    0.5152    1.8746 H   0  0  0  0  0  0  0  0  0  0  0  0
    0.9179   -2.1276   -0.1900 H   0  0  0  0  0  0  0  0  0  0  0  0
    3.2795    0.6363   -0.3317 H   0  0  0  0  0  0  0  0  0  0  0  0
    3.8993    0.0058   -1.9160 H   0  0  0  0  0  0  0  0  0  0  0  0
    4.7076   -0.0233    1.8214 H   0  0  0  0  0  0  0  0  0  0  0  0
    7.0714   -0.6387    2.4850 H   0  0  0  0  0  0  0  0  0  0  0  0
    8.6511   -1.5528    0.7203 H   0  0  0  0  0  0  0  0  0  0  0  0
    2.6103   -4.7768   -0.9141 H   0  0  0  0  0  0  0  0  0  0  0  0
   -1.8658    0.8278   -1.3448 H   0  0  0  0  0  0  0  0  0  0  0  0
   -0.7802   -0.4816   -1.7968 H   0  0  0  0  0  0  0  0  0  0  0  0
   -1.2442   -2.8258   -0.7316 H   0  0  0  0  0  0  0  0  0  0  0  0
   -2.8785   -4.3910    0.0556 H   0  0  0  0  0  0  0  0  0  0  0  0
   -5.4901   -1.1952    0.8973 H   0  0  0  0  0  0  0  0  0  0  0  0
   -3.8852    0.3974    0.1169 H   0  0  0  0  0  0  0  0  0  0  0  0
   -7.2839   -3.9830    1.5592 H   0  0  0  0  0  0  0  0  0  0  0  0
  1  2  1  0
  2  3  1  0
  3  4  1  0
  4  5  1  0
  5  6  2  0
  6  7  1  0
  7  8  2  0
  8  9  1  0
  9 10  2  0
 10 11  1  0
 11 12  1  0
 12 13  2  0
 13 14  1  0
 14 15  2  0
 15 16  1  0
 10 17  1  0
 17 18  1  0
 17 19  2  0
  8 20  1  0
 20 21  1  0
 21 22  1  0
 22 23  2  0
 23 24  1  0
 24 25  2  0
 25 26  1  0
 26 27  2  0
 25 28  1  0
 28 29  1  0
 28 30  2  0
 20  5  1  0
 27 22  1  0
 16 12  1  0
  1 31  1  0
  1 32  1  0
  1 33  1  0
  2 34  1  0
  2 35  1  0
  3 36  1  0
  3 37  1  0
  4 38  1  0
  4 39  1  0
  7 40  1  0
  9 41  1  0
 11 42  1  0
 11 43  1  0
 13 44  1  0
 14 45  1  0
 15 46  1  0
 18 47  1  0
 21 48  1  0
 21 49  1  0
 23 50  1  0
 24 51  1  0
 26 52  1  0
 27 53  1  0
 29 54  1  0
M  END
$$$$
