
     RDKit          3D

 83 86  0  0  0  0  0  0  0  0999 V2000
    2.7766    0.6497    0.1348 C   0  0  1  0  0  0  0  0  0  0  0  0
    3.1157    1.7833    1.1131 C   0  0  0  0  0  0  0  0  0  0  0  0
    4.2065    2.6497    0.5078 C   0  0  0  0  0  0  0  0  0  0  0  0
    4.5733    3.7605    1.4356 C   0  0  0  0  0  0  0  0  0  0  0  0
    4.0270   -0.1603   -0.0995 C   0  0  0  0  0  0  0  0  0  0  0  0
    4.8110   -0.3760   -1.1503 C   0  0  0  0  0  0  0  0  0  0  0  0
    6.2675   -1.3211   -1.4061 S   0  0  0  0  0  0  0  0  0  0  0  0
    6.1524   -2.6448   -0.7312 O   0  0  0  0  0  0  0  0  0  0  0  0
    6.4257   -1.4683   -2.8878 O   0  0  0  0  0  0  0  0  0  0  0  0
    7.6117   -0.4221   -0.7817 C   0  0  0  0  0  0  0  0  0  0  0  0
    8.3108    0.5445   -1.4918 C   0  0  0  0  0  0  0  0  0  0  0  0
    9.3807    1.2505   -0.9910 C   0  0  0  0  0  0  0  0  0  0  0  0
    9.8410    1.0358    0.2898 C   0  0  0  0  0  0  0  0  0  0  0  0
    9.1521    0.0658    1.0216 C   0  0  0  0  0  0  0  0  0  0  0  0
    8.0845   -0.6323    0.5106 C   0  0  0  0  0  0  0  0  0  0  0  0
    1.6897   -0.1432    0.6180 N   0  0  0  0  0  0  0  0  0  0  0  0
    0.5638   -0.3321    0.0435 C   0  0  0  0  0  0  0  0  0  0  0  0
    0.5601    0.3668   -1.1466 O   0  0  0  0  0  0  0  0  0  0  0  0
   -0.4575   -1.2055    0.7136 C   0  0  2  0  0  0  0  0  0  0  0  0
   -0.6807   -2.4201   -0.1540 C   0  0  0  0  0  0  0  0  0  0  0  0
    0.5404   -3.2209   -0.3718 C   0  0  0  0  0  0  0  0  0  0  0  0
    0.9108   -4.2551    0.4826 C   0  0  0  0  0  0  0  0  0  0  0  0
    2.0840   -4.9291    0.1452 C   0  0  0  0  0  0  0  0  0  0  0  0
    2.8524   -4.6102   -0.9663 C   0  0  0  0  0  0  0  0  0  0  0  0
    2.4550   -3.5725   -1.8002 C   0  0  0  0  0  0  0  0  0  0  0  0
    1.2793   -2.8907   -1.4689 C   0  0  0  0  0  0  0  0  0  0  0  0
   -1.7431   -0.5273    0.7490 N   0  0  0  0  0  0  0  0  0  0  0  0
   -2.0910    0.4987    1.2804 C   0  0  0  0  0  0  0  0  0  0  0  0
   -2.1100    1.7171    2.0309 O   0  0  0  0  0  0  0  0  0  0  0  0
   -3.4457    0.3981    0.8104 N   0  0  0  0  0  0  0  0  0  0  0  0
   -4.4124   -0.3228    1.6102 C   0  0  0  0  0  0  0  0  0  0  0  0
   -5.7582    0.2971    1.2984 C   0  0  0  0  0  0  0  0  0  0  0  0
   -6.0077    0.2216   -0.1664 C   0  0  0  0  0  0  0  0  0  0  0  0
   -5.0128    0.9065   -1.0373 C   0  0  0  0  0  0  0  0  0  0  0  0
   -3.6536    1.0767   -0.4567 C   0  0  0  0  0  0  0  0  0  0  0  0
   -7.3409    0.6198   -0.5602 N   0  0  0  0  0  0  0  0  0  0  0  0
   -8.3510   -0.2578    0.0344 C   0  0  0  0  0  0  0  0  0  0  0  0
   -9.6513    0.1386   -0.6793 C   0  0  0  0  0  0  0  0  0  0  0  0
   -9.9746    1.4485   -0.4373 O   0  0  0  0  0  0  0  0  0  0  0  0
   -8.9799    2.3230   -0.8847 C   0  0  0  0  0  0  0  0  0  0  0  0
   -7.6991    1.9563   -0.1370 C   0  0  0  0  0  0  0  0  0  0  0  0
    2.5141    1.1030   -0.8348 H   0  0  0  0  0  0  0  0  0  0  0  0
    2.1867    2.3674    1.2741 H   0  0  0  0  0  0  0  0  0  0  0  0
    3.4382    1.3557    2.0652 H   0  0  0  0  0  0  0  0  0  0  0  0
    3.8970    3.0216   -0.4795 H   0  0  0  0  0  0  0  0  0  0  0  0
    5.1160    2.0054    0.3877 H   0  0  0  0  0  0  0  0  0  0  0  0
    3.7278    4.4678    1.6456 H   0  0  0  0  0  0  0  0  0  0  0  0
    4.9371    3.3142    2.3883 H   0  0  0  0  0  0  0  0  0  0  0  0
    5.3959    4.3746    1.0244 H   0  0  0  0  0  0  0  0  0  0  0  0
    4.1958   -0.5973    0.8772 H   0  0  0  0  0  0  0  0  0  0  0  0
    4.3363    0.2112   -1.9496 H   0  0  0  0  0  0  0  0  0  0  0  0
    7.9951    0.7566   -2.5008 H   0  0  0  0  0  0  0  0  0  0  0  0
    9.9134    1.9985   -1.5644 H   0  0  0  0  0  0  0  0  0  0  0  0
   10.6619    1.5546    0.7231 H   0  0  0  0  0  0  0  0  0  0  0  0
    9.5170   -0.1071    2.0330 H   0  0  0  0  0  0  0  0  0  0  0  0
    7.5874   -1.3716    1.1267 H   0  0  0  0  0  0  0  0  0  0  0  0
    0.5645    1.3702   -1.1959 H   0  0  0  0  0  0  0  0  0  0  0  0
   -0.1436   -1.4222    1.7317 H   0  0  0  0  0  0  0  0  0  0  0  0
   -1.4606   -3.1011    0.2940 H   0  0  0  0  0  0  0  0  0  0  0  0
   -1.1519   -2.0643   -1.0979 H   0  0  0  0  0  0  0  0  0  0  0  0
    0.2912   -4.4745    1.3363 H   0  0  0  0  0  0  0  0  0  0  0  0
    2.2839   -5.7188    0.8829 H   0  0  0  0  0  0  0  0  0  0  0  0
    3.7375   -5.2554   -1.0649 H   0  0  0  0  0  0  0  0  0  0  0  0
    3.1502   -3.4522   -2.6128 H   0  0  0  0  0  0  0  0  0  0  0  0
    1.0999   -2.1067   -2.2141 H   0  0  0  0  0  0  0  0  0  0  0  0
   -1.1714    1.8936    2.4345 H   0  0  0  0  0  0  0  0  0  0  0  0
   -4.4137   -1.3724    1.3158 H   0  0  0  0  0  0  0  0  0  0  0  0
   -4.1903   -0.2448    2.6963 H   0  0  0  0  0  0  0  0  0  0  0  0
   -6.5060   -0.3517    1.8199 H   0  0  0  0  0  0  0  0  0  0  0  0
   -5.8695    1.3038    1.7415 H   0  0  0  0  0  0  0  0  0  0  0  0
   -5.9472   -0.8752   -0.4349 H   0  0  0  0  0  0  0  0  0  0  0  0
   -5.3639    1.9441   -1.3259 H   0  0  0  0  0  0  0  0  0  0  0  0
   -4.9102    0.3943   -2.0419 H   0  0  0  0  0  0  0  0  0  0  0  0
   -2.9029    0.6376   -1.1466 H   0  0  0  0  0  0  0  0  0  0  0  0
   -3.3450    2.1474   -0.3428 H   0  0  0  0  0  0  0  0  0  0  0  0
   -8.4704   -0.1214    1.1061 H   0  0  0  0  0  0  0  0  0  0  0  0
   -8.1565   -1.3004   -0.2683 H   0  0  0  0  0  0  0  0  0  0  0  0
   -9.3908    0.0050   -1.7719 H   0  0  0  0  0  0  0  0  0  0  0  0
  -10.4874   -0.5103   -0.4117 H   0  0  0  0  0  0  0  0  0  0  0  0
   -9.3112    3.3555   -0.6700 H   0  0  0  0  0  0  0  0  0  0  0  0
   -8.7644    2.1684   -1.9659 H   0  0  0  0  0  0  0  0  0  0  0  0
   -7.9585    1.9841    0.9482 H   0  0  0  0  0  0  0  0  0  0  0  0
   -6.9341    2.7161   -0.2896 H   0  0  0  0  0  0  0  0  0  0  0  0
  1  2  1  0
  2  3  1  0
  3  4  1  0
  1  5  1  0
  5  6  2  3
  6  7  1  0
  7  8  2  0
  7  9  2  0
  7 10  1  0
 10 11  2  0
 11 12  1  0
 12 13  2  0
 13 14  1  0
 14 15  2  0
  1 16  1  0
 16 17  2  3
 17 18  1  0
 17 19  1  0
 19 20  1  0
 20 21  1  0
 21 22  2  0
 22 23  1  0
 23 24  2  0
 24 25  1  0
 25 26  2  0
 19 27  1  0
 27 28  2  3
 28 29  1  0
 28 30  1  0
 30 31  1  0
 31 32  1  0
 32 33  1  0
 33 34  1  0
 34 35  1  0
 33 36  1  0
 36 37  1  0
 37 38  1  0
 38 39  1  0
 39 40  1  0
 40 41  1  0
 15 10  1  0
 26 21  1  0
 35 30  1  0
 41 36  1  0
  1 42  1  6
  2 43  1  0
  2 44  1  0
  3 45  1  0
  3 46  1  0
  4 47  1  0
  4 48  1  0
  4 49  1  0
  5 50  1  0
  6 51  1  0
 11 52  1  0
 12 53  1  0
 13 54  1  0
 14 55  1  0
 15 56  1  0
 18 57  1  0
 19 58  1  1
 20 59  1  0
 20 60  1  0
 22 61  1  0
 23 62  1  0
 24 63  1  0
 25 64  1  0
 26 65  1  0
 29 66  1  0
 31 67  1  0
 31 68  1  0
 32 69  1  0
 32 70  1  0
 33 71  1  0
 34 72  1  0
 34 73  1  0
 35 74  1  0
 35 75  1  0
 37 76  1  0
 37 77  1  0
 38 78  1  0
 38 79  1  0
 40 80  1  0
 40 81  1  0
 41 82  1  0
 41 83  1  0
M  END
$$$$
