
     RDKit          3D

 17 16  0  0  0  0  0  0  0  0999 V2000
   -1.4397   -1.3129   -0.4694 C   0  0  0  0  0  0  0  0  0  0  0  0
   -0.6764   -0.2795    0.3409 C   0  0  1  0  0  0  0  0  0  0  0  0
    0.6039    0.0226   -0.2733 N   0  0  0  0  0  0  0  0  0  0  0  0
    1.8039   -0.2931    0.4540 C   0  0  0  0  0  0  0  0  0  0  0  0
    2.9903    0.0501   -0.2528 N   0  0  0  0  0  0  0  0  0  0  0  0
    1.6704   -0.8177    1.5904 O   0  0  0  0  0  0  0  0  0  0  0  0
   -1.5184    0.9356    0.4632 C   0  0  0  0  0  0  0  0  0  0  0  0
   -1.0927    2.1971    0.0277 O   0  0  0  0  0  0  0  0  0  0  0  0
   -2.6762    0.9438    0.9625 O   0  0  0  0  0  0  0  0  0  0  0  0
   -1.6266   -1.0141   -1.5088 H   0  0  0  0  0  0  0  0  0  0  0  0
   -0.8003   -2.2396   -0.4530 H   0  0  0  0  0  0  0  0  0  0  0  0
   -2.3651   -1.5102    0.1047 H   0  0  0  0  0  0  0  0  0  0  0  0
   -0.5492   -0.7408    1.3486 H   0  0  0  0  0  0  0  0  0  0  0  0
    0.5236    0.4632   -1.2343 H   0  0  0  0  0  0  0  0  0  0  0  0
    3.2033    1.0533   -0.1113 H   0  0  0  0  0  0  0  0  0  0  0  0
    3.6966   -0.4188   -0.8655 H   0  0  0  0  0  0  0  0  0  0  0  0
   -1.7474    2.9610   -0.1237 H   0  0  0  0  0  0  0  0  0  0  0  0
  1  2  1  0
  2  3  1  0
  3  4  1  0
  4  5  1  0
  4  6  2  0
  2  7  1  0
  7  8  1  0
  7  9  2  0
  1 10  1  0
  1 11  1  0
  1 12  1  0
  2 13  1  1
  3 14  1  0
  5 15  1  0
  5 16  1  0
  8 17  1  0
M  END
$$$$
