
     RDKit          3D

 45 49  0  0  0  0  0  0  0  0999 V2000
  -10.4111    2.0230   -0.5066 N   0  0  0  0  0  0  0  0  0  0  0  0
   -9.2440    1.9462   -0.5496 C   0  0  0  0  0  0  0  0  0  0  0  0
   -7.8029    1.8752   -0.6067 C   0  0  0  0  0  0  0  0  0  0  0  0
   -7.1329    2.6781   -1.4887 C   0  0  0  0  0  0  0  0  0  0  0  0
   -5.7671    2.6251   -1.5160 C   0  0  0  0  0  0  0  0  0  0  0  0
   -5.0533    1.7580   -0.6533 C   0  0  0  0  0  0  0  0  0  0  0  0
   -3.5836    1.7868   -0.8383 C   0  0  0  0  0  0  0  0  0  0  0  0
   -2.6635    1.6095    0.1454 C   0  0  0  0  0  0  0  0  0  0  0  0
   -1.2759    1.6418   -0.0883 C   0  0  0  0  0  0  0  0  0  0  0  0
   -0.7948    1.8537   -1.3321 C   0  0  0  0  0  0  0  0  0  0  0  0
    0.6210    1.8970   -1.7839 C   0  0  0  0  0  0  0  0  0  0  0  0
    1.0799    0.2756   -2.3056 S   0  0  0  0  0  0  0  0  0  0  0  0
    1.6042   -0.7782   -0.9588 C   0  0  0  0  0  0  0  0  0  0  0  0
    1.0161   -1.5479   -0.0873 N   0  0  0  0  0  0  0  0  0  0  0  0
    1.9615   -2.1268    0.6844 N   0  0  0  0  0  0  0  0  0  0  0  0
    3.1432   -1.7038    0.2772 C   0  0  0  0  0  0  0  0  0  0  0  0
    4.5003   -2.0327    0.7674 C   0  0  0  0  0  0  0  0  0  0  0  0
    5.5953   -1.4084    0.1949 C   0  0  0  0  0  0  0  0  0  0  0  0
    6.8907   -1.6666    0.5301 C   0  0  0  0  0  0  0  0  0  0  0  0
    7.1325   -2.6367    1.5313 C   0  0  0  0  0  0  0  0  0  0  0  0
    6.0652   -3.2708    2.1173 C   0  0  0  0  0  0  0  0  0  0  0  0
    4.7489   -2.9740    1.7409 C   0  0  0  0  0  0  0  0  0  0  0  0
    6.5611   -4.1762    3.0577 O   0  0  0  0  0  0  0  0  0  0  0  0
    7.9730   -4.3338    2.8695 C   0  0  0  0  0  0  0  0  0  0  0  0
    8.2728   -3.1547    2.1192 O   0  0  0  0  0  0  0  0  0  0  0  0
    2.9401   -0.8735   -0.7260 O   0  0  0  0  0  0  0  0  0  0  0  0
   -1.7182    2.0387   -2.3829 C   0  0  0  0  0  0  0  0  0  0  0  0
   -3.0754    2.0032   -2.1124 C   0  0  0  0  0  0  0  0  0  0  0  0
   -5.7265    0.9751    0.2073 C   0  0  0  0  0  0  0  0  0  0  0  0
   -7.0927    1.0143    0.2489 C   0  0  0  0  0  0  0  0  0  0  0  0
   -7.6387    3.3594   -2.1769 H   0  0  0  0  0  0  0  0  0  0  0  0
   -5.2261    3.2522   -2.1841 H   0  0  0  0  0  0  0  0  0  0  0  0
   -3.0173    1.4408    1.1637 H   0  0  0  0  0  0  0  0  0  0  0  0
   -0.5674    1.4959    0.7390 H   0  0  0  0  0  0  0  0  0  0  0  0
    1.1912    2.2887   -0.8982 H   0  0  0  0  0  0  0  0  0  0  0  0
    0.6784    2.6599   -2.6116 H   0  0  0  0  0  0  0  0  0  0  0  0
    5.4333   -0.6529   -0.5817 H   0  0  0  0  0  0  0  0  0  0  0  0
    7.7470   -1.1873    0.0926 H   0  0  0  0  0  0  0  0  0  0  0  0
    3.9372   -3.4863    2.2156 H   0  0  0  0  0  0  0  0  0  0  0  0
    8.2365   -5.2070    2.2586 H   0  0  0  0  0  0  0  0  0  0  0  0
    8.4680   -4.2981    3.8656 H   0  0  0  0  0  0  0  0  0  0  0  0
   -1.3547    2.2061   -3.3756 H   0  0  0  0  0  0  0  0  0  0  0  0
   -3.7987    2.1349   -2.9202 H   0  0  0  0  0  0  0  0  0  0  0  0
   -5.1759    0.3013    0.8745 H   0  0  0  0  0  0  0  0  0  0  0  0
   -7.6764    0.3750    0.9207 H   0  0  0  0  0  0  0  0  0  0  0  0
  1  2  3  0
  2  3  1  0
  3  4  2  0
  4  5  1  0
  5  6  2  0
  6  7  1  0
  7  8  2  0
  8  9  1  0
  9 10  2  0
 10 11  1  0
 11 12  1  0
 12 13  1  0
 13 14  2  0
 14 15  1  0
 15 16  2  0
 16 17  1  0
 17 18  2  0
 18 19  1  0
 19 20  2  0
 20 21  1  0
 21 22  2  0
 21 23  1  0
 23 24  1  0
 24 25  1  0
 16 26  1  0
 10 27  1  0
 27 28  2  0
  6 29  1  0
 29 30  2  0
 30  3  1  0
 28  7  1  0
 26 13  1  0
 22 17  1  0
 25 20  1  0
  4 31  1  0
  5 32  1  0
  8 33  1  0
  9 34  1  0
 11 35  1  0
 11 36  1  0
 18 37  1  0
 19 38  1  0
 22 39  1  0
 24 40  1  0
 24 41  1  0
 27 42  1  0
 28 43  1  0
 29 44  1  0
 30 45  1  0
M  END
$$$$
