
     RDKit          3D

 62 67  0  0  0  0  0  0  0  0999 V2000
   -4.1637    4.7528    0.7090 C   0  0  0  0  0  0  0  0  0  0  0  0
   -3.0574    3.7720    0.8377 C   0  0  0  0  0  0  0  0  0  0  0  0
   -1.7603    4.2365    0.8970 C   0  0  0  0  0  0  0  0  0  0  0  0
   -0.7514    3.3277    1.0151 C   0  0  0  0  0  0  0  0  0  0  0  0
   -1.0080    1.9859    1.0742 C   0  0  0  0  0  0  0  0  0  0  0  0
   -2.3085    1.5350    1.0138 C   0  0  0  0  0  0  0  0  0  0  0  0
   -2.6498    0.1123    1.0704 C   0  0  0  0  0  0  0  0  0  0  0  0
   -3.3649   -0.4812    2.0434 N   0  0  0  0  0  0  0  0  0  0  0  0
   -3.5021   -1.7628    1.8135 N   0  0  0  0  0  0  0  0  0  0  0  0
   -2.8667   -2.0354    0.6638 C   0  0  0  0  0  0  0  0  0  0  0  0
   -2.3045   -0.8569    0.1529 C   0  0  0  0  0  0  0  0  0  0  0  0
   -1.5350   -0.7103   -1.0760 C   0  0  0  0  0  0  0  0  0  0  0  0
   -1.9650    0.0427   -2.1493 C   0  0  0  0  0  0  0  0  0  0  0  0
   -1.2169    0.1695   -3.3085 C   0  0  0  0  0  0  0  0  0  0  0  0
    0.0033   -0.4744   -3.4072 C   0  0  0  0  0  0  0  0  0  0  0  0
    0.9188   -0.5286   -4.3874 N   0  0  0  0  0  0  0  0  0  0  0  0
    1.9293   -1.3028   -3.9626 C   0  0  0  0  0  0  0  0  0  0  0  0
    1.6427   -1.7297   -2.7191 N   0  0  0  0  0  0  0  0  0  0  0  0
    2.4731   -2.5849   -1.8903 C   0  0  0  0  0  0  0  0  0  0  0  0
    3.4459   -1.8058   -1.0555 C   0  0  0  0  0  0  0  0  0  0  0  0
    2.7980   -0.8348   -0.1110 C   0  0  0  0  0  0  0  0  0  0  0  0
    3.8816   -0.1612    0.6226 N   0  0  0  0  0  0  0  0  0  0  0  0
    4.6315    0.6899   -0.3051 C   0  0  0  0  0  0  0  0  0  0  0  0
    5.1992    1.7658    0.5888 C   0  0  0  0  0  0  0  0  0  0  0  0
    4.0107    2.0575    1.4899 C   0  0  0  0  0  0  0  0  0  0  0  0
    3.3095    0.7455    1.5975 C   0  0  0  0  0  0  0  0  0  0  0  0
    0.4517   -1.2310   -2.3477 C   0  0  0  0  0  0  0  0  0  0  0  0
   -0.3185   -1.3481   -1.1828 C   0  0  0  0  0  0  0  0  0  0  0  0
   -2.9742   -3.4679    0.3306 C   0  0  0  0  0  0  0  0  0  0  0  0
   -4.0519   -3.9604    1.2509 C   0  0  0  0  0  0  0  0  0  0  0  0
   -4.1018   -2.9761    2.3725 C   0  0  0  0  0  0  0  0  0  0  0  0
   -3.2910    2.4443    0.8974 N   0  0  0  0  0  0  0  0  0  0  0  0
   -4.2078    5.2983    1.6866 H   0  0  0  0  0  0  0  0  0  0  0  0
   -5.1271    4.2512    0.4556 H   0  0  0  0  0  0  0  0  0  0  0  0
   -3.9118    5.4366   -0.1357 H   0  0  0  0  0  0  0  0  0  0  0  0
   -1.6015    5.3179    0.8465 H   0  0  0  0  0  0  0  0  0  0  0  0
    0.2649    3.7027    1.0608 H   0  0  0  0  0  0  0  0  0  0  0  0
   -0.2325    1.2359    1.1685 H   0  0  0  0  0  0  0  0  0  0  0  0
   -2.9211    0.5472   -2.0717 H   0  0  0  0  0  0  0  0  0  0  0  0
   -1.5513    0.7590   -4.1527 H   0  0  0  0  0  0  0  0  0  0  0  0
    2.8428   -1.5570   -4.5187 H   0  0  0  0  0  0  0  0  0  0  0  0
    3.0524   -3.3039   -2.4941 H   0  0  0  0  0  0  0  0  0  0  0  0
    1.8393   -3.1729   -1.1928 H   0  0  0  0  0  0  0  0  0  0  0  0
    4.0663   -2.5046   -0.4749 H   0  0  0  0  0  0  0  0  0  0  0  0
    4.0542   -1.1923   -1.7666 H   0  0  0  0  0  0  0  0  0  0  0  0
    2.2263   -0.0774   -0.6894 H   0  0  0  0  0  0  0  0  0  0  0  0
    2.1582   -1.3353    0.6421 H   0  0  0  0  0  0  0  0  0  0  0  0
    5.4207    0.1189   -0.8269 H   0  0  0  0  0  0  0  0  0  0  0  0
    3.8929    1.1327   -0.9865 H   0  0  0  0  0  0  0  0  0  0  0  0
    6.0178    1.4169    1.2175 H   0  0  0  0  0  0  0  0  0  0  0  0
    5.4296    2.6999    0.0355 H   0  0  0  0  0  0  0  0  0  0  0  0
    4.4111    2.4403    2.4626 H   0  0  0  0  0  0  0  0  0  0  0  0
    3.3789    2.8666    1.0814 H   0  0  0  0  0  0  0  0  0  0  0  0
    3.5108    0.3206    2.6138 H   0  0  0  0  0  0  0  0  0  0  0  0
    2.2091    0.8279    1.4277 H   0  0  0  0  0  0  0  0  0  0  0  0
    0.0772   -1.9562   -0.3750 H   0  0  0  0  0  0  0  0  0  0  0  0
   -3.2540   -3.5611   -0.7421 H   0  0  0  0  0  0  0  0  0  0  0  0
   -2.0505   -4.0458    0.5511 H   0  0  0  0  0  0  0  0  0  0  0  0
   -3.8304   -4.9771    1.6356 H   0  0  0  0  0  0  0  0  0  0  0  0
   -4.9888   -4.0342    0.6758 H   0  0  0  0  0  0  0  0  0  0  0  0
   -3.5051   -3.2486    3.2524 H   0  0  0  0  0  0  0  0  0  0  0  0
   -5.1746   -2.7914    2.6133 H   0  0  0  0  0  0  0  0  0  0  0  0
  1  2  1  0
  2  3  2  0
  3  4  1  0
  4  5  2  0
  5  6  1  0
  6  7  1  0
  7  8  2  0
  8  9  1  0
  9 10  1  0
 10 11  2  0
 11 12  1  0
 12 13  2  0
 13 14  1  0
 14 15  2  0
 15 16  1  0
 16 17  2  0
 17 18  1  0
 18 19  1  0
 19 20  1  0
 20 21  1  0
 21 22  1  0
 22 23  1  0
 23 24  1  0
 24 25  1  0
 25 26  1  0
 18 27  1  0
 27 28  2  0
 10 29  1  0
 29 30  1  0
 30 31  1  0
  6 32  2  0
 32  2  1  0
 11  7  1  0
 28 12  1  0
 31  9  1  0
 27 15  1  0
 26 22  1  0
  1 33  1  0
  1 34  1  0
  1 35  1  0
  3 36  1  0
  4 37  1  0
  5 38  1  0
 13 39  1  0
 14 40  1  0
 17 41  1  0
 19 42  1  0
 19 43  1  0
 20 44  1  0
 20 45  1  0
 21 46  1  0
 21 47  1  0
 23 48  1  0
 23 49  1  0
 24 50  1  0
 24 51  1  0
 25 52  1  0
 25 53  1  0
 26 54  1  0
 26 55  1  0
 28 56  1  0
 29 57  1  0
 29 58  1  0
 30 59  1  0
 30 60  1  0
 31 61  1  0
 31 62  1  0
M  END
$$$$
