
     RDKit          3D

 56 60  0  0  0  0  0  0  0  0999 V2000
    9.4205    0.4611   -0.8840 C   0  0  0  0  0  0  0  0  0  0  0  0
    7.9970    0.1142   -1.2973 C   0  0  0  0  0  0  0  0  0  0  0  0
    7.1639    0.3601   -0.2078 O   0  0  0  0  0  0  0  0  0  0  0  0
    5.7951    0.1608   -0.2074 C   0  0  0  0  0  0  0  0  0  0  0  0
    5.1329   -0.3096   -1.3163 C   0  0  0  0  0  0  0  0  0  0  0  0
    3.7662   -0.5154   -1.3356 C   0  0  0  0  0  0  0  0  0  0  0  0
    3.0159   -0.2456   -0.2114 C   0  0  0  0  0  0  0  0  0  0  0  0
    1.6320   -0.4536   -0.2300 C   0  0  0  0  0  0  0  0  0  0  0  0
    0.8837   -0.1869    0.8877 C   0  0  0  0  0  0  0  0  0  0  0  0
   -0.5593   -0.4123    0.9302 C   0  0  0  0  0  0  0  0  0  0  0  0
   -1.4970    0.5081    1.3096 N   0  0  0  0  0  0  0  0  0  0  0  0
   -2.7070    0.0159    1.2650 N   0  0  0  0  0  0  0  0  0  0  0  0
   -3.9769    0.6575    1.5844 C   0  0  0  0  0  0  0  0  0  0  0  0
   -4.6114    1.3389    0.4192 C   0  0  0  0  0  0  0  0  0  0  0  0
   -4.8832    0.3550   -0.6683 C   0  0  0  0  0  0  0  0  0  0  0  0
   -5.7388    0.9284   -1.7784 C   0  0  0  0  0  0  0  0  0  0  0  0
   -6.1295    2.2821   -1.5325 N   0  0  0  0  0  0  0  0  0  0  0  0
   -6.7168    2.5160   -0.2492 C   0  0  0  0  0  0  0  0  0  0  0  0
   -5.9314    1.9169    0.8954 C   0  0  0  0  0  0  0  0  0  0  0  0
   -2.5853   -1.2613    0.8485 C   0  0  0  0  0  0  0  0  0  0  0  0
   -3.4720   -2.2454    0.6265 N   0  0  0  0  0  0  0  0  0  0  0  0
   -3.1031   -3.4699    0.2136 C   0  0  0  0  0  0  0  0  0  0  0  0
   -1.8009   -3.7425    0.0088 N   0  0  0  0  0  0  0  0  0  0  0  0
   -0.8484   -2.8183    0.2059 C   0  0  0  0  0  0  0  0  0  0  0  0
    0.5101   -3.1595   -0.0005 N   0  0  0  0  0  0  0  0  0  0  0  0
   -1.2419   -1.5668    0.6279 C   0  0  0  0  0  0  0  0  0  0  0  0
    1.5433    0.2867    2.0057 C   0  0  0  0  0  0  0  0  0  0  0  0
    2.9011    0.4936    2.0307 C   0  0  0  0  0  0  0  0  0  0  0  0
    3.6622    0.2275    0.9123 C   0  0  0  0  0  0  0  0  0  0  0  0
    5.0357    0.4276    0.9120 C   0  0  0  0  0  0  0  0  0  0  0  0
    9.7296    1.4493   -1.2777 H   0  0  0  0  0  0  0  0  0  0  0  0
   10.1358   -0.3084   -1.2674 H   0  0  0  0  0  0  0  0  0  0  0  0
    9.4971    0.4328    0.2405 H   0  0  0  0  0  0  0  0  0  0  0  0
    7.7257    0.8300   -2.1074 H   0  0  0  0  0  0  0  0  0  0  0  0
    7.9974   -0.9334   -1.6371 H   0  0  0  0  0  0  0  0  0  0  0  0
    5.7029   -0.5206   -2.1882 H   0  0  0  0  0  0  0  0  0  0  0  0
    3.2318   -0.8847   -2.2001 H   0  0  0  0  0  0  0  0  0  0  0  0
    1.1543   -0.8033   -1.1250 H   0  0  0  0  0  0  0  0  0  0  0  0
   -4.7105   -0.0939    1.9818 H   0  0  0  0  0  0  0  0  0  0  0  0
   -3.8524    1.3954    2.4180 H   0  0  0  0  0  0  0  0  0  0  0  0
   -3.9886    2.1969    0.0913 H   0  0  0  0  0  0  0  0  0  0  0  0
   -5.4646   -0.4820   -0.2324 H   0  0  0  0  0  0  0  0  0  0  0  0
   -3.9388   -0.0582   -1.0516 H   0  0  0  0  0  0  0  0  0  0  0  0
   -6.6473    0.3262   -1.9735 H   0  0  0  0  0  0  0  0  0  0  0  0
   -5.1361    0.9035   -2.7020 H   0  0  0  0  0  0  0  0  0  0  0  0
   -5.3958    2.9563   -1.7930 H   0  0  0  0  0  0  0  0  0  0  0  0
   -7.7638    2.1779   -0.1734 H   0  0  0  0  0  0  0  0  0  0  0  0
   -6.7160    3.6288   -0.0889 H   0  0  0  0  0  0  0  0  0  0  0  0
   -6.4978    1.0696    1.3659 H   0  0  0  0  0  0  0  0  0  0  0  0
   -5.7802    2.6569    1.7174 H   0  0  0  0  0  0  0  0  0  0  0  0
   -3.8978   -4.1917    0.0638 H   0  0  0  0  0  0  0  0  0  0  0  0
    1.2119   -3.2567    0.7598 H   0  0  0  0  0  0  0  0  0  0  0  0
    0.8327   -3.3249   -0.9747 H   0  0  0  0  0  0  0  0  0  0  0  0
    0.9750    0.5014    2.8881 H   0  0  0  0  0  0  0  0  0  0  0  0
    3.4203    0.8690    2.9182 H   0  0  0  0  0  0  0  0  0  0  0  0
    5.5186    0.8001    1.8082 H   0  0  0  0  0  0  0  0  0  0  0  0
  1  2  1  0
  2  3  1  0
  3  4  1  0
  4  5  2  0
  5  6  1  0
  6  7  2  0
  7  8  1  0
  8  9  2  0
  9 10  1  0
 10 11  2  0
 11 12  1  0
 12 13  1  0
 13 14  1  0
 14 15  1  0
 15 16  1  0
 16 17  1  0
 17 18  1  0
 18 19  1  0
 12 20  1  0
 20 21  2  0
 21 22  1  0
 22 23  2  0
 23 24  1  0
 24 25  1  0
 24 26  2  0
  9 27  1  0
 27 28  2  0
 28 29  1  0
 29 30  2  0
 30  4  1  0
 29  7  1  0
 26 10  1  0
 19 14  1  0
 26 20  1  0
  1 31  1  0
  1 32  1  0
  1 33  1  0
  2 34  1  0
  2 35  1  0
  5 36  1  0
  6 37  1  0
  8 38  1  0
 13 39  1  0
 13 40  1  0
 14 41  1  0
 15 42  1  0
 15 43  1  0
 16 44  1  0
 16 45  1  0
 17 46  1  0
 18 47  1  0
 18 48  1  0
 19 49  1  0
 19 50  1  0
 22 51  1  0
 25 52  1  0
 25 53  1  0
 27 54  1  0
 28 55  1  0
 30 56  1  0
M  END
$$$$
