
     RDKit          3D

 63 66  0  0  0  0  0  0  0  0999 V2000
    1.1575    3.1440    2.1920 C   0  0  0  0  0  0  0  0  0  0  0  0
    1.2358    2.5758    0.7742 C   0  0  1  0  0  0  0  0  0  0  0  0
    2.3765    1.6713    0.6157 C   0  0  0  0  0  0  0  0  0  0  0  0
    3.3369    1.5619    1.5911 C   0  0  0  0  0  0  0  0  0  0  0  0
    4.4161    0.7101    1.4486 C   0  0  0  0  0  0  0  0  0  0  0  0
    4.5705   -0.0684    0.3120 C   0  0  0  0  0  0  0  0  0  0  0  0
    5.7255   -0.9696    0.1764 C   0  0  0  0  0  0  0  0  0  0  0  0
    6.1020   -1.7635    1.2340 C   0  0  0  0  0  0  0  0  0  0  0  0
    7.1974   -2.6288    1.1294 C   0  0  0  0  0  0  0  0  0  0  0  0
    7.9087   -2.6924   -0.0363 C   0  0  0  0  0  0  0  0  0  0  0  0
    8.9564   -3.5279   -0.1188 F   0  0  0  0  0  0  0  0  0  0  0  0
    7.5451   -1.9022   -1.1096 C   0  0  0  0  0  0  0  0  0  0  0  0
    6.4539   -1.0486   -0.9870 C   0  0  0  0  0  0  0  0  0  0  0  0
    6.0871   -0.2758   -2.0161 F   0  0  0  0  0  0  0  0  0  0  0  0
    3.6147    0.0355   -0.6673 C   0  0  0  0  0  0  0  0  0  0  0  0
    2.5477    0.8901   -0.5049 C   0  0  0  0  0  0  0  0  0  0  0  0
   -0.0226    1.9696    0.3965 N   0  0  0  0  0  0  0  0  0  0  0  0
   -0.4672    0.8059    1.1059 C   0  0  0  0  0  0  0  0  0  0  0  0
   -1.9325    0.5126    1.0254 C   0  0  0  0  0  0  0  0  0  0  0  0
   -2.6567    0.9611   -0.1846 C   0  0  2  0  0  0  0  0  0  0  0  0
   -4.0981    1.2400    0.1614 C   0  0  0  0  0  0  0  0  0  0  0  0
   -4.9047    0.1438    0.7170 C   0  0  0  0  0  0  0  0  0  0  0  0
   -5.1050   -1.0176   -0.0753 N   0  0  0  0  0  0  0  0  0  0  0  0
   -6.0912   -2.1932    0.7495 S   0  0  0  0  0  6  0  0  0  0  0  0
   -7.6517   -1.5811    1.0926 N   0  0  0  0  0  0  0  0  0  0  0  0
   -6.2561   -3.3542   -0.2045 O   0  0  0  0  0  0  0  0  0  0  0  0
   -5.4252   -2.6670    2.0008 O   0  0  0  0  0  0  0  0  0  0  0  0
   -2.5622    0.1558   -1.3871 C   0  0  0  0  0  0  0  0  0  0  0  0
   -3.2462    0.5823   -2.5088 C   0  0  0  0  0  0  0  0  0  0  0  0
   -3.2034   -0.1018   -3.7116 C   0  0  0  0  0  0  0  0  0  0  0  0
   -2.4627   -1.2381   -3.8045 C   0  0  0  0  0  0  0  0  0  0  0  0
   -2.4215   -1.9058   -4.9812 F   0  0  0  0  0  0  0  0  0  0  0  0
   -1.7711   -1.6801   -2.6924 C   0  0  0  0  0  0  0  0  0  0  0  0
   -1.8130   -1.0030   -1.4996 C   0  0  0  0  0  0  0  0  0  0  0  0
   -2.1836    2.2756   -0.5865 O   0  0  0  0  0  0  0  0  0  0  0  0
   -0.8275    2.4829   -0.6470 C   0  0  0  0  0  0  0  0  0  0  0  0
   -0.2701    3.1175   -1.6019 O   0  0  0  0  0  0  0  0  0  0  0  0
    0.1798    3.6956    2.2248 H   0  0  0  0  0  0  0  0  0  0  0  0
    1.1783    2.3636    2.9550 H   0  0  0  0  0  0  0  0  0  0  0  0
    1.9908    3.8696    2.2772 H   0  0  0  0  0  0  0  0  0  0  0  0
    1.4327    3.4746    0.1180 H   0  0  0  0  0  0  0  0  0  0  0  0
    3.2956    2.1379    2.5203 H   0  0  0  0  0  0  0  0  0  0  0  0
    5.1916    0.6066    2.2105 H   0  0  0  0  0  0  0  0  0  0  0  0
    5.5498   -1.7191    2.1499 H   0  0  0  0  0  0  0  0  0  0  0  0
    7.4955   -3.2530    1.9575 H   0  0  0  0  0  0  0  0  0  0  0  0
    8.1221   -1.9649   -2.0305 H   0  0  0  0  0  0  0  0  0  0  0  0
    3.7029   -0.5530   -1.5605 H   0  0  0  0  0  0  0  0  0  0  0  0
    1.7729    0.9857   -1.2794 H   0  0  0  0  0  0  0  0  0  0  0  0
    0.1111   -0.1047    0.8117 H   0  0  0  0  0  0  0  0  0  0  0  0
   -0.2261    0.9968    2.2025 H   0  0  0  0  0  0  0  0  0  0  0  0
   -2.0566   -0.5611    1.2651 H   0  0  0  0  0  0  0  0  0  0  0  0
   -2.4085    1.0303    1.9149 H   0  0  0  0  0  0  0  0  0  0  0  0
   -4.1178    2.0899    0.9126 H   0  0  0  0  0  0  0  0  0  0  0  0
   -4.6410    1.6249   -0.7532 H   0  0  0  0  0  0  0  0  0  0  0  0
   -4.4396   -0.2010    1.6829 H   0  0  0  0  0  0  0  0  0  0  0  0
   -5.9100    0.5814    0.9778 H   0  0  0  0  0  0  0  0  0  0  0  0
   -4.2541   -1.5284   -0.3467 H   0  0  0  0  0  0  0  0  0  0  0  0
   -7.9812   -1.8438    2.0551 H   0  0  0  0  0  0  0  0  0  0  0  0
   -7.7724   -0.5758    0.8844 H   0  0  0  0  0  0  0  0  0  0  0  0
   -3.8622    1.4885   -2.5415 H   0  0  0  0  0  0  0  0  0  0  0  0
   -3.7447    0.2382   -4.5927 H   0  0  0  0  0  0  0  0  0  0  0  0
   -1.1795   -2.5968   -2.7852 H   0  0  0  0  0  0  0  0  0  0  0  0
   -1.2890   -1.3328   -0.6277 H   0  0  0  0  0  0  0  0  0  0  0  0
  1  2  1  0
  2  3  1  0
  3  4  2  0
  4  5  1  0
  5  6  2  0
  6  7  1  0
  7  8  2  0
  8  9  1  0
  9 10  2  0
 10 11  1  0
 10 12  1  0
 12 13  2  0
 13 14  1  0
  6 15  1  0
 15 16  2  0
  2 17  1  0
 17 18  1  0
 18 19  1  0
 19 20  1  0
 20 21  1  1
 21 22  1  0
 22 23  1  0
 23 24  1  0
 24 25  1  0
 24 26  2  0
 24 27  2  0
 20 28  1  0
 28 29  2  0
 29 30  1  0
 30 31  2  0
 31 32  1  0
 31 33  1  0
 33 34  2  0
 20 35  1  0
 35 36  1  0
 36 37  2  0
 16  3  1  0
 36 17  1  0
 13  7  1  0
 34 28  1  0
  1 38  1  0
  1 39  1  0
  1 40  1  0
  2 41  1  6
  4 42  1  0
  5 43  1  0
  8 44  1  0
  9 45  1  0
 12 46  1  0
 15 47  1  0
 16 48  1  0
 18 49  1  0
 18 50  1  0
 19 51  1  0
 19 52  1  0
 21 53  1  0
 21 54  1  0
 22 55  1  0
 22 56  1  0
 23 57  1  0
 25 58  1  0
 25 59  1  0
 29 60  1  0
 30 61  1  0
 33 62  1  0
 34 63  1  0
M  END
$$$$
