
     RDKit          3D

 76 80  0  0  0  0  0  0  0  0999 V2000
   -2.2604    4.5237    1.1442 N   0  0  0  0  0  0  0  0  0  0  0  0
   -1.3124    3.7059    0.6993 C   0  0  0  0  0  0  0  0  0  0  0  0
   -0.3158    2.8166    0.2298 C   0  0  0  0  0  0  0  0  0  0  0  0
    0.9551    3.3751   -0.2176 C   0  0  0  0  0  0  0  0  0  0  0  0
    1.9596    3.8092   -0.5505 N   0  0  0  0  0  0  0  0  0  0  0  0
   -0.5885    1.5258    0.1860 C   0  0  0  0  0  0  0  0  0  0  0  0
   -1.9009    0.9098    0.5626 C   0  0  0  0  0  0  0  0  0  0  0  0
   -2.8847    1.6648    0.7197 O   0  0  0  0  0  0  0  0  0  0  0  0
   -1.7325   -0.4708    0.6610 N   0  0  0  0  0  0  0  0  0  0  0  0
   -2.7490   -1.4313    1.1224 C   0  0  0  0  0  0  0  0  0  0  0  0
   -4.1238   -0.8736    1.0557 C   0  0  0  0  0  0  0  0  0  0  0  0
   -5.0400   -1.1840    0.0275 C   0  0  0  0  0  0  0  0  0  0  0  0
   -6.2709   -0.6040   -0.0724 C   0  0  0  0  0  0  0  0  0  0  0  0
   -6.6793    0.3698    0.9095 C   0  0  0  0  0  0  0  0  0  0  0  0
   -7.8900    0.9522    0.8165 O   0  0  0  0  0  0  0  0  0  0  0  0
   -8.9443    0.8292   -0.0298 C   0  0  0  0  0  0  0  0  0  0  0  0
   -9.7743   -0.4167   -0.0217 C   0  0  0  0  0  0  0  0  0  0  0  0
  -10.4334   -0.6295    1.1574 O   0  0  0  0  0  0  0  0  0  0  0  0
   -9.7494   -0.7880    2.3023 C   0  0  0  0  0  0  0  0  0  0  0  0
   -8.8873   -1.9986    2.4064 C   0  0  0  0  0  0  0  0  0  0  0  0
   -9.6123   -3.1763    2.2940 F   0  0  0  0  0  0  0  0  0  0  0  0
   -5.7941    0.6605    1.8984 C   0  0  0  0  0  0  0  0  0  0  0  0
   -4.5492    0.0341    1.9428 C   0  0  0  0  0  0  0  0  0  0  0  0
   -0.3498   -0.7956    0.3562 C   0  0  0  0  0  0  0  0  0  0  0  0
    0.3269   -1.9817    0.4207 C   0  0  0  0  0  0  0  0  0  0  0  0
    1.7229   -2.0201    0.2137 C   0  0  0  0  0  0  0  0  0  0  0  0
    2.3925   -0.8468   -0.0519 C   0  0  0  0  0  0  0  0  0  0  0  0
    4.1174   -0.8766   -0.2028 S   0  0  0  0  0  6  0  0  0  0  0  0
    4.4212   -2.3101   -0.7640 O   0  0  0  0  0  0  0  0  0  0  0  0
    4.7755   -0.8855    1.1590 O   0  0  0  0  0  0  0  0  0  0  0  0
    4.8385    0.1707   -1.2568 N   0  0  0  0  0  0  0  0  0  0  0  0
    4.8241    1.5381   -1.2376 C   0  0  0  0  0  0  0  0  0  0  0  0
    4.8087    1.9804   -2.7235 C   0  0  0  0  0  0  0  0  0  0  0  0
    4.4787    0.6749   -3.4691 C   0  0  0  0  0  0  0  0  0  0  0  0
    5.2355   -0.3615   -2.5231 C   0  0  1  0  0  0  0  0  0  0  0  0
    6.7102   -0.0213   -2.7544 C   0  0  0  0  0  0  0  0  0  0  0  0
    7.4252   -0.1474   -1.7479 O   0  0  0  0  0  0  0  0  0  0  0  0
    8.1572   -0.2951   -0.7097 C   0  0  0  0  0  0  0  0  0  0  0  0
    8.3720   -1.5064    0.0644 C   0  0  0  0  0  0  0  0  0  0  0  0
    9.1966   -1.4486    1.1337 C   0  0  0  0  0  0  0  0  0  0  0  0
    9.8611   -0.3722    1.5860 C   0  0  0  0  0  0  0  0  0  0  0  0
    9.6738    0.8617    0.8418 C   0  0  0  0  0  0  0  0  0  0  0  0
    8.8677    0.7562   -0.1866 C   0  0  0  0  0  0  0  0  0  0  0  0
    1.7033    0.3236   -0.1238 C   0  0  0  0  0  0  0  0  0  0  0  0
    0.3222    0.4062    0.0761 C   0  0  0  0  0  0  0  0  0  0  0  0
   -2.6622   -2.2815    0.3646 H   0  0  0  0  0  0  0  0  0  0  0  0
   -2.4919   -1.8831    2.0880 H   0  0  0  0  0  0  0  0  0  0  0  0
   -4.6669   -1.9515   -0.6552 H   0  0  0  0  0  0  0  0  0  0  0  0
   -6.9342   -0.8759   -0.8744 H   0  0  0  0  0  0  0  0  0  0  0  0
   -8.5532    0.9283   -1.0874 H   0  0  0  0  0  0  0  0  0  0  0  0
   -9.6171    1.7222    0.0953 H   0  0  0  0  0  0  0  0  0  0  0  0
   -9.1830   -1.2632   -0.3700 H   0  0  0  0  0  0  0  0  0  0  0  0
  -10.5543   -0.2792   -0.8360 H   0  0  0  0  0  0  0  0  0  0  0  0
   -9.1793    0.1535    2.6001 H   0  0  0  0  0  0  0  0  0  0  0  0
  -10.5072   -0.8486    3.1390 H   0  0  0  0  0  0  0  0  0  0  0  0
   -8.0406   -2.0389    1.6802 H   0  0  0  0  0  0  0  0  0  0  0  0
   -8.3760   -2.0719    3.3944 H   0  0  0  0  0  0  0  0  0  0  0  0
   -5.9972    1.3787    2.6948 H   0  0  0  0  0  0  0  0  0  0  0  0
   -3.8886    0.3020    2.7883 H   0  0  0  0  0  0  0  0  0  0  0  0
   -0.2057   -2.8925    0.6252 H   0  0  0  0  0  0  0  0  0  0  0  0
    2.1892   -2.9770    0.2710 H   0  0  0  0  0  0  0  0  0  0  0  0
    4.1047    2.0918   -0.6373 H   0  0  0  0  0  0  0  0  0  0  0  0
    5.8646    1.9001   -0.8688 H   0  0  0  0  0  0  0  0  0  0  0  0
    5.7101    2.4744   -3.0495 H   0  0  0  0  0  0  0  0  0  0  0  0
    3.9017    2.6042   -2.8309 H   0  0  0  0  0  0  0  0  0  0  0  0
    3.4256    0.4210   -3.3718 H   0  0  0  0  0  0  0  0  0  0  0  0
    4.8806    0.6260   -4.4627 H   0  0  0  0  0  0  0  0  0  0  0  0
    4.9547   -1.3698   -2.7518 H   0  0  0  0  0  0  0  0  0  0  0  0
    6.7800    0.8901   -3.4361 H   0  0  0  0  0  0  0  0  0  0  0  0
    6.9597   -0.8487   -3.6146 H   0  0  0  0  0  0  0  0  0  0  0  0
    7.8516   -2.3810   -0.2814 H   0  0  0  0  0  0  0  0  0  0  0  0
    9.3505   -2.3814    1.7283 H   0  0  0  0  0  0  0  0  0  0  0  0
   10.5200   -0.2917    2.4172 H   0  0  0  0  0  0  0  0  0  0  0  0
   10.1966    1.7205    1.1927 H   0  0  0  0  0  0  0  0  0  0  0  0
    8.7055    1.7251   -0.7932 H   0  0  0  0  0  0  0  0  0  0  0  0
    2.1583    1.2514   -0.3415 H   0  0  0  0  0  0  0  0  0  0  0  0
  1  2  3  0
  2  3  1  0
  3  4  1  0
  4  5  3  0
  3  6  2  3
  6  7  1  0
  7  8  2  0
  7  9  1  0
  9 10  1  0
 10 11  1  0
 11 12  2  0
 12 13  1  0
 13 14  2  0
 14 15  1  0
 15 16  1  0
 16 17  1  0
 17 18  1  0
 18 19  1  0
 19 20  1  0
 20 21  1  0
 14 22  1  0
 22 23  2  0
  9 24  1  0
 24 25  2  0
 25 26  1  0
 26 27  2  0
 27 28  1  0
 28 29  2  0
 28 30  2  0
 28 31  1  0
 31 32  1  0
 32 33  1  0
 33 34  1  0
 34 35  1  0
 35 36  1  0
 36 37  1  0
 37 38  1  0
 38 39  2  0
 39 40  1  0
 40 41  2  0
 41 42  1  0
 42 43  2  0
 27 44  1  0
 44 45  2  0
 45  6  1  0
 23 11  1  0
 45 24  1  0
 35 31  1  0
 43 38  1  0
 10 46  1  0
 10 47  1  0
 12 48  1  0
 13 49  1  0
 16 50  1  0
 16 51  1  0
 17 52  1  0
 17 53  1  0
 19 54  1  0
 19 55  1  0
 20 56  1  0
 20 57  1  0
 22 58  1  0
 23 59  1  0
 25 60  1  0
 26 61  1  0
 32 62  1  0
 32 63  1  0
 33 64  1  0
 33 65  1  0
 34 66  1  0
 34 67  1  0
 35 68  1  6
 36 69  1  0
 36 70  1  0
 39 71  1  0
 40 72  1  0
 41 73  1  0
 42 74  1  0
 43 75  1  0
 44 76  1  0
M  END
$$$$
