
     RDKit          3D

 52 55  0  0  0  0  0  0  0  0999 V2000
   -5.5195   -0.3232   -0.4328 C   0  0  0  0  0  0  0  0  0  0  0  0
   -4.7194    0.0567    0.7983 C   0  0  0  0  0  0  0  0  0  0  0  0
   -5.6757    0.2605    1.9300 C   0  0  0  0  0  0  0  0  0  0  0  0
   -3.6232   -0.8778    1.0967 C   0  0  0  0  0  0  0  0  0  0  0  0
   -3.7428   -1.7421    2.2188 N   0  0  0  0  0  0  0  0  0  0  0  0
   -2.5984   -0.9160    0.3768 N   0  0  0  0  0  0  0  0  0  0  0  0
   -2.2506   -0.1860   -0.7591 C   0  0  2  0  0  0  0  0  0  0  0  0
   -2.5896   -1.0589   -1.9949 C   0  0  0  0  0  0  0  0  0  0  0  0
   -0.7606    0.0163   -0.8532 C   0  0  0  0  0  0  0  0  0  0  0  0
    0.1407   -0.4041    0.0610 C   0  0  0  0  0  0  0  0  0  0  0  0
    1.5081   -0.1414   -0.0754 C   0  0  0  0  0  0  0  0  0  0  0  0
    2.4339   -0.5825    0.9024 N   0  0  0  0  0  0  0  0  0  0  0  0
    3.6637    0.0341    1.1950 C   0  0  0  0  0  0  0  0  0  0  0  0
    3.6649    1.1222    1.9951 N   0  0  0  0  0  0  0  0  0  0  0  0
    4.7633    1.7715    2.3583 C   0  0  0  0  0  0  0  0  0  0  0  0
    5.9994    1.3547    1.9232 C   0  0  0  0  0  0  0  0  0  0  0  0
    7.4723    2.1957    2.3944 Cl  0  0  0  0  0  0  0  0  0  0  0  0
    6.0630    0.2495    1.1043 C   0  0  0  0  0  0  0  0  0  0  0  0
    7.3028   -0.1650    0.6737 C   0  0  0  0  0  0  0  0  0  0  0  0
    7.4071   -1.2613   -0.1417 C   0  0  0  0  0  0  0  0  0  0  0  0
    8.9734   -1.7787   -0.6849 Cl  0  0  0  0  0  0  0  0  0  0  0  0
    6.2127   -1.8994   -0.4886 C   0  0  0  0  0  0  0  0  0  0  0  0
    5.0079   -1.4773   -0.0556 N   0  0  0  0  0  0  0  0  0  0  0  0
    4.8762   -0.4084    0.7432 C   0  0  0  0  0  0  0  0  0  0  0  0
    1.9136    0.5655   -1.1836 C   0  0  0  0  0  0  0  0  0  0  0  0
    1.0039    1.0114   -2.1454 C   0  0  0  0  0  0  0  0  0  0  0  0
   -0.3367    0.7323   -1.9735 C   0  0  0  0  0  0  0  0  0  0  0  0
   -1.2047    1.1691   -2.9267 F   0  0  0  0  0  0  0  0  0  0  0  0
   -2.8263    1.1876   -0.9608 C   0  0  0  0  0  0  0  0  0  0  0  0
   -3.8892    1.6156    0.3865 S   0  0  0  0  0  6  0  0  0  0  0  0
   -3.1005    2.0856    1.5578 O   0  0  0  0  0  0  0  0  0  0  0  0
   -4.9188    2.6196   -0.0445 O   0  0  0  0  0  0  0  0  0  0  0  0
   -6.6115   -0.0503   -0.3265 H   0  0  0  0  0  0  0  0  0  0  0  0
   -5.5024   -1.4040   -0.6522 H   0  0  0  0  0  0  0  0  0  0  0  0
   -5.1972    0.2797   -1.3326 H   0  0  0  0  0  0  0  0  0  0  0  0
   -6.0743   -0.7430    2.2196 H   0  0  0  0  0  0  0  0  0  0  0  0
   -5.2404    0.8003    2.7855 H   0  0  0  0  0  0  0  0  0  0  0  0
   -6.5654    0.8567    1.6065 H   0  0  0  0  0  0  0  0  0  0  0  0
   -3.6676   -2.7729    2.1789 H   0  0  0  0  0  0  0  0  0  0  0  0
   -3.9192   -1.2910    3.1423 H   0  0  0  0  0  0  0  0  0  0  0  0
   -3.1187   -0.4562   -2.7651 H   0  0  0  0  0  0  0  0  0  0  0  0
   -1.6758   -1.4371   -2.4883 H   0  0  0  0  0  0  0  0  0  0  0  0
   -3.1653   -1.9604   -1.6849 H   0  0  0  0  0  0  0  0  0  0  0  0
   -0.2046   -0.9532    0.9119 H   0  0  0  0  0  0  0  0  0  0  0  0
    2.1779   -1.4425    1.4475 H   0  0  0  0  0  0  0  0  0  0  0  0
    4.7353    2.6400    2.9986 H   0  0  0  0  0  0  0  0  0  0  0  0
    8.1984    0.3627    0.9691 H   0  0  0  0  0  0  0  0  0  0  0  0
    6.3112   -2.7599   -1.1288 H   0  0  0  0  0  0  0  0  0  0  0  0
    2.9759    0.7736   -1.2994 H   0  0  0  0  0  0  0  0  0  0  0  0
    1.3625    1.5604   -2.9939 H   0  0  0  0  0  0  0  0  0  0  0  0
   -2.0431    1.9852   -0.9941 H   0  0  0  0  0  0  0  0  0  0  0  0
   -3.4266    1.1863   -1.9006 H   0  0  0  0  0  0  0  0  0  0  0  0
  1  2  1  0
  2  3  1  0
  2  4  1  0
  4  5  1  0
  4  6  2  0
  6  7  1  0
  7  8  1  6
  7  9  1  0
  9 10  2  0
 10 11  1  0
 11 12  1  0
 12 13  1  0
 13 14  2  0
 14 15  1  0
 15 16  2  0
 16 17  1  0
 16 18  1  0
 18 19  2  0
 19 20  1  0
 20 21  1  0
 20 22  2  0
 22 23  1  0
 23 24  2  0
 11 25  2  0
 25 26  1  0
 26 27  2  0
 27 28  1  0
  7 29  1  0
 29 30  1  0
 30 31  2  0
 30 32  2  0
 30  2  1  0
 27  9  1  0
 24 13  1  0
 24 18  1  0
  1 33  1  0
  1 34  1  0
  1 35  1  0
  3 36  1  0
  3 37  1  0
  3 38  1  0
  5 39  1  0
  5 40  1  0
  8 41  1  0
  8 42  1  0
  8 43  1  0
 10 44  1  0
 12 45  1  0
 15 46  1  0
 19 47  1  0
 22 48  1  0
 25 49  1  0
 26 50  1  0
 29 51  1  0
 29 52  1  0
M  END
$$$$
