
     RDKit          3D

 46 48  0  0  0  0  0  0  0  0999 V2000
   -4.6437   -1.5254    2.8944 C   0  0  0  0  0  0  0  0  0  0  0  0
   -4.5327   -1.2573    1.5068 O   0  0  0  0  0  0  0  0  0  0  0  0
   -3.5438   -0.4123    1.0276 C   0  0  0  0  0  0  0  0  0  0  0  0
   -2.6645    0.1694    1.9051 C   0  0  0  0  0  0  0  0  0  0  0  0
   -1.6704    1.0191    1.4183 C   0  0  0  0  0  0  0  0  0  0  0  0
   -1.5589    1.2805    0.0795 C   0  0  0  0  0  0  0  0  0  0  0  0
   -0.4965    2.1735   -0.5105 C   0  0  0  0  0  0  0  0  0  0  0  0
    0.4728    1.3854   -1.3042 C   0  0  0  0  0  0  0  0  0  0  0  0
    0.3237    1.2607   -2.6460 N   0  0  0  0  0  0  0  0  0  0  0  0
    1.1060    0.5402   -3.4376 C   0  0  0  0  0  0  0  0  0  0  0  0
    2.1582   -0.1417   -2.8709 C   0  0  0  0  0  0  0  0  0  0  0  0
    2.3583   -0.0497   -1.5089 C   0  0  0  0  0  0  0  0  0  0  0  0
    3.4114   -0.7136   -0.9273 C   0  0  0  0  0  0  0  0  0  0  0  0
    3.6514   -0.6356    0.4239 C   0  0  0  0  0  0  0  0  0  0  0  0
    4.7072   -1.2953    1.0423 O   0  0  0  0  0  0  0  0  0  0  0  0
    5.5588   -2.0754    0.2276 C   0  0  0  0  0  0  0  0  0  0  0  0
    2.8237    0.1282    1.2498 C   0  0  0  0  0  0  0  0  0  0  0  0
    3.0806    0.1961    2.6108 O   0  0  0  0  0  0  0  0  0  0  0  0
    2.2581    0.9591    3.4635 C   0  0  0  0  0  0  0  0  0  0  0  0
    1.7739    0.7852    0.6458 C   0  0  0  0  0  0  0  0  0  0  0  0
    1.5077    0.7213   -0.7208 C   0  0  0  0  0  0  0  0  0  0  0  0
   -2.4702    0.6706   -0.7726 C   0  0  0  0  0  0  0  0  0  0  0  0
   -3.4586   -0.1690   -0.3274 C   0  0  0  0  0  0  0  0  0  0  0  0
   -4.3665   -0.7717   -1.2124 O   0  0  0  0  0  0  0  0  0  0  0  0
   -4.2170   -0.4716   -2.6029 C   0  0  0  0  0  0  0  0  0  0  0  0
   -3.8246   -2.2162    3.2053 H   0  0  0  0  0  0  0  0  0  0  0  0
   -4.6056   -0.6084    3.5024 H   0  0  0  0  0  0  0  0  0  0  0  0
   -5.6226   -2.0197    3.0643 H   0  0  0  0  0  0  0  0  0  0  0  0
   -2.7269   -0.0158    2.9559 H   0  0  0  0  0  0  0  0  0  0  0  0
   -0.9939    1.4770    2.1345 H   0  0  0  0  0  0  0  0  0  0  0  0
   -0.0636    2.7306    0.3267 H   0  0  0  0  0  0  0  0  0  0  0  0
   -1.0569    2.8373   -1.2233 H   0  0  0  0  0  0  0  0  0  0  0  0
    0.9256    0.4838   -4.5198 H   0  0  0  0  0  0  0  0  0  0  0  0
    2.7876   -0.7237   -3.5181 H   0  0  0  0  0  0  0  0  0  0  0  0
    4.0771   -1.3192   -1.5482 H   0  0  0  0  0  0  0  0  0  0  0  0
    6.0776   -1.4892   -0.5526 H   0  0  0  0  0  0  0  0  0  0  0  0
    4.9587   -2.8481   -0.3259 H   0  0  0  0  0  0  0  0  0  0  0  0
    6.2647   -2.6397    0.8801 H   0  0  0  0  0  0  0  0  0  0  0  0
    1.1787    0.9029    3.2264 H   0  0  0  0  0  0  0  0  0  0  0  0
    2.5414    2.0341    3.4955 H   0  0  0  0  0  0  0  0  0  0  0  0
    2.3648    0.6206    4.5357 H   0  0  0  0  0  0  0  0  0  0  0  0
    1.1443    1.3906    1.2658 H   0  0  0  0  0  0  0  0  0  0  0  0
   -2.3752    0.8833   -1.8274 H   0  0  0  0  0  0  0  0  0  0  0  0
   -4.5994    0.5424   -2.8380 H   0  0  0  0  0  0  0  0  0  0  0  0
   -4.8383   -1.1799   -3.2172 H   0  0  0  0  0  0  0  0  0  0  0  0
   -3.1822   -0.6133   -2.9446 H   0  0  0  0  0  0  0  0  0  0  0  0
  1  2  1  0
  2  3  1  0
  3  4  2  0
  4  5  1  0
  5  6  2  0
  6  7  1  0
  7  8  1  0
  8  9  2  0
  9 10  1  0
 10 11  2  0
 11 12  1  0
 12 13  2  0
 13 14  1  0
 14 15  1  0
 15 16  1  0
 14 17  2  0
 17 18  1  0
 18 19  1  0
 17 20  1  0
 20 21  2  0
  6 22  1  0
 22 23  2  0
 23 24  1  0
 24 25  1  0
 23  3  1  0
 21  8  1  0
 21 12  1  0
  1 26  1  0
  1 27  1  0
  1 28  1  0
  4 29  1  0
  5 30  1  0
  7 31  1  0
  7 32  1  0
 10 33  1  0
 11 34  1  0
 13 35  1  0
 16 36  1  0
 16 37  1  0
 16 38  1  0
 19 39  1  0
 19 40  1  0
 19 41  1  0
 20 42  1  0
 22 43  1  0
 25 44  1  0
 25 45  1  0
 25 46  1  0
M  END
$$$$
