
     RDKit          3D

 33 33  0  0  0  0  0  0  0  0999 V2000
    4.1082    1.3633   -0.6060 N   0  0  0  0  0  0  0  0  0  0  0  0
    4.5454    0.0301   -0.9892 C   0  0  0  0  0  0  0  0  0  0  0  0
    3.4424   -0.9367   -0.7718 C   0  0  0  0  0  0  0  0  0  0  0  0
    3.4740   -2.1785   -0.9978 O   0  0  0  0  0  0  0  0  0  0  0  0
    2.1836   -0.5113   -0.2592 N   0  0  0  0  0  0  0  0  0  0  0  0
    1.0219   -1.3429    0.0020 C   0  0  0  0  0  0  0  0  0  0  0  0
   -0.0474   -0.9231   -0.7741 O   0  0  0  0  0  0  0  0  0  0  0  0
   -1.1398   -0.7757    0.0552 C   0  0  2  0  0  0  0  0  0  0  0  0
   -2.1254    0.2150   -0.5193 C   0  0  0  0  0  0  0  0  0  0  0  0
   -3.2166    0.3358    0.3502 O   0  0  0  0  0  0  0  0  0  0  0  0
   -4.2824    1.4521   -0.3409 P   0  0  0  0  0  0  0  0  0  0  0  0
   -3.3347    2.8103   -0.7644 O   0  0  0  0  0  0  0  0  0  0  0  0
   -4.9546    0.8818   -1.7639 O   0  0  0  0  0  0  0  0  0  0  0  0
   -5.3586    1.8724    0.6281 O   0  0  0  0  0  0  0  0  0  0  0  0
   -0.5118   -0.1693    1.3157 C   0  0  1  0  0  0  0  0  0  0  0  0
   -1.3742   -0.1984    2.3816 O   0  0  0  0  0  0  0  0  0  0  0  0
    0.6651   -1.1274    1.4531 C   0  0  1  0  0  0  0  0  0  0  0  0
    0.2110   -2.3524    1.9594 O   0  0  0  0  0  0  0  0  0  0  0  0
    3.8833    1.4306    0.3922 H   0  0  0  0  0  0  0  0  0  0  0  0
    3.3736    1.7402   -1.2435 H   0  0  0  0  0  0  0  0  0  0  0  0
    5.3713   -0.2381   -0.2837 H   0  0  0  0  0  0  0  0  0  0  0  0
    4.9563    0.0297   -2.0003 H   0  0  0  0  0  0  0  0  0  0  0  0
    2.0058    0.4895   -0.0239 H   0  0  0  0  0  0  0  0  0  0  0  0
    1.2114   -2.4003   -0.2470 H   0  0  0  0  0  0  0  0  0  0  0  0
   -1.5632   -1.7512    0.3013 H   0  0  0  0  0  0  0  0  0  0  0  0
   -2.4222   -0.0801   -1.5271 H   0  0  0  0  0  0  0  0  0  0  0  0
   -1.6044    1.1993   -0.5543 H   0  0  0  0  0  0  0  0  0  0  0  0
   -3.8639    3.6260   -0.8154 H   0  0  0  0  0  0  0  0  0  0  0  0
   -5.1198   -0.0733   -1.8086 H   0  0  0  0  0  0  0  0  0  0  0  0
   -0.1206    0.8330    1.0473 H   0  0  0  0  0  0  0  0  0  0  0  0
   -1.1707    0.5299    3.0049 H   0  0  0  0  0  0  0  0  0  0  0  0
    1.4722   -0.6973    2.0517 H   0  0  0  0  0  0  0  0  0  0  0  0
    0.2849   -3.0829    1.3185 H   0  0  0  0  0  0  0  0  0  0  0  0
  1  2  1  0
  2  3  1  0
  3  4  2  0
  3  5  1  0
  5  6  1  0
  6  7  1  0
  7  8  1  0
  8  9  1  0
  9 10  1  0
 10 11  1  0
 11 12  1  0
 11 13  1  0
 11 14  2  0
  8 15  1  0
 15 16  1  0
 15 17  1  0
 17 18  1  0
 17  6  1  0
  1 19  1  0
  1 20  1  0
  2 21  1  0
  2 22  1  0
  5 23  1  0
  6 24  1  0
  8 25  1  1
  9 26  1  0
  9 27  1  0
 12 28  1  0
 13 29  1  0
 15 30  1  6
 16 31  1  0
 17 32  1  1
 18 33  1  0
M  END
$$$$
