
     RDKit          3D

 63 69  0  0  0  0  0  0  0  0999 V2000
   -2.1776    2.9427    4.0731 C   0  0  0  0  0  0  0  0  0  0  0  0
   -2.2155    1.4500    4.1774 C   0  0  0  0  0  0  0  0  0  0  0  0
   -1.5451    0.7906    3.0782 N   0  0  0  0  0  0  0  0  0  0  0  0
   -2.1262    0.4221    1.9259 C   0  0  0  0  0  0  0  0  0  0  0  0
   -1.1310   -0.1727    1.1546 C   0  0  0  0  0  0  0  0  0  0  0  0
   -1.4272   -0.7098   -0.2185 C   0  0  1  0  0  0  0  0  0  0  0  0
   -2.4672   -1.7704    0.0658 C   0  0  0  0  0  0  0  0  0  0  0  0
   -3.7028   -1.6151    0.5268 N   0  0  0  0  0  0  0  0  0  0  0  0
   -4.2137   -2.8551    0.6041 N   0  0  0  0  0  0  0  0  0  0  0  0
   -5.5319   -3.2400    1.0482 C   0  0  0  0  0  0  0  0  0  0  0  0
   -3.2841   -3.7437    0.1903 C   0  0  0  0  0  0  0  0  0  0  0  0
   -3.3946   -5.0051    0.1205 O   0  0  0  0  0  0  0  0  0  0  0  0
   -2.2398   -3.0395   -0.1267 O   0  0  0  0  0  0  0  0  0  0  0  0
   -1.9878    0.3659   -0.9555 N   0  0  0  0  0  0  0  0  0  0  0  0
   -1.2506    0.9564   -1.9987 C   0  0  1  0  0  0  0  0  0  0  0  0
   -0.0722    1.7460   -1.6356 C   0  0  0  0  0  0  0  0  0  0  0  0
    0.9490    1.5293   -0.8015 N   0  0  0  0  0  0  0  0  0  0  0  0
    1.8265    2.5417   -0.7759 C   0  0  0  0  0  0  0  0  0  0  0  0
    3.0705    2.6641    0.0124 C   0  0  0  0  0  0  0  0  0  0  0  0
    3.4868    1.6684    0.8674 C   0  0  0  0  0  0  0  0  0  0  0  0
    4.6381    1.7497    1.6173 C   0  0  0  0  0  0  0  0  0  0  0  0
    5.4010    2.8666    1.5085 C   0  0  0  0  0  0  0  0  0  0  0  0
    6.5310    2.9553    2.2396 F   0  0  0  0  0  0  0  0  0  0  0  0
    4.9844    3.8703    0.6486 C   0  0  0  0  0  0  0  0  0  0  0  0
    3.8445    3.7540   -0.0734 N   0  0  0  0  0  0  0  0  0  0  0  0
    1.3261    3.4729   -1.6600 C   0  0  0  0  0  0  0  0  0  0  0  0
    0.1848    2.9789   -2.1677 N   0  0  0  0  0  0  0  0  0  0  0  0
   -0.8076   -0.1499   -2.9664 C   0  0  0  0  0  0  0  0  0  0  0  0
    0.0249   -1.0765   -2.1575 C   0  0  0  0  0  0  0  0  0  0  0  0
   -0.2594   -1.3578   -0.8390 C   0  0  0  0  0  0  0  0  0  0  0  0
    0.6636   -2.2122   -0.4301 N   0  0  0  0  0  0  0  0  0  0  0  0
    1.5368   -2.4977   -1.4281 C   0  0  0  0  0  0  0  0  0  0  0  0
    2.6524   -3.2976   -1.5481 C   0  0  0  0  0  0  0  0  0  0  0  0
    3.3706   -3.3948   -2.7323 C   0  0  0  0  0  0  0  0  0  0  0  0
    2.9496   -2.6645   -3.8221 C   0  0  0  0  0  0  0  0  0  0  0  0
    1.8339   -1.8519   -3.7357 C   0  0  0  0  0  0  0  0  0  0  0  0
    1.1432   -1.7793   -2.5414 C   0  0  0  0  0  0  0  0  0  0  0  0
    0.0228   -0.1398    1.8779 C   0  0  0  0  0  0  0  0  0  0  0  0
   -0.2630    0.4467    3.0304 N   0  0  0  0  0  0  0  0  0  0  0  0
   -1.6612    3.4142    4.9431 H   0  0  0  0  0  0  0  0  0  0  0  0
   -3.2039    3.3991    4.0562 H   0  0  0  0  0  0  0  0  0  0  0  0
   -1.6576    3.3119    3.1701 H   0  0  0  0  0  0  0  0  0  0  0  0
   -3.3004    1.1510    4.2359 H   0  0  0  0  0  0  0  0  0  0  0  0
   -1.7827    1.1701    5.1648 H   0  0  0  0  0  0  0  0  0  0  0  0
   -3.1610    0.5586    1.6487 H   0  0  0  0  0  0  0  0  0  0  0  0
   -5.4217   -3.6344    2.0970 H   0  0  0  0  0  0  0  0  0  0  0  0
   -5.8565   -4.1015    0.4317 H   0  0  0  0  0  0  0  0  0  0  0  0
   -6.2543   -2.3984    0.9972 H   0  0  0  0  0  0  0  0  0  0  0  0
   -2.9241    0.0795   -1.3174 H   0  0  0  0  0  0  0  0  0  0  0  0
   -1.9689    1.5724   -2.6014 H   0  0  0  0  0  0  0  0  0  0  0  0
    2.8714    0.7834    0.9445 H   0  0  0  0  0  0  0  0  0  0  0  0
    4.8722    0.9056    2.2602 H   0  0  0  0  0  0  0  0  0  0  0  0
    5.6192    4.7404    0.5917 H   0  0  0  0  0  0  0  0  0  0  0  0
    1.8265    4.4120   -1.8539 H   0  0  0  0  0  0  0  0  0  0  0  0
   -0.4187    3.4751   -2.8726 H   0  0  0  0  0  0  0  0  0  0  0  0
   -1.6825   -0.6598   -3.4019 H   0  0  0  0  0  0  0  0  0  0  0  0
   -0.2276    0.2885   -3.8016 H   0  0  0  0  0  0  0  0  0  0  0  0
    0.7324   -2.6334    0.5318 H   0  0  0  0  0  0  0  0  0  0  0  0
    3.0066   -3.8815   -0.7122 H   0  0  0  0  0  0  0  0  0  0  0  0
    4.2481   -4.0158   -2.8476 H   0  0  0  0  0  0  0  0  0  0  0  0
    3.5008   -2.7250   -4.7681 H   0  0  0  0  0  0  0  0  0  0  0  0
    1.5322   -1.2932   -4.6106 H   0  0  0  0  0  0  0  0  0  0  0  0
    0.9686   -0.5170    1.5616 H   0  0  0  0  0  0  0  0  0  0  0  0
  1  2  1  0
  2  3  1  0
  3  4  1  0
  4  5  2  0
  6  5  1  1
  6  7  1  0
  7  8  2  0
  8  9  1  0
  9 10  1  0
  9 11  1  0
 11 12  2  0
 11 13  1  0
  6 14  1  0
 14 15  1  0
 15 16  1  0
 16 17  2  0
 17 18  1  0
 18 19  1  0
 19 20  2  0
 20 21  1  0
 21 22  2  0
 22 23  1  0
 22 24  1  0
 24 25  2  0
 18 26  2  0
 26 27  1  0
 15 28  1  0
 28 29  1  0
 29 30  2  0
 30 31  1  0
 31 32  1  0
 32 33  2  0
 33 34  1  0
 34 35  2  0
 35 36  1  0
 36 37  2  0
  5 38  1  0
 38 39  2  0
 39  3  1  0
 30  6  1  0
 37 32  1  0
 13  7  1  0
 27 16  1  0
 37 29  1  0
 25 19  1  0
  1 40  1  0
  1 41  1  0
  1 42  1  0
  2 43  1  0
  2 44  1  0
  4 45  1  0
 10 46  1  0
 10 47  1  0
 10 48  1  0
 14 49  1  0
 15 50  1  6
 20 51  1  0
 21 52  1  0
 24 53  1  0
 26 54  1  0
 27 55  1  0
 28 56  1  0
 28 57  1  0
 31 58  1  0
 33 59  1  0
 34 60  1  0
 35 61  1  0
 36 62  1  0
 38 63  1  0
M  END
$$$$
