
     RDKit          3D

 42 45  0  0  0  0  0  0  0  0999 V2000
   -4.6331   -4.5298    0.2683 C   0  0  0  0  0  0  0  0  0  0  0  0
   -3.8174   -3.3104    0.0915 C   0  0  0  0  0  0  0  0  0  0  0  0
   -4.3267   -2.2681   -0.4324 O   0  0  0  0  0  0  0  0  0  0  0  0
   -2.4527   -3.3682    0.5335 N   0  0  0  0  0  0  0  0  0  0  0  0
   -1.6840   -2.1834    0.3542 C   0  0  0  0  0  0  0  0  0  0  0  0
   -2.1157   -1.0323   -0.1847 N   0  0  0  0  0  0  0  0  0  0  0  0
   -1.1294   -0.1187   -0.2015 C   0  0  0  0  0  0  0  0  0  0  0  0
   -0.0230   -0.6974    0.3443 C   0  0  0  0  0  0  0  0  0  0  0  0
   -0.3908   -1.9676    0.6780 N   0  0  0  0  0  0  0  0  0  0  0  0
    1.3360   -0.2562    0.6083 C   0  0  0  0  0  0  0  0  0  0  0  0
    1.7561    0.7504    1.4415 C   0  0  0  0  0  0  0  0  0  0  0  0
    3.0922    1.0598    1.5934 C   0  0  0  0  0  0  0  0  0  0  0  0
    4.0061    0.3004    0.8583 C   0  0  0  0  0  0  0  0  0  0  0  0
    5.2997    0.6032    1.0078 N   0  0  0  0  0  0  0  0  0  0  0  0
    6.2858   -0.0636    0.3461 C   0  0  0  0  0  0  0  0  0  0  0  0
    5.9035   -1.0853   -0.5035 C   0  0  0  0  0  0  0  0  0  0  0  0
    4.5985   -1.3746   -0.6402 N   0  0  0  0  0  0  0  0  0  0  0  0
    3.6241   -0.7171    0.0125 C   0  0  0  0  0  0  0  0  0  0  0  0
    2.2905   -0.9795   -0.0991 C   0  0  0  0  0  0  0  0  0  0  0  0
   -1.1241    1.2393   -0.6776 C   0  0  0  0  0  0  0  0  0  0  0  0
   -1.9884    2.0462   -0.0122 N   0  0  0  0  0  0  0  0  0  0  0  0
   -2.1368    3.3581   -0.3050 C   0  0  0  0  0  0  0  0  0  0  0  0
   -3.0926    4.2162    0.4420 C   0  0  0  0  0  0  0  0  0  0  0  0
   -1.3904    3.9322   -1.3203 C   0  0  0  0  0  0  0  0  0  0  0  0
   -1.5035    5.2418   -1.6508 F   0  0  0  0  0  0  0  0  0  0  0  0
   -0.5156    3.1004   -1.9885 C   0  0  0  0  0  0  0  0  0  0  0  0
   -0.3531    1.7644   -1.7030 C   0  0  0  0  0  0  0  0  0  0  0  0
   -5.6966   -4.2517    0.1870 H   0  0  0  0  0  0  0  0  0  0  0  0
   -4.3124   -5.2350   -0.5444 H   0  0  0  0  0  0  0  0  0  0  0  0
   -4.3467   -4.9785    1.2339 H   0  0  0  0  0  0  0  0  0  0  0  0
   -1.9751   -4.2037    0.9749 H   0  0  0  0  0  0  0  0  0  0  0  0
    0.1722   -2.7370    1.1231 H   0  0  0  0  0  0  0  0  0  0  0  0
    0.9630    1.2696    1.9589 H   0  0  0  0  0  0  0  0  0  0  0  0
    3.4015    1.8418    2.2422 H   0  0  0  0  0  0  0  0  0  0  0  0
    7.3442    0.1455    0.4351 H   0  0  0  0  0  0  0  0  0  0  0  0
    6.6565   -1.6395   -1.0478 H   0  0  0  0  0  0  0  0  0  0  0  0
    2.0514   -1.8019   -0.7892 H   0  0  0  0  0  0  0  0  0  0  0  0
   -2.6123    4.8453    1.2000 H   0  0  0  0  0  0  0  0  0  0  0  0
   -3.6746    4.8849   -0.2559 H   0  0  0  0  0  0  0  0  0  0  0  0
   -3.8707    3.6002    0.9395 H   0  0  0  0  0  0  0  0  0  0  0  0
    0.0792    3.5168   -2.7835 H   0  0  0  0  0  0  0  0  0  0  0  0
    0.3052    1.0832   -2.1867 H   0  0  0  0  0  0  0  0  0  0  0  0
  1  2  1  0
  2  3  2  0
  2  4  1  0
  4  5  1  0
  5  6  2  0
  6  7  1  0
  7  8  2  0
  8  9  1  0
  8 10  1  0
 10 11  2  0
 11 12  1  0
 12 13  2  0
 13 14  1  0
 14 15  2  0
 15 16  1  0
 16 17  2  0
 17 18  1  0
 18 19  2  0
  7 20  1  0
 20 21  2  0
 21 22  1  0
 22 23  1  0
 22 24  2  0
 24 25  1  0
 24 26  1  0
 26 27  2  0
  9  5  1  0
 19 10  1  0
 27 20  1  0
 18 13  1  0
  1 28  1  0
  1 29  1  0
  1 30  1  0
  4 31  1  0
  9 32  1  0
 11 33  1  0
 12 34  1  0
 15 35  1  0
 16 36  1  0
 19 37  1  0
 23 38  1  0
 23 39  1  0
 23 40  1  0
 26 41  1  0
 27 42  1  0
M  END
$$$$
