
     RDKit          3D

 60 62  0  0  0  0  0  0  0  0999 V2000
   -8.0821    0.6781    0.4639 N   0  0  0  0  0  0  0  0  0  0  0  0
   -7.4304    1.7815   -0.1831 C   0  0  0  0  0  0  0  0  0  0  0  0
   -5.9220    1.6446   -0.1715 C   0  0  0  0  0  0  0  0  0  0  0  0
   -5.5178    0.3932   -0.8831 C   0  0  0  0  0  0  0  0  0  0  0  0
   -4.0162    0.2141   -0.8987 C   0  0  0  0  0  0  0  0  0  0  0  0
   -3.4547    0.1338    0.4909 C   0  0  0  0  0  0  0  0  0  0  0  0
   -1.9356   -0.0497    0.3836 C   0  0  0  0  0  0  0  0  0  0  0  0
   -1.5623   -1.2859   -0.3530 C   0  0  0  0  0  0  0  0  0  0  0  0
   -2.0485   -2.5710    0.2354 C   0  0  0  0  0  0  0  0  0  0  0  0
   -3.4577   -2.7163    0.3559 N   0  0  0  0  0  0  0  0  0  0  0  0
   -1.1216    0.0807    1.9292 S   0  0  0  0  0  0  0  0  0  0  0  0
    0.5715   -0.3424    2.0263 C   0  0  0  0  0  0  0  0  0  0  0  0
    1.5388    0.5595    1.3936 C   0  0  1  0  0  0  0  0  0  0  0  0
    2.8803    0.0147    1.6800 O   0  0  0  0  0  0  0  0  0  0  0  0
    3.6737    0.9968    1.0950 C   0  0  1  0  0  0  0  0  0  0  0  0
    5.0371    0.5739    0.9291 N   0  0  0  0  0  0  0  0  0  0  0  0
    6.0872    0.8708    1.7345 C   0  0  0  0  0  0  0  0  0  0  0  0
    7.2154    0.3129    1.2879 N   0  0  0  0  0  0  0  0  0  0  0  0
    6.8923   -0.3549    0.1778 C   0  0  0  0  0  0  0  0  0  0  0  0
    7.7022   -1.1055   -0.6675 C   0  0  0  0  0  0  0  0  0  0  0  0
    9.0921   -1.2581   -0.4174 N   0  0  0  0  0  0  0  0  0  0  0  0
    7.0718   -1.6663   -1.7243 N   0  0  0  0  0  0  0  0  0  0  0  0
    5.7528   -1.5116   -1.9465 C   0  0  0  0  0  0  0  0  0  0  0  0
    4.9869   -0.7911   -1.1312 N   0  0  0  0  0  0  0  0  0  0  0  0
    5.5454   -0.2027   -0.0578 C   0  0  0  0  0  0  0  0  0  0  0  0
    2.9955    1.4104   -0.1638 C   0  0  2  0  0  0  0  0  0  0  0  0
    2.5372    2.7170   -0.0239 O   0  0  0  0  0  0  0  0  0  0  0  0
    1.7139    0.5319   -0.0939 C   0  0  2  0  0  0  0  0  0  0  0  0
    0.7458    1.0639   -0.8709 O   0  0  0  0  0  0  0  0  0  0  0  0
   -7.4236    0.0067    0.8831 H   0  0  0  0  0  0  0  0  0  0  0  0
   -8.8300    0.2392   -0.1118 H   0  0  0  0  0  0  0  0  0  0  0  0
   -7.7125    2.7101    0.3452 H   0  0  0  0  0  0  0  0  0  0  0  0
   -7.8012    1.8487   -1.2289 H   0  0  0  0  0  0  0  0  0  0  0  0
   -5.4777    2.5022   -0.7095 H   0  0  0  0  0  0  0  0  0  0  0  0
   -5.5545    1.6190    0.8609 H   0  0  0  0  0  0  0  0  0  0  0  0
   -5.9497   -0.5265   -0.4449 H   0  0  0  0  0  0  0  0  0  0  0  0
   -5.8511    0.4618   -1.9494 H   0  0  0  0  0  0  0  0  0  0  0  0
   -3.8084   -0.6755   -1.5206 H   0  0  0  0  0  0  0  0  0  0  0  0
   -3.5529    1.1334   -1.3659 H   0  0  0  0  0  0  0  0  0  0  0  0
   -3.9388   -0.5554    1.1689 H   0  0  0  0  0  0  0  0  0  0  0  0
   -3.5728    1.1670    0.9335 H   0  0  0  0  0  0  0  0  0  0  0  0
   -1.6605    0.8327   -0.2720 H   0  0  0  0  0  0  0  0  0  0  0  0
   -0.4458   -1.3527   -0.3401 H   0  0  0  0  0  0  0  0  0  0  0  0
   -1.7988   -1.2165   -1.4564 H   0  0  0  0  0  0  0  0  0  0  0  0
   -1.6961   -3.3871   -0.4611 H   0  0  0  0  0  0  0  0  0  0  0  0
   -1.5768   -2.8055    1.2054 H   0  0  0  0  0  0  0  0  0  0  0  0
   -3.7944   -3.0902    1.2585 H   0  0  0  0  0  0  0  0  0  0  0  0
   -3.9588   -3.0334   -0.4810 H   0  0  0  0  0  0  0  0  0  0  0  0
    0.8749   -0.4046    3.1372 H   0  0  0  0  0  0  0  0  0  0  0  0
    0.7686   -1.3961    1.6213 H   0  0  0  0  0  0  0  0  0  0  0  0
    1.5994    1.5665    1.8144 H   0  0  0  0  0  0  0  0  0  0  0  0
    3.6725    1.8416    1.8484 H   0  0  0  0  0  0  0  0  0  0  0  0
    5.9694    1.4919    2.6224 H   0  0  0  0  0  0  0  0  0  0  0  0
    9.4470   -1.8094    0.3771 H   0  0  0  0  0  0  0  0  0  0  0  0
    9.7766   -0.7997   -1.0543 H   0  0  0  0  0  0  0  0  0  0  0  0
    5.3557   -2.0134   -2.8347 H   0  0  0  0  0  0  0  0  0  0  0  0
    3.5385    1.2296   -1.0837 H   0  0  0  0  0  0  0  0  0  0  0  0
    2.9135    3.1737    0.7691 H   0  0  0  0  0  0  0  0  0  0  0  0
    1.9605   -0.4924   -0.4470 H   0  0  0  0  0  0  0  0  0  0  0  0
    1.0364    1.6121   -1.6167 H   0  0  0  0  0  0  0  0  0  0  0  0
  1  2  1  0
  2  3  1  0
  3  4  1  0
  4  5  1  0
  5  6  1  0
  6  7  1  0
  7  8  1  0
  8  9  1  0
  9 10  1  0
  7 11  1  0
 11 12  1  0
 12 13  1  0
 13 14  1  0
 14 15  1  0
 15 16  1  0
 16 17  1  0
 17 18  2  0
 18 19  1  0
 19 20  2  0
 20 21  1  0
 20 22  1  0
 22 23  2  0
 23 24  1  0
 24 25  2  0
 15 26  1  0
 26 27  1  0
 26 28  1  0
 28 29  1  0
 28 13  1  0
 25 16  1  0
 25 19  1  0
  1 30  1  0
  1 31  1  0
  2 32  1  0
  2 33  1  0
  3 34  1  0
  3 35  1  0
  4 36  1  0
  4 37  1  0
  5 38  1  0
  5 39  1  0
  6 40  1  0
  6 41  1  0
  7 42  1  0
  8 43  1  0
  8 44  1  0
  9 45  1  0
  9 46  1  0
 10 47  1  0
 10 48  1  0
 12 49  1  0
 12 50  1  0
 13 51  1  1
 15 52  1  1
 17 53  1  0
 21 54  1  0
 21 55  1  0
 23 56  1  0
 26 57  1  6
 27 58  1  0
 28 59  1  6
 29 60  1  0
M  END
$$$$
