
     RDKit          3D

 65 70  0  0  0  0  0  0  0  0999 V2000
    6.9919   -2.2032    1.2337 C   0  0  0  0  0  0  0  0  0  0  0  0
    7.5878   -1.6628    0.0405 N   0  0  0  0  0  0  0  0  0  0  0  0
    9.0109   -1.7999   -0.1586 C   0  0  0  0  0  0  0  0  0  0  0  0
    6.7951   -1.0148   -0.9151 C   0  0  0  0  0  0  0  0  0  0  0  0
    7.3058   -0.5266   -1.9625 O   0  0  0  0  0  0  0  0  0  0  0  0
    5.3586   -0.8886   -0.7226 C   0  0  0  0  0  0  0  0  0  0  0  0
    4.4297   -1.9326   -0.8157 C   0  0  0  0  0  0  0  0  0  0  0  0
    3.1561   -1.4221   -0.5898 C   0  0  0  0  0  0  0  0  0  0  0  0
    1.8789   -1.9313   -0.5604 C   0  0  0  0  0  0  0  0  0  0  0  0
    0.8059   -1.1038   -0.3086 N   0  0  0  0  0  0  0  0  0  0  0  0
    1.0213    0.1956   -0.0930 C   0  0  0  0  0  0  0  0  0  0  0  0
   -0.0347    1.0772    0.1391 N   0  0  0  0  0  0  0  0  0  0  0  0
   -1.3784    0.6105    0.0426 C   0  0  0  0  0  0  0  0  0  0  0  0
   -2.4395    1.4901    0.2771 C   0  0  0  0  0  0  0  0  0  0  0  0
   -3.7272    1.0549    0.1667 C   0  0  0  0  0  0  0  0  0  0  0  0
   -4.0323   -0.2691   -0.1807 C   0  0  0  0  0  0  0  0  0  0  0  0
   -5.3858   -0.6743   -0.2939 N   0  0  0  0  0  0  0  0  0  0  0  0
   -5.9804   -1.1873    0.9152 C   0  0  0  0  0  0  0  0  0  0  0  0
   -7.2470   -0.4020    1.2439 C   0  0  2  0  0  0  0  0  0  0  0  0
   -8.4949   -1.1259    0.8474 C   0  0  0  0  0  0  0  0  0  0  0  0
   -9.2290   -0.2670   -0.1635 C   0  0  0  0  0  0  0  0  0  0  0  0
   -8.0841    0.5876   -0.7123 C   0  0  2  0  0  0  0  0  0  0  0  0
   -7.4163   -0.1475   -1.8253 C   0  0  0  0  0  0  0  0  0  0  0  0
   -5.9822   -0.4994   -1.5495 C   0  0  0  0  0  0  0  0  0  0  0  0
   -5.2434   -0.6515   -2.5503 O   0  0  0  0  0  0  0  0  0  0  0  0
   -7.3034    0.8136    0.4588 N   0  0  0  0  0  0  0  0  0  0  0  0
   -2.9419   -1.0852   -0.3974 C   0  0  0  0  0  0  0  0  0  0  0  0
   -1.6825   -0.6443   -0.2853 N   0  0  0  0  0  0  0  0  0  0  0  0
    2.2711    0.6613   -0.1267 N   0  0  0  0  0  0  0  0  0  0  0  0
    3.3658   -0.0821   -0.3654 C   0  0  0  0  0  0  0  0  0  0  0  0
    4.6717    0.2289   -0.4452 N   0  0  0  0  0  0  0  0  0  0  0  0
    5.1912    1.5514   -0.2644 C   0  0  0  0  0  0  0  0  0  0  0  0
    5.2278    2.1577    0.9651 C   0  0  0  0  0  0  0  0  0  0  0  0
    5.7259    3.4376    1.1656 C   0  0  0  0  0  0  0  0  0  0  0  0
    6.2073    4.1385    0.0923 C   0  0  0  0  0  0  0  0  0  0  0  0
    6.1807    3.5501   -1.1484 C   0  0  0  0  0  0  0  0  0  0  0  0
    5.6815    2.2713   -1.3460 C   0  0  0  0  0  0  0  0  0  0  0  0
    5.9997   -1.7179    1.4358 H   0  0  0  0  0  0  0  0  0  0  0  0
    7.5999   -1.9319    2.1403 H   0  0  0  0  0  0  0  0  0  0  0  0
    6.9167   -3.2990    1.2366 H   0  0  0  0  0  0  0  0  0  0  0  0
    9.5367   -0.9993    0.4447 H   0  0  0  0  0  0  0  0  0  0  0  0
    9.3943   -2.7606    0.2254 H   0  0  0  0  0  0  0  0  0  0  0  0
    9.3088   -1.6271   -1.2131 H   0  0  0  0  0  0  0  0  0  0  0  0
    4.6289   -2.9664   -1.0236 H   0  0  0  0  0  0  0  0  0  0  0  0
    1.7341   -2.9895   -0.7385 H   0  0  0  0  0  0  0  0  0  0  0  0
    0.1196    2.0946    0.3858 H   0  0  0  0  0  0  0  0  0  0  0  0
   -2.1802    2.5186    0.5468 H   0  0  0  0  0  0  0  0  0  0  0  0
   -4.5810    1.7018    0.3405 H   0  0  0  0  0  0  0  0  0  0  0  0
   -6.2879   -2.2338    0.7472 H   0  0  0  0  0  0  0  0  0  0  0  0
   -5.2863   -1.1830    1.7799 H   0  0  0  0  0  0  0  0  0  0  0  0
   -7.1893   -0.1191    2.3093 H   0  0  0  0  0  0  0  0  0  0  0  0
   -9.0955   -1.3410    1.7396 H   0  0  0  0  0  0  0  0  0  0  0  0
   -8.1970   -2.0585    0.2917 H   0  0  0  0  0  0  0  0  0  0  0  0
   -9.9290    0.4431    0.3027 H   0  0  0  0  0  0  0  0  0  0  0  0
   -9.6887   -0.8665   -0.9748 H   0  0  0  0  0  0  0  0  0  0  0  0
   -8.4711    1.5809   -1.0486 H   0  0  0  0  0  0  0  0  0  0  0  0
   -7.9170   -1.1066   -2.0878 H   0  0  0  0  0  0  0  0  0  0  0  0
   -7.3953    0.5211   -2.7188 H   0  0  0  0  0  0  0  0  0  0  0  0
   -7.4656    1.6762    0.9802 H   0  0  0  0  0  0  0  0  0  0  0  0
   -3.1756   -2.1248   -0.6712 H   0  0  0  0  0  0  0  0  0  0  0  0
    4.8567    1.6343    1.8354 H   0  0  0  0  0  0  0  0  0  0  0  0
    5.7160    3.8453    2.1782 H   0  0  0  0  0  0  0  0  0  0  0  0
    6.5876    5.1268    0.2593 H   0  0  0  0  0  0  0  0  0  0  0  0
    6.5578    4.0978   -1.9905 H   0  0  0  0  0  0  0  0  0  0  0  0
    5.6408    1.7802   -2.3015 H   0  0  0  0  0  0  0  0  0  0  0  0
  1  2  1  0
  2  3  1  0
  2  4  1  0
  4  5  2  0
  4  6  1  0
  6  7  2  0
  7  8  1  0
  8  9  2  0
  9 10  1  0
 10 11  2  0
 11 12  1  0
 12 13  1  0
 13 14  2  0
 14 15  1  0
 15 16  2  0
 16 17  1  0
 17 18  1  0
 18 19  1  0
 19 20  1  0
 20 21  1  0
 21 22  1  0
 22 23  1  0
 23 24  1  0
 24 25  2  0
 22 26  1  0
 16 27  1  0
 27 28  2  0
 11 29  1  0
 29 30  2  0
 30 31  1  0
 31 32  1  0
 32 33  2  0
 33 34  1  0
 34 35  2  0
 35 36  1  0
 36 37  2  0
 31  6  1  0
 37 32  1  0
 30  8  1  0
 28 13  1  0
 24 17  1  0
 26 19  1  0
  1 38  1  0
  1 39  1  0
  1 40  1  0
  3 41  1  0
  3 42  1  0
  3 43  1  0
  7 44  1  0
  9 45  1  0
 12 46  1  0
 14 47  1  0
 15 48  1  0
 18 49  1  0
 18 50  1  0
 19 51  1  1
 20 52  1  0
 20 53  1  0
 21 54  1  0
 21 55  1  0
 22 56  1  6
 23 57  1  0
 23 58  1  0
 26 59  1  0
 27 60  1  0
 33 61  1  0
 34 62  1  0
 35 63  1  0
 36 64  1  0
 37 65  1  0
M  END
$$$$
