
     RDKit          3D

 57 59  0  0  0  0  0  0  0  0999 V2000
   -1.7280    0.3778   -0.2555 C   0  0  2  0  0  0  0  0  0  0  0  0
   -1.9007   -1.0450    0.2202 C   0  0  0  0  0  0  0  0  0  0  0  0
   -3.0133   -1.2297    1.2089 C   0  0  0  0  0  0  0  0  0  0  0  0
   -2.8467   -0.4323    2.4594 C   0  0  0  0  0  0  0  0  0  0  0  0
   -3.0238   -2.7053    1.5794 C   0  0  0  0  0  0  0  0  0  0  0  0
   -2.9566    0.8307   -0.9042 N   0  0  0  0  0  0  0  0  0  0  0  0
   -3.5736    2.0432   -0.4294 C   0  0  0  0  0  0  0  0  0  0  0  0
   -3.0496    2.6630    0.5086 O   0  0  0  0  0  0  0  0  0  0  0  0
   -4.8063    2.5565   -1.0330 C   0  0  0  0  0  0  0  0  0  0  0  0
   -5.3944    3.7189   -0.5643 C   0  0  0  0  0  0  0  0  0  0  0  0
   -6.5333    3.9581   -1.3161 C   0  0  0  0  0  0  0  0  0  0  0  0
   -6.5700    2.9115   -2.2101 C   0  0  0  0  0  0  0  0  0  0  0  0
   -5.5404    2.1118   -2.0116 O   0  0  0  0  0  0  0  0  0  0  0  0
   -0.6250    0.2817   -1.2784 C   0  0  0  0  0  0  0  0  0  0  0  0
   -1.3352    0.6585   -2.2451 O   0  0  0  0  0  0  0  0  0  0  0  0
    0.6729   -0.1320   -0.9315 N   0  0  0  0  0  0  0  0  0  0  0  0
    1.7790   -0.2473   -1.8648 C   0  0  1  0  0  0  0  0  0  0  0  0
    2.8920    0.6853   -1.5731 C   0  0  0  0  0  0  0  0  0  0  0  0
    3.5513    0.5878   -0.2800 C   0  0  0  0  0  0  0  0  0  0  0  0
    3.1305    1.4365    0.7586 C   0  0  0  0  0  0  0  0  0  0  0  0
    3.8057    1.2025    1.8877 N   0  0  0  0  0  0  0  0  0  0  0  0
    4.6849    0.2134    1.6581 C   0  0  0  0  0  0  0  0  0  0  0  0
    4.5263   -0.1524    0.3482 C   0  0  0  0  0  0  0  0  0  0  0  0
    5.2712   -1.1393   -0.2609 C   0  0  0  0  0  0  0  0  0  0  0  0
    6.2277   -1.7814    0.5291 C   0  0  0  0  0  0  0  0  0  0  0  0
    6.3822   -1.4104    1.8469 C   0  0  0  0  0  0  0  0  0  0  0  0
    5.6282   -0.4168    2.4445 C   0  0  0  0  0  0  0  0  0  0  0  0
    2.1949   -1.9884   -2.0113 P   0  0  0  0  0  0  0  0  0  0  0  0
    3.3869   -2.2950   -3.1679 O   0  0  0  0  0  0  0  0  0  0  0  0
    2.4965   -2.7457   -0.5422 O   0  0  0  0  0  0  0  0  0  0  0  0
    0.9261   -2.6717   -2.5567 O   0  0  0  0  0  0  0  0  0  0  0  0
   -1.4727    1.0943    0.5233 H   0  0  0  0  0  0  0  0  0  0  0  0
   -2.0953   -1.6778   -0.6568 H   0  0  0  0  0  0  0  0  0  0  0  0
   -0.9450   -1.3651    0.7039 H   0  0  0  0  0  0  0  0  0  0  0  0
   -4.0020   -1.0173    0.7480 H   0  0  0  0  0  0  0  0  0  0  0  0
   -3.1118    0.6375    2.3653 H   0  0  0  0  0  0  0  0  0  0  0  0
   -3.6083   -0.8377    3.1885 H   0  0  0  0  0  0  0  0  0  0  0  0
   -1.8675   -0.6280    2.9278 H   0  0  0  0  0  0  0  0  0  0  0  0
   -2.1185   -3.2398    1.2122 H   0  0  0  0  0  0  0  0  0  0  0  0
   -3.8894   -3.2344    1.1122 H   0  0  0  0  0  0  0  0  0  0  0  0
   -3.0235   -2.8471    2.6790 H   0  0  0  0  0  0  0  0  0  0  0  0
   -3.3891    0.2959   -1.6973 H   0  0  0  0  0  0  0  0  0  0  0  0
   -5.0961    4.4022    0.2465 H   0  0  0  0  0  0  0  0  0  0  0  0
   -7.2856    4.7362   -1.3002 H   0  0  0  0  0  0  0  0  0  0  0  0
   -7.2444    2.6448   -2.9928 H   0  0  0  0  0  0  0  0  0  0  0  0
    0.8236   -0.3661    0.0711 H   0  0  0  0  0  0  0  0  0  0  0  0
    1.4257    0.0466   -2.9108 H   0  0  0  0  0  0  0  0  0  0  0  0
    2.4863    1.7217   -1.7656 H   0  0  0  0  0  0  0  0  0  0  0  0
    3.6494    0.5797   -2.4178 H   0  0  0  0  0  0  0  0  0  0  0  0
    2.3648    2.2235    0.7700 H   0  0  0  0  0  0  0  0  0  0  0  0
    3.7318    1.6552    2.8236 H   0  0  0  0  0  0  0  0  0  0  0  0
    5.1563   -1.4230   -1.2935 H   0  0  0  0  0  0  0  0  0  0  0  0
    6.8604   -2.5690    0.1399 H   0  0  0  0  0  0  0  0  0  0  0  0
    7.1086   -1.8599    2.5428 H   0  0  0  0  0  0  0  0  0  0  0  0
    5.7391   -0.1149    3.4795 H   0  0  0  0  0  0  0  0  0  0  0  0
    2.9984   -2.4453   -4.0610 H   0  0  0  0  0  0  0  0  0  0  0  0
    2.1454   -2.2566    0.2297 H   0  0  0  0  0  0  0  0  0  0  0  0
  1  2  1  0
  2  3  1  0
  3  4  1  0
  3  5  1  0
  1  6  1  0
  6  7  1  0
  7  8  2  0
  7  9  1  0
  9 10  2  0
 10 11  1  0
 11 12  2  0
 12 13  1  0
  1 14  1  0
 14 15  2  0
 14 16  1  0
 16 17  1  0
 17 18  1  0
 18 19  1  0
 19 20  2  0
 20 21  1  0
 21 22  1  0
 22 23  2  0
 23 24  1  0
 24 25  2  0
 25 26  1  0
 26 27  2  0
 17 28  1  0
 28 29  1  0
 28 30  1  0
 28 31  2  0
 13  9  1  0
 23 19  1  0
 27 22  1  0
  1 32  1  1
  2 33  1  0
  2 34  1  0
  3 35  1  0
  4 36  1  0
  4 37  1  0
  4 38  1  0
  5 39  1  0
  5 40  1  0
  5 41  1  0
  6 42  1  0
 10 43  1  0
 11 44  1  0
 12 45  1  0
 16 46  1  0
 17 47  1  6
 18 48  1  0
 18 49  1  0
 20 50  1  0
 21 51  1  0
 24 52  1  0
 25 53  1  0
 26 54  1  0
 27 55  1  0
 29 56  1  0
 30 57  1  0
M  END
$$$$
