
     RDKit          3D

 63 66  0  0  0  0  0  0  0  0999 V2000
  -10.4288    1.1988   -0.0053 C   0  0  0  0  0  0  0  0  0  0  0  0
   -9.2717    1.8952   -0.6274 C   0  0  0  0  0  0  0  0  0  0  0  0
   -9.3868    2.9478   -1.2892 O   0  0  0  0  0  0  0  0  0  0  0  0
   -7.9515    1.3041   -0.4432 C   0  0  0  0  0  0  0  0  0  0  0  0
   -7.7543    0.1454    0.2707 C   0  0  0  0  0  0  0  0  0  0  0  0
   -6.5173   -0.4271    0.4569 C   0  0  0  0  0  0  0  0  0  0  0  0
   -5.3800    0.1692   -0.0914 C   0  0  0  0  0  0  0  0  0  0  0  0
   -4.1008   -0.4428    0.1076 N   0  0  0  0  0  0  0  0  0  0  0  0
   -2.9274    0.3014   -0.2828 C   0  0  0  0  0  0  0  0  0  0  0  0
   -1.8044   -0.1590    0.6620 C   0  0  0  0  0  0  0  0  0  0  0  0
   -1.5598   -1.5443    0.3155 N   0  0  0  0  0  0  0  0  0  0  0  0
   -0.2731   -2.0221   -0.0564 C   0  0  0  0  0  0  0  0  0  0  0  0
   -0.1179   -3.2227   -0.3401 O   0  0  0  0  0  0  0  0  0  0  0  0
    0.8326   -1.0549   -0.0875 C   0  0  0  0  0  0  0  0  0  0  0  0
    2.1022   -1.6303   -0.4682 N   0  0  0  0  0  0  0  0  0  0  0  0
    2.6348   -2.5286    0.4975 C   0  0  0  0  0  0  0  0  0  0  0  0
    4.0027   -2.0070    0.8696 C   0  0  0  0  0  0  0  0  0  0  0  0
    3.8164   -0.5325    0.7281 C   0  0  1  0  0  0  0  0  0  0  0  0
    5.0419    0.2306    0.5323 C   0  0  0  0  0  0  0  0  0  0  0  0
    5.3173    1.1263    1.4009 O   0  0  0  0  0  0  0  0  0  0  0  0
    5.9536    0.0732   -0.5274 N   0  0  0  0  0  0  0  0  0  0  0  0
    7.1169    0.8741   -0.6165 C   0  0  0  0  0  0  0  0  0  0  0  0
    7.1201    2.0725   -1.2908 C   0  0  0  0  0  0  0  0  0  0  0  0
    8.2773    2.8542   -1.3703 C   0  0  0  0  0  0  0  0  0  0  0  0
    9.4402    2.4383   -0.7733 C   0  0  0  0  0  0  0  0  0  0  0  0
   10.6189    3.1738   -0.8205 O   0  0  0  0  0  0  0  0  0  0  0  0
    9.4479    1.2358   -0.0934 C   0  0  0  0  0  0  0  0  0  0  0  0
   10.9457    0.6896    0.6817 Cl  0  0  0  0  0  0  0  0  0  0  0  0
    8.2842    0.4599   -0.0191 C   0  0  0  0  0  0  0  0  0  0  0  0
    3.0275   -0.5007   -0.5912 C   0  0  0  0  0  0  0  0  0  0  0  0
   -2.6894   -2.4380    0.3645 C   0  0  0  0  0  0  0  0  0  0  0  0
   -3.9778   -1.7619    0.6739 C   0  0  0  0  0  0  0  0  0  0  0  0
   -5.5603    1.3242   -0.8056 C   0  0  0  0  0  0  0  0  0  0  0  0
   -6.8169    1.8816   -0.9790 C   0  0  0  0  0  0  0  0  0  0  0  0
  -11.3758    1.7439   -0.1634 H   0  0  0  0  0  0  0  0  0  0  0  0
  -10.2276    0.9186    1.0275 H   0  0  0  0  0  0  0  0  0  0  0  0
  -10.5418    0.2326   -0.5718 H   0  0  0  0  0  0  0  0  0  0  0  0
   -8.6412   -0.3188    0.6986 H   0  0  0  0  0  0  0  0  0  0  0  0
   -6.4111   -1.3567    1.0394 H   0  0  0  0  0  0  0  0  0  0  0  0
   -2.6484   -0.0181   -1.3072 H   0  0  0  0  0  0  0  0  0  0  0  0
   -3.0532    1.4013   -0.2032 H   0  0  0  0  0  0  0  0  0  0  0  0
   -0.9102    0.4818    0.5309 H   0  0  0  0  0  0  0  0  0  0  0  0
   -2.1705   -0.1391    1.7174 H   0  0  0  0  0  0  0  0  0  0  0  0
    0.9153   -0.6087    0.9326 H   0  0  0  0  0  0  0  0  0  0  0  0
    0.5742   -0.2148   -0.7618 H   0  0  0  0  0  0  0  0  0  0  0  0
    2.6611   -3.5867    0.1732 H   0  0  0  0  0  0  0  0  0  0  0  0
    2.0080   -2.4553    1.4303 H   0  0  0  0  0  0  0  0  0  0  0  0
    4.2718   -2.3260    1.8941 H   0  0  0  0  0  0  0  0  0  0  0  0
    4.7799   -2.4233    0.1826 H   0  0  0  0  0  0  0  0  0  0  0  0
    3.1874   -0.1845    1.5548 H   0  0  0  0  0  0  0  0  0  0  0  0
    5.7455   -0.6532   -1.2470 H   0  0  0  0  0  0  0  0  0  0  0  0
    6.1886    2.3821   -1.7562 H   0  0  0  0  0  0  0  0  0  0  0  0
    8.2806    3.7921   -1.8984 H   0  0  0  0  0  0  0  0  0  0  0  0
   11.0794    3.5225    0.0203 H   0  0  0  0  0  0  0  0  0  0  0  0
    8.3826   -0.4712    0.5366 H   0  0  0  0  0  0  0  0  0  0  0  0
    2.5195    0.4633   -0.6291 H   0  0  0  0  0  0  0  0  0  0  0  0
    3.7150   -0.6190   -1.4327 H   0  0  0  0  0  0  0  0  0  0  0  0
   -2.7936   -3.0198   -0.5934 H   0  0  0  0  0  0  0  0  0  0  0  0
   -2.4499   -3.2060    1.1543 H   0  0  0  0  0  0  0  0  0  0  0  0
   -4.0702   -1.6635    1.7750 H   0  0  0  0  0  0  0  0  0  0  0  0
   -4.8368   -2.4243    0.3575 H   0  0  0  0  0  0  0  0  0  0  0  0
   -4.6929    1.8285   -1.2603 H   0  0  0  0  0  0  0  0  0  0  0  0
   -6.9477    2.7979   -1.5484 H   0  0  0  0  0  0  0  0  0  0  0  0
  1  2  1  0
  2  3  2  0
  2  4  1  0
  4  5  2  0
  5  6  1  0
  6  7  2  0
  7  8  1  0
  8  9  1  0
  9 10  1  0
 10 11  1  0
 11 12  1  0
 12 13  2  0
 12 14  1  0
 14 15  1  0
 15 16  1  0
 16 17  1  0
 17 18  1  0
 18 19  1  0
 19 20  2  0
 19 21  1  0
 21 22  1  0
 22 23  2  0
 23 24  1  0
 24 25  2  0
 25 26  1  0
 25 27  1  0
 27 28  1  0
 27 29  2  0
 18 30  1  0
 11 31  1  0
 31 32  1  0
  7 33  1  0
 33 34  2  0
 34  4  1  0
 32  8  1  0
 30 15  1  0
 29 22  1  0
  1 35  1  0
  1 36  1  0
  1 37  1  0
  5 38  1  0
  6 39  1  0
  9 40  1  0
  9 41  1  0
 10 42  1  0
 10 43  1  0
 14 44  1  0
 14 45  1  0
 16 46  1  0
 16 47  1  0
 17 48  1  0
 17 49  1  0
 18 50  1  1
 21 51  1  0
 23 52  1  0
 24 53  1  0
 26 54  1  0
 29 55  1  0
 30 56  1  0
 30 57  1  0
 31 58  1  0
 31 59  1  0
 32 60  1  0
 32 61  1  0
 33 62  1  0
 34 63  1  0
M  END
$$$$
