
     RDKit          3D

 40 42  0  0  0  0  0  0  0  0999 V2000
    4.0272   -0.4262   -1.7036 O   0  0  0  0  0  0  0  0  0  0  0  0
    3.6701   -0.2216   -0.5177 C   0  0  0  0  0  0  0  0  0  0  0  0
    2.3279    0.0276   -0.1863 N   0  0  0  0  0  0  0  0  0  0  0  0
    1.2747    0.0725   -1.1238 C   0  0  0  0  0  0  0  0  0  0  0  0
    1.3785   -0.1125   -2.4660 C   0  0  0  0  0  0  0  0  0  0  0  0
    0.2603   -0.0471   -3.3195 C   0  0  0  0  0  0  0  0  0  0  0  0
   -0.9878    0.2084   -2.8220 C   0  0  0  0  0  0  0  0  0  0  0  0
   -1.1227    0.3992   -1.4717 C   0  0  0  0  0  0  0  0  0  0  0  0
   -2.4107    0.6683   -0.9153 N   0  0  0  0  0  0  0  0  0  0  0  0
   -3.2966   -0.3340   -0.4646 C   0  0  0  0  0  0  0  0  0  0  0  0
   -2.8791   -1.5254   -0.5818 O   0  0  0  0  0  0  0  0  0  0  0  0
   -4.6099   -0.0682    0.1032 C   0  0  0  0  0  0  0  0  0  0  0  0
   -5.3802   -1.1369    0.5064 C   0  0  0  0  0  0  0  0  0  0  0  0
   -6.6446   -0.9617    1.0576 C   0  0  0  0  0  0  0  0  0  0  0  0
   -7.1216    0.3123    1.1965 C   0  0  0  0  0  0  0  0  0  0  0  0
   -6.3848    1.4154    0.8063 C   0  0  0  0  0  0  0  0  0  0  0  0
   -6.8464    2.6831    0.9387 F   0  0  0  0  0  0  0  0  0  0  0  0
   -5.1183    1.1834    0.2573 C   0  0  0  0  0  0  0  0  0  0  0  0
   -0.0178    0.3327   -0.6434 C   0  0  0  0  0  0  0  0  0  0  0  0
    4.6905   -0.2474    0.5311 C   0  0  0  0  0  0  0  0  0  0  0  0
    4.4314   -0.0421    1.8411 C   0  0  0  0  0  0  0  0  0  0  0  0
    5.4109   -0.0676    2.8421 C   0  0  0  0  0  0  0  0  0  0  0  0
    6.7175   -0.3140    2.4919 C   0  0  0  0  0  0  0  0  0  0  0  0
    7.0001   -0.5257    1.1596 C   0  0  0  0  0  0  0  0  0  0  0  0
    6.0279   -0.4977    0.1883 C   0  0  0  0  0  0  0  0  0  0  0  0
    2.0915    0.1960    0.8607 H   0  0  0  0  0  0  0  0  0  0  0  0
    2.3153   -0.3140   -2.9174 H   0  0  0  0  0  0  0  0  0  0  0  0
    0.3758   -0.1986   -4.3817 H   0  0  0  0  0  0  0  0  0  0  0  0
   -1.8656    0.2656   -3.4458 H   0  0  0  0  0  0  0  0  0  0  0  0
   -2.7111    1.6630   -0.8388 H   0  0  0  0  0  0  0  0  0  0  0  0
   -5.0111   -2.1511    0.4005 H   0  0  0  0  0  0  0  0  0  0  0  0
   -7.2438   -1.8060    1.3720 H   0  0  0  0  0  0  0  0  0  0  0  0
   -8.0939    0.5010    1.6174 H   0  0  0  0  0  0  0  0  0  0  0  0
   -4.5442    2.0469   -0.0469 H   0  0  0  0  0  0  0  0  0  0  0  0
   -0.1361    0.4848    0.4203 H   0  0  0  0  0  0  0  0  0  0  0  0
    3.4343    0.1599    2.2188 H   0  0  0  0  0  0  0  0  0  0  0  0
    5.1488    0.1056    3.8934 H   0  0  0  0  0  0  0  0  0  0  0  0
    7.4849   -0.3364    3.2563 H   0  0  0  0  0  0  0  0  0  0  0  0
    8.0500   -0.7218    0.8940 H   0  0  0  0  0  0  0  0  0  0  0  0
    6.3085   -0.6696   -0.8311 H   0  0  0  0  0  0  0  0  0  0  0  0
  1  2  2  0
  2  3  1  0
  3  4  1  0
  4  5  2  0
  5  6  1  0
  6  7  2  0
  7  8  1  0
  8  9  1  0
  9 10  1  0
 10 11  2  0
 10 12  1  0
 12 13  2  0
 13 14  1  0
 14 15  2  0
 15 16  1  0
 16 17  1  0
 16 18  2  0
  8 19  2  0
  2 20  1  0
 20 21  2  0
 21 22  1  0
 22 23  2  0
 23 24  1  0
 24 25  2  0
 19  4  1  0
 25 20  1  0
 18 12  1  0
  3 26  1  0
  5 27  1  0
  6 28  1  0
  7 29  1  0
  9 30  1  0
 13 31  1  0
 14 32  1  0
 15 33  1  0
 18 34  1  0
 19 35  1  0
 21 36  1  0
 22 37  1  0
 23 38  1  0
 24 39  1  0
 25 40  1  0
M  END
$$$$
