
     RDKit          3D

 56 59  0  0  0  0  0  0  0  0999 V2000
    8.4401   -1.8543   -2.0930 C   0  0  0  0  0  0  0  0  0  0  0  0
    7.0764   -2.2064   -2.2187 O   0  0  0  0  0  0  0  0  0  0  0  0
    6.0963   -1.5081   -1.5321 C   0  0  0  0  0  0  0  0  0  0  0  0
    4.7632   -1.8128   -1.6225 C   0  0  0  0  0  0  0  0  0  0  0  0
    3.8278   -1.1334   -0.9566 N   0  0  0  0  0  0  0  0  0  0  0  0
    4.1093   -0.0974   -0.1442 C   0  0  0  0  0  0  0  0  0  0  0  0
    3.1361    0.5994    0.5400 C   0  0  0  0  0  0  0  0  0  0  0  0
    1.7882    0.2237    0.3772 N   0  0  0  0  0  0  0  0  0  0  0  0
    0.6743    0.7965    1.0423 C   0  0  0  0  0  0  0  0  0  0  0  0
    0.7619    1.5372    2.1911 C   0  0  0  0  0  0  0  0  0  0  0  0
   -0.3716    2.0945    2.8004 C   0  0  0  0  0  0  0  0  0  0  0  0
   -1.6294    1.9248    2.2748 C   0  0  0  0  0  0  0  0  0  0  0  0
   -2.7363    2.4609    2.8654 F   0  0  0  0  0  0  0  0  0  0  0  0
   -1.7327    1.1810    1.1185 C   0  0  0  0  0  0  0  0  0  0  0  0
   -3.0921    0.9736    0.5069 C   0  0  2  0  0  0  0  0  0  0  0  0
   -3.5324    2.3661    0.0339 C   0  0  0  0  0  0  0  0  0  0  0  0
   -2.6396    2.8640   -0.8904 F   0  0  0  0  0  0  0  0  0  0  0  0
   -4.7808    2.3187   -0.5547 F   0  0  0  0  0  0  0  0  0  0  0  0
   -4.0227    0.4441    1.5524 C   0  0  0  0  0  0  0  0  0  0  0  0
   -5.2909   -0.5899    0.8599 S   0  0  0  0  0  6  0  0  0  0  0  0
   -5.4962   -1.8354    1.6744 O   0  0  0  0  0  0  0  0  0  0  0  0
   -6.6191    0.1377    0.8531 O   0  0  0  0  0  0  0  0  0  0  0  0
   -4.9304   -1.0406   -0.8007 C   0  0  0  0  0  0  0  0  0  0  0  0
   -5.9816   -0.5056   -1.7814 C   0  0  0  0  0  0  0  0  0  0  0  0
   -5.0041   -2.5672   -0.9576 C   0  0  0  0  0  0  0  0  0  0  0  0
   -3.5831   -0.6560   -1.2533 C   0  0  0  0  0  0  0  0  0  0  0  0
   -3.0725   -1.2827   -2.4239 N   0  0  0  0  0  0  0  0  0  0  0  0
   -2.9057    0.1836   -0.6456 N   0  0  0  0  0  0  0  0  0  0  0  0
   -0.6187    0.6351    0.5223 C   0  0  0  0  0  0  0  0  0  0  0  0
    3.5271    1.6065    1.3156 N   0  0  0  0  0  0  0  0  0  0  0  0
    4.7974    1.9911    1.4787 C   0  0  0  0  0  0  0  0  0  0  0  0
    5.7938    1.3000    0.7963 C   0  0  0  0  0  0  0  0  0  0  0  0
    5.4378    0.2460   -0.0217 C   0  0  0  0  0  0  0  0  0  0  0  0
    6.4392   -0.4481   -0.7073 C   0  0  0  0  0  0  0  0  0  0  0  0
    9.0385   -2.5203   -2.7343 H   0  0  0  0  0  0  0  0  0  0  0  0
    8.5848   -0.7675   -2.3598 H   0  0  0  0  0  0  0  0  0  0  0  0
    8.7630   -1.9193   -1.0177 H   0  0  0  0  0  0  0  0  0  0  0  0
    4.4524   -2.6297   -2.2526 H   0  0  0  0  0  0  0  0  0  0  0  0
    1.5497   -0.5751   -0.3113 H   0  0  0  0  0  0  0  0  0  0  0  0
    1.7169    1.7029    2.6642 H   0  0  0  0  0  0  0  0  0  0  0  0
   -0.2901    2.6771    3.7059 H   0  0  0  0  0  0  0  0  0  0  0  0
   -3.6024    3.0906    0.8620 H   0  0  0  0  0  0  0  0  0  0  0  0
   -4.5323    1.3173    2.0261 H   0  0  0  0  0  0  0  0  0  0  0  0
   -3.4984   -0.1716    2.3218 H   0  0  0  0  0  0  0  0  0  0  0  0
   -5.5418   -0.2404   -2.7458 H   0  0  0  0  0  0  0  0  0  0  0  0
   -6.7776   -1.2595   -1.9512 H   0  0  0  0  0  0  0  0  0  0  0  0
   -6.4731    0.3515   -1.2852 H   0  0  0  0  0  0  0  0  0  0  0  0
   -5.9091   -2.9174   -0.4532 H   0  0  0  0  0  0  0  0  0  0  0  0
   -4.9579   -2.8102   -2.0310 H   0  0  0  0  0  0  0  0  0  0  0  0
   -4.0728   -2.9701   -0.4618 H   0  0  0  0  0  0  0  0  0  0  0  0
   -2.6608   -2.2434   -2.3948 H   0  0  0  0  0  0  0  0  0  0  0  0
   -3.1144   -0.7582   -3.3382 H   0  0  0  0  0  0  0  0  0  0  0  0
   -0.6881    0.0421   -0.3980 H   0  0  0  0  0  0  0  0  0  0  0  0
    5.0966    2.8141    2.1150 H   0  0  0  0  0  0  0  0  0  0  0  0
    6.8355    1.5644    0.8882 H   0  0  0  0  0  0  0  0  0  0  0  0
    7.4521   -0.1243   -0.5634 H   0  0  0  0  0  0  0  0  0  0  0  0
  1  2  1  0
  2  3  1  0
  3  4  2  0
  4  5  1  0
  5  6  2  0
  6  7  1  0
  7  8  1  0
  8  9  1  0
  9 10  2  0
 10 11  1  0
 11 12  2  0
 12 13  1  0
 12 14  1  0
 14 15  1  0
 15 16  1  6
 16 17  1  0
 16 18  1  0
 15 19  1  0
 19 20  1  0
 20 21  2  0
 20 22  2  0
 20 23  1  0
 23 24  1  0
 23 25  1  0
 23 26  1  0
 26 27  1  0
 26 28  2  0
 14 29  2  0
  7 30  2  0
 30 31  1  0
 31 32  2  0
 32 33  1  0
 33 34  2  0
 34  3  1  0
 33  6  1  0
 29  9  1  0
 28 15  1  0
  1 35  1  0
  1 36  1  0
  1 37  1  0
  4 38  1  0
  8 39  1  0
 10 40  1  0
 11 41  1  0
 16 42  1  0
 19 43  1  0
 19 44  1  0
 24 45  1  0
 24 46  1  0
 24 47  1  0
 25 48  1  0
 25 49  1  0
 25 50  1  0
 27 51  1  0
 27 52  1  0
 29 53  1  0
 31 54  1  0
 32 55  1  0
 34 56  1  0
M  END
$$$$
