
     RDKit          3D

 60 65  0  0  0  0  0  0  0  0999 V2000
    6.2432   -1.3248   -0.4823 C   0  0  0  0  0  0  0  0  0  0  0  0
    4.8988   -0.9768   -0.8687 N   0  0  0  0  0  0  0  0  0  0  0  0
    3.9057   -1.8230   -0.2422 C   0  0  0  0  0  0  0  0  0  0  0  0
    2.5315   -1.4453   -0.6566 C   0  0  2  0  0  0  0  0  0  0  0  0
    2.1689   -0.0132   -0.5169 C   0  0  0  0  0  0  0  0  0  0  0  0
    2.1626    0.5737    0.8769 C   0  0  0  0  0  0  0  0  0  0  0  0
    0.9453    1.4522    0.9515 N   0  0  0  0  0  0  0  0  0  0  0  0
   -0.2929    1.0257    1.2680 C   0  0  0  0  0  0  0  0  0  0  0  0
   -1.1365    2.0529    1.0039 C   0  0  0  0  0  0  0  0  0  0  0  0
   -0.3550    3.1402    0.5226 C   0  0  0  0  0  0  0  0  0  0  0  0
   -0.6711    4.4322    0.1044 C   0  0  0  0  0  0  0  0  0  0  0  0
    0.3291    5.2924   -0.3253 C   0  0  0  0  0  0  0  0  0  0  0  0
    1.6201    4.8475   -0.3297 C   0  0  0  0  0  0  0  0  0  0  0  0
    1.9738    3.5888    0.0708 C   0  0  0  0  0  0  0  0  0  0  0  0
    0.9495    2.7308    0.5025 C   0  0  0  0  0  0  0  0  0  0  0  0
   -2.6380    2.1039    1.0310 C   0  0  0  0  0  0  0  0  0  0  0  0
   -3.3799    1.0758    0.5165 C   0  0  0  0  0  0  0  0  0  0  0  0
   -4.7993    1.3672    0.6493 C   0  0  0  0  0  0  0  0  0  0  0  0
   -5.8110    0.7086    0.3114 O   0  0  0  0  0  0  0  0  0  0  0  0
   -4.9011    2.6267    1.2735 N   0  0  0  0  0  0  0  0  0  0  0  0
   -3.6087    3.0726    1.5050 C   0  0  0  0  0  0  0  0  0  0  0  0
   -3.3368    4.1885    2.0643 O   0  0  0  0  0  0  0  0  0  0  0  0
   -2.6876   -0.1680   -0.0142 C   0  0  0  0  0  0  0  0  0  0  0  0
   -1.6286   -0.3110   -0.8672 C   0  0  0  0  0  0  0  0  0  0  0  0
   -1.3637   -1.6307   -0.9482 N   0  0  0  0  0  0  0  0  0  0  0  0
   -2.2641   -2.3299   -0.1518 C   0  0  0  0  0  0  0  0  0  0  0  0
   -2.4611   -3.6877    0.1183 C   0  0  0  0  0  0  0  0  0  0  0  0
   -3.4674   -4.1500    0.9672 C   0  0  0  0  0  0  0  0  0  0  0  0
   -4.2845   -3.2194    1.5487 C   0  0  0  0  0  0  0  0  0  0  0  0
   -4.1209   -1.8766    1.3042 C   0  0  0  0  0  0  0  0  0  0  0  0
   -3.1109   -1.4356    0.4520 C   0  0  0  0  0  0  0  0  0  0  0  0
   -0.3274   -2.3978   -1.6038 C   0  0  0  0  0  0  0  0  0  0  0  0
    0.7463   -2.9956   -0.7795 C   0  0  0  0  0  0  0  0  0  0  0  0
    1.5890   -2.2510   -0.0598 O   0  0  0  0  0  0  0  0  0  0  0  0
    6.8204   -0.3720   -0.4244 H   0  0  0  0  0  0  0  0  0  0  0  0
    6.2131   -1.7207    0.5548 H   0  0  0  0  0  0  0  0  0  0  0  0
    6.7066   -2.0614   -1.1473 H   0  0  0  0  0  0  0  0  0  0  0  0
    4.7008    0.0403   -0.7624 H   0  0  0  0  0  0  0  0  0  0  0  0
    4.0988   -2.8602   -0.6518 H   0  0  0  0  0  0  0  0  0  0  0  0
    4.0487   -1.9173    0.8454 H   0  0  0  0  0  0  0  0  0  0  0  0
    2.4384   -1.6636   -1.7654 H   0  0  0  0  0  0  0  0  0  0  0  0
    2.8017    0.6151   -1.2294 H   0  0  0  0  0  0  0  0  0  0  0  0
    1.1579    0.1046   -0.9297 H   0  0  0  0  0  0  0  0  0  0  0  0
    2.3983   -0.0433    1.7058 H   0  0  0  0  0  0  0  0  0  0  0  0
    3.0812    1.2669    0.8462 H   0  0  0  0  0  0  0  0  0  0  0  0
   -0.5322   -0.0194    1.7248 H   0  0  0  0  0  0  0  0  0  0  0  0
   -1.7058    4.7510    0.1049 H   0  0  0  0  0  0  0  0  0  0  0  0
    0.0565    6.2899   -0.6440 H   0  0  0  0  0  0  0  0  0  0  0  0
    2.3929    5.5219   -0.6647 H   0  0  0  0  0  0  0  0  0  0  0  0
    3.0006    3.2378    0.0672 H   0  0  0  0  0  0  0  0  0  0  0  0
   -5.7794    3.1550    1.5283 H   0  0  0  0  0  0  0  0  0  0  0  0
   -1.0627    0.5029   -1.4461 H   0  0  0  0  0  0  0  0  0  0  0  0
   -1.8441   -4.4146   -0.3489 H   0  0  0  0  0  0  0  0  0  0  0  0
   -3.5743   -5.1940    1.1395 H   0  0  0  0  0  0  0  0  0  0  0  0
   -5.0656   -3.5777    2.2089 H   0  0  0  0  0  0  0  0  0  0  0  0
   -4.7708   -1.1915    1.7910 H   0  0  0  0  0  0  0  0  0  0  0  0
   -0.8193   -3.3470   -2.0747 H   0  0  0  0  0  0  0  0  0  0  0  0
    0.0892   -1.9385   -2.4867 H   0  0  0  0  0  0  0  0  0  0  0  0
    1.4093   -3.5408   -1.5556 H   0  0  0  0  0  0  0  0  0  0  0  0
    0.3223   -3.8666   -0.2240 H   0  0  0  0  0  0  0  0  0  0  0  0
  1  2  1  0
  2  3  1  0
  3  4  1  0
  4  5  1  0
  5  6  1  0
  6  7  1  0
  7  8  1  0
  8  9  2  0
  9 10  1  0
 10 11  2  0
 11 12  1  0
 12 13  2  0
 13 14  1  0
 14 15  2  0
  9 16  1  0
 16 17  2  0
 17 18  1  0
 18 19  2  0
 18 20  1  0
 20 21  1  0
 21 22  2  0
 17 23  1  0
 23 24  2  0
 24 25  1  0
 25 26  1  0
 26 27  2  0
 27 28  1  0
 28 29  2  0
 29 30  1  0
 30 31  2  0
 25 32  1  0
 32 33  1  0
 33 34  1  0
 34  4  1  0
 15  7  1  0
 21 16  1  0
 31 23  1  0
 15 10  1  0
 31 26  1  0
  1 35  1  0
  1 36  1  0
  1 37  1  0
  2 38  1  0
  3 39  1  0
  3 40  1  0
  4 41  1  6
  5 42  1  0
  5 43  1  0
  6 44  1  0
  6 45  1  0
  8 46  1  0
 11 47  1  0
 12 48  1  0
 13 49  1  0
 14 50  1  0
 20 51  1  0
 24 52  1  0
 27 53  1  0
 28 54  1  0
 29 55  1  0
 30 56  1  0
 32 57  1  0
 32 58  1  0
 33 59  1  0
 33 60  1  0
M  END
$$$$
