
     RDKit          3D

 40 43  0  0  0  0  0  0  0  0999 V2000
    7.3102    0.1926    0.0217 C   0  0  0  0  0  0  0  0  0  0  0  0
    5.9977   -0.5075   -0.3048 C   0  0  0  0  0  0  0  0  0  0  0  0
    5.9805   -1.9545   -0.2683 N   0  0  0  0  0  0  0  0  0  0  0  0
    4.2202   -2.2503   -0.7097 S   0  0  0  0  0  0  0  0  0  0  0  0
    3.8124   -0.5388   -0.8602 C   0  0  0  0  0  0  0  0  0  0  0  0
    2.4501   -0.0717   -1.2140 C   0  0  0  0  0  0  0  0  0  0  0  0
    1.8809    0.0090   -2.4270 N   0  0  0  0  0  0  0  0  0  0  0  0
    0.6200    0.4708   -2.2537 N   0  0  0  0  0  0  0  0  0  0  0  0
    0.4312    0.6641   -0.9541 C   0  0  0  0  0  0  0  0  0  0  0  0
    1.5697    0.3267   -0.3177 N   0  0  0  0  0  0  0  0  0  0  0  0
    1.5883    0.4785    1.1382 C   0  0  0  0  0  0  0  0  0  0  0  0
    0.3699   -0.2122    1.6690 C   0  0  0  0  0  0  0  0  0  0  0  0
   -0.8501    0.1265    0.9163 N   0  0  0  0  0  0  0  0  0  0  0  0
   -2.0074   -0.5200    1.2462 C   0  0  0  0  0  0  0  0  0  0  0  0
   -1.8413   -1.3845    2.2705 O   0  0  0  0  0  0  0  0  0  0  0  0
   -3.3578   -0.5078    0.7704 C   0  0  0  0  0  0  0  0  0  0  0  0
   -4.4195   -0.0531    1.5726 C   0  0  0  0  0  0  0  0  0  0  0  0
   -5.7288   -0.0810    1.1409 C   0  0  0  0  0  0  0  0  0  0  0  0
   -6.0519   -0.5620   -0.1087 C   0  0  0  0  0  0  0  0  0  0  0  0
   -7.3445   -0.6012   -0.5343 F   0  0  0  0  0  0  0  0  0  0  0  0
   -5.0174   -1.0143   -0.9093 C   0  0  0  0  0  0  0  0  0  0  0  0
   -5.3644   -1.4868   -2.1488 F   0  0  0  0  0  0  0  0  0  0  0  0
   -3.7082   -0.9865   -0.4805 C   0  0  0  0  0  0  0  0  0  0  0  0
   -0.6893    1.1346   -0.0899 C   0  0  2  0  0  0  0  0  0  0  0  0
   -1.8918    1.5308   -0.8624 C   0  0  0  0  0  0  0  0  0  0  0  0
    4.8870    0.0281   -0.6028 N   0  0  0  0  0  0  0  0  0  0  0  0
    7.0991    0.8060    0.9038 H   0  0  0  0  0  0  0  0  0  0  0  0
    7.4626    0.8820   -0.8480 H   0  0  0  0  0  0  0  0  0  0  0  0
    8.1210   -0.5185    0.1565 H   0  0  0  0  0  0  0  0  0  0  0  0
    2.4874    0.0056    1.5652 H   0  0  0  0  0  0  0  0  0  0  0  0
    1.5391    1.5728    1.3576 H   0  0  0  0  0  0  0  0  0  0  0  0
    0.5765   -1.3173    1.5447 H   0  0  0  0  0  0  0  0  0  0  0  0
    0.2296   -0.0850    2.7540 H   0  0  0  0  0  0  0  0  0  0  0  0
   -4.1406    0.3192    2.5577 H   0  0  0  0  0  0  0  0  0  0  0  0
   -6.5119    0.2743    1.7961 H   0  0  0  0  0  0  0  0  0  0  0  0
   -2.9049   -1.3454   -1.1238 H   0  0  0  0  0  0  0  0  0  0  0  0
   -0.2989    2.0598    0.4395 H   0  0  0  0  0  0  0  0  0  0  0  0
   -2.7454    1.6244   -0.1789 H   0  0  0  0  0  0  0  0  0  0  0  0
   -2.0580    0.9130   -1.7625 H   0  0  0  0  0  0  0  0  0  0  0  0
   -1.7014    2.5794   -1.2230 H   0  0  0  0  0  0  0  0  0  0  0  0
  1  2  1  0
  2  3  2  0
  3  4  1  0
  4  5  1  0
  5  6  1  0
  6  7  2  0
  7  8  1  0
  8  9  2  0
  9 10  1  0
 10 11  1  0
 11 12  1  0
 12 13  1  0
 13 14  1  0
 14 15  2  0
 14 16  1  0
 16 17  2  0
 17 18  1  0
 18 19  2  0
 19 20  1  0
 19 21  1  0
 21 22  1  0
 21 23  2  0
 13 24  1  0
 24 25  1  0
  5 26  2  0
 26  2  1  0
 10  6  1  0
 23 16  1  0
 24  9  1  0
  1 27  1  0
  1 28  1  0
  1 29  1  0
 11 30  1  0
 11 31  1  0
 12 32  1  0
 12 33  1  0
 17 34  1  0
 18 35  1  0
 23 36  1  0
 24 37  1  1
 25 38  1  0
 25 39  1  0
 25 40  1  0
M  END
$$$$
