
     RDKit          3D

 49 52  0  0  0  0  0  0  0  0999 V2000
   -7.2808    4.0601   -0.5804 N   0  0  0  0  0  0  0  0  0  0  0  0
   -6.4386    3.4040    0.3403 C   0  0  0  0  0  0  0  0  0  0  0  0
   -6.0188    4.0118    1.3350 O   0  0  0  0  0  0  0  0  0  0  0  0
   -6.0647    1.9931    0.1075 C   0  0  0  0  0  0  0  0  0  0  0  0
   -6.5279    1.3110   -0.9966 C   0  0  0  0  0  0  0  0  0  0  0  0
   -6.1970    0.0302   -1.2206 N   0  0  0  0  0  0  0  0  0  0  0  0
   -5.3829   -0.6328   -0.3464 C   0  0  0  0  0  0  0  0  0  0  0  0
   -4.8787   -0.0254    0.7769 C   0  0  0  0  0  0  0  0  0  0  0  0
   -4.0745   -0.5945    1.6851 O   0  0  0  0  0  0  0  0  0  0  0  0
   -3.4514   -1.7555    1.9521 C   0  0  0  0  0  0  0  0  0  0  0  0
   -2.4457   -2.1544    0.9174 C   0  0  0  0  0  0  0  0  0  0  0  0
   -2.7503   -3.0614   -0.0664 C   0  0  0  0  0  0  0  0  0  0  0  0
   -1.8462   -3.4284   -1.0244 C   0  0  0  0  0  0  0  0  0  0  0  0
   -0.5739   -2.8450   -0.9773 C   0  0  0  0  0  0  0  0  0  0  0  0
   -0.2201   -1.9342   -0.0149 C   0  0  0  0  0  0  0  0  0  0  0  0
    1.0521   -1.3255    0.0646 N   0  0  0  0  0  0  0  0  0  0  0  0
    2.1543   -1.5128   -0.7732 C   0  0  0  0  0  0  0  0  0  0  0  0
    2.0697   -2.3109   -1.7396 O   0  0  0  0  0  0  0  0  0  0  0  0
    3.4210   -0.7847   -0.5393 C   0  0  0  0  0  0  0  0  0  0  0  0
    3.6021    0.0906    0.4724 C   0  0  0  0  0  0  0  0  0  0  0  0
    4.8381    0.7289    0.6091 C   0  0  0  0  0  0  0  0  0  0  0  0
    5.8533    0.4769   -0.2634 C   0  0  0  0  0  0  0  0  0  0  0  0
    7.1727    1.1408   -0.1397 C   0  0  0  0  0  0  0  0  0  0  0  0
    8.2669    1.0192   -0.8898 C   0  0  0  0  0  0  0  0  0  0  0  0
    9.3719    1.7181   -0.6049 C   0  0  0  0  0  0  0  0  0  0  0  0
    9.2902    2.5713    0.5220 C   0  0  0  0  0  0  0  0  0  0  0  0
    7.6228    2.2926    1.0765 S   0  0  0  0  0  0  0  0  0  0  0  0
    5.6719   -0.3783   -1.2496 N   0  0  0  0  0  0  0  0  0  0  0  0
    4.4931   -1.0140   -1.4141 C   0  0  0  0  0  0  0  0  0  0  0  0
   -1.1799   -1.6027    0.9281 C   0  0  0  0  0  0  0  0  0  0  0  0
   -5.2546    1.3270    0.9732 C   0  0  0  0  0  0  0  0  0  0  0  0
   -8.3049    3.9659   -0.4945 H   0  0  0  0  0  0  0  0  0  0  0  0
   -6.8853    4.6344   -1.3404 H   0  0  0  0  0  0  0  0  0  0  0  0
   -7.1786    1.8581   -1.6854 H   0  0  0  0  0  0  0  0  0  0  0  0
   -5.1292   -1.6667   -0.5263 H   0  0  0  0  0  0  0  0  0  0  0  0
   -2.9001   -1.7271    2.9507 H   0  0  0  0  0  0  0  0  0  0  0  0
   -4.2379   -2.5782    2.0248 H   0  0  0  0  0  0  0  0  0  0  0  0
   -3.7498   -3.5266   -0.0973 H   0  0  0  0  0  0  0  0  0  0  0  0
   -2.0943   -4.1564   -1.8125 H   0  0  0  0  0  0  0  0  0  0  0  0
    0.1167   -3.1671   -1.7620 H   0  0  0  0  0  0  0  0  0  0  0  0
    1.1719   -0.6365    0.8733 H   0  0  0  0  0  0  0  0  0  0  0  0
    2.8061    0.3187    1.1953 H   0  0  0  0  0  0  0  0  0  0  0  0
    4.9468    1.4193    1.4258 H   0  0  0  0  0  0  0  0  0  0  0  0
    8.2382    0.3109   -1.7728 H   0  0  0  0  0  0  0  0  0  0  0  0
   10.3222    1.6538   -1.2040 H   0  0  0  0  0  0  0  0  0  0  0  0
   10.0762    3.2493    0.9541 H   0  0  0  0  0  0  0  0  0  0  0  0
    4.3589   -1.7191   -2.2356 H   0  0  0  0  0  0  0  0  0  0  0  0
   -0.9723   -0.8861    1.7237 H   0  0  0  0  0  0  0  0  0  0  0  0
   -4.8789    1.8387    1.8450 H   0  0  0  0  0  0  0  0  0  0  0  0
  1  2  1  0
  2  3  2  0
  2  4  1  0
  4  5  2  0
  5  6  1  0
  6  7  2  0
  7  8  1  0
  8  9  1  0
  9 10  1  0
 10 11  1  0
 11 12  2  0
 12 13  1  0
 13 14  2  0
 14 15  1  0
 15 16  1  0
 16 17  1  0
 17 18  2  0
 17 19  1  0
 19 20  2  0
 20 21  1  0
 21 22  2  0
 22 23  1  0
 23 24  2  0
 24 25  1  0
 25 26  2  0
 26 27  1  0
 22 28  1  0
 28 29  2  0
 15 30  2  0
  8 31  2  0
 31  4  1  0
 30 11  1  0
 29 19  1  0
 27 23  1  0
  1 32  1  0
  1 33  1  0
  5 34  1  0
  7 35  1  0
 10 36  1  0
 10 37  1  0
 12 38  1  0
 13 39  1  0
 14 40  1  0
 16 41  1  0
 20 42  1  0
 21 43  1  0
 24 44  1  0
 25 45  1  0
 26 46  1  0
 29 47  1  0
 30 48  1  0
 31 49  1  0
M  END
$$$$
