
     RDKit          3D

 48 50  0  0  0  0  0  0  0  0999 V2000
    7.8622   -2.2407    0.8143 C   0  0  0  0  0  0  0  0  0  0  0  0
    6.5333   -1.7201    1.0637 N   0  0  0  0  0  0  0  0  0  0  0  0
    5.6475   -1.4072    0.0041 C   0  0  0  0  0  0  0  0  0  0  0  0
    6.2393   -1.6667   -1.0995 O   0  0  0  0  0  0  0  0  0  0  0  0
    4.3122   -0.8887    0.0879 C   0  0  0  0  0  0  0  0  0  0  0  0
    3.5512   -0.5640    1.1786 C   0  0  0  0  0  0  0  0  0  0  0  0
    4.1410   -0.7587    2.3675 F   0  0  0  0  0  0  0  0  0  0  0  0
    2.2671   -0.0691    1.1260 C   0  0  0  0  0  0  0  0  0  0  0  0
    1.6605    0.1312   -0.0960 C   0  0  0  0  0  0  0  0  0  0  0  0
    2.3959   -0.1845   -1.2182 C   0  0  0  0  0  0  0  0  0  0  0  0
    3.6802   -0.6789   -1.1447 C   0  0  0  0  0  0  0  0  0  0  0  0
    0.3449    0.6366   -0.2078 N   0  0  0  0  0  0  0  0  0  0  0  0
   -0.8568   -0.1379   -0.2443 C   0  0  0  0  0  0  0  0  0  0  0  0
   -0.8866   -1.7039   -0.6935 S   0  0  0  0  0  0  0  0  0  0  0  0
   -1.9742    0.6367    0.1553 N   0  0  0  0  0  0  0  0  0  0  0  0
   -1.4093    1.9065    0.4355 C   0  0  0  0  0  0  0  0  0  0  0  0
   -1.7812    2.8610    1.1402 O   0  0  0  0  0  0  0  0  0  0  0  0
   -0.1055    2.0306   -0.3110 C   0  0  0  0  0  0  0  0  0  0  0  0
   -0.4419    2.4022   -1.7245 C   0  0  0  0  0  0  0  0  0  0  0  0
    0.8501    2.9719    0.3408 C   0  0  0  0  0  0  0  0  0  0  0  0
   -3.3466    0.3202    0.2745 C   0  0  0  0  0  0  0  0  0  0  0  0
   -4.2339    1.2961    0.6694 C   0  0  0  0  0  0  0  0  0  0  0  0
   -5.5854    1.0816    0.8154 C   0  0  0  0  0  0  0  0  0  0  0  0
   -6.1278   -0.1695    0.5621 C   0  0  0  0  0  0  0  0  0  0  0  0
   -7.5302   -0.4376    0.7014 C   0  0  0  0  0  0  0  0  0  0  0  0
   -8.6519   -0.6674    0.8265 N   0  0  0  0  0  0  0  0  0  0  0  0
   -5.2656   -1.1701    0.1642 C   0  0  0  0  0  0  0  0  0  0  0  0
   -3.9233   -0.8869    0.0380 C   0  0  0  0  0  0  0  0  0  0  0  0
   -5.8278   -2.5210   -0.1129 C   0  0  0  0  0  0  0  0  0  0  0  0
   -6.4216   -2.9446    1.0834 F   0  0  0  0  0  0  0  0  0  0  0  0
   -4.8697   -3.3965   -0.5344 F   0  0  0  0  0  0  0  0  0  0  0  0
   -6.8640   -2.3700   -1.0254 F   0  0  0  0  0  0  0  0  0  0  0  0
    8.5732   -1.3804    0.7636 H   0  0  0  0  0  0  0  0  0  0  0  0
    7.8850   -2.7893   -0.1420 H   0  0  0  0  0  0  0  0  0  0  0  0
    8.1776   -2.9059    1.6568 H   0  0  0  0  0  0  0  0  0  0  0  0
    6.2046   -1.5659    2.0383 H   0  0  0  0  0  0  0  0  0  0  0  0
    1.7586    0.1534    2.0504 H   0  0  0  0  0  0  0  0  0  0  0  0
    1.9505   -0.0396   -2.1917 H   0  0  0  0  0  0  0  0  0  0  0  0
    4.1872   -0.9015   -2.0958 H   0  0  0  0  0  0  0  0  0  0  0  0
   -1.2285    3.2099   -1.7211 H   0  0  0  0  0  0  0  0  0  0  0  0
   -0.8612    1.5470   -2.2797 H   0  0  0  0  0  0  0  0  0  0  0  0
    0.4306    2.8546   -2.2704 H   0  0  0  0  0  0  0  0  0  0  0  0
    1.8808    2.6473    0.1338 H   0  0  0  0  0  0  0  0  0  0  0  0
    0.6336    3.0687    1.4167 H   0  0  0  0  0  0  0  0  0  0  0  0
    0.6683    3.9862   -0.0965 H   0  0  0  0  0  0  0  0  0  0  0  0
   -3.9912    2.3208    0.9053 H   0  0  0  0  0  0  0  0  0  0  0  0
   -6.3156    1.8160    1.1221 H   0  0  0  0  0  0  0  0  0  0  0  0
   -3.3358   -1.7119   -0.2711 H   0  0  0  0  0  0  0  0  0  0  0  0
  1  2  1  0
  2  3  1  0
  3  4  2  0
  3  5  1  0
  5  6  2  0
  6  7  1  0
  6  8  1  0
  8  9  2  0
  9 10  1  0
 10 11  2  0
  9 12  1  0
 12 13  1  0
 13 14  2  0
 13 15  1  0
 15 16  1  0
 16 17  2  0
 16 18  1  0
 18 19  1  0
 18 20  1  0
 15 21  1  0
 21 22  2  0
 22 23  1  0
 23 24  2  0
 24 25  1  0
 25 26  3  0
 24 27  1  0
 27 28  2  0
 27 29  1  0
 29 30  1  0
 29 31  1  0
 29 32  1  0
 11  5  1  0
 18 12  1  0
 28 21  1  0
  1 33  1  0
  1 34  1  0
  1 35  1  0
  2 36  1  0
  8 37  1  0
 10 38  1  0
 11 39  1  0
 19 40  1  0
 19 41  1  0
 19 42  1  0
 20 43  1  0
 20 44  1  0
 20 45  1  0
 22 46  1  0
 23 47  1  0
 28 48  1  0
M  END
$$$$
