
     RDKit          3D

 55 60  0  0  0  0  0  0  0  0999 V2000
   -6.5520   -1.3702    0.2579 C   0  0  0  0  0  0  0  0  0  0  0  0
   -6.4109   -0.0039   -0.3650 C   0  0  0  0  0  0  0  0  0  0  0  0
   -7.5576    0.8407    0.2122 C   0  0  0  0  0  0  0  0  0  0  0  0
   -5.1939    0.5942   -0.1515 O   0  0  0  0  0  0  0  0  0  0  0  0
   -4.5166    0.8719   -1.3456 C   0  0  0  0  0  0  0  0  0  0  0  0
   -3.2142    1.5134   -1.1043 C   0  0  0  0  0  0  0  0  0  0  0  0
   -3.0923    2.8723   -1.3102 C   0  0  0  0  0  0  0  0  0  0  0  0
   -1.8987    3.5258   -1.0965 C   0  0  0  0  0  0  0  0  0  0  0  0
   -0.8201    2.7892   -0.6697 C   0  0  0  0  0  0  0  0  0  0  0  0
   -0.9415    1.4312   -0.4640 C   0  0  0  0  0  0  0  0  0  0  0  0
   -0.0704    0.4702   -0.0552 N   0  0  0  0  0  0  0  0  0  0  0  0
   -0.6606   -0.7336   -0.0061 C   0  0  0  0  0  0  0  0  0  0  0  0
   -0.0723   -2.0162    0.3837 C   0  0  0  0  0  0  0  0  0  0  0  0
   -0.6120   -3.2213    0.4505 N   0  0  0  0  0  0  0  0  0  0  0  0
    0.2681   -4.1270    0.8554 N   0  0  0  0  0  0  0  0  0  0  0  0
    1.4417   -3.4951    1.0661 C   0  0  0  0  0  0  0  0  0  0  0  0
    2.6752   -3.8702    1.4738 N   0  0  0  0  0  0  0  0  0  0  0  0
    3.6837   -2.9892    1.5940 C   0  0  0  0  0  0  0  0  0  0  0  0
    3.5478   -1.6419    1.3146 C   0  0  0  0  0  0  0  0  0  0  0  0
    4.6712   -0.7312    1.4820 C   0  0  0  0  0  0  0  0  0  0  0  0
    5.3071   -0.6677    2.7035 C   0  0  0  0  0  0  0  0  0  0  0  0
    6.3267    0.1725    2.9287 N   0  0  0  0  0  0  0  0  0  0  0  0
    6.7802    0.9989    1.9650 C   0  0  0  0  0  0  0  0  0  0  0  0
    6.1761    0.9688    0.7308 C   0  0  0  0  0  0  0  0  0  0  0  0
    6.6409    1.8113   -0.2769 C   0  0  0  0  0  0  0  0  0  0  0  0
    6.0400    1.7737   -1.5178 C   0  0  0  0  0  0  0  0  0  0  0  0
    4.9990    0.9192   -1.7584 C   0  0  0  0  0  0  0  0  0  0  0  0
    4.5258    0.0752   -0.7653 C   0  0  0  0  0  0  0  0  0  0  0  0
    5.1229    0.1161    0.4624 C   0  0  0  0  0  0  0  0  0  0  0  0
    2.2908   -1.2440    0.8970 C   0  0  0  0  0  0  0  0  0  0  0  0
    1.2472   -2.1582    0.7730 C   0  0  0  0  0  0  0  0  0  0  0  0
   -1.9322   -0.5392   -0.3903 N   0  0  0  0  0  0  0  0  0  0  0  0
   -2.1370    0.7609   -0.6751 C   0  0  0  0  0  0  0  0  0  0  0  0
   -7.4242   -1.8805   -0.2166 H   0  0  0  0  0  0  0  0  0  0  0  0
   -5.6259   -1.9733    0.1780 H   0  0  0  0  0  0  0  0  0  0  0  0
   -6.8539   -1.1957    1.3302 H   0  0  0  0  0  0  0  0  0  0  0  0
   -6.5674   -0.1367   -1.4685 H   0  0  0  0  0  0  0  0  0  0  0  0
   -7.4610    0.7399    1.3136 H   0  0  0  0  0  0  0  0  0  0  0  0
   -7.4604    1.9057   -0.0722 H   0  0  0  0  0  0  0  0  0  0  0  0
   -8.5009    0.3756   -0.1532 H   0  0  0  0  0  0  0  0  0  0  0  0
   -4.3714   -0.0941   -1.8841 H   0  0  0  0  0  0  0  0  0  0  0  0
   -5.1228    1.5344   -1.9860 H   0  0  0  0  0  0  0  0  0  0  0  0
   -3.9344    3.4819   -1.6497 H   0  0  0  0  0  0  0  0  0  0  0  0
   -1.8529    4.5936   -1.2720 H   0  0  0  0  0  0  0  0  0  0  0  0
    0.1337    3.2615   -0.4901 H   0  0  0  0  0  0  0  0  0  0  0  0
    0.1258   -5.1618    1.0011 H   0  0  0  0  0  0  0  0  0  0  0  0
    4.6832   -3.3033    1.9254 H   0  0  0  0  0  0  0  0  0  0  0  0
    4.9716   -1.3125    3.4957 H   0  0  0  0  0  0  0  0  0  0  0  0
    7.6044    1.6913    2.1165 H   0  0  0  0  0  0  0  0  0  0  0  0
    7.4642    2.4777   -0.0646 H   0  0  0  0  0  0  0  0  0  0  0  0
    6.4326    2.4445   -2.2712 H   0  0  0  0  0  0  0  0  0  0  0  0
    4.5437    0.9060   -2.7385 H   0  0  0  0  0  0  0  0  0  0  0  0
    3.7236   -0.5853   -0.9791 H   0  0  0  0  0  0  0  0  0  0  0  0
    2.0978   -0.2036    0.6678 H   0  0  0  0  0  0  0  0  0  0  0  0
   -2.6675   -1.2618   -0.4664 H   0  0  0  0  0  0  0  0  0  0  0  0
  1  2  1  0
  2  3  1  0
  2  4  1  0
  4  5  1  0
  5  6  1  0
  6  7  2  0
  7  8  1  0
  8  9  2  0
  9 10  1  0
 10 11  1  0
 11 12  2  0
 12 13  1  0
 13 14  2  0
 14 15  1  0
 15 16  1  0
 16 17  2  0
 17 18  1  0
 18 19  2  0
 19 20  1  0
 20 21  2  0
 21 22  1  0
 22 23  2  0
 23 24  1  0
 24 25  2  0
 25 26  1  0
 26 27  2  0
 27 28  1  0
 28 29  2  0
 19 30  1  0
 30 31  2  0
 12 32  1  0
 32 33  1  0
 33  6  1  0
 33 10  2  0
 31 13  1  0
 31 16  1  0
 29 20  1  0
 29 24  1  0
  1 34  1  0
  1 35  1  0
  1 36  1  0
  2 37  1  0
  3 38  1  0
  3 39  1  0
  3 40  1  0
  5 41  1  0
  5 42  1  0
  7 43  1  0
  8 44  1  0
  9 45  1  0
 15 46  1  0
 18 47  1  0
 21 48  1  0
 23 49  1  0
 25 50  1  0
 26 51  1  0
 27 52  1  0
 28 53  1  0
 30 54  1  0
 32 55  1  0
M  END
$$$$
