
     RDKit          3D

 58 62  0  0  0  0  0  0  0  0999 V2000
   -1.9829   -1.3231   -0.7546 O   0  0  0  0  0  0  0  0  0  0  0  0
   -2.3321   -0.6827    0.2743 C   0  0  0  0  0  0  0  0  0  0  0  0
   -3.6486   -0.0216    0.3679 C   0  0  0  0  0  0  0  0  0  0  0  0
   -4.4883   -0.2330   -0.8648 C   0  0  0  0  0  0  0  0  0  0  0  0
   -5.8029    0.4486   -0.7530 C   0  0  0  0  0  0  0  0  0  0  0  0
   -6.1137    1.7761   -0.9314 C   0  0  0  0  0  0  0  0  0  0  0  0
   -5.2088    2.8358   -1.3118 C   0  0  0  0  0  0  0  0  0  0  0  0
   -5.6245    4.0302   -1.4456 O   0  0  0  0  0  0  0  0  0  0  0  0
   -3.8567    2.6349   -1.5539 O   0  0  0  0  0  0  0  0  0  0  0  0
   -7.4444    1.9742   -0.7052 N   0  0  0  0  0  0  0  0  0  0  0  0
   -7.9888    0.7879   -0.3848 C   0  0  0  0  0  0  0  0  0  0  0  0
   -9.2910    0.4228   -0.0626 C   0  0  0  0  0  0  0  0  0  0  0  0
   -9.5581   -0.8852    0.2258 C   0  0  0  0  0  0  0  0  0  0  0  0
   -8.5837   -1.8723    0.2118 C   0  0  0  0  0  0  0  0  0  0  0  0
   -7.2967   -1.4835   -0.1117 C   0  0  0  0  0  0  0  0  0  0  0  0
   -7.0006   -0.1801   -0.4049 C   0  0  0  0  0  0  0  0  0  0  0  0
   -1.4386   -0.6002    1.3586 N   0  0  0  0  0  0  0  0  0  0  0  0
   -0.1484   -1.1881    1.3948 C   0  0  0  0  0  0  0  0  0  0  0  0
    0.0344   -2.4923    1.8608 C   0  0  0  0  0  0  0  0  0  0  0  0
    1.2664   -3.0704    1.9065 C   0  0  0  0  0  0  0  0  0  0  0  0
    2.3616   -2.3368    1.4771 C   0  0  0  0  0  0  0  0  0  0  0  0
    2.2364   -1.0653    1.0155 C   0  0  0  0  0  0  0  0  0  0  0  0
    3.3980   -0.3119    0.5746 C   0  0  0  0  0  0  0  0  0  0  0  0
    4.6403   -0.7341    0.5673 C   0  0  0  0  0  0  0  0  0  0  0  0
    5.7916    0.0431    0.1190 C   0  0  0  0  0  0  0  0  0  0  0  0
    5.7106    1.3352   -0.3626 C   0  0  0  0  0  0  0  0  0  0  0  0
    6.9019    1.9480   -0.7493 C   0  0  0  0  0  0  0  0  0  0  0  0
    8.1251    1.3291   -0.6715 C   0  0  0  0  0  0  0  0  0  0  0  0
    9.2996    1.9598   -1.0630 C   0  0  0  0  0  0  0  0  0  0  0  0
   10.5197    1.3184   -0.9764 C   0  0  0  0  0  0  0  0  0  0  0  0
   10.5523    0.0248   -0.4884 C   0  0  0  0  0  0  0  0  0  0  0  0
   12.0784   -0.8613   -0.3482 Cl  0  0  0  0  0  0  0  0  0  0  0  0
    9.3832   -0.5922   -0.1028 C   0  0  0  0  0  0  0  0  0  0  0  0
    8.1501    0.0369   -0.1830 C   0  0  0  0  0  0  0  0  0  0  0  0
    7.0126   -0.5473    0.1860 N   0  0  0  0  0  0  0  0  0  0  0  0
    0.9644   -0.5014    0.9805 C   0  0  0  0  0  0  0  0  0  0  0  0
   -4.2383   -0.4577    1.2115 H   0  0  0  0  0  0  0  0  0  0  0  0
   -3.5222    1.0443    0.6042 H   0  0  0  0  0  0  0  0  0  0  0  0
   -3.9224    0.2362   -1.7232 H   0  0  0  0  0  0  0  0  0  0  0  0
   -4.6121   -1.2847   -1.1300 H   0  0  0  0  0  0  0  0  0  0  0  0
   -3.2359    3.4114   -1.8004 H   0  0  0  0  0  0  0  0  0  0  0  0
   -7.9350    2.8911   -0.7732 H   0  0  0  0  0  0  0  0  0  0  0  0
  -10.0371    1.1991   -0.0556 H   0  0  0  0  0  0  0  0  0  0  0  0
  -10.5752   -1.1720    0.4777 H   0  0  0  0  0  0  0  0  0  0  0  0
   -8.7955   -2.9048    0.4397 H   0  0  0  0  0  0  0  0  0  0  0  0
   -6.5511   -2.2619   -0.1180 H   0  0  0  0  0  0  0  0  0  0  0  0
   -1.7475   -0.0630    2.2077 H   0  0  0  0  0  0  0  0  0  0  0  0
   -0.8451   -3.0516    2.1945 H   0  0  0  0  0  0  0  0  0  0  0  0
    1.3791   -4.0988    2.2782 H   0  0  0  0  0  0  0  0  0  0  0  0
    3.3071   -2.8470    1.5372 H   0  0  0  0  0  0  0  0  0  0  0  0
    3.2740    0.7247    0.1994 H   0  0  0  0  0  0  0  0  0  0  0  0
    4.8154   -1.7462    0.9256 H   0  0  0  0  0  0  0  0  0  0  0  0
    4.7786    1.8428   -0.4356 H   0  0  0  0  0  0  0  0  0  0  0  0
    6.8919    2.9632   -1.1344 H   0  0  0  0  0  0  0  0  0  0  0  0
    9.2477    2.9677   -1.4396 H   0  0  0  0  0  0  0  0  0  0  0  0
   11.4458    1.7899   -1.2752 H   0  0  0  0  0  0  0  0  0  0  0  0
    9.3609   -1.6127    0.2882 H   0  0  0  0  0  0  0  0  0  0  0  0
    0.8992    0.5070    0.6093 H   0  0  0  0  0  0  0  0  0  0  0  0
  1  2  2  0
  2  3  1  0
  3  4  1  0
  4  5  1  0
  5  6  2  0
  6  7  1  0
  7  8  2  0
  7  9  1  0
  6 10  1  0
 10 11  1  0
 11 12  2  0
 12 13  1  0
 13 14  2  0
 14 15  1  0
 15 16  2  0
  2 17  1  0
 17 18  1  0
 18 19  2  0
 19 20  1  0
 20 21  2  0
 21 22  1  0
 22 23  1  0
 23 24  2  0
 24 25  1  0
 25 26  2  0
 26 27  1  0
 27 28  2  0
 28 29  1  0
 29 30  2  0
 30 31  1  0
 31 32  1  0
 31 33  2  0
 33 34  1  0
 34 35  2  0
 22 36  2  0
 16  5  1  0
 36 18  1  0
 16 11  1  0
 35 25  1  0
 34 28  1  0
  3 37  1  0
  3 38  1  0
  4 39  1  0
  4 40  1  0
  9 41  1  0
 10 42  1  0
 12 43  1  0
 13 44  1  0
 14 45  1  0
 15 46  1  0
 17 47  1  0
 19 48  1  0
 20 49  1  0
 21 50  1  0
 23 51  1  0
 24 52  1  0
 26 53  1  0
 27 54  1  0
 29 55  1  0
 30 56  1  0
 33 57  1  0
 36 58  1  0
M  END
$$$$
