
     RDKit          3D

 54 59  0  0  0  0  0  0  0  0999 V2000
    3.2021    4.3868   -0.4791 C   0  0  0  0  0  0  0  0  0  0  0  0
    2.9684    3.0058   -0.0142 C   0  0  0  0  0  0  0  0  0  0  0  0
    1.6816    2.4776    0.0688 C   0  0  0  0  0  0  0  0  0  0  0  0
    1.4367    1.2072    0.4941 C   0  0  0  0  0  0  0  0  0  0  0  0
    0.1092    0.6450    0.5853 N   0  0  0  0  0  0  0  0  0  0  0  0
   -1.0714    1.3150    0.2526 C   0  0  0  0  0  0  0  0  0  0  0  0
   -1.2149    2.5052   -0.2038 O   0  0  0  0  0  0  0  0  0  0  0  0
   -2.1894    0.3891    0.5253 C   0  0  0  0  0  0  0  0  0  0  0  0
   -3.5595    0.3063    0.4880 C   0  0  0  0  0  0  0  0  0  0  0  0
   -4.5209    1.3134    0.0119 C   0  0  0  0  0  0  0  0  0  0  0  0
   -5.3986    0.8145   -1.1393 C   0  0  0  0  0  0  0  0  0  0  0  0
   -5.3213    2.1991   -1.6457 N   0  0  0  0  0  0  0  0  0  0  0  0
   -3.9660    2.2793   -1.0329 C   0  0  0  0  0  0  0  0  0  0  0  0
   -3.8587   -0.9695    0.9676 C   0  0  0  0  0  0  0  0  0  0  0  0
   -2.7176   -1.5955    1.2664 N   0  0  0  0  0  0  0  0  0  0  0  0
   -2.5642   -2.9329    1.7917 C   0  0  0  0  0  0  0  0  0  0  0  0
   -1.6630   -0.7823    1.0037 C   0  0  0  0  0  0  0  0  0  0  0  0
   -0.1963   -0.6698    1.0272 C   0  0  0  0  0  0  0  0  0  0  0  0
    0.3993   -1.7349    0.1878 C   0  0  0  0  0  0  0  0  0  0  0  0
    1.0017   -2.7990    0.8212 C   0  0  0  0  0  0  0  0  0  0  0  0
    1.5867   -3.8435    0.1440 C   0  0  0  0  0  0  0  0  0  0  0  0
    1.5777   -3.8396   -1.2332 C   0  0  0  0  0  0  0  0  0  0  0  0
    2.3093   -5.1466   -2.1616 Cl  0  0  0  0  0  0  0  0  0  0  0  0
    0.9750   -2.7751   -1.8715 C   0  0  0  0  0  0  0  0  0  0  0  0
    0.3892   -1.7289   -1.1742 C   0  0  0  0  0  0  0  0  0  0  0  0
    2.5044    0.4314    0.8501 N   0  0  0  0  0  0  0  0  0  0  0  0
    3.7631    0.8970    0.7868 C   0  0  0  0  0  0  0  0  0  0  0  0
    4.0040    2.1839    0.3554 C   0  0  0  0  0  0  0  0  0  0  0  0
    5.3527    2.3307    0.4108 N   0  0  0  0  0  0  0  0  0  0  0  0
    5.8768    1.2032    0.8468 N   0  0  0  0  0  0  0  0  0  0  0  0
    4.9471    0.3030    1.0884 N   0  0  0  0  0  0  0  0  0  0  0  0
    5.1356   -1.0692    1.5836 C   0  0  0  0  0  0  0  0  0  0  0  0
    2.7513    5.1462    0.1766 H   0  0  0  0  0  0  0  0  0  0  0  0
    2.7503    4.4591   -1.5009 H   0  0  0  0  0  0  0  0  0  0  0  0
    4.2955    4.5510   -0.5555 H   0  0  0  0  0  0  0  0  0  0  0  0
    0.8841    3.1528   -0.2301 H   0  0  0  0  0  0  0  0  0  0  0  0
   -5.1183    1.8336    0.7853 H   0  0  0  0  0  0  0  0  0  0  0  0
   -4.9532    0.0577   -1.7788 H   0  0  0  0  0  0  0  0  0  0  0  0
   -6.4270    0.6512   -0.7596 H   0  0  0  0  0  0  0  0  0  0  0  0
   -5.2549    2.2378   -2.6772 H   0  0  0  0  0  0  0  0  0  0  0  0
   -3.7510    3.2990   -0.6720 H   0  0  0  0  0  0  0  0  0  0  0  0
   -3.2536    1.8606   -1.7481 H   0  0  0  0  0  0  0  0  0  0  0  0
   -4.8812   -1.3223    1.0540 H   0  0  0  0  0  0  0  0  0  0  0  0
   -1.7964   -3.5094    1.2211 H   0  0  0  0  0  0  0  0  0  0  0  0
   -3.5080   -3.5217    1.6834 H   0  0  0  0  0  0  0  0  0  0  0  0
   -2.3462   -2.9263    2.8901 H   0  0  0  0  0  0  0  0  0  0  0  0
    0.1189   -0.8359    2.0991 H   0  0  0  0  0  0  0  0  0  0  0  0
    1.0312   -2.8419    1.9202 H   0  0  0  0  0  0  0  0  0  0  0  0
    2.0615   -4.6821    0.6459 H   0  0  0  0  0  0  0  0  0  0  0  0
    0.9826   -2.7981   -2.9541 H   0  0  0  0  0  0  0  0  0  0  0  0
   -0.0759   -0.9077   -1.6855 H   0  0  0  0  0  0  0  0  0  0  0  0
    4.1367   -1.5555    1.6028 H   0  0  0  0  0  0  0  0  0  0  0  0
    5.6073   -1.0838    2.5699 H   0  0  0  0  0  0  0  0  0  0  0  0
    5.7675   -1.5712    0.7966 H   0  0  0  0  0  0  0  0  0  0  0  0
  1  2  1  0
  2  3  2  0
  3  4  1  0
  4  5  1  0
  5  6  1  0
  6  7  2  0
  6  8  1  0
  8  9  1  0
  9 10  1  0
 10 11  1  0
 11 12  1  0
 12 13  1  0
  9 14  2  0
 14 15  1  0
 15 16  1  0
 15 17  1  0
 17 18  1  0
 18 19  1  0
 19 20  2  0
 20 21  1  0
 21 22  2  0
 22 23  1  0
 22 24  1  0
 24 25  2  0
  4 26  2  0
 26 27  1  0
 27 28  2  0
 28 29  1  0
 29 30  2  0
 30 31  1  0
 31 32  1  0
 28  2  1  0
 18  5  1  0
 25 19  1  0
 31 27  1  0
 17  8  2  0
 13 10  1  0
  1 33  1  0
  1 34  1  0
  1 35  1  0
  3 36  1  0
 10 37  1  0
 11 38  1  0
 11 39  1  0
 12 40  1  0
 13 41  1  0
 13 42  1  0
 14 43  1  0
 16 44  1  0
 16 45  1  0
 16 46  1  0
 18 47  1  0
 20 48  1  0
 21 49  1  0
 24 50  1  0
 25 51  1  0
 32 52  1  0
 32 53  1  0
 32 54  1  0
M  END
$$$$
