
     RDKit          3D

 55 57  0  0  0  0  0  0  0  0999 V2000
   -4.8215   -2.5790    0.8326 C   0  0  0  0  0  0  0  0  0  0  0  0
   -4.0565   -2.1930   -0.3387 N   0  0  0  0  0  0  0  0  0  0  0  0
   -4.9563   -1.4724   -1.2229 C   0  0  0  0  0  0  0  0  0  0  0  0
   -2.9587   -1.3520    0.1051 C   0  0  0  0  0  0  0  0  0  0  0  0
   -2.1180   -0.9085   -1.0384 C   0  0  0  0  0  0  0  0  0  0  0  0
   -0.9548   -0.0345   -0.6949 C   0  0  0  0  0  0  0  0  0  0  0  0
   -1.3913    1.2228   -0.0317 C   0  0  0  0  0  0  0  0  0  0  0  0
   -1.6616    2.4029   -0.7217 C   0  0  0  0  0  0  0  0  0  0  0  0
   -2.0705    3.5615   -0.0868 C   0  0  0  0  0  0  0  0  0  0  0  0
   -2.2218    3.5745    1.2624 C   0  0  0  0  0  0  0  0  0  0  0  0
   -1.9683    2.4337    2.0012 C   0  0  0  0  0  0  0  0  0  0  0  0
   -1.5634    1.2997    1.3359 C   0  0  0  0  0  0  0  0  0  0  0  0
   -0.3196    0.3538   -2.0196 C   0  0  0  0  0  0  0  0  0  0  0  0
    0.2539   -0.8385   -2.7627 C   0  0  0  0  0  0  0  0  0  0  0  0
    1.0389   -1.7581   -1.8723 C   0  0  0  0  0  0  0  0  0  0  0  0
    1.2889   -1.0314   -0.6442 N   0  0  0  0  0  0  0  0  0  0  0  0
    2.6097   -0.6954   -0.3086 C   0  0  0  0  0  0  0  0  0  0  0  0
    3.5399   -1.0353   -1.0851 O   0  0  0  0  0  0  0  0  0  0  0  0
    3.0117    0.0110    0.8552 N   0  0  0  0  0  0  0  0  0  0  0  0
    4.3562    0.3406    1.1750 C   0  0  0  0  0  0  0  0  0  0  0  0
    4.9253    1.5252    0.7577 C   0  0  0  0  0  0  0  0  0  0  0  0
    6.2197    1.8919    1.0395 C   0  0  0  0  0  0  0  0  0  0  0  0
    6.9860    1.0105    1.7874 C   0  0  0  0  0  0  0  0  0  0  0  0
    8.6480    1.4067    2.1886 Cl  0  0  0  0  0  0  0  0  0  0  0  0
    6.4434   -0.1829    2.2191 C   0  0  0  0  0  0  0  0  0  0  0  0
    5.1412   -0.5353    1.9269 C   0  0  0  0  0  0  0  0  0  0  0  0
    0.1053   -0.7181    0.1340 C   0  0  0  0  0  0  0  0  0  0  0  0
   -5.3662   -3.5279    0.6903 H   0  0  0  0  0  0  0  0  0  0  0  0
   -4.0913   -2.6402    1.6793 H   0  0  0  0  0  0  0  0  0  0  0  0
   -5.4946   -1.7229    1.0788 H   0  0  0  0  0  0  0  0  0  0  0  0
   -5.2500   -0.4898   -0.8233 H   0  0  0  0  0  0  0  0  0  0  0  0
   -4.4473   -1.4052   -2.2188 H   0  0  0  0  0  0  0  0  0  0  0  0
   -5.8717   -2.0850   -1.3540 H   0  0  0  0  0  0  0  0  0  0  0  0
   -2.4479   -1.8804    0.9018 H   0  0  0  0  0  0  0  0  0  0  0  0
   -3.4415   -0.4496    0.5753 H   0  0  0  0  0  0  0  0  0  0  0  0
   -2.7582   -0.3451   -1.7483 H   0  0  0  0  0  0  0  0  0  0  0  0
   -1.7714   -1.8122   -1.5798 H   0  0  0  0  0  0  0  0  0  0  0  0
   -1.5532    2.4290   -1.7768 H   0  0  0  0  0  0  0  0  0  0  0  0
   -2.2640    4.4425   -0.6783 H   0  0  0  0  0  0  0  0  0  0  0  0
   -2.5398    4.4494    1.8266 H   0  0  0  0  0  0  0  0  0  0  0  0
   -2.0909    2.4496    3.0800 H   0  0  0  0  0  0  0  0  0  0  0  0
   -1.3712    0.4169    1.9230 H   0  0  0  0  0  0  0  0  0  0  0  0
    0.4149    1.1549   -1.8881 H   0  0  0  0  0  0  0  0  0  0  0  0
   -1.1913    0.6639   -2.6733 H   0  0  0  0  0  0  0  0  0  0  0  0
    0.9939   -0.4030   -3.4962 H   0  0  0  0  0  0  0  0  0  0  0  0
   -0.4942   -1.3609   -3.3787 H   0  0  0  0  0  0  0  0  0  0  0  0
    1.9700   -2.1268   -2.3413 H   0  0  0  0  0  0  0  0  0  0  0  0
    0.4664   -2.6785   -1.5845 H   0  0  0  0  0  0  0  0  0  0  0  0
    2.2779    0.3119    1.5257 H   0  0  0  0  0  0  0  0  0  0  0  0
    4.3158    2.2041    0.1746 H   0  0  0  0  0  0  0  0  0  0  0  0
    6.6469    2.8315    0.6995 H   0  0  0  0  0  0  0  0  0  0  0  0
    7.0506   -0.8567    2.7987 H   0  0  0  0  0  0  0  0  0  0  0  0
    4.6785   -1.4412    2.2359 H   0  0  0  0  0  0  0  0  0  0  0  0
   -0.2423   -1.7052    0.5265 H   0  0  0  0  0  0  0  0  0  0  0  0
    0.3663   -0.1236    1.0327 H   0  0  0  0  0  0  0  0  0  0  0  0
  1  2  1  0
  2  3  1  0
  2  4  1  0
  4  5  1  0
  5  6  1  0
  6  7  1  0
  7  8  2  0
  8  9  1  0
  9 10  2  0
 10 11  1  0
 11 12  2  0
  6 13  1  0
 13 14  1  0
 14 15  1  0
 15 16  1  0
 16 17  1  0
 17 18  2  0
 17 19  1  0
 19 20  1  0
 20 21  2  0
 21 22  1  0
 22 23  2  0
 23 24  1  0
 23 25  1  0
 25 26  2  0
 16 27  1  0
 27  6  1  0
 12  7  1  0
 26 20  1  0
  1 28  1  0
  1 29  1  0
  1 30  1  0
  3 31  1  0
  3 32  1  0
  3 33  1  0
  4 34  1  0
  4 35  1  0
  5 36  1  0
  5 37  1  0
  8 38  1  0
  9 39  1  0
 10 40  1  0
 11 41  1  0
 12 42  1  0
 13 43  1  0
 13 44  1  0
 14 45  1  0
 14 46  1  0
 15 47  1  0
 15 48  1  0
 19 49  1  0
 21 50  1  0
 22 51  1  0
 25 52  1  0
 26 53  1  0
 27 54  1  0
 27 55  1  0
M  END
$$$$
