
     RDKit          3D

 41 41  0  0  0  0  0  0  0  0999 V2000
   -5.0764   -0.6793   -0.1126 C   0  0  0  0  0  0  0  0  0  0  0  0
   -3.5868   -0.2655   -0.1208 C   0  0  0  0  0  0  0  0  0  0  0  0
   -3.2686    0.1201   -1.5353 C   0  0  0  0  0  0  0  0  0  0  0  0
   -2.8747   -1.3837    0.3635 N   0  0  0  0  0  0  0  0  0  0  0  0
   -1.4723   -1.3419    0.4633 C   0  0  0  0  0  0  0  0  0  0  0  0
   -1.0241   -0.3841    1.5360 C   0  0  0  0  0  0  0  0  0  0  0  0
   -1.4105    0.9031    1.3042 O   0  0  0  0  0  0  0  0  0  0  0  0
    0.4491   -0.4681    1.7934 C   0  0  0  0  0  0  0  0  0  0  0  0
    1.3171   -0.0584    0.8422 O   0  0  0  0  0  0  0  0  0  0  0  0
    1.6866    1.0154    0.1754 C   0  0  0  0  0  0  0  0  0  0  0  0
    1.3415    2.3451    0.1399 C   0  0  0  0  0  0  0  0  0  0  0  0
    1.8430    3.3543   -0.6359 C   0  0  0  0  0  0  0  0  0  0  0  0
    2.8392    2.9509   -1.4988 C   0  0  0  0  0  0  0  0  0  0  0  0
    3.2943    1.6548   -1.5798 C   0  0  0  0  0  0  0  0  0  0  0  0
    2.7063    0.7034   -0.7355 C   0  0  0  0  0  0  0  0  0  0  0  0
    3.2739   -0.6776   -0.8979 C   0  0  0  0  0  0  0  0  0  0  0  0
    4.1977   -1.0273    0.1907 C   0  0  0  0  0  0  0  0  0  0  0  0
    3.9315   -2.0850    0.9695 C   0  0  0  0  0  0  0  0  0  0  0  0
   -5.6250   -0.1727   -0.9170 H   0  0  0  0  0  0  0  0  0  0  0  0
   -5.1431   -1.7732   -0.2843 H   0  0  0  0  0  0  0  0  0  0  0  0
   -5.5539   -0.3736    0.8467 H   0  0  0  0  0  0  0  0  0  0  0  0
   -3.5648    0.6507    0.5009 H   0  0  0  0  0  0  0  0  0  0  0  0
   -4.2014    0.4835   -2.0131 H   0  0  0  0  0  0  0  0  0  0  0  0
   -2.9746   -0.7897   -2.1014 H   0  0  0  0  0  0  0  0  0  0  0  0
   -2.5312    0.9362   -1.6429 H   0  0  0  0  0  0  0  0  0  0  0  0
   -3.3794   -1.8725    1.1031 H   0  0  0  0  0  0  0  0  0  0  0  0
   -1.1096   -2.3595    0.7742 H   0  0  0  0  0  0  0  0  0  0  0  0
   -0.9434   -1.0475   -0.4640 H   0  0  0  0  0  0  0  0  0  0  0  0
   -1.5129   -0.7238    2.4993 H   0  0  0  0  0  0  0  0  0  0  0  0
   -1.2486    1.1315    0.3564 H   0  0  0  0  0  0  0  0  0  0  0  0
    0.6936   -1.4976    2.2103 H   0  0  0  0  0  0  0  0  0  0  0  0
    0.6141    0.1762    2.7232 H   0  0  0  0  0  0  0  0  0  0  0  0
    0.5675    2.6085    0.8448 H   0  0  0  0  0  0  0  0  0  0  0  0
    1.4538    4.3561   -0.5368 H   0  0  0  0  0  0  0  0  0  0  0  0
    3.2857    3.6944   -2.1457 H   0  0  0  0  0  0  0  0  0  0  0  0
    4.0792    1.4326   -2.2861 H   0  0  0  0  0  0  0  0  0  0  0  0
    2.4292   -1.4000   -0.9479 H   0  0  0  0  0  0  0  0  0  0  0  0
    3.8008   -0.7766   -1.8624 H   0  0  0  0  0  0  0  0  0  0  0  0
    5.0716   -0.3941    0.3103 H   0  0  0  0  0  0  0  0  0  0  0  0
    3.0071   -2.4858    0.5885 H   0  0  0  0  0  0  0  0  0  0  0  0
    4.6185   -2.3489    1.7823 H   0  0  0  0  0  0  0  0  0  0  0  0
  1  2  1  0
  2  3  1  0
  2  4  1  0
  4  5  1  0
  5  6  1  0
  6  7  1  0
  6  8  1  0
  8  9  1  0
  9 10  1  0
 10 11  2  0
 11 12  1  0
 12 13  2  0
 13 14  1  0
 14 15  2  0
 15 16  1  0
 16 17  1  0
 17 18  2  0
 15 10  1  0
  1 19  1  0
  1 20  1  0
  1 21  1  0
  2 22  1  0
  3 23  1  0
  3 24  1  0
  3 25  1  0
  4 26  1  0
  5 27  1  0
  5 28  1  0
  6 29  1  0
  7 30  1  0
  8 31  1  0
  8 32  1  0
 11 33  1  0
 12 34  1  0
 13 35  1  0
 14 36  1  0
 16 37  1  0
 16 38  1  0
 17 39  1  0
 18 40  1  0
 18 41  1  0
M  END
$$$$
