
     RDKit          3D

 34 35  0  0  0  0  0  0  0  0999 V2000
   -3.6448    1.4120   -1.0742 C   0  0  0  0  0  0  0  0  0  0  0  0
   -3.3702    0.7625    0.1749 N   0  0  0  0  0  0  0  0  0  0  0  0
   -3.7079   -0.6353    0.1908 C   0  0  0  0  0  0  0  0  0  0  0  0
   -2.6397   -1.4714   -0.4534 C   0  0  0  0  0  0  0  0  0  0  0  0
   -1.2733   -1.2424    0.1608 C   0  0  0  0  0  0  0  0  0  0  0  0
   -0.9635    0.2281    0.1210 C   0  0  2  0  0  0  0  0  0  0  0  0
    0.2403    0.5840    0.8373 N   0  0  0  0  0  0  0  0  0  0  0  0
    1.5650    0.2981    0.4128 C   0  0  0  0  0  0  0  0  0  0  0  0
    1.8793   -0.3097   -0.7891 C   0  0  0  0  0  0  0  0  0  0  0  0
    3.1742   -0.5634   -1.1072 N   0  0  0  0  0  0  0  0  0  0  0  0
    4.2006   -0.2752   -0.3532 N   0  0  0  0  0  0  0  0  0  0  0  0
    5.5791   -0.5771   -0.7574 C   0  0  0  0  0  0  0  0  0  0  0  0
    3.9619    0.3171    0.8272 C   0  0  0  0  0  0  0  0  0  0  0  0
    4.9216    0.6197    1.5997 O   0  0  0  0  0  0  0  0  0  0  0  0
    2.6649    0.5990    1.2038 C   0  0  0  0  0  0  0  0  0  0  0  0
    2.3423    1.3793    2.7586 Cl  0  0  0  0  0  0  0  0  0  0  0  0
   -2.1025    1.0360    0.7341 C   0  0  0  0  0  0  0  0  0  0  0  0
   -4.7413    1.3841   -1.2478 H   0  0  0  0  0  0  0  0  0  0  0  0
   -3.3760    2.4820   -0.9587 H   0  0  0  0  0  0  0  0  0  0  0  0
   -3.1136    0.9894   -1.9325 H   0  0  0  0  0  0  0  0  0  0  0  0
   -3.7713   -0.9379    1.2669 H   0  0  0  0  0  0  0  0  0  0  0  0
   -4.6531   -0.7961   -0.3245 H   0  0  0  0  0  0  0  0  0  0  0  0
   -2.5693   -1.1714   -1.5111 H   0  0  0  0  0  0  0  0  0  0  0  0
   -2.9185   -2.5315   -0.3789 H   0  0  0  0  0  0  0  0  0  0  0  0
   -1.2249   -1.6532    1.1982 H   0  0  0  0  0  0  0  0  0  0  0  0
   -0.5615   -1.7955   -0.4643 H   0  0  0  0  0  0  0  0  0  0  0  0
   -0.8657    0.4963   -0.9717 H   0  0  0  0  0  0  0  0  0  0  0  0
    0.1787    1.1079    1.7700 H   0  0  0  0  0  0  0  0  0  0  0  0
    1.1025   -0.5657   -1.4701 H   0  0  0  0  0  0  0  0  0  0  0  0
    5.6673   -0.2450   -1.8119 H   0  0  0  0  0  0  0  0  0  0  0  0
    5.6949   -1.6676   -0.7094 H   0  0  0  0  0  0  0  0  0  0  0  0
    6.2859   -0.0702   -0.0880 H   0  0  0  0  0  0  0  0  0  0  0  0
   -1.8355    2.0870    0.6635 H   0  0  0  0  0  0  0  0  0  0  0  0
   -2.1263    0.7261    1.8170 H   0  0  0  0  0  0  0  0  0  0  0  0
  1  2  1  0
  2  3  1  0
  3  4  1  0
  4  5  1  0
  5  6  1  0
  6  7  1  0
  7  8  1  0
  8  9  1  0
  9 10  2  0
 10 11  1  0
 11 12  1  0
 11 13  1  0
 13 14  2  0
 13 15  1  0
 15 16  1  0
  6 17  1  0
 17  2  1  0
 15  8  2  0
  1 18  1  0
  1 19  1  0
  1 20  1  0
  3 21  1  0
  3 22  1  0
  4 23  1  0
  4 24  1  0
  5 25  1  0
  5 26  1  0
  6 27  1  6
  7 28  1  0
  9 29  1  0
 12 30  1  0
 12 31  1  0
 12 32  1  0
 17 33  1  0
 17 34  1  0
M  END
$$$$
