
     RDKit          3D

 68 73  0  0  0  0  0  0  0  0999 V2000
   -6.1600    2.3834    1.8526 C   0  0  0  0  0  0  0  0  0  0  0  0
   -6.8381    2.3805    0.5548 N   0  0  0  0  0  0  0  0  0  0  0  0
   -8.2051    2.8714    0.4443 C   0  0  0  0  0  0  0  0  0  0  0  0
   -6.1795    1.9052   -0.5880 C   0  0  0  0  0  0  0  0  0  0  0  0
   -6.7496    1.8995   -1.6993 O   0  0  0  0  0  0  0  0  0  0  0  0
   -4.8108    1.4082   -0.4925 C   0  0  0  0  0  0  0  0  0  0  0  0
   -3.7216    2.1964   -0.8775 C   0  0  0  0  0  0  0  0  0  0  0  0
   -2.6079    1.4297   -0.6601 C   0  0  0  0  0  0  0  0  0  0  0  0
   -1.2451    1.6208   -0.8332 C   0  0  0  0  0  0  0  0  0  0  0  0
   -0.4043    0.6450   -0.5154 N   0  0  0  0  0  0  0  0  0  0  0  0
   -0.7897   -0.5486   -0.0243 C   0  0  0  0  0  0  0  0  0  0  0  0
    0.1612   -1.5548    0.2976 N   0  0  0  0  0  0  0  0  0  0  0  0
    1.5354   -1.3054    0.0891 C   0  0  0  0  0  0  0  0  0  0  0  0
    2.4503   -2.2740    0.4056 C   0  0  0  0  0  0  0  0  0  0  0  0
    3.7890   -2.0375    0.2024 C   0  0  0  0  0  0  0  0  0  0  0  0
    4.2749   -0.8567   -0.3122 C   0  0  0  0  0  0  0  0  0  0  0  0
    5.6656   -0.5826   -0.4916 N   0  0  0  0  0  0  0  0  0  0  0  0
    6.6556   -1.3868    0.1590 C   0  0  0  0  0  0  0  0  0  0  0  0
    7.5492   -0.5668    1.0804 C   0  0  0  0  0  0  0  0  0  0  0  0
    8.9833   -0.5483    0.6574 C   0  0  0  0  0  0  0  0  0  0  0  0
    9.0155    0.5144   -0.4104 C   0  0  0  0  0  0  0  0  0  0  0  0
    7.8916    1.4432   -0.0158 C   0  0  0  0  0  0  0  0  0  0  0  0
    7.0117    1.6096   -1.2257 C   0  0  0  0  0  0  0  0  0  0  0  0
    5.9850    0.5490   -1.3218 C   0  0  0  0  0  0  0  0  0  0  0  0
    5.2554    0.7024   -2.3655 O   0  0  0  0  0  0  0  0  0  0  0  0
    7.1641    0.8086    1.0661 N   0  0  0  0  0  0  0  0  0  0  0  0
    3.3072    0.0892   -0.6144 C   0  0  0  0  0  0  0  0  0  0  0  0
    1.9769   -0.1480   -0.4120 N   0  0  0  0  0  0  0  0  0  0  0  0
   -2.1157   -0.7401    0.1461 N   0  0  0  0  0  0  0  0  0  0  0  0
   -3.0134    0.2053   -0.1552 C   0  0  0  0  0  0  0  0  0  0  0  0
   -4.3655    0.2205   -0.0636 N   0  0  0  0  0  0  0  0  0  0  0  0
   -5.1872   -0.8529    0.4087 C   0  0  0  0  0  0  0  0  0  0  0  0
   -4.5003   -2.1823    0.1796 C   0  0  0  0  0  0  0  0  0  0  0  0
   -5.6437   -3.1690    0.2005 C   0  0  0  0  0  0  0  0  0  0  0  0
   -6.8949   -2.4032   -0.1365 C   0  0  0  0  0  0  0  0  0  0  0  0
   -6.4404   -0.9846   -0.4192 C   0  0  0  0  0  0  0  0  0  0  0  0
   -5.4019    1.6012    1.9273 H   0  0  0  0  0  0  0  0  0  0  0  0
   -6.9711    2.1254    2.5937 H   0  0  0  0  0  0  0  0  0  0  0  0
   -5.7291    3.3701    2.0924 H   0  0  0  0  0  0  0  0  0  0  0  0
   -8.9441    2.0609    0.6680 H   0  0  0  0  0  0  0  0  0  0  0  0
   -8.3721    3.1859   -0.5991 H   0  0  0  0  0  0  0  0  0  0  0  0
   -8.3939    3.7328    1.0980 H   0  0  0  0  0  0  0  0  0  0  0  0
   -3.7453    3.2072   -1.2713 H   0  0  0  0  0  0  0  0  0  0  0  0
   -0.9112    2.5674   -1.2261 H   0  0  0  0  0  0  0  0  0  0  0  0
   -0.1722   -2.4479    0.6778 H   0  0  0  0  0  0  0  0  0  0  0  0
    2.1598   -3.2418    0.8206 H   0  0  0  0  0  0  0  0  0  0  0  0
    4.4969   -2.8239    0.4530 H   0  0  0  0  0  0  0  0  0  0  0  0
    6.2816   -2.2070    0.7643 H   0  0  0  0  0  0  0  0  0  0  0  0
    7.3650   -1.8530   -0.5756 H   0  0  0  0  0  0  0  0  0  0  0  0
    7.5269   -0.9459    2.1322 H   0  0  0  0  0  0  0  0  0  0  0  0
    9.5978   -0.1867    1.5069 H   0  0  0  0  0  0  0  0  0  0  0  0
    9.3835   -1.5196    0.3368 H   0  0  0  0  0  0  0  0  0  0  0  0
    8.8087   -0.0167   -1.3769 H   0  0  0  0  0  0  0  0  0  0  0  0
    9.9802    1.0227   -0.4478 H   0  0  0  0  0  0  0  0  0  0  0  0
    8.2601    2.4177    0.3654 H   0  0  0  0  0  0  0  0  0  0  0  0
    7.5884    1.6907   -2.1709 H   0  0  0  0  0  0  0  0  0  0  0  0
    6.4727    2.5825   -1.0944 H   0  0  0  0  0  0  0  0  0  0  0  0
    7.3780    1.2348    1.9792 H   0  0  0  0  0  0  0  0  0  0  0  0
    3.5582    1.0668   -1.0081 H   0  0  0  0  0  0  0  0  0  0  0  0
   -5.5043   -0.7495    1.4632 H   0  0  0  0  0  0  0  0  0  0  0  0
   -3.8134   -2.4465    1.0111 H   0  0  0  0  0  0  0  0  0  0  0  0
   -4.0220   -2.1893   -0.8001 H   0  0  0  0  0  0  0  0  0  0  0  0
   -5.7337   -3.6694    1.1852 H   0  0  0  0  0  0  0  0  0  0  0  0
   -5.4787   -3.9770   -0.5616 H   0  0  0  0  0  0  0  0  0  0  0  0
   -7.6036   -2.4014    0.7305 H   0  0  0  0  0  0  0  0  0  0  0  0
   -7.3869   -2.8205   -1.0426 H   0  0  0  0  0  0  0  0  0  0  0  0
   -6.2236   -0.8067   -1.4916 H   0  0  0  0  0  0  0  0  0  0  0  0
   -7.2498   -0.3039   -0.0896 H   0  0  0  0  0  0  0  0  0  0  0  0
  1  2  1  0
  2  3  1  0
  2  4  1  0
  4  5  2  0
  4  6  1  0
  6  7  2  0
  7  8  1  0
  8  9  2  0
  9 10  1  0
 10 11  2  0
 11 12  1  0
 12 13  1  0
 13 14  2  0
 14 15  1  0
 15 16  2  0
 16 17  1  0
 17 18  1  0
 18 19  1  0
 19 20  1  0
 20 21  1  0
 21 22  1  0
 22 23  1  0
 23 24  1  0
 24 25  2  0
 22 26  1  0
 16 27  1  0
 27 28  2  0
 11 29  1  0
 29 30  2  0
 30 31  1  0
 31 32  1  0
 32 33  1  0
 33 34  1  0
 34 35  1  0
 35 36  1  0
 31  6  1  0
 36 32  1  0
 30  8  1  0
 28 13  1  0
 24 17  1  0
 26 19  1  0
  1 37  1  0
  1 38  1  0
  1 39  1  0
  3 40  1  0
  3 41  1  0
  3 42  1  0
  7 43  1  0
  9 44  1  0
 12 45  1  0
 14 46  1  0
 15 47  1  0
 18 48  1  0
 18 49  1  0
 19 50  1  0
 20 51  1  0
 20 52  1  0
 21 53  1  0
 21 54  1  0
 22 55  1  0
 23 56  1  0
 23 57  1  0
 26 58  1  0
 27 59  1  0
 32 60  1  0
 33 61  1  0
 33 62  1  0
 34 63  1  0
 34 64  1  0
 35 65  1  0
 35 66  1  0
 36 67  1  0
 36 68  1  0
M  END
$$$$
