
     RDKit          3D

 24 24  0  0  0  0  0  0  0  0999 V2000
   -3.7577    0.1302    0.1719 C   0  0  0  0  0  0  0  0  0  0  0  0
   -2.7974    0.2347   -1.0106 C   0  0  0  0  0  0  0  0  0  0  0  0
   -1.4201    0.1766   -0.5081 C   0  0  0  0  0  0  0  0  0  0  0  0
   -0.7542    1.3441   -0.1554 C   0  0  0  0  0  0  0  0  0  0  0  0
    0.5553    1.3331    0.3263 C   0  0  0  0  0  0  0  0  0  0  0  0
    1.2433    0.1513    0.4715 C   0  0  0  0  0  0  0  0  0  0  0  0
    2.5633    0.0970    0.9532 N   0  0  0  0  0  0  0  0  0  0  0  0
    3.7239   -0.9074    0.1466 S   0  0  0  0  0  0  0  0  0  0  0  0
    3.8462   -0.2989   -1.4318 O   0  0  0  0  0  0  0  0  0  0  0  0
    5.0594   -0.8252    0.8314 O   0  0  0  0  0  0  0  0  0  0  0  0
    3.3317   -2.3453    0.1314 O   0  0  0  0  0  0  0  0  0  0  0  0
    0.5739   -1.0129    0.1179 C   0  0  0  0  0  0  0  0  0  0  0  0
   -0.7359   -1.0086   -0.3646 C   0  0  0  0  0  0  0  0  0  0  0  0
   -4.7901    0.0065   -0.2150 H   0  0  0  0  0  0  0  0  0  0  0  0
   -3.4566   -0.6735    0.8505 H   0  0  0  0  0  0  0  0  0  0  0  0
   -3.7213    1.1164    0.6668 H   0  0  0  0  0  0  0  0  0  0  0  0
   -3.0234    1.1470   -1.5713 H   0  0  0  0  0  0  0  0  0  0  0  0
   -3.0178   -0.6192   -1.6700 H   0  0  0  0  0  0  0  0  0  0  0  0
   -1.2472    2.3042   -0.2491 H   0  0  0  0  0  0  0  0  0  0  0  0
    1.0489    2.2534    0.5928 H   0  0  0  0  0  0  0  0  0  0  0  0
    2.8436    0.6538    1.7864 H   0  0  0  0  0  0  0  0  0  0  0  0
    4.1683    0.6477   -1.2982 H   0  0  0  0  0  0  0  0  0  0  0  0
    1.0215   -1.9948    0.1928 H   0  0  0  0  0  0  0  0  0  0  0  0
   -1.2574   -1.9100   -0.6396 H   0  0  0  0  0  0  0  0  0  0  0  0
  1  2  1  0
  2  3  1  0
  3  4  2  0
  4  5  1  0
  5  6  2  0
  6  7  1  0
  7  8  1  0
  8  9  1  0
  8 10  2  0
  8 11  2  0
  6 12  1  0
 12 13  2  0
 13  3  1  0
  1 14  1  0
  1 15  1  0
  1 16  1  0
  2 17  1  0
  2 18  1  0
  4 19  1  0
  5 20  1  0
  7 21  1  0
  9 22  1  0
 12 23  1  0
 13 24  1  0
M  END
$$$$
