
     RDKit          3D

 62 66  0  0  0  0  0  0  0  0999 V2000
    1.7680    4.6378    0.3876 C   0  0  0  0  0  0  0  0  0  0  0  0
    0.6172    3.6851    0.2295 C   0  0  0  0  0  0  0  0  0  0  0  0
    1.0360    2.2318    0.2845 C   0  0  0  0  0  0  0  0  0  0  0  0
    2.0108    1.9822   -0.8273 C   0  0  0  0  0  0  0  0  0  0  0  0
    2.3981    0.5265   -0.8102 C   0  0  0  0  0  0  0  0  0  0  0  0
    3.4207    0.0320   -0.0742 N   0  0  0  0  0  0  0  0  0  0  0  0
    3.5045   -1.2662   -0.1740 N   0  0  0  0  0  0  0  0  0  0  0  0
    4.4608   -2.1026    0.4769 C   0  0  0  0  0  0  0  0  0  0  0  0
    5.4434   -2.7111   -0.2572 C   0  0  0  0  0  0  0  0  0  0  0  0
    6.3529   -3.5130    0.3959 C   0  0  0  0  0  0  0  0  0  0  0  0
    6.2626   -3.6900    1.7642 C   0  0  0  0  0  0  0  0  0  0  0  0
    7.4616   -4.7284    2.5292 Cl  0  0  0  0  0  0  0  0  0  0  0  0
    5.2786   -3.0870    2.5370 C   0  0  0  0  0  0  0  0  0  0  0  0
    4.3925   -2.2961    1.8488 C   0  0  0  0  0  0  0  0  0  0  0  0
    3.1372   -1.4985    2.7759 Cl  0  0  0  0  0  0  0  0  0  0  0  0
    2.4987   -1.6580   -1.0118 C   0  0  0  0  0  0  0  0  0  0  0  0
    2.2748   -3.0266   -1.3599 C   0  0  0  0  0  0  0  0  0  0  0  0
    3.0358   -3.9350   -0.8789 O   0  0  0  0  0  0  0  0  0  0  0  0
    1.2498   -3.4031   -2.2101 O   0  0  0  0  0  0  0  0  0  0  0  0
    1.7920   -0.5478   -1.4251 C   0  0  0  0  0  0  0  0  0  0  0  0
    0.6718   -0.4987   -2.3780 C   0  0  0  0  0  0  0  0  0  0  0  0
   -0.6690   -0.2645   -1.8370 C   0  0  0  0  0  0  0  0  0  0  0  0
   -1.3101    0.9687   -2.0038 C   0  0  0  0  0  0  0  0  0  0  0  0
   -2.5700    1.2234   -1.5092 C   0  0  0  0  0  0  0  0  0  0  0  0
   -3.2584    0.2262   -0.8084 C   0  0  0  0  0  0  0  0  0  0  0  0
   -4.6058    0.4384   -0.3073 C   0  0  0  0  0  0  0  0  0  0  0  0
   -5.6468    0.5138   -1.2568 C   0  0  0  0  0  0  0  0  0  0  0  0
   -6.9668    0.6452   -0.8967 C   0  0  0  0  0  0  0  0  0  0  0  0
   -7.3141    0.7084    0.4376 C   0  0  0  0  0  0  0  0  0  0  0  0
   -6.3150    0.6381    1.3611 C   0  0  0  0  0  0  0  0  0  0  0  0
   -4.9464    0.5035    1.0010 C   0  0  0  0  0  0  0  0  0  0  0  0
   -3.9678    0.5153    2.0622 C   0  0  0  0  0  0  0  0  0  0  0  0
   -4.2665    0.2896    3.3814 N   0  0  0  0  0  0  0  0  0  0  0  0
   -3.1281    0.3346    4.0494 N   0  0  0  0  0  0  0  0  0  0  0  0
   -2.1356    0.5733    3.2431 N   0  0  0  0  0  0  0  0  0  0  0  0
   -2.6587    0.6862    2.0081 N   0  0  0  0  0  0  0  0  0  0  0  0
   -2.6039   -0.9823   -0.6579 C   0  0  0  0  0  0  0  0  0  0  0  0
   -1.3435   -1.2462   -1.1488 C   0  0  0  0  0  0  0  0  0  0  0  0
    1.3747    5.5831    0.8347 H   0  0  0  0  0  0  0  0  0  0  0  0
    2.5548    4.1846    1.0002 H   0  0  0  0  0  0  0  0  0  0  0  0
    2.1788    4.8781   -0.6333 H   0  0  0  0  0  0  0  0  0  0  0  0
    0.1459    3.8239   -0.7755 H   0  0  0  0  0  0  0  0  0  0  0  0
   -0.2033    3.8918    0.9583 H   0  0  0  0  0  0  0  0  0  0  0  0
    1.5937    2.0392    1.2556 H   0  0  0  0  0  0  0  0  0  0  0  0
    0.1829    1.5857    0.2063 H   0  0  0  0  0  0  0  0  0  0  0  0
    1.4925    2.2298   -1.7805 H   0  0  0  0  0  0  0  0  0  0  0  0
    2.9252    2.5923   -0.7868 H   0  0  0  0  0  0  0  0  0  0  0  0
    5.4799   -2.5427   -1.3287 H   0  0  0  0  0  0  0  0  0  0  0  0
    7.1277   -3.9924   -0.1849 H   0  0  0  0  0  0  0  0  0  0  0  0
    5.2743   -3.2720    3.5903 H   0  0  0  0  0  0  0  0  0  0  0  0
    0.8389   -4.3289   -2.1632 H   0  0  0  0  0  0  0  0  0  0  0  0
    0.7173   -1.4139   -3.0217 H   0  0  0  0  0  0  0  0  0  0  0  0
    0.9053    0.3188   -3.1654 H   0  0  0  0  0  0  0  0  0  0  0  0
   -0.8046    1.7722   -2.5465 H   0  0  0  0  0  0  0  0  0  0  0  0
   -3.0511    2.1808   -1.6458 H   0  0  0  0  0  0  0  0  0  0  0  0
   -5.3606    0.4638   -2.3064 H   0  0  0  0  0  0  0  0  0  0  0  0
   -7.7754    0.7040   -1.6191 H   0  0  0  0  0  0  0  0  0  0  0  0
   -8.3641    0.8112    0.7250 H   0  0  0  0  0  0  0  0  0  0  0  0
   -6.5605    0.6859    2.4154 H   0  0  0  0  0  0  0  0  0  0  0  0
   -2.0313    0.9020    1.2113 H   0  0  0  0  0  0  0  0  0  0  0  0
   -3.1294   -1.7695   -0.1129 H   0  0  0  0  0  0  0  0  0  0  0  0
   -0.8731   -2.2328   -0.9957 H   0  0  0  0  0  0  0  0  0  0  0  0
  1  2  1  0
  2  3  1  0
  3  4  1  0
  4  5  1  0
  5  6  2  0
  6  7  1  0
  7  8  1  0
  8  9  2  0
  9 10  1  0
 10 11  2  0
 11 12  1  0
 11 13  1  0
 13 14  2  0
 14 15  1  0
  7 16  1  0
 16 17  1  0
 17 18  2  0
 17 19  1  0
 16 20  2  0
 20 21  1  0
 21 22  1  0
 22 23  2  0
 23 24  1  0
 24 25  2  0
 25 26  1  0
 26 27  2  0
 27 28  1  0
 28 29  2  0
 29 30  1  0
 30 31  2  0
 31 32  1  0
 32 33  2  0
 33 34  1  0
 34 35  2  0
 35 36  1  0
 25 37  1  0
 37 38  2  0
 20  5  1  0
 38 22  1  0
 14  8  1  0
 31 26  1  0
 36 32  1  0
  1 39  1  0
  1 40  1  0
  1 41  1  0
  2 42  1  0
  2 43  1  0
  3 44  1  0
  3 45  1  0
  4 46  1  0
  4 47  1  0
  9 48  1  0
 10 49  1  0
 13 50  1  0
 19 51  1  0
 21 52  1  0
 21 53  1  0
 23 54  1  0
 24 55  1  0
 27 56  1  0
 28 57  1  0
 29 58  1  0
 30 59  1  0
 36 60  1  0
 37 61  1  0
 38 62  1  0
M  END
$$$$
