
     RDKit          3D

 47 50  0  0  0  0  0  0  0  0999 V2000
    1.9266    0.5619   -2.0179 C   0  0  0  0  0  0  0  0  0  0  0  0
    1.9117   -0.5464   -0.9667 C   0  0  1  0  0  0  0  0  0  0  0  0
    0.6106   -1.2557   -1.1261 C   0  0  0  0  0  0  0  0  0  0  0  0
   -0.3727   -1.2328   -0.1665 C   0  0  0  0  0  0  0  0  0  0  0  0
   -1.5888   -1.8990   -0.3073 C   0  0  0  0  0  0  0  0  0  0  0  0
   -2.6126   -1.8753    0.6529 N   0  0  0  0  0  0  0  0  0  0  0  0
   -3.2190   -0.7771    1.2561 C   0  0  0  0  0  0  0  0  0  0  0  0
   -4.0374   -0.9530    2.3305 N   0  0  0  0  0  0  0  0  0  0  0  0
   -4.6549    0.0847    2.9214 C   0  0  0  0  0  0  0  0  0  0  0  0
   -4.4871    1.3658    2.4693 C   0  0  0  0  0  0  0  0  0  0  0  0
   -5.0928    2.4476    3.0378 F   0  0  0  0  0  0  0  0  0  0  0  0
   -3.6647    1.6076    1.3771 C   0  0  0  0  0  0  0  0  0  0  0  0
   -3.4903    2.8851    0.8945 C   0  0  0  0  0  0  0  0  0  0  0  0
   -2.6782    3.1397   -0.2114 C   0  0  0  0  0  0  0  0  0  0  0  0
   -2.4827    4.4620   -0.7328 C   0  0  0  0  0  0  0  0  0  0  0  0
   -2.3415    5.5427   -1.1605 N   0  0  0  0  0  0  0  0  0  0  0  0
   -2.0887    2.0205   -0.7531 C   0  0  0  0  0  0  0  0  0  0  0  0
   -2.2664    0.7833   -0.2746 N   0  0  0  0  0  0  0  0  0  0  0  0
   -3.0491    0.5172    0.7974 C   0  0  0  0  0  0  0  0  0  0  0  0
   -1.7987   -2.6109   -1.4720 C   0  0  0  0  0  0  0  0  0  0  0  0
   -0.8457   -2.6406   -2.4158 N   0  0  0  0  0  0  0  0  0  0  0  0
    0.3331   -1.9872   -2.2649 C   0  0  0  0  0  0  0  0  0  0  0  0
    1.2374   -2.0695   -3.2682 F   0  0  0  0  0  0  0  0  0  0  0  0
    3.0466   -1.5001   -1.1482 C   0  0  0  0  0  0  0  0  0  0  0  0
    4.1119   -1.4355   -0.1065 C   0  0  1  0  0  0  0  0  0  0  0  0
    5.2059   -0.4380   -0.4612 C   0  0  0  0  0  0  0  0  0  0  0  0
    5.7974   -0.8025   -1.6592 F   0  0  0  0  0  0  0  0  0  0  0  0
    4.7584    0.8511   -0.4318 F   0  0  0  0  0  0  0  0  0  0  0  0
    6.2286   -0.5247    0.4914 F   0  0  0  0  0  0  0  0  0  0  0  0
    3.6005   -1.1090    1.1770 O   0  0  0  0  0  0  0  0  0  0  0  0
    2.6305   -0.1395    1.3007 C   0  0  0  0  0  0  0  0  0  0  0  0
    2.5292    0.5516    2.5487 N   0  0  0  0  0  0  0  0  0  0  0  0
    1.8671    0.1059    0.3126 N   0  0  0  0  0  0  0  0  0  0  0  0
    2.9583    0.5536   -2.4513 H   0  0  0  0  0  0  0  0  0  0  0  0
    1.6494    1.5447   -1.6198 H   0  0  0  0  0  0  0  0  0  0  0  0
    1.2638    0.2513   -2.8399 H   0  0  0  0  0  0  0  0  0  0  0  0
   -0.1844   -0.6783    0.7461 H   0  0  0  0  0  0  0  0  0  0  0  0
   -2.9665   -2.8401    0.9566 H   0  0  0  0  0  0  0  0  0  0  0  0
   -5.3134   -0.0408    3.7853 H   0  0  0  0  0  0  0  0  0  0  0  0
   -3.9808    3.7418    1.3616 H   0  0  0  0  0  0  0  0  0  0  0  0
   -1.4527    2.2171   -1.6286 H   0  0  0  0  0  0  0  0  0  0  0  0
   -2.7562   -3.1371   -1.5885 H   0  0  0  0  0  0  0  0  0  0  0  0
    3.5540   -1.3487   -2.1394 H   0  0  0  0  0  0  0  0  0  0  0  0
    2.6178   -2.5445   -1.1303 H   0  0  0  0  0  0  0  0  0  0  0  0
    4.5942   -2.4268   -0.0211 H   0  0  0  0  0  0  0  0  0  0  0  0
    1.7771    0.2575    3.1885 H   0  0  0  0  0  0  0  0  0  0  0  0
    3.2153    1.3200    2.7583 H   0  0  0  0  0  0  0  0  0  0  0  0
  2  1  1  6
  2  3  1  0
  3  4  2  0
  4  5  1  0
  5  6  1  0
  6  7  1  0
  7  8  2  0
  8  9  1  0
  9 10  2  0
 10 11  1  0
 10 12  1  0
 12 13  2  0
 13 14  1  0
 14 15  1  0
 15 16  3  0
 14 17  2  0
 17 18  1  0
 18 19  2  0
  5 20  2  0
 20 21  1  0
 21 22  2  0
 22 23  1  0
  2 24  1  0
 24 25  1  0
 25 26  1  0
 26 27  1  0
 26 28  1  0
 26 29  1  0
 25 30  1  0
 30 31  1  0
 31 32  1  0
 31 33  2  0
 33  2  1  0
 22  3  1  0
 19  7  1  0
 19 12  1  0
  1 34  1  0
  1 35  1  0
  1 36  1  0
  4 37  1  0
  6 38  1  0
  9 39  1  0
 13 40  1  0
 17 41  1  0
 20 42  1  0
 24 43  1  0
 24 44  1  0
 25 45  1  1
 32 46  1  0
 32 47  1  0
M  END
$$$$
