
     RDKit          3D

 63 67  0  0  0  0  0  0  0  0999 V2000
    1.5424   -2.9030    3.3290 C   0  0  0  0  0  0  0  0  0  0  0  0
    0.9170   -2.4863    2.0534 C   0  0  0  0  0  0  0  0  0  0  0  0
    0.0111   -3.2129    1.5768 O   0  0  0  0  0  0  0  0  0  0  0  0
    1.3514   -1.2727    1.3899 C   0  0  0  0  0  0  0  0  0  0  0  0
    2.2748   -0.4964    1.8407 N   0  0  0  0  0  0  0  0  0  0  0  0
    2.5039    0.5999    1.0208 N   0  0  0  0  0  0  0  0  0  0  0  0
    3.5534    1.5753    0.9284 C   0  0  0  0  0  0  0  0  0  0  0  0
    4.2444    1.9171    2.0750 C   0  0  0  0  0  0  0  0  0  0  0  0
    5.2497    2.8721    1.9320 C   0  0  0  0  0  0  0  0  0  0  0  0
    5.9325    3.2187    3.0431 F   0  0  0  0  0  0  0  0  0  0  0  0
    5.5321    3.4437    0.6901 C   0  0  0  0  0  0  0  0  0  0  0  0
    4.8177    3.0723   -0.4268 C   0  0  0  0  0  0  0  0  0  0  0  0
    3.8087    2.1197   -0.3066 C   0  0  0  0  0  0  0  0  0  0  0  0
    3.0583    1.7035   -1.3807 O   0  0  0  0  0  0  0  0  0  0  0  0
    1.7489    1.2495   -1.2200 C   0  0  0  0  0  0  0  0  0  0  0  0
    1.3958    0.6918    0.1094 C   0  0  1  0  0  0  0  0  0  0  0  0
    0.8240   -0.7023    0.0921 C   0  0  2  0  0  0  0  0  0  0  0  0
   -0.6412   -0.7504    0.0277 C   0  0  0  0  0  0  0  0  0  0  0  0
   -1.2358   -0.1044   -1.2015 C   0  0  0  0  0  0  0  0  0  0  0  0
   -2.7385   -0.2816   -1.1660 C   0  0  0  0  0  0  0  0  0  0  0  0
   -3.3046    0.2974   -0.0293 N   0  0  0  0  0  0  0  0  0  0  0  0
   -3.3469    1.6730    0.1582 C   0  0  0  0  0  0  0  0  0  0  0  0
   -4.6098    2.3617   -0.3106 C   0  0  0  0  0  0  0  0  0  0  0  0
   -5.7637    1.8518    0.4004 N   0  0  0  0  0  0  0  0  0  0  0  0
   -6.2556    0.5336    0.4933 C   0  0  0  0  0  0  0  0  0  0  0  0
   -7.5186    0.4430    0.6870 O   0  0  0  0  0  0  0  0  0  0  0  0
   -5.4964   -0.7295    0.3945 C   0  0  0  0  0  0  0  0  0  0  0  0
   -4.0751   -0.5288    0.8259 C   0  0  0  0  0  0  0  0  0  0  0  0
    1.4133   -1.5390   -1.0149 C   0  0  0  0  0  0  0  0  0  0  0  0
    0.6370   -2.2982   -1.8334 C   0  0  0  0  0  0  0  0  0  0  0  0
    1.2116   -3.0078   -2.8597 C   0  0  0  0  0  0  0  0  0  0  0  0
    2.5706   -2.9444   -3.0481 C   0  0  0  0  0  0  0  0  0  0  0  0
    3.3951   -2.1893   -2.2412 C   0  0  0  0  0  0  0  0  0  0  0  0
    2.7773   -1.4931   -1.2258 C   0  0  0  0  0  0  0  0  0  0  0  0
    2.6359   -2.7055    3.3425 H   0  0  0  0  0  0  0  0  0  0  0  0
    1.0769   -2.2595    4.1336 H   0  0  0  0  0  0  0  0  0  0  0  0
    1.2868   -3.9376    3.5612 H   0  0  0  0  0  0  0  0  0  0  0  0
    3.9931    1.4478    3.0159 H   0  0  0  0  0  0  0  0  0  0  0  0
    6.3293    4.1759    0.6798 H   0  0  0  0  0  0  0  0  0  0  0  0
    5.0651    3.5350   -1.3668 H   0  0  0  0  0  0  0  0  0  0  0  0
    1.5113    0.5753   -2.0706 H   0  0  0  0  0  0  0  0  0  0  0  0
    1.0885    2.1515   -1.3983 H   0  0  0  0  0  0  0  0  0  0  0  0
    0.6272    1.3301    0.6411 H   0  0  0  0  0  0  0  0  0  0  0  0
   -1.0471   -1.7752    0.0880 H   0  0  0  0  0  0  0  0  0  0  0  0
   -1.0769   -0.1982    0.8930 H   0  0  0  0  0  0  0  0  0  0  0  0
   -0.7561   -0.3060   -2.1454 H   0  0  0  0  0  0  0  0  0  0  0  0
   -1.0323    1.0228   -1.0476 H   0  0  0  0  0  0  0  0  0  0  0  0
   -2.9743   -1.3714   -1.2674 H   0  0  0  0  0  0  0  0  0  0  0  0
   -3.1092    0.1971   -2.1129 H   0  0  0  0  0  0  0  0  0  0  0  0
   -3.1956    1.9603    1.2402 H   0  0  0  0  0  0  0  0  0  0  0  0
   -2.5191    2.1785   -0.3742 H   0  0  0  0  0  0  0  0  0  0  0  0
   -4.4850    3.4403   -0.0146 H   0  0  0  0  0  0  0  0  0  0  0  0
   -4.7292    2.2613   -1.3906 H   0  0  0  0  0  0  0  0  0  0  0  0
   -6.3470    2.5534    0.9418 H   0  0  0  0  0  0  0  0  0  0  0  0
   -5.9576   -1.4418    1.1258 H   0  0  0  0  0  0  0  0  0  0  0  0
   -5.5839   -1.2041   -0.6025 H   0  0  0  0  0  0  0  0  0  0  0  0
   -3.5966   -1.5434    0.8638 H   0  0  0  0  0  0  0  0  0  0  0  0
   -4.0654   -0.1495    1.8465 H   0  0  0  0  0  0  0  0  0  0  0  0
   -0.4408   -2.4324   -1.7325 H   0  0  0  0  0  0  0  0  0  0  0  0
    0.5797   -3.6254   -3.5265 H   0  0  0  0  0  0  0  0  0  0  0  0
    3.0284   -3.5178   -3.8753 H   0  0  0  0  0  0  0  0  0  0  0  0
    4.4808   -2.1487   -2.4039 H   0  0  0  0  0  0  0  0  0  0  0  0
    3.4284   -0.8969   -0.5878 H   0  0  0  0  0  0  0  0  0  0  0  0
  1  2  1  0
  2  3  2  0
  2  4  1  0
  4  5  2  0
  5  6  1  0
  6  7  1  0
  7  8  2  0
  8  9  1  0
  9 10  1  0
  9 11  2  0
 11 12  1  0
 12 13  2  0
 13 14  1  0
 14 15  1  0
 15 16  1  0
 16 17  1  0
 17 18  1  1
 18 19  1  0
 19 20  1  0
 20 21  1  0
 21 22  1  0
 22 23  1  0
 23 24  1  0
 24 25  1  0
 25 26  2  0
 25 27  1  0
 27 28  1  0
 17 29  1  0
 29 30  2  0
 30 31  1  0
 31 32  2  0
 32 33  1  0
 33 34  2  0
 17  4  1  0
 28 21  1  0
 34 29  1  0
 16  6  1  0
 13  7  1  0
  1 35  1  0
  1 36  1  0
  1 37  1  0
  8 38  1  0
 11 39  1  0
 12 40  1  0
 15 41  1  0
 15 42  1  0
 16 43  1  1
 18 44  1  0
 18 45  1  0
 19 46  1  0
 19 47  1  0
 20 48  1  0
 20 49  1  0
 22 50  1  0
 22 51  1  0
 23 52  1  0
 23 53  1  0
 24 54  1  0
 27 55  1  0
 27 56  1  0
 28 57  1  0
 28 58  1  0
 30 59  1  0
 31 60  1  0
 32 61  1  0
 33 62  1  0
 34 63  1  0
M  END
$$$$
