
     RDKit          3D

 38 40  0  0  0  0  0  0  0  0999 V2000
    5.4949   -0.6129    1.4702 O   0  0  0  0  0  0  0  0  0  0  0  0
    4.3074    0.0066    1.0948 C   0  0  0  0  0  0  0  0  0  0  0  0
    3.3426   -0.6265    0.3430 C   0  0  0  0  0  0  0  0  0  0  0  0
    3.5902   -1.9298   -0.0403 C   0  0  0  0  0  0  0  0  0  0  0  0
    2.6744   -2.6536   -0.8022 C   0  0  0  0  0  0  0  0  0  0  0  0
    1.5095   -2.0027   -1.1534 C   0  0  0  0  0  0  0  0  0  0  0  0
    1.2351   -0.6989   -0.7839 C   0  0  0  0  0  0  0  0  0  0  0  0
    2.1627   -0.0061   -0.0281 C   0  0  0  0  0  0  0  0  0  0  0  0
    2.0143    1.2921    0.4050 C   0  0  0  0  0  0  0  0  0  0  0  0
    2.9712    1.9375    1.1575 C   0  0  0  0  0  0  0  0  0  0  0  0
    4.1003    1.2839    1.4890 N   0  0  0  0  0  0  0  0  0  0  0  0
   -0.2090    0.1786   -1.1916 S   0  0  0  0  0  0  0  0  0  0  0  0
   -0.0545    1.1916   -2.2555 O   0  0  0  0  0  0  0  0  0  0  0  0
   -1.1211   -0.8638   -1.8447 O   0  0  0  0  0  0  0  0  0  0  0  0
   -1.0896    0.6969    0.1655 N   0  0  0  0  0  0  0  0  0  0  0  0
   -1.5672   -0.3451    1.0009 C   0  0  0  0  0  0  0  0  0  0  0  0
   -3.0263   -0.3173    1.3058 C   0  0  0  0  0  0  0  0  0  0  0  0
   -3.8688   -0.6079    0.0978 C   0  0  0  0  0  0  0  0  0  0  0  0
   -3.4338    0.1908   -1.0040 N   0  0  0  0  0  0  0  0  0  0  0  0
   -3.2261    1.5762   -0.7195 C   0  0  0  0  0  0  0  0  0  0  0  0
   -1.9207    1.8292   -0.0031 C   0  0  0  0  0  0  0  0  0  0  0  0
    6.3664   -0.2623    1.0641 H   0  0  0  0  0  0  0  0  0  0  0  0
    4.5286   -2.4241    0.2545 H   0  0  0  0  0  0  0  0  0  0  0  0
    2.8390   -3.6716   -1.1166 H   0  0  0  0  0  0  0  0  0  0  0  0
    0.7423   -2.4818   -1.7417 H   0  0  0  0  0  0  0  0  0  0  0  0
    1.1153    1.8127    0.1411 H   0  0  0  0  0  0  0  0  0  0  0  0
    2.8397    2.9456    1.4853 H   0  0  0  0  0  0  0  0  0  0  0  0
   -1.0005   -0.3563    1.9778 H   0  0  0  0  0  0  0  0  0  0  0  0
   -1.3365   -1.3443    0.5544 H   0  0  0  0  0  0  0  0  0  0  0  0
   -3.3687    0.5845    1.8207 H   0  0  0  0  0  0  0  0  0  0  0  0
   -3.2078   -1.1529    2.0407 H   0  0  0  0  0  0  0  0  0  0  0  0
   -4.9389   -0.4819    0.3375 H   0  0  0  0  0  0  0  0  0  0  0  0
   -3.7265   -1.6793   -0.1971 H   0  0  0  0  0  0  0  0  0  0  0  0
   -3.8830   -0.0063   -1.9034 H   0  0  0  0  0  0  0  0  0  0  0  0
   -3.1493    2.1128   -1.6979 H   0  0  0  0  0  0  0  0  0  0  0  0
   -4.1008    2.0533   -0.2140 H   0  0  0  0  0  0  0  0  0  0  0  0
   -1.3771    2.6932   -0.3815 H   0  0  0  0  0  0  0  0  0  0  0  0
   -2.2275    2.1400    1.0405 H   0  0  0  0  0  0  0  0  0  0  0  0
  1  2  1  0
  2  3  2  0
  3  4  1  0
  4  5  2  0
  5  6  1  0
  6  7  2  0
  7  8  1  0
  8  9  2  0
  9 10  1  0
 10 11  2  0
  7 12  1  0
 12 13  2  0
 12 14  2  0
 12 15  1  0
 15 16  1  0
 16 17  1  0
 17 18  1  0
 18 19  1  0
 19 20  1  0
 20 21  1  0
 11  2  1  0
 21 15  1  0
  8  3  1  0
  1 22  1  0
  4 23  1  0
  5 24  1  0
  6 25  1  0
  9 26  1  0
 10 27  1  0
 16 28  1  0
 16 29  1  0
 17 30  1  0
 17 31  1  0
 18 32  1  0
 18 33  1  0
 19 34  1  0
 20 35  1  0
 20 36  1  0
 21 37  1  0
 21 38  1  0
M  END
$$$$
