
     RDKit          3D

 48 51  0  0  0  0  0  0  0  0999 V2000
   -4.2490    2.6667   -0.5073 C   0  0  0  0  0  0  0  0  0  0  0  0
   -3.4148    1.4828   -1.0079 C   0  0  0  0  0  0  0  0  0  0  0  0
   -4.2151    0.2312   -0.9867 C   0  0  0  0  0  0  0  0  0  0  0  0
   -4.0677   -0.7757   -1.9182 C   0  0  0  0  0  0  0  0  0  0  0  0
   -4.8374   -1.9422   -1.8698 C   0  0  0  0  0  0  0  0  0  0  0  0
   -5.7717   -2.0977   -0.8662 C   0  0  0  0  0  0  0  0  0  0  0  0
   -5.9367   -1.1047    0.0759 C   0  0  0  0  0  0  0  0  0  0  0  0
   -6.9517   -1.3062    1.1418 C   0  0  0  0  0  0  0  0  0  0  0  0
   -7.2114   -2.6368    1.3705 F   0  0  0  0  0  0  0  0  0  0  0  0
   -6.5858   -0.6380    2.3048 F   0  0  0  0  0  0  0  0  0  0  0  0
   -8.1250   -0.7239    0.7097 F   0  0  0  0  0  0  0  0  0  0  0  0
   -5.1666    0.0345    0.0067 C   0  0  0  0  0  0  0  0  0  0  0  0
   -2.1712    1.3645   -0.2299 C   0  0  0  0  0  0  0  0  0  0  0  0
   -0.9844    0.9518   -0.7058 N   0  0  0  0  0  0  0  0  0  0  0  0
   -0.0908    0.9704    0.2742 C   0  0  0  0  0  0  0  0  0  0  0  0
    1.2957    0.6073    0.2017 N   0  0  0  0  0  0  0  0  0  0  0  0
    2.1727    0.9752    1.1493 C   0  0  0  0  0  0  0  0  0  0  0  0
    3.5191    0.6026    1.0457 C   0  0  0  0  0  0  0  0  0  0  0  0
    3.9662   -0.1286    0.0013 C   0  0  0  0  0  0  0  0  0  0  0  0
    5.2890   -0.5528   -0.1971 N   0  0  0  0  0  0  0  0  0  0  0  0
    6.4011   -0.3001    0.6492 C   0  0  0  0  0  0  0  0  0  0  0  0
    6.2297    0.3687    1.6954 O   0  0  0  0  0  0  0  0  0  0  0  0
    7.7608   -0.8129    0.3174 C   0  0  0  0  0  0  0  0  0  0  0  0
    8.8400   -0.5551    1.1599 C   0  0  0  0  0  0  0  0  0  0  0  0
   10.1971   -1.3841    0.3014 S   0  0  0  0  0  0  0  0  0  0  0  0
    9.0347   -1.9462   -1.0789 C   0  0  0  0  0  0  0  0  0  0  0  0
    8.0669   -1.5202   -0.7415 N   0  0  0  0  0  0  0  0  0  0  0  0
    3.0246   -0.4883   -0.9574 C   0  0  0  0  0  0  0  0  0  0  0  0
    1.7015   -0.1204   -0.8527 C   0  0  0  0  0  0  0  0  0  0  0  0
    0.9144   -0.4832   -1.7574 O   0  0  0  0  0  0  0  0  0  0  0  0
   -0.7212    1.4094    1.4196 C   0  0  0  0  0  0  0  0  0  0  0  0
   -1.9974    1.6403    1.0663 N   0  0  0  0  0  0  0  0  0  0  0  0
   -5.2745    2.5668   -0.9482 H   0  0  0  0  0  0  0  0  0  0  0  0
   -4.3741    2.6327    0.5865 H   0  0  0  0  0  0  0  0  0  0  0  0
   -3.7752    3.6113   -0.8006 H   0  0  0  0  0  0  0  0  0  0  0  0
   -3.1906    1.7221   -2.0862 H   0  0  0  0  0  0  0  0  0  0  0  0
   -3.3253   -0.6291   -2.6983 H   0  0  0  0  0  0  0  0  0  0  0  0
   -4.6905   -2.7054   -2.6182 H   0  0  0  0  0  0  0  0  0  0  0  0
   -6.3731   -3.0128   -0.8314 H   0  0  0  0  0  0  0  0  0  0  0  0
   -5.2930    0.8136    0.7423 H   0  0  0  0  0  0  0  0  0  0  0  0
    1.8105    1.5626    1.9872 H   0  0  0  0  0  0  0  0  0  0  0  0
    4.1308    0.9492    1.8564 H   0  0  0  0  0  0  0  0  0  0  0  0
    5.5464   -1.1358   -1.0678 H   0  0  0  0  0  0  0  0  0  0  0  0
    8.9100   -0.0113    2.0910 H   0  0  0  0  0  0  0  0  0  0  0  0
    9.6207   -2.5882   -1.9219 H   0  0  0  0  0  0  0  0  0  0  0  0
    3.3301   -1.0768   -1.8188 H   0  0  0  0  0  0  0  0  0  0  0  0
   -0.2483    1.5292    2.3851 H   0  0  0  0  0  0  0  0  0  0  0  0
   -2.7196    1.9837    1.7308 H   0  0  0  0  0  0  0  0  0  0  0  0
  1  2  1  0
  2  3  1  0
  3  4  2  0
  4  5  1  0
  5  6  2  0
  6  7  1  0
  7  8  1  0
  8  9  1  0
  8 10  1  0
  8 11  1  0
  7 12  2  0
  2 13  1  0
 13 14  2  0
 14 15  1  0
 15 16  1  0
 16 17  1  0
 17 18  2  0
 18 19  1  0
 19 20  1  0
 20 21  1  0
 21 22  2  0
 21 23  1  0
 23 24  2  0
 24 25  1  0
 25 26  1  0
 26 27  2  0
 19 28  2  0
 28 29  1  0
 29 30  2  0
 15 31  2  0
 31 32  1  0
 12  3  1  0
 32 13  1  0
 29 16  1  0
 27 23  1  0
  1 33  1  0
  1 34  1  0
  1 35  1  0
  2 36  1  0
  4 37  1  0
  5 38  1  0
  6 39  1  0
 12 40  1  0
 17 41  1  0
 18 42  1  0
 20 43  1  0
 24 44  1  0
 26 45  1  0
 28 46  1  0
 31 47  1  0
 32 48  1  0
M  END
$$$$
