
     RDKit          3D

 31 33  0  0  0  0  0  0  0  0999 V2000
   -1.5704    3.7004   -1.5151 C   0  0  0  0  0  0  0  0  0  0  0  0
   -1.3878    2.3133   -0.9923 C   0  0  0  0  0  0  0  0  0  0  0  0
   -0.3954    1.4350   -1.2760 N   0  0  0  0  0  0  0  0  0  0  0  0
   -0.6781    0.3365   -0.5624 C   0  0  0  0  0  0  0  0  0  0  0  0
   -1.8367    0.5197    0.1640 C   0  0  0  0  0  0  0  0  0  0  0  0
   -2.2551    1.7597   -0.1244 N   0  0  0  0  0  0  0  0  0  0  0  0
   -2.3235   -0.5013    0.9843 C   0  0  0  0  0  0  0  0  0  0  0  0
   -3.3745   -0.3266    1.6393 O   0  0  0  0  0  0  0  0  0  0  0  0
   -1.6340   -1.6436    1.0369 N   0  0  0  0  0  0  0  0  0  0  0  0
   -2.1592   -2.7014    1.9014 C   0  0  0  0  0  0  0  0  0  0  0  0
   -0.5223   -1.7831    0.3228 C   0  0  0  0  0  0  0  0  0  0  0  0
    0.0829   -2.9013    0.4231 O   0  0  0  0  0  0  0  0  0  0  0  0
   -0.0140   -0.8234   -0.4839 N   0  0  0  0  0  0  0  0  0  0  0  0
    1.1924   -1.1232   -1.1891 C   0  0  0  0  0  0  0  0  0  0  0  0
    2.4231   -0.7651   -0.4534 C   0  0  0  0  0  0  0  0  0  0  0  0
    3.0645    0.4546   -0.5279 C   0  0  0  0  0  0  0  0  0  0  0  0
    4.1794    0.4134    0.3006 C   0  0  0  0  0  0  0  0  0  0  0  0
    4.1509   -0.8622    0.8453 C   0  0  0  0  0  0  0  0  0  0  0  0
    3.1161   -1.4969    0.3745 O   0  0  0  0  0  0  0  0  0  0  0  0
   -0.8510    3.9077   -2.3124 H   0  0  0  0  0  0  0  0  0  0  0  0
   -1.4621    4.3786   -0.6396 H   0  0  0  0  0  0  0  0  0  0  0  0
   -2.6407    3.8169   -1.8472 H   0  0  0  0  0  0  0  0  0  0  0  0
   -3.1186    2.1962    0.2762 H   0  0  0  0  0  0  0  0  0  0  0  0
   -3.2397   -2.8128    1.6971 H   0  0  0  0  0  0  0  0  0  0  0  0
   -2.0462   -2.3512    2.9358 H   0  0  0  0  0  0  0  0  0  0  0  0
   -1.6117   -3.6569    1.7291 H   0  0  0  0  0  0  0  0  0  0  0  0
    1.1701   -0.5613   -2.1501 H   0  0  0  0  0  0  0  0  0  0  0  0
    1.1628   -2.2000   -1.4710 H   0  0  0  0  0  0  0  0  0  0  0  0
    2.7506    1.3042   -1.1325 H   0  0  0  0  0  0  0  0  0  0  0  0
    4.9155    1.1839    0.4940 H   0  0  0  0  0  0  0  0  0  0  0  0
    4.9127   -1.2099    1.5529 H   0  0  0  0  0  0  0  0  0  0  0  0
  1  2  1  0
  2  3  2  0
  3  4  1  0
  4  5  2  0
  5  6  1  0
  5  7  1  0
  7  8  2  0
  7  9  1  0
  9 10  1  0
  9 11  1  0
 11 12  2  0
 11 13  1  0
 13 14  1  0
 14 15  1  0
 15 16  2  0
 16 17  1  0
 17 18  2  0
 18 19  1  0
  6  2  1  0
 19 15  1  0
 13  4  1  0
  1 20  1  0
  1 21  1  0
  1 22  1  0
  6 23  1  0
 10 24  1  0
 10 25  1  0
 10 26  1  0
 14 27  1  0
 14 28  1  0
 16 29  1  0
 17 30  1  0
 18 31  1  0
M  END
$$$$
