
     RDKit          3D

 51 55  0  0  0  0  0  0  0  0999 V2000
   -1.6534   -0.7443   -1.4944 O   0  0  0  0  0  0  0  0  0  0  0  0
   -1.8931    0.3244   -0.8871 C   0  0  0  0  0  0  0  0  0  0  0  0
   -3.1901    0.9641   -1.0592 C   0  0  0  0  0  0  0  0  0  0  0  0
   -3.3279    1.8752   -2.0706 C   0  0  0  0  0  0  0  0  0  0  0  0
   -4.5543    2.4829   -2.2365 C   0  0  0  0  0  0  0  0  0  0  0  0
   -5.6075    2.1603   -1.3846 C   0  0  0  0  0  0  0  0  0  0  0  0
   -5.4297    1.2462   -0.3877 C   0  0  0  0  0  0  0  0  0  0  0  0
   -4.2072    0.6100   -0.1863 C   0  0  0  0  0  0  0  0  0  0  0  0
   -3.9986   -0.3360    0.8344 N   0  0  0  0  0  0  0  0  0  0  0  0
   -4.0734   -1.6414    0.7132 N   0  0  0  0  0  0  0  0  0  0  0  0
   -3.8144   -2.2416    1.8948 C   0  0  0  0  0  0  0  0  0  0  0  0
   -3.5671   -1.2232    2.7867 C   0  0  0  0  0  0  0  0  0  0  0  0
   -3.6932   -0.0793    2.0848 N   0  0  0  0  0  0  0  0  0  0  0  0
   -0.8829    0.8784   -0.0456 N   0  0  0  0  0  0  0  0  0  0  0  0
   -1.1423    2.1383    0.6793 C   0  0  0  0  0  0  0  0  0  0  0  0
    0.1484    2.5155    1.3729 C   0  0  0  0  0  0  0  0  0  0  0  0
    0.6083    1.5483    2.2223 O   0  0  0  0  0  0  0  0  0  0  0  0
    0.6250    0.2660    1.6794 C   0  0  0  0  0  0  0  0  0  0  0  0
    0.4172    0.3149    0.1786 C   0  0  1  0  0  0  0  0  0  0  0  0
    0.6713   -0.9700   -0.5139 C   0  0  0  0  0  0  0  0  0  0  0  0
    2.0454   -1.4369   -0.2017 C   0  0  0  0  0  0  0  0  0  0  0  0
    2.3243   -2.2839    0.8494 C   0  0  0  0  0  0  0  0  0  0  0  0
    3.5971   -2.7243    1.1526 C   0  0  0  0  0  0  0  0  0  0  0  0
    4.6496   -2.2921    0.3581 C   0  0  0  0  0  0  0  0  0  0  0  0
    4.4196   -1.4383   -0.7128 C   0  0  0  0  0  0  0  0  0  0  0  0
    5.5690   -1.0194   -1.5107 C   0  0  0  0  0  0  0  0  0  0  0  0
    6.7980   -0.6898   -1.0452 N   0  0  0  0  0  0  0  0  0  0  0  0
    7.5888   -0.3591   -2.0676 C   0  0  0  0  0  0  0  0  0  0  0  0
    6.8608   -0.4822   -3.1471 O   0  0  0  0  0  0  0  0  0  0  0  0
    5.6522   -0.8746   -2.8441 N   0  0  0  0  0  0  0  0  0  0  0  0
    3.1395   -1.0344   -0.9663 C   0  0  0  0  0  0  0  0  0  0  0  0
   -2.5166    2.1326   -2.7372 H   0  0  0  0  0  0  0  0  0  0  0  0
   -4.7132    3.2098   -3.0215 H   0  0  0  0  0  0  0  0  0  0  0  0
   -6.5606    2.6560   -1.5412 H   0  0  0  0  0  0  0  0  0  0  0  0
   -6.2530    0.9989    0.2727 H   0  0  0  0  0  0  0  0  0  0  0  0
   -3.7884   -3.2853    2.1597 H   0  0  0  0  0  0  0  0  0  0  0  0
   -3.3190   -1.3117    3.8465 H   0  0  0  0  0  0  0  0  0  0  0  0
   -1.3634    2.9524   -0.0373 H   0  0  0  0  0  0  0  0  0  0  0  0
   -1.9043    2.0000    1.4523 H   0  0  0  0  0  0  0  0  0  0  0  0
    0.8971    2.8925    0.6468 H   0  0  0  0  0  0  0  0  0  0  0  0
   -0.1066    3.4133    2.0098 H   0  0  0  0  0  0  0  0  0  0  0  0
    1.4966   -0.3089    1.9924 H   0  0  0  0  0  0  0  0  0  0  0  0
   -0.2938   -0.2445    2.0927 H   0  0  0  0  0  0  0  0  0  0  0  0
    1.1607    1.0547   -0.1969 H   0  0  0  0  0  0  0  0  0  0  0  0
   -0.0293   -1.7802   -0.2173 H   0  0  0  0  0  0  0  0  0  0  0  0
    0.6680   -0.7712   -1.6114 H   0  0  0  0  0  0  0  0  0  0  0  0
    1.5134   -2.6483    1.4997 H   0  0  0  0  0  0  0  0  0  0  0  0
    3.7740   -3.3937    1.9928 H   0  0  0  0  0  0  0  0  0  0  0  0
    5.6574   -2.6095    0.5569 H   0  0  0  0  0  0  0  0  0  0  0  0
    8.6243   -0.0450   -2.0811 H   0  0  0  0  0  0  0  0  0  0  0  0
    2.9771   -0.3658   -1.8086 H   0  0  0  0  0  0  0  0  0  0  0  0
  1  2  2  0
  2  3  1  0
  3  4  2  0
  4  5  1  0
  5  6  2  0
  6  7  1  0
  7  8  2  0
  8  9  1  0
  9 10  1  0
 10 11  2  0
 11 12  1  0
 12 13  2  0
  2 14  1  0
 14 15  1  0
 15 16  1  0
 16 17  1  0
 17 18  1  0
 18 19  1  0
 19 20  1  0
 20 21  1  0
 21 22  2  0
 22 23  1  0
 23 24  2  0
 24 25  1  0
 25 26  1  0
 26 27  1  0
 27 28  2  0
 28 29  1  0
 29 30  1  0
 25 31  2  0
  8  3  1  0
 13  9  1  0
 19 14  1  0
 31 21  1  0
 30 26  2  0
  4 32  1  0
  5 33  1  0
  6 34  1  0
  7 35  1  0
 11 36  1  0
 12 37  1  0
 15 38  1  0
 15 39  1  0
 16 40  1  0
 16 41  1  0
 18 42  1  0
 18 43  1  0
 19 44  1  6
 20 45  1  0
 20 46  1  0
 22 47  1  0
 23 48  1  0
 24 49  1  0
 28 50  1  0
 31 51  1  0
M  END
$$$$
