
     RDKit          3D

 50 53  0  0  0  0  0  0  0  0999 V2000
    6.1122    4.2819   -0.4105 C   0  0  0  0  0  0  0  0  0  0  0  0
    6.5703    2.9454   -0.3617 O   0  0  0  0  0  0  0  0  0  0  0  0
    5.5979    1.9298   -0.3377 C   0  0  0  0  0  0  0  0  0  0  0  0
    4.2485    2.2219   -0.3605 C   0  0  0  0  0  0  0  0  0  0  0  0
    3.3078    1.2671   -0.3382 N   0  0  0  0  0  0  0  0  0  0  0  0
    3.6352   -0.0330   -0.2922 C   0  0  0  0  0  0  0  0  0  0  0  0
    2.6171   -0.9825   -0.2711 C   0  0  0  0  0  0  0  0  0  0  0  0
    1.2950   -0.5502   -0.2913 N   0  0  0  0  0  0  0  0  0  0  0  0
    0.1365   -1.3612   -0.3162 C   0  0  0  0  0  0  0  0  0  0  0  0
    0.1346   -2.7154   -0.5641 C   0  0  0  0  0  0  0  0  0  0  0  0
   -1.0502   -3.4610   -0.5660 C   0  0  0  0  0  0  0  0  0  0  0  0
   -2.2687   -2.8748   -0.3203 C   0  0  0  0  0  0  0  0  0  0  0  0
   -3.4267   -3.6152   -0.3253 F   0  0  0  0  0  0  0  0  0  0  0  0
   -2.2907   -1.5230   -0.0703 C   0  0  0  0  0  0  0  0  0  0  0  0
   -3.5805   -0.8059    0.2038 C   0  0  2  0  0  0  0  0  0  0  0  0
   -4.0520   -1.3822    1.5501 C   0  0  0  0  0  0  0  0  0  0  0  0
   -4.6128   -1.1421   -0.8374 C   0  0  0  0  0  0  0  0  0  0  0  0
   -5.8366    0.1339   -0.9916 S   0  0  0  0  0  6  0  0  0  0  0  0
   -6.1196    0.4580   -2.4389 O   0  0  0  0  0  0  0  0  0  0  0  0
   -7.1518   -0.3539   -0.3989 O   0  0  0  0  0  0  0  0  0  0  0  0
   -5.3505    1.6086   -0.1787 C   0  0  0  0  0  0  0  0  0  0  0  0
   -3.9578    1.6141    0.3017 C   0  0  0  0  0  0  0  0  0  0  0  0
   -3.4057    2.9157    0.6184 N   0  0  0  0  0  0  0  0  0  0  0  0
   -3.3134    0.5572    0.4242 N   0  0  0  0  0  0  0  0  0  0  0  0
   -1.1286   -0.8041   -0.0705 C   0  0  0  0  0  0  0  0  0  0  0  0
    3.0186   -2.2507   -0.2254 N   0  0  0  0  0  0  0  0  0  0  0  0
    4.3118   -2.6303   -0.2002 C   0  0  0  0  0  0  0  0  0  0  0  0
    5.3192   -1.6889   -0.2213 C   0  0  0  0  0  0  0  0  0  0  0  0
    4.9625   -0.3507   -0.2687 C   0  0  0  0  0  0  0  0  0  0  0  0
    5.9622    0.6044   -0.2904 C   0  0  0  0  0  0  0  0  0  0  0  0
    6.9341    5.0112   -0.4199 H   0  0  0  0  0  0  0  0  0  0  0  0
    5.4471    4.3814   -1.2808 H   0  0  0  0  0  0  0  0  0  0  0  0
    5.4663    4.4101    0.5015 H   0  0  0  0  0  0  0  0  0  0  0  0
    3.9741    3.2870   -0.3978 H   0  0  0  0  0  0  0  0  0  0  0  0
    1.1086    0.4980   -0.2910 H   0  0  0  0  0  0  0  0  0  0  0  0
    1.0692   -3.2402   -0.7733 H   0  0  0  0  0  0  0  0  0  0  0  0
   -1.0255   -4.5244   -0.7633 H   0  0  0  0  0  0  0  0  0  0  0  0
   -4.1062   -2.4714    1.5388 H   0  0  0  0  0  0  0  0  0  0  0  0
   -4.9416   -0.8667    1.9314 H   0  0  0  0  0  0  0  0  0  0  0  0
   -3.2213   -1.1187    2.2703 H   0  0  0  0  0  0  0  0  0  0  0  0
   -5.1180   -2.0836   -0.5193 H   0  0  0  0  0  0  0  0  0  0  0  0
   -4.1981   -1.3250   -1.8438 H   0  0  0  0  0  0  0  0  0  0  0  0
   -5.4709    2.5128   -0.8288 H   0  0  0  0  0  0  0  0  0  0  0  0
   -6.0187    1.8094    0.7008 H   0  0  0  0  0  0  0  0  0  0  0  0
   -3.5186    3.3673    1.5335 H   0  0  0  0  0  0  0  0  0  0  0  0
   -2.8742    3.4009   -0.1246 H   0  0  0  0  0  0  0  0  0  0  0  0
   -1.1484    0.2678    0.1289 H   0  0  0  0  0  0  0  0  0  0  0  0
    4.5902   -3.6840   -0.1632 H   0  0  0  0  0  0  0  0  0  0  0  0
    6.3638   -1.9695   -0.2015 H   0  0  0  0  0  0  0  0  0  0  0  0
    7.0042    0.3244   -0.2710 H   0  0  0  0  0  0  0  0  0  0  0  0
  1  2  1  0
  2  3  1  0
  3  4  2  0
  4  5  1  0
  5  6  2  0
  6  7  1  0
  7  8  1  0
  8  9  1  0
  9 10  2  0
 10 11  1  0
 11 12  2  0
 12 13  1  0
 12 14  1  0
 14 15  1  0
 15 16  1  1
 15 17  1  0
 17 18  1  0
 18 19  2  0
 18 20  2  0
 18 21  1  0
 21 22  1  0
 22 23  1  0
 22 24  2  0
 14 25  2  0
  7 26  2  0
 26 27  1  0
 27 28  2  0
 28 29  1  0
 29 30  2  0
 30  3  1  0
 29  6  1  0
 25  9  1  0
 24 15  1  0
  1 31  1  0
  1 32  1  0
  1 33  1  0
  4 34  1  0
  8 35  1  0
 10 36  1  0
 11 37  1  0
 16 38  1  0
 16 39  1  0
 16 40  1  0
 17 41  1  0
 17 42  1  0
 21 43  1  0
 21 44  1  0
 23 45  1  0
 23 46  1  0
 25 47  1  0
 27 48  1  0
 28 49  1  0
 30 50  1  0
M  END
$$$$
