
     RDKit          3D

 61 65  0  0  0  0  0  0  0  0999 V2000
   -6.4885   -2.9003    0.7479 C   0  0  0  0  0  0  0  0  0  0  0  0
   -5.8056   -1.8402    0.0399 N   0  0  0  0  0  0  0  0  0  0  0  0
   -4.6518   -1.8873   -0.5963 N   0  0  0  0  0  0  0  0  0  0  0  0
   -4.2845   -0.7213   -1.1049 C   0  0  0  0  0  0  0  0  0  0  0  0
   -3.1910   -0.2538   -1.7809 N   0  0  0  0  0  0  0  0  0  0  0  0
   -2.1083    0.2076   -2.4500 C   0  0  0  0  0  0  0  0  0  0  0  0
   -0.7644   -0.1551   -1.8301 C   0  0  0  0  0  0  0  0  0  0  0  0
    0.2902    0.2018   -2.3998 O   0  0  0  0  0  0  0  0  0  0  0  0
   -0.7447   -0.8911   -0.6232 N   0  0  0  0  0  0  0  0  0  0  0  0
    0.3878   -1.3692    0.0963 C   0  0  0  0  0  0  0  0  0  0  0  0
    1.0425   -0.4136    1.0474 C   0  0  0  0  0  0  0  0  0  0  0  0
    1.9864   -0.1403   -0.0599 N   0  0  0  0  0  0  0  0  0  0  0  0
    3.2073    0.3376    0.3626 C   0  0  1  0  0  0  0  0  0  0  0  0
    3.9938   -0.4242    1.3949 C   0  0  0  0  0  0  0  0  0  0  0  0
    5.0308    0.5584    1.9173 C   0  0  0  0  0  0  0  0  0  0  0  0
    5.9181    1.0824    0.8232 C   0  0  1  0  0  0  0  0  0  0  0  0
    7.1612    0.2821    0.7713 C   0  0  0  0  0  0  0  0  0  0  0  0
    7.6369   -0.7304    0.0513 C   0  0  0  0  0  0  0  0  0  0  0  0
    8.8308   -1.1652    0.3908 N   0  0  0  0  0  0  0  0  0  0  0  0
    9.5549   -0.8351    1.2018 C   0  0  0  0  0  0  0  0  0  0  0  0
    8.4761    0.5857    1.9407 S   0  0  0  0  0  0  0  0  0  0  0  0
    5.3130    1.2204   -0.5079 C   0  0  0  0  0  0  0  0  0  0  0  0
    4.1507    0.3781   -0.8601 C   0  0  0  0  0  0  0  0  0  0  0  0
    1.7390   -1.3656   -0.6852 C   0  0  0  0  0  0  0  0  0  0  0  0
   -5.3550    0.1568   -0.7364 C   0  0  0  0  0  0  0  0  0  0  0  0
   -5.5575    1.4791   -0.9774 C   0  0  0  0  0  0  0  0  0  0  0  0
   -6.6977    2.0927   -0.5158 C   0  0  0  0  0  0  0  0  0  0  0  0
   -6.9008    3.5380   -0.7874 C   0  0  0  0  0  0  0  0  0  0  0  0
   -7.3954    4.0825    0.4003 F   0  0  0  0  0  0  0  0  0  0  0  0
   -5.7729    4.1882   -1.1858 F   0  0  0  0  0  0  0  0  0  0  0  0
   -7.9519    3.6583   -1.6983 F   0  0  0  0  0  0  0  0  0  0  0  0
   -7.6395    1.3912    0.1880 C   0  0  0  0  0  0  0  0  0  0  0  0
   -7.4330    0.0368    0.4404 C   0  0  0  0  0  0  0  0  0  0  0  0
   -6.2684   -0.5735   -0.0361 C   0  0  0  0  0  0  0  0  0  0  0  0
   -6.8822   -2.4712    1.7128 H   0  0  0  0  0  0  0  0  0  0  0  0
   -5.7063   -3.6325    1.0841 H   0  0  0  0  0  0  0  0  0  0  0  0
   -7.2787   -3.3758    0.1529 H   0  0  0  0  0  0  0  0  0  0  0  0
   -2.7250   -1.5268   -1.9339 H   0  0  0  0  0  0  0  0  0  0  0  0
   -2.0971    1.3395   -2.6140 H   0  0  0  0  0  0  0  0  0  0  0  0
   -2.0445   -0.1556   -3.5217 H   0  0  0  0  0  0  0  0  0  0  0  0
   -1.7323   -1.0835   -0.2305 H   0  0  0  0  0  0  0  0  0  0  0  0
    0.2174   -2.4135    0.4264 H   0  0  0  0  0  0  0  0  0  0  0  0
    0.4524    0.4555    1.3563 H   0  0  0  0  0  0  0  0  0  0  0  0
    1.4941   -0.9902    1.8794 H   0  0  0  0  0  0  0  0  0  0  0  0
    3.1657    1.4085    0.7093 H   0  0  0  0  0  0  0  0  0  0  0  0
    3.3964   -0.6867    2.2866 H   0  0  0  0  0  0  0  0  0  0  0  0
    4.5405   -1.2902    0.9733 H   0  0  0  0  0  0  0  0  0  0  0  0
    5.6590    0.1638    2.7232 H   0  0  0  0  0  0  0  0  0  0  0  0
    4.4478    1.4076    2.3180 H   0  0  0  0  0  0  0  0  0  0  0  0
    6.2234    2.1145    1.1866 H   0  0  0  0  0  0  0  0  0  0  0  0
    7.0584   -1.1760   -0.7834 H   0  0  0  0  0  0  0  0  0  0  0  0
   10.5222   -0.9445    1.7343 H   0  0  0  0  0  0  0  0  0  0  0  0
    5.0540    2.2821   -0.7187 H   0  0  0  0  0  0  0  0  0  0  0  0
    6.1283    1.0029   -1.2734 H   0  0  0  0  0  0  0  0  0  0  0  0
    4.4079   -0.6911   -1.0478 H   0  0  0  0  0  0  0  0  0  0  0  0
    3.5736    0.8475   -1.6735 H   0  0  0  0  0  0  0  0  0  0  0  0
    1.5322   -1.4598   -1.7524 H   0  0  0  0  0  0  0  0  0  0  0  0
    2.3696   -2.2395   -0.3830 H   0  0  0  0  0  0  0  0  0  0  0  0
   -4.7915    2.0157   -1.5306 H   0  0  0  0  0  0  0  0  0  0  0  0
   -8.5590    1.8589    0.5540 H   0  0  0  0  0  0  0  0  0  0  0  0
   -8.1349   -0.5715    0.9839 H   0  0  0  0  0  0  0  0  0  0  0  0
  1  2  1  0
  2  3  1  0
  3  4  2  0
  4  5  1  0
  5  6  1  0
  6  7  1  0
  7  8  2  0
  7  9  1  0
  9 10  1  0
 10 11  1  0
 11 12  1  0
 12 13  1  0
 13 14  1  0
 14 15  1  0
 15 16  1  0
 16 17  1  0
 17 18  2  0
 18 19  1  0
 19 20  2  0
 20 21  1  0
 16 22  1  0
 22 23  1  0
 12 24  1  0
  4 25  1  0
 25 26  2  0
 26 27  1  0
 27 28  1  0
 28 29  1  0
 28 30  1  0
 28 31  1  0
 27 32  2  0
 32 33  1  0
 33 34  2  0
 34  2  1  0
 24 10  1  0
 34 25  1  0
 23 13  1  0
 21 17  1  0
  1 35  1  0
  1 36  1  0
  1 37  1  0
  5 38  1  0
  6 39  1  0
  6 40  1  0
  9 41  1  0
 10 42  1  0
 11 43  1  0
 11 44  1  0
 13 45  1  1
 14 46  1  0
 14 47  1  0
 15 48  1  0
 15 49  1  0
 16 50  1  1
 18 51  1  0
 20 52  1  0
 22 53  1  0
 22 54  1  0
 23 55  1  0
 23 56  1  0
 24 57  1  0
 24 58  1  0
 26 59  1  0
 32 60  1  0
 33 61  1  0
M  END
$$$$
