
     RDKit          3D

 57 61  0  0  0  0  0  0  0  0999 V2000
   -2.0078    1.0099   -2.4025 C   0  0  0  0  0  0  0  0  0  0  0  0
   -0.8103    0.1610   -2.0307 C   0  0  0  0  0  0  0  0  0  0  0  0
   -0.7317   -0.0686   -0.5409 C   0  0  2  0  0  0  0  0  0  0  0  0
   -1.9232   -0.7384   -0.1159 N   0  0  0  0  0  0  0  0  0  0  0  0
   -2.2287   -2.0410   -0.5622 C   0  0  0  0  0  0  0  0  0  0  0  0
   -1.4524   -2.7608   -1.3895 N   0  0  0  0  0  0  0  0  0  0  0  0
   -1.7524   -4.0038   -1.7997 C   0  0  0  0  0  0  0  0  0  0  0  0
   -2.8883   -4.6123   -1.3866 N   0  0  0  0  0  0  0  0  0  0  0  0
   -3.7194   -3.9525   -0.5542 C   0  0  0  0  0  0  0  0  0  0  0  0
   -4.9058   -4.2782    0.0260 N   0  0  0  0  0  0  0  0  0  0  0  0
   -5.3148   -3.2412    0.7774 C   0  0  0  0  0  0  0  0  0  0  0  0
   -4.3811   -2.2130    0.6912 C   0  0  0  0  0  0  0  0  0  0  0  0
   -3.3975   -2.6944   -0.1503 C   0  0  0  0  0  0  0  0  0  0  0  0
   -0.6053    1.2885    0.0805 C   0  0  0  0  0  0  0  0  0  0  0  0
   -1.6709    2.1122    0.1299 N   0  0  0  0  0  0  0  0  0  0  0  0
   -1.5825    3.3397    0.6842 C   0  0  0  0  0  0  0  0  0  0  0  0
   -2.6913    4.1828    0.7295 C   0  0  0  0  0  0  0  0  0  0  0  0
   -2.5825    5.4350    1.3003 C   0  0  0  0  0  0  0  0  0  0  0  0
   -1.3662    5.8160    1.8133 C   0  0  0  0  0  0  0  0  0  0  0  0
   -0.2713    4.9797    1.7669 C   0  0  0  0  0  0  0  0  0  0  0  0
    0.9269    5.3591    2.2740 F   0  0  0  0  0  0  0  0  0  0  0  0
   -0.3632    3.7277    1.2010 C   0  0  0  0  0  0  0  0  0  0  0  0
    0.7019    2.8531    1.1296 C   0  0  0  0  0  0  0  0  0  0  0  0
    1.8332    3.2015    1.6042 O   0  0  0  0  0  0  0  0  0  0  0  0
    0.5975    1.6322    0.5736 N   0  0  0  0  0  0  0  0  0  0  0  0
    1.6815    0.7149    0.4891 C   0  0  0  0  0  0  0  0  0  0  0  0
    2.5642    0.8568   -0.5571 C   0  0  0  0  0  0  0  0  0  0  0  0
    3.6298   -0.0081   -0.6805 C   0  0  0  0  0  0  0  0  0  0  0  0
    3.8209   -1.0189    0.2385 C   0  0  0  0  0  0  0  0  0  0  0  0
    4.9015   -1.9153    0.1344 O   0  0  0  0  0  0  0  0  0  0  0  0
    5.7797   -1.7379   -0.9462 C   0  0  0  0  0  0  0  0  0  0  0  0
    6.8878   -2.7569   -0.9432 C   0  0  0  0  0  0  0  0  0  0  0  0
    7.7348   -2.5780   -1.9940 F   0  0  0  0  0  0  0  0  0  0  0  0
    6.2846   -4.0085   -1.0433 F   0  0  0  0  0  0  0  0  0  0  0  0
    7.5166   -2.6700    0.2900 F   0  0  0  0  0  0  0  0  0  0  0  0
    2.9184   -1.1383    1.2798 C   0  0  0  0  0  0  0  0  0  0  0  0
    1.8478   -0.2846    1.4206 C   0  0  0  0  0  0  0  0  0  0  0  0
   -1.7598    2.0943   -2.4449 H   0  0  0  0  0  0  0  0  0  0  0  0
   -2.3110    0.7198   -3.4292 H   0  0  0  0  0  0  0  0  0  0  0  0
   -2.7941    0.8710   -1.6480 H   0  0  0  0  0  0  0  0  0  0  0  0
   -0.9099   -0.8027   -2.5336 H   0  0  0  0  0  0  0  0  0  0  0  0
    0.1168    0.6253   -2.4308 H   0  0  0  0  0  0  0  0  0  0  0  0
    0.1818   -0.6714   -0.3544 H   0  0  0  0  0  0  0  0  0  0  0  0
   -2.5735   -0.2571    0.5318 H   0  0  0  0  0  0  0  0  0  0  0  0
   -1.0961   -4.5388   -2.4638 H   0  0  0  0  0  0  0  0  0  0  0  0
   -5.3769   -5.1825   -0.1156 H   0  0  0  0  0  0  0  0  0  0  0  0
   -6.2240   -3.2275    1.3483 H   0  0  0  0  0  0  0  0  0  0  0  0
   -4.4059   -1.2471    1.1701 H   0  0  0  0  0  0  0  0  0  0  0  0
   -3.6462    3.8457    0.3104 H   0  0  0  0  0  0  0  0  0  0  0  0
   -3.4468    6.0897    1.3346 H   0  0  0  0  0  0  0  0  0  0  0  0
   -1.2415    6.8038    2.2747 H   0  0  0  0  0  0  0  0  0  0  0  0
    2.4742    1.6315   -1.3184 H   0  0  0  0  0  0  0  0  0  0  0  0
    4.3382    0.0765   -1.4881 H   0  0  0  0  0  0  0  0  0  0  0  0
    5.2383   -1.7091   -1.9235 H   0  0  0  0  0  0  0  0  0  0  0  0
    6.2575   -0.7341   -0.8070 H   0  0  0  0  0  0  0  0  0  0  0  0
    3.0564   -1.9339    2.0157 H   0  0  0  0  0  0  0  0  0  0  0  0
    1.1420   -0.4029    2.2625 H   0  0  0  0  0  0  0  0  0  0  0  0
  1  2  1  0
  2  3  1  0
  3  4  1  0
  4  5  1  0
  5  6  2  0
  6  7  1  0
  7  8  2  0
  8  9  1  0
  9 10  1  0
 10 11  1  0
 11 12  2  0
 12 13  1  0
  3 14  1  0
 14 15  2  0
 15 16  1  0
 16 17  2  0
 17 18  1  0
 18 19  2  0
 19 20  1  0
 20 21  1  0
 20 22  2  0
 22 23  1  0
 23 24  2  0
 23 25  1  0
 25 26  1  0
 26 27  2  0
 27 28  1  0
 28 29  2  0
 29 30  1  0
 30 31  1  0
 31 32  1  0
 32 33  1  0
 32 34  1  0
 32 35  1  0
 29 36  1  0
 36 37  2  0
 13  5  1  0
 25 14  1  0
 37 26  1  0
 13  9  2  0
 22 16  1  0
  1 38  1  0
  1 39  1  0
  1 40  1  0
  2 41  1  0
  2 42  1  0
  3 43  1  6
  4 44  1  0
  7 45  1  0
 10 46  1  0
 11 47  1  0
 12 48  1  0
 17 49  1  0
 18 50  1  0
 19 51  1  0
 27 52  1  0
 28 53  1  0
 31 54  1  0
 31 55  1  0
 36 56  1  0
 37 57  1  0
M  END
$$$$
