
     RDKit          3D

 36 38  0  0  0  0  0  0  0  0999 V2000
    5.3253    0.1832    2.2822 C   0  0  0  0  0  0  0  0  0  0  0  0
    4.6541    0.7712    1.2090 O   0  0  0  0  0  0  0  0  0  0  0  0
    3.5048    0.3076    0.6141 C   0  0  0  0  0  0  0  0  0  0  0  0
    2.9936    1.0383   -0.4423 C   0  0  0  0  0  0  0  0  0  0  0  0
    3.6271    2.2004   -0.8806 O   0  0  0  0  0  0  0  0  0  0  0  0
    1.8594    0.6759   -1.1098 C   0  0  0  0  0  0  0  0  0  0  0  0
    1.1632   -0.4585   -0.7488 C   0  0  0  0  0  0  0  0  0  0  0  0
    1.6503   -1.2224    0.3150 C   0  0  0  0  0  0  0  0  0  0  0  0
    2.8101   -0.8190    0.9697 C   0  0  0  0  0  0  0  0  0  0  0  0
   -0.0764   -1.0405   -1.3212 C   0  0  2  0  0  0  0  0  0  0  0  0
   -0.7427   -0.1381   -2.3347 C   0  0  0  0  0  0  0  0  0  0  0  0
   -1.6041    0.9033   -1.6766 C   0  0  0  0  0  0  0  0  0  0  0  0
   -1.6727    2.1425   -1.8688 O   0  0  0  0  0  0  0  0  0  0  0  0
   -2.5039    0.3625   -0.6443 C   0  0  0  0  0  0  0  0  0  0  0  0
   -3.6998    0.9653   -0.2696 C   0  0  0  0  0  0  0  0  0  0  0  0
   -4.0310    2.1430   -0.9285 O   0  0  0  0  0  0  0  0  0  0  0  0
   -4.4907    0.3881    0.7146 C   0  0  0  0  0  0  0  0  0  0  0  0
   -4.1088   -0.7900    1.3386 C   0  0  0  0  0  0  0  0  0  0  0  0
   -4.9062   -1.3717    2.3306 O   0  0  0  0  0  0  0  0  0  0  0  0
   -2.9238   -1.4231    0.9944 C   0  0  0  0  0  0  0  0  0  0  0  0
   -2.1592   -0.8165    0.0063 C   0  0  0  0  0  0  0  0  0  0  0  0
   -0.9875   -1.4387   -0.3370 O   0  0  0  0  0  0  0  0  0  0  0  0
    5.1344   -0.8906    2.4117 H   0  0  0  0  0  0  0  0  0  0  0  0
    6.4243    0.3334    2.0831 H   0  0  0  0  0  0  0  0  0  0  0  0
    5.1280    0.7822    3.2008 H   0  0  0  0  0  0  0  0  0  0  0  0
    3.3185    3.1280   -0.5609 H   0  0  0  0  0  0  0  0  0  0  0  0
    1.3986    1.1911   -1.9408 H   0  0  0  0  0  0  0  0  0  0  0  0
    1.2186   -2.1216    0.7042 H   0  0  0  0  0  0  0  0  0  0  0  0
    3.2328   -1.3801    1.8069 H   0  0  0  0  0  0  0  0  0  0  0  0
    0.1782   -1.9784   -1.8967 H   0  0  0  0  0  0  0  0  0  0  0  0
   -0.0431    0.2747   -3.0559 H   0  0  0  0  0  0  0  0  0  0  0  0
   -1.4444   -0.7927   -2.9252 H   0  0  0  0  0  0  0  0  0  0  0  0
   -4.4171    2.1366   -1.8759 H   0  0  0  0  0  0  0  0  0  0  0  0
   -5.4136    0.8753    0.9872 H   0  0  0  0  0  0  0  0  0  0  0  0
   -5.8094   -1.7753    2.1797 H   0  0  0  0  0  0  0  0  0  0  0  0
   -2.5870   -2.3454    1.4567 H   0  0  0  0  0  0  0  0  0  0  0  0
  1  2  1  0
  2  3  1  0
  3  4  2  0
  4  5  1  0
  4  6  1  0
  6  7  2  0
  7  8  1  0
  8  9  2  0
  7 10  1  0
 10 11  1  0
 11 12  1  0
 12 13  2  0
 12 14  1  0
 14 15  2  0
 15 16  1  0
 15 17  1  0
 17 18  2  0
 18 19  1  0
 18 20  1  0
 20 21  2  0
 21 22  1  0
  9  3  1  0
 22 10  1  0
 21 14  1  0
  1 23  1  0
  1 24  1  0
  1 25  1  0
  5 26  1  0
  6 27  1  0
  8 28  1  0
  9 29  1  0
 10 30  1  6
 11 31  1  0
 11 32  1  0
 16 33  1  0
 17 34  1  0
 19 35  1  0
 20 36  1  0
M  END
$$$$
