
     RDKit          3D

 50 53  0  0  0  0  0  0  0  0999 V2000
    4.3125   -0.2560   -2.2558 C   0  0  0  0  0  0  0  0  0  0  0  0
    4.9074   -0.1109   -1.0234 C   0  0  0  0  0  0  0  0  0  0  0  0
    4.1814   -0.4550    0.0967 C   0  0  0  0  0  0  0  0  0  0  0  0
    2.8778   -0.9398    0.0188 C   0  0  0  0  0  0  0  0  0  0  0  0
    2.2392   -1.2606    1.2898 C   0  0  0  0  0  0  0  0  0  0  0  0
    2.8808   -1.9610    2.2879 C   0  0  0  0  0  0  0  0  0  0  0  0
    2.2913   -2.2722    3.4945 C   0  0  0  0  0  0  0  0  0  0  0  0
    0.9857   -1.8354    3.6624 C   0  0  0  0  0  0  0  0  0  0  0  0
    0.3035   -1.1354    2.7007 C   0  0  0  0  0  0  0  0  0  0  0  0
    0.9285   -0.8435    1.5060 C   0  0  0  0  0  0  0  0  0  0  0  0
    0.3456   -0.1538    0.4805 O   0  0  0  0  0  0  0  0  0  0  0  0
   -0.9264    0.3875    0.3863 C   0  0  0  0  0  0  0  0  0  0  0  0
   -0.7349    1.8706    0.3970 C   0  0  0  0  0  0  0  0  0  0  0  0
   -1.1337    2.6642   -0.6455 C   0  0  0  0  0  0  0  0  0  0  0  0
   -0.9684    4.0491   -0.6111 C   0  0  0  0  0  0  0  0  0  0  0  0
   -0.3838    4.5692    0.5246 C   0  0  0  0  0  0  0  0  0  0  0  0
    0.0181    3.8085    1.5642 N   0  0  0  0  0  0  0  0  0  0  0  0
   -0.1582    2.4737    1.4954 C   0  0  0  0  0  0  0  0  0  0  0  0
   -1.7930   -0.0329   -0.7259 C   0  0  0  0  0  0  0  0  0  0  0  0
   -2.0374   -1.5579   -0.7481 C   0  0  0  0  0  0  0  0  0  0  0  0
   -2.7775   -1.7823   -2.0707 C   0  0  0  0  0  0  0  0  0  0  0  0
   -4.1251   -1.2792   -1.8788 N   0  0  0  0  0  0  0  0  0  0  0  0
   -4.1407    0.1402   -1.5697 C   0  0  0  0  0  0  0  0  0  0  0  0
   -3.2139    0.4799   -0.4404 C   0  0  0  0  0  0  0  0  0  0  0  0
    2.2976   -1.0802   -1.2003 C   0  0  0  0  0  0  0  0  0  0  0  0
    3.0234   -0.7347   -2.3447 C   0  0  0  0  0  0  0  0  0  0  0  0
    4.9100    0.0233   -3.1174 H   0  0  0  0  0  0  0  0  0  0  0  0
    5.9303    0.2691   -0.9571 H   0  0  0  0  0  0  0  0  0  0  0  0
    4.6848   -0.3267    1.0538 H   0  0  0  0  0  0  0  0  0  0  0  0
    3.9034   -2.2845    2.1149 H   0  0  0  0  0  0  0  0  0  0  0  0
    2.8324   -2.8246    4.2511 H   0  0  0  0  0  0  0  0  0  0  0  0
    0.5387   -2.0953    4.6307 H   0  0  0  0  0  0  0  0  0  0  0  0
   -0.7083   -0.8279    2.8997 H   0  0  0  0  0  0  0  0  0  0  0  0
   -1.4774    0.1738    1.3420 H   0  0  0  0  0  0  0  0  0  0  0  0
   -1.5637    2.2188   -1.5068 H   0  0  0  0  0  0  0  0  0  0  0  0
   -1.2945    4.6407   -1.4487 H   0  0  0  0  0  0  0  0  0  0  0  0
   -0.2628    5.6597    0.5319 H   0  0  0  0  0  0  0  0  0  0  0  0
    0.1734    1.8865    2.3439 H   0  0  0  0  0  0  0  0  0  0  0  0
   -1.4469    0.2016   -1.7407 H   0  0  0  0  0  0  0  0  0  0  0  0
   -2.7645   -1.8481    0.0394 H   0  0  0  0  0  0  0  0  0  0  0  0
   -1.1046   -2.1168   -0.7024 H   0  0  0  0  0  0  0  0  0  0  0  0
   -2.2716   -1.1292   -2.8292 H   0  0  0  0  0  0  0  0  0  0  0  0
   -2.8059   -2.8250   -2.3653 H   0  0  0  0  0  0  0  0  0  0  0  0
   -4.4903   -1.7611   -1.0031 H   0  0  0  0  0  0  0  0  0  0  0  0
   -5.1714    0.3734   -1.2321 H   0  0  0  0  0  0  0  0  0  0  0  0
   -3.8405    0.7546   -2.4453 H   0  0  0  0  0  0  0  0  0  0  0  0
   -3.5306   -0.1190    0.4650 H   0  0  0  0  0  0  0  0  0  0  0  0
   -3.2866    1.5089   -0.1526 H   0  0  0  0  0  0  0  0  0  0  0  0
    1.2878   -1.4563   -1.2518 H   0  0  0  0  0  0  0  0  0  0  0  0
    2.5590   -0.8477   -3.3107 H   0  0  0  0  0  0  0  0  0  0  0  0
  1  2  2  0
  2  3  1  0
  3  4  2  0
  4  5  1  0
  5  6  2  0
  6  7  1  0
  7  8  2  0
  8  9  1  0
  9 10  2  0
 10 11  1  0
 11 12  1  0
 12 13  1  0
 13 14  2  0
 14 15  1  0
 15 16  2  0
 16 17  1  0
 17 18  2  0
 12 19  1  0
 19 20  1  0
 20 21  1  0
 21 22  1  0
 22 23  1  0
 23 24  1  0
  4 25  1  0
 25 26  2  0
 26  1  1  0
 10  5  1  0
 18 13  1  0
 24 19  1  0
  1 27  1  0
  2 28  1  0
  3 29  1  0
  6 30  1  0
  7 31  1  0
  8 32  1  0
  9 33  1  0
 12 34  1  0
 14 35  1  0
 15 36  1  0
 16 37  1  0
 18 38  1  0
 19 39  1  0
 20 40  1  0
 20 41  1  0
 21 42  1  0
 21 43  1  0
 22 44  1  0
 23 45  1  0
 23 46  1  0
 24 47  1  0
 24 48  1  0
 25 49  1  0
 26 50  1  0
M  END
$$$$
