
     RDKit          3D

 57 59  0  0  0  0  0  0  0  0999 V2000
    1.5639    2.1415   -2.0328 C   0  0  0  0  0  0  0  0  0  0  0  0
    2.1244    0.8225   -1.5950 C   0  0  2  0  0  0  0  0  0  0  0  0
    1.1069   -0.1414   -1.2590 N   0  0  0  0  0  0  0  0  0  0  0  0
    0.9201   -1.3509   -1.9480 C   0  0  0  0  0  0  0  0  0  0  0  0
    1.6820   -1.6073   -2.9062 O   0  0  0  0  0  0  0  0  0  0  0  0
   -0.1210   -2.3631   -1.6274 C   0  0  1  0  0  0  0  0  0  0  0  0
    0.5071   -3.6850   -1.2375 C   0  0  0  0  0  0  0  0  0  0  0  0
   -0.5622   -4.7452   -1.1297 C   0  0  0  0  0  0  0  0  0  0  0  0
   -1.8990   -4.2110   -0.7383 C   0  0  0  0  0  0  0  0  0  0  0  0
   -1.6807   -2.9692    0.1219 C   0  0  0  0  0  0  0  0  0  0  0  0
   -0.9963   -1.9443   -0.5869 N   0  0  0  0  0  0  0  0  0  0  0  0
   -1.9126   -0.9178   -1.0172 C   0  0  0  0  0  0  0  0  0  0  0  0
   -2.4667   -0.0936    0.1389 C   0  0  0  0  0  0  0  0  0  0  0  0
   -3.3464    0.8838   -0.3912 O   0  0  0  0  0  0  0  0  0  0  0  0
   -4.0121    1.7930    0.4242 C   0  0  0  0  0  0  0  0  0  0  0  0
   -4.8602    2.7332   -0.1204 C   0  0  0  0  0  0  0  0  0  0  0  0
   -5.5330    3.6465    0.6687 C   0  0  0  0  0  0  0  0  0  0  0  0
   -5.3804    3.6529    2.0500 C   0  0  0  0  0  0  0  0  0  0  0  0
   -4.5301    2.7086    2.5834 C   0  0  0  0  0  0  0  0  0  0  0  0
   -3.8547    1.7924    1.7935 C   0  0  0  0  0  0  0  0  0  0  0  0
    3.1410    0.9812   -0.5132 C   0  0  0  0  0  0  0  0  0  0  0  0
    3.5806    2.2226   -0.0891 C   0  0  0  0  0  0  0  0  0  0  0  0
    4.5198    2.3590    0.9104 C   0  0  0  0  0  0  0  0  0  0  0  0
    5.0676    1.2573    1.5372 C   0  0  0  0  0  0  0  0  0  0  0  0
    6.0685    1.4070    2.6019 C   0  0  0  0  0  0  0  0  0  0  0  0
    6.5808    0.4244    3.1834 O   0  0  0  0  0  0  0  0  0  0  0  0
    6.4431    2.6893    2.9581 O   0  0  0  0  0  0  0  0  0  0  0  0
    4.6367    0.0173    1.1220 C   0  0  0  0  0  0  0  0  0  0  0  0
    3.6992   -0.1076    0.1240 C   0  0  0  0  0  0  0  0  0  0  0  0
    0.8310    1.9479   -2.8367 H   0  0  0  0  0  0  0  0  0  0  0  0
    1.1812    2.7626   -1.2043 H   0  0  0  0  0  0  0  0  0  0  0  0
    2.3966    2.7167   -2.5000 H   0  0  0  0  0  0  0  0  0  0  0  0
    2.6848    0.3953   -2.4721 H   0  0  0  0  0  0  0  0  0  0  0  0
    0.4913    0.0836   -0.4612 H   0  0  0  0  0  0  0  0  0  0  0  0
   -0.7073   -2.5320   -2.5512 H   0  0  0  0  0  0  0  0  0  0  0  0
    0.9629   -3.5355   -0.2203 H   0  0  0  0  0  0  0  0  0  0  0  0
    1.2543   -4.0311   -1.9674 H   0  0  0  0  0  0  0  0  0  0  0  0
   -0.6227   -5.2716   -2.1278 H   0  0  0  0  0  0  0  0  0  0  0  0
   -0.2177   -5.5685   -0.4345 H   0  0  0  0  0  0  0  0  0  0  0  0
   -2.5050   -4.9221   -0.1539 H   0  0  0  0  0  0  0  0  0  0  0  0
   -2.4552   -3.9641   -1.6766 H   0  0  0  0  0  0  0  0  0  0  0  0
   -1.1383   -3.3335    1.0286 H   0  0  0  0  0  0  0  0  0  0  0  0
   -2.6992   -2.6685    0.4426 H   0  0  0  0  0  0  0  0  0  0  0  0
   -2.7770   -1.4043   -1.5672 H   0  0  0  0  0  0  0  0  0  0  0  0
   -1.4793   -0.2167   -1.7561 H   0  0  0  0  0  0  0  0  0  0  0  0
   -3.0371   -0.7365    0.8323 H   0  0  0  0  0  0  0  0  0  0  0  0
   -1.6187    0.3438    0.6949 H   0  0  0  0  0  0  0  0  0  0  0  0
   -4.9768    2.7237   -1.2118 H   0  0  0  0  0  0  0  0  0  0  0  0
   -6.1990    4.3829    0.2215 H   0  0  0  0  0  0  0  0  0  0  0  0
   -5.9153    4.3756    2.6539 H   0  0  0  0  0  0  0  0  0  0  0  0
   -4.4042    2.7081    3.6715 H   0  0  0  0  0  0  0  0  0  0  0  0
   -3.1883    1.0559    2.2426 H   0  0  0  0  0  0  0  0  0  0  0  0
    3.1676    3.1189   -0.5634 H   0  0  0  0  0  0  0  0  0  0  0  0
    4.8706    3.3387    1.2475 H   0  0  0  0  0  0  0  0  0  0  0  0
    7.2286    2.7794    3.5930 H   0  0  0  0  0  0  0  0  0  0  0  0
    5.0424   -0.8610    1.5864 H   0  0  0  0  0  0  0  0  0  0  0  0
    3.3435   -1.0839   -0.2213 H   0  0  0  0  0  0  0  0  0  0  0  0
  1  2  1  0
  2  3  1  0
  3  4  1  0
  4  5  2  0
  4  6  1  0
  6  7  1  0
  7  8  1  0
  8  9  1  0
  9 10  1  0
 10 11  1  0
 11 12  1  0
 12 13  1  0
 13 14  1  0
 14 15  1  0
 15 16  2  0
 16 17  1  0
 17 18  2  0
 18 19  1  0
 19 20  2  0
  2 21  1  0
 21 22  2  0
 22 23  1  0
 23 24  2  0
 24 25  1  0
 25 26  2  0
 25 27  1  0
 24 28  1  0
 28 29  2  0
 11  6  1  0
 20 15  1  0
 29 21  1  0
  1 30  1  0
  1 31  1  0
  1 32  1  0
  2 33  1  6
  3 34  1  0
  6 35  1  6
  7 36  1  0
  7 37  1  0
  8 38  1  0
  8 39  1  0
  9 40  1  0
  9 41  1  0
 10 42  1  0
 10 43  1  0
 12 44  1  0
 12 45  1  0
 13 46  1  0
 13 47  1  0
 16 48  1  0
 17 49  1  0
 18 50  1  0
 19 51  1  0
 20 52  1  0
 22 53  1  0
 23 54  1  0
 27 55  1  0
 28 56  1  0
 29 57  1  0
M  END
$$$$
