
     RDKit          3D

 62 64  0  0  0  0  0  0  0  0999 V2000
    0.4366   -1.0169   -1.4212 C   0  0  1  0  0  0  0  0  0  0  0  0
    1.7433   -0.3895   -1.7489 C   0  0  2  0  0  0  0  0  0  0  0  0
    2.4309   -0.9938   -2.9169 C   0  0  0  0  0  0  0  0  0  0  0  0
    2.5249   -2.4785   -2.8868 C   0  0  0  0  0  0  0  0  0  0  0  0
    1.5573   -3.0157   -1.9097 C   0  0  0  0  0  0  0  0  0  0  0  0
    0.5875   -2.5042   -1.1872 C   0  0  0  0  0  0  0  0  0  0  0  0
   -0.2798   -3.2008   -0.2473 C   0  0  0  0  0  0  0  0  0  0  0  0
   -0.5485   -2.5622    0.9130 C   0  0  0  0  0  0  0  0  0  0  0  0
    0.1412   -1.2198    0.9731 C   0  0  2  0  0  0  0  0  0  0  0  0
   -0.1118   -0.6388    2.3100 C   0  0  0  0  0  0  0  0  0  0  0  0
   -0.2482   -0.3906   -0.2055 C   0  0  2  0  0  0  0  0  0  0  0  0
   -1.7343   -0.3813   -0.4740 C   0  0  0  0  0  0  0  0  0  0  0  0
   -2.5681    0.2008    0.6158 C   0  0  0  0  0  0  0  0  0  0  0  0
   -4.0165    0.1239    0.1514 C   0  0  2  0  0  0  0  0  0  0  0  0
   -4.2585    0.8853   -1.1167 C   0  0  0  0  0  0  0  0  0  0  0  0
   -5.7690    0.9868   -1.2838 C   0  0  1  0  0  0  0  0  0  0  0  0
   -6.2909   -0.3091   -1.2025 O   0  0  0  0  0  0  0  0  0  0  0  0
   -6.3298    1.7795   -0.1397 C   0  0  0  0  0  0  0  0  0  0  0  0
   -5.4024    1.8960    1.0161 C   0  0  0  0  0  0  0  0  0  0  0  0
   -5.3293    3.0571    1.5479 O   0  0  0  0  0  0  0  0  0  0  0  0
   -4.9052    0.6039    1.1176 O   0  0  0  0  0  0  0  0  0  0  0  0
    2.6474   -0.3113   -0.6757 O   0  0  0  0  0  0  0  0  0  0  0  0
    3.0631    0.9427   -0.1998 C   0  0  0  0  0  0  0  0  0  0  0  0
    2.6209    2.0117   -0.7407 O   0  0  0  0  0  0  0  0  0  0  0  0
    4.0216    1.0125    0.9377 C   0  0  1  0  0  0  0  0  0  0  0  0
    5.3346    0.3249    0.6097 C   0  0  0  0  0  0  0  0  0  0  0  0
    4.3126    2.4467    1.2440 C   0  0  0  0  0  0  0  0  0  0  0  0
    5.2773    2.6540    2.3853 C   0  0  0  0  0  0  0  0  0  0  0  0
   -0.2128   -0.9386   -2.3170 H   0  0  0  0  0  0  0  0  0  0  0  0
    1.5210    0.6821   -2.0291 H   0  0  0  0  0  0  0  0  0  0  0  0
    1.9059   -0.7080   -3.8603 H   0  0  0  0  0  0  0  0  0  0  0  0
    3.4664   -0.5448   -2.9465 H   0  0  0  0  0  0  0  0  0  0  0  0
    2.3884   -2.9087   -3.8999 H   0  0  0  0  0  0  0  0  0  0  0  0
    3.5401   -2.7852   -2.4901 H   0  0  0  0  0  0  0  0  0  0  0  0
    1.6832   -4.1009   -1.7627 H   0  0  0  0  0  0  0  0  0  0  0  0
   -0.5841   -4.1789   -0.6474 H   0  0  0  0  0  0  0  0  0  0  0  0
   -1.1999   -3.1702    1.5285 H   0  0  0  0  0  0  0  0  0  0  0  0
    1.2578   -1.3877    0.8609 H   0  0  0  0  0  0  0  0  0  0  0  0
   -0.3819    0.4438    2.2939 H   0  0  0  0  0  0  0  0  0  0  0  0
    0.8552   -0.6547    2.8921 H   0  0  0  0  0  0  0  0  0  0  0  0
   -0.7966   -1.2464    2.9585 H   0  0  0  0  0  0  0  0  0  0  0  0
    0.0998    0.6397   -0.0570 H   0  0  0  0  0  0  0  0  0  0  0  0
   -2.1055   -1.3801   -0.7941 H   0  0  0  0  0  0  0  0  0  0  0  0
   -1.8955    0.2621   -1.3892 H   0  0  0  0  0  0  0  0  0  0  0  0
   -2.5113   -0.3505    1.5673 H   0  0  0  0  0  0  0  0  0  0  0  0
   -2.3455    1.2609    0.8237 H   0  0  0  0  0  0  0  0  0  0  0  0
   -4.2555   -0.9531   -0.0255 H   0  0  0  0  0  0  0  0  0  0  0  0
   -3.8309    0.3613   -2.0194 H   0  0  0  0  0  0  0  0  0  0  0  0
   -3.8055    1.8894   -1.0662 H   0  0  0  0  0  0  0  0  0  0  0  0
   -6.0186    1.4188   -2.2753 H   0  0  0  0  0  0  0  0  0  0  0  0
   -6.9586   -0.3959   -0.4590 H   0  0  0  0  0  0  0  0  0  0  0  0
   -6.6064    2.7779   -0.5618 H   0  0  0  0  0  0  0  0  0  0  0  0
   -7.2916    1.3235    0.2043 H   0  0  0  0  0  0  0  0  0  0  0  0
    3.5399    0.5779    1.8318 H   0  0  0  0  0  0  0  0  0  0  0  0
    5.8127   -0.0939    1.5282 H   0  0  0  0  0  0  0  0  0  0  0  0
    6.0189    0.9942    0.0608 H   0  0  0  0  0  0  0  0  0  0  0  0
    5.0741   -0.5464   -0.0474 H   0  0  0  0  0  0  0  0  0  0  0  0
    4.7806    2.9387    0.3444 H   0  0  0  0  0  0  0  0  0  0  0  0
    3.3654    3.0082    1.4599 H   0  0  0  0  0  0  0  0  0  0  0  0
    6.1243    3.3233    2.1133 H   0  0  0  0  0  0  0  0  0  0  0  0
    4.7699    3.2012    3.2324 H   0  0  0  0  0  0  0  0  0  0  0  0
    5.6905    1.7278    2.8040 H   0  0  0  0  0  0  0  0  0  0  0  0
  1  2  1  0
  2  3  1  0
  3  4  1  0
  4  5  1  0
  5  6  2  0
  6  7  1  0
  7  8  2  0
  8  9  1  0
  9 10  1  0
  9 11  1  0
 11 12  1  0
 12 13  1  0
 13 14  1  0
 14 15  1  0
 15 16  1  0
 16 17  1  0
 16 18  1  0
 18 19  1  0
 19 20  2  0
 19 21  1  0
  2 22  1  0
 22 23  1  0
 23 24  2  0
 23 25  1  0
 25 26  1  0
 25 27  1  0
 27 28  1  0
  6  1  1  0
 21 14  1  0
 11  1  1  0
  1 29  1  6
  2 30  1  6
  3 31  1  0
  3 32  1  0
  4 33  1  0
  4 34  1  0
  5 35  1  0
  7 36  1  0
  8 37  1  0
  9 38  1  6
 10 39  1  0
 10 40  1  0
 10 41  1  0
 11 42  1  1
 12 43  1  0
 12 44  1  0
 13 45  1  0
 13 46  1  0
 14 47  1  6
 15 48  1  0
 15 49  1  0
 16 50  1  6
 17 51  1  0
 18 52  1  0
 18 53  1  0
 25 54  1  1
 26 55  1  0
 26 56  1  0
 26 57  1  0
 27 58  1  0
 27 59  1  0
 28 60  1  0
 28 61  1  0
 28 62  1  0
M  END
$$$$
