
     RDKit          3D

 16 16  0  0  0  0  0  0  0  0999 V2000
    2.2714   -0.2458    0.1143 C   0  0  0  0  0  0  0  0  0  0  0  0
    0.8074    0.0595    0.0522 C   0  0  0  0  0  0  0  0  0  0  0  0
    0.4507    1.3691   -0.1998 C   0  0  0  0  0  0  0  0  0  0  0  0
   -0.9060    1.6163   -0.2505 C   0  0  0  0  0  0  0  0  0  0  0  0
   -1.8434    0.5982   -0.0575 C   0  0  0  0  0  0  0  0  0  0  0  0
   -1.4070   -0.6890    0.1904 C   0  0  0  0  0  0  0  0  0  0  0  0
   -2.2876   -1.7698    0.3956 O   0  0  0  0  0  0  0  0  0  0  0  0
   -0.0498   -1.0038    0.2541 C   0  0  0  0  0  0  0  0  0  0  0  0
    2.7027    0.0129    1.1142 H   0  0  0  0  0  0  0  0  0  0  0  0
    2.4502   -1.3348   -0.1293 H   0  0  0  0  0  0  0  0  0  0  0  0
    2.8205    0.2949   -0.7120 H   0  0  0  0  0  0  0  0  0  0  0  0
    1.1665    2.1455   -0.3470 H   0  0  0  0  0  0  0  0  0  0  0  0
   -1.2944    2.6242   -0.4447 H   0  0  0  0  0  0  0  0  0  0  0  0
   -2.9118    0.7958   -0.0979 H   0  0  0  0  0  0  0  0  0  0  0  0
   -2.3074   -2.4776   -0.3273 H   0  0  0  0  0  0  0  0  0  0  0  0
    0.3381   -1.9955    0.4452 H   0  0  0  0  0  0  0  0  0  0  0  0
  1  2  1  0
  2  3  2  0
  3  4  1  0
  4  5  2  0
  5  6  1  0
  6  7  1  0
  6  8  2  0
  8  2  1  0
  1  9  1  0
  1 10  1  0
  1 11  1  0
  3 12  1  0
  4 13  1  0
  5 14  1  0
  7 15  1  0
  8 16  1  0
M  END
$$$$
