
     RDKit          3D

 51 53  0  0  0  0  0  0  0  0999 V2000
    7.2243   -0.3639   -1.4670 C   0  0  0  0  0  0  0  0  0  0  0  0
    6.3660    0.7126   -0.8724 C   0  0  0  0  0  0  0  0  0  0  0  0
    7.1296    1.4029    0.2322 C   0  0  0  0  0  0  0  0  0  0  0  0
    6.1561    1.6492   -1.8888 F   0  0  0  0  0  0  0  0  0  0  0  0
    5.0576    0.1718   -0.4130 C   0  0  0  0  0  0  0  0  0  0  0  0
    4.0590    0.8446    0.1872 N   0  0  0  0  0  0  0  0  0  0  0  0
    3.0205   -0.0055    0.4563 C   0  0  0  0  0  0  0  0  0  0  0  0
    1.7381    0.3321    1.1192 C   0  0  2  0  0  0  0  0  0  0  0  0
    1.6605   -0.3917    2.4710 C   0  0  0  0  0  0  0  0  0  0  0  0
    1.0869   -1.7435    2.1040 C   0  0  0  0  0  0  0  0  0  0  0  0
    0.6355   -1.6506    0.6632 C   0  0  0  0  0  0  0  0  0  0  0  0
    0.5900   -0.2166    0.4476 N   0  0  0  0  0  0  0  0  0  0  0  0
   -0.3758    0.5350   -0.2691 C   0  0  0  0  0  0  0  0  0  0  0  0
   -0.2522    1.7783   -0.3342 O   0  0  0  0  0  0  0  0  0  0  0  0
   -1.5239   -0.1092   -0.9396 C   0  0  0  0  0  0  0  0  0  0  0  0
   -2.8487    0.4198   -0.4135 C   0  0  2  0  0  0  0  0  0  0  0  0
   -2.8595    0.1134    1.0059 N   0  0  0  0  0  0  0  0  0  0  0  0
   -3.9407   -0.3160   -1.1502 C   0  0  0  0  0  0  0  0  0  0  0  0
   -5.2963    0.0818   -0.7382 C   0  0  0  0  0  0  0  0  0  0  0  0
   -6.0609   -0.7526    0.0791 C   0  0  0  0  0  0  0  0  0  0  0  0
   -7.3288   -0.4391    0.4946 C   0  0  0  0  0  0  0  0  0  0  0  0
   -8.0729   -1.2680    1.2991 F   0  0  0  0  0  0  0  0  0  0  0  0
   -7.9020    0.7386    0.1089 C   0  0  0  0  0  0  0  0  0  0  0  0
   -9.1593    1.0477    0.5220 F   0  0  0  0  0  0  0  0  0  0  0  0
   -7.1697    1.6008   -0.7089 C   0  0  0  0  0  0  0  0  0  0  0  0
   -5.8952    1.2664   -1.1159 C   0  0  0  0  0  0  0  0  0  0  0  0
   -5.2410    2.1449   -1.9065 F   0  0  0  0  0  0  0  0  0  0  0  0
    3.4521   -1.1878   -0.0080 N   0  0  0  0  0  0  0  0  0  0  0  0
    4.6381   -1.0768   -0.5124 O   0  0  0  0  0  0  0  0  0  0  0  0
    7.2144   -1.2866   -0.8498 H   0  0  0  0  0  0  0  0  0  0  0  0
    6.9614   -0.5867   -2.5194 H   0  0  0  0  0  0  0  0  0  0  0  0
    8.2756    0.0267   -1.4899 H   0  0  0  0  0  0  0  0  0  0  0  0
    7.8280    0.6464    0.6706 H   0  0  0  0  0  0  0  0  0  0  0  0
    7.6597    2.2711   -0.1574 H   0  0  0  0  0  0  0  0  0  0  0  0
    6.3805    1.6599    1.0308 H   0  0  0  0  0  0  0  0  0  0  0  0
    1.6661    1.4302    1.2627 H   0  0  0  0  0  0  0  0  0  0  0  0
    2.6402   -0.4668    2.9438 H   0  0  0  0  0  0  0  0  0  0  0  0
    0.9071    0.1540    3.0583 H   0  0  0  0  0  0  0  0  0  0  0  0
    0.1835   -1.9670    2.7249 H   0  0  0  0  0  0  0  0  0  0  0  0
    1.8794   -2.4992    2.2153 H   0  0  0  0  0  0  0  0  0  0  0  0
    1.3039   -2.1100   -0.0600 H   0  0  0  0  0  0  0  0  0  0  0  0
   -0.3693   -2.1138    0.5213 H   0  0  0  0  0  0  0  0  0  0  0  0
   -1.5309   -1.1946   -0.8710 H   0  0  0  0  0  0  0  0  0  0  0  0
   -1.5344    0.1533   -2.0371 H   0  0  0  0  0  0  0  0  0  0  0  0
   -2.8465    1.4997   -0.5573 H   0  0  0  0  0  0  0  0  0  0  0  0
   -2.1446    0.6989    1.4862 H   0  0  0  0  0  0  0  0  0  0  0  0
   -2.5198   -0.8852    1.1587 H   0  0  0  0  0  0  0  0  0  0  0  0
   -3.8152   -1.4001   -0.9283 H   0  0  0  0  0  0  0  0  0  0  0  0
   -3.7599   -0.1777   -2.2310 H   0  0  0  0  0  0  0  0  0  0  0  0
   -5.6183   -1.6952    0.3952 H   0  0  0  0  0  0  0  0  0  0  0  0
   -7.6484    2.5243   -0.9975 H   0  0  0  0  0  0  0  0  0  0  0  0
  1  2  1  0
  2  3  1  0
  2  4  1  0
  2  5  1  0
  5  6  2  0
  6  7  1  0
  7  8  1  0
  8  9  1  0
  9 10  1  0
 10 11  1  0
 11 12  1  0
 12 13  1  0
 13 14  2  0
 13 15  1  0
 15 16  1  0
 16 17  1  0
 16 18  1  0
 18 19  1  0
 19 20  2  0
 20 21  1  0
 21 22  1  0
 21 23  2  0
 23 24  1  0
 23 25  1  0
 25 26  2  0
 26 27  1  0
  7 28  2  0
 28 29  1  0
 29  5  1  0
 12  8  1  0
 26 19  1  0
  1 30  1  0
  1 31  1  0
  1 32  1  0
  3 33  1  0
  3 34  1  0
  3 35  1  0
  8 36  1  1
  9 37  1  0
  9 38  1  0
 10 39  1  0
 10 40  1  0
 11 41  1  0
 11 42  1  0
 15 43  1  0
 15 44  1  0
 16 45  1  1
 17 46  1  0
 17 47  1  0
 18 48  1  0
 18 49  1  0
 20 50  1  0
 25 51  1  0
M  END
$$$$
