
     RDKit          3D

 50 53  0  0  0  0  0  0  0  0999 V2000
    7.5001    0.4662    0.8014 N   0  0  0  0  0  0  0  0  0  0  0  0
    7.1072   -0.2124   -0.3892 C   0  0  0  0  0  0  0  0  0  0  0  0
    7.9427   -0.5553   -1.3208 N   0  0  0  0  0  0  0  0  0  0  0  0
    5.6642   -0.5089   -0.5036 C   0  0  0  0  0  0  0  0  0  0  0  0
    4.6999    0.2982    0.0754 C   0  0  0  0  0  0  0  0  0  0  0  0
    3.3684   -0.0243   -0.0620 C   0  0  0  0  0  0  0  0  0  0  0  0
    3.0494   -1.1542   -0.7813 C   0  0  0  0  0  0  0  0  0  0  0  0
    3.9720   -1.9875   -1.3751 C   0  0  0  0  0  0  0  0  0  0  0  0
    5.2965   -1.6372   -1.2191 C   0  0  0  0  0  0  0  0  0  0  0  0
    1.7086   -1.2528   -0.7722 N   0  0  0  0  0  0  0  0  0  0  0  0
    1.1788   -0.2303   -0.0765 C   0  0  0  0  0  0  0  0  0  0  0  0
    2.2093    0.5135    0.3521 N   0  0  0  0  0  0  0  0  0  0  0  0
   -0.2385    0.0194    0.1638 C   0  0  0  0  0  0  0  0  0  0  0  0
   -0.6131    1.1215    0.9030 C   0  0  0  0  0  0  0  0  0  0  0  0
   -1.9564    1.3496    1.1252 C   0  0  0  0  0  0  0  0  0  0  0  0
   -2.4627    2.5014    1.9040 C   0  0  0  0  0  0  0  0  0  0  0  0
   -2.7248    3.7144    1.0404 C   0  0  0  0  0  0  0  0  0  0  0  0
   -3.2123    4.7717    1.8964 N   0  0  0  0  0  4  0  0  0  0  0  0
   -2.8634    0.4649    0.5980 C   0  0  0  0  0  0  0  0  0  0  0  0
   -2.5286   -0.6509   -0.1479 C   0  0  0  0  0  0  0  0  0  0  0  0
   -1.1742   -0.8528   -0.3536 C   0  0  0  0  0  0  0  0  0  0  0  0
   -0.7376   -1.9391   -1.0859 O   0  0  0  0  0  0  0  0  0  0  0  0
   -3.4482   -1.5817   -0.7044 C   0  0  0  0  0  0  0  0  0  0  0  0
   -4.4574   -1.9723    0.1702 C   0  0  0  0  0  0  0  0  0  0  0  0
   -5.4401   -2.8817   -0.2239 C   0  0  0  0  0  0  0  0  0  0  0  0
   -5.4032   -3.3992   -1.5080 C   0  0  0  0  0  0  0  0  0  0  0  0
   -4.3951   -3.0164   -2.3992 C   0  0  0  0  0  0  0  0  0  0  0  0
   -3.4392   -2.1152   -1.9766 C   0  0  0  0  0  0  0  0  0  0  0  0
    7.5203   -0.2777    1.5280 H   0  0  0  0  0  0  0  0  0  0  0  0
    7.7524    1.4262    1.1183 H   0  0  0  0  0  0  0  0  0  0  0  0
    7.6552   -1.0508   -2.1898 H   0  0  0  0  0  0  0  0  0  0  0  0
    4.9924    1.1754    0.6314 H   0  0  0  0  0  0  0  0  0  0  0  0
    3.6662   -2.8618   -1.9284 H   0  0  0  0  0  0  0  0  0  0  0  0
    6.0704   -2.2546   -1.6640 H   0  0  0  0  0  0  0  0  0  0  0  0
    2.1877    1.3937    0.9272 H   0  0  0  0  0  0  0  0  0  0  0  0
    0.0740    1.8152    1.3177 H   0  0  0  0  0  0  0  0  0  0  0  0
   -1.7133    2.7546    2.6578 H   0  0  0  0  0  0  0  0  0  0  0  0
   -3.4026    2.1879    2.4080 H   0  0  0  0  0  0  0  0  0  0  0  0
   -3.5152    3.5207    0.2859 H   0  0  0  0  0  0  0  0  0  0  0  0
   -1.7997    4.0499    0.5649 H   0  0  0  0  0  0  0  0  0  0  0  0
   -4.2729    4.7344    1.9238 H   0  0  0  0  0  0  0  0  0  0  0  0
   -2.8848    5.6820    1.5042 H   0  0  0  0  0  0  0  0  0  0  0  0
   -2.8701    4.6058    2.8606 H   0  0  0  0  0  0  0  0  0  0  0  0
   -3.9352    0.6089    0.7505 H   0  0  0  0  0  0  0  0  0  0  0  0
   -0.2384   -2.6751   -0.5843 H   0  0  0  0  0  0  0  0  0  0  0  0
   -4.5474   -1.6010    1.2044 H   0  0  0  0  0  0  0  0  0  0  0  0
   -6.2310   -3.1947    0.4453 H   0  0  0  0  0  0  0  0  0  0  0  0
   -6.1458   -4.1042   -1.8479 H   0  0  0  0  0  0  0  0  0  0  0  0
   -4.3448   -3.4128   -3.4219 H   0  0  0  0  0  0  0  0  0  0  0  0
   -2.6198   -1.7708   -2.6226 H   0  0  0  0  0  0  0  0  0  0  0  0
  1  2  1  0
  2  3  2  3
  2  4  1  0
  4  5  2  0
  5  6  1  0
  6  7  2  0
  7  8  1  0
  8  9  2  0
  7 10  1  0
 10 11  2  0
 11 12  1  0
 11 13  1  0
 13 14  2  0
 14 15  1  0
 15 16  1  0
 16 17  1  0
 17 18  1  0
 15 19  2  0
 19 20  1  0
 20 21  2  0
 21 22  1  0
 20 23  1  0
 23 24  2  0
 24 25  1  0
 25 26  2  0
 26 27  1  0
 27 28  2  0
  9  4  1  0
 21 13  1  0
 28 23  1  0
 12  6  1  0
  1 29  1  0
  1 30  1  0
  3 31  1  0
  5 32  1  0
  8 33  1  0
  9 34  1  0
 12 35  1  0
 14 36  1  0
 16 37  1  0
 16 38  1  0
 17 39  1  0
 17 40  1  0
 18 41  1  0
 18 42  1  0
 18 43  1  0
 19 44  1  0
 22 45  1  0
 24 46  1  0
 25 47  1  0
 26 48  1  0
 27 49  1  0
 28 50  1  0
M  CHG  1  18   1
M  END
$$$$
