
     RDKit          3D

 53 57  0  0  0  0  0  0  0  0999 V2000
    3.7960    4.3844   -1.3159 C   0  0  0  0  0  0  0  0  0  0  0  0
    2.9424    3.3325   -0.9071 O   0  0  0  0  0  0  0  0  0  0  0  0
    3.2127    2.0544   -1.4136 C   0  0  0  0  0  0  0  0  0  0  0  0
    4.2643    1.8206   -2.2753 C   0  0  0  0  0  0  0  0  0  0  0  0
    4.5380    0.5670   -2.7787 C   0  0  0  0  0  0  0  0  0  0  0  0
    3.7502   -0.5257   -2.4299 C   0  0  0  0  0  0  0  0  0  0  0  0
    3.7782   -1.8294   -2.7565 N   0  0  0  0  0  0  0  0  0  0  0  0
    2.7814   -2.4833   -2.1446 C   0  0  0  0  0  0  0  0  0  0  0  0
    2.0869   -1.5352   -1.3898 C   0  0  0  0  0  0  0  0  0  0  0  0
    0.9221   -1.7847   -0.5545 C   0  0  0  0  0  0  0  0  0  0  0  0
    0.4417   -3.0852   -0.4903 C   0  0  0  0  0  0  0  0  0  0  0  0
   -0.6416   -3.4406    0.2578 C   0  0  0  0  0  0  0  0  0  0  0  0
   -1.3069   -4.6051    0.4957 N   0  0  0  0  0  0  0  0  0  0  0  0
   -2.3077   -4.3735    1.3179 N   0  0  0  0  0  0  0  0  0  0  0  0
   -3.2321   -5.3751    1.7927 C   0  0  0  0  0  0  0  0  0  0  0  0
   -2.3176   -3.0580    1.6333 C   0  0  0  0  0  0  0  0  0  0  0  0
   -1.2718   -2.4662    0.9694 C   0  0  0  0  0  0  0  0  0  0  0  0
   -0.7864   -1.1585    0.9030 C   0  0  0  0  0  0  0  0  0  0  0  0
   -1.4341   -0.1924    1.6261 O   0  0  0  0  0  0  0  0  0  0  0  0
   -1.0712    1.1287    1.6570 C   0  0  2  0  0  0  0  0  0  0  0  0
   -0.6858    1.6226    3.0397 C   0  0  0  0  0  0  0  0  0  0  0  0
   -2.1363    2.0746    1.1523 C   0  0  1  0  0  0  0  0  0  0  0  0
   -2.5210    1.7972   -0.2838 C   0  0  0  0  0  0  0  0  0  0  0  0
   -3.7508    2.5541   -0.4049 N   0  0  0  0  0  0  0  0  0  0  0  0
   -4.3999    2.4245    0.8487 C   0  0  0  0  0  0  0  0  0  0  0  0
   -5.5943    2.7352    1.0595 O   0  0  0  0  0  0  0  0  0  0  0  0
   -3.4630    1.8722    1.8607 C   0  0  0  0  0  0  0  0  0  0  0  0
    0.2983   -0.8438    0.1444 N   0  0  0  0  0  0  0  0  0  0  0  0
    2.6962   -0.2993   -1.5682 C   0  0  0  0  0  0  0  0  0  0  0  0
    2.4330    0.9710   -1.0689 C   0  0  0  0  0  0  0  0  0  0  0  0
    3.7657    4.4449   -2.4174 H   0  0  0  0  0  0  0  0  0  0  0  0
    3.5355    5.3331   -0.8246 H   0  0  0  0  0  0  0  0  0  0  0  0
    4.8673    4.1648   -1.0436 H   0  0  0  0  0  0  0  0  0  0  0  0
    4.8771    2.6700   -2.5467 H   0  0  0  0  0  0  0  0  0  0  0  0
    5.3551    0.3803   -3.4494 H   0  0  0  0  0  0  0  0  0  0  0  0
    4.4833   -2.2759   -3.4020 H   0  0  0  0  0  0  0  0  0  0  0  0
    2.5238   -3.5348   -2.1931 H   0  0  0  0  0  0  0  0  0  0  0  0
    0.9273   -3.8710   -1.0468 H   0  0  0  0  0  0  0  0  0  0  0  0
   -3.6738   -5.9468    0.9560 H   0  0  0  0  0  0  0  0  0  0  0  0
   -2.7213   -6.1042    2.4516 H   0  0  0  0  0  0  0  0  0  0  0  0
   -4.0629   -4.8907    2.3551 H   0  0  0  0  0  0  0  0  0  0  0  0
   -3.0119   -2.5630    2.2819 H   0  0  0  0  0  0  0  0  0  0  0  0
   -0.1891    1.3067    1.0218 H   0  0  0  0  0  0  0  0  0  0  0  0
    0.2372    2.2291    3.0343 H   0  0  0  0  0  0  0  0  0  0  0  0
   -1.4841    2.2491    3.4828 H   0  0  0  0  0  0  0  0  0  0  0  0
   -0.5442    0.7703    3.7480 H   0  0  0  0  0  0  0  0  0  0  0  0
   -1.8106    3.1016    1.3050 H   0  0  0  0  0  0  0  0  0  0  0  0
   -1.7446    2.1343   -0.9993 H   0  0  0  0  0  0  0  0  0  0  0  0
   -2.7232    0.7066   -0.3893 H   0  0  0  0  0  0  0  0  0  0  0  0
   -4.0501    3.0690   -1.2578 H   0  0  0  0  0  0  0  0  0  0  0  0
   -3.6955    0.8080    2.0221 H   0  0  0  0  0  0  0  0  0  0  0  0
   -3.4855    2.4381    2.8094 H   0  0  0  0  0  0  0  0  0  0  0  0
    1.6035    1.0976   -0.4028 H   0  0  0  0  0  0  0  0  0  0  0  0
  1  2  1  0
  2  3  1  0
  3  4  2  0
  4  5  1  0
  5  6  2  0
  6  7  1  0
  7  8  1  0
  8  9  2  0
  9 10  1  0
 10 11  2  0
 11 12  1  0
 12 13  2  0
 13 14  1  0
 14 15  1  0
 14 16  1  0
 16 17  2  0
 17 18  1  0
 18 19  1  0
 19 20  1  0
 20 21  1  0
 20 22  1  0
 22 23  1  0
 23 24  1  0
 24 25  1  0
 25 26  2  0
 25 27  1  0
 18 28  2  0
  9 29  1  0
 29 30  2  0
 30  3  1  0
 29  6  1  0
 28 10  1  0
 17 12  1  0
 27 22  1  0
  1 31  1  0
  1 32  1  0
  1 33  1  0
  4 34  1  0
  5 35  1  0
  7 36  1  0
  8 37  1  0
 11 38  1  0
 15 39  1  0
 15 40  1  0
 15 41  1  0
 16 42  1  0
 20 43  1  6
 21 44  1  0
 21 45  1  0
 21 46  1  0
 22 47  1  6
 23 48  1  0
 23 49  1  0
 24 50  1  0
 27 51  1  0
 27 52  1  0
 30 53  1  0
M  END
$$$$
