
     RDKit          3D

 43 45  0  0  0  0  0  0  0  0999 V2000
   -4.6029   -1.1946    1.1742 C   0  0  0  0  0  0  0  0  0  0  0  0
   -3.8378   -0.5973   -0.0124 C   0  0  0  0  0  0  0  0  0  0  0  0
   -4.6417   -0.8721   -1.2580 C   0  0  0  0  0  0  0  0  0  0  0  0
   -2.5459   -1.2299   -0.0514 N   0  0  0  0  0  0  0  0  0  0  0  0
   -2.3488   -2.5515   -0.1161 C   0  0  0  0  0  0  0  0  0  0  0  0
   -1.0260   -2.7853   -0.1361 N   0  0  0  0  0  0  0  0  0  0  0  0
   -0.3566   -1.6183   -0.0846 C   0  0  0  0  0  0  0  0  0  0  0  0
   -1.3351   -0.6454   -0.0315 C   0  0  0  0  0  0  0  0  0  0  0  0
   -0.9357    0.6583    0.0284 N   0  0  0  0  0  0  0  0  0  0  0  0
    0.3841    1.0057    0.0362 C   0  0  0  0  0  0  0  0  0  0  0  0
    0.6952    2.4074    0.1014 N   0  0  0  0  0  0  0  0  0  0  0  0
   -0.4190    3.3320    0.1531 C   0  0  0  0  0  0  0  0  0  0  0  0
    0.1443    4.7561    0.2176 C   0  0  0  0  0  0  0  0  0  0  0  0
    0.9136    5.0108   -0.8999 O   0  0  0  0  0  0  0  0  0  0  0  0
    1.3494    0.0676   -0.0152 N   0  0  0  0  0  0  0  0  0  0  0  0
    0.9726   -1.2209   -0.0745 C   0  0  0  0  0  0  0  0  0  0  0  0
    1.8098   -2.1906   -0.1265 N   0  0  0  0  0  0  0  0  0  0  0  0
    3.2099   -1.9340   -0.1236 C   0  0  0  0  0  0  0  0  0  0  0  0
    3.7592   -2.2807    1.1107 C   0  0  0  0  0  0  0  0  0  0  0  0
    5.1245   -2.1183    1.3555 C   0  0  0  0  0  0  0  0  0  0  0  0
    5.9319   -1.6038    0.3468 C   0  0  0  0  0  0  0  0  0  0  0  0
    5.3717   -1.2722   -0.8513 C   0  0  0  0  0  0  0  0  0  0  0  0
    6.3076   -0.6152   -2.1879 Cl  0  0  0  0  0  0  0  0  0  0  0  0
    4.0275   -1.4255   -1.1107 C   0  0  0  0  0  0  0  0  0  0  0  0
   -4.1828   -0.7710    2.1094 H   0  0  0  0  0  0  0  0  0  0  0  0
   -5.6617   -0.9397    1.0200 H   0  0  0  0  0  0  0  0  0  0  0  0
   -4.4819   -2.2907    1.0924 H   0  0  0  0  0  0  0  0  0  0  0  0
   -3.7840    0.4857    0.1829 H   0  0  0  0  0  0  0  0  0  0  0  0
   -5.6353   -1.3135   -1.0220 H   0  0  0  0  0  0  0  0  0  0  0  0
   -4.8645    0.0665   -1.8178 H   0  0  0  0  0  0  0  0  0  0  0  0
   -4.1398   -1.5632   -1.9690 H   0  0  0  0  0  0  0  0  0  0  0  0
   -3.0427   -3.3741   -0.1509 H   0  0  0  0  0  0  0  0  0  0  0  0
   -1.7084    1.3600    0.0672 H   0  0  0  0  0  0  0  0  0  0  0  0
    1.6940    2.7080    0.1091 H   0  0  0  0  0  0  0  0  0  0  0  0
   -1.0687    3.2787   -0.7537 H   0  0  0  0  0  0  0  0  0  0  0  0
   -1.0006    3.0919    1.0484 H   0  0  0  0  0  0  0  0  0  0  0  0
   -0.6620    5.4964    0.3152 H   0  0  0  0  0  0  0  0  0  0  0  0
    0.8052    4.7762    1.1240 H   0  0  0  0  0  0  0  0  0  0  0  0
    0.4587    5.6249   -1.5451 H   0  0  0  0  0  0  0  0  0  0  0  0
    3.2372   -2.6902    1.9750 H   0  0  0  0  0  0  0  0  0  0  0  0
    5.5950   -2.3728    2.2958 H   0  0  0  0  0  0  0  0  0  0  0  0
    7.0121   -1.4565    0.4888 H   0  0  0  0  0  0  0  0  0  0  0  0
    3.4782   -1.1988   -2.0142 H   0  0  0  0  0  0  0  0  0  0  0  0
  1  2  1  0
  2  3  1  0
  2  4  1  0
  4  5  1  0
  5  6  2  0
  6  7  1  0
  7  8  2  0
  8  9  1  0
  9 10  1  0
 10 11  1  0
 11 12  1  0
 12 13  1  0
 13 14  1  0
 10 15  2  0
 15 16  1  0
 16 17  2  0
 17 18  1  0
 18 19  2  0
 19 20  1  0
 20 21  2  0
 21 22  1  0
 22 23  1  0
 22 24  2  0
  8  4  1  0
 24 18  1  0
 16  7  1  0
  1 25  1  0
  1 26  1  0
  1 27  1  0
  2 28  1  0
  3 29  1  0
  3 30  1  0
  3 31  1  0
  5 32  1  0
  9 33  1  0
 11 34  1  0
 12 35  1  0
 12 36  1  0
 13 37  1  0
 13 38  1  0
 14 39  1  0
 19 40  1  0
 20 41  1  0
 21 42  1  0
 24 43  1  0
M  END
$$$$
