
     RDKit          3D

 45 48  0  0  0  0  0  0  0  0999 V2000
    6.5499   -2.4973    0.3531 N   0  0  0  0  0  0  0  0  0  0  0  0
    6.4832   -1.2738    1.1111 C   0  0  0  0  0  0  0  0  0  0  0  0
    7.4821   -0.9567    1.8615 N   0  0  0  0  0  0  0  0  0  0  0  0
    5.2508   -0.4750    0.9579 C   0  0  0  0  0  0  0  0  0  0  0  0
    4.5692   -0.5232   -0.2366 C   0  0  0  0  0  0  0  0  0  0  0  0
    3.4153    0.2313   -0.3630 C   0  0  0  0  0  0  0  0  0  0  0  0
    2.9405    1.0183    0.6654 C   0  0  0  0  0  0  0  0  0  0  0  0
    3.6452    1.0469    1.8520 C   0  0  0  0  0  0  0  0  0  0  0  0
    4.8018    0.3079    2.0180 C   0  0  0  0  0  0  0  0  0  0  0  0
    1.8117    1.5818    0.1456 N   0  0  0  0  0  0  0  0  0  0  0  0
    1.6404    1.1461   -1.1151 C   0  0  0  0  0  0  0  0  0  0  0  0
    2.6242    0.3086   -1.4473 N   0  0  0  0  0  0  0  0  0  0  0  0
    0.4996    1.5757   -1.9581 C   0  0  0  0  0  0  0  0  0  0  0  0
    0.6142    1.0883   -3.2618 O   0  0  0  0  0  0  0  0  0  0  0  0
    0.5488    2.9797   -1.9739 O   0  0  0  0  0  0  0  0  0  0  0  0
   -0.7926    1.0968   -1.4055 C   0  0  0  0  0  0  0  0  0  0  0  0
   -0.9339   -0.2411   -1.4135 N   0  0  0  0  0  0  0  0  0  0  0  0
   -2.1397   -0.5611   -0.8908 C   0  0  0  0  0  0  0  0  0  0  0  0
   -2.7125    0.6505   -0.5700 C   0  0  0  0  0  0  0  0  0  0  0  0
   -1.8872    1.6665   -0.8853 N   0  0  0  0  0  0  0  0  0  0  0  0
   -3.9684    0.7407   -0.0036 C   0  0  0  0  0  0  0  0  0  0  0  0
   -4.6200   -0.4715    0.2230 C   0  0  0  0  0  0  0  0  0  0  0  0
   -4.0510   -1.6926   -0.0966 C   0  0  0  0  0  0  0  0  0  0  0  0
   -2.7944   -1.7551   -0.6618 C   0  0  0  0  0  0  0  0  0  0  0  0
   -5.9596   -0.5110    0.8201 C   0  0  0  0  0  0  0  0  0  0  0  0
   -6.5560    0.3866    1.7480 N   0  0  0  0  0  4  0  0  0  0  0  0
   -6.7707   -1.4778    0.4999 N   0  0  0  0  0  4  0  0  0  0  0  0
    5.8729   -3.2902    0.4785 H   0  0  0  0  0  0  0  0  0  0  0  0
    7.2519   -2.7346   -0.3835 H   0  0  0  0  0  0  0  0  0  0  0  0
    7.5294   -0.0978    2.4448 H   0  0  0  0  0  0  0  0  0  0  0  0
    4.9377   -1.1476   -1.0644 H   0  0  0  0  0  0  0  0  0  0  0  0
    3.2447    1.6762    2.6413 H   0  0  0  0  0  0  0  0  0  0  0  0
    5.3506    0.3330    2.9480 H   0  0  0  0  0  0  0  0  0  0  0  0
    2.7054   -0.1599   -2.3798 H   0  0  0  0  0  0  0  0  0  0  0  0
    1.0480    1.7985   -3.7958 H   0  0  0  0  0  0  0  0  0  0  0  0
    0.1211    3.2657   -1.1291 H   0  0  0  0  0  0  0  0  0  0  0  0
   -1.9279    2.7019   -0.8120 H   0  0  0  0  0  0  0  0  0  0  0  0
   -4.4216    1.6690    0.2486 H   0  0  0  0  0  0  0  0  0  0  0  0
   -4.5640   -2.6360    0.0823 H   0  0  0  0  0  0  0  0  0  0  0  0
   -2.2660   -2.6460   -0.9454 H   0  0  0  0  0  0  0  0  0  0  0  0
   -7.5419    0.6095    1.4501 H   0  0  0  0  0  0  0  0  0  0  0  0
   -6.6790   -0.0808    2.6887 H   0  0  0  0  0  0  0  0  0  0  0  0
   -6.0500    1.2722    1.8395 H   0  0  0  0  0  0  0  0  0  0  0  0
   -7.7453   -1.6665    0.8187 H   0  0  0  0  0  0  0  0  0  0  0  0
   -6.5569   -2.2563   -0.1625 H   0  0  0  0  0  0  0  0  0  0  0  0
  1  2  1  0
  2  3  2  3
  2  4  1  0
  4  5  2  0
  5  6  1  0
  6  7  2  0
  7  8  1  0
  8  9  2  0
  7 10  1  0
 10 11  2  0
 11 12  1  0
 11 13  1  0
 13 14  1  0
 13 15  1  0
 13 16  1  0
 16 17  2  0
 17 18  1  0
 18 19  2  0
 19 20  1  0
 19 21  1  0
 21 22  2  0
 22 23  1  0
 23 24  2  0
 22 25  1  0
 25 26  1  0
 25 27  2  0
  9  4  1  0
 20 16  1  0
 12  6  1  0
 24 18  1  0
  1 28  1  0
  1 29  1  0
  3 30  1  0
  5 31  1  0
  8 32  1  0
  9 33  1  0
 12 34  1  0
 14 35  1  0
 15 36  1  0
 20 37  1  0
 21 38  1  0
 23 39  1  0
 24 40  1  0
 26 41  1  0
 26 42  1  0
 26 43  1  0
 27 44  1  0
 27 45  1  0
M  CHG  2  26   1  27   1
M  END
$$$$
