
     RDKit          3D

 26 27  0  0  0  0  0  0  0  0999 V2000
   -4.3486    0.8368    1.6160 N   0  0  0  0  0  0  0  0  0  0  0  0
   -3.1513    0.4649    0.9418 C   0  0  0  0  0  0  0  0  0  0  0  0
   -2.0812    1.2161    1.2784 N   0  0  0  0  0  0  0  0  0  0  0  0
   -0.8645    0.9699    0.7075 C   0  0  0  0  0  0  0  0  0  0  0  0
    0.1392    1.6527    1.0043 O   0  0  0  0  0  0  0  0  0  0  0  0
   -0.8253   -0.0355   -0.1755 N   0  0  0  0  0  0  0  0  0  0  0  0
   -1.8556   -0.8169   -0.5501 C   0  0  0  0  0  0  0  0  0  0  0  0
   -3.0854   -0.5678    0.0273 C   0  0  0  0  0  0  0  0  0  0  0  0
   -4.1854   -1.2727   -0.2604 F   0  0  0  0  0  0  0  0  0  0  0  0
    0.4444   -0.3071   -0.7841 C   0  0  2  0  0  0  0  0  0  0  0  0
    0.7067   -1.8085   -0.9664 C   0  0  0  0  0  0  0  0  0  0  0  0
    2.4941   -1.6224   -1.3783 S   0  0  0  0  0  0  0  0  0  0  0  0
    2.6026    0.1277   -0.8845 C   0  0  2  0  0  0  0  0  0  0  0  0
    3.8798    0.4084   -0.1380 C   0  0  0  0  0  0  0  0  0  0  0  0
    3.8538    1.6720    0.4360 O   0  0  0  0  0  0  0  0  0  0  0  0
    1.4882    0.1854   -0.0464 O   0  0  0  0  0  0  0  0  0  0  0  0
   -5.3067    1.2454    1.5933 H   0  0  0  0  0  0  0  0  0  0  0  0
   -4.9869    1.2479    0.8967 H   0  0  0  0  0  0  0  0  0  0  0  0
   -1.7414   -1.6122   -1.2730 H   0  0  0  0  0  0  0  0  0  0  0  0
    0.5067    0.1312   -1.8107 H   0  0  0  0  0  0  0  0  0  0  0  0
    0.5893   -2.3719   -0.0260 H   0  0  0  0  0  0  0  0  0  0  0  0
    0.1367   -2.1929   -1.8185 H   0  0  0  0  0  0  0  0  0  0  0  0
    2.4315    0.7994   -1.7236 H   0  0  0  0  0  0  0  0  0  0  0  0
    4.1276   -0.3863    0.5919 H   0  0  0  0  0  0  0  0  0  0  0  0
    4.6949    0.3578   -0.9007 H   0  0  0  0  0  0  0  0  0  0  0  0
    4.3369    1.6787    1.2935 H   0  0  0  0  0  0  0  0  0  0  0  0
  1  2  1  0
  2  3  2  0
  3  4  1  0
  4  5  2  0
  4  6  1  0
  6  7  1  0
  7  8  2  0
  8  9  1  0
  6 10  1  0
 10 11  1  0
 11 12  1  0
 12 13  1  0
 13 14  1  0
 14 15  1  0
 13 16  1  0
  8  2  1  0
 16 10  1  0
  1 17  1  0
  1 18  1  0
  7 19  1  0
 10 20  1  6
 11 21  1  0
 11 22  1  0
 13 23  1  6
 14 24  1  0
 14 25  1  0
 15 26  1  0
M  END
$$$$
