
     RDKit          3D

 45 48  0  0  0  0  0  0  0  0999 V2000
   -2.8001   -0.4254   -2.7481 C   0  0  0  0  0  0  0  0  0  0  0  0
   -2.4933   -0.4405   -1.2289 C   0  0  1  0  0  0  0  0  0  0  0  0
   -1.2427   -0.0881   -0.9967 O   0  0  0  0  0  0  0  0  0  0  0  0
   -0.0654   -0.3952   -0.4438 C   0  0  0  0  0  0  0  0  0  0  0  0
    1.0231    0.4977   -0.5484 C   0  0  0  0  0  0  0  0  0  0  0  0
    2.2540    0.2741   -0.0213 C   0  0  0  0  0  0  0  0  0  0  0  0
    3.3482    1.2759   -0.1810 C   0  0  0  0  0  0  0  0  0  0  0  0
    3.1235    2.4516   -0.8711 C   0  0  0  0  0  0  0  0  0  0  0  0
    4.7548    3.2368   -0.7386 S   0  0  0  0  0  0  0  0  0  0  0  0
    5.4731    1.8704    0.2158 C   0  0  0  0  0  0  0  0  0  0  0  0
    6.9217    1.9688    0.6469 C   0  0  0  0  0  0  0  0  0  0  0  0
    7.5343    0.8417    0.1375 F   0  0  0  0  0  0  0  0  0  0  0  0
    6.9614    1.9145    2.0469 F   0  0  0  0  0  0  0  0  0  0  0  0
    4.5506    1.1164    0.3030 N   0  0  0  0  0  0  0  0  0  0  0  0
    2.4569   -0.9036    0.6626 C   0  0  0  0  0  0  0  0  0  0  0  0
    1.4578   -1.8276    0.8133 C   0  0  0  0  0  0  0  0  0  0  0  0
    1.3846   -3.0439    1.4254 N   0  0  0  0  0  0  0  0  0  0  0  0
    0.1892   -3.5501    1.2920 N   0  0  0  0  0  0  0  0  0  0  0  0
   -0.3060   -4.8218    1.7925 C   0  0  0  0  0  0  0  0  0  0  0  0
   -0.5404   -2.6629    0.5847 C   0  0  0  0  0  0  0  0  0  0  0  0
    0.2270   -1.5658    0.2662 C   0  0  0  0  0  0  0  0  0  0  0  0
   -3.5513    0.5283   -0.6572 C   0  0  1  0  0  0  0  0  0  0  0  0
   -3.4330    0.6633    0.8248 C   0  0  0  0  0  0  0  0  0  0  0  0
   -3.6836    2.0661    1.0789 N   0  0  0  0  0  0  0  0  0  0  0  0
   -3.7762    2.7859   -0.1391 C   0  0  0  0  0  0  0  0  0  0  0  0
   -4.0979    4.0026   -0.2073 O   0  0  0  0  0  0  0  0  0  0  0  0
   -3.4394    1.8840   -1.2715 C   0  0  0  0  0  0  0  0  0  0  0  0
   -3.8855   -0.6267   -2.8493 H   0  0  0  0  0  0  0  0  0  0  0  0
   -2.5884    0.5853   -3.1388 H   0  0  0  0  0  0  0  0  0  0  0  0
   -2.1768   -1.1442   -3.2816 H   0  0  0  0  0  0  0  0  0  0  0  0
   -2.8448   -1.4240   -0.8312 H   0  0  0  0  0  0  0  0  0  0  0  0
    0.8187    1.4241   -1.1013 H   0  0  0  0  0  0  0  0  0  0  0  0
    2.2489    2.8711   -1.3821 H   0  0  0  0  0  0  0  0  0  0  0  0
    7.3711    2.8995    0.3097 H   0  0  0  0  0  0  0  0  0  0  0  0
    3.4275   -1.1114    1.0947 H   0  0  0  0  0  0  0  0  0  0  0  0
   -1.0091   -4.6581    2.6608 H   0  0  0  0  0  0  0  0  0  0  0  0
    0.5355   -5.4651    2.0557 H   0  0  0  0  0  0  0  0  0  0  0  0
   -0.9557   -5.2467    0.9794 H   0  0  0  0  0  0  0  0  0  0  0  0
   -1.5547   -2.8361    0.3374 H   0  0  0  0  0  0  0  0  0  0  0  0
   -4.5294    0.0656   -0.8954 H   0  0  0  0  0  0  0  0  0  0  0  0
   -2.4504    0.3388    1.2126 H   0  0  0  0  0  0  0  0  0  0  0  0
   -4.1961    0.0531    1.3649 H   0  0  0  0  0  0  0  0  0  0  0  0
   -3.7838    2.4959    2.0380 H   0  0  0  0  0  0  0  0  0  0  0  0
   -2.4292    2.1112   -1.6576 H   0  0  0  0  0  0  0  0  0  0  0  0
   -4.2289    2.0146   -2.0649 H   0  0  0  0  0  0  0  0  0  0  0  0
  1  2  1  0
  2  3  1  0
  3  4  1  0
  4  5  2  0
  5  6  1  0
  6  7  1  0
  7  8  2  0
  8  9  1  0
  9 10  1  0
 10 11  1  0
 11 12  1  0
 11 13  1  0
 10 14  2  0
  6 15  2  0
 15 16  1  0
 16 17  2  0
 17 18  1  0
 18 19  1  0
 18 20  1  0
 20 21  2  0
  2 22  1  0
 22 23  1  0
 23 24  1  0
 24 25  1  0
 25 26  2  0
 25 27  1  0
 21  4  1  0
 27 22  1  0
 14  7  1  0
 21 16  1  0
  1 28  1  0
  1 29  1  0
  1 30  1  0
  2 31  1  1
  5 32  1  0
  8 33  1  0
 11 34  1  0
 15 35  1  0
 19 36  1  0
 19 37  1  0
 19 38  1  0
 20 39  1  0
 22 40  1  1
 23 41  1  0
 23 42  1  0
 24 43  1  0
 27 44  1  0
 27 45  1  0
M  END
$$$$
