
     RDKit          3D

 75 79  0  0  0  0  0  0  0  0999 V2000
    2.1354   -3.2825   -1.4989 C   0  0  0  0  0  0  0  0  0  0  0  0
    1.2807   -3.8890   -0.4318 C   0  0  0  0  0  0  0  0  0  0  0  0
    0.8895   -3.0065    0.5626 O   0  0  0  0  0  0  0  0  0  0  0  0
    0.1567   -1.9891    0.0111 C   0  0  1  0  0  0  0  0  0  0  0  0
   -1.2302   -1.8753    0.6687 C   0  0  0  0  0  0  0  0  0  0  0  0
   -1.6856   -0.6381    0.1414 N   0  0  0  0  0  0  0  0  0  0  0  0
   -2.3682   -0.7827   -1.1180 C   0  0  1  0  0  0  0  0  0  0  0  0
   -3.5784   -1.6557   -1.0043 C   0  0  0  0  0  0  0  0  0  0  0  0
   -4.6301   -1.0273   -0.0756 C   0  0  0  0  0  0  0  0  0  0  0  0
   -5.0710    0.2324   -0.7640 C   0  0  1  0  0  0  0  0  0  0  0  0
   -5.2927   -0.1124   -2.1182 O   0  0  0  0  0  0  0  0  0  0  0  0
   -6.2945    0.8089   -0.2518 C   0  0  0  0  0  0  0  0  0  0  0  0
   -6.8019    1.9609   -0.7942 C   0  0  0  0  0  0  0  0  0  0  0  0
   -7.9811    2.5313   -0.3128 C   0  0  0  0  0  0  0  0  0  0  0  0
   -8.6593    1.9374    0.7265 C   0  0  0  0  0  0  0  0  0  0  0  0
   -8.1628    0.7796    1.2824 C   0  0  0  0  0  0  0  0  0  0  0  0
   -6.9770    0.2271    0.7808 C   0  0  0  0  0  0  0  0  0  0  0  0
   -9.0498    0.4277    2.2902 O   0  0  0  0  0  0  0  0  0  0  0  0
  -10.2388    1.1878    2.2057 C   0  0  0  0  0  0  0  0  0  0  0  0
   -9.8359    2.2772    1.3964 O   0  0  0  0  0  0  0  0  0  0  0  0
   -3.8909    1.1773   -0.7726 C   0  0  0  0  0  0  0  0  0  0  0  0
   -2.8341    0.5349   -1.6833 C   0  0  0  0  0  0  0  0  0  0  0  0
   -0.5518    0.2359    0.0811 C   0  0  0  0  0  0  0  0  0  0  0  0
    0.6863   -0.6067    0.3326 C   0  0  2  0  0  0  0  0  0  0  0  0
    1.7296   -0.3167   -0.6209 N   0  0  0  0  0  0  0  0  0  0  0  0
    3.0371    0.0014   -0.1398 C   0  0  0  0  0  0  0  0  0  0  0  0
    3.2139    0.0124    1.0984 O   0  0  0  0  0  0  0  0  0  0  0  0
    4.1591    0.3106   -1.0584 C   0  0  0  0  0  0  0  0  0  0  0  0
    5.3330    0.5854   -0.2587 N   0  0  0  0  0  0  0  0  0  0  0  0
    6.5899    0.9196   -0.8387 C   0  0  0  0  0  0  0  0  0  0  0  0
    6.6199    0.9625   -2.0988 O   0  0  0  0  0  0  0  0  0  0  0  0
    7.7837    1.2002   -0.0685 C   0  0  0  0  0  0  0  0  0  0  0  0
    8.9649    1.5185   -0.7360 C   0  0  0  0  0  0  0  0  0  0  0  0
   10.1251    1.7933   -0.0699 C   0  0  0  0  0  0  0  0  0  0  0  0
   10.1751    1.7662    1.3171 C   0  0  0  0  0  0  0  0  0  0  0  0
    9.0158    1.4534    1.9817 C   0  0  0  0  0  0  0  0  0  0  0  0
    9.0680    1.4240    3.4655 C   0  0  0  0  0  0  0  0  0  0  0  0
    9.3292    2.7221    3.9223 F   0  0  0  0  0  0  0  0  0  0  0  0
   10.1043    0.6424    3.9252 F   0  0  0  0  0  0  0  0  0  0  0  0
    7.8427    1.0408    3.9430 F   0  0  0  0  0  0  0  0  0  0  0  0
    7.8380    1.1750    1.2890 C   0  0  0  0  0  0  0  0  0  0  0  0
    1.6135   -2.6525   -2.2193 H   0  0  0  0  0  0  0  0  0  0  0  0
    2.6228   -4.0992   -2.1054 H   0  0  0  0  0  0  0  0  0  0  0  0
    3.0133   -2.7643   -1.0223 H   0  0  0  0  0  0  0  0  0  0  0  0
    1.8621   -4.7487    0.0133 H   0  0  0  0  0  0  0  0  0  0  0  0
    0.4075   -4.3641   -0.9391 H   0  0  0  0  0  0  0  0  0  0  0  0
    0.0249   -2.0676   -1.0979 H   0  0  0  0  0  0  0  0  0  0  0  0
   -1.0170   -1.7808    1.7601 H   0  0  0  0  0  0  0  0  0  0  0  0
   -1.7661   -2.7746    0.4014 H   0  0  0  0  0  0  0  0  0  0  0  0
   -1.6824   -1.2329   -1.8377 H   0  0  0  0  0  0  0  0  0  0  0  0
   -3.4046   -2.7050   -0.7950 H   0  0  0  0  0  0  0  0  0  0  0  0
   -4.0770   -1.6283   -2.0206 H   0  0  0  0  0  0  0  0  0  0  0  0
   -5.4364   -1.7851   -0.0029 H   0  0  0  0  0  0  0  0  0  0  0  0
   -4.1832   -0.7955    0.9134 H   0  0  0  0  0  0  0  0  0  0  0  0
   -6.1797   -0.4772   -2.2693 H   0  0  0  0  0  0  0  0  0  0  0  0
   -6.3095    2.4494   -1.5963 H   0  0  0  0  0  0  0  0  0  0  0  0
   -8.3851    3.4399   -0.7372 H   0  0  0  0  0  0  0  0  0  0  0  0
   -6.6201   -0.6639    1.2292 H   0  0  0  0  0  0  0  0  0  0  0  0
  -11.0628    0.6332    1.7178 H   0  0  0  0  0  0  0  0  0  0  0  0
  -10.5388    1.5377    3.2302 H   0  0  0  0  0  0  0  0  0  0  0  0
   -4.1237    2.1514   -1.2506 H   0  0  0  0  0  0  0  0  0  0  0  0
   -3.5051    1.3492    0.2309 H   0  0  0  0  0  0  0  0  0  0  0  0
   -2.0470    1.2266   -1.9652 H   0  0  0  0  0  0  0  0  0  0  0  0
   -3.3968    0.2861   -2.6253 H   0  0  0  0  0  0  0  0  0  0  0  0
   -0.6171    1.0505    0.8535 H   0  0  0  0  0  0  0  0  0  0  0  0
   -0.3977    0.7377   -0.8754 H   0  0  0  0  0  0  0  0  0  0  0  0
    1.0486   -0.5374    1.3678 H   0  0  0  0  0  0  0  0  0  0  0  0
    1.5905   -0.3241   -1.6375 H   0  0  0  0  0  0  0  0  0  0  0  0
    4.4142   -0.5515   -1.7085 H   0  0  0  0  0  0  0  0  0  0  0  0
    3.9170    1.1473   -1.7456 H   0  0  0  0  0  0  0  0  0  0  0  0
    5.2925    0.5465    0.7735 H   0  0  0  0  0  0  0  0  0  0  0  0
    8.9451    1.5443   -1.8119 H   0  0  0  0  0  0  0  0  0  0  0  0
   10.9976    2.0307   -0.6427 H   0  0  0  0  0  0  0  0  0  0  0  0
   11.0931    1.9837    1.8434 H   0  0  0  0  0  0  0  0  0  0  0  0
    6.9632    0.9369    1.8647 H   0  0  0  0  0  0  0  0  0  0  0  0
  1  2  1  0
  2  3  1  0
  3  4  1  0
  4  5  1  0
  5  6  1  0
  6  7  1  0
  7  8  1  0
  8  9  1  0
  9 10  1  0
 10 11  1  6
 10 12  1  0
 12 13  2  0
 13 14  1  0
 14 15  2  0
 15 16  1  0
 16 17  2  0
 16 18  1  0
 18 19  1  0
 19 20  1  0
 10 21  1  0
 21 22  1  0
  6 23  1  0
 23 24  1  0
 24 25  1  0
 25 26  1  0
 26 27  2  0
 26 28  1  0
 28 29  1  0
 29 30  1  0
 30 31  2  0
 30 32  1  0
 32 33  2  0
 33 34  1  0
 34 35  2  0
 35 36  1  0
 36 37  1  0
 37 38  1  0
 37 39  1  0
 37 40  1  0
 36 41  2  0
 24  4  1  0
 41 32  1  0
 22  7  1  0
 17 12  1  0
 20 15  1  0
  1 42  1  0
  1 43  1  0
  1 44  1  0
  2 45  1  0
  2 46  1  0
  4 47  1  6
  5 48  1  0
  5 49  1  0
  7 50  1  6
  8 51  1  0
  8 52  1  0
  9 53  1  0
  9 54  1  0
 11 55  1  0
 13 56  1  0
 14 57  1  0
 17 58  1  0
 19 59  1  0
 19 60  1  0
 21 61  1  0
 21 62  1  0
 22 63  1  0
 22 64  1  0
 23 65  1  0
 23 66  1  0
 24 67  1  1
 25 68  1  0
 28 69  1  0
 28 70  1  0
 29 71  1  0
 33 72  1  0
 34 73  1  0
 35 74  1  0
 41 75  1  0
M  END
$$$$
