
     RDKit          3D

 32 34  0  0  0  0  0  0  0  0999 V2000
    5.2678   -0.1293    0.1277 N   0  0  0  0  0  0  0  0  0  0  0  0
    3.9955    0.3608   -0.2305 C   0  0  0  0  0  0  0  0  0  0  0  0
    3.7721    1.5690   -0.7768 N   0  0  0  0  0  0  0  0  0  0  0  0
    2.5295    1.9877   -1.1008 C   0  0  0  0  0  0  0  0  0  0  0  0
    1.4349    1.2003   -0.8880 N   0  0  0  0  0  0  0  0  0  0  0  0
    1.6264   -0.0033   -0.3473 C   0  0  0  0  0  0  0  0  0  0  0  0
    2.8950   -0.4451   -0.0105 C   0  0  0  0  0  0  0  0  0  0  0  0
    2.7624   -1.6740    0.5037 N   0  0  0  0  0  0  0  0  0  0  0  0
    1.4590   -1.9767    0.4835 C   0  0  0  0  0  0  0  0  0  0  0  0
    0.7407   -0.9697   -0.0333 N   0  0  0  0  0  0  0  0  0  0  0  0
   -0.6745   -0.9841   -0.1906 C   0  0  2  0  0  0  0  0  0  0  0  0
   -1.1758    0.0905   -0.8893 O   0  0  0  0  0  0  0  0  0  0  0  0
   -2.5337    0.0599   -0.7185 C   0  0  2  0  0  0  0  0  0  0  0  0
   -3.1335    1.4624   -0.6317 C   0  0  0  0  0  0  0  0  0  0  0  0
   -2.8572    2.1713   -1.8222 O   0  0  0  0  0  0  0  0  0  0  0  0
   -2.8305   -0.6292    0.5886 C   0  0  1  0  0  0  0  0  0  0  0  0
   -3.3744   -1.8962    0.3972 O   0  0  0  0  0  0  0  0  0  0  0  0
   -1.4118   -0.8410    1.1358 C   0  0  2  0  0  0  0  0  0  0  0  0
   -1.0726    0.3143    1.8050 O   0  0  0  0  0  0  0  0  0  0  0  0
    5.9909   -0.2575   -0.5971 H   0  0  0  0  0  0  0  0  0  0  0  0
    5.4821   -0.3613    1.1102 H   0  0  0  0  0  0  0  0  0  0  0  0
    2.4484    2.9751   -1.5355 H   0  0  0  0  0  0  0  0  0  0  0  0
    1.0701   -2.9189    0.8445 H   0  0  0  0  0  0  0  0  0  0  0  0
   -1.0677   -1.9050   -0.6596 H   0  0  0  0  0  0  0  0  0  0  0  0
   -3.0600   -0.4507   -1.5539 H   0  0  0  0  0  0  0  0  0  0  0  0
   -4.2397    1.4149   -0.5752 H   0  0  0  0  0  0  0  0  0  0  0  0
   -2.6787    2.0503    0.1921 H   0  0  0  0  0  0  0  0  0  0  0  0
   -3.1272    3.1202   -1.6110 H   0  0  0  0  0  0  0  0  0  0  0  0
   -3.3949   -0.0130    1.2856 H   0  0  0  0  0  0  0  0  0  0  0  0
   -2.7380   -2.6275    0.6193 H   0  0  0  0  0  0  0  0  0  0  0  0
   -1.3403   -1.7350    1.7522 H   0  0  0  0  0  0  0  0  0  0  0  0
   -0.7642    1.0409    1.2406 H   0  0  0  0  0  0  0  0  0  0  0  0
  1  2  1  0
  2  3  2  0
  3  4  1  0
  4  5  2  0
  5  6  1  0
  6  7  2  0
  7  8  1  0
  8  9  2  0
  9 10  1  0
 10 11  1  0
 11 12  1  0
 12 13  1  0
 13 14  1  0
 14 15  1  0
 13 16  1  0
 16 17  1  0
 16 18  1  0
 18 19  1  0
  7  2  1  0
 18 11  1  0
 10  6  1  0
  1 20  1  0
  1 21  1  0
  4 22  1  0
  9 23  1  0
 11 24  1  6
 13 25  1  6
 14 26  1  0
 14 27  1  0
 15 28  1  0
 16 29  1  1
 17 30  1  0
 18 31  1  1
 19 32  1  0
M  END
$$$$
