
     RDKit          3D

 73 74  0  0  0  0  0  0  0  0999 V2000
   -0.2804   -0.1296   -0.4156 C   0  0  1  0  0  0  0  0  0  0  0  0
    1.1733    0.0108   -0.2982 N   0  0  0  0  0  0  0  0  0  0  0  0
    1.9272    1.0934    0.2258 C   0  0  0  0  0  0  0  0  0  0  0  0
    1.2904    2.0831    0.6552 O   0  0  0  0  0  0  0  0  0  0  0  0
    3.3777    1.0303    0.2514 C   0  0  0  0  0  0  0  0  0  0  0  0
    4.1529   -0.0107   -0.1962 C   0  0  0  0  0  0  0  0  0  0  0  0
    5.5310   -0.0147   -0.1444 C   0  0  0  0  0  0  0  0  0  0  0  0
    6.1830    1.0771    0.3822 C   0  0  0  0  0  0  0  0  0  0  0  0
    5.4611    2.1669    0.8543 C   0  0  0  0  0  0  0  0  0  0  0  0
    4.0654    2.1060    0.7719 C   0  0  0  0  0  0  0  0  0  0  0  0
    7.6317    1.1873    0.4911 C   0  0  0  0  0  0  0  0  0  0  0  0
    8.2353    2.2011    0.9736 O   0  0  0  0  0  0  0  0  0  0  0  0
    8.5517    0.1822    0.0750 N   0  0  0  0  0  0  0  0  0  0  0  0
    9.9806    0.3577    0.2127 C   0  0  0  0  0  0  0  0  0  0  0  0
   10.3927    1.5367   -0.5589 C   0  0  0  0  0  0  0  0  0  0  0  0
    9.6541    2.4192   -1.3306 O   0  0  0  0  0  0  0  0  0  0  0  0
   11.6425    1.7213   -0.4597 O   0  0  0  0  0  0  0  0  0  0  0  0
   -0.6349   -0.3463   -1.8708 C   0  0  0  0  0  0  0  0  0  0  0  0
   -0.2041    0.7894   -2.7573 C   0  0  0  0  0  0  0  0  0  0  0  0
   -0.1632   -1.6739   -2.3689 C   0  0  0  0  0  0  0  0  0  0  0  0
   -0.6321   -1.3739    0.3125 C   0  0  0  0  0  0  0  0  0  0  0  0
    0.3644   -1.9596    0.8294 O   0  0  0  0  0  0  0  0  0  0  0  0
   -1.8282   -2.0572    0.5620 N   0  0  0  0  0  0  0  0  0  0  0  0
   -1.5655   -3.2451    1.3507 C   0  0  0  0  0  0  0  0  0  0  0  0
   -2.8882   -3.9296    1.4773 C   0  0  0  0  0  0  0  0  0  0  0  0
   -3.6801   -3.4048    0.3093 C   0  0  0  0  0  0  0  0  0  0  0  0
   -3.2501   -1.9570    0.2827 C   0  0  1  0  0  0  0  0  0  0  0  0
   -3.9787   -1.1051    1.2372 C   0  0  0  0  0  0  0  0  0  0  0  0
   -4.4677   -0.6323    2.4369 O   0  0  0  0  0  0  0  0  0  0  0  0
   -4.7158   -0.0554    1.1251 N   0  0  0  0  0  0  0  0  0  0  0  0
   -5.0504    0.6226   -0.0870 C   0  0  1  0  0  0  0  0  0  0  0  0
   -6.5589    0.8072   -0.2255 C   0  0  0  0  0  0  0  0  0  0  0  0
   -7.1813   -0.5662   -0.2276 C   0  0  0  0  0  0  0  0  0  0  0  0
   -7.1112    1.5466    0.9902 C   0  0  0  0  0  0  0  0  0  0  0  0
   -4.3403    1.9045   -0.1962 C   0  0  0  0  0  0  0  0  0  0  0  0
   -4.7216    2.4241   -1.2546 O   0  0  0  0  0  0  0  0  0  0  0  0
   -3.6240    3.1943   -0.3031 C   0  0  0  0  0  0  0  0  0  0  0  0
   -3.9959    3.8554   -1.4773 F   0  0  0  0  0  0  0  0  0  0  0  0
   -3.9609    4.0608    0.7244 F   0  0  0  0  0  0  0  0  0  0  0  0
   -2.2552    3.0032   -0.3840 F   0  0  0  0  0  0  0  0  0  0  0  0
   -0.7900    0.7694   -0.0102 H   0  0  0  0  0  0  0  0  0  0  0  0
    1.6166   -0.8523   -0.6776 H   0  0  0  0  0  0  0  0  0  0  0  0
    3.6449   -0.8699   -0.6104 H   0  0  0  0  0  0  0  0  0  0  0  0
    6.1138   -0.8508   -0.5053 H   0  0  0  0  0  0  0  0  0  0  0  0
    5.9615    3.0374    1.2731 H   0  0  0  0  0  0  0  0  0  0  0  0
    3.5463    2.9950    1.1597 H   0  0  0  0  0  0  0  0  0  0  0  0
    8.1397   -0.7050   -0.3423 H   0  0  0  0  0  0  0  0  0  0  0  0
   10.3180    0.4059    1.2686 H   0  0  0  0  0  0  0  0  0  0  0  0
   10.4742   -0.5478   -0.2266 H   0  0  0  0  0  0  0  0  0  0  0  0
   10.1212    2.9865   -2.0477 H   0  0  0  0  0  0  0  0  0  0  0  0
   -1.7622   -0.3748   -1.9421 H   0  0  0  0  0  0  0  0  0  0  0  0
   -0.4181    1.7524   -2.2843 H   0  0  0  0  0  0  0  0  0  0  0  0
    0.8726    0.6872   -3.0544 H   0  0  0  0  0  0  0  0  0  0  0  0
   -0.7843    0.7368   -3.7019 H   0  0  0  0  0  0  0  0  0  0  0  0
    0.9081   -1.8655   -2.2890 H   0  0  0  0  0  0  0  0  0  0  0  0
   -0.6839   -2.4994   -1.8228 H   0  0  0  0  0  0  0  0  0  0  0  0
   -0.5056   -1.7946   -3.4369 H   0  0  0  0  0  0  0  0  0  0  0  0
   -0.8786   -3.9517    0.8179 H   0  0  0  0  0  0  0  0  0  0  0  0
   -1.1192   -3.0017    2.3387 H   0  0  0  0  0  0  0  0  0  0  0  0
   -2.8111   -5.0402    1.4714 H   0  0  0  0  0  0  0  0  0  0  0  0
   -3.4500   -3.6202    2.4037 H   0  0  0  0  0  0  0  0  0  0  0  0
   -3.3349   -3.8705   -0.6430 H   0  0  0  0  0  0  0  0  0  0  0  0
   -4.7700   -3.5353    0.4716 H   0  0  0  0  0  0  0  0  0  0  0  0
   -3.4557   -1.5799   -0.7521 H   0  0  0  0  0  0  0  0  0  0  0  0
   -4.2164   -1.0277    3.3495 H   0  0  0  0  0  0  0  0  0  0  0  0
   -4.7587   -0.0238   -0.9592 H   0  0  0  0  0  0  0  0  0  0  0  0
   -6.8246    1.3332   -1.1438 H   0  0  0  0  0  0  0  0  0  0  0  0
   -6.6092   -1.1935    0.4692 H   0  0  0  0  0  0  0  0  0  0  0  0
   -7.0966   -1.0130   -1.2553 H   0  0  0  0  0  0  0  0  0  0  0  0
   -8.2448   -0.5600    0.1096 H   0  0  0  0  0  0  0  0  0  0  0  0
   -8.0791    2.0199    0.7322 H   0  0  0  0  0  0  0  0  0  0  0  0
   -6.3937    2.2992    1.3607 H   0  0  0  0  0  0  0  0  0  0  0  0
   -7.2563    0.8349    1.8470 H   0  0  0  0  0  0  0  0  0  0  0  0
  1  2  1  0
  2  3  1  0
  3  4  2  0
  3  5  1  0
  5  6  2  0
  6  7  1  0
  7  8  2  0
  8  9  1  0
  9 10  2  0
  8 11  1  0
 11 12  2  0
 11 13  1  0
 13 14  1  0
 14 15  1  0
 15 16  1  0
 15 17  2  0
  1 18  1  0
 18 19  1  0
 18 20  1  0
  1 21  1  0
 21 22  2  0
 21 23  1  0
 23 24  1  0
 24 25  1  0
 25 26  1  0
 26 27  1  0
 27 28  1  0
 28 29  1  0
 28 30  2  3
 30 31  1  0
 31 32  1  0
 32 33  1  0
 32 34  1  0
 31 35  1  0
 35 36  2  0
 35 37  1  0
 37 38  1  0
 37 39  1  0
 37 40  1  0
 10  5  1  0
 27 23  1  0
  1 41  1  1
  2 42  1  0
  6 43  1  0
  7 44  1  0
  9 45  1  0
 10 46  1  0
 13 47  1  0
 14 48  1  0
 14 49  1  0
 16 50  1  0
 18 51  1  0
 19 52  1  0
 19 53  1  0
 19 54  1  0
 20 55  1  0
 20 56  1  0
 20 57  1  0
 24 58  1  0
 24 59  1  0
 25 60  1  0
 25 61  1  0
 26 62  1  0
 26 63  1  0
 27 64  1  6
 29 65  1  0
 31 66  1  6
 32 67  1  0
 33 68  1  0
 33 69  1  0
 33 70  1  0
 34 71  1  0
 34 72  1  0
 34 73  1  0
M  END
$$$$
