
     RDKit          3D

 40 43  0  0  0  0  0  0  0  0999 V2000
    1.4088   -1.2689    2.2967 O   0  0  0  0  0  0  0  0  0  0  0  0
    0.5902   -0.7187    1.5229 C   0  0  0  0  0  0  0  0  0  0  0  0
   -0.5831   -0.0186    2.0976 C   0  0  0  0  0  0  0  0  0  0  0  0
   -1.4280    0.5605    1.0814 N   0  0  0  0  0  0  0  0  0  0  0  0
   -1.1677    1.8806    0.6749 C   0  0  0  0  0  0  0  0  0  0  0  0
   -0.0943    2.4395    1.0248 O   0  0  0  0  0  0  0  0  0  0  0  0
   -2.0954    2.6824   -0.1604 C   0  0  0  0  0  0  0  0  0  0  0  0
   -3.0388    1.8518   -0.9483 C   0  0  0  0  0  0  0  0  0  0  0  0
   -3.2487    0.4801   -0.4739 C   0  0  0  0  0  0  0  0  0  0  0  0
   -4.2908   -0.2243   -1.0515 C   0  0  0  0  0  0  0  0  0  0  0  0
   -4.5851   -1.5058   -0.6975 C   0  0  0  0  0  0  0  0  0  0  0  0
   -3.8325   -2.1400    0.2654 C   0  0  0  0  0  0  0  0  0  0  0  0
   -2.7793   -1.4731    0.8705 C   0  0  0  0  0  0  0  0  0  0  0  0
   -2.4986   -0.1562    0.4880 C   0  0  0  0  0  0  0  0  0  0  0  0
    0.8299   -0.7947    0.1305 N   0  0  0  0  0  0  0  0  0  0  0  0
    1.9897   -1.4940   -0.3076 C   0  0  0  0  0  0  0  0  0  0  0  0
    2.0420   -3.2740   -0.6933 S   0  0  0  0  0  0  0  0  0  0  0  0
    3.8420   -3.2781   -1.1468 C   0  0  0  0  0  0  0  0  0  0  0  0
    4.1817   -1.9491   -0.9541 C   0  0  0  0  0  0  0  0  0  0  0  0
    5.9229   -1.5763   -1.3139 Cl  0  0  0  0  0  0  0  0  0  0  0  0
    3.2877   -1.0656   -0.5443 C   0  0  0  0  0  0  0  0  0  0  0  0
    3.5786    0.3760   -0.3158 C   0  0  0  0  0  0  0  0  0  0  0  0
    2.6973    1.3121    0.1018 N   0  0  0  0  0  0  0  0  0  0  0  0
    3.2859    2.4882    0.1999 N   0  0  0  0  0  0  0  0  0  0  0  0
    4.5736    2.3626   -0.1502 C   0  0  0  0  0  0  0  0  0  0  0  0
    4.7248    1.0410   -0.4649 N   0  0  0  0  0  0  0  0  0  0  0  0
   -0.1551    0.7895    2.7468 H   0  0  0  0  0  0  0  0  0  0  0  0
   -1.1757   -0.6467    2.7567 H   0  0  0  0  0  0  0  0  0  0  0  0
   -2.6581    3.3605    0.5134 H   0  0  0  0  0  0  0  0  0  0  0  0
   -1.5041    3.3498   -0.8502 H   0  0  0  0  0  0  0  0  0  0  0  0
   -2.7124    1.8203   -2.0145 H   0  0  0  0  0  0  0  0  0  0  0  0
   -4.0487    2.3481   -0.9810 H   0  0  0  0  0  0  0  0  0  0  0  0
   -4.9177    0.2384   -1.8223 H   0  0  0  0  0  0  0  0  0  0  0  0
   -5.4083   -2.0500   -1.1596 H   0  0  0  0  0  0  0  0  0  0  0  0
   -4.0331   -3.1697    0.5812 H   0  0  0  0  0  0  0  0  0  0  0  0
   -2.1734   -1.9449    1.6230 H   0  0  0  0  0  0  0  0  0  0  0  0
    0.1535   -0.3388   -0.5274 H   0  0  0  0  0  0  0  0  0  0  0  0
    4.3498   -4.1358   -1.4540 H   0  0  0  0  0  0  0  0  0  0  0  0
    5.3130    3.1385   -0.1738 H   0  0  0  0  0  0  0  0  0  0  0  0
    5.6576    0.7032   -0.7701 H   0  0  0  0  0  0  0  0  0  0  0  0
  1  2  2  0
  2  3  1  0
  3  4  1  0
  4  5  1  0
  5  6  2  0
  5  7  1  0
  7  8  1  0
  8  9  1  0
  9 10  2  0
 10 11  1  0
 11 12  2  0
 12 13  1  0
 13 14  2  0
  2 15  1  0
 15 16  1  0
 16 17  1  0
 17 18  1  0
 18 19  2  0
 19 20  1  0
 19 21  1  0
 21 22  1  0
 22 23  2  0
 23 24  1  0
 24 25  2  0
 25 26  1  0
 14  4  1  0
 21 16  2  0
 26 22  1  0
 14  9  1  0
  3 27  1  0
  3 28  1  0
  7 29  1  0
  7 30  1  0
  8 31  1  0
  8 32  1  0
 10 33  1  0
 11 34  1  0
 12 35  1  0
 13 36  1  0
 15 37  1  0
 18 38  1  0
 25 39  1  0
 26 40  1  0
M  END
$$$$
