
     RDKit          3D

 23 23  0  0  0  0  0  0  0  0999 V2000
    4.5639    0.0651    0.2239 C   0  0  0  0  0  0  0  0  0  0  0  0
    3.5973   -0.9659    0.7834 C   0  0  0  0  0  0  0  0  0  0  0  0
    1.8366   -0.9801   -0.3327 Hg  0  0  0  0  0  2  0  0  0  0  0  0
   -0.0813   -0.9224   -1.7542 S   0  0  0  0  0  0  0  0  0  0  0  0
   -1.2722    0.1954   -1.0497 C   0  0  0  0  0  0  0  0  0  0  0  0
   -1.2338    1.5336   -1.4063 C   0  0  0  0  0  0  0  0  0  0  0  0
   -2.1625    2.3707   -0.8486 C   0  0  0  0  0  0  0  0  0  0  0  0
   -3.1176    1.9035    0.0478 C   0  0  0  0  0  0  0  0  0  0  0  0
   -3.1423    0.5597    0.3946 C   0  0  0  0  0  0  0  0  0  0  0  0
   -2.2101   -0.2909   -0.1628 C   0  0  0  0  0  0  0  0  0  0  0  0
   -2.2890   -1.6870    0.2410 C   0  0  0  0  0  0  0  0  0  0  0  0
   -1.4575   -2.7012   -0.1941 O   0  0  0  0  0  0  0  0  0  0  0  0
   -3.1545   -2.1380    1.0601 O   0  0  0  0  0  0  0  0  0  0  0  0
    4.2994    1.0346    0.6865 H   0  0  0  0  0  0  0  0  0  0  0  0
    5.6002   -0.1975    0.4498 H   0  0  0  0  0  0  0  0  0  0  0  0
    4.3259    0.1444   -0.8572 H   0  0  0  0  0  0  0  0  0  0  0  0
    4.1143   -1.9518    0.8007 H   0  0  0  0  0  0  0  0  0  0  0  0
    3.3408   -0.6869    1.8455 H   0  0  0  0  0  0  0  0  0  0  0  0
   -0.4833    1.8564   -2.0999 H   0  0  0  0  0  0  0  0  0  0  0  0
   -2.1692    3.4314   -1.1008 H   0  0  0  0  0  0  0  0  0  0  0  0
   -3.8211    2.6038    0.4543 H   0  0  0  0  0  0  0  0  0  0  0  0
   -3.9204    0.2874    1.0985 H   0  0  0  0  0  0  0  0  0  0  0  0
   -1.1638   -3.4645    0.4033 H   0  0  0  0  0  0  0  0  0  0  0  0
  1  2  1  0
  2  3  1  0
  3  4  1  0
  4  5  1  0
  5  6  2  0
  6  7  1  0
  7  8  2  0
  8  9  1  0
  9 10  2  0
 10 11  1  0
 11 12  1  0
 11 13  2  0
 10  5  1  0
  1 14  1  0
  1 15  1  0
  1 16  1  0
  2 17  1  0
  2 18  1  0
  6 19  1  0
  7 20  1  0
  8 21  1  0
  9 22  1  0
 12 23  1  0
M  END
$$$$
