
     RDKit          3D

 74 76  0  0  0  0  0  0  0  0999 V2000
    1.4864    0.1215    1.1262 C   0  0  1  0  0  0  0  0  0  0  0  0
    1.1233    0.4957   -0.3367 C   0  0  0  0  0  0  0  0  0  0  0  0
   -0.2921    1.0062   -0.2331 C   0  0  0  0  0  0  0  0  0  0  0  0
   -0.7574    0.7053    1.1466 C   0  0  1  0  0  0  0  0  0  0  0  0
   -2.1328    0.1601    1.2032 C   0  0  0  0  0  0  0  0  0  0  0  0
   -2.4572   -0.7476    2.3221 C   0  0  0  0  0  0  0  0  0  0  0  0
   -1.4745   -0.6625    3.4512 C   0  0  0  0  0  0  0  0  0  0  0  0
   -0.0361   -0.6247    3.0135 C   0  0  0  0  0  0  0  0  0  0  0  0
    0.1686   -0.4651    1.5350 C   0  0  2  0  0  0  0  0  0  0  0  0
   -0.2364   -1.6823    0.7535 C   0  0  0  0  0  0  0  0  0  0  0  0
   -3.0965    0.4221    0.3334 C   0  0  0  0  0  0  0  0  0  0  0  0
   -4.4370   -0.1361    0.4255 C   0  0  0  0  0  0  0  0  0  0  0  0
   -5.3321    0.1947   -0.5061 C   0  0  0  0  0  0  0  0  0  0  0  0
   -4.8808    1.1184   -1.5751 C   0  0  0  0  0  0  0  0  0  0  0  0
   -6.0983    1.4995   -2.3716 C   0  0  1  0  0  0  0  0  0  0  0  0
   -5.6250    2.1890   -3.5034 O   0  0  0  0  0  0  0  0  0  0  0  0
   -6.9079    0.3394   -2.8573 C   0  0  0  0  0  0  0  0  0  0  0  0
   -7.0596   -0.7807   -1.8795 C   0  0  2  0  0  0  0  0  0  0  0  0
   -8.3550   -1.3093   -1.9140 O   0  0  0  0  0  0  0  0  0  0  0  0
   -6.7183   -0.3346   -0.4804 C   0  0  0  0  0  0  0  0  0  0  0  0
    2.6555   -0.8061    1.1318 C   0  0  2  0  0  0  0  0  0  0  0  0
    3.0459   -1.1629    2.5357 C   0  0  0  0  0  0  0  0  0  0  0  0
    3.8491   -0.2096    0.4518 C   0  0  0  0  0  0  0  0  0  0  0  0
    4.3914   -0.7384   -0.6404 C   0  0  0  0  0  0  0  0  0  0  0  0
    5.5296   -0.3768   -1.4912 C   0  0  2  0  0  0  0  0  0  0  0  0
    6.5297   -1.5152   -1.6351 C   0  0  0  0  0  0  0  0  0  0  0  0
    6.2769    0.8594   -1.0679 C   0  0  0  0  0  0  0  0  0  0  0  0
    6.8651    0.7555    0.3153 C   0  0  0  0  0  0  0  0  0  0  0  0
    5.4280    2.1007   -1.2291 C   0  0  0  0  0  0  0  0  0  0  0  0
    7.3684    0.9919   -1.9451 O   0  0  0  0  0  0  0  0  0  0  0  0
    1.6515    1.0662    1.6419 H   0  0  0  0  0  0  0  0  0  0  0  0
    1.1691   -0.4412   -0.9261 H   0  0  0  0  0  0  0  0  0  0  0  0
    1.8182    1.2791   -0.7038 H   0  0  0  0  0  0  0  0  0  0  0  0
   -0.2619    2.1252   -0.3519 H   0  0  0  0  0  0  0  0  0  0  0  0
   -0.9378    0.6260   -1.0509 H   0  0  0  0  0  0  0  0  0  0  0  0
   -0.5873    1.5423    1.8247 H   0  0  0  0  0  0  0  0  0  0  0  0
   -2.7143   -1.7810    2.0113 H   0  0  0  0  0  0  0  0  0  0  0  0
   -3.4292   -0.3516    2.7446 H   0  0  0  0  0  0  0  0  0  0  0  0
   -1.6126   -1.5873    4.0493 H   0  0  0  0  0  0  0  0  0  0  0  0
   -1.7323    0.1662    4.1416 H   0  0  0  0  0  0  0  0  0  0  0  0
    0.4204    0.2512    3.5168 H   0  0  0  0  0  0  0  0  0  0  0  0
    0.5191   -1.5226    3.3445 H   0  0  0  0  0  0  0  0  0  0  0  0
    0.5208   -2.0875    0.0801 H   0  0  0  0  0  0  0  0  0  0  0  0
   -1.1270   -1.4697    0.0917 H   0  0  0  0  0  0  0  0  0  0  0  0
   -0.5035   -2.5219    1.4415 H   0  0  0  0  0  0  0  0  0  0  0  0
   -2.8296    1.0918   -0.4724 H   0  0  0  0  0  0  0  0  0  0  0  0
   -4.7083   -0.8030    1.2253 H   0  0  0  0  0  0  0  0  0  0  0  0
   -4.5642    2.0545   -1.0381 H   0  0  0  0  0  0  0  0  0  0  0  0
   -4.0829    0.7087   -2.2021 H   0  0  0  0  0  0  0  0  0  0  0  0
   -6.7336    2.2163   -1.8201 H   0  0  0  0  0  0  0  0  0  0  0  0
   -4.8418    1.6567   -3.8118 H   0  0  0  0  0  0  0  0  0  0  0  0
   -6.5333   -0.0150   -3.8537 H   0  0  0  0  0  0  0  0  0  0  0  0
   -7.9389    0.7408   -3.0567 H   0  0  0  0  0  0  0  0  0  0  0  0
   -6.3430   -1.5910   -2.1355 H   0  0  0  0  0  0  0  0  0  0  0  0
   -8.8223   -1.0811   -1.0652 H   0  0  0  0  0  0  0  0  0  0  0  0
   -7.3909    0.5450   -0.2777 H   0  0  0  0  0  0  0  0  0  0  0  0
   -6.8451   -1.1582    0.2267 H   0  0  0  0  0  0  0  0  0  0  0  0
    2.4551   -1.7663    0.6130 H   0  0  0  0  0  0  0  0  0  0  0  0
    2.6969   -2.2029    2.8059 H   0  0  0  0  0  0  0  0  0  0  0  0
    2.6473   -0.4802    3.3050 H   0  0  0  0  0  0  0  0  0  0  0  0
    4.1597   -1.1126    2.6796 H   0  0  0  0  0  0  0  0  0  0  0  0
    4.3973    0.6793    0.7399 H   0  0  0  0  0  0  0  0  0  0  0  0
    3.9468   -1.6570   -1.0681 H   0  0  0  0  0  0  0  0  0  0  0  0
    5.1579   -0.1826   -2.5237 H   0  0  0  0  0  0  0  0  0  0  0  0
    6.0185   -2.3421   -2.1635 H   0  0  0  0  0  0  0  0  0  0  0  0
    6.6882   -1.8849   -0.5809 H   0  0  0  0  0  0  0  0  0  0  0  0
    7.4480   -1.1709   -2.1081 H   0  0  0  0  0  0  0  0  0  0  0  0
    6.5734    1.6656    0.8851 H   0  0  0  0  0  0  0  0  0  0  0  0
    7.9917    0.7875    0.3179 H   0  0  0  0  0  0  0  0  0  0  0  0
    6.6242   -0.1948    0.8385 H   0  0  0  0  0  0  0  0  0  0  0  0
    5.5972    2.7689   -0.3403 H   0  0  0  0  0  0  0  0  0  0  0  0
    5.7644    2.6948   -2.1022 H   0  0  0  0  0  0  0  0  0  0  0  0
    4.3554    1.8441   -1.3539 H   0  0  0  0  0  0  0  0  0  0  0  0
    7.0972    1.4878   -2.7553 H   0  0  0  0  0  0  0  0  0  0  0  0
  1  2  1  0
  2  3  1  0
  3  4  1  0
  4  5  1  0
  5  6  1  0
  6  7  1  0
  7  8  1  0
  8  9  1  0
  9 10  1  6
  5 11  2  0
 11 12  1  0
 12 13  2  0
 13 14  1  0
 14 15  1  0
 15 16  1  0
 15 17  1  0
 17 18  1  0
 18 19  1  0
 18 20  1  0
  1 21  1  0
 21 22  1  0
 21 23  1  0
 23 24  2  0
 24 25  1  0
 25 26  1  0
 25 27  1  0
 27 28  1  0
 27 29  1  0
 27 30  1  0
  9  1  1  0
 20 13  1  0
  9  4  1  0
  1 31  1  1
  2 32  1  0
  2 33  1  0
  3 34  1  0
  3 35  1  0
  4 36  1  1
  6 37  1  0
  6 38  1  0
  7 39  1  0
  7 40  1  0
  8 41  1  0
  8 42  1  0
 10 43  1  0
 10 44  1  0
 10 45  1  0
 11 46  1  0
 12 47  1  0
 14 48  1  0
 14 49  1  0
 15 50  1  1
 16 51  1  0
 17 52  1  0
 17 53  1  0
 18 54  1  6
 19 55  1  0
 20 56  1  0
 20 57  1  0
 21 58  1  6
 22 59  1  0
 22 60  1  0
 22 61  1  0
 23 62  1  0
 24 63  1  0
 25 64  1  6
 26 65  1  0
 26 66  1  0
 26 67  1  0
 28 68  1  0
 28 69  1  0
 28 70  1  0
 29 71  1  0
 29 72  1  0
 29 73  1  0
 30 74  1  0
M  END
$$$$
