
     RDKit          3D

 56 60  0  0  0  0  0  0  0  0999 V2000
    3.7906    0.8227   -2.8012 C   0  0  0  0  0  0  0  0  0  0  0  0
    3.2900    0.9247   -1.3783 C   0  0  1  0  0  0  0  0  0  0  0  0
    3.2318   -0.3933   -0.8659 O   0  0  0  0  0  0  0  0  0  0  0  0
    1.9970   -0.8609   -0.4066 C   0  0  0  0  0  0  0  0  0  0  0  0
    0.8952   -0.0941   -0.4452 N   0  0  0  0  0  0  0  0  0  0  0  0
   -0.2911   -0.5640    0.0040 C   0  0  0  0  0  0  0  0  0  0  0  0
   -1.4993    0.2631   -0.0331 C   0  0  0  0  0  0  0  0  0  0  0  0
   -1.6249    1.5504   -0.4920 C   0  0  0  0  0  0  0  0  0  0  0  0
   -2.9266    1.9007   -0.3272 N   0  0  0  0  0  0  0  0  0  0  0  0
   -3.5932    0.8948    0.2062 N   0  0  0  0  0  0  0  0  0  0  0  0
   -4.9853    0.7992    0.5606 C   0  0  0  0  0  0  0  0  0  0  0  0
   -5.4901    2.1721    0.8929 C   0  0  0  0  0  0  0  0  0  0  0  0
   -6.9864    2.1953    1.0702 C   0  0  0  0  0  0  0  0  0  0  0  0
   -7.6675    1.5594    0.0533 O   0  0  0  0  0  0  0  0  0  0  0  0
   -7.2626    0.2388   -0.0975 C   0  0  0  0  0  0  0  0  0  0  0  0
   -5.8278    0.2647   -0.5806 C   0  0  0  0  0  0  0  0  0  0  0  0
   -2.7229   -0.1393    0.3990 C   0  0  0  0  0  0  0  0  0  0  0  0
   -0.3284   -1.8483    0.4989 C   0  0  0  0  0  0  0  0  0  0  0  0
    0.7908   -2.6495    0.5465 C   0  0  0  0  0  0  0  0  0  0  0  0
    1.0436   -3.9042    0.9639 N   0  0  0  0  0  0  0  0  0  0  0  0
    2.3139   -4.2283    0.7963 N   0  0  0  0  0  0  0  0  0  0  0  0
    2.9079   -5.5106    1.1461 C   0  0  0  0  0  0  0  0  0  0  0  0
    2.9057   -3.1500    0.2526 C   0  0  0  0  0  0  0  0  0  0  0  0
    1.9791   -2.1402    0.0820 C   0  0  0  0  0  0  0  0  0  0  0  0
    4.3040    1.7061   -0.5715 C   0  0  1  0  0  0  0  0  0  0  0  0
    3.8718    1.8517    0.8720 C   0  0  0  0  0  0  0  0  0  0  0  0
    5.1185    2.1944    1.5286 N   0  0  0  0  0  0  0  0  0  0  0  0
    6.1589    1.5369    0.8172 C   0  0  0  0  0  0  0  0  0  0  0  0
    7.3601    1.4477    1.1645 O   0  0  0  0  0  0  0  0  0  0  0  0
    5.6062    0.9532   -0.4325 C   0  0  0  0  0  0  0  0  0  0  0  0
    4.7332    0.2373   -2.7647 H   0  0  0  0  0  0  0  0  0  0  0  0
    3.9466    1.7991   -3.2807 H   0  0  0  0  0  0  0  0  0  0  0  0
    3.0462    0.1882   -3.3529 H   0  0  0  0  0  0  0  0  0  0  0  0
    2.3187    1.4186   -1.3428 H   0  0  0  0  0  0  0  0  0  0  0  0
   -0.8145    2.1344   -0.8984 H   0  0  0  0  0  0  0  0  0  0  0  0
   -5.1198    0.1191    1.4165 H   0  0  0  0  0  0  0  0  0  0  0  0
   -5.0470    2.4466    1.8916 H   0  0  0  0  0  0  0  0  0  0  0  0
   -5.1169    2.9115    0.1730 H   0  0  0  0  0  0  0  0  0  0  0  0
   -7.2110    1.7987    2.0789 H   0  0  0  0  0  0  0  0  0  0  0  0
   -7.2979    3.2654    1.0551 H   0  0  0  0  0  0  0  0  0  0  0  0
   -7.2712   -0.2405    0.8916 H   0  0  0  0  0  0  0  0  0  0  0  0
   -7.9393   -0.2479   -0.8216 H   0  0  0  0  0  0  0  0  0  0  0  0
   -5.7979    0.9813   -1.4409 H   0  0  0  0  0  0  0  0  0  0  0  0
   -5.5306   -0.7613   -0.8737 H   0  0  0  0  0  0  0  0  0  0  0  0
   -2.9558   -1.1107    0.8201 H   0  0  0  0  0  0  0  0  0  0  0  0
   -1.2694   -2.2622    0.8708 H   0  0  0  0  0  0  0  0  0  0  0  0
    3.6680   -5.7413    0.3499 H   0  0  0  0  0  0  0  0  0  0  0  0
    3.3507   -5.4150    2.1399 H   0  0  0  0  0  0  0  0  0  0  0  0
    2.1103   -6.2758    1.0696 H   0  0  0  0  0  0  0  0  0  0  0  0
    3.9512   -3.0625   -0.0195 H   0  0  0  0  0  0  0  0  0  0  0  0
    4.4404    2.7181   -1.0193 H   0  0  0  0  0  0  0  0  0  0  0  0
    3.1029    2.6366    0.9952 H   0  0  0  0  0  0  0  0  0  0  0  0
    3.5491    0.8746    1.2635 H   0  0  0  0  0  0  0  0  0  0  0  0
    5.1997    2.8089    2.3619 H   0  0  0  0  0  0  0  0  0  0  0  0
    6.2532    1.1028   -1.3071 H   0  0  0  0  0  0  0  0  0  0  0  0
    5.3422   -0.1171   -0.2728 H   0  0  0  0  0  0  0  0  0  0  0  0
  1  2  1  0
  2  3  1  0
  3  4  1  0
  4  5  2  0
  5  6  1  0
  6  7  1  0
  7  8  1  0
  8  9  2  0
  9 10  1  0
 10 11  1  0
 11 12  1  0
 12 13  1  0
 13 14  1  0
 14 15  1  0
 15 16  1  0
 10 17  1  0
  6 18  2  0
 18 19  1  0
 19 20  2  0
 20 21  1  0
 21 22  1  0
 21 23  1  0
 23 24  2  0
  2 25  1  0
 25 26  1  0
 26 27  1  0
 27 28  1  0
 28 29  2  0
 28 30  1  0
 24  4  1  0
 30 25  1  0
 17  7  2  0
 24 19  1  0
 16 11  1  0
  1 31  1  0
  1 32  1  0
  1 33  1  0
  2 34  1  6
  8 35  1  0
 11 36  1  0
 12 37  1  0
 12 38  1  0
 13 39  1  0
 13 40  1  0
 15 41  1  0
 15 42  1  0
 16 43  1  0
 16 44  1  0
 17 45  1  0
 18 46  1  0
 22 47  1  0
 22 48  1  0
 22 49  1  0
 23 50  1  0
 25 51  1  6
 26 52  1  0
 26 53  1  0
 27 54  1  0
 30 55  1  0
 30 56  1  0
M  END
$$$$
