
     RDKit          3D

 43 46  0  0  0  0  0  0  0  0999 V2000
   -2.9368    2.4884    2.4980 N   0  0  0  0  0  0  0  0  0  0  0  0
   -3.3315    1.5353    1.5154 C   0  0  0  0  0  0  0  0  0  0  0  0
   -2.5126    0.6084    1.1889 N   0  0  0  0  0  0  0  0  0  0  0  0
   -2.9395   -0.3609    0.1771 C   0  0  1  0  0  0  0  0  0  0  0  0
   -1.7442   -1.0340   -0.3971 C   0  0  0  0  0  0  0  0  0  0  0  0
   -0.4632   -0.7546    0.0849 C   0  0  0  0  0  0  0  0  0  0  0  0
    0.6649   -1.3727   -0.3988 C   0  0  0  0  0  0  0  0  0  0  0  0
    1.9795   -1.0892    0.0925 N   0  0  0  0  0  0  0  0  0  0  0  0
    2.7643   -0.0770   -0.4869 C   0  0  0  0  0  0  0  0  0  0  0  0
    2.2049    0.5437   -1.4634 O   0  0  0  0  0  0  0  0  0  0  0  0
    4.1023    0.3078   -0.0867 C   0  0  0  0  0  0  0  0  0  0  0  0
    4.8826    1.2776   -0.6249 N   0  0  0  0  0  0  0  0  0  0  0  0
    6.0248    1.3336   -0.0013 N   0  0  0  0  0  0  0  0  0  0  0  0
    7.1196    2.2617   -0.3084 C   0  0  0  0  0  0  0  0  0  0  0  0
    6.8698    2.9478   -1.4602 F   0  0  0  0  0  0  0  0  0  0  0  0
    8.3027    1.5711   -0.4743 F   0  0  0  0  0  0  0  0  0  0  0  0
    6.0831    0.4179    0.9813 C   0  0  0  0  0  0  0  0  0  0  0  0
    4.8439   -0.2387    0.9215 C   0  0  0  0  0  0  0  0  0  0  0  0
    4.4754   -1.5285    2.0366 Cl  0  0  0  0  0  0  0  0  0  0  0  0
    0.5631   -2.3130   -1.4017 C   0  0  0  0  0  0  0  0  0  0  0  0
   -0.6963   -2.5961   -1.8852 C   0  0  0  0  0  0  0  0  0  0  0  0
   -1.8475   -1.9676   -1.3949 C   0  0  0  0  0  0  0  0  0  0  0  0
   -3.0131   -2.3212   -1.9802 F   0  0  0  0  0  0  0  0  0  0  0  0
   -3.7260   -1.4137    0.9358 C   0  0  0  0  0  0  0  0  0  0  0  0
   -4.8231   -0.8813    1.5857 F   0  0  0  0  0  0  0  0  0  0  0  0
   -4.0171   -2.5211    0.2166 F   0  0  0  0  0  0  0  0  0  0  0  0
   -3.6776    0.3243   -0.9047 C   0  0  1  0  0  0  0  0  0  0  0  0
   -5.1329    0.1297   -1.0921 C   0  0  0  0  0  0  0  0  0  0  0  0
   -4.6548    1.3688   -0.4866 C   0  0  1  0  0  0  0  0  0  0  0  0
   -4.6012    1.6031    0.9063 O   0  0  0  0  0  0  0  0  0  0  0  0
   -3.1441    2.2864    3.4853 H   0  0  0  0  0  0  0  0  0  0  0  0
   -2.4601    3.3426    2.1899 H   0  0  0  0  0  0  0  0  0  0  0  0
   -0.3845   -0.0212    0.8671 H   0  0  0  0  0  0  0  0  0  0  0  0
    2.3280   -1.6467    0.8775 H   0  0  0  0  0  0  0  0  0  0  0  0
    7.2400    2.8994    0.5851 H   0  0  0  0  0  0  0  0  0  0  0  0
    6.9064    0.2384    1.6585 H   0  0  0  0  0  0  0  0  0  0  0  0
    1.4586   -2.8009   -1.7821 H   0  0  0  0  0  0  0  0  0  0  0  0
   -0.7767   -3.3268   -2.6648 H   0  0  0  0  0  0  0  0  0  0  0  0
   -3.0336   -1.7432    1.7673 H   0  0  0  0  0  0  0  0  0  0  0  0
   -3.0346    0.6508   -1.7747 H   0  0  0  0  0  0  0  0  0  0  0  0
   -5.6365   -0.6581   -0.5348 H   0  0  0  0  0  0  0  0  0  0  0  0
   -5.4873    0.2060   -2.1507 H   0  0  0  0  0  0  0  0  0  0  0  0
   -4.7389    2.3234   -1.0702 H   0  0  0  0  0  0  0  0  0  0  0  0
  1  2  1  0
  2  3  2  0
  3  4  1  0
  4  5  1  0
  5  6  2  0
  6  7  1  0
  7  8  1  0
  8  9  1  0
  9 10  2  0
  9 11  1  0
 11 12  2  0
 12 13  1  0
 13 14  1  0
 14 15  1  0
 14 16  1  0
 13 17  1  0
 17 18  2  0
 18 19  1  0
  7 20  2  0
 20 21  1  0
 21 22  2  0
 22 23  1  0
  4 24  1  1
 24 25  1  0
 24 26  1  0
  4 27  1  0
 27 28  1  0
 28 29  1  0
 29 30  1  0
 30  2  1  0
 22  5  1  0
 29 27  1  0
 18 11  1  0
  1 31  1  0
  1 32  1  0
  6 33  1  0
  8 34  1  0
 14 35  1  0
 17 36  1  0
 20 37  1  0
 21 38  1  0
 24 39  1  0
 27 40  1  6
 28 41  1  0
 28 42  1  0
 29 43  1  6
M  END
$$$$
