
     RDKit          3D

 72 76  0  0  0  0  0  0  0  0999 V2000
    6.4291   -2.2219   -1.6468 C   0  0  0  0  0  0  0  0  0  0  0  0
    6.5287   -0.8677   -0.9862 C   0  0  0  0  0  0  0  0  0  0  0  0
    7.5849   -0.1089   -1.3307 N   0  0  0  0  0  0  0  0  0  0  0  0
    7.7573    1.1088   -0.7956 C   0  0  0  0  0  0  0  0  0  0  0  0
    8.8593    1.9030   -1.1536 N   0  0  0  0  0  0  0  0  0  0  0  0
    6.8156    1.5415    0.1105 C   0  0  0  0  0  0  0  0  0  0  0  0
    5.6995    0.7826    0.4965 C   0  0  0  0  0  0  0  0  0  0  0  0
    5.5611   -0.4860   -0.0887 C   0  0  0  0  0  0  0  0  0  0  0  0
    4.4994   -1.4372    0.1952 C   0  0  0  0  0  0  0  0  0  0  0  0
    3.2864   -1.2039   -0.6320 N   0  0  0  0  0  0  0  0  0  0  0  0
    2.1183   -1.9029   -0.4392 C   0  0  0  0  0  0  0  0  0  0  0  0
    2.3790   -2.7551    0.5472 O   0  0  0  0  0  0  0  0  0  0  0  0
    0.7417   -1.9640   -0.9794 C   0  0  0  0  0  0  0  0  0  0  0  0
    0.0248   -3.1855   -1.0370 C   0  0  0  0  0  0  0  0  0  0  0  0
   -1.1669   -2.8659   -1.4976 N   0  0  0  0  0  0  0  0  0  0  0  0
   -1.2449   -1.5261   -1.7333 N   0  0  0  0  0  0  0  0  0  0  0  0
   -0.0908   -0.9534   -1.4275 C   0  0  0  0  0  0  0  0  0  0  0  0
   -2.5279   -1.0049   -2.2119 C   0  0  0  0  0  0  0  0  0  0  0  0
   -3.4872   -1.1679   -1.0791 C   0  0  0  0  0  0  0  0  0  0  0  0
   -4.6275   -1.8786   -1.2887 C   0  0  0  0  0  0  0  0  0  0  0  0
   -5.5698   -2.1277   -0.3106 C   0  0  0  0  0  0  0  0  0  0  0  0
   -5.3608   -1.6388    0.9513 C   0  0  0  0  0  0  0  0  0  0  0  0
   -6.3603   -1.8994    2.0103 C   0  0  0  0  0  0  0  0  0  0  0  0
   -7.3808   -0.8684    2.0956 N   0  0  0  0  0  0  0  0  0  0  0  0
   -8.5244   -0.9245    1.3914 C   0  0  0  0  0  0  0  0  0  0  0  0
   -9.2847    0.1872    1.6844 C   0  0  0  0  0  0  0  0  0  0  0  0
   -8.5461    0.9094    2.5935 C   0  0  0  0  0  0  0  0  0  0  0  0
   -7.4144    0.2239    2.7995 N   0  0  0  0  0  0  0  0  0  0  0  0
   -4.2049   -0.9171    1.1660 C   0  0  0  0  0  0  0  0  0  0  0  0
   -3.2377   -0.6444    0.2119 C   0  0  0  0  0  0  0  0  0  0  0  0
   -2.1329    0.0602    0.4556 O   0  0  0  0  0  0  0  0  0  0  0  0
   -1.5079    1.2259    0.6725 C   0  0  0  0  0  0  0  0  0  0  0  0
   -1.6162    2.3116   -0.3768 C   0  0  0  0  0  0  0  0  0  0  0  0
   -0.8140    3.4829    0.0648 C   0  0  0  0  0  0  0  0  0  0  0  0
    0.6601    3.4323    0.2028 C   0  0  0  0  0  0  0  0  0  0  0  0
    1.6376    2.6168    0.0573 C   0  0  0  0  0  0  0  0  0  0  0  0
    3.1314    2.6137    0.2076 C   0  0  0  0  0  0  0  0  0  0  0  0
    3.4389    1.5500    1.2899 C   0  0  0  0  0  0  0  0  0  0  0  0
    4.7958    1.2813    1.4097 O   0  0  0  0  0  0  0  0  0  0  0  0
    6.7488   -2.9557   -0.8787 H   0  0  0  0  0  0  0  0  0  0  0  0
    7.1070   -2.2958   -2.4926 H   0  0  0  0  0  0  0  0  0  0  0  0
    5.3717   -2.4493   -1.9003 H   0  0  0  0  0  0  0  0  0  0  0  0
    9.0851    2.1199   -2.1486 H   0  0  0  0  0  0  0  0  0  0  0  0
    9.5004    2.3106   -0.4324 H   0  0  0  0  0  0  0  0  0  0  0  0
    7.0124    2.5432    0.5244 H   0  0  0  0  0  0  0  0  0  0  0  0
    4.1476   -1.2930    1.2530 H   0  0  0  0  0  0  0  0  0  0  0  0
    4.8701   -2.4517    0.1034 H   0  0  0  0  0  0  0  0  0  0  0  0
    3.5054   -0.4886   -1.3000 H   0  0  0  0  0  0  0  0  0  0  0  0
    0.3765   -4.1921   -0.7619 H   0  0  0  0  0  0  0  0  0  0  0  0
    0.1784    0.1593   -1.5285 H   0  0  0  0  0  0  0  0  0  0  0  0
   -2.5856   -0.0639   -2.7014 H   0  0  0  0  0  0  0  0  0  0  0  0
   -2.9248   -1.7143   -3.0278 H   0  0  0  0  0  0  0  0  0  0  0  0
   -4.8664   -2.3051   -2.2794 H   0  0  0  0  0  0  0  0  0  0  0  0
   -6.4676   -2.6938   -0.5040 H   0  0  0  0  0  0  0  0  0  0  0  0
   -5.8302   -2.0175    2.9896 H   0  0  0  0  0  0  0  0  0  0  0  0
   -6.8749   -2.8610    1.8403 H   0  0  0  0  0  0  0  0  0  0  0  0
   -8.8546   -1.6896    0.6918 H   0  0  0  0  0  0  0  0  0  0  0  0
  -10.2647    0.4072    1.2586 H   0  0  0  0  0  0  0  0  0  0  0  0
   -8.8636    1.8455    3.0286 H   0  0  0  0  0  0  0  0  0  0  0  0
   -4.1202   -0.5834    2.2146 H   0  0  0  0  0  0  0  0  0  0  0  0
   -0.3989    1.0218    0.7973 H   0  0  0  0  0  0  0  0  0  0  0  0
   -1.8232    1.7400    1.6516 H   0  0  0  0  0  0  0  0  0  0  0  0
   -2.6864    2.6655   -0.4569 H   0  0  0  0  0  0  0  0  0  0  0  0
   -1.2894    1.8896   -1.3461 H   0  0  0  0  0  0  0  0  0  0  0  0
   -1.3200    3.8178    1.0208 H   0  0  0  0  0  0  0  0  0  0  0  0
   -1.0979    4.3899   -0.6057 H   0  0  0  0  0  0  0  0  0  0  0  0
    0.8398    4.5508    0.5698 H   0  0  0  0  0  0  0  0  0  0  0  0
    1.5257    1.5108   -0.2989 H   0  0  0  0  0  0  0  0  0  0  0  0
    3.6237    2.2294   -0.7389 H   0  0  0  0  0  0  0  0  0  0  0  0
    3.6884    3.4621    0.5122 H   0  0  0  0  0  0  0  0  0  0  0  0
    3.0511    2.0054    2.2648 H   0  0  0  0  0  0  0  0  0  0  0  0
    2.7877    0.7051    1.0828 H   0  0  0  0  0  0  0  0  0  0  0  0
  1  2  1  0
  2  3  2  0
  3  4  1  0
  4  5  1  0
  4  6  2  0
  6  7  1  0
  7  8  2  0
  8  9  1  0
  9 10  1  0
 10 11  1  0
 11 12  2  0
 11 13  1  0
 13 14  1  0
 14 15  2  0
 15 16  1  0
 16 17  1  0
 16 18  1  0
 18 19  1  0
 19 20  2  0
 20 21  1  0
 21 22  2  0
 22 23  1  0
 23 24  1  0
 24 25  1  0
 25 26  2  0
 26 27  1  0
 27 28  2  0
 22 29  1  0
 29 30  2  0
 30 31  1  0
 31 32  1  0
 32 33  1  0
 33 34  1  0
 34 35  1  0
 35 36  2  0
 36 37  1  0
 37 38  1  0
 38 39  1  0
  8  2  1  0
 17 13  2  0
 30 19  1  0
 39  7  1  0
 28 24  1  0
  1 40  1  0
  1 41  1  0
  1 42  1  0
  5 43  1  0
  5 44  1  0
  6 45  1  0
  9 46  1  0
  9 47  1  0
 10 48  1  0
 14 49  1  0
 17 50  1  0
 18 51  1  0
 18 52  1  0
 20 53  1  0
 21 54  1  0
 23 55  1  0
 23 56  1  0
 25 57  1  0
 26 58  1  0
 27 59  1  0
 29 60  1  0
 32 61  1  0
 32 62  1  0
 33 63  1  0
 33 64  1  0
 34 65  1  0
 34 66  1  0
 35 67  1  0
 36 68  1  0
 37 69  1  0
 37 70  1  0
 38 71  1  0
 38 72  1  0
M  END
$$$$
