
     RDKit          3D

 29 30  0  0  0  0  0  0  0  0999 V2000
   -4.9726    1.1826   -0.5089 N   0  0  0  0  0  0  0  0  0  0  0  0
   -3.7655    0.4509   -0.3398 C   0  0  0  0  0  0  0  0  0  0  0  0
   -3.1995    0.3658    0.9154 C   0  0  0  0  0  0  0  0  0  0  0  0
   -2.0242   -0.3188    1.2072 C   0  0  0  0  0  0  0  0  0  0  0  0
   -1.4206   -0.9416    0.1210 C   0  0  0  0  0  0  0  0  0  0  0  0
   -1.9258   -0.9016   -1.1638 C   0  0  0  0  0  0  0  0  0  0  0  0
   -3.0975   -0.1977   -1.3567 C   0  0  0  0  0  0  0  0  0  0  0  0
    0.0574   -1.8081    0.4620 S   0  0  0  0  0  0  0  0  0  0  0  0
    0.1806   -2.9522   -0.4980 O   0  0  0  0  0  0  0  0  0  0  0  0
    0.0677   -2.3224    1.8911 O   0  0  0  0  0  0  0  0  0  0  0  0
    1.4572   -0.7828    0.2928 C   0  0  0  0  0  0  0  0  0  0  0  0
    2.0576   -0.7247   -0.9573 C   0  0  0  0  0  0  0  0  0  0  0  0
    3.1695    0.0404   -1.2435 C   0  0  0  0  0  0  0  0  0  0  0  0
    3.6799    0.7723   -0.2007 C   0  0  0  0  0  0  0  0  0  0  0  0
    4.8264    1.5906   -0.4051 N   0  0  0  0  0  0  0  0  0  0  0  0
    3.1240    0.7577    1.0774 C   0  0  0  0  0  0  0  0  0  0  0  0
    1.9981   -0.0354    1.3111 C   0  0  0  0  0  0  0  0  0  0  0  0
   -5.8181    0.8686    0.0051 H   0  0  0  0  0  0  0  0  0  0  0  0
   -5.1889    2.0374   -1.0930 H   0  0  0  0  0  0  0  0  0  0  0  0
   -3.6972    0.8651    1.7462 H   0  0  0  0  0  0  0  0  0  0  0  0
   -1.6180   -0.3579    2.2080 H   0  0  0  0  0  0  0  0  0  0  0  0
   -1.4127   -1.4067   -1.9761 H   0  0  0  0  0  0  0  0  0  0  0  0
   -3.5188   -0.1479   -2.3534 H   0  0  0  0  0  0  0  0  0  0  0  0
    1.6502   -1.3103   -1.7940 H   0  0  0  0  0  0  0  0  0  0  0  0
    3.6118    0.0619   -2.2300 H   0  0  0  0  0  0  0  0  0  0  0  0
    5.8249    1.3355   -0.4646 H   0  0  0  0  0  0  0  0  0  0  0  0
    4.8878    2.6311   -0.5381 H   0  0  0  0  0  0  0  0  0  0  0  0
    3.5446    1.3423    1.8800 H   0  0  0  0  0  0  0  0  0  0  0  0
    1.5216   -0.0941    2.2640 H   0  0  0  0  0  0  0  0  0  0  0  0
  1  2  1  0
  2  3  2  0
  3  4  1  0
  4  5  2  0
  5  6  1  0
  6  7  2  0
  5  8  1  0
  8  9  2  0
  8 10  2  0
  8 11  1  0
 11 12  2  0
 12 13  1  0
 13 14  2  0
 14 15  1  0
 14 16  1  0
 16 17  2  0
  7  2  1  0
 17 11  1  0
  1 18  1  0
  1 19  1  0
  3 20  1  0
  4 21  1  0
  6 22  1  0
  7 23  1  0
 12 24  1  0
 13 25  1  0
 15 26  1  0
 15 27  1  0
 16 28  1  0
 17 29  1  0
M  END
$$$$
