
     RDKit          3D

 66 68  0  0  0  0  0  0  0  0999 V2000
   -6.5872    2.7757    2.1255 C   0  0  0  0  0  0  0  0  0  0  0  0
   -5.3486    2.4083    1.3527 C   0  0  0  0  0  0  0  0  0  0  0  0
   -4.4245    3.2858    1.2745 O   0  0  0  0  0  0  0  0  0  0  0  0
   -5.2838    1.1104    0.7587 N   0  0  0  0  0  0  0  0  0  0  0  0
   -4.1454    0.6423   -0.0081 C   0  0  2  0  0  0  0  0  0  0  0  0
   -4.7157    0.2968   -1.3878 C   0  0  1  0  0  0  0  0  0  0  0  0
   -3.6611    0.5556   -2.2855 O   0  0  0  0  0  0  0  0  0  0  0  0
   -5.0428   -1.1640   -1.4776 C   0  0  1  0  0  0  0  0  0  0  0  0
   -4.0874   -1.8588   -2.2551 O   0  0  0  0  0  0  0  0  0  0  0  0
   -5.3228   -1.8379   -0.1873 C   0  0  1  0  0  0  0  0  0  0  0  0
   -5.1296   -3.3463   -0.3900 C   0  0  0  0  0  0  0  0  0  0  0  0
   -5.5146   -4.0299    0.7631 O   0  0  0  0  0  0  0  0  0  0  0  0
   -4.5411   -1.4787    0.8668 O   0  0  0  0  0  0  0  0  0  0  0  0
   -3.5337   -0.6180    0.5228 C   0  0  2  0  0  0  0  0  0  0  0  0
   -2.5783   -0.4348    1.4879 O   0  0  0  0  0  0  0  0  0  0  0  0
   -1.0430   -0.9175    1.0596 P   0  0  2  0  0  5  0  0  0  0  0  0
   -0.8634   -1.2302   -0.5894 O   0  0  0  0  0  0  0  0  0  0  0  0
   -0.5255   -2.1034    1.8174 O   0  0  0  0  0  0  0  0  0  0  0  0
    0.0059    0.3801    1.4022 O   0  0  0  0  0  0  0  0  0  0  0  0
   -0.0302    1.5431    0.2077 P   0  0  2  0  0  5  0  0  0  0  0  0
   -0.8807    2.9348    0.7069 O   0  0  0  0  0  0  0  0  0  0  0  0
   -0.6839    1.0911   -1.0729 O   0  0  0  0  0  0  0  0  0  0  0  0
    1.5451    2.0235   -0.1673 O   0  0  0  0  0  0  0  0  0  0  0  0
    2.4514    1.3705    0.6616 C   0  0  0  0  0  0  0  0  0  0  0  0
    3.8448    1.8469    0.2724 C   0  0  1  0  0  0  0  0  0  0  0  0
    4.8476    1.2819    1.0125 O   0  0  0  0  0  0  0  0  0  0  0  0
    5.8515    0.8700    0.1535 C   0  0  2  0  0  0  0  0  0  0  0  0
    5.2009    0.5984   -1.1825 C   0  0  2  0  0  0  0  0  0  0  0  0
    6.1002    0.8116   -2.2406 O   0  0  0  0  0  0  0  0  0  0  0  0
    4.0726    1.6048   -1.1805 C   0  0  2  0  0  0  0  0  0  0  0  0
    4.3996    2.7752   -1.8730 O   0  0  0  0  0  0  0  0  0  0  0  0
    6.4154   -0.3576    0.6561 N   0  0  0  0  0  0  0  0  0  0  0  0
    5.7332   -1.2236    1.4224 C   0  0  0  0  0  0  0  0  0  0  0  0
    6.4554   -2.3495    1.8052 C   0  0  0  0  0  0  0  0  0  0  0  0
    7.7584   -2.5681    1.4362 C   0  0  0  0  0  0  0  0  0  0  0  0
    8.4061   -3.5831    1.7826 O   0  0  0  0  0  0  0  0  0  0  0  0
    8.3757   -1.6508    0.6647 N   0  0  0  0  0  0  0  0  0  0  0  0
    7.7095   -0.5540    0.2775 C   0  0  0  0  0  0  0  0  0  0  0  0
    8.3531    0.2506   -0.4382 O   0  0  0  0  0  0  0  0  0  0  0  0
   -7.3966    2.9698    1.3690 H   0  0  0  0  0  0  0  0  0  0  0  0
   -6.9259    1.8757    2.6686 H   0  0  0  0  0  0  0  0  0  0  0  0
   -6.4156    3.6068    2.8137 H   0  0  0  0  0  0  0  0  0  0  0  0
   -6.0930    0.4778    0.8860 H   0  0  0  0  0  0  0  0  0  0  0  0
   -3.3519    1.4022   -0.0724 H   0  0  0  0  0  0  0  0  0  0  0  0
   -5.5447    0.9697   -1.6756 H   0  0  0  0  0  0  0  0  0  0  0  0
   -3.9463    1.0678   -3.0598 H   0  0  0  0  0  0  0  0  0  0  0  0
   -5.9740   -1.2408   -2.1115 H   0  0  0  0  0  0  0  0  0  0  0  0
   -4.4959   -2.5429   -2.8354 H   0  0  0  0  0  0  0  0  0  0  0  0
   -6.4190   -1.7445    0.0407 H   0  0  0  0  0  0  0  0  0  0  0  0
   -4.0480   -3.5556   -0.5426 H   0  0  0  0  0  0  0  0  0  0  0  0
   -5.7764   -3.7169   -1.2141 H   0  0  0  0  0  0  0  0  0  0  0  0
   -5.6106   -3.3876    1.5151 H   0  0  0  0  0  0  0  0  0  0  0  0
   -2.9814   -1.0741   -0.3508 H   0  0  0  0  0  0  0  0  0  0  0  0
   -0.8402   -2.1749   -0.8265 H   0  0  0  0  0  0  0  0  0  0  0  0
   -0.3722    3.4641    1.3688 H   0  0  0  0  0  0  0  0  0  0  0  0
    2.3524    0.2981    0.4699 H   0  0  0  0  0  0  0  0  0  0  0  0
    2.2291    1.6558    1.7072 H   0  0  0  0  0  0  0  0  0  0  0  0
    3.8757    2.9600    0.4617 H   0  0  0  0  0  0  0  0  0  0  0  0
    6.6030    1.6760    0.0306 H   0  0  0  0  0  0  0  0  0  0  0  0
    4.7788   -0.4212   -1.1797 H   0  0  0  0  0  0  0  0  0  0  0  0
    5.9075    0.1620   -2.9476 H   0  0  0  0  0  0  0  0  0  0  0  0
    3.1790    1.1067   -1.6322 H   0  0  0  0  0  0  0  0  0  0  0  0
    3.6595    2.9471   -2.5216 H   0  0  0  0  0  0  0  0  0  0  0  0
    4.7135   -1.0204    1.6923 H   0  0  0  0  0  0  0  0  0  0  0  0
    5.9390   -3.0867    2.4329 H   0  0  0  0  0  0  0  0  0  0  0  0
    9.3711   -1.8252    0.3871 H   0  0  0  0  0  0  0  0  0  0  0  0
  1  2  1  0
  2  3  2  0
  2  4  1  0
  4  5  1  0
  5  6  1  0
  6  7  1  0
  6  8  1  0
  8  9  1  0
  8 10  1  0
 10 11  1  0
 11 12  1  0
 10 13  1  0
 13 14  1  0
 14 15  1  0
 16 15  1  6
 16 17  1  0
 16 18  2  0
 16 19  1  0
 20 19  1  1
 20 21  1  0
 20 22  2  0
 20 23  1  0
 23 24  1  0
 24 25  1  0
 25 26  1  0
 26 27  1  0
 27 28  1  0
 28 29  1  0
 28 30  1  0
 30 31  1  0
 27 32  1  0
 32 33  1  0
 33 34  2  0
 34 35  1  0
 35 36  2  0
 35 37  1  0
 37 38  1  0
 38 39  2  0
 14  5  1  0
 30 25  1  0
 38 32  1  0
  1 40  1  0
  1 41  1  0
  1 42  1  0
  4 43  1  0
  5 44  1  6
  6 45  1  6
  7 46  1  0
  8 47  1  6
  9 48  1  0
 10 49  1  1
 11 50  1  0
 11 51  1  0
 12 52  1  0
 14 53  1  6
 17 54  1  0
 21 55  1  0
 24 56  1  0
 24 57  1  0
 25 58  1  6
 27 59  1  6
 28 60  1  1
 29 61  1  0
 30 62  1  6
 31 63  1  0
 33 64  1  0
 34 65  1  0
 37 66  1  0
M  END
$$$$
