
     RDKit          3D

 36 38  0  0  0  0  0  0  0  0999 V2000
   -4.1186    1.4012    0.6704 C   0  0  0  0  0  0  0  0  0  0  0  0
   -3.5153    0.1513    0.3020 N   0  0  0  0  0  0  0  0  0  0  0  0
   -2.0942    0.3113    0.2792 C   0  0  2  0  0  0  0  0  0  0  0  0
   -1.6352    1.3637   -0.7098 C   0  0  0  0  0  0  0  0  0  0  0  0
   -0.1815    1.6171   -0.5457 C   0  0  0  0  0  0  0  0  0  0  0  0
    0.6017    0.4137   -0.3680 N   0  0  0  0  0  0  0  0  0  0  0  0
    1.9873    0.4755   -0.0600 C   0  0  0  0  0  0  0  0  0  0  0  0
    2.7582    1.5707   -0.4432 C   0  0  0  0  0  0  0  0  0  0  0  0
    4.0987    1.6646   -0.1373 C   0  0  0  0  0  0  0  0  0  0  0  0
    4.7170    0.6499    0.5720 C   0  0  0  0  0  0  0  0  0  0  0  0
    6.4247    0.7257    0.9847 Cl  0  0  0  0  0  0  0  0  0  0  0  0
    3.9732   -0.4485    0.9645 C   0  0  0  0  0  0  0  0  0  0  0  0
    4.7873   -1.7135    1.8602 Cl  0  0  0  0  0  0  0  0  0  0  0  0
    2.6129   -0.5277    0.6458 C   0  0  0  0  0  0  0  0  0  0  0  0
   -0.0507   -0.8399   -0.5205 C   0  0  0  0  0  0  0  0  0  0  0  0
    0.6425   -1.9268   -0.9749 C   0  0  0  0  0  0  0  0  0  0  0  0
   -0.0520   -3.1231   -1.0854 C   0  0  0  0  0  0  0  0  0  0  0  0
   -1.3815   -3.2498   -0.7619 C   0  0  0  0  0  0  0  0  0  0  0  0
   -2.0704   -2.1364   -0.3030 C   0  0  0  0  0  0  0  0  0  0  0  0
   -1.4101   -0.9506   -0.1862 C   0  0  0  0  0  0  0  0  0  0  0  0
   -5.1971    1.2596    0.9665 H   0  0  0  0  0  0  0  0  0  0  0  0
   -3.6378    1.8778    1.5495 H   0  0  0  0  0  0  0  0  0  0  0  0
   -4.1660    2.0878   -0.2128 H   0  0  0  0  0  0  0  0  0  0  0  0
   -3.8764   -0.1235   -0.6280 H   0  0  0  0  0  0  0  0  0  0  0  0
   -1.7130    0.5942    1.2780 H   0  0  0  0  0  0  0  0  0  0  0  0
   -1.7938    0.9225   -1.7285 H   0  0  0  0  0  0  0  0  0  0  0  0
   -2.1751    2.3226   -0.5924 H   0  0  0  0  0  0  0  0  0  0  0  0
    0.0161    2.3612    0.2578 H   0  0  0  0  0  0  0  0  0  0  0  0
    0.1624    2.0965   -1.5133 H   0  0  0  0  0  0  0  0  0  0  0  0
    2.3050    2.3625   -0.9889 H   0  0  0  0  0  0  0  0  0  0  0  0
    4.7134    2.5047   -0.4251 H   0  0  0  0  0  0  0  0  0  0  0  0
    2.1179   -1.4171    1.0081 H   0  0  0  0  0  0  0  0  0  0  0  0
    1.6926   -1.8233   -1.2395 H   0  0  0  0  0  0  0  0  0  0  0  0
    0.4694   -4.0061   -1.4430 H   0  0  0  0  0  0  0  0  0  0  0  0
   -1.8896   -4.1996   -0.8608 H   0  0  0  0  0  0  0  0  0  0  0  0
   -3.1220   -2.2483   -0.0503 H   0  0  0  0  0  0  0  0  0  0  0  0
  1  2  1  0
  2  3  1  0
  3  4  1  0
  4  5  1  0
  5  6  1  0
  6  7  1  0
  7  8  2  0
  8  9  1  0
  9 10  2  0
 10 11  1  0
 10 12  1  0
 12 13  1  0
 12 14  2  0
  6 15  1  0
 15 16  2  0
 16 17  1  0
 17 18  2  0
 18 19  1  0
 19 20  2  0
 20  3  1  0
 14  7  1  0
 20 15  1  0
  1 21  1  0
  1 22  1  0
  1 23  1  0
  2 24  1  0
  3 25  1  1
  4 26  1  0
  4 27  1  0
  5 28  1  0
  5 29  1  0
  8 30  1  0
  9 31  1  0
 14 32  1  0
 16 33  1  0
 17 34  1  0
 18 35  1  0
 19 36  1  0
M  END
$$$$
