
     RDKit          3D

 56 57  0  0  0  0  0  0  0  0999 V2000
    7.7480   -0.5332   -2.4593 C   0  0  0  0  0  0  0  0  0  0  0  0
    6.3847   -0.3367   -1.7936 C   0  0  0  0  0  0  0  0  0  0  0  0
    5.3661   -0.2876   -2.8899 C   0  0  0  0  0  0  0  0  0  0  0  0
    4.0596   -0.0967   -2.3245 N   0  0  0  0  0  0  0  0  0  0  0  0
    3.4655   -1.0099   -1.4271 C   0  0  0  0  0  0  0  0  0  0  0  0
    4.0588   -2.0580   -1.0720 O   0  0  0  0  0  0  0  0  0  0  0  0
    2.1127   -0.7247   -0.8935 C   0  0  1  0  0  0  0  0  0  0  0  0
    1.2918   -1.8726   -0.8576 O   0  0  0  0  0  0  0  0  0  0  0  0
    1.7836   -1.2782    0.4097 C   0  0  2  0  0  0  0  0  0  0  0  0
    0.6563   -0.8327    1.2261 C   0  0  0  0  0  0  0  0  0  0  0  0
    0.5388   -1.2607    2.4209 O   0  0  0  0  0  0  0  0  0  0  0  0
   -0.3690    0.0630    0.8283 N   0  0  0  0  0  0  0  0  0  0  0  0
   -1.4622    0.4872    1.6690 C   0  0  2  0  0  0  0  0  0  0  0  0
   -2.7539   -0.0046    1.2825 C   0  0  0  0  0  0  0  0  0  0  0  0
   -3.7219    0.4126    2.0228 O   0  0  0  0  0  0  0  0  0  0  0  0
   -3.1595   -0.8577    0.2459 N   0  0  0  0  0  0  0  0  0  0  0  0
   -2.4479   -1.5694   -0.7967 C   0  0  0  0  0  0  0  0  0  0  0  0
   -3.1441   -0.9561   -2.0121 C   0  0  0  0  0  0  0  0  0  0  0  0
   -4.6021   -1.0703   -1.5488 C   0  0  0  0  0  0  0  0  0  0  0  0
   -4.5604   -1.2545   -0.0469 C   0  0  1  0  0  0  0  0  0  0  0  0
   -4.8330   -2.6138    0.4000 C   0  0  0  0  0  0  0  0  0  0  0  0
   -5.9894   -3.0757    0.2113 O   0  0  0  0  0  0  0  0  0  0  0  0
   -3.9226   -3.4493    1.0199 O   0  0  0  0  0  0  0  0  0  0  0  0
   -1.2940    1.9588    1.8989 C   0  0  1  0  0  0  0  0  0  0  0  0
   -1.3191    2.7964    0.6670 C   0  0  0  0  0  0  0  0  0  0  0  0
   -2.0885    2.5106    3.0540 C   0  0  0  0  0  0  0  0  0  0  0  0
   -1.8349    3.9988    3.1952 C   0  0  0  0  0  0  0  0  0  0  0  0
    7.7345   -0.1198   -3.5023 H   0  0  0  0  0  0  0  0  0  0  0  0
    8.4839    0.0267   -1.8724 H   0  0  0  0  0  0  0  0  0  0  0  0
    7.9582   -1.6221   -2.4885 H   0  0  0  0  0  0  0  0  0  0  0  0
    6.3595    0.6403   -1.2693 H   0  0  0  0  0  0  0  0  0  0  0  0
    6.1770   -1.1851   -1.1309 H   0  0  0  0  0  0  0  0  0  0  0  0
    5.4059   -1.2539   -3.4724 H   0  0  0  0  0  0  0  0  0  0  0  0
    5.5851    0.5272   -3.6213 H   0  0  0  0  0  0  0  0  0  0  0  0
    3.5197    0.7521   -2.5834 H   0  0  0  0  0  0  0  0  0  0  0  0
    1.6327    0.2119   -1.2407 H   0  0  0  0  0  0  0  0  0  0  0  0
    2.4959   -1.9776    0.8902 H   0  0  0  0  0  0  0  0  0  0  0  0
   -0.3185    0.4529   -0.1377 H   0  0  0  0  0  0  0  0  0  0  0  0
   -1.2334    0.0132    2.6794 H   0  0  0  0  0  0  0  0  0  0  0  0
   -1.3820   -1.5016   -0.7956 H   0  0  0  0  0  0  0  0  0  0  0  0
   -2.7213   -2.6479   -0.8173 H   0  0  0  0  0  0  0  0  0  0  0  0
   -2.9604   -1.5052   -2.9314 H   0  0  0  0  0  0  0  0  0  0  0  0
   -2.8262    0.1073   -2.0265 H   0  0  0  0  0  0  0  0  0  0  0  0
   -5.0584   -0.0668   -1.7689 H   0  0  0  0  0  0  0  0  0  0  0  0
   -5.1392   -1.8567   -2.0773 H   0  0  0  0  0  0  0  0  0  0  0  0
   -5.1967   -0.5079    0.4370 H   0  0  0  0  0  0  0  0  0  0  0  0
   -3.9777   -4.4522    0.8901 H   0  0  0  0  0  0  0  0  0  0  0  0
   -0.2161    2.0391    2.2659 H   0  0  0  0  0  0  0  0  0  0  0  0
   -2.2768    3.3905    0.6536 H   0  0  0  0  0  0  0  0  0  0  0  0
   -1.2891    2.2468   -0.2752 H   0  0  0  0  0  0  0  0  0  0  0  0
   -0.5048    3.5606    0.6285 H   0  0  0  0  0  0  0  0  0  0  0  0
   -3.1670    2.3945    2.9842 H   0  0  0  0  0  0  0  0  0  0  0  0
   -1.6935    2.0433    4.0022 H   0  0  0  0  0  0  0  0  0  0  0  0
   -2.5634    4.5720    2.5787 H   0  0  0  0  0  0  0  0  0  0  0  0
   -0.8348    4.2992    2.8613 H   0  0  0  0  0  0  0  0  0  0  0  0
   -1.9562    4.3341    4.2397 H   0  0  0  0  0  0  0  0  0  0  0  0
  1  2  1  0
  2  3  1  0
  3  4  1  0
  4  5  1  0
  5  6  2  0
  5  7  1  0
  7  8  1  0
  8  9  1  0
  9 10  1  0
 10 11  2  0
 10 12  1  0
 12 13  1  0
 13 14  1  0
 14 15  2  0
 14 16  1  0
 16 17  1  0
 17 18  1  0
 18 19  1  0
 19 20  1  0
 20 21  1  0
 21 22  2  0
 21 23  1  0
 13 24  1  0
 24 25  1  0
 24 26  1  0
 26 27  1  0
  9  7  1  0
 20 16  1  0
  1 28  1  0
  1 29  1  0
  1 30  1  0
  2 31  1  0
  2 32  1  0
  3 33  1  0
  3 34  1  0
  4 35  1  0
  7 36  1  1
  9 37  1  1
 12 38  1  0
 13 39  1  1
 17 40  1  0
 17 41  1  0
 18 42  1  0
 18 43  1  0
 19 44  1  0
 19 45  1  0
 20 46  1  1
 23 47  1  0
 24 48  1  1
 25 49  1  0
 25 50  1  0
 25 51  1  0
 26 52  1  0
 26 53  1  0
 27 54  1  0
 27 55  1  0
 27 56  1  0
M  END
$$$$
