
     RDKit          3D

 58 62  0  0  0  0  0  0  0  0999 V2000
    8.2775   -1.0175   -1.8204 C   0  0  0  0  0  0  0  0  0  0  0  0
    7.3693   -0.3290   -0.9353 N   0  0  0  0  0  0  0  0  0  0  0  0
    6.0551   -0.5972   -0.7547 C   0  0  0  0  0  0  0  0  0  0  0  0
    5.5323    0.2737    0.1672 C   0  0  0  0  0  0  0  0  0  0  0  0
    4.1667    0.3387    0.6533 C   0  0  0  0  0  0  0  0  0  0  0  0
    3.6790    1.5830    1.0217 C   0  0  0  0  0  0  0  0  0  0  0  0
    2.4100    1.7300    1.4863 C   0  0  0  0  0  0  0  0  0  0  0  0
    1.6282    0.5947    1.5766 C   0  0  0  0  0  0  0  0  0  0  0  0
    0.2923    0.6952    2.0530 N   0  0  0  0  0  0  0  0  0  0  0  0
   -0.8264    0.2989    1.2526 C   0  0  0  0  0  0  0  0  0  0  0  0
   -1.4242   -0.9204    1.2479 N   0  0  0  0  0  0  0  0  0  0  0  0
   -2.4358   -0.9341    0.3747 N   0  0  0  0  0  0  0  0  0  0  0  0
   -3.3197   -2.0224    0.0693 C   0  0  0  0  0  0  0  0  0  0  0  0
   -3.2326   -2.4884   -1.3743 C   0  0  0  0  0  0  0  0  0  0  0  0
   -4.3311   -3.5492   -1.5122 C   0  0  0  0  0  0  0  0  0  0  0  0
   -3.9472   -4.6421   -0.7691 O   0  0  0  0  0  0  0  0  0  0  0  0
   -3.8998   -4.3863    0.5814 C   0  0  0  0  0  0  0  0  0  0  0  0
   -2.9600   -3.2371    0.9124 C   0  0  0  0  0  0  0  0  0  0  0  0
   -2.4834    0.2954   -0.1860 C   0  0  0  0  0  0  0  0  0  0  0  0
   -1.4908    1.0781    0.3462 C   0  0  0  0  0  0  0  0  0  0  0  0
   -1.3014    2.4763   -0.0795 C   0  0  0  0  0  0  0  0  0  0  0  0
   -2.5246    3.0946   -0.5234 N   0  0  0  0  0  0  0  0  0  0  0  0
   -2.6200    4.5069   -0.5165 C   0  0  0  0  0  0  0  0  0  0  0  0
   -3.7821    5.2231   -0.9298 N   0  0  0  0  0  0  0  0  0  0  0  0
   -1.6528    5.2079   -0.1337 O   0  0  0  0  0  0  0  0  0  0  0  0
   -3.6754    2.3453   -0.9808 C   0  0  0  0  0  0  0  0  0  0  0  0
   -3.3674    0.8911   -1.2073 C   0  0  0  0  0  0  0  0  0  0  0  0
    2.0827   -0.6510    1.2195 C   0  0  0  0  0  0  0  0  0  0  0  0
    1.3006   -1.7697    1.3121 F   0  0  0  0  0  0  0  0  0  0  0  0
    3.3637   -0.7770    0.7543 C   0  0  0  0  0  0  0  0  0  0  0  0
    6.5686    1.0847    0.5462 C   0  0  0  0  0  0  0  0  0  0  0  0
    7.6786    0.6887   -0.1480 N   0  0  0  0  0  0  0  0  0  0  0  0
    8.8080   -1.8437   -1.2920 H   0  0  0  0  0  0  0  0  0  0  0  0
    7.7118   -1.5214   -2.6529 H   0  0  0  0  0  0  0  0  0  0  0  0
    9.0001   -0.2819   -2.2263 H   0  0  0  0  0  0  0  0  0  0  0  0
    5.4855   -1.3704   -1.2473 H   0  0  0  0  0  0  0  0  0  0  0  0
    4.2911    2.4844    0.9533 H   0  0  0  0  0  0  0  0  0  0  0  0
    2.0043    2.6817    1.7791 H   0  0  0  0  0  0  0  0  0  0  0  0
    0.1569    1.0772    3.0300 H   0  0  0  0  0  0  0  0  0  0  0  0
   -4.3852   -1.7862    0.3444 H   0  0  0  0  0  0  0  0  0  0  0  0
   -3.3925   -1.6839   -2.0959 H   0  0  0  0  0  0  0  0  0  0  0  0
   -2.2789   -3.0407   -1.5042 H   0  0  0  0  0  0  0  0  0  0  0  0
   -4.5424   -3.8057   -2.5478 H   0  0  0  0  0  0  0  0  0  0  0  0
   -5.2490   -3.0458   -1.0863 H   0  0  0  0  0  0  0  0  0  0  0  0
   -4.9040   -4.1764    1.0328 H   0  0  0  0  0  0  0  0  0  0  0  0
   -3.5149   -5.2837    1.1073 H   0  0  0  0  0  0  0  0  0  0  0  0
   -3.0276   -3.0445    1.9959 H   0  0  0  0  0  0  0  0  0  0  0  0
   -1.9470   -3.5629    0.5858 H   0  0  0  0  0  0  0  0  0  0  0  0
   -0.4952    2.5494   -0.8650 H   0  0  0  0  0  0  0  0  0  0  0  0
   -0.9262    3.0604    0.7889 H   0  0  0  0  0  0  0  0  0  0  0  0
   -4.5230    5.3684   -0.2106 H   0  0  0  0  0  0  0  0  0  0  0  0
   -3.9283    5.5993   -1.8825 H   0  0  0  0  0  0  0  0  0  0  0  0
   -4.0121    2.7834   -1.9419 H   0  0  0  0  0  0  0  0  0  0  0  0
   -4.5045    2.4773   -0.2545 H   0  0  0  0  0  0  0  0  0  0  0  0
   -2.9312    0.7597   -2.2251 H   0  0  0  0  0  0  0  0  0  0  0  0
   -4.3552    0.3483   -1.2345 H   0  0  0  0  0  0  0  0  0  0  0  0
    3.7695   -1.7384    0.4592 H   0  0  0  0  0  0  0  0  0  0  0  0
    6.5600    1.9112    1.2672 H   0  0  0  0  0  0  0  0  0  0  0  0
  1  2  1  0
  2  3  1  0
  3  4  2  0
  4  5  1  0
  5  6  2  0
  6  7  1  0
  7  8  2  0
  8  9  1  0
  9 10  1  0
 10 11  2  0
 11 12  1  0
 12 13  1  0
 13 14  1  0
 14 15  1  0
 15 16  1  0
 16 17  1  0
 17 18  1  0
 12 19  1  0
 19 20  2  0
 20 21  1  0
 21 22  1  0
 22 23  1  0
 23 24  1  0
 23 25  2  0
 22 26  1  0
 26 27  1  0
  8 28  1  0
 28 29  1  0
 28 30  2  0
  4 31  1  0
 31 32  2  0
 32  2  1  0
 30  5  1  0
 20 10  1  0
 18 13  1  0
 27 19  1  0
  1 33  1  0
  1 34  1  0
  1 35  1  0
  3 36  1  0
  6 37  1  0
  7 38  1  0
  9 39  1  0
 13 40  1  0
 14 41  1  0
 14 42  1  0
 15 43  1  0
 15 44  1  0
 17 45  1  0
 17 46  1  0
 18 47  1  0
 18 48  1  0
 21 49  1  0
 21 50  1  0
 24 51  1  0
 24 52  1  0
 26 53  1  0
 26 54  1  0
 27 55  1  0
 27 56  1  0
 30 57  1  0
 31 58  1  0
M  END
$$$$
