
     RDKit          3D

 77 79  0  0  0  0  0  0  0  0999 V2000
   -5.3130    1.7044   -1.1111 C   0  0  0  0  0  0  0  0  0  0  0  0
   -4.4257    2.3773   -0.2245 N   0  0  0  0  0  0  0  0  0  0  0  0
   -3.0616    2.0433   -0.4120 C   0  0  0  0  0  0  0  0  0  0  0  0
   -2.6188    0.6772   -0.0247 C   0  0  2  0  0  0  0  0  0  0  0  0
   -2.7937    0.3156    1.3920 C   0  0  0  0  0  0  0  0  0  0  0  0
   -4.1497    0.2790    1.9657 C   0  0  1  0  0  0  0  0  0  0  0  0
   -5.0607   -0.7523    1.3132 C   0  0  0  0  0  0  0  0  0  0  0  0
   -6.3965   -0.6206    1.9949 C   0  0  0  0  0  0  0  0  0  0  0  0
   -6.3904    0.4333    3.0762 C   0  0  0  0  0  0  0  0  0  0  0  0
   -5.3578    0.3364    3.9717 O   0  0  0  0  0  0  0  0  0  0  0  0
   -4.1401   -0.0681    3.4385 C   0  0  0  0  0  0  0  0  0  0  0  0
   -1.2374    0.4987   -0.4881 N   0  0  0  0  0  0  0  0  0  0  0  0
   -0.9285   -0.2145   -1.6670 C   0  0  0  0  0  0  0  0  0  0  0  0
   -1.8954   -0.6979   -2.3374 O   0  0  0  0  0  0  0  0  0  0  0  0
    0.3732   -0.4441   -2.1805 N   0  0  0  0  0  0  0  0  0  0  0  0
    0.5573   -1.1433   -3.4343 C   0  0  0  0  0  0  0  0  0  0  0  0
    1.3654   -2.3904   -3.1764 C   0  0  0  0  0  0  0  0  0  0  0  0
    2.7281   -1.9221   -2.6332 C   0  0  0  0  0  0  0  0  0  0  0  0
    2.4926   -1.2087   -1.3022 C   0  0  1  0  0  0  0  0  0  0  0  0
    3.8105   -0.8367   -0.7251 C   0  0  1  0  0  0  0  0  0  0  0  0
    3.6921   -0.2019    0.4785 O   0  0  0  0  0  0  0  0  0  0  0  0
    4.4668    0.8834    0.7148 C   0  0  0  0  0  0  0  0  0  0  0  0
    4.3503    2.0688   -0.1888 C   0  0  0  0  0  0  0  0  0  0  0  0
    3.0341    2.6373   -0.2018 N   0  0  0  0  0  0  0  0  0  0  0  0
    2.3847    3.1416    0.9376 C   0  0  0  0  0  0  0  0  0  0  0  0
    2.9455    3.1197    2.0521 O   0  0  0  0  0  0  0  0  0  0  0  0
    1.1053    3.6878    0.9048 O   0  0  0  0  0  0  0  0  0  0  0  0
    0.4602    4.1933    2.0620 C   0  0  0  0  0  0  0  0  0  0  0  0
    4.6154   -2.1407   -0.5169 C   0  0  0  0  0  0  0  0  0  0  0  0
    4.3481   -2.9503    0.5400 C   0  0  0  0  0  0  0  0  0  0  0  0
    5.0474   -4.1448    0.7481 C   0  0  0  0  0  0  0  0  0  0  0  0
    6.0266   -4.4846   -0.1555 C   0  0  0  0  0  0  0  0  0  0  0  0
    6.2982   -3.6715   -1.2205 C   0  0  0  0  0  0  0  0  0  0  0  0
    7.5453   -4.1416   -2.3491 Cl  0  0  0  0  0  0  0  0  0  0  0  0
    5.5928   -2.4911   -1.4080 C   0  0  0  0  0  0  0  0  0  0  0  0
    1.5978   -0.0262   -1.4931 C   0  0  0  0  0  0  0  0  0  0  0  0
   -6.1286    1.2562   -0.5000 H   0  0  0  0  0  0  0  0  0  0  0  0
   -5.7468    2.3926   -1.8812 H   0  0  0  0  0  0  0  0  0  0  0  0
   -4.8006    0.8691   -1.6019 H   0  0  0  0  0  0  0  0  0  0  0  0
   -4.5912    3.3992   -0.2368 H   0  0  0  0  0  0  0  0  0  0  0  0
   -2.3673    2.8368    0.0136 H   0  0  0  0  0  0  0  0  0  0  0  0
   -2.8500    2.1434   -1.5197 H   0  0  0  0  0  0  0  0  0  0  0  0
   -3.2392   -0.0242   -0.6606 H   0  0  0  0  0  0  0  0  0  0  0  0
   -2.1760    1.0559    1.9937 H   0  0  0  0  0  0  0  0  0  0  0  0
   -2.2913   -0.6642    1.6452 H   0  0  0  0  0  0  0  0  0  0  0  0
   -4.6861    1.2599    1.9076 H   0  0  0  0  0  0  0  0  0  0  0  0
   -4.6032   -1.7465    1.6203 H   0  0  0  0  0  0  0  0  0  0  0  0
   -5.0704   -0.7580    0.2372 H   0  0  0  0  0  0  0  0  0  0  0  0
   -7.1697   -0.3439    1.2557 H   0  0  0  0  0  0  0  0  0  0  0  0
   -6.6870   -1.5953    2.4486 H   0  0  0  0  0  0  0  0  0  0  0  0
   -7.3302    0.2328    3.6757 H   0  0  0  0  0  0  0  0  0  0  0  0
   -6.5633    1.4365    2.6419 H   0  0  0  0  0  0  0  0  0  0  0  0
   -3.2816    0.3657    3.9818 H   0  0  0  0  0  0  0  0  0  0  0  0
   -4.0693   -1.1639    3.5839 H   0  0  0  0  0  0  0  0  0  0  0  0
   -0.4357    0.9055    0.0515 H   0  0  0  0  0  0  0  0  0  0  0  0
   -0.4296   -1.3635   -3.8836 H   0  0  0  0  0  0  0  0  0  0  0  0
    1.0897   -0.4867   -4.1540 H   0  0  0  0  0  0  0  0  0  0  0  0
    1.5553   -2.9551   -4.0989 H   0  0  0  0  0  0  0  0  0  0  0  0
    0.8679   -3.0175   -2.4117 H   0  0  0  0  0  0  0  0  0  0  0  0
    3.3087   -2.8222   -2.4096 H   0  0  0  0  0  0  0  0  0  0  0  0
    3.1551   -1.2572   -3.3920 H   0  0  0  0  0  0  0  0  0  0  0  0
    1.9401   -1.9527   -0.6684 H   0  0  0  0  0  0  0  0  0  0  0  0
    4.4495   -0.2666   -1.4320 H   0  0  0  0  0  0  0  0  0  0  0  0
    4.2358    1.2033    1.7829 H   0  0  0  0  0  0  0  0  0  0  0  0
    5.5390    0.5375    0.7839 H   0  0  0  0  0  0  0  0  0  0  0  0
    4.6753    1.8379   -1.2334 H   0  0  0  0  0  0  0  0  0  0  0  0
    5.0227    2.8576    0.2490 H   0  0  0  0  0  0  0  0  0  0  0  0
    2.4919    2.7051   -1.1016 H   0  0  0  0  0  0  0  0  0  0  0  0
    1.0901    4.8868    2.6468 H   0  0  0  0  0  0  0  0  0  0  0  0
    0.1702    3.3216    2.7021 H   0  0  0  0  0  0  0  0  0  0  0  0
   -0.4794    4.7221    1.7742 H   0  0  0  0  0  0  0  0  0  0  0  0
    3.5754   -2.6814    1.2528 H   0  0  0  0  0  0  0  0  0  0  0  0
    4.8448   -4.7935    1.5820 H   0  0  0  0  0  0  0  0  0  0  0  0
    6.5763   -5.4151    0.0008 H   0  0  0  0  0  0  0  0  0  0  0  0
    5.8229   -1.8711   -2.2411 H   0  0  0  0  0  0  0  0  0  0  0  0
    2.0986    0.6563   -2.2070 H   0  0  0  0  0  0  0  0  0  0  0  0
    1.4183    0.4515   -0.5378 H   0  0  0  0  0  0  0  0  0  0  0  0
  1  2  1  0
  2  3  1  0
  3  4  1  0
  4  5  1  0
  5  6  1  0
  6  7  1  0
  7  8  1  0
  8  9  1  0
  9 10  1  0
 10 11  1  0
  4 12  1  0
 12 13  1  0
 13 14  2  0
 13 15  1  0
 15 16  1  0
 16 17  1  0
 17 18  1  0
 18 19  1  0
 19 20  1  0
 20 21  1  0
 21 22  1  0
 22 23  1  0
 23 24  1  0
 24 25  1  0
 25 26  2  0
 25 27  1  0
 27 28  1  0
 20 29  1  0
 29 30  2  0
 30 31  1  0
 31 32  2  0
 32 33  1  0
 33 34  1  0
 33 35  2  0
 19 36  1  0
 11  6  1  0
 36 15  1  0
 35 29  1  0
  1 37  1  0
  1 38  1  0
  1 39  1  0
  2 40  1  0
  3 41  1  0
  3 42  1  0
  4 43  1  6
  5 44  1  0
  5 45  1  0
  6 46  1  1
  7 47  1  0
  7 48  1  0
  8 49  1  0
  8 50  1  0
  9 51  1  0
  9 52  1  0
 11 53  1  0
 11 54  1  0
 12 55  1  0
 16 56  1  0
 16 57  1  0
 17 58  1  0
 17 59  1  0
 18 60  1  0
 18 61  1  0
 19 62  1  1
 20 63  1  6
 22 64  1  0
 22 65  1  0
 23 66  1  0
 23 67  1  0
 24 68  1  0
 28 69  1  0
 28 70  1  0
 28 71  1  0
 30 72  1  0
 31 73  1  0
 32 74  1  0
 35 75  1  0
 36 76  1  0
 36 77  1  0
M  END
$$$$
