
     RDKit          3D

106107  0  0  0  0  0  0  0  0999 V2000
   -2.7269   -8.7096   -3.3924 O   0  0  0  0  0  0  0  0  0  0  0  0
   -1.9624   -7.4733   -4.5357 Al  0  0  0  0  0  3  0  0  0  0  0  0
   -2.9365   -7.0676   -6.0546 O   0  0  0  0  0  0  0  0  0  0  0  0
   -0.9723   -6.1176   -3.7497 O   0  0  0  0  0  0  0  0  0  0  0  0
   -1.6055   -4.6432   -4.2395 S   0  0  0  0  0  0  0  0  0  0  0  0
   -1.1621   -4.3992   -5.6563 O   0  0  0  0  0  0  0  0  0  0  0  0
   -3.1251   -4.7101   -4.2363 O   0  0  0  0  0  0  0  0  0  0  0  0
   -1.1589   -3.3782   -3.2327 O   0  0  0  0  0  0  0  0  0  0  0  0
   -0.0040   -2.7927   -3.7481 C   0  0  0  0  0  0  0  0  0  0  0  0
    0.4422   -1.6105   -2.9660 C   0  0  1  0  0  0  0  0  0  0  0  0
    0.7267   -1.9368   -1.6295 O   0  0  0  0  0  0  0  0  0  0  0  0
    0.8759   -0.8010   -0.8498 C   0  0  1  0  0  0  0  0  0  0  0  0
    1.2515   -1.2122    0.4268 O   0  0  0  0  0  0  0  0  0  0  0  0
    0.2604   -0.9361    1.3581 C   0  0  2  0  0  0  0  0  0  0  0  0
   -1.0081   -1.7271    1.1530 C   0  0  0  0  0  0  0  0  0  0  0  0
   -1.9950   -1.4273    2.1081 O   0  0  0  0  0  0  0  0  0  0  0  0
   -3.3455   -2.4046    1.7715 S   0  0  0  0  0  0  0  0  0  0  0  0
   -3.3736   -2.7103    0.3161 O   0  0  0  0  0  0  0  0  0  0  0  0
   -3.2390   -3.6737    2.5671 O   0  0  0  0  0  0  0  0  0  0  0  0
   -4.7571   -1.5902    2.1792 O   0  0  0  0  0  0  0  0  0  0  0  0
   -6.1307   -2.8242    2.2063 Al  0  0  0  0  0  3  0  0  0  0  0  0
   -7.6872   -2.5977    1.2780 O   0  0  0  0  0  0  0  0  0  0  0  0
   -5.7209   -4.5098    2.8539 O   0  0  0  0  0  0  0  0  0  0  0  0
    0.0701    0.4388    1.3341 O   0  0  0  0  0  0  0  0  0  0  0  0
   -0.3202    0.8202    2.6068 C   0  0  2  0  0  0  0  0  0  0  0  0
    0.1712    2.1065    2.8246 O   0  0  0  0  0  0  0  0  0  0  0  0
   -1.0783    3.2201    2.9596 S   0  0  0  0  0  0  0  0  0  0  0  0
   -2.0822    2.7662    3.9711 O   0  0  0  0  0  0  0  0  0  0  0  0
   -1.7555    3.4072    1.6306 O   0  0  0  0  0  0  0  0  0  0  0  0
   -0.4280    4.6924    3.4146 O   0  0  0  0  0  0  0  0  0  0  0  0
   -1.3716    6.0626    2.5944 Al  0  0  0  0  0  3  0  0  0  0  0  0
   -0.6576    6.6691    1.0009 O   0  0  0  0  0  0  0  0  0  0  0  0
   -3.2164    5.9544    2.6875 O   0  0  0  0  0  0  0  0  0  0  0  0
    0.2548   -0.1546    3.5783 C   0  0  1  0  0  0  0  0  0  0  0  0
   -0.7427   -0.7913    4.3366 O   0  0  0  0  0  0  0  0  0  0  0  0
   -0.3898   -0.5343    5.9623 S   0  0  0  0  0  0  0  0  0  0  0  0
    1.0928   -0.5761    6.2105 O   0  0  0  0  0  0  0  0  0  0  0  0
   -1.0588   -1.5976    6.7534 O   0  0  0  0  0  0  0  0  0  0  0  0
   -0.9372    1.0088    6.3755 O   0  0  0  0  0  0  0  0  0  0  0  0
   -2.4205    0.8896    7.4429 Al  0  0  0  0  0  3  0  0  0  0  0  0
   -3.0649    2.4005    8.2413 O   0  0  0  0  0  0  0  0  0  0  0  0
   -3.5160   -0.5677    7.2298 O   0  0  0  0  0  0  0  0  0  0  0  0
    0.8793   -1.2344    2.7151 C   0  0  2  0  0  0  0  0  0  0  0  0
    2.2506   -1.1424    2.6632 O   0  0  0  0  0  0  0  0  0  0  0  0
    2.9761   -2.5960    3.0601 S   0  0  0  0  0  0  0  0  0  0  0  0
    3.9794   -2.9980    2.0165 O   0  0  0  0  0  0  0  0  0  0  0  0
    1.9965   -3.6884    3.3275 O   0  0  0  0  0  0  0  0  0  0  0  0
    3.8150   -2.3248    4.5134 O   0  0  0  0  0  0  0  0  0  0  0  0
    4.5663   -0.6331    4.4609 Al  0  0  0  0  0  3  0  0  0  0  0  0
    6.4121   -0.5289    4.3735 O   0  0  0  0  0  0  0  0  0  0  0  0
    3.6716    0.8091    5.1817 O   0  0  0  0  0  0  0  0  0  0  0  0
    1.9300    0.1220   -1.3582 C   0  0  2  0  0  0  0  0  0  0  0  0
    2.2132    1.1862   -0.5943 O   0  0  0  0  0  0  0  0  0  0  0  0
    3.7467    1.3634   -0.0356 S   0  0  0  0  0  0  0  0  0  0  0  0
    3.7200    1.3030    1.4671 O   0  0  0  0  0  0  0  0  0  0  0  0
    4.6931    0.2679   -0.4797 O   0  0  0  0  0  0  0  0  0  0  0  0
    4.4466    2.8365   -0.4153 O   0  0  0  0  0  0  0  0  0  0  0  0
    3.7091    4.1779    0.6246 Al  0  0  0  0  0  3  0  0  0  0  0  0
    4.6656    4.7826    2.0676 O   0  0  0  0  0  0  0  0  0  0  0  0
    1.9168    4.5542    0.5408 O   0  0  0  0  0  0  0  0  0  0  0  0
    1.6425    0.4542   -2.8261 C   0  0  1  0  0  0  0  0  0  0  0  0
    2.5831    1.2884   -3.3738 O   0  0  0  0  0  0  0  0  0  0  0  0
    1.8180    2.6251   -4.0923 S   0  0  0  0  0  0  0  0  0  0  0  0
    2.6248    3.8306   -3.6783 O   0  0  0  0  0  0  0  0  0  0  0  0
    1.8948    2.5274   -5.5873 O   0  0  0  0  0  0  0  0  0  0  0  0
    0.2688    2.8321   -3.5377 O   0  0  0  0  0  0  0  0  0  0  0  0
   -0.8565    3.5628   -4.7568 Al  0  0  0  0  0  3  0  0  0  0  0  0
   -0.1983    4.3209   -6.2766 O   0  0  0  0  0  0  0  0  0  0  0  0
   -2.6442    3.1482   -4.6693 O   0  0  0  0  0  0  0  0  0  0  0  0
    1.6570   -0.9336   -3.4855 C   0  0  2  0  0  0  0  0  0  0  0  0
    1.8293   -0.8839   -4.8319 O   0  0  0  0  0  0  0  0  0  0  0  0
    3.3081   -1.5980   -5.2730 S   0  0  0  0  0  0  0  0  0  0  0  0
    3.8940   -0.8823   -6.4500 O   0  0  0  0  0  0  0  0  0  0  0  0
    3.1351   -3.0364   -5.6668 O   0  0  0  0  0  0  0  0  0  0  0  0
    4.3689   -1.5709   -3.9551 O   0  0  0  0  0  0  0  0  0  0  0  0
    5.1130   -3.2188   -3.6444 Al  0  0  0  0  0  3  0  0  0  0  0  0
    5.5360   -3.6849   -1.9022 O   0  0  0  0  0  0  0  0  0  0  0  0
    4.8525   -4.6391   -4.8006 O   0  0  0  0  0  0  0  0  0  0  0  0
   -3.4705   -8.2508   -2.8935 H   0  0  0  0  0  0  0  0  0  0  0  0
   -3.5581   -6.3168   -5.9022 H   0  0  0  0  0  0  0  0  0  0  0  0
   -0.3048   -2.4222   -4.7670 H   0  0  0  0  0  0  0  0  0  0  0  0
    0.7771   -3.5583   -3.8088 H   0  0  0  0  0  0  0  0  0  0  0  0
   -0.3922   -0.8795   -2.9220 H   0  0  0  0  0  0  0  0  0  0  0  0
   -0.1293   -0.3490   -0.7852 H   0  0  0  0  0  0  0  0  0  0  0  0
   -1.4742   -1.5277    0.1701 H   0  0  0  0  0  0  0  0  0  0  0  0
   -0.7301   -2.7915    1.2855 H   0  0  0  0  0  0  0  0  0  0  0  0
   -7.7079   -1.7349    0.7987 H   0  0  0  0  0  0  0  0  0  0  0  0
   -5.2526   -4.4394    3.7200 H   0  0  0  0  0  0  0  0  0  0  0  0
   -1.4417    0.8150    2.5864 H   0  0  0  0  0  0  0  0  0  0  0  0
    0.1651    7.1748    1.1882 H   0  0  0  0  0  0  0  0  0  0  0  0
   -3.5921    6.7166    2.2022 H   0  0  0  0  0  0  0  0  0  0  0  0
    1.0103    0.3530    4.2016 H   0  0  0  0  0  0  0  0  0  0  0  0
   -3.6723    2.8584    7.6140 H   0  0  0  0  0  0  0  0  0  0  0  0
   -3.7743   -0.6774    6.2648 H   0  0  0  0  0  0  0  0  0  0  0  0
    0.5557   -2.2453    3.0026 H   0  0  0  0  0  0  0  0  0  0  0  0
    6.6587    0.4307    4.1954 H   0  0  0  0  0  0  0  0  0  0  0  0
    3.7708    1.5842    4.6015 H   0  0  0  0  0  0  0  0  0  0  0  0
    2.8756   -0.4820   -1.4316 H   0  0  0  0  0  0  0  0  0  0  0  0
    5.3289    4.1117    2.3660 H   0  0  0  0  0  0  0  0  0  0  0  0
    1.5142    4.6273    1.4495 H   0  0  0  0  0  0  0  0  0  0  0  0
    0.6249    0.8414   -2.9833 H   0  0  0  0  0  0  0  0  0  0  0  0
   -0.9460    4.7699   -6.7744 H   0  0  0  0  0  0  0  0  0  0  0  0
   -3.2191    3.9323   -4.8480 H   0  0  0  0  0  0  0  0  0  0  0  0
    2.5591   -1.4665   -3.0626 H   0  0  0  0  0  0  0  0  0  0  0  0
    4.7561   -3.4680   -1.3368 H   0  0  0  0  0  0  0  0  0  0  0  0
    4.0896   -5.1670   -4.4486 H   0  0  0  0  0  0  0  0  0  0  0  0
  1  2  1  0
  2  3  1  0
  2  4  1  0
  4  5  1  0
  5  6  2  0
  5  7  2  0
  5  8  1  0
  8  9  1  0
  9 10  1  0
 10 11  1  0
 11 12  1  0
 12 13  1  0
 14 13  1  6
 14 15  1  0
 15 16  1  0
 16 17  1  0
 17 18  2  0
 17 19  2  0
 17 20  1  0
 20 21  1  0
 21 22  1  0
 21 23  1  0
 14 24  1  0
 24 25  1  0
 25 26  1  0
 26 27  1  0
 27 28  2  0
 27 29  2  0
 27 30  1  0
 30 31  1  0
 31 32  1  0
 31 33  1  0
 25 34  1  0
 34 35  1  0
 35 36  1  0
 36 37  2  0
 36 38  2  0
 36 39  1  0
 39 40  1  0
 40 41  1  0
 40 42  1  0
 34 43  1  0
 43 44  1  0
 44 45  1  0
 45 46  2  0
 45 47  2  0
 45 48  1  0
 48 49  1  0
 49 50  1  0
 49 51  1  0
 12 52  1  0
 52 53  1  0
 53 54  1  0
 54 55  2  0
 54 56  2  0
 54 57  1  0
 57 58  1  0
 58 59  1  0
 58 60  1  0
 52 61  1  0
 61 62  1  0
 62 63  1  0
 63 64  2  0
 63 65  2  0
 63 66  1  0
 66 67  1  0
 67 68  1  0
 67 69  1  0
 61 70  1  0
 70 71  1  0
 71 72  1  0
 72 73  2  0
 72 74  2  0
 72 75  1  0
 75 76  1  0
 76 77  1  0
 76 78  1  0
 70 10  1  0
 43 14  1  0
  1 79  1  0
  3 80  1  0
  9 81  1  0
  9 82  1  0
 10 83  1  1
 12 84  1  1
 15 85  1  0
 15 86  1  0
 22 87  1  0
 23 88  1  0
 25 89  1  6
 32 90  1  0
 33 91  1  0
 34 92  1  1
 41 93  1  0
 42 94  1  0
 43 95  1  1
 50 96  1  0
 51 97  1  0
 52 98  1  6
 59 99  1  0
 60100  1  0
 61101  1  1
 68102  1  0
 69103  1  0
 70104  1  1
 77105  1  0
 78106  1  0
M  END
$$$$
