
     RDKit          3D

 24 23  0  0  0  0  0  0  0  0999 V2000
    3.6812   -0.6381    0.1238 N   0  0  0  0  0  0  0  0  0  0  0  0
    2.5647    0.2137   -0.2208 C   0  0  0  0  0  0  0  0  0  0  0  0
    1.2159   -0.4767    0.0161 C   0  0  0  0  0  0  0  0  0  0  0  0
    0.1501    0.5031   -0.3763 C   0  0  0  0  0  0  0  0  0  0  0  0
   -1.2432   -0.0238   -0.2024 C   0  0  0  0  0  0  0  0  0  0  0  0
   -1.4600   -1.2058   -1.0060 N   0  0  0  0  0  0  0  0  0  0  0  0
   -1.5855   -0.3652    1.2193 C   0  0  0  0  0  0  0  0  0  0  0  0
   -1.5112    0.6714    2.0990 F   0  0  0  0  0  0  0  0  0  0  0  0
   -2.9339   -0.7520    1.2087 F   0  0  0  0  0  0  0  0  0  0  0  0
   -2.1934    1.0291   -0.6467 C   0  0  0  0  0  0  0  0  0  0  0  0
   -2.1057    2.2253    0.0319 O   0  0  0  0  0  0  0  0  0  0  0  0
   -3.0879    1.0340   -1.5509 O   0  0  0  0  0  0  0  0  0  0  0  0
    4.0339   -0.4518    1.0880 H   0  0  0  0  0  0  0  0  0  0  0  0
    3.5331   -1.6385   -0.0976 H   0  0  0  0  0  0  0  0  0  0  0  0
    2.6269    0.5489   -1.2732 H   0  0  0  0  0  0  0  0  0  0  0  0
    2.6211    1.0990    0.4490 H   0  0  0  0  0  0  0  0  0  0  0  0
    1.1973   -0.7330    1.0890 H   0  0  0  0  0  0  0  0  0  0  0  0
    1.1490   -1.4136   -0.5364 H   0  0  0  0  0  0  0  0  0  0  0  0
    0.2860    0.7060   -1.4596 H   0  0  0  0  0  0  0  0  0  0  0  0
    0.2767    1.4528    0.1573 H   0  0  0  0  0  0  0  0  0  0  0  0
   -0.9157   -2.0053   -0.6187 H   0  0  0  0  0  0  0  0  0  0  0  0
   -2.4602   -1.4643   -1.0205 H   0  0  0  0  0  0  0  0  0  0  0  0
   -1.0359   -1.2787    1.5105 H   0  0  0  0  0  0  0  0  0  0  0  0
   -2.8034    2.9634    0.0166 H   0  0  0  0  0  0  0  0  0  0  0  0
  1  2  1  0
  2  3  1  0
  3  4  1  0
  4  5  1  0
  5  6  1  0
  5  7  1  0
  7  8  1  0
  7  9  1  0
  5 10  1  0
 10 11  1  0
 10 12  2  0
  1 13  1  0
  1 14  1  0
  2 15  1  0
  2 16  1  0
  3 17  1  0
  3 18  1  0
  4 19  1  0
  4 20  1  0
  6 21  1  0
  6 22  1  0
  7 23  1  0
 11 24  1  0
M  END
$$$$
