
     RDKit          3D

 78 83  0  0  0  0  0  0  0  0999 V2000
    9.2218   -1.2989   -2.8004 C   0  0  0  0  0  0  0  0  0  0  0  0
   10.0079   -1.2265   -1.6379 O   0  0  0  0  0  0  0  0  0  0  0  0
    9.4894   -1.0908   -0.3659 C   0  0  0  0  0  0  0  0  0  0  0  0
    8.1079   -1.0166   -0.1674 C   0  0  0  0  0  0  0  0  0  0  0  0
    7.5631   -0.8809    1.0936 C   0  0  0  0  0  0  0  0  0  0  0  0
    6.1235   -0.8021    1.3103 C   0  0  0  0  0  0  0  0  0  0  0  0
    5.5233   -1.2784    2.4534 C   0  0  0  0  0  0  0  0  0  0  0  0
    4.1637   -1.2083    2.6691 C   0  0  0  0  0  0  0  0  0  0  0  0
    3.3446   -0.6451    1.7230 C   0  0  0  0  0  0  0  0  0  0  0  0
    3.9135   -0.1570    0.5641 C   0  0  0  0  0  0  0  0  0  0  0  0
    5.2912   -0.2384    0.3667 C   0  0  0  0  0  0  0  0  0  0  0  0
    3.2537    0.4686   -0.5522 N   0  0  0  0  0  0  0  0  0  0  0  0
    1.9315    0.9907   -0.6299 C   0  0  0  0  0  0  0  0  0  0  0  0
    1.7200    1.7900   -1.7321 C   0  0  0  0  0  0  0  0  0  0  0  0
    0.5124    2.3911   -1.9912 C   0  0  0  0  0  0  0  0  0  0  0  0
   -0.5910    2.2200   -1.1311 C   0  0  0  0  0  0  0  0  0  0  0  0
   -1.8735    2.8876   -1.4566 C   0  0  0  0  0  0  0  0  0  0  0  0
   -2.0901    4.1001   -0.5322 C   0  0  0  0  0  0  0  0  0  0  0  0
   -1.7871    3.4783   -2.8493 C   0  0  0  0  0  0  0  0  0  0  0  0
   -3.0720    2.0445   -1.2940 C   0  0  0  0  0  0  0  0  0  0  0  0
   -3.6749    1.5651   -2.3284 O   0  0  0  0  0  0  0  0  0  0  0  0
   -3.6651    1.6898   -0.0564 N   0  0  0  0  0  0  0  0  0  0  0  0
   -4.8206    0.8655    0.0356 C   0  0  0  0  0  0  0  0  0  0  0  0
   -6.0425    1.4879    0.0177 C   0  0  0  0  0  0  0  0  0  0  0  0
   -7.1868    0.7098    0.1059 C   0  0  0  0  0  0  0  0  0  0  0  0
   -7.1218   -0.6658    0.2104 C   0  0  0  0  0  0  0  0  0  0  0  0
   -8.2773   -1.4774    0.3010 N   0  0  0  0  0  0  0  0  0  0  0  0
   -8.1420   -2.9009    0.4206 C   0  0  0  0  0  0  0  0  0  0  0  0
   -9.4676   -3.6145    0.2935 C   0  0  0  0  0  0  0  0  0  0  0  0
  -10.4695   -2.9172    0.9676 O   0  0  0  0  0  0  0  0  0  0  0  0
  -10.7274   -1.7817    0.2187 C   0  0  0  0  0  0  0  0  0  0  0  0
   -9.5625   -0.8522    0.2705 C   0  0  0  0  0  0  0  0  0  0  0  0
   -5.8480   -1.2444    0.2238 C   0  0  0  0  0  0  0  0  0  0  0  0
   -4.6949   -0.4943    0.1375 C   0  0  0  0  0  0  0  0  0  0  0  0
   -0.3674    1.4214   -0.0368 C   0  0  0  0  0  0  0  0  0  0  0  0
    0.8658    0.8110    0.2226 C   0  0  0  0  0  0  0  0  0  0  0  0
    0.8807    0.0318    1.4011 N   0  0  0  0  0  0  0  0  0  0  0  0
    1.9327   -0.6397    2.0870 C   0  0  0  0  0  0  0  0  0  0  0  0
    1.6665   -1.3089    3.1166 O   0  0  0  0  0  0  0  0  0  0  0  0
    8.4276   -0.8203    2.1595 C   0  0  0  0  0  0  0  0  0  0  0  0
    9.7869   -0.8923    1.9751 C   0  0  0  0  0  0  0  0  0  0  0  0
   10.3469   -1.0289    0.7111 C   0  0  0  0  0  0  0  0  0  0  0  0
   11.7582   -1.1012    0.5490 N   0  0  0  0  0  0  0  0  0  0  0  0
    9.7834   -0.9819   -3.7092 H   0  0  0  0  0  0  0  0  0  0  0  0
    8.9132   -2.3576   -2.9329 H   0  0  0  0  0  0  0  0  0  0  0  0
    8.3341   -0.6280   -2.7542 H   0  0  0  0  0  0  0  0  0  0  0  0
    7.4091   -1.0623   -0.9906 H   0  0  0  0  0  0  0  0  0  0  0  0
    6.1774   -1.7203    3.1926 H   0  0  0  0  0  0  0  0  0  0  0  0
    3.6981   -1.5842    3.5692 H   0  0  0  0  0  0  0  0  0  0  0  0
    5.7083    0.1530   -0.5523 H   0  0  0  0  0  0  0  0  0  0  0  0
    3.8295    0.5454   -1.4158 H   0  0  0  0  0  0  0  0  0  0  0  0
    2.5570    1.9411   -2.4171 H   0  0  0  0  0  0  0  0  0  0  0  0
    0.3695    3.0123   -2.8588 H   0  0  0  0  0  0  0  0  0  0  0  0
   -1.1111    4.6578   -0.5805 H   0  0  0  0  0  0  0  0  0  0  0  0
   -2.1726    3.7577    0.5249 H   0  0  0  0  0  0  0  0  0  0  0  0
   -2.9328    4.6931   -0.8816 H   0  0  0  0  0  0  0  0  0  0  0  0
   -1.5137    2.6943   -3.5539 H   0  0  0  0  0  0  0  0  0  0  0  0
   -2.8230    3.8660   -3.0862 H   0  0  0  0  0  0  0  0  0  0  0  0
   -1.1505    4.3605   -2.8120 H   0  0  0  0  0  0  0  0  0  0  0  0
   -3.2678    2.0494    0.8293 H   0  0  0  0  0  0  0  0  0  0  0  0
   -6.1276    2.5562   -0.0627 H   0  0  0  0  0  0  0  0  0  0  0  0
   -8.1705    1.1892    0.0932 H   0  0  0  0  0  0  0  0  0  0  0  0
   -7.5006   -3.2998   -0.4126 H   0  0  0  0  0  0  0  0  0  0  0  0
   -7.6674   -3.1358    1.4076 H   0  0  0  0  0  0  0  0  0  0  0  0
   -9.7751   -3.7317   -0.7607 H   0  0  0  0  0  0  0  0  0  0  0  0
   -9.3954   -4.6218    0.7826 H   0  0  0  0  0  0  0  0  0  0  0  0
  -11.6467   -1.3162    0.6611 H   0  0  0  0  0  0  0  0  0  0  0  0
  -11.0086   -2.0441   -0.8421 H   0  0  0  0  0  0  0  0  0  0  0  0
   -9.5605   -0.1367   -0.5854 H   0  0  0  0  0  0  0  0  0  0  0  0
   -9.6521   -0.2305    1.1906 H   0  0  0  0  0  0  0  0  0  0  0  0
   -5.7797   -2.3268    0.3056 H   0  0  0  0  0  0  0  0  0  0  0  0
   -3.7254   -0.9866    0.1518 H   0  0  0  0  0  0  0  0  0  0  0  0
   -1.1444    1.2384    0.6610 H   0  0  0  0  0  0  0  0  0  0  0  0
   -0.0697   -0.0618    1.8442 H   0  0  0  0  0  0  0  0  0  0  0  0
    8.0004   -0.7140    3.1471 H   0  0  0  0  0  0  0  0  0  0  0  0
   10.4880   -0.8461    2.8066 H   0  0  0  0  0  0  0  0  0  0  0  0
   12.2773   -1.7867    1.1387 H   0  0  0  0  0  0  0  0  0  0  0  0
   12.2992   -0.5122   -0.1210 H   0  0  0  0  0  0  0  0  0  0  0  0
  1  2  1  0
  2  3  1  0
  3  4  2  0
  4  5  1  0
  5  6  1  0
  6  7  2  0
  7  8  1  0
  8  9  2  0
  9 10  1  0
 10 11  2  0
 10 12  1  0
 12 13  1  0
 13 14  2  0
 14 15  1  0
 15 16  2  0
 16 17  1  0
 17 18  1  0
 17 19  1  0
 17 20  1  0
 20 21  2  0
 20 22  1  0
 22 23  1  0
 23 24  2  0
 24 25  1  0
 25 26  2  0
 26 27  1  0
 27 28  1  0
 28 29  1  0
 29 30  1  0
 30 31  1  0
 31 32  1  0
 26 33  1  0
 33 34  2  0
 16 35  1  0
 35 36  2  0
 36 37  1  0
 37 38  1  0
 38 39  2  0
  5 40  2  0
 40 41  1  0
 41 42  2  0
 42 43  1  0
 42  3  1  0
 11  6  1  0
 36 13  1  0
 38  9  1  0
 34 23  1  0
 32 27  1  0
  1 44  1  0
  1 45  1  0
  1 46  1  0
  4 47  1  0
  7 48  1  0
  8 49  1  0
 11 50  1  0
 12 51  1  0
 14 52  1  0
 15 53  1  0
 18 54  1  0
 18 55  1  0
 18 56  1  0
 19 57  1  0
 19 58  1  0
 19 59  1  0
 22 60  1  0
 24 61  1  0
 25 62  1  0
 28 63  1  0
 28 64  1  0
 29 65  1  0
 29 66  1  0
 31 67  1  0
 31 68  1  0
 32 69  1  0
 32 70  1  0
 33 71  1  0
 34 72  1  0
 35 73  1  0
 37 74  1  0
 40 75  1  0
 41 76  1  0
 43 77  1  0
 43 78  1  0
M  END
$$$$
