
     RDKit          3D

 49 52  0  0  0  0  0  0  0  0999 V2000
   -1.5586    0.8298   -1.7477 C   0  0  0  0  0  0  0  0  0  0  0  0
   -1.9371   -0.0362   -0.5561 C   0  0  1  0  0  0  0  0  0  0  0  0
   -0.7296   -0.5211    0.1610 C   0  0  0  0  0  0  0  0  0  0  0  0
    0.5366   -0.1555   -0.1533 C   0  0  0  0  0  0  0  0  0  0  0  0
    1.6615   -0.6254    0.5370 C   0  0  0  0  0  0  0  0  0  0  0  0
    2.9416   -0.1749    0.1206 N   0  0  0  0  0  0  0  0  0  0  0  0
    4.1790   -0.5347    0.6881 C   0  0  0  0  0  0  0  0  0  0  0  0
    4.2255   -1.3189    1.6493 O   0  0  0  0  0  0  0  0  0  0  0  0
    5.4709   -0.0213    0.1962 C   0  0  0  0  0  0  0  0  0  0  0  0
    6.6551   -0.4145    0.7986 C   0  0  0  0  0  0  0  0  0  0  0  0
    7.8884    0.0321    0.3822 C   0  0  0  0  0  0  0  0  0  0  0  0
    7.9807    0.9094   -0.6780 C   0  0  0  0  0  0  0  0  0  0  0  0
    9.5593    1.4901   -1.2221 Cl  0  0  0  0  0  0  0  0  0  0  0  0
    6.8242    1.3206   -1.2995 C   0  0  0  0  0  0  0  0  0  0  0  0
    5.5810    0.8501   -0.8549 C   0  0  0  0  0  0  0  0  0  0  0  0
    1.4312   -1.4940    1.5726 C   0  0  0  0  0  0  0  0  0  0  0  0
    0.1460   -1.8906    1.9228 C   0  0  0  0  0  0  0  0  0  0  0  0
   -0.9294   -1.4039    1.2172 C   0  0  0  0  0  0  0  0  0  0  0  0
   -2.1619   -1.8186    1.5949 F   0  0  0  0  0  0  0  0  0  0  0  0
   -2.8084    0.7856    0.3372 C   0  0  0  0  0  0  0  0  0  0  0  0
   -4.2609    0.5038    0.2371 C   0  0  0  0  0  0  0  0  0  0  0  0
   -5.0216    1.0437    1.4537 C   0  0  0  0  0  0  0  0  0  0  0  0
   -6.1621    1.3409    0.4863 C   0  0  0  0  0  0  0  0  0  0  0  0
   -5.0822    1.4652   -0.5966 C   0  0  0  0  0  0  0  0  0  0  0  0
   -4.5732   -0.8459    0.0003 O   0  0  0  0  0  0  0  0  0  0  0  0
   -3.7834   -1.5681   -0.8480 C   0  0  0  0  0  0  0  0  0  0  0  0
   -4.3027   -2.7516   -1.4618 N   0  0  0  0  0  0  0  0  0  0  0  0
   -2.5999   -1.2044   -1.0978 N   0  0  0  0  0  0  0  0  0  0  0  0
   -2.5196    1.1622   -2.2033 H   0  0  0  0  0  0  0  0  0  0  0  0
   -1.0292    0.2131   -2.5226 H   0  0  0  0  0  0  0  0  0  0  0  0
   -1.0015    1.7266   -1.4688 H   0  0  0  0  0  0  0  0  0  0  0  0
    0.6679    0.5272   -0.9726 H   0  0  0  0  0  0  0  0  0  0  0  0
    2.9491    0.4994   -0.7011 H   0  0  0  0  0  0  0  0  0  0  0  0
    6.5978   -1.1142    1.6458 H   0  0  0  0  0  0  0  0  0  0  0  0
    8.8128   -0.2774    0.8556 H   0  0  0  0  0  0  0  0  0  0  0  0
    6.8724    2.0124   -2.1379 H   0  0  0  0  0  0  0  0  0  0  0  0
    4.6897    1.1852   -1.3560 H   0  0  0  0  0  0  0  0  0  0  0  0
    2.2485   -1.9044    2.1583 H   0  0  0  0  0  0  0  0  0  0  0  0
   -0.0059   -2.5814    2.7498 H   0  0  0  0  0  0  0  0  0  0  0  0
   -2.4477    0.6591    1.3997 H   0  0  0  0  0  0  0  0  0  0  0  0
   -2.6658    1.8896    0.1432 H   0  0  0  0  0  0  0  0  0  0  0  0
   -5.2472    0.2835    2.2185 H   0  0  0  0  0  0  0  0  0  0  0  0
   -4.5818    1.9891    1.8299 H   0  0  0  0  0  0  0  0  0  0  0  0
   -6.7644    0.4263    0.3631 H   0  0  0  0  0  0  0  0  0  0  0  0
   -6.7065    2.2753    0.6917 H   0  0  0  0  0  0  0  0  0  0  0  0
   -5.3941    1.0885   -1.5826 H   0  0  0  0  0  0  0  0  0  0  0  0
   -4.6689    2.4920   -0.5800 H   0  0  0  0  0  0  0  0  0  0  0  0
   -4.4418   -2.7663   -2.4930 H   0  0  0  0  0  0  0  0  0  0  0  0
   -4.5339   -3.5777   -0.8771 H   0  0  0  0  0  0  0  0  0  0  0  0
  2  1  1  6
  2  3  1  0
  3  4  2  0
  4  5  1  0
  5  6  1  0
  6  7  1  0
  7  8  2  0
  7  9  1  0
  9 10  2  0
 10 11  1  0
 11 12  2  0
 12 13  1  0
 12 14  1  0
 14 15  2  0
  5 16  2  0
 16 17  1  0
 17 18  2  0
 18 19  1  0
  2 20  1  0
 20 21  1  0
 21 22  1  0
 22 23  1  0
 23 24  1  0
 21 25  1  0
 25 26  1  0
 26 27  1  0
 26 28  2  0
 28  2  1  0
 18  3  1  0
 24 21  1  0
 15  9  1  0
  1 29  1  0
  1 30  1  0
  1 31  1  0
  4 32  1  0
  6 33  1  0
 10 34  1  0
 11 35  1  0
 14 36  1  0
 15 37  1  0
 16 38  1  0
 17 39  1  0
 20 40  1  0
 20 41  1  0
 22 42  1  0
 22 43  1  0
 23 44  1  0
 23 45  1  0
 24 46  1  0
 24 47  1  0
 27 48  1  0
 27 49  1  0
M  END
$$$$
