
     RDKit          3D

 42 43  0  0  0  0  0  0  0  0999 V2000
    5.5146    0.3579    1.7317 C   0  0  0  0  0  0  0  0  0  0  0  0
    4.5847    1.0731    1.0027 O   0  0  0  0  0  0  0  0  0  0  0  0
    3.8504    0.2066    0.1985 C   0  0  0  0  0  0  0  0  0  0  0  0
    2.8287    0.9715   -0.6210 C   0  0  0  0  0  0  0  0  0  0  0  0
    2.1017    0.0428   -1.4276 N   0  0  0  0  0  0  0  0  0  0  0  0
    2.8272   -0.6266   -2.4878 C   0  0  0  0  0  0  0  0  0  0  0  0
    0.7257   -0.2241   -1.2317 C   0  0  0  0  0  0  0  0  0  0  0  0
    0.1145   -1.1544   -2.0013 N   0  0  0  0  0  0  0  0  0  0  0  0
   -1.1734   -1.4589   -1.8961 C   0  0  0  0  0  0  0  0  0  0  0  0
   -1.7706   -2.4286   -2.7034 N   0  0  0  0  0  0  0  0  0  0  0  0
   -1.9399   -0.7759   -0.9324 C   0  0  0  0  0  0  0  0  0  0  0  0
   -3.3729   -1.1017   -0.7577 C   0  0  0  0  0  0  0  0  0  0  0  0
   -3.5720   -2.3610   -0.0739 N   0  0  0  0  0  0  0  0  0  0  0  0
   -1.3575    0.1722   -0.1368 C   0  0  0  0  0  0  0  0  0  0  0  0
   -2.0702    0.9276    0.8869 C   0  0  0  0  0  0  0  0  0  0  0  0
   -3.1126    1.8058    0.5737 C   0  0  0  0  0  0  0  0  0  0  0  0
   -3.7278    2.5216    1.5844 C   0  0  0  0  0  0  0  0  0  0  0  0
   -3.2998    2.3562    2.8831 C   0  0  0  0  0  0  0  0  0  0  0  0
   -4.0867    3.2701    4.1508 Cl  0  0  0  0  0  0  0  0  0  0  0  0
   -2.2720    1.4968    3.2225 C   0  0  0  0  0  0  0  0  0  0  0  0
   -1.6640    0.7820    2.1920 C   0  0  0  0  0  0  0  0  0  0  0  0
   -0.3597   -0.3268    2.5378 Cl  0  0  0  0  0  0  0  0  0  0  0  0
   -0.0201    0.4095   -0.3260 N   0  0  0  0  0  0  0  0  0  0  0  0
    6.2299   -0.1871    1.0692 H   0  0  0  0  0  0  0  0  0  0  0  0
    6.1214    1.0177    2.3983 H   0  0  0  0  0  0  0  0  0  0  0  0
    4.9819   -0.3903    2.3272 H   0  0  0  0  0  0  0  0  0  0  0  0
    3.2881   -0.4981    0.8553 H   0  0  0  0  0  0  0  0  0  0  0  0
    4.5755   -0.3262   -0.4415 H   0  0  0  0  0  0  0  0  0  0  0  0
    3.3848    1.6596   -1.2868 H   0  0  0  0  0  0  0  0  0  0  0  0
    2.1934    1.6151    0.0249 H   0  0  0  0  0  0  0  0  0  0  0  0
    3.6615    0.0033   -2.8465 H   0  0  0  0  0  0  0  0  0  0  0  0
    2.1483   -0.8232   -3.3671 H   0  0  0  0  0  0  0  0  0  0  0  0
    3.1409   -1.6131   -2.0951 H   0  0  0  0  0  0  0  0  0  0  0  0
   -2.3671   -2.1612   -3.5057 H   0  0  0  0  0  0  0  0  0  0  0  0
   -1.6257   -3.4342   -2.5144 H   0  0  0  0  0  0  0  0  0  0  0  0
   -3.8695   -0.3523   -0.1133 H   0  0  0  0  0  0  0  0  0  0  0  0
   -3.8896   -1.1286   -1.7146 H   0  0  0  0  0  0  0  0  0  0  0  0
   -4.1573   -3.0379   -0.6001 H   0  0  0  0  0  0  0  0  0  0  0  0
   -2.6872   -2.7649    0.2950 H   0  0  0  0  0  0  0  0  0  0  0  0
   -3.4039    1.9100   -0.4678 H   0  0  0  0  0  0  0  0  0  0  0  0
   -4.5289    3.2036    1.3621 H   0  0  0  0  0  0  0  0  0  0  0  0
   -1.9449    1.3721    4.2525 H   0  0  0  0  0  0  0  0  0  0  0  0
  1  2  1  0
  2  3  1  0
  3  4  1  0
  4  5  1  0
  5  6  1  0
  5  7  1  0
  7  8  2  0
  8  9  1  0
  9 10  1  0
  9 11  2  0
 11 12  1  0
 12 13  1  0
 11 14  1  0
 14 15  1  0
 15 16  2  0
 16 17  1  0
 17 18  2  0
 18 19  1  0
 18 20  1  0
 20 21  2  0
 21 22  1  0
 14 23  2  0
 23  7  1  0
 21 15  1  0
  1 24  1  0
  1 25  1  0
  1 26  1  0
  3 27  1  0
  3 28  1  0
  4 29  1  0
  4 30  1  0
  6 31  1  0
  6 32  1  0
  6 33  1  0
 10 34  1  0
 10 35  1  0
 12 36  1  0
 12 37  1  0
 13 38  1  0
 13 39  1  0
 16 40  1  0
 17 41  1  0
 20 42  1  0
M  END
$$$$
