
     RDKit          3D

 55 59  0  0  0  0  0  0  0  0999 V2000
    3.5483   -1.5220    2.8492 N   0  0  0  0  0  0  0  0  0  0  0  0
    4.5054   -1.0051    1.9432 C   0  0  0  0  0  0  0  0  0  0  0  0
    5.8586   -1.2722    2.1876 C   0  0  0  0  0  0  0  0  0  0  0  0
    6.8187   -0.7767    1.3139 C   0  0  0  0  0  0  0  0  0  0  0  0
    6.4169   -0.0377    0.2338 C   0  0  0  0  0  0  0  0  0  0  0  0
    7.4558    0.4751   -0.6727 C   0  0  0  0  0  0  0  0  0  0  0  0
    7.3674    1.2167   -1.7796 C   0  0  0  0  0  0  0  0  0  0  0  0
    8.4859    1.5578   -2.4318 C   0  0  0  0  0  0  0  0  0  0  0  0
    9.6743    1.1392   -1.9478 C   0  0  0  0  0  0  0  0  0  0  0  0
    9.2032    0.1839   -0.4500 S   0  0  0  0  0  0  0  0  0  0  0  0
    5.0824    0.2039    0.0259 C   0  0  0  0  0  0  0  0  0  0  0  0
    4.0960   -0.2621    0.8571 C   0  0  0  0  0  0  0  0  0  0  0  0
    2.7147   -0.0227    0.6486 N   0  0  0  0  0  0  0  0  0  0  0  0
    1.8727   -0.8679   -0.0947 C   0  0  0  0  0  0  0  0  0  0  0  0
    2.3789   -1.8951   -0.6029 O   0  0  0  0  0  0  0  0  0  0  0  0
    0.4498   -0.5930   -0.2914 C   0  0  0  0  0  0  0  0  0  0  0  0
   -0.1570    0.5041    0.2421 C   0  0  0  0  0  0  0  0  0  0  0  0
   -1.5011    0.7100    0.0210 C   0  0  0  0  0  0  0  0  0  0  0  0
   -2.2755   -0.1610   -0.7298 C   0  0  0  0  0  0  0  0  0  0  0  0
   -3.6751    0.0649   -0.9563 N   0  0  0  0  0  0  0  0  0  0  0  0
   -4.2556    1.2320   -0.3677 C   0  0  0  0  0  0  0  0  0  0  0  0
   -5.7022    1.3600   -0.7196 C   0  0  0  0  0  0  0  0  0  0  0  0
   -6.3291   -0.0012   -0.4875 C   0  0  0  0  0  0  0  0  0  0  0  0
   -5.8505   -1.0053   -1.5042 C   0  0  0  0  0  0  0  0  0  0  0  0
   -4.3919   -0.8714   -1.7477 C   0  0  0  0  0  0  0  0  0  0  0  0
   -7.8111    0.1395   -0.4284 C   0  0  0  0  0  0  0  0  0  0  0  0
   -8.0407    0.5866    0.9451 N   0  0  0  0  0  0  0  0  0  0  0  0
   -6.9073    0.1378    1.6725 C   0  0  0  0  0  0  0  0  0  0  0  0
   -6.7684    0.2348    2.9230 O   0  0  0  0  0  0  0  0  0  0  0  0
   -5.9789   -0.4183    0.8115 O   0  0  0  0  0  0  0  0  0  0  0  0
   -1.6300   -1.2284   -1.2339 N   0  0  0  0  0  0  0  0  0  0  0  0
   -0.3196   -1.4667   -1.0424 C   0  0  0  0  0  0  0  0  0  0  0  0
    2.7568   -0.8707    3.1178 H   0  0  0  0  0  0  0  0  0  0  0  0
    3.5633   -2.4661    3.2591 H   0  0  0  0  0  0  0  0  0  0  0  0
    6.1813   -1.8552    3.0378 H   0  0  0  0  0  0  0  0  0  0  0  0
    7.8660   -0.9999    1.5282 H   0  0  0  0  0  0  0  0  0  0  0  0
    6.3549    1.5372   -2.1387 H   0  0  0  0  0  0  0  0  0  0  0  0
    8.4640    2.1833   -3.3701 H   0  0  0  0  0  0  0  0  0  0  0  0
   10.7250    1.2694   -2.2726 H   0  0  0  0  0  0  0  0  0  0  0  0
    4.7939    0.7893   -0.8311 H   0  0  0  0  0  0  0  0  0  0  0  0
    2.3477    0.8578    1.1001 H   0  0  0  0  0  0  0  0  0  0  0  0
    0.3643    1.2266    0.8342 H   0  0  0  0  0  0  0  0  0  0  0  0
   -2.0205    1.5786    0.4332 H   0  0  0  0  0  0  0  0  0  0  0  0
   -4.1158    1.2113    0.7447 H   0  0  0  0  0  0  0  0  0  0  0  0
   -3.6738    2.1362   -0.6892 H   0  0  0  0  0  0  0  0  0  0  0  0
   -5.8006    1.7007   -1.7623 H   0  0  0  0  0  0  0  0  0  0  0  0
   -6.1790    2.0509    0.0076 H   0  0  0  0  0  0  0  0  0  0  0  0
   -6.0495   -2.0132   -1.0330 H   0  0  0  0  0  0  0  0  0  0  0  0
   -6.4661   -0.9561   -2.4277 H   0  0  0  0  0  0  0  0  0  0  0  0
   -4.2771   -0.6392   -2.8504 H   0  0  0  0  0  0  0  0  0  0  0  0
   -3.9156   -1.8935   -1.6662 H   0  0  0  0  0  0  0  0  0  0  0  0
   -8.3515   -0.8443   -0.5077 H   0  0  0  0  0  0  0  0  0  0  0  0
   -8.2142    0.8983   -1.1402 H   0  0  0  0  0  0  0  0  0  0  0  0
   -8.8467    1.1165    1.3259 H   0  0  0  0  0  0  0  0  0  0  0  0
    0.1578   -2.3579   -1.4798 H   0  0  0  0  0  0  0  0  0  0  0  0
  1  2  1  0
  2  3  2  0
  3  4  1  0
  4  5  2  0
  5  6  1  0
  6  7  2  0
  7  8  1  0
  8  9  2  0
  9 10  1  0
  5 11  1  0
 11 12  2  0
 12 13  1  0
 13 14  1  0
 14 15  2  0
 14 16  1  0
 16 17  2  0
 17 18  1  0
 18 19  2  0
 19 20  1  0
 20 21  1  0
 21 22  1  0
 22 23  1  0
 23 24  1  0
 24 25  1  0
 23 26  1  0
 26 27  1  0
 27 28  1  0
 28 29  2  0
 28 30  1  0
 19 31  1  0
 31 32  2  0
 12  2  1  0
 32 16  1  0
 10  6  1  0
 25 20  1  0
 30 23  1  0
  1 33  1  0
  1 34  1  0
  3 35  1  0
  4 36  1  0
  7 37  1  0
  8 38  1  0
  9 39  1  0
 11 40  1  0
 13 41  1  0
 17 42  1  0
 18 43  1  0
 21 44  1  0
 21 45  1  0
 22 46  1  0
 22 47  1  0
 24 48  1  0
 24 49  1  0
 25 50  1  0
 25 51  1  0
 26 52  1  0
 26 53  1  0
 27 54  1  0
 32 55  1  0
M  END
$$$$
