
     RDKit          3D

 58 62  0  0  0  0  0  0  0  0999 V2000
   -3.9200   -1.9494    3.2113 O   0  0  0  0  0  0  0  0  0  0  0  0
   -3.8850   -0.9331    2.4804 C   0  0  0  0  0  0  0  0  0  0  0  0
   -4.9912   -0.2142    1.8999 C   0  0  0  0  0  0  0  0  0  0  0  0
   -6.2066   -0.4691    2.0154 O   0  0  0  0  0  0  0  0  0  0  0  0
   -4.4395    0.8689    1.1499 N   0  0  0  0  0  0  0  0  0  0  0  0
   -5.2215    1.8238    0.4191 C   0  0  0  0  0  0  0  0  0  0  0  0
   -5.4741    1.3890   -0.9582 C   0  0  0  0  0  0  0  0  0  0  0  0
   -6.5806    0.6381   -1.2545 C   0  0  0  0  0  0  0  0  0  0  0  0
   -6.8533    0.2088   -2.5478 C   0  0  0  0  0  0  0  0  0  0  0  0
   -5.9765    0.5544   -3.5593 C   0  0  0  0  0  0  0  0  0  0  0  0
   -6.2928   -0.0050   -5.3666 Br  0  0  0  0  0  0  0  0  0  0  0  0
   -4.8609    1.3088   -3.2745 C   0  0  0  0  0  0  0  0  0  0  0  0
   -4.6123    1.7257   -1.9676 C   0  0  0  0  0  0  0  0  0  0  0  0
   -3.0161    0.8015    1.2786 C   0  0  0  0  0  0  0  0  0  0  0  0
   -2.0247    1.6039    0.7566 C   0  0  0  0  0  0  0  0  0  0  0  0
   -0.7006    1.3129    1.0415 C   0  0  0  0  0  0  0  0  0  0  0  0
   -0.3366    0.2467    1.8307 C   0  0  0  0  0  0  0  0  0  0  0  0
    1.3246   -0.1089    2.1810 S   0  0  0  0  0  6  0  0  0  0  0  0
    1.4530   -0.7328    3.5541 O   0  0  0  0  0  0  0  0  0  0  0  0
    2.1686    1.1531    2.2271 O   0  0  0  0  0  0  0  0  0  0  0  0
    2.0453   -1.1613    1.0500 N   0  0  0  0  0  0  0  0  0  0  0  0
    1.4436   -2.4525    0.9660 C   0  0  0  0  0  0  0  0  0  0  0  0
    2.4339   -3.4580    1.4781 C   0  0  0  0  0  0  0  0  0  0  0  0
    3.5970   -2.6824    2.0201 C   0  0  0  0  0  0  0  0  0  0  0  0
    3.4369   -1.3310    1.4048 C   0  0  1  0  0  0  0  0  0  0  0  0
    4.3510   -1.1162    0.2178 C   0  0  0  0  0  0  0  0  0  0  0  0
    4.1834    0.1946   -0.2852 O   0  0  0  0  0  0  0  0  0  0  0  0
    4.8623    0.7048   -1.3546 C   0  0  0  0  0  0  0  0  0  0  0  0
    4.6030    2.0021   -1.7425 C   0  0  0  0  0  0  0  0  0  0  0  0
    5.2809    2.5330   -2.8220 C   0  0  0  0  0  0  0  0  0  0  0  0
    6.2063    1.8093   -3.5226 C   0  0  0  0  0  0  0  0  0  0  0  0
    6.4518    0.5178   -3.1217 C   0  0  0  0  0  0  0  0  0  0  0  0
    5.7870   -0.0321   -2.0473 C   0  0  0  0  0  0  0  0  0  0  0  0
   -1.3206   -0.5573    2.3543 C   0  0  0  0  0  0  0  0  0  0  0  0
   -2.6525   -0.2719    2.0729 C   0  0  0  0  0  0  0  0  0  0  0  0
   -6.2037    1.9602    0.9158 H   0  0  0  0  0  0  0  0  0  0  0  0
   -4.6587    2.7885    0.4056 H   0  0  0  0  0  0  0  0  0  0  0  0
   -7.2789    0.3583   -0.4715 H   0  0  0  0  0  0  0  0  0  0  0  0
   -7.7232   -0.3817   -2.7810 H   0  0  0  0  0  0  0  0  0  0  0  0
   -4.1834    1.5772   -4.0492 H   0  0  0  0  0  0  0  0  0  0  0  0
   -3.7219    2.3156   -1.8048 H   0  0  0  0  0  0  0  0  0  0  0  0
   -2.3328    2.4364    0.1402 H   0  0  0  0  0  0  0  0  0  0  0  0
    0.0437    1.9535    0.6221 H   0  0  0  0  0  0  0  0  0  0  0  0
    0.4479   -2.5249    1.4282 H   0  0  0  0  0  0  0  0  0  0  0  0
    1.2928   -2.6814   -0.1298 H   0  0  0  0  0  0  0  0  0  0  0  0
    2.8185   -4.1343    0.6723 H   0  0  0  0  0  0  0  0  0  0  0  0
    2.0082   -4.0922    2.2857 H   0  0  0  0  0  0  0  0  0  0  0  0
    4.5825   -3.0921    1.6683 H   0  0  0  0  0  0  0  0  0  0  0  0
    3.5813   -2.6267    3.1311 H   0  0  0  0  0  0  0  0  0  0  0  0
    3.7478   -0.5735    2.1802 H   0  0  0  0  0  0  0  0  0  0  0  0
    5.4055   -1.2666    0.5101 H   0  0  0  0  0  0  0  0  0  0  0  0
    4.0673   -1.8142   -0.6105 H   0  0  0  0  0  0  0  0  0  0  0  0
    3.8790    2.6231   -1.2236 H   0  0  0  0  0  0  0  0  0  0  0  0
    5.0983    3.5552   -3.1530 H   0  0  0  0  0  0  0  0  0  0  0  0
    6.7457    2.2208   -4.3759 H   0  0  0  0  0  0  0  0  0  0  0  0
    7.1878   -0.0378   -3.6895 H   0  0  0  0  0  0  0  0  0  0  0  0
    6.0296   -1.0658   -1.7805 H   0  0  0  0  0  0  0  0  0  0  0  0
   -1.0966   -1.4196    2.9884 H   0  0  0  0  0  0  0  0  0  0  0  0
  1  2  2  0
  2  3  1  0
  3  4  2  0
  3  5  1  0
  5  6  1  0
  6  7  1  0
  7  8  2  0
  8  9  1  0
  9 10  2  0
 10 11  1  0
 10 12  1  0
 12 13  2  0
  5 14  1  0
 14 15  2  0
 15 16  1  0
 16 17  2  0
 17 18  1  0
 18 19  2  0
 18 20  2  0
 18 21  1  0
 21 22  1  0
 22 23  1  0
 23 24  1  0
 24 25  1  0
 25 26  1  0
 26 27  1  0
 27 28  1  0
 28 29  2  0
 29 30  1  0
 30 31  2  0
 31 32  1  0
 32 33  2  0
 17 34  1  0
 34 35  2  0
 35  2  1  0
 13  7  1  0
 35 14  1  0
 25 21  1  0
 33 28  1  0
  6 36  1  0
  6 37  1  0
  8 38  1  0
  9 39  1  0
 12 40  1  0
 13 41  1  0
 15 42  1  0
 16 43  1  0
 22 44  1  0
 22 45  1  0
 23 46  1  0
 23 47  1  0
 24 48  1  0
 24 49  1  0
 25 50  1  1
 26 51  1  0
 26 52  1  0
 29 53  1  0
 30 54  1  0
 31 55  1  0
 32 56  1  0
 33 57  1  0
 34 58  1  0
M  END
$$$$
