
     RDKit          3D

 72 74  0  0  0  0  0  0  0  0999 V2000
    6.7521    0.9502    2.0717 C   0  0  0  0  0  0  0  0  0  0  0  0
    6.6122    0.3829    0.7002 C   0  0  0  0  0  0  0  0  0  0  0  0
    7.4257   -0.6317    0.2430 C   0  0  0  0  0  0  0  0  0  0  0  0
    7.2840   -1.1215   -0.9781 N   0  0  0  0  0  0  0  0  0  0  0  0
    6.3428   -0.6663   -1.8521 C   0  0  0  0  0  0  0  0  0  0  0  0
    6.2943   -1.3152   -3.2058 C   0  0  0  0  0  0  0  0  0  0  0  0
    5.5058    0.3387   -1.4576 C   0  0  0  0  0  0  0  0  0  0  0  0
    4.4728    0.8399   -2.4188 C   0  0  0  0  0  0  0  0  0  0  0  0
    3.3259   -0.1239   -2.5452 C   0  0  0  0  0  0  0  0  0  0  0  0
    2.6665   -0.3043   -1.2142 C   0  0  0  0  0  0  0  0  0  0  0  0
    1.5136   -1.2918   -1.2848 C   0  0  0  0  0  0  0  0  0  0  0  0
    0.3307   -0.9244   -0.4675 C   0  0  0  0  0  0  0  0  0  0  0  0
    0.5905   -0.2657    0.7720 N   0  0  0  0  0  0  0  0  0  0  0  0
   -0.8872    0.5279    1.2416 S   0  0  0  0  0  6  0  0  0  0  0  0
   -1.1898    1.5510    0.1934 O   0  0  0  0  0  0  0  0  0  0  0  0
   -0.6215    1.2468    2.5396 O   0  0  0  0  0  0  0  0  0  0  0  0
   -2.1775   -0.6521    1.4812 C   0  0  0  0  0  0  0  0  0  0  0  0
   -3.4841   -0.0408    1.8812 C   0  0  2  0  0  0  0  0  0  0  0  0
   -4.4887   -1.1403    2.0731 C   0  0  0  0  0  0  0  0  0  0  0  0
   -3.9533    1.0434    0.9791 C   0  0  0  0  0  0  0  0  0  0  0  0
   -4.1878    0.6931   -0.4437 C   0  0  2  0  0  0  0  0  0  0  0  0
   -4.6483    2.0011   -1.1257 C   0  0  0  0  0  0  0  0  0  0  0  0
   -5.3285   -0.2402   -0.6501 C   0  0  0  0  0  0  0  0  0  0  0  0
   -6.5236   -0.1280   -0.0662 N   0  0  0  0  0  0  0  0  0  0  0  0
   -7.5373   -0.9720   -0.2696 C   0  0  0  0  0  0  0  0  0  0  0  0
   -7.3514   -2.0307   -1.1346 C   0  0  0  0  0  0  0  0  0  0  0  0
   -8.3742   -2.9125   -1.3616 F   0  0  0  0  0  0  0  0  0  0  0  0
   -6.1308   -2.1688   -1.7486 C   0  0  0  0  0  0  0  0  0  0  0  0
   -5.1689   -1.2822   -1.4920 N   0  0  0  0  0  0  0  0  0  0  0  0
   -3.2588    0.5733    3.1972 N   0  0  0  0  0  0  0  0  0  0  0  0
   -3.4445    1.9059    3.4065 O   0  0  0  0  0  0  0  0  0  0  0  0
   -2.8372   -0.2136    4.2974 C   0  0  0  0  0  0  0  0  0  0  0  0
   -2.6440    0.3004    5.4246 O   0  0  0  0  0  0  0  0  0  0  0  0
    1.6018    0.7453    0.7032 C   0  0  0  0  0  0  0  0  0  0  0  0
    2.0437    1.0043   -0.7387 C   0  0  0  0  0  0  0  0  0  0  0  0
    5.6424    0.8654   -0.1742 C   0  0  0  0  0  0  0  0  0  0  0  0
    6.0538    0.4163    2.7550 H   0  0  0  0  0  0  0  0  0  0  0  0
    7.8097    0.7970    2.3750 H   0  0  0  0  0  0  0  0  0  0  0  0
    6.5131    2.0335    2.1091 H   0  0  0  0  0  0  0  0  0  0  0  0
    8.1914   -1.0107    0.9381 H   0  0  0  0  0  0  0  0  0  0  0  0
    5.9075   -0.6473   -3.9865 H   0  0  0  0  0  0  0  0  0  0  0  0
    7.3696   -1.5096   -3.4706 H   0  0  0  0  0  0  0  0  0  0  0  0
    5.7297   -2.2675   -3.1757 H   0  0  0  0  0  0  0  0  0  0  0  0
    4.1815    1.8346   -2.0695 H   0  0  0  0  0  0  0  0  0  0  0  0
    4.9310    1.0189   -3.4341 H   0  0  0  0  0  0  0  0  0  0  0  0
    2.6086    0.3006   -3.3054 H   0  0  0  0  0  0  0  0  0  0  0  0
    3.6738   -1.0671   -2.9756 H   0  0  0  0  0  0  0  0  0  0  0  0
    3.3818   -0.6385   -0.4621 H   0  0  0  0  0  0  0  0  0  0  0  0
    1.1958   -1.3149   -2.3667 H   0  0  0  0  0  0  0  0  0  0  0  0
    1.9270   -2.3058   -1.0805 H   0  0  0  0  0  0  0  0  0  0  0  0
   -0.4350   -0.3344   -1.0386 H   0  0  0  0  0  0  0  0  0  0  0  0
   -0.2062   -1.8868   -0.2121 H   0  0  0  0  0  0  0  0  0  0  0  0
   -2.2742   -1.3510    0.6165 H   0  0  0  0  0  0  0  0  0  0  0  0
   -1.8479   -1.3025    2.3329 H   0  0  0  0  0  0  0  0  0  0  0  0
   -4.1599   -1.7989    2.9328 H   0  0  0  0  0  0  0  0  0  0  0  0
   -5.4426   -0.6851    2.4322 H   0  0  0  0  0  0  0  0  0  0  0  0
   -4.6340   -1.7695    1.1799 H   0  0  0  0  0  0  0  0  0  0  0  0
   -3.3121    1.9493    1.0839 H   0  0  0  0  0  0  0  0  0  0  0  0
   -4.9517    1.3843    1.3896 H   0  0  0  0  0  0  0  0  0  0  0  0
   -3.3140    0.3740   -1.0241 H   0  0  0  0  0  0  0  0  0  0  0  0
   -5.3749    2.5329   -0.4778 H   0  0  0  0  0  0  0  0  0  0  0  0
   -5.1140    1.6968   -2.0931 H   0  0  0  0  0  0  0  0  0  0  0  0
   -3.7162    2.5750   -1.2996 H   0  0  0  0  0  0  0  0  0  0  0  0
   -8.5074   -0.8626    0.2179 H   0  0  0  0  0  0  0  0  0  0  0  0
   -5.9912   -2.9968   -2.4228 H   0  0  0  0  0  0  0  0  0  0  0  0
   -4.3931    2.0881    3.2996 H   0  0  0  0  0  0  0  0  0  0  0  0
   -2.6709   -1.2740    4.1968 H   0  0  0  0  0  0  0  0  0  0  0  0
    1.2964    1.7114    1.1478 H   0  0  0  0  0  0  0  0  0  0  0  0
    2.5051    0.4034    1.2394 H   0  0  0  0  0  0  0  0  0  0  0  0
    1.1705    1.2419   -1.3847 H   0  0  0  0  0  0  0  0  0  0  0  0
    2.7550    1.8391   -0.6763 H   0  0  0  0  0  0  0  0  0  0  0  0
    4.9763    1.6655    0.1330 H   0  0  0  0  0  0  0  0  0  0  0  0
  1  2  1  0
  2  3  2  0
  3  4  1  0
  4  5  2  0
  5  6  1  0
  5  7  1  0
  7  8  1  0
  8  9  1  0
  9 10  1  0
 10 11  1  0
 11 12  1  0
 12 13  1  0
 13 14  1  0
 14 15  2  0
 14 16  2  0
 14 17  1  0
 17 18  1  0
 18 19  1  0
 18 20  1  0
 20 21  1  0
 21 22  1  0
 21 23  1  0
 23 24  2  0
 24 25  1  0
 25 26  2  0
 26 27  1  0
 26 28  1  0
 28 29  2  0
 18 30  1  1
 30 31  1  0
 30 32  1  0
 32 33  2  0
 13 34  1  0
 34 35  1  0
  7 36  2  0
 36  2  1  0
 35 10  1  0
 29 23  1  0
  1 37  1  0
  1 38  1  0
  1 39  1  0
  3 40  1  0
  6 41  1  0
  6 42  1  0
  6 43  1  0
  8 44  1  0
  8 45  1  0
  9 46  1  0
  9 47  1  0
 10 48  1  0
 11 49  1  0
 11 50  1  0
 12 51  1  0
 12 52  1  0
 17 53  1  0
 17 54  1  0
 19 55  1  0
 19 56  1  0
 19 57  1  0
 20 58  1  0
 20 59  1  0
 21 60  1  6
 22 61  1  0
 22 62  1  0
 22 63  1  0
 25 64  1  0
 28 65  1  0
 31 66  1  0
 32 67  1  0
 34 68  1  0
 34 69  1  0
 35 70  1  0
 35 71  1  0
 36 72  1  0
M  END
$$$$
