
     RDKit          3D

 36 38  0  0  0  0  0  0  0  0999 V2000
   -2.6705    2.8769   -1.5170 N   0  0  0  0  0  0  0  0  0  0  0  0
   -2.3125    1.6381   -0.9261 C   0  0  0  0  0  0  0  0  0  0  0  0
   -1.8959    0.5681   -1.6897 C   0  0  0  0  0  0  0  0  0  0  0  0
   -1.5478   -0.6417   -1.0945 C   0  0  0  0  0  0  0  0  0  0  0  0
   -1.6054   -0.8153    0.2686 C   0  0  0  0  0  0  0  0  0  0  0  0
   -1.1609   -2.3467    0.9746 S   0  0  0  0  0  6  0  0  0  0  0  0
   -1.4062   -3.4651   -0.0241 O   0  0  0  0  0  0  0  0  0  0  0  0
   -2.0019   -2.6297    2.1819 O   0  0  0  0  0  0  0  0  0  0  0  0
    0.5233   -2.4134    1.3641 N   0  0  0  0  0  0  0  0  0  0  0  0
    1.4606   -2.2830    0.3039 C   0  0  0  0  0  0  0  0  0  0  0  0
    1.9817   -3.3193   -0.4431 C   0  0  0  0  0  0  0  0  0  0  0  0
    2.8449   -2.7479   -1.3556 C   0  0  0  0  0  0  0  0  0  0  0  0
    2.8105   -1.4389   -1.1300 N   0  0  0  0  0  0  0  0  0  0  0  0
    1.9901   -1.1233   -0.1410 N   0  0  0  0  0  0  0  0  0  0  0  0
    1.6939    0.1690    0.3836 C   0  0  0  0  0  0  0  0  0  0  0  0
    1.6671    0.4184    1.7406 C   0  0  0  0  0  0  0  0  0  0  0  0
    1.3814    1.6655    2.2555 C   0  0  0  0  0  0  0  0  0  0  0  0
    1.1064    2.7314    1.4239 C   0  0  0  0  0  0  0  0  0  0  0  0
    1.1321    2.4862    0.0665 C   0  0  0  0  0  0  0  0  0  0  0  0
    1.4184    1.2371   -0.4449 C   0  0  0  0  0  0  0  0  0  0  0  0
   -2.0222    0.2554    1.0314 C   0  0  0  0  0  0  0  0  0  0  0  0
   -2.3681    1.4570    0.4424 C   0  0  0  0  0  0  0  0  0  0  0  0
   -2.6804    3.7599   -0.9600 H   0  0  0  0  0  0  0  0  0  0  0  0
   -2.9317    2.9438   -2.5136 H   0  0  0  0  0  0  0  0  0  0  0  0
   -1.8575    0.7248   -2.7579 H   0  0  0  0  0  0  0  0  0  0  0  0
   -1.2240   -1.4687   -1.7066 H   0  0  0  0  0  0  0  0  0  0  0  0
    0.8107   -2.5464    2.3578 H   0  0  0  0  0  0  0  0  0  0  0  0
    1.7638   -4.3725   -0.3419 H   0  0  0  0  0  0  0  0  0  0  0  0
    3.4010   -3.3318   -2.0785 H   0  0  0  0  0  0  0  0  0  0  0  0
    1.8791   -0.3984    2.4249 H   0  0  0  0  0  0  0  0  0  0  0  0
    1.3587    1.8698    3.3319 H   0  0  0  0  0  0  0  0  0  0  0  0
    0.8848    3.7016    1.8494 H   0  0  0  0  0  0  0  0  0  0  0  0
    0.9114    3.3436   -0.5815 H   0  0  0  0  0  0  0  0  0  0  0  0
    1.4305    1.0774   -1.5200 H   0  0  0  0  0  0  0  0  0  0  0  0
   -2.0667    0.1142    2.1122 H   0  0  0  0  0  0  0  0  0  0  0  0
   -2.6991    2.3039    1.0626 H   0  0  0  0  0  0  0  0  0  0  0  0
  1  2  1  0
  2  3  2  0
  3  4  1  0
  4  5  2  0
  5  6  1  0
  6  7  2  0
  6  8  2  0
  6  9  1  0
  9 10  1  0
 10 11  2  0
 11 12  1  0
 12 13  2  0
 13 14  1  0
 14 15  1  0
 15 16  2  0
 16 17  1  0
 17 18  2  0
 18 19  1  0
 19 20  2  0
  5 21  1  0
 21 22  2  0
 22  2  1  0
 14 10  1  0
 20 15  1  0
  1 23  1  0
  1 24  1  0
  3 25  1  0
  4 26  1  0
  9 27  1  0
 11 28  1  0
 12 29  1  0
 16 30  1  0
 17 31  1  0
 18 32  1  0
 19 33  1  0
 20 34  1  0
 21 35  1  0
 22 36  1  0
M  END
$$$$
