
     RDKit          3D

 65 68  0  0  0  0  0  0  0  0999 V2000
   -4.0871   -4.6633   -1.5341 C   0  0  0  0  0  0  0  0  0  0  0  0
   -2.8347   -4.1121   -2.1622 C   0  0  0  0  0  0  0  0  0  0  0  0
   -2.0447   -4.6906   -2.9317 O   0  0  0  0  0  0  0  0  0  0  0  0
   -2.5117   -2.7715   -1.8410 N   0  0  0  0  0  0  0  0  0  0  0  0
   -1.3070   -2.2320   -2.4398 C   0  0  0  0  0  0  0  0  0  0  0  0
   -1.0760   -0.8028   -1.9980 C   0  0  0  0  0  0  0  0  0  0  0  0
   -1.2637   -0.7100   -0.5729 N   0  0  0  0  0  0  0  0  0  0  0  0
   -2.3142   -1.4397    0.1082 C   0  0  0  0  0  0  0  0  0  0  0  0
   -3.2913   -1.8998   -0.9614 C   0  0  0  0  0  0  0  0  0  0  0  0
   -0.3692    0.1225    0.1348 C   0  0  0  0  0  0  0  0  0  0  0  0
    0.4540    0.6262   -0.6783 O   0  0  0  0  0  0  0  0  0  0  0  0
    0.0928    0.7138    1.4052 C   0  0  2  0  0  0  0  0  0  0  0  0
   -0.9649    1.4847    2.1164 C   0  0  0  0  0  0  0  0  0  0  0  0
   -1.5376    2.6254    1.4057 C   0  0  0  0  0  0  0  0  0  0  0  0
   -2.5847    2.4885    0.5214 C   0  0  0  0  0  0  0  0  0  0  0  0
   -3.1858    3.5171   -0.1698 C   0  0  0  0  0  0  0  0  0  0  0  0
   -2.7328    4.8073    0.0089 C   0  0  0  0  0  0  0  0  0  0  0  0
   -1.6914    5.0168    0.8766 C   0  0  0  0  0  0  0  0  0  0  0  0
   -1.1366    3.9427    1.5357 C   0  0  0  0  0  0  0  0  0  0  0  0
   -1.2119    6.3816    1.0654 C   0  0  0  0  0  0  0  0  0  0  0  0
   -1.2570    7.3932    0.0658 N   0  0  0  0  0  0  0  0  0  0  0  0
   -0.6725    7.0290    2.0416 N   0  0  0  0  0  0  0  0  0  0  0  0
    1.2541    1.5229    1.1852 N   0  0  0  0  0  0  0  0  0  0  0  0
    2.6577    0.9782    2.0172 S   0  0  0  0  0  0  0  0  0  0  0  0
    3.8007    1.9130    1.8122 O   0  0  0  0  0  0  0  0  0  0  0  0
    2.4318    0.8964    3.4999 O   0  0  0  0  0  0  0  0  0  0  0  0
    3.0555   -0.6178    1.4442 C   0  0  0  0  0  0  0  0  0  0  0  0
    2.6416   -1.8315    1.9669 C   0  0  0  0  0  0  0  0  0  0  0  0
    3.0418   -3.0219    1.3967 C   0  0  0  0  0  0  0  0  0  0  0  0
    3.8673   -2.9834    0.2889 C   0  0  0  0  0  0  0  0  0  0  0  0
    4.2563   -4.1992   -0.2680 C   0  0  0  0  0  0  0  0  0  0  0  0
    5.0803   -4.1641   -1.3745 C   0  0  0  0  0  0  0  0  0  0  0  0
    5.5328   -2.9965   -1.9500 C   0  0  0  0  0  0  0  0  0  0  0  0
    5.1381   -1.8005   -1.3864 C   0  0  0  0  0  0  0  0  0  0  0  0
    4.3146   -1.7928   -0.2793 C   0  0  0  0  0  0  0  0  0  0  0  0
    3.8883   -0.6300    0.3251 C   0  0  0  0  0  0  0  0  0  0  0  0
   -4.1257   -4.4401   -0.4525 H   0  0  0  0  0  0  0  0  0  0  0  0
   -4.9934   -4.2031   -1.9999 H   0  0  0  0  0  0  0  0  0  0  0  0
   -4.1051   -5.7802   -1.6404 H   0  0  0  0  0  0  0  0  0  0  0  0
   -1.4029   -2.2213   -3.5380 H   0  0  0  0  0  0  0  0  0  0  0  0
   -0.4190   -2.8176   -2.1617 H   0  0  0  0  0  0  0  0  0  0  0  0
   -1.6863   -0.0714   -2.5674 H   0  0  0  0  0  0  0  0  0  0  0  0
   -0.0122   -0.5923   -2.2211 H   0  0  0  0  0  0  0  0  0  0  0  0
   -1.8759   -2.3345    0.5981 H   0  0  0  0  0  0  0  0  0  0  0  0
   -2.7765   -0.7724    0.8431 H   0  0  0  0  0  0  0  0  0  0  0  0
   -3.5830   -1.0280   -1.6007 H   0  0  0  0  0  0  0  0  0  0  0  0
   -4.1525   -2.4031   -0.5251 H   0  0  0  0  0  0  0  0  0  0  0  0
    0.4281   -0.1087    2.1095 H   0  0  0  0  0  0  0  0  0  0  0  0
   -0.5795    1.8031    3.1293 H   0  0  0  0  0  0  0  0  0  0  0  0
   -1.8156    0.7923    2.3887 H   0  0  0  0  0  0  0  0  0  0  0  0
   -3.0292    1.5312    0.2960 H   0  0  0  0  0  0  0  0  0  0  0  0
   -4.0038    3.3941   -0.8575 H   0  0  0  0  0  0  0  0  0  0  0  0
   -3.1675    5.6493   -0.5078 H   0  0  0  0  0  0  0  0  0  0  0  0
   -0.3316    4.2115    2.2038 H   0  0  0  0  0  0  0  0  0  0  0  0
   -0.4693    7.5008   -0.5975 H   0  0  0  0  0  0  0  0  0  0  0  0
   -1.8391    8.1571   -0.3050 H   0  0  0  0  0  0  0  0  0  0  0  0
   -0.4732    6.5971    2.9790 H   0  0  0  0  0  0  0  0  0  0  0  0
    1.0676    2.4872    1.5090 H   0  0  0  0  0  0  0  0  0  0  0  0
    1.9997   -1.7505    2.8345 H   0  0  0  0  0  0  0  0  0  0  0  0
    2.6898   -3.9241    1.8453 H   0  0  0  0  0  0  0  0  0  0  0  0
    3.9170   -5.1362    0.1620 H   0  0  0  0  0  0  0  0  0  0  0  0
    5.4105   -5.0825   -1.8439 H   0  0  0  0  0  0  0  0  0  0  0  0
    6.1713   -2.9901   -2.8080 H   0  0  0  0  0  0  0  0  0  0  0  0
    5.4598   -0.8422   -1.7913 H   0  0  0  0  0  0  0  0  0  0  0  0
    4.2645    0.2745   -0.1554 H   0  0  0  0  0  0  0  0  0  0  0  0
  1  2  1  0
  2  3  2  0
  2  4  1  0
  4  5  1  0
  5  6  1  0
  6  7  1  0
  7  8  1  0
  8  9  1  0
  7 10  1  0
 10 11  2  0
 10 12  1  0
 12 13  1  0
 13 14  1  0
 14 15  2  0
 15 16  1  0
 16 17  2  0
 17 18  1  0
 18 19  2  0
 18 20  1  0
 20 21  1  0
 20 22  2  3
 12 23  1  0
 23 24  1  0
 24 25  2  0
 24 26  2  0
 24 27  1  0
 27 28  2  0
 28 29  1  0
 29 30  2  0
 30 31  1  0
 31 32  2  0
 32 33  1  0
 33 34  2  0
 34 35  1  0
 35 36  2  0
  9  4  1  0
 19 14  1  0
 36 27  1  0
 35 30  1  0
  1 37  1  0
  1 38  1  0
  1 39  1  0
  5 40  1  0
  5 41  1  0
  6 42  1  0
  6 43  1  0
  8 44  1  0
  8 45  1  0
  9 46  1  0
  9 47  1  0
 12 48  1  1
 13 49  1  0
 13 50  1  0
 15 51  1  0
 16 52  1  0
 17 53  1  0
 19 54  1  0
 21 55  1  0
 21 56  1  0
 22 57  1  0
 23 58  1  0
 28 59  1  0
 29 60  1  0
 31 61  1  0
 32 62  1  0
 33 63  1  0
 34 64  1  0
 36 65  1  0
M  END
$$$$
