
     RDKit          3D

 50 53  0  0  0  0  0  0  0  0999 V2000
    4.4850    0.7432    3.9957 C   0  0  0  0  0  0  0  0  0  0  0  0
    3.8139    0.5197    2.7725 O   0  0  0  0  0  0  0  0  0  0  0  0
    4.4081    0.8693    1.5666 C   0  0  0  0  0  0  0  0  0  0  0  0
    5.6615    1.4374    1.5826 C   0  0  0  0  0  0  0  0  0  0  0  0
    6.2402    1.7799    0.3793 C   0  0  0  0  0  0  0  0  0  0  0  0
    7.5404    2.3705    0.3765 C   0  0  0  0  0  0  0  0  0  0  0  0
    8.6123    2.8388    0.3649 N   0  0  0  0  0  0  0  0  0  0  0  0
    5.5594    1.5486   -0.7960 C   0  0  0  0  0  0  0  0  0  0  0  0
    4.3409    0.9967   -0.8166 N   0  0  0  0  0  0  0  0  0  0  0  0
    3.7757    0.6624    0.3552 C   0  0  0  0  0  0  0  0  0  0  0  0
    2.4400    0.0523    0.3971 C   0  0  0  0  0  0  0  0  0  0  0  0
    1.9132   -0.2599    1.4854 O   0  0  0  0  0  0  0  0  0  0  0  0
    1.6939   -0.2079   -0.7876 N   0  0  0  0  0  0  0  0  0  0  0  0
    0.3985   -0.7993   -0.7575 C   0  0  0  0  0  0  0  0  0  0  0  0
    0.3624   -2.1872   -0.8209 C   0  0  0  0  0  0  0  0  0  0  0  0
   -0.8142   -2.8796   -0.8011 C   0  0  0  0  0  0  0  0  0  0  0  0
   -0.8608   -4.3613   -0.8684 C   0  0  0  0  0  0  0  0  0  0  0  0
   -1.9912   -2.1259   -0.7135 C   0  0  0  0  0  0  0  0  0  0  0  0
   -3.1317   -2.8639   -0.7276 F   0  0  0  0  0  0  0  0  0  0  0  0
   -1.9551   -0.7572   -0.6500 C   0  0  0  0  0  0  0  0  0  0  0  0
   -3.2540   -0.0218   -0.5262 C   0  0  1  0  0  0  0  0  0  0  0  0
   -3.7852   -0.3181    0.8568 C   0  0  0  0  0  0  0  0  0  0  0  0
   -5.0070    0.3127    1.0963 F   0  0  0  0  0  0  0  0  0  0  0  0
   -3.7391   -1.6021    1.2591 F   0  0  0  0  0  0  0  0  0  0  0  0
   -2.9811    1.4281   -0.5177 N   0  0  0  0  0  0  0  0  0  0  0  0
   -3.9606    2.2070   -0.7949 C   0  0  0  0  0  0  0  0  0  0  0  0
   -3.7746    3.6273   -0.8058 N   0  0  0  0  0  0  0  0  0  0  0  0
   -5.2280    1.6653   -1.0912 O   0  0  0  0  0  0  0  0  0  0  0  0
   -5.2567    0.5442   -1.9584 C   0  0  2  0  0  0  0  0  0  0  0  0
   -5.5221   -0.8223   -1.5155 C   0  0  0  0  0  0  0  0  0  0  0  0
   -4.1205   -0.3762   -1.6557 C   0  0  2  0  0  0  0  0  0  0  0  0
   -0.7512   -0.0828   -0.6724 C   0  0  0  0  0  0  0  0  0  0  0  0
    5.2955   -0.0070    4.1464 H   0  0  0  0  0  0  0  0  0  0  0  0
    4.9016    1.7668    4.0813 H   0  0  0  0  0  0  0  0  0  0  0  0
    3.7640    0.6048    4.8477 H   0  0  0  0  0  0  0  0  0  0  0  0
    6.2023    1.6210    2.5179 H   0  0  0  0  0  0  0  0  0  0  0  0
    6.0407    1.8283   -1.7183 H   0  0  0  0  0  0  0  0  0  0  0  0
    2.1562    0.0630   -1.6943 H   0  0  0  0  0  0  0  0  0  0  0  0
    1.2872   -2.7721   -0.8894 H   0  0  0  0  0  0  0  0  0  0  0  0
   -1.5838   -4.6635   -1.6725 H   0  0  0  0  0  0  0  0  0  0  0  0
    0.1640   -4.7171   -1.1007 H   0  0  0  0  0  0  0  0  0  0  0  0
   -1.2199   -4.7604    0.1012 H   0  0  0  0  0  0  0  0  0  0  0  0
   -3.0810    0.2432    1.5511 H   0  0  0  0  0  0  0  0  0  0  0  0
   -2.8346    4.0080   -1.0153 H   0  0  0  0  0  0  0  0  0  0  0  0
   -4.5461    4.2875   -0.6119 H   0  0  0  0  0  0  0  0  0  0  0  0
   -5.4872    0.8268   -3.0177 H   0  0  0  0  0  0  0  0  0  0  0  0
   -5.9728   -1.0185   -0.5198 H   0  0  0  0  0  0  0  0  0  0  0  0
   -5.8921   -1.5251   -2.2909 H   0  0  0  0  0  0  0  0  0  0  0  0
   -3.5692   -0.6993   -2.5886 H   0  0  0  0  0  0  0  0  0  0  0  0
   -0.7370    0.9760   -0.6234 H   0  0  0  0  0  0  0  0  0  0  0  0
  1  2  1  0
  2  3  1  0
  3  4  2  0
  4  5  1  0
  5  6  1  0
  6  7  3  0
  5  8  2  0
  8  9  1  0
  9 10  2  0
 10 11  1  0
 11 12  2  0
 11 13  1  0
 13 14  1  0
 14 15  2  0
 15 16  1  0
 16 17  1  0
 16 18  2  0
 18 19  1  0
 18 20  1  0
 20 21  1  0
 21 22  1  1
 22 23  1  0
 22 24  1  0
 21 25  1  0
 25 26  2  0
 26 27  1  0
 26 28  1  0
 28 29  1  0
 29 30  1  0
 30 31  1  0
 20 32  2  0
 10  3  1  0
 32 14  1  0
 31 21  1  0
 31 29  1  0
  1 33  1  0
  1 34  1  0
  1 35  1  0
  4 36  1  0
  8 37  1  0
 13 38  1  0
 15 39  1  0
 17 40  1  0
 17 41  1  0
 17 42  1  0
 22 43  1  0
 27 44  1  0
 27 45  1  0
 29 46  1  6
 30 47  1  0
 30 48  1  0
 31 49  1  6
 32 50  1  0
M  END
$$$$
