
     RDKit          3D

 29 29  0  0  0  0  0  0  0  0999 V2000
    2.8024    0.7748   -1.2713 C   0  0  0  0  0  0  0  0  0  0  0  0
    1.8559    0.4048   -0.1100 C   0  0  2  0  0  0  0  0  0  0  0  0
    2.4831   -0.8222    0.5806 C   0  0  0  0  0  0  0  0  0  0  0  0
    4.1254   -0.3661    1.1891 S   0  0  0  0  0  0  0  0  0  0  0  0
    0.5569    0.0559   -0.6913 C   0  0  0  0  0  0  0  0  0  0  0  0
    0.5041   -0.1125   -1.9600 O   0  0  0  0  0  0  0  0  0  0  0  0
   -0.6392   -0.1082    0.0283 N   0  0  0  0  0  0  0  0  0  0  0  0
   -0.8260    0.0707    1.4477 C   0  0  0  0  0  0  0  0  0  0  0  0
   -1.8918   -1.0137    1.6940 C   0  0  0  0  0  0  0  0  0  0  0  0
   -2.8671   -0.6426    0.5947 C   0  0  0  0  0  0  0  0  0  0  0  0
   -1.9014   -0.5027   -0.5700 C   0  0  1  0  0  0  0  0  0  0  0  0
   -2.3788    0.4670   -1.5724 C   0  0  0  0  0  0  0  0  0  0  0  0
   -3.4682    0.2113   -2.1468 O   0  0  0  0  0  0  0  0  0  0  0  0
   -1.7150    1.6188   -1.9135 O   0  0  0  0  0  0  0  0  0  0  0  0
    3.2873   -0.1452   -1.5986 H   0  0  0  0  0  0  0  0  0  0  0  0
    3.5102    1.5532   -0.9524 H   0  0  0  0  0  0  0  0  0  0  0  0
    2.1804    1.2040   -2.0957 H   0  0  0  0  0  0  0  0  0  0  0  0
    1.8051    1.1923    0.6482 H   0  0  0  0  0  0  0  0  0  0  0  0
    1.8583   -1.2599    1.3474 H   0  0  0  0  0  0  0  0  0  0  0  0
    2.6390   -1.5621   -0.2568 H   0  0  0  0  0  0  0  0  0  0  0  0
    4.1250    0.9765    1.6037 H   0  0  0  0  0  0  0  0  0  0  0  0
   -1.3530    1.0659    1.5928 H   0  0  0  0  0  0  0  0  0  0  0  0
    0.0382   -0.0298    2.0802 H   0  0  0  0  0  0  0  0  0  0  0  0
   -2.3158   -0.9439    2.6928 H   0  0  0  0  0  0  0  0  0  0  0  0
   -1.4467   -1.9784    1.4268 H   0  0  0  0  0  0  0  0  0  0  0  0
   -3.2942    0.3393    0.8692 H   0  0  0  0  0  0  0  0  0  0  0  0
   -3.6249   -1.4230    0.4187 H   0  0  0  0  0  0  0  0  0  0  0  0
   -1.8128   -1.5106   -1.0223 H   0  0  0  0  0  0  0  0  0  0  0  0
   -2.2362    2.4863   -2.0531 H   0  0  0  0  0  0  0  0  0  0  0  0
  1  2  1  0
  2  3  1  0
  3  4  1  0
  2  5  1  0
  5  6  2  0
  5  7  1  0
  7  8  1  0
  8  9  1  0
  9 10  1  0
 10 11  1  0
 11 12  1  0
 12 13  2  0
 12 14  1  0
 11  7  1  0
  1 15  1  0
  1 16  1  0
  1 17  1  0
  2 18  1  1
  3 19  1  0
  3 20  1  0
  4 21  1  0
  8 22  1  0
  8 23  1  0
  9 24  1  0
  9 25  1  0
 10 26  1  0
 10 27  1  0
 11 28  1  6
 14 29  1  0
M  END
$$$$
