
     RDKit          3D

 63 67  0  0  0  0  0  0  0  0999 V2000
    5.2889   -1.0007    2.8061 O   0  0  0  0  0  0  0  0  0  0  0  0
    5.6178   -0.7042    1.6360 C   0  0  0  0  0  0  0  0  0  0  0  0
    6.8276   -0.8751    1.1082 N   0  0  0  0  0  0  0  0  0  0  0  0
    6.7977   -0.4393   -0.1684 C   0  0  0  0  0  0  0  0  0  0  0  0
    7.7414   -0.3771   -1.1697 C   0  0  0  0  0  0  0  0  0  0  0  0
    7.4372    0.1242   -2.4120 C   0  0  0  0  0  0  0  0  0  0  0  0
    6.1512    0.5614   -2.6124 C   0  0  0  0  0  0  0  0  0  0  0  0
    5.1969    0.5084   -1.6297 C   0  0  0  0  0  0  0  0  0  0  0  0
    5.4962    0.0069   -0.3846 C   0  0  0  0  0  0  0  0  0  0  0  0
    4.7622   -0.1536    0.7240 N   0  0  0  0  0  0  0  0  0  0  0  0
    3.3799    0.1534    0.9411 C   0  0  0  0  0  0  0  0  0  0  0  0
    2.5295   -0.7982    0.1460 C   0  0  0  0  0  0  0  0  0  0  0  0
    1.0506   -0.4966    0.4392 C   0  0  0  0  0  0  0  0  0  0  0  0
    0.7126    0.8276    0.1081 N   0  0  0  0  0  0  0  0  0  0  0  0
   -0.3398    0.9668   -0.8094 C   0  0  0  0  0  0  0  0  0  0  0  0
   -1.7474    0.6947   -0.4010 C   0  0  0  0  0  0  0  0  0  0  0  0
   -1.9760   -0.6758    0.0785 C   0  0  0  0  0  0  0  0  0  0  0  0
   -3.4154   -0.9836    0.4590 C   0  0  0  0  0  0  0  0  0  0  0  0
   -3.9570   -0.1512    1.5380 C   0  0  0  0  0  0  0  0  0  0  0  0
   -3.1531    0.5037    2.4398 C   0  0  0  0  0  0  0  0  0  0  0  0
   -3.7296    1.2824    3.4205 C   0  0  0  0  0  0  0  0  0  0  0  0
   -5.1009    1.4064    3.5002 C   0  0  0  0  0  0  0  0  0  0  0  0
   -5.7104    2.1581    4.4463 F   0  0  0  0  0  0  0  0  0  0  0  0
   -5.8846    0.7392    2.5843 C   0  0  0  0  0  0  0  0  0  0  0  0
   -5.3429   -0.0444    1.5953 C   0  0  0  0  0  0  0  0  0  0  0  0
   -4.3129   -1.0943   -0.7137 C   0  0  0  0  0  0  0  0  0  0  0  0
   -4.6275   -2.3316   -1.2685 C   0  0  0  0  0  0  0  0  0  0  0  0
   -5.4662   -2.4557   -2.3462 C   0  0  0  0  0  0  0  0  0  0  0  0
   -6.0118   -1.3174   -2.8922 C   0  0  0  0  0  0  0  0  0  0  0  0
   -6.8419   -1.4564   -3.9615 F   0  0  0  0  0  0  0  0  0  0  0  0
   -5.6986   -0.1011   -2.3410 C   0  0  0  0  0  0  0  0  0  0  0  0
   -4.8583    0.0325   -1.2602 C   0  0  0  0  0  0  0  0  0  0  0  0
    1.7901    1.7275   -0.1460 C   0  0  0  0  0  0  0  0  0  0  0  0
    2.9747    1.5657    0.7324 C   0  0  0  0  0  0  0  0  0  0  0  0
    7.7053   -1.2665    1.5226 H   0  0  0  0  0  0  0  0  0  0  0  0
    8.7516   -0.7251   -1.0017 H   0  0  0  0  0  0  0  0  0  0  0  0
    8.1861    0.1748   -3.2183 H   0  0  0  0  0  0  0  0  0  0  0  0
    5.8795    0.9605   -3.5782 H   0  0  0  0  0  0  0  0  0  0  0  0
    4.1784    0.8542   -1.7829 H   0  0  0  0  0  0  0  0  0  0  0  0
    3.1459   -0.0878    2.0244 H   0  0  0  0  0  0  0  0  0  0  0  0
    2.6899   -0.7926   -0.9306 H   0  0  0  0  0  0  0  0  0  0  0  0
    2.7408   -1.8143    0.5191 H   0  0  0  0  0  0  0  0  0  0  0  0
    0.5196   -1.2746   -0.1628 H   0  0  0  0  0  0  0  0  0  0  0  0
    0.8570   -0.7094    1.5046 H   0  0  0  0  0  0  0  0  0  0  0  0
   -0.1761    0.2823   -1.7236 H   0  0  0  0  0  0  0  0  0  0  0  0
   -0.2824    1.9899   -1.3410 H   0  0  0  0  0  0  0  0  0  0  0  0
   -2.3669    0.9481   -1.3144 H   0  0  0  0  0  0  0  0  0  0  0  0
   -2.0340    1.4922    0.3281 H   0  0  0  0  0  0  0  0  0  0  0  0
   -1.4023   -0.8719    1.0064 H   0  0  0  0  0  0  0  0  0  0  0  0
   -1.7263   -1.4001   -0.7096 H   0  0  0  0  0  0  0  0  0  0  0  0
   -3.3524   -2.0272    0.9017 H   0  0  0  0  0  0  0  0  0  0  0  0
   -2.0666    0.4315    2.4249 H   0  0  0  0  0  0  0  0  0  0  0  0
   -3.1222    1.8094    4.1446 H   0  0  0  0  0  0  0  0  0  0  0  0
   -6.9768    0.8496    2.6641 H   0  0  0  0  0  0  0  0  0  0  0  0
   -6.0149   -0.5396    0.9114 H   0  0  0  0  0  0  0  0  0  0  0  0
   -4.1775   -3.2290   -0.8154 H   0  0  0  0  0  0  0  0  0  0  0  0
   -5.6795   -3.4396   -2.7443 H   0  0  0  0  0  0  0  0  0  0  0  0
   -6.1493    0.7892   -2.7962 H   0  0  0  0  0  0  0  0  0  0  0  0
   -4.6725    1.0507   -0.8809 H   0  0  0  0  0  0  0  0  0  0  0  0
    2.0474    1.6893   -1.2379 H   0  0  0  0  0  0  0  0  0  0  0  0
    1.3765    2.7661    0.0851 H   0  0  0  0  0  0  0  0  0  0  0  0
    2.7465    2.0875    1.7130 H   0  0  0  0  0  0  0  0  0  0  0  0
    3.7944    2.1999    0.3016 H   0  0  0  0  0  0  0  0  0  0  0  0
  1  2  2  0
  2  3  1  0
  3  4  1  0
  4  5  2  0
  5  6  1  0
  6  7  2  0
  7  8  1  0
  8  9  2  0
  9 10  1  0
 10 11  1  0
 11 12  1  0
 12 13  1  0
 13 14  1  0
 14 15  1  0
 15 16  1  0
 16 17  1  0
 17 18  1  0
 18 19  1  0
 19 20  2  0
 20 21  1  0
 21 22  2  0
 22 23  1  0
 22 24  1  0
 24 25  2  0
 18 26  1  0
 26 27  2  0
 27 28  1  0
 28 29  2  0
 29 30  1  0
 29 31  1  0
 31 32  2  0
 14 33  1  0
 33 34  1  0
 10  2  1  0
 34 11  1  0
  9  4  1  0
 25 19  1  0
 32 26  1  0
  3 35  1  0
  5 36  1  0
  6 37  1  0
  7 38  1  0
  8 39  1  0
 11 40  1  0
 12 41  1  0
 12 42  1  0
 13 43  1  0
 13 44  1  0
 15 45  1  0
 15 46  1  0
 16 47  1  0
 16 48  1  0
 17 49  1  0
 17 50  1  0
 18 51  1  0
 20 52  1  0
 21 53  1  0
 24 54  1  0
 25 55  1  0
 27 56  1  0
 28 57  1  0
 31 58  1  0
 32 59  1  0
 33 60  1  0
 33 61  1  0
 34 62  1  0
 34 63  1  0
M  END
$$$$
