
     RDKit          3D

 46 50  0  0  0  0  0  0  0  0999 V2000
   -5.2132    3.5349   -0.9287 C   0  0  0  0  0  0  0  0  0  0  0  0
   -5.5720    2.3673   -0.2235 O   0  0  0  0  0  0  0  0  0  0  0  0
   -4.6949    1.2859   -0.2297 C   0  0  0  0  0  0  0  0  0  0  0  0
   -3.4961    1.3204   -0.8980 C   0  0  0  0  0  0  0  0  0  0  0  0
   -2.6001    0.2682   -0.9272 C   0  0  0  0  0  0  0  0  0  0  0  0
   -2.9125   -0.8898   -0.2516 C   0  0  0  0  0  0  0  0  0  0  0  0
   -1.9931   -1.9459   -0.2918 C   0  0  0  0  0  0  0  0  0  0  0  0
   -0.8503   -1.7471   -1.0043 O   0  0  0  0  0  0  0  0  0  0  0  0
    0.2377   -2.5458   -1.2253 C   0  0  0  0  0  0  0  0  0  0  0  0
    0.9818   -2.8437    0.0324 C   0  0  0  0  0  0  0  0  0  0  0  0
    0.9199   -3.8588    0.8955 N   0  0  0  0  0  0  0  0  0  0  0  0
    1.7756   -3.7111    1.8857 N   0  0  0  0  0  0  0  0  0  0  0  0
    2.4307   -2.5694    1.6865 C   0  0  0  0  0  0  0  0  0  0  0  0
    3.4399   -1.8978    2.3913 C   0  0  0  0  0  0  0  0  0  0  0  0
    3.8666   -0.7063    1.8447 C   0  0  0  0  0  0  0  0  0  0  0  0
    3.3673   -0.1674    0.6852 C   0  0  0  0  0  0  0  0  0  0  0  0
    3.8385    1.1040    0.1230 C   0  0  0  0  0  0  0  0  0  0  0  0
    4.8125    1.8902    0.6749 C   0  0  0  0  0  0  0  0  0  0  0  0
    5.2449    3.0805    0.1369 C   0  0  0  0  0  0  0  0  0  0  0  0
    6.2095    3.8391    0.7021 F   0  0  0  0  0  0  0  0  0  0  0  0
    4.6712    3.5233   -1.0313 C   0  0  0  0  0  0  0  0  0  0  0  0
    3.6858    2.7695   -1.6283 C   0  0  0  0  0  0  0  0  0  0  0  0
    3.1346    3.2345   -2.7875 F   0  0  0  0  0  0  0  0  0  0  0  0
    3.2733    1.5811   -1.0659 C   0  0  0  0  0  0  0  0  0  0  0  0
    2.3995   -0.8784    0.0716 N   0  0  0  0  0  0  0  0  0  0  0  0
    1.9566   -2.0293    0.5591 N   0  0  0  0  0  0  0  0  0  0  0  0
   -2.3434   -3.0745    0.3905 C   0  0  0  0  0  0  0  0  0  0  0  0
   -3.5507   -3.1257    1.0714 C   0  0  0  0  0  0  0  0  0  0  0  0
   -4.4024   -2.0895    1.0840 N   0  0  0  0  0  0  0  0  0  0  0  0
   -4.1050   -0.9450    0.4224 C   0  0  0  0  0  0  0  0  0  0  0  0
   -5.0041    0.1280    0.4442 C   0  0  0  0  0  0  0  0  0  0  0  0
   -5.9365    4.3505   -0.7503 H   0  0  0  0  0  0  0  0  0  0  0  0
   -4.2185    3.8798   -0.6077 H   0  0  0  0  0  0  0  0  0  0  0  0
   -5.1375    3.2744   -2.0163 H   0  0  0  0  0  0  0  0  0  0  0  0
   -3.2326    2.2270   -1.4373 H   0  0  0  0  0  0  0  0  0  0  0  0
   -1.6787    0.3464   -1.4635 H   0  0  0  0  0  0  0  0  0  0  0  0
    0.9341   -2.0458   -1.9442 H   0  0  0  0  0  0  0  0  0  0  0  0
   -0.0788   -3.5442   -1.6221 H   0  0  0  0  0  0  0  0  0  0  0  0
    3.8187   -2.3245    3.2875 H   0  0  0  0  0  0  0  0  0  0  0  0
    4.6465   -0.1590    2.3632 H   0  0  0  0  0  0  0  0  0  0  0  0
    5.2796    1.5685    1.5899 H   0  0  0  0  0  0  0  0  0  0  0  0
    4.9825    4.4616   -1.4943 H   0  0  0  0  0  0  0  0  0  0  0  0
    2.5027    0.9969   -1.5378 H   0  0  0  0  0  0  0  0  0  0  0  0
   -1.6744   -3.9249    0.3734 H   0  0  0  0  0  0  0  0  0  0  0  0
   -3.8043   -4.0290    1.6038 H   0  0  0  0  0  0  0  0  0  0  0  0
   -5.9110    0.0209    0.9852 H   0  0  0  0  0  0  0  0  0  0  0  0
  1  2  1  0
  2  3  1  0
  3  4  2  0
  4  5  1  0
  5  6  2  0
  6  7  1  0
  7  8  1  0
  8  9  1  0
  9 10  1  0
 10 11  2  0
 11 12  1  0
 12 13  2  0
 13 14  1  0
 14 15  2  0
 15 16  1  0
 16 17  1  0
 17 18  2  0
 18 19  1  0
 19 20  1  0
 19 21  2  0
 21 22  1  0
 22 23  1  0
 22 24  2  0
 16 25  2  0
 25 26  1  0
  7 27  2  0
 27 28  1  0
 28 29  2  0
 29 30  1  0
 30 31  2  0
 31  3  1  0
 30  6  1  0
 26 10  1  0
 26 13  1  0
 24 17  1  0
  1 32  1  0
  1 33  1  0
  1 34  1  0
  4 35  1  0
  5 36  1  0
  9 37  1  0
  9 38  1  0
 14 39  1  0
 15 40  1  0
 18 41  1  0
 21 42  1  0
 24 43  1  0
 27 44  1  0
 28 45  1  0
 31 46  1  0
M  END
$$$$
