
     RDKit          3D

 37 39  0  0  0  0  0  0  0  0999 V2000
    0.2972    4.8216   -0.6746 C   0  0  0  0  0  0  0  0  0  0  0  0
    0.5149    3.9201    0.8796 S   0  0  0  0  0  0  0  0  0  0  0  0
    0.8384    2.1845    0.5626 C   0  0  0  0  0  0  0  0  0  0  0  0
    2.0398    1.5831    0.3786 N   0  0  0  0  0  0  0  0  0  0  0  0
    1.8729    0.2660    0.1662 C   0  0  0  0  0  0  0  0  0  0  0  0
    2.8482   -0.7890   -0.0794 C   0  0  0  0  0  0  0  0  0  0  0  0
    3.4070   -0.9766   -1.3276 C   0  0  0  0  0  0  0  0  0  0  0  0
    4.3309   -1.9784   -1.5542 C   0  0  0  0  0  0  0  0  0  0  0  0
    4.7402   -2.8361   -0.5549 C   0  0  0  0  0  0  0  0  0  0  0  0
    5.9188   -4.1091   -0.8572 Cl  0  0  0  0  0  0  0  0  0  0  0  0
    4.1839   -2.6515    0.6939 C   0  0  0  0  0  0  0  0  0  0  0  0
    3.2562   -1.6466    0.9239 C   0  0  0  0  0  0  0  0  0  0  0  0
    0.5367    0.0757    0.2249 N   0  0  0  0  0  0  0  0  0  0  0  0
   -0.0795    1.2095    0.4595 N   0  0  0  0  0  0  0  0  0  0  0  0
   -1.4778    1.4064    0.5880 C   0  0  0  0  0  0  0  0  0  0  0  0
   -1.9669    2.5544    0.8191 O   0  0  0  0  0  0  0  0  0  0  0  0
   -2.4275    0.3436    0.4691 N   0  0  0  0  0  0  0  0  0  0  0  0
   -3.8331    0.5746    0.6076 C   0  0  0  0  0  0  0  0  0  0  0  0
   -4.7065   -0.5805    0.1915 C   0  0  0  0  0  0  0  0  0  0  0  0
   -4.1643   -1.7488    0.7310 O   0  0  0  0  0  0  0  0  0  0  0  0
   -2.9778   -2.0287    0.0848 C   0  0  0  0  0  0  0  0  0  0  0  0
   -1.9244   -0.9804    0.2018 C   0  0  0  0  0  0  0  0  0  0  0  0
    0.7588    5.8245   -0.6491 H   0  0  0  0  0  0  0  0  0  0  0  0
    0.7717    4.2633   -1.5098 H   0  0  0  0  0  0  0  0  0  0  0  0
   -0.8089    4.9078   -0.8560 H   0  0  0  0  0  0  0  0  0  0  0  0
    3.0944   -0.3081   -2.1267 H   0  0  0  0  0  0  0  0  0  0  0  0
    4.7722   -2.1309   -2.5286 H   0  0  0  0  0  0  0  0  0  0  0  0
    4.4930   -3.3152    1.4905 H   0  0  0  0  0  0  0  0  0  0  0  0
    2.8160   -1.5013    1.9137 H   0  0  0  0  0  0  0  0  0  0  0  0
   -4.1165    0.7896    1.6821 H   0  0  0  0  0  0  0  0  0  0  0  0
   -4.1212    1.4884    0.0362 H   0  0  0  0  0  0  0  0  0  0  0  0
   -4.8366   -0.6363   -0.9066 H   0  0  0  0  0  0  0  0  0  0  0  0
   -5.7081   -0.4158    0.6401 H   0  0  0  0  0  0  0  0  0  0  0  0
   -2.5811   -2.9812    0.5445 H   0  0  0  0  0  0  0  0  0  0  0  0
   -3.1983   -2.3119   -0.9692 H   0  0  0  0  0  0  0  0  0  0  0  0
   -1.2394   -1.2748    1.0443 H   0  0  0  0  0  0  0  0  0  0  0  0
   -1.3234   -1.0118   -0.7396 H   0  0  0  0  0  0  0  0  0  0  0  0
  1  2  1  0
  2  3  1  0
  3  4  2  0
  4  5  1  0
  5  6  1  0
  6  7  2  0
  7  8  1  0
  8  9  2  0
  9 10  1  0
  9 11  1  0
 11 12  2  0
  5 13  2  0
 13 14  1  0
 14 15  1  0
 15 16  2  0
 15 17  1  0
 17 18  1  0
 18 19  1  0
 19 20  1  0
 20 21  1  0
 21 22  1  0
 14  3  1  0
 22 17  1  0
 12  6  1  0
  1 23  1  0
  1 24  1  0
  1 25  1  0
  7 26  1  0
  8 27  1  0
 11 28  1  0
 12 29  1  0
 18 30  1  0
 18 31  1  0
 19 32  1  0
 19 33  1  0
 21 34  1  0
 21 35  1  0
 22 36  1  0
 22 37  1  0
M  END
$$$$
