
     RDKit          3D

 45 48  0  0  0  0  0  0  0  0999 V2000
    1.0971   -1.1524    1.3250 O   0  0  0  0  0  0  0  0  0  0  0  0
    1.6309   -0.4889    0.3677 C   0  0  0  0  0  0  0  0  0  0  0  0
    0.8361   -0.3379   -0.8428 C   0  0  0  0  0  0  0  0  0  0  0  0
   -0.4708   -1.0869   -0.7444 C   0  0  0  0  0  0  0  0  0  0  0  0
   -1.5215   -0.4330   -0.2310 N   0  0  0  0  0  0  0  0  0  0  0  0
   -2.7404   -1.0157   -0.0986 C   0  0  0  0  0  0  0  0  0  0  0  0
   -3.8442   -0.3053    0.4492 N   0  0  0  0  0  0  0  0  0  0  0  0
   -3.6475    1.0714    0.9274 C   0  0  0  0  0  0  0  0  0  0  0  0
   -4.7625    1.9192    0.3399 C   0  0  0  0  0  0  0  0  0  0  0  0
   -5.9482    1.4467    0.9070 O   0  0  0  0  0  0  0  0  0  0  0  0
   -6.2297    0.2337    0.3281 C   0  0  0  0  0  0  0  0  0  0  0  0
   -5.1808   -0.8316    0.5791 C   0  0  0  0  0  0  0  0  0  0  0  0
   -2.8233   -2.3208   -0.5265 C   0  0  0  0  0  0  0  0  0  0  0  0
   -1.7092   -2.9834   -1.0604 C   0  0  0  0  0  0  0  0  0  0  0  0
   -1.8168   -4.1739   -1.4422 O   0  0  0  0  0  0  0  0  0  0  0  0
   -0.5241   -2.3588   -1.1691 N   0  0  0  0  0  0  0  0  0  0  0  0
    2.9146    0.0053    0.6115 N   0  0  0  0  0  0  0  0  0  0  0  0
    3.7243   -0.0997    1.8427 C   0  0  0  0  0  0  0  0  0  0  0  0
    5.0752   -0.3773    1.2281 C   0  0  0  0  0  0  0  0  0  0  0  0
    5.0804    0.5338    0.0578 C   0  0  0  0  0  0  0  0  0  0  0  0
    6.1199    1.1267   -0.6445 C   0  0  0  0  0  0  0  0  0  0  0  0
    5.8262    1.9427   -1.7205 C   0  0  0  0  0  0  0  0  0  0  0  0
    4.5176    2.1651   -2.0918 C   0  0  0  0  0  0  0  0  0  0  0  0
    3.5076    1.5537   -1.3636 C   0  0  0  0  0  0  0  0  0  0  0  0
    3.7407    0.7290   -0.2800 C   0  0  0  0  0  0  0  0  0  0  0  0
    0.5342    0.7506   -0.9443 H   0  0  0  0  0  0  0  0  0  0  0  0
    1.3077   -0.7229   -1.7697 H   0  0  0  0  0  0  0  0  0  0  0  0
   -3.7037    1.1312    2.0219 H   0  0  0  0  0  0  0  0  0  0  0  0
   -2.6978    1.4621    0.5132 H   0  0  0  0  0  0  0  0  0  0  0  0
   -4.8156    1.7375   -0.7526 H   0  0  0  0  0  0  0  0  0  0  0  0
   -4.5931    2.9845    0.4977 H   0  0  0  0  0  0  0  0  0  0  0  0
   -7.1993   -0.1997    0.6409 H   0  0  0  0  0  0  0  0  0  0  0  0
   -6.3112    0.3925   -0.7795 H   0  0  0  0  0  0  0  0  0  0  0  0
   -5.2906   -1.1459    1.6466 H   0  0  0  0  0  0  0  0  0  0  0  0
   -5.3494   -1.6403   -0.1341 H   0  0  0  0  0  0  0  0  0  0  0  0
   -3.7733   -2.8571   -0.4503 H   0  0  0  0  0  0  0  0  0  0  0  0
    0.3112   -2.8601   -1.5710 H   0  0  0  0  0  0  0  0  0  0  0  0
    3.7370    0.8610    2.3763 H   0  0  0  0  0  0  0  0  0  0  0  0
    3.4149   -0.9568    2.4563 H   0  0  0  0  0  0  0  0  0  0  0  0
    5.1159   -1.4122    0.8312 H   0  0  0  0  0  0  0  0  0  0  0  0
    5.9078   -0.1645    1.9289 H   0  0  0  0  0  0  0  0  0  0  0  0
    7.1439    0.9581   -0.3610 H   0  0  0  0  0  0  0  0  0  0  0  0
    6.6394    2.4047   -2.2674 H   0  0  0  0  0  0  0  0  0  0  0  0
    4.2723    2.7972   -2.9264 H   0  0  0  0  0  0  0  0  0  0  0  0
    2.4981    1.7185   -1.6420 H   0  0  0  0  0  0  0  0  0  0  0  0
  1  2  2  0
  2  3  1  0
  3  4  1  0
  4  5  2  0
  5  6  1  0
  6  7  1  0
  7  8  1  0
  8  9  1  0
  9 10  1  0
 10 11  1  0
 11 12  1  0
  6 13  2  0
 13 14  1  0
 14 15  2  0
 14 16  1  0
  2 17  1  0
 17 18  1  0
 18 19  1  0
 19 20  1  0
 20 21  2  0
 21 22  1  0
 22 23  2  0
 23 24  1  0
 24 25  2  0
 16  4  1  0
 25 17  1  0
 12  7  1  0
 25 20  1  0
  3 26  1  0
  3 27  1  0
  8 28  1  0
  8 29  1  0
  9 30  1  0
  9 31  1  0
 11 32  1  0
 11 33  1  0
 12 34  1  0
 12 35  1  0
 13 36  1  0
 16 37  1  0
 18 38  1  0
 18 39  1  0
 19 40  1  0
 19 41  1  0
 21 42  1  0
 22 43  1  0
 23 44  1  0
 24 45  1  0
M  END
$$$$
