
     RDKit          3D

 63 66  0  0  0  0  0  0  0  0999 V2000
   -0.7055    4.7479    0.0377 C   0  0  0  0  0  0  0  0  0  0  0  0
    0.6743    4.1842    0.2373 C   0  0  0  0  0  0  0  0  0  0  0  0
    0.7062    2.7948    0.3826 O   0  0  0  0  0  0  0  0  0  0  0  0
    0.2581    1.8979   -0.5699 C   0  0  0  0  0  0  0  0  0  0  0  0
   -0.1986    2.4455   -1.6186 O   0  0  0  0  0  0  0  0  0  0  0  0
    0.2838    0.4229   -0.4337 C   0  0  0  0  0  0  0  0  0  0  0  0
   -0.4830    0.0246    0.8177 C   0  0  0  0  0  0  0  0  0  0  0  0
   -1.8911    0.4602    0.7700 C   0  0  0  0  0  0  0  0  0  0  0  0
   -2.8254   -0.4114    0.2182 C   0  0  0  0  0  0  0  0  0  0  0  0
   -4.1774   -0.1237    0.1140 C   0  0  0  0  0  0  0  0  0  0  0  0
   -4.6327    1.1010    0.5845 C   0  0  0  0  0  0  0  0  0  0  0  0
   -3.7330    1.9866    1.1367 C   0  0  0  0  0  0  0  0  0  0  0  0
   -2.4066    1.6572    1.2177 C   0  0  0  0  0  0  0  0  0  0  0  0
   -5.9788    1.3815    0.4782 C   0  0  0  0  0  0  0  0  0  0  0  0
   -6.8979    0.5163   -0.0682 C   0  0  0  0  0  0  0  0  0  0  0  0
   -6.4184   -0.6926   -0.5274 C   0  0  0  0  0  0  0  0  0  0  0  0
   -5.0693   -0.9983   -0.4319 C   0  0  0  0  0  0  0  0  0  0  0  0
   -7.3586   -1.6590   -1.1228 C   0  0  0  0  0  0  0  0  0  0  0  0
   -8.2891   -1.0313   -2.0622 N   0  0  0  0  0  0  0  0  0  0  0  0
   -8.1323   -2.2690   -0.0430 N   0  0  0  0  0  0  0  0  0  0  0  0
    1.7012    0.0131   -0.2496 C   0  0  0  0  0  0  0  0  0  0  0  0
    2.3230   -0.8366   -1.1398 C   0  0  0  0  0  0  0  0  0  0  0  0
    3.6271   -1.2333   -0.9982 C   0  0  0  0  0  0  0  0  0  0  0  0
    4.3869   -0.7912    0.0603 C   0  0  0  0  0  0  0  0  0  0  0  0
    5.6887   -1.0060    0.4643 O   0  0  0  0  0  0  0  0  0  0  0  0
    6.5327   -1.8271   -0.2624 C   0  0  0  0  0  0  0  0  0  0  0  0
    7.0852   -2.9846    0.5653 C   0  0  0  0  0  0  0  0  0  0  0  0
    8.2489   -3.3832   -0.3490 C   0  0  0  0  0  0  0  0  0  0  0  0
    8.9019   -2.0672   -0.4435 N   0  0  0  0  0  0  0  0  0  0  0  0
    7.8234   -1.1487   -0.6734 C   0  0  0  0  0  0  0  0  0  0  0  0
    3.7726    0.0686    0.9694 C   0  0  0  0  0  0  0  0  0  0  0  0
    2.4418    0.4689    0.8184 C   0  0  0  0  0  0  0  0  0  0  0  0
   -1.4141    4.0635   -0.4495 H   0  0  0  0  0  0  0  0  0  0  0  0
   -0.6021    5.6662   -0.5845 H   0  0  0  0  0  0  0  0  0  0  0  0
   -1.1368    4.9582    1.0428 H   0  0  0  0  0  0  0  0  0  0  0  0
    1.3702    4.5471   -0.5606 H   0  0  0  0  0  0  0  0  0  0  0  0
    1.0858    4.6130    1.1845 H   0  0  0  0  0  0  0  0  0  0  0  0
   -0.1745   -0.0215   -1.3174 H   0  0  0  0  0  0  0  0  0  0  0  0
    0.0141    0.4293    1.7165 H   0  0  0  0  0  0  0  0  0  0  0  0
   -0.4732   -1.0773    0.9429 H   0  0  0  0  0  0  0  0  0  0  0  0
   -2.4874   -1.3678   -0.1523 H   0  0  0  0  0  0  0  0  0  0  0  0
   -4.0834    2.9307    1.4995 H   0  0  0  0  0  0  0  0  0  0  0  0
   -1.6915    2.3467    1.6503 H   0  0  0  0  0  0  0  0  0  0  0  0
   -6.2916    2.3458    0.8565 H   0  0  0  0  0  0  0  0  0  0  0  0
   -7.9484    0.7594   -0.1403 H   0  0  0  0  0  0  0  0  0  0  0  0
   -4.6768   -1.9449   -0.7886 H   0  0  0  0  0  0  0  0  0  0  0  0
   -6.7866   -2.4477   -1.6410 H   0  0  0  0  0  0  0  0  0  0  0  0
   -7.7751   -0.3852   -2.7012 H   0  0  0  0  0  0  0  0  0  0  0  0
   -8.7413   -1.7619   -2.6288 H   0  0  0  0  0  0  0  0  0  0  0  0
   -8.5229   -1.4856    0.5111 H   0  0  0  0  0  0  0  0  0  0  0  0
   -8.8364   -2.9474   -0.4079 H   0  0  0  0  0  0  0  0  0  0  0  0
    1.8073   -1.2356   -2.0017 H   0  0  0  0  0  0  0  0  0  0  0  0
    4.1908   -1.8899   -1.6405 H   0  0  0  0  0  0  0  0  0  0  0  0
    6.0976   -2.2830   -1.1625 H   0  0  0  0  0  0  0  0  0  0  0  0
    6.3636   -3.7977    0.6999 H   0  0  0  0  0  0  0  0  0  0  0  0
    7.5491   -2.6239    1.4985 H   0  0  0  0  0  0  0  0  0  0  0  0
    7.8444   -3.6309   -1.3423 H   0  0  0  0  0  0  0  0  0  0  0  0
    8.9004   -4.1462    0.0943 H   0  0  0  0  0  0  0  0  0  0  0  0
    9.2448   -1.8918    0.5416 H   0  0  0  0  0  0  0  0  0  0  0  0
    7.9949   -0.2234   -0.0817 H   0  0  0  0  0  0  0  0  0  0  0  0
    7.8094   -0.8627   -1.7604 H   0  0  0  0  0  0  0  0  0  0  0  0
    4.1959    0.5245    1.8630 H   0  0  0  0  0  0  0  0  0  0  0  0
    1.9158    1.1316    1.4905 H   0  0  0  0  0  0  0  0  0  0  0  0
  1  2  1  0
  2  3  1  0
  3  4  1  0
  4  5  2  0
  4  6  1  0
  6  7  1  0
  7  8  1  0
  8  9  2  0
  9 10  1  0
 10 11  2  0
 11 12  1  0
 12 13  2  0
 11 14  1  0
 14 15  2  0
 15 16  1  0
 16 17  2  0
 16 18  1  0
 18 19  1  0
 18 20  1  0
  6 21  1  0
 21 22  2  0
 22 23  1  0
 23 24  2  0
 24 25  1  0
 25 26  1  0
 26 27  1  0
 27 28  1  0
 28 29  1  0
 29 30  1  0
 24 31  1  0
 31 32  2  0
 13  8  1  0
 32 21  1  0
 17 10  1  0
 30 26  1  0
  1 33  1  0
  1 34  1  0
  1 35  1  0
  2 36  1  0
  2 37  1  0
  6 38  1  0
  7 39  1  0
  7 40  1  0
  9 41  1  0
 12 42  1  0
 13 43  1  0
 14 44  1  0
 15 45  1  0
 17 46  1  0
 18 47  1  0
 19 48  1  0
 19 49  1  0
 20 50  1  0
 20 51  1  0
 22 52  1  0
 23 53  1  0
 26 54  1  0
 27 55  1  0
 27 56  1  0
 28 57  1  0
 28 58  1  0
 29 59  1  0
 30 60  1  0
 30 61  1  0
 31 62  1  0
 32 63  1  0
M  END
$$$$
