
     RDKit          3D

 68 73  0  0  0  0  0  0  0  0999 V2000
   -7.5157    3.1404    0.1810 C   0  0  0  0  0  0  0  0  0  0  0  0
   -7.3454    2.0914    1.2345 C   0  0  0  0  0  0  0  0  0  0  0  0
   -8.4075    1.8178    1.9149 N   0  0  0  0  0  0  0  0  0  0  0  0
   -6.0333    1.5155    1.3665 N   0  0  0  0  0  0  0  0  0  0  0  0
   -4.8866    2.3097    1.0371 C   0  0  0  0  0  0  0  0  0  0  0  0
   -4.0118    1.7102   -0.0103 C   0  0  0  0  0  0  0  0  0  0  0  0
   -3.8429    0.2161    0.0868 C   0  0  0  0  0  0  0  0  0  0  0  0
   -5.0730   -0.5029    0.5918 C   0  0  0  0  0  0  0  0  0  0  0  0
   -5.6435    0.1888    1.8012 C   0  0  0  0  0  0  0  0  0  0  0  0
   -3.4512   -0.3596   -1.1354 O   0  0  0  0  0  0  0  0  0  0  0  0
   -2.2439   -1.0042   -1.2973 C   0  0  0  0  0  0  0  0  0  0  0  0
   -2.1844   -1.4559   -2.6238 C   0  0  0  0  0  0  0  0  0  0  0  0
   -1.0694   -2.1564   -3.1036 C   0  0  0  0  0  0  0  0  0  0  0  0
    0.0011   -2.4177   -2.2736 C   0  0  0  0  0  0  0  0  0  0  0  0
   -0.0785   -1.9646   -0.9739 C   0  0  0  0  0  0  0  0  0  0  0  0
   -1.1654   -1.2748   -0.4837 C   0  0  0  0  0  0  0  0  0  0  0  0
    1.0398   -2.2998   -0.3039 N   0  0  0  0  0  0  0  0  0  0  0  0
    1.3926   -2.0245    1.0963 C   0  0  0  0  0  0  0  0  0  0  0  0
    2.1101   -0.7297    1.2218 C   0  0  0  0  0  0  0  0  0  0  0  0
    1.4361    0.4603    1.4335 C   0  0  0  0  0  0  0  0  0  0  0  0
    2.0391    1.6922    1.5579 C   0  0  0  0  0  0  0  0  0  0  0  0
    3.4142    1.7600    1.4670 C   0  0  0  0  0  0  0  0  0  0  0  0
    4.0279    3.0019    1.5918 C   0  0  0  0  0  0  0  0  0  0  0  0
    5.4029    2.9889    1.4897 C   0  0  0  0  0  0  0  0  0  0  0  0
    6.1679    1.8625    1.2800 C   0  0  0  0  0  0  0  0  0  0  0  0
    5.5196    0.6379    1.1601 C   0  0  0  0  0  0  0  0  0  0  0  0
    4.1416    0.6066    1.2563 C   0  0  0  0  0  0  0  0  0  0  0  0
    3.4703   -0.6006    1.1403 C   0  0  0  0  0  0  0  0  0  0  0  0
    7.6118    2.0039    1.1933 C   0  0  0  0  0  0  0  0  0  0  0  0
    8.4441    0.9351    1.6178 N   0  0  0  0  0  0  0  0  0  0  0  0
    8.1736    3.0743    0.7409 N   0  0  0  0  0  0  0  0  0  0  0  0
    1.8421   -2.9685   -1.1661 C   0  0  0  0  0  0  0  0  0  0  0  0
    1.2195   -3.0538   -2.3922 C   0  0  0  0  0  0  0  0  0  0  0  0
    1.7603   -3.6764   -3.5117 C   0  0  0  0  0  0  0  0  0  0  0  0
    3.0238   -4.2532   -3.3746 C   0  0  0  0  0  0  0  0  0  0  0  0
    3.6966   -4.1942   -2.1536 C   0  0  0  0  0  0  0  0  0  0  0  0
    3.0882   -3.5537   -1.0821 C   0  0  0  0  0  0  0  0  0  0  0  0
   -8.4112    2.9422   -0.4289 H   0  0  0  0  0  0  0  0  0  0  0  0
   -7.5041    4.1189    0.6900 H   0  0  0  0  0  0  0  0  0  0  0  0
   -6.6567    3.1203   -0.5469 H   0  0  0  0  0  0  0  0  0  0  0  0
   -8.4389    1.1118    2.6775 H   0  0  0  0  0  0  0  0  0  0  0  0
   -4.2631    2.3412    1.9795 H   0  0  0  0  0  0  0  0  0  0  0  0
   -5.1345    3.3579    0.8390 H   0  0  0  0  0  0  0  0  0  0  0  0
   -4.4325    1.9479   -1.0064 H   0  0  0  0  0  0  0  0  0  0  0  0
   -2.9982    2.1918    0.0059 H   0  0  0  0  0  0  0  0  0  0  0  0
   -3.0573    0.0467    0.8479 H   0  0  0  0  0  0  0  0  0  0  0  0
   -5.8700   -0.5834   -0.1551 H   0  0  0  0  0  0  0  0  0  0  0  0
   -4.7971   -1.5243    0.9112 H   0  0  0  0  0  0  0  0  0  0  0  0
   -4.8852    0.3056    2.6070 H   0  0  0  0  0  0  0  0  0  0  0  0
   -6.5096   -0.3937    2.1796 H   0  0  0  0  0  0  0  0  0  0  0  0
   -2.9176   -1.3524   -3.4301 H   0  0  0  0  0  0  0  0  0  0  0  0
   -0.9530   -2.5338   -4.1089 H   0  0  0  0  0  0  0  0  0  0  0  0
   -1.3229   -0.8843    0.5014 H   0  0  0  0  0  0  0  0  0  0  0  0
    0.4882   -1.9516    1.7402 H   0  0  0  0  0  0  0  0  0  0  0  0
    2.0321   -2.8099    1.5181 H   0  0  0  0  0  0  0  0  0  0  0  0
    0.3609    0.4864    1.5153 H   0  0  0  0  0  0  0  0  0  0  0  0
    1.4767    2.6017    1.7230 H   0  0  0  0  0  0  0  0  0  0  0  0
    3.4617    3.8975    1.7557 H   0  0  0  0  0  0  0  0  0  0  0  0
    5.8737    3.9657    1.5883 H   0  0  0  0  0  0  0  0  0  0  0  0
    6.1072   -0.2375    0.9976 H   0  0  0  0  0  0  0  0  0  0  0  0
    4.0780   -1.4733    0.9769 H   0  0  0  0  0  0  0  0  0  0  0  0
    9.0705    0.3500    2.2267 H   0  0  0  0  0  0  0  0  0  0  0  0
    8.5687    0.1764    0.8908 H   0  0  0  0  0  0  0  0  0  0  0  0
    7.5985    3.8959    0.4132 H   0  0  0  0  0  0  0  0  0  0  0  0
    1.2344   -3.7194   -4.4561 H   0  0  0  0  0  0  0  0  0  0  0  0
    3.4175   -4.7300   -4.2629 H   0  0  0  0  0  0  0  0  0  0  0  0
    4.6741   -4.6528   -2.0863 H   0  0  0  0  0  0  0  0  0  0  0  0
    3.6391   -3.5345   -0.1723 H   0  0  0  0  0  0  0  0  0  0  0  0
  1  2  1  0
  2  3  2  3
  2  4  1  0
  4  5  1  0
  5  6  1  0
  6  7  1  0
  7  8  1  0
  8  9  1  0
  7 10  1  0
 10 11  1  0
 11 12  2  0
 12 13  1  0
 13 14  2  0
 14 15  1  0
 15 16  2  0
 15 17  1  0
 17 18  1  0
 18 19  1  0
 19 20  2  0
 20 21  1  0
 21 22  2  0
 22 23  1  0
 23 24  2  0
 24 25  1  0
 25 26  2  0
 26 27  1  0
 27 28  2  0
 25 29  1  0
 29 30  1  0
 29 31  2  3
 17 32  1  0
 32 33  2  0
 33 34  1  0
 34 35  2  0
 35 36  1  0
 36 37  2  0
  9  4  1  0
 16 11  1  0
 28 19  1  0
 37 32  1  0
 33 14  1  0
 27 22  1  0
  1 38  1  0
  1 39  1  0
  1 40  1  0
  3 41  1  0
  5 42  1  0
  5 43  1  0
  6 44  1  0
  6 45  1  0
  7 46  1  0
  8 47  1  0
  8 48  1  0
  9 49  1  0
  9 50  1  0
 12 51  1  0
 13 52  1  0
 16 53  1  0
 18 54  1  0
 18 55  1  0
 20 56  1  0
 21 57  1  0
 23 58  1  0
 24 59  1  0
 26 60  1  0
 28 61  1  0
 30 62  1  0
 30 63  1  0
 31 64  1  0
 34 65  1  0
 35 66  1  0
 36 67  1  0
 37 68  1  0
M  END
$$$$
