
     RDKit          3D

 71 74  0  0  0  0  0  0  0  0999 V2000
    3.4885    1.5664   -2.9000 C   0  0  0  0  0  0  0  0  0  0  0  0
    4.4226    1.2447   -1.8757 O   0  0  0  0  0  0  0  0  0  0  0  0
    5.6310    0.6459   -2.1301 C   0  0  0  0  0  0  0  0  0  0  0  0
    5.8572    0.3943   -3.3555 O   0  0  0  0  0  0  0  0  0  0  0  0
    6.6476    0.2997   -1.1084 C   0  0  0  0  0  0  0  0  0  0  0  0
    7.9198   -0.0049   -1.6323 C   0  0  0  0  0  0  0  0  0  0  0  0
    8.9781   -0.1573   -0.7783 C   0  0  0  0  0  0  0  0  0  0  0  0
    8.8338   -0.0204    0.5844 C   0  0  0  0  0  0  0  0  0  0  0  0
    7.5971    0.2696    1.0582 C   0  0  0  0  0  0  0  0  0  0  0  0
    7.4379    0.4106    2.4372 O   0  0  0  0  0  0  0  0  0  0  0  0
    6.4568    0.4375    0.2349 C   0  0  0  0  0  0  0  0  0  0  0  0
    5.2172    0.7860    0.8490 C   0  0  0  0  0  0  0  0  0  0  0  0
    5.3440    1.6252    1.8476 O   0  0  0  0  0  0  0  0  0  0  0  0
    3.8616    0.3983    0.6049 C   0  0  0  0  0  0  0  0  0  0  0  0
    2.7931    1.1867    1.0156 C   0  0  0  0  0  0  0  0  0  0  0  0
    3.1033    2.4496    1.5648 O   0  0  0  0  0  0  0  0  0  0  0  0
    1.4926    0.7717    0.8991 C   0  0  0  0  0  0  0  0  0  0  0  0
    1.1588   -0.4547    0.3681 C   0  0  0  0  0  0  0  0  0  0  0  0
   -0.2587   -0.8786    0.2600 C   0  0  0  0  0  0  0  0  0  0  0  0
   -0.4248   -2.0332   -0.1742 O   0  0  0  0  0  0  0  0  0  0  0  0
   -1.2805   -0.1172    0.5906 O   0  0  0  0  0  0  0  0  0  0  0  0
   -2.6177   -0.2065    0.6164 C   0  0  0  0  0  0  0  0  0  0  0  0
   -3.3605   -0.4760   -0.6584 C   0  0  2  0  0  0  0  0  0  0  0  0
   -3.4831   -1.8736   -1.1026 C   0  0  0  0  0  0  0  0  0  0  0  0
   -4.2076   -2.7261   -0.0984 C   0  0  0  0  0  0  0  0  0  0  0  0
   -3.5232   -3.3946    0.8713 C   0  0  0  0  0  0  0  0  0  0  0  0
   -4.1821   -4.1752    1.8344 C   0  0  0  0  0  0  0  0  0  0  0  0
   -5.5622   -4.2910    1.8248 C   0  0  0  0  0  0  0  0  0  0  0  0
   -6.2438   -5.0553    2.7638 O   0  0  0  0  0  0  0  0  0  0  0  0
   -6.2367   -3.6111    0.8368 C   0  0  0  0  0  0  0  0  0  0  0  0
   -5.5915   -2.8415   -0.1097 C   0  0  0  0  0  0  0  0  0  0  0  0
   -2.9668    0.4311   -1.6730 N   0  0  0  0  0  0  0  0  0  0  0  0
   -4.1320    1.6024   -2.0472 S   0  0  0  0  0  6  0  0  0  0  0  0
   -5.4049    0.9363   -2.4690 O   0  0  0  0  0  0  0  0  0  0  0  0
   -3.6285    2.4868   -3.1696 O   0  0  0  0  0  0  0  0  0  0  0  0
   -4.4359    2.5864   -0.6172 C   0  0  0  0  0  0  0  0  0  0  0  0
   -5.4236    2.3063    0.2797 C   0  0  0  0  0  0  0  0  0  0  0  0
   -5.6149    3.1190    1.4073 C   0  0  0  0  0  0  0  0  0  0  0  0
   -4.7694    4.1905    1.5507 C   0  0  0  0  0  0  0  0  0  0  0  0
   -3.7687    4.4776    0.6434 C   0  0  0  0  0  0  0  0  0  0  0  0
   -3.5798    3.6835   -0.4581 C   0  0  0  0  0  0  0  0  0  0  0  0
    2.2001   -1.2381   -0.0397 C   0  0  0  0  0  0  0  0  0  0  0  0
    3.5184   -0.8465    0.0662 C   0  0  0  0  0  0  0  0  0  0  0  0
    4.5227   -1.7196   -0.3762 O   0  0  0  0  0  0  0  0  0  0  0  0
    3.7316    2.5402   -3.3717 H   0  0  0  0  0  0  0  0  0  0  0  0
    2.5039    1.6996   -2.4062 H   0  0  0  0  0  0  0  0  0  0  0  0
    3.3781    0.7694   -3.6586 H   0  0  0  0  0  0  0  0  0  0  0  0
    8.0263   -0.1148   -2.7057 H   0  0  0  0  0  0  0  0  0  0  0  0
    9.9518   -0.3905   -1.2004 H   0  0  0  0  0  0  0  0  0  0  0  0
    9.7109   -0.1515    1.1971 H   0  0  0  0  0  0  0  0  0  0  0  0
    6.8072   -0.2822    2.8747 H   0  0  0  0  0  0  0  0  0  0  0  0
    2.7411    2.6125    2.5129 H   0  0  0  0  0  0  0  0  0  0  0  0
    0.6797    1.4074    1.2278 H   0  0  0  0  0  0  0  0  0  0  0  0
   -3.0930    0.7186    1.1287 H   0  0  0  0  0  0  0  0  0  0  0  0
   -2.9733   -1.0062    1.3927 H   0  0  0  0  0  0  0  0  0  0  0  0
   -4.4751   -0.1095   -0.4335 H   0  0  0  0  0  0  0  0  0  0  0  0
   -4.1933   -1.9417   -2.0135 H   0  0  0  0  0  0  0  0  0  0  0  0
   -2.5824   -2.3598   -1.4448 H   0  0  0  0  0  0  0  0  0  0  0  0
   -2.4475   -3.3599    0.9433 H   0  0  0  0  0  0  0  0  0  0  0  0
   -3.6344   -4.7014    2.5989 H   0  0  0  0  0  0  0  0  0  0  0  0
   -7.0581   -5.6056    2.4576 H   0  0  0  0  0  0  0  0  0  0  0  0
   -7.3287   -3.6950    0.8169 H   0  0  0  0  0  0  0  0  0  0  0  0
   -6.1264   -2.3193   -0.8670 H   0  0  0  0  0  0  0  0  0  0  0  0
   -2.4687    0.0093   -2.4802 H   0  0  0  0  0  0  0  0  0  0  0  0
   -6.0855    1.4691    0.1539 H   0  0  0  0  0  0  0  0  0  0  0  0
   -6.3833    2.9152    2.1285 H   0  0  0  0  0  0  0  0  0  0  0  0
   -4.8856    4.8431    2.4142 H   0  0  0  0  0  0  0  0  0  0  0  0
   -3.0928    5.3247    0.7441 H   0  0  0  0  0  0  0  0  0  0  0  0
   -2.7979    3.8795   -1.1974 H   0  0  0  0  0  0  0  0  0  0  0  0
    1.9528   -2.2190   -0.4668 H   0  0  0  0  0  0  0  0  0  0  0  0
    4.3575   -2.1170   -1.3085 H   0  0  0  0  0  0  0  0  0  0  0  0
  1  2  1  0
  2  3  1  0
  3  4  2  0
  3  5  1  0
  5  6  2  0
  6  7  1  0
  7  8  2  0
  8  9  1  0
  9 10  1  0
  9 11  2  0
 11 12  1  0
 12 13  2  0
 12 14  1  0
 14 15  2  0
 15 16  1  0
 15 17  1  0
 17 18  2  0
 18 19  1  0
 19 20  2  0
 19 21  1  0
 21 22  1  0
 22 23  1  0
 23 24  1  0
 24 25  1  0
 25 26  2  0
 26 27  1  0
 27 28  2  0
 28 29  1  0
 28 30  1  0
 30 31  2  0
 23 32  1  0
 32 33  1  0
 33 34  2  0
 33 35  2  0
 33 36  1  0
 36 37  2  0
 37 38  1  0
 38 39  2  0
 39 40  1  0
 40 41  2  0
 18 42  1  0
 42 43  2  0
 43 44  1  0
 11  5  1  0
 43 14  1  0
 31 25  1  0
 41 36  1  0
  1 45  1  0
  1 46  1  0
  1 47  1  0
  6 48  1  0
  7 49  1  0
  8 50  1  0
 10 51  1  0
 16 52  1  0
 17 53  1  0
 22 54  1  0
 22 55  1  0
 23 56  1  1
 24 57  1  0
 24 58  1  0
 26 59  1  0
 27 60  1  0
 29 61  1  0
 30 62  1  0
 31 63  1  0
 32 64  1  0
 37 65  1  0
 38 66  1  0
 39 67  1  0
 40 68  1  0
 41 69  1  0
 42 70  1  0
 44 71  1  0
M  END
$$$$
