
     RDKit          3D

 47 50  0  0  0  0  0  0  0  0999 V2000
    4.0570    0.4517    3.3576 N   0  0  0  0  0  0  0  0  0  0  0  0
    2.9421    0.2552    2.4915 C   0  0  0  0  0  0  0  0  0  0  0  0
    2.0279   -0.5340    2.8398 O   0  0  0  0  0  0  0  0  0  0  0  0
    2.8878    0.9726    1.2240 C   0  0  0  0  0  0  0  0  0  0  0  0
    3.8288    1.8544    0.7502 C   0  0  0  0  0  0  0  0  0  0  0  0
    3.4287    2.3087   -0.4463 N   0  0  0  0  0  0  0  0  0  0  0  0
    2.2495    1.7428   -0.7615 C   0  0  0  0  0  0  0  0  0  0  0  0
    1.4087    1.8675   -1.8766 C   0  0  0  0  0  0  0  0  0  0  0  0
    0.2494    1.1247   -1.8721 C   0  0  0  0  0  0  0  0  0  0  0  0
   -0.0974    0.2869   -0.8328 C   0  0  0  0  0  0  0  0  0  0  0  0
   -1.3195   -0.5041   -0.8170 C   0  0  0  0  0  0  0  0  0  0  0  0
   -1.3541   -1.8997   -0.7534 C   0  0  0  0  0  0  0  0  0  0  0  0
   -0.1670   -2.7423   -0.6934 C   0  0  0  0  0  0  0  0  0  0  0  0
   -0.0040   -3.5421    0.4186 C   0  0  0  0  0  0  0  0  0  0  0  0
    1.0837   -4.3761    0.5736 C   0  0  0  0  0  0  0  0  0  0  0  0
    2.0602   -4.4366   -0.3977 C   0  0  0  0  0  0  0  0  0  0  0  0
    3.1500   -5.2583   -0.2648 F   0  0  0  0  0  0  0  0  0  0  0  0
    1.9020   -3.6391   -1.5113 C   0  0  0  0  0  0  0  0  0  0  0  0
    0.8018   -2.8003   -1.6603 C   0  0  0  0  0  0  0  0  0  0  0  0
   -2.6533   -2.2310   -0.7614 N   0  0  0  0  0  0  0  0  0  0  0  0
   -3.4313   -1.1489   -0.8252 C   0  0  0  0  0  0  0  0  0  0  0  0
   -2.5981   -0.0887   -0.8591 N   0  0  0  0  0  0  0  0  0  0  0  0
   -3.0471    1.2932   -0.9304 C   0  0  0  0  0  0  0  0  0  0  0  0
   -3.2140    1.7779    0.4923 C   0  0  1  0  0  0  0  0  0  0  0  0
   -1.9770    1.6763    1.1251 O   0  0  0  0  0  0  0  0  0  0  0  0
   -3.6637    3.2221    0.4208 C   0  0  0  0  0  0  0  0  0  0  0  0
   -2.7057    3.9172   -0.3004 O   0  0  0  0  0  0  0  0  0  0  0  0
    0.7809    0.2217    0.2225 C   0  0  0  0  0  0  0  0  0  0  0  0
    1.9418    0.9354    0.2687 N   0  0  0  0  0  0  0  0  0  0  0  0
    4.0041    0.3346    4.3965 H   0  0  0  0  0  0  0  0  0  0  0  0
    5.0076    0.7309    2.9756 H   0  0  0  0  0  0  0  0  0  0  0  0
    4.7647    2.1688    1.2277 H   0  0  0  0  0  0  0  0  0  0  0  0
    1.7088    2.5268   -2.6651 H   0  0  0  0  0  0  0  0  0  0  0  0
   -0.4020    1.2150   -2.7256 H   0  0  0  0  0  0  0  0  0  0  0  0
   -0.7294   -3.5487    1.2232 H   0  0  0  0  0  0  0  0  0  0  0  0
    1.1775   -4.9879    1.4580 H   0  0  0  0  0  0  0  0  0  0  0  0
    2.6838   -3.7053   -2.2601 H   0  0  0  0  0  0  0  0  0  0  0  0
    0.6924   -2.1892   -2.5268 H   0  0  0  0  0  0  0  0  0  0  0  0
   -4.5111   -1.1582   -0.8441 H   0  0  0  0  0  0  0  0  0  0  0  0
   -2.2644    1.9341   -1.3947 H   0  0  0  0  0  0  0  0  0  0  0  0
   -3.9996    1.3741   -1.5030 H   0  0  0  0  0  0  0  0  0  0  0  0
   -3.9687    1.1431    1.0291 H   0  0  0  0  0  0  0  0  0  0  0  0
   -1.7813    2.5022    1.6282 H   0  0  0  0  0  0  0  0  0  0  0  0
   -4.6163    3.2520   -0.1502 H   0  0  0  0  0  0  0  0  0  0  0  0
   -3.7679    3.6169    1.4494 H   0  0  0  0  0  0  0  0  0  0  0  0
   -3.1118    4.4999   -0.9846 H   0  0  0  0  0  0  0  0  0  0  0  0
    0.5459   -0.4165    1.0457 H   0  0  0  0  0  0  0  0  0  0  0  0
  1  2  1  0
  2  3  2  0
  2  4  1  0
  4  5  2  0
  5  6  1  0
  6  7  2  0
  7  8  1  0
  8  9  2  0
  9 10  1  0
 10 11  1  0
 11 12  2  0
 12 13  1  0
 13 14  2  0
 14 15  1  0
 15 16  2  0
 16 17  1  0
 16 18  1  0
 18 19  2  0
 12 20  1  0
 20 21  2  0
 21 22  1  0
 22 23  1  0
 23 24  1  0
 24 25  1  0
 24 26  1  0
 26 27  1  0
 10 28  2  0
 28 29  1  0
 29  4  1  0
 29  7  1  0
 22 11  1  0
 19 13  1  0
  1 30  1  0
  1 31  1  0
  5 32  1  0
  8 33  1  0
  9 34  1  0
 14 35  1  0
 15 36  1  0
 18 37  1  0
 19 38  1  0
 21 39  1  0
 23 40  1  0
 23 41  1  0
 24 42  1  1
 25 43  1  0
 26 44  1  0
 26 45  1  0
 27 46  1  0
 28 47  1  0
M  END
$$$$
