
     RDKit          3D

 43 46  0  0  0  0  0  0  0  0999 V2000
    7.7801   -5.2107    0.5009 N   0  0  0  0  0  0  0  0  0  0  0  0
    6.8427   -4.1700    0.1120 C   0  0  0  0  0  0  0  0  0  0  0  0
    5.9797   -3.1812   -0.2647 C   0  0  0  0  0  0  0  0  0  0  0  0
    5.2618   -3.3160   -1.4461 C   0  0  0  0  0  0  0  0  0  0  0  0
    4.1795   -2.5578   -1.5467 N   0  0  0  0  0  0  0  0  0  0  0  0
    3.7507   -1.7142   -0.6733 C   0  0  0  0  0  0  0  0  0  0  0  0
    2.4323   -0.9843   -0.7837 C   0  0  0  0  0  0  0  0  0  0  0  0
    2.0279   -0.3296   -1.6389 O   0  0  0  0  0  0  0  0  0  0  0  0
    1.6771   -1.2511    0.4450 N   0  0  0  0  0  0  0  0  0  0  0  0
    0.4404   -0.7297    0.7804 C   0  0  0  0  0  0  0  0  0  0  0  0
   -0.0118   -1.1006    2.1329 C   0  0  0  0  0  0  0  0  0  0  0  0
   -1.1483   -0.5481    2.6081 C   0  0  0  0  0  0  0  0  0  0  0  0
   -1.9002    0.3927    1.7797 C   0  0  0  0  0  0  0  0  0  0  0  0
   -2.9816    0.8403    2.4026 F   0  0  0  0  0  0  0  0  0  0  0  0
   -1.4868    0.7261    0.5458 C   0  0  0  0  0  0  0  0  0  0  0  0
   -2.3401    1.5872   -0.3412 C   0  0  1  0  0  0  0  0  0  0  0  0
   -1.7638    1.7672   -1.6861 C   0  0  0  0  0  0  0  0  0  0  0  0
   -0.5512    2.4453   -1.7209 F   0  0  0  0  0  0  0  0  0  0  0  0
   -2.5982    2.1253   -2.6777 F   0  0  0  0  0  0  0  0  0  0  0  0
   -3.5912    0.7074   -0.4811 N   0  0  0  0  0  0  0  0  0  0  0  0
   -4.5735    1.4771   -1.0029 C   0  0  0  0  0  0  0  0  0  0  0  0
   -5.8217    0.9548   -1.2528 N   0  0  0  0  0  0  0  0  0  0  0  0
   -4.2751    2.8014   -1.2674 O   0  0  0  0  0  0  0  0  0  0  0  0
   -3.7703    3.6149   -0.2003 C   0  0  2  0  0  0  0  0  0  0  0  0
   -2.3827    4.1603   -0.2233 C   0  0  0  0  0  0  0  0  0  0  0  0
   -2.6752    2.8547    0.4377 C   0  0  2  0  0  0  0  0  0  0  0  0
   -0.3122    0.1080    0.1622 C   0  0  0  0  0  0  0  0  0  0  0  0
    4.4953   -1.5532    0.5566 C   0  0  0  0  0  0  0  0  0  0  0  0
    3.9697   -0.3287    1.6960 Cl  0  0  0  0  0  0  0  0  0  0  0  0
    5.6227   -2.2859    0.7817 C   0  0  0  0  0  0  0  0  0  0  0  0
    5.5849   -4.0983   -2.1572 H   0  0  0  0  0  0  0  0  0  0  0  0
    2.1762   -1.9095    1.1196 H   0  0  0  0  0  0  0  0  0  0  0  0
    0.5806   -1.8081    2.6531 H   0  0  0  0  0  0  0  0  0  0  0  0
   -1.5457   -0.8174    3.5609 H   0  0  0  0  0  0  0  0  0  0  0  0
   -1.4828    0.6615   -2.0136 H   0  0  0  0  0  0  0  0  0  0  0  0
   -6.3545    0.3230   -0.6261 H   0  0  0  0  0  0  0  0  0  0  0  0
   -6.3546    1.2116   -2.1457 H   0  0  0  0  0  0  0  0  0  0  0  0
   -4.5444    4.1875    0.3277 H   0  0  0  0  0  0  0  0  0  0  0  0
   -2.1673    5.0179    0.4353 H   0  0  0  0  0  0  0  0  0  0  0  0
   -1.7860    4.1615   -1.1719 H   0  0  0  0  0  0  0  0  0  0  0  0
   -2.5851    2.7608    1.5153 H   0  0  0  0  0  0  0  0  0  0  0  0
   -0.0001    0.4619   -0.8879 H   0  0  0  0  0  0  0  0  0  0  0  0
    6.2026   -2.2391    1.6560 H   0  0  0  0  0  0  0  0  0  0  0  0
  1  2  3  0
  2  3  1  0
  3  4  2  0
  4  5  1  0
  5  6  2  0
  6  7  1  0
  7  8  2  0
  7  9  1  0
  9 10  1  0
 10 11  2  0
 11 12  1  0
 12 13  2  0
 13 14  1  0
 13 15  1  0
 15 16  1  0
 16 17  1  6
 17 18  1  0
 17 19  1  0
 16 20  1  0
 20 21  2  0
 21 22  1  0
 21 23  1  0
 23 24  1  0
 24 25  1  0
 25 26  1  0
 15 27  2  0
  6 28  1  0
 28 29  1  0
 28 30  2  0
 30  3  1  0
 27 10  1  0
 26 16  1  0
 26 24  1  0
  4 31  1  0
  9 32  1  0
 11 33  1  0
 12 34  1  0
 17 35  1  0
 22 36  1  0
 22 37  1  0
 24 38  1  1
 25 39  1  0
 25 40  1  0
 26 41  1  1
 27 42  1  0
 30 43  1  0
M  END
$$$$
