
     RDKit          3D

 33 33  0  0  0  0  0  0  0  0999 V2000
    0.7169   -3.4660   -0.0252 O   0  0  0  0  0  0  0  0  0  0  0  0
    0.6135   -2.1467    0.3215 C   0  0  2  0  0  0  0  0  0  0  0  0
   -0.7978   -1.5955    0.2679 C   0  0  1  0  0  0  0  0  0  0  0  0
   -1.6782   -2.2764    1.0686 O   0  0  0  0  0  0  0  0  0  0  0  0
   -0.6424   -0.1454    0.7466 C   0  0  2  0  0  0  0  0  0  0  0  0
   -2.0695    0.4185    0.7383 C   0  0  0  0  0  0  0  0  0  0  0  0
   -2.0749    1.7502    1.0790 O   0  0  0  0  0  0  0  0  0  0  0  0
   -3.9262    2.4048    1.0481 V   0  0  0  0  0  6  0  0  0  0  0  0
   -5.0356    1.2359   -0.0752 O   0  0  0  0  0  0  0  0  0  0  0  0
   -4.5824    2.3900    2.6826 O   0  0  0  0  0  0  0  0  0  0  0  0
   -3.9297    4.0120    0.3525 O   0  0  0  0  0  0  0  0  0  0  0  0
    0.0735    0.5739   -0.1662 O   0  0  0  0  0  0  0  0  0  0  0  0
    1.3744    0.1605   -0.3480 C   0  0  2  0  0  0  0  0  0  0  0  0
    1.8287    0.7781   -1.5204 O   0  0  0  0  0  0  0  0  0  0  0  0
    3.1548    1.7651   -1.2728 P   0  0  0  0  0  0  0  0  0  0  0  0
    2.8558    3.0483   -0.2286 O   0  0  0  0  0  0  0  0  0  0  0  0
    4.5284    0.9337   -0.7832 O   0  0  0  0  0  0  0  0  0  0  0  0
    3.4956    2.3503   -2.6437 O   0  0  0  0  0  0  0  0  0  0  0  0
    1.4379   -1.3276   -0.6436 C   0  0  1  0  0  0  0  0  0  0  0  0
    2.7403   -1.7921   -0.5469 O   0  0  0  0  0  0  0  0  0  0  0  0
    0.8104   -4.0126    0.7999 H   0  0  0  0  0  0  0  0  0  0  0  0
    0.9948   -1.8991    1.3423 H   0  0  0  0  0  0  0  0  0  0  0  0
   -1.1430   -1.5342   -0.7897 H   0  0  0  0  0  0  0  0  0  0  0  0
   -1.1983   -2.8920    1.6618 H   0  0  0  0  0  0  0  0  0  0  0  0
   -0.2546   -0.1579    1.7727 H   0  0  0  0  0  0  0  0  0  0  0  0
   -2.5196    0.3148   -0.2701 H   0  0  0  0  0  0  0  0  0  0  0  0
   -2.6968   -0.1889    1.4437 H   0  0  0  0  0  0  0  0  0  0  0  0
   -5.9071    1.1084    0.3496 H   0  0  0  0  0  0  0  0  0  0  0  0
    1.9711    0.4303    0.5469 H   0  0  0  0  0  0  0  0  0  0  0  0
    3.4367    3.7982   -0.5153 H   0  0  0  0  0  0  0  0  0  0  0  0
    4.6426    0.1296   -1.3750 H   0  0  0  0  0  0  0  0  0  0  0  0
    1.0254   -1.4443   -1.6844 H   0  0  0  0  0  0  0  0  0  0  0  0
    2.7555   -2.7238   -0.2522 H   0  0  0  0  0  0  0  0  0  0  0  0
  1  2  1  0
  2  3  1  0
  3  4  1  0
  3  5  1  0
  5  6  1  0
  6  7  1  0
  7  8  1  0
  8  9  1  0
  8 10  2  0
  8 11  2  0
  5 12  1  0
 12 13  1  0
 13 14  1  0
 14 15  1  0
 15 16  1  0
 15 17  1  0
 15 18  2  0
 13 19  1  0
 19 20  1  0
 19  2  1  0
  1 21  1  0
  2 22  1  1
  3 23  1  6
  4 24  1  0
  5 25  1  1
  6 26  1  0
  6 27  1  0
  9 28  1  0
 13 29  1  1
 16 30  1  0
 17 31  1  0
 19 32  1  6
 20 33  1  0
M  END
$$$$
