
     RDKit          3D

 62 65  0  0  0  0  0  0  0  0999 V2000
    0.2768   -3.1184   -1.5899 C   0  0  0  0  0  0  0  0  0  0  0  0
    0.3859   -2.3970   -0.2709 C   0  0  1  0  0  0  0  0  0  0  0  0
    1.6964   -1.7226   -0.1392 C   0  0  0  0  0  0  0  0  0  0  0  0
    2.0520   -0.5091   -0.6471 C   0  0  0  0  0  0  0  0  0  0  0  0
    3.3280    0.0396   -0.4621 C   0  0  0  0  0  0  0  0  0  0  0  0
    4.2928   -0.6312    0.2502 C   0  0  0  0  0  0  0  0  0  0  0  0
    5.6320   -0.0404    0.4371 C   0  0  0  0  0  0  0  0  0  0  0  0
    6.6417   -0.6523    1.1323 C   0  0  0  0  0  0  0  0  0  0  0  0
    7.8919   -0.0389    1.2728 C   0  0  0  0  0  0  0  0  0  0  0  0
    8.0872    1.2050    0.6915 C   0  0  0  0  0  0  0  0  0  0  0  0
    9.1896    1.7951    0.7896 O   0  0  0  0  0  0  0  0  0  0  0  0
    7.0640    1.7590    0.0218 N   0  0  0  0  0  0  0  0  0  0  0  0
    7.2448    3.0546   -0.5918 C   0  0  0  0  0  0  0  0  0  0  0  0
    5.8837    1.1646   -0.1028 N   0  0  0  0  0  0  0  0  0  0  0  0
    3.9601   -1.8573    0.7731 C   0  0  0  0  0  0  0  0  0  0  0  0
    2.6973   -2.3867    0.5828 C   0  0  0  0  0  0  0  0  0  0  0  0
   -0.7725   -1.5733   -0.0428 N   0  0  0  0  0  0  0  0  0  0  0  0
   -1.1421   -0.5135   -0.9284 C   0  0  0  0  0  0  0  0  0  0  0  0
   -2.6822   -0.5852   -1.0487 C   0  0  0  0  0  0  0  0  0  0  0  0
   -3.3132   -0.1795    0.2283 C   0  0  2  0  0  0  0  0  0  0  0  0
   -4.7282   -0.7471    0.3712 C   0  0  0  0  0  0  0  0  0  0  0  0
   -5.6256   -0.2738   -0.7371 C   0  0  0  0  0  0  0  0  0  0  0  0
   -7.0227   -0.8372   -0.5902 C   0  0  0  0  0  0  0  0  0  0  0  0
   -7.8627   -0.4051   -1.6117 O   0  0  0  0  0  0  0  0  0  0  0  0
   -3.3426    1.2864    0.4332 C   0  0  0  0  0  0  0  0  0  0  0  0
   -2.8913    2.1911   -0.4960 C   0  0  0  0  0  0  0  0  0  0  0  0
   -2.9286    3.5561   -0.2693 C   0  0  0  0  0  0  0  0  0  0  0  0
   -3.4232    4.0570    0.9041 C   0  0  0  0  0  0  0  0  0  0  0  0
   -3.8811    3.1677    1.8492 C   0  0  0  0  0  0  0  0  0  0  0  0
   -3.8403    1.7979    1.6142 C   0  0  0  0  0  0  0  0  0  0  0  0
   -2.5931   -0.7738    1.3147 O   0  0  0  0  0  0  0  0  0  0  0  0
   -1.6561   -1.7909    1.0510 C   0  0  0  0  0  0  0  0  0  0  0  0
   -1.5713   -2.8504    1.7225 O   0  0  0  0  0  0  0  0  0  0  0  0
    0.7010   -2.5344   -2.4308 H   0  0  0  0  0  0  0  0  0  0  0  0
   -0.7553   -3.4660   -1.7949 H   0  0  0  0  0  0  0  0  0  0  0  0
    0.8991   -4.0342   -1.5109 H   0  0  0  0  0  0  0  0  0  0  0  0
    0.3650   -3.2522    0.5202 H   0  0  0  0  0  0  0  0  0  0  0  0
    1.3234    0.0445   -1.2136 H   0  0  0  0  0  0  0  0  0  0  0  0
    3.5419    1.0058   -0.8926 H   0  0  0  0  0  0  0  0  0  0  0  0
    6.5082   -1.6094    1.5855 H   0  0  0  0  0  0  0  0  0  0  0  0
    8.6925   -0.5140    1.8187 H   0  0  0  0  0  0  0  0  0  0  0  0
    7.4019    3.8067    0.2145 H   0  0  0  0  0  0  0  0  0  0  0  0
    6.3498    3.3663   -1.1666 H   0  0  0  0  0  0  0  0  0  0  0  0
    8.1203    3.0021   -1.2819 H   0  0  0  0  0  0  0  0  0  0  0  0
    4.6954   -2.4089    1.3374 H   0  0  0  0  0  0  0  0  0  0  0  0
    2.4547   -3.3555    1.0015 H   0  0  0  0  0  0  0  0  0  0  0  0
   -0.7091   -0.6167   -1.9482 H   0  0  0  0  0  0  0  0  0  0  0  0
   -0.8586    0.4431   -0.4498 H   0  0  0  0  0  0  0  0  0  0  0  0
   -2.9085   -1.6791   -1.2050 H   0  0  0  0  0  0  0  0  0  0  0  0
   -3.0137   -0.0622   -1.9374 H   0  0  0  0  0  0  0  0  0  0  0  0
   -5.1788   -0.4354    1.3335 H   0  0  0  0  0  0  0  0  0  0  0  0
   -4.7084   -1.8541    0.3652 H   0  0  0  0  0  0  0  0  0  0  0  0
   -5.7227    0.8196   -0.7883 H   0  0  0  0  0  0  0  0  0  0  0  0
   -5.2554   -0.6029   -1.7398 H   0  0  0  0  0  0  0  0  0  0  0  0
   -7.4901   -0.4768    0.3663 H   0  0  0  0  0  0  0  0  0  0  0  0
   -7.0217   -1.9484   -0.5692 H   0  0  0  0  0  0  0  0  0  0  0  0
   -7.5009   -0.8026   -2.4528 H   0  0  0  0  0  0  0  0  0  0  0  0
   -2.5004    1.8569   -1.4268 H   0  0  0  0  0  0  0  0  0  0  0  0
   -2.5648    4.2670   -1.0199 H   0  0  0  0  0  0  0  0  0  0  0  0
   -3.4352    5.1338    1.0430 H   0  0  0  0  0  0  0  0  0  0  0  0
   -4.2695    3.5756    2.7705 H   0  0  0  0  0  0  0  0  0  0  0  0
   -4.2072    1.1409    2.3778 H   0  0  0  0  0  0  0  0  0  0  0  0
  1  2  1  0
  2  3  1  0
  3  4  2  0
  4  5  1  0
  5  6  2  0
  6  7  1  0
  7  8  1  0
  8  9  2  0
  9 10  1  0
 10 11  2  0
 10 12  1  0
 12 13  1  0
 12 14  1  0
  6 15  1  0
 15 16  2  0
  2 17  1  0
 17 18  1  0
 18 19  1  0
 19 20  1  0
 20 21  1  6
 21 22  1  0
 22 23  1  0
 23 24  1  0
 20 25  1  0
 25 26  2  0
 26 27  1  0
 27 28  2  0
 28 29  1  0
 29 30  2  0
 20 31  1  0
 31 32  1  0
 32 33  2  0
 16  3  1  0
 32 17  1  0
 14  7  2  0
 30 25  1  0
  1 34  1  0
  1 35  1  0
  1 36  1  0
  2 37  1  1
  4 38  1  0
  5 39  1  0
  8 40  1  0
  9 41  1  0
 13 42  1  0
 13 43  1  0
 13 44  1  0
 15 45  1  0
 16 46  1  0
 18 47  1  0
 18 48  1  0
 19 49  1  0
 19 50  1  0
 21 51  1  0
 21 52  1  0
 22 53  1  0
 22 54  1  0
 23 55  1  0
 23 56  1  0
 24 57  1  0
 26 58  1  0
 27 59  1  0
 28 60  1  0
 29 61  1  0
 30 62  1  0
M  END
$$$$
