
     RDKit          3D

 53 55  0  0  0  0  0  0  0  0999 V2000
    2.3691   -2.1184   -0.5058 C   0  0  0  0  0  0  0  0  0  0  0  0
    2.3406   -0.5921   -0.6591 C   0  0  0  0  0  0  0  0  0  0  0  0
    2.1383   -0.3911   -2.1882 C   0  0  0  0  0  0  0  0  0  0  0  0
    3.3796    0.0043   -0.1976 O   0  0  0  0  0  0  0  0  0  0  0  0
    4.4603    0.5679    0.2220 C   0  0  0  0  0  0  0  0  0  0  0  0
    5.2222    0.0313    1.2805 C   0  0  0  0  0  0  0  0  0  0  0  0
    6.3622    0.6217    1.7258 C   0  0  0  0  0  0  0  0  0  0  0  0
    6.8114    1.7848    1.1412 C   0  0  0  0  0  0  0  0  0  0  0  0
    8.0181    2.4279    1.5947 C   0  0  0  0  0  0  0  0  0  0  0  0
    8.9783    2.9301    1.9731 N   0  0  0  0  0  0  0  0  0  0  0  0
    6.0656    2.3074    0.1074 C   0  0  0  0  0  0  0  0  0  0  0  0
    4.9552    1.7236   -0.3193 N   0  0  0  0  0  0  0  0  0  0  0  0
    1.0296   -0.0796   -0.0982 C   0  0  0  0  0  0  0  0  0  0  0  0
    1.1152    0.8525    0.7296 O   0  0  0  0  0  0  0  0  0  0  0  0
   -0.2283   -0.6140   -0.4785 N   0  0  0  0  0  0  0  0  0  0  0  0
   -1.4229   -0.0847    0.0876 C   0  0  1  0  0  0  0  0  0  0  0  0
   -2.3045    0.4905   -0.9766 C   0  0  0  0  0  0  0  0  0  0  0  0
   -3.1348   -0.4597   -1.7422 C   0  0  0  0  0  0  0  0  0  0  0  0
   -3.1985   -1.8646   -1.2999 C   0  0  0  0  0  0  0  0  0  0  0  0
   -2.4789   -2.2411   -0.0581 C   0  0  0  0  0  0  0  0  0  0  0  0
   -2.2312   -1.0781    0.8750 C   0  0  0  0  0  0  0  0  0  0  0  0
   -3.5253   -0.4332    1.2711 C   0  0  0  0  0  0  0  0  0  0  0  0
   -3.5223    1.0684    1.1084 C   0  0  2  0  0  0  0  0  0  0  0  0
   -4.8329    1.6025    1.4662 C   0  0  0  0  0  0  0  0  0  0  0  0
   -6.0444    1.2419    0.8117 N   0  0  0  0  0  0  0  0  0  0  0  0
   -4.9259    2.4318    2.4042 O   0  0  0  0  0  0  0  0  0  0  0  0
   -3.2101    1.4997   -0.3026 C   0  0  0  0  0  0  0  0  0  0  0  0
    2.2114   -2.3344    0.5557 H   0  0  0  0  0  0  0  0  0  0  0  0
    3.3827   -2.4292   -0.8350 H   0  0  0  0  0  0  0  0  0  0  0  0
    1.6356   -2.6054   -1.1473 H   0  0  0  0  0  0  0  0  0  0  0  0
    1.3628   -1.1285   -2.4746 H   0  0  0  0  0  0  0  0  0  0  0  0
    1.7760    0.6250   -2.3913 H   0  0  0  0  0  0  0  0  0  0  0  0
    3.0573   -0.6639   -2.7287 H   0  0  0  0  0  0  0  0  0  0  0  0
    4.8530   -0.8712    1.7174 H   0  0  0  0  0  0  0  0  0  0  0  0
    6.9547    0.2090    2.5457 H   0  0  0  0  0  0  0  0  0  0  0  0
    6.4564    3.2371   -0.3340 H   0  0  0  0  0  0  0  0  0  0  0  0
   -0.1874   -1.3908   -1.1763 H   0  0  0  0  0  0  0  0  0  0  0  0
   -1.1648    0.7352    0.7857 H   0  0  0  0  0  0  0  0  0  0  0  0
   -1.6083    1.0803   -1.6478 H   0  0  0  0  0  0  0  0  0  0  0  0
   -2.7390   -0.4627   -2.8061 H   0  0  0  0  0  0  0  0  0  0  0  0
   -4.1764   -0.0367   -1.8954 H   0  0  0  0  0  0  0  0  0  0  0  0
   -2.9222   -2.5847   -2.1286 H   0  0  0  0  0  0  0  0  0  0  0  0
   -4.2853   -2.1265   -1.1175 H   0  0  0  0  0  0  0  0  0  0  0  0
   -1.4900   -2.6871   -0.2913 H   0  0  0  0  0  0  0  0  0  0  0  0
   -3.0249   -3.0218    0.5468 H   0  0  0  0  0  0  0  0  0  0  0  0
   -1.6544   -1.4666    1.7378 H   0  0  0  0  0  0  0  0  0  0  0  0
   -3.6546   -0.6224    2.3687 H   0  0  0  0  0  0  0  0  0  0  0  0
   -4.3993   -0.9076    0.7807 H   0  0  0  0  0  0  0  0  0  0  0  0
   -2.7658    1.4591    1.8165 H   0  0  0  0  0  0  0  0  0  0  0  0
   -6.3533    0.2644    0.6814 H   0  0  0  0  0  0  0  0  0  0  0  0
   -6.6626    1.9936    0.4394 H   0  0  0  0  0  0  0  0  0  0  0  0
   -4.1090    1.6405   -0.9261 H   0  0  0  0  0  0  0  0  0  0  0  0
   -2.6780    2.4657   -0.2478 H   0  0  0  0  0  0  0  0  0  0  0  0
  1  2  1  0
  2  3  1  0
  2  4  1  0
  4  5  1  0
  5  6  2  0
  6  7  1  0
  7  8  2  0
  8  9  1  0
  9 10  3  0
  8 11  1  0
 11 12  2  0
  2 13  1  0
 13 14  2  0
 13 15  1  0
 15 16  1  0
 16 17  1  0
 17 18  1  0
 18 19  1  0
 19 20  1  0
 20 21  1  0
 21 22  1  0
 22 23  1  0
 23 24  1  0
 24 25  1  0
 24 26  2  0
 23 27  1  0
 12  5  1  0
 21 16  1  0
 27 17  1  0
  1 28  1  0
  1 29  1  0
  1 30  1  0
  3 31  1  0
  3 32  1  0
  3 33  1  0
  6 34  1  0
  7 35  1  0
 11 36  1  0
 15 37  1  0
 16 38  1  1
 17 39  1  0
 18 40  1  0
 18 41  1  0
 19 42  1  0
 19 43  1  0
 20 44  1  0
 20 45  1  0
 21 46  1  0
 22 47  1  0
 22 48  1  0
 23 49  1  1
 25 50  1  0
 25 51  1  0
 27 52  1  0
 27 53  1  0
M  END
$$$$
