
     RDKit          3D

 48 49  0  0  0  0  0  0  0  0999 V2000
    6.2415   -1.4828   -0.5307 C   0  0  0  0  0  0  0  0  0  0  0  0
    5.3342   -0.4240   -0.4122 O   0  0  0  0  0  0  0  0  0  0  0  0
    3.9545   -0.6999   -0.4199 C   0  0  0  0  0  0  0  0  0  0  0  0
    3.4762   -1.9723   -0.5399 C   0  0  0  0  0  0  0  0  0  0  0  0
    2.1309   -2.2040   -0.5429 C   0  0  0  0  0  0  0  0  0  0  0  0
    1.7497   -3.5552   -0.6742 O   0  0  0  0  0  0  0  0  0  0  0  0
    1.1616   -1.1776   -0.4251 C   0  0  0  0  0  0  0  0  0  0  0  0
    1.6549    0.0911   -0.3077 C   0  0  0  0  0  0  0  0  0  0  0  0
    3.0516    0.3141   -0.3059 C   0  0  0  0  0  0  0  0  0  0  0  0
    0.8854    1.3537   -0.2107 C   0  0  0  0  0  0  0  0  0  0  0  0
    0.5363    1.6480    1.1996 C   0  0  0  0  0  0  0  0  0  0  0  0
   -0.0647    3.0392    1.4139 C   0  0  0  0  0  0  0  0  0  0  0  0
   -1.1412    3.2917    0.3791 C   0  0  0  0  0  0  0  0  0  0  0  0
   -2.1939    2.1819    0.4819 C   0  0  0  0  0  0  0  0  0  0  0  0
   -2.9671    2.2288   -0.7826 C   0  0  0  0  0  0  0  0  0  0  0  0
   -2.9470    3.3223   -1.4619 O   0  0  0  0  0  0  0  0  0  0  0  0
   -3.7354    1.1426   -1.3435 C   0  0  0  0  0  0  0  0  0  0  0  0
   -3.9476   -0.0222   -0.8076 C   0  0  0  0  0  0  0  0  0  0  0  0
   -3.5366   -0.5882    0.4516 C   0  0  0  0  0  0  0  0  0  0  0  0
   -2.5658   -1.7326    0.4329 C   0  0  2  0  0  0  0  0  0  0  0  0
   -2.7292   -2.3404    1.8791 C   0  0  0  0  0  0  0  0  0  0  0  0
   -1.2334   -1.2286    0.4085 O   0  0  0  0  0  0  0  0  0  0  0  0
   -0.2162   -1.6348   -0.4105 C   0  0  0  0  0  0  0  0  0  0  0  0
   -0.4905   -2.5481   -1.2831 O   0  0  0  0  0  0  0  0  0  0  0  0
    7.2742   -1.0914   -0.7536 H   0  0  0  0  0  0  0  0  0  0  0  0
    6.0241   -2.2039   -1.3260 H   0  0  0  0  0  0  0  0  0  0  0  0
    6.3300   -1.9817    0.4610 H   0  0  0  0  0  0  0  0  0  0  0  0
    4.2085   -2.7880   -0.6319 H   0  0  0  0  0  0  0  0  0  0  0  0
    1.8227   -4.0933    0.1999 H   0  0  0  0  0  0  0  0  0  0  0  0
    3.4606    1.3093   -0.2104 H   0  0  0  0  0  0  0  0  0  0  0  0
    0.0066    1.3319   -0.9120 H   0  0  0  0  0  0  0  0  0  0  0  0
    1.5337    2.2032   -0.5668 H   0  0  0  0  0  0  0  0  0  0  0  0
   -0.0235    0.8694    1.6924 H   0  0  0  0  0  0  0  0  0  0  0  0
    1.5305    1.7157    1.7529 H   0  0  0  0  0  0  0  0  0  0  0  0
    0.7126    3.7955    1.3036 H   0  0  0  0  0  0  0  0  0  0  0  0
   -0.5050    3.0304    2.4308 H   0  0  0  0  0  0  0  0  0  0  0  0
   -0.6860    3.2320   -0.6221 H   0  0  0  0  0  0  0  0  0  0  0  0
   -1.6414    4.2476    0.6073 H   0  0  0  0  0  0  0  0  0  0  0  0
   -2.8894    2.4415    1.3191 H   0  0  0  0  0  0  0  0  0  0  0  0
   -1.6619    1.2658    0.6824 H   0  0  0  0  0  0  0  0  0  0  0  0
   -4.1892    1.3616   -2.3628 H   0  0  0  0  0  0  0  0  0  0  0  0
   -4.5628   -0.7124   -1.4528 H   0  0  0  0  0  0  0  0  0  0  0  0
   -4.5265   -1.1122    0.8572 H   0  0  0  0  0  0  0  0  0  0  0  0
   -3.3568    0.0977    1.2874 H   0  0  0  0  0  0  0  0  0  0  0  0
   -2.7676   -2.5082   -0.2631 H   0  0  0  0  0  0  0  0  0  0  0  0
   -3.8219   -2.5107    1.9551 H   0  0  0  0  0  0  0  0  0  0  0  0
   -2.4477   -1.5948    2.6246 H   0  0  0  0  0  0  0  0  0  0  0  0
   -2.2319   -3.3076    1.9351 H   0  0  0  0  0  0  0  0  0  0  0  0
  1  2  1  0
  2  3  1  0
  3  4  2  0
  4  5  1  0
  5  6  1  0
  5  7  2  0
  7  8  1  0
  8  9  2  0
  8 10  1  0
 10 11  1  0
 11 12  1  0
 12 13  1  0
 13 14  1  0
 14 15  1  0
 15 16  2  0
 15 17  1  0
 17 18  2  0
 18 19  1  0
 19 20  1  0
 20 21  1  0
 20 22  1  0
 22 23  1  0
 23 24  2  0
  9  3  1  0
 23  7  1  0
  1 25  1  0
  1 26  1  0
  1 27  1  0
  4 28  1  0
  6 29  1  0
  9 30  1  0
 10 31  1  0
 10 32  1  0
 11 33  1  0
 11 34  1  0
 12 35  1  0
 12 36  1  0
 13 37  1  0
 13 38  1  0
 14 39  1  0
 14 40  1  0
 17 41  1  0
 18 42  1  0
 19 43  1  0
 19 44  1  0
 20 45  1  6
 21 46  1  0
 21 47  1  0
 21 48  1  0
M  END
$$$$
