
     RDKit          3D

 85 90  0  0  0  0  0  0  0  0999 V2000
    7.2036   -0.9542   -1.6251 C   0  0  0  0  0  0  0  0  0  0  0  0
    7.1992   -0.1507   -0.3518 C   0  0  2  0  0  0  0  0  0  0  0  0
    6.0313   -0.4230    0.3339 O   0  0  0  0  0  0  0  0  0  0  0  0
    5.0564    0.5594    0.1624 C   0  0  1  0  0  0  0  0  0  0  0  0
    3.8798    0.0122    0.7178 O   0  0  0  0  0  0  0  0  0  0  0  0
    2.9203   -0.1024   -0.2628 C   0  0  1  0  0  0  0  0  0  0  0  0
    2.4069   -1.5177   -0.4143 C   0  0  0  0  0  0  0  0  0  0  0  0
    0.9726   -1.5339   -0.8883 C   0  0  1  0  0  0  0  0  0  0  0  0
    0.7497   -2.8315   -1.3432 O   0  0  0  0  0  0  0  0  0  0  0  0
    0.0467   -1.1425    0.2346 C   0  0  2  0  0  0  0  0  0  0  0  0
   -0.0428   -2.3406    1.1441 C   0  0  0  0  0  0  0  0  0  0  0  0
   -0.5330   -3.4848    0.5314 O   0  0  0  0  0  0  0  0  0  0  0  0
   -1.2534   -0.5895   -0.2264 C   0  0  1  0  0  0  0  0  0  0  0  0
   -2.0181   -1.3782   -1.2159 C   0  0  2  0  0  0  0  0  0  0  0  0
   -1.4102   -1.2965   -2.4967 O   0  0  0  0  0  0  0  0  0  0  0  0
   -3.4203   -0.9793   -1.4330 C   0  0  0  0  0  0  0  0  0  0  0  0
   -4.2408   -0.7135   -0.1621 C   0  0  2  0  0  0  0  0  0  0  0  0
   -4.4709   -2.0278    0.4665 C   0  0  0  0  0  0  0  0  0  0  0  0
   -5.4018    0.0564   -0.6148 C   0  0  1  0  0  0  0  0  0  0  0  0
   -6.5719    0.2149    0.2676 C   0  0  0  0  0  0  0  0  0  0  0  0
   -6.7651   -0.3071    1.4457 C   0  0  0  0  0  0  0  0  0  0  0  0
   -8.0676    0.1388    1.9222 C   0  0  0  0  0  0  0  0  0  0  0  0
   -8.6031   -0.1618    3.0293 O   0  0  0  0  0  0  0  0  0  0  0  0
   -8.6216    0.9461    0.9620 O   0  0  0  0  0  0  0  0  0  0  0  0
   -7.7396    1.0356   -0.0989 C   0  0  0  0  0  0  0  0  0  0  0  0
   -4.8317    1.4394   -0.8620 C   0  0  0  0  0  0  0  0  0  0  0  0
   -3.4120    1.4375   -0.3265 C   0  0  0  0  0  0  0  0  0  0  0  0
   -3.4514    0.2847    0.6266 C   0  0  1  0  0  0  0  0  0  0  0  0
   -4.0693    0.7390    1.7838 O   0  0  0  0  0  0  0  0  0  0  0  0
   -2.1387   -0.3211    0.9572 C   0  0  2  0  0  0  0  0  0  0  0  0
   -1.4559    0.5187    2.0129 C   0  0  0  0  0  0  0  0  0  0  0  0
   -0.2114    1.0672    1.4266 C   0  0  0  0  0  0  0  0  0  0  0  0
    0.7544   -0.0151    0.9953 C   0  0  1  0  0  0  0  0  0  0  0  0
    1.3753   -0.5422    2.0971 O   0  0  0  0  0  0  0  0  0  0  0  0
    1.7375    0.7292    0.0900 C   0  0  0  0  0  0  0  0  0  0  0  0
    5.4524    1.8373    0.8520 C   0  0  2  0  0  0  0  0  0  0  0  0
    4.5287    2.8232    0.4766 O   0  0  0  0  0  0  0  0  0  0  0  0
    6.8439    2.2072    0.4024 C   0  0  2  0  0  0  0  0  0  0  0  0
    6.7957    3.5193   -0.1138 O   0  0  0  0  0  0  0  0  0  0  0  0
    7.3054    1.3226   -0.7167 C   0  0  1  0  0  0  0  0  0  0  0  0
    8.6746    1.5711   -0.9160 O   0  0  0  0  0  0  0  0  0  0  0  0
    6.4913   -1.7902   -1.5388 H   0  0  0  0  0  0  0  0  0  0  0  0
    6.8160   -0.3069   -2.4545 H   0  0  0  0  0  0  0  0  0  0  0  0
    8.2147   -1.3281   -1.8864 H   0  0  0  0  0  0  0  0  0  0  0  0
    8.0455   -0.4308    0.3338 H   0  0  0  0  0  0  0  0  0  0  0  0
    4.9307    0.7619   -0.9056 H   0  0  0  0  0  0  0  0  0  0  0  0
    3.3254    0.2729   -1.2463 H   0  0  0  0  0  0  0  0  0  0  0  0
    2.6130   -2.0968    0.4787 H   0  0  0  0  0  0  0  0  0  0  0  0
    3.0203   -1.9582   -1.2547 H   0  0  0  0  0  0  0  0  0  0  0  0
    0.8913   -0.8572   -1.7617 H   0  0  0  0  0  0  0  0  0  0  0  0
    0.9491   -2.8864   -2.3136 H   0  0  0  0  0  0  0  0  0  0  0  0
    0.9688   -2.5954    1.5190 H   0  0  0  0  0  0  0  0  0  0  0  0
   -0.6552   -2.1860    2.0478 H   0  0  0  0  0  0  0  0  0  0  0  0
   -0.2261   -4.2693    1.0253 H   0  0  0  0  0  0  0  0  0  0  0  0
   -0.9980    0.4094   -0.6926 H   0  0  0  0  0  0  0  0  0  0  0  0
   -2.0184   -2.4500   -0.8997 H   0  0  0  0  0  0  0  0  0  0  0  0
   -1.8511   -0.6094   -3.0496 H   0  0  0  0  0  0  0  0  0  0  0  0
   -3.9530   -1.8595   -1.9075 H   0  0  0  0  0  0  0  0  0  0  0  0
   -3.5294   -0.1659   -2.1764 H   0  0  0  0  0  0  0  0  0  0  0  0
   -4.1741   -2.1573    1.5095 H   0  0  0  0  0  0  0  0  0  0  0  0
   -5.5109   -2.3723    0.2243 H   0  0  0  0  0  0  0  0  0  0  0  0
   -3.8488   -2.8062   -0.0763 H   0  0  0  0  0  0  0  0  0  0  0  0
   -5.7792   -0.2850   -1.6217 H   0  0  0  0  0  0  0  0  0  0  0  0
   -6.1106   -0.9787    2.0403 H   0  0  0  0  0  0  0  0  0  0  0  0
   -7.4850    2.0659   -0.4006 H   0  0  0  0  0  0  0  0  0  0  0  0
   -8.2674    0.6127   -1.0088 H   0  0  0  0  0  0  0  0  0  0  0  0
   -5.3717    2.2221   -0.2936 H   0  0  0  0  0  0  0  0  0  0  0  0
   -4.8726    1.7485   -1.9239 H   0  0  0  0  0  0  0  0  0  0  0  0
   -2.7140    1.3794   -1.1487 H   0  0  0  0  0  0  0  0  0  0  0  0
   -3.1819    2.3569    0.2543 H   0  0  0  0  0  0  0  0  0  0  0  0
   -4.5704    1.5778    1.6280 H   0  0  0  0  0  0  0  0  0  0  0  0
   -2.3655   -1.2874    1.4567 H   0  0  0  0  0  0  0  0  0  0  0  0
   -1.2091   -0.0385    2.9382 H   0  0  0  0  0  0  0  0  0  0  0  0
   -2.0990    1.3857    2.3202 H   0  0  0  0  0  0  0  0  0  0  0  0
    0.3241    1.6311    2.2462 H   0  0  0  0  0  0  0  0  0  0  0  0
   -0.3813    1.8263    0.6363 H   0  0  0  0  0  0  0  0  0  0  0  0
    1.4053    0.0209    2.8871 H   0  0  0  0  0  0  0  0  0  0  0  0
    1.1906    1.1349   -0.7744 H   0  0  0  0  0  0  0  0  0  0  0  0
    2.0786    1.5993    0.6870 H   0  0  0  0  0  0  0  0  0  0  0  0
    5.4081    1.6436    1.9598 H   0  0  0  0  0  0  0  0  0  0  0  0
    4.1142    3.2692    1.2437 H   0  0  0  0  0  0  0  0  0  0  0  0
    7.5052    2.1413    1.2702 H   0  0  0  0  0  0  0  0  0  0  0  0
    6.0536    4.0381    0.2858 H   0  0  0  0  0  0  0  0  0  0  0  0
    6.7117    1.4777   -1.6325 H   0  0  0  0  0  0  0  0  0  0  0  0
    8.9117    2.4935   -0.6533 H   0  0  0  0  0  0  0  0  0  0  0  0
  1  2  1  0
  2  3  1  0
  3  4  1  0
  4  5  1  0
  5  6  1  0
  6  7  1  0
  7  8  1  0
  8  9  1  0
  8 10  1  0
 10 11  1  1
 11 12  1  0
 10 13  1  0
 13 14  1  0
 14 15  1  0
 14 16  1  0
 16 17  1  0
 17 18  1  1
 17 19  1  0
 19 20  1  0
 20 21  2  0
 21 22  1  0
 22 23  2  0
 22 24  1  0
 24 25  1  0
 19 26  1  0
 26 27  1  0
 27 28  1  0
 28 29  1  1
 28 30  1  0
 30 31  1  0
 31 32  1  0
 32 33  1  0
 33 34  1  1
 33 35  1  0
  4 36  1  0
 36 37  1  0
 36 38  1  0
 38 39  1  0
 38 40  1  0
 40 41  1  0
 40  2  1  0
 35  6  1  0
 33 10  1  0
 30 13  1  0
 28 17  1  0
 25 20  1  0
  1 42  1  0
  1 43  1  0
  1 44  1  0
  2 45  1  1
  4 46  1  6
  6 47  1  6
  7 48  1  0
  7 49  1  0
  8 50  1  6
  9 51  1  0
 11 52  1  0
 11 53  1  0
 12 54  1  0
 13 55  1  6
 14 56  1  1
 15 57  1  0
 16 58  1  0
 16 59  1  0
 18 60  1  0
 18 61  1  0
 18 62  1  0
 19 63  1  6
 21 64  1  0
 25 65  1  0
 25 66  1  0
 26 67  1  0
 26 68  1  0
 27 69  1  0
 27 70  1  0
 29 71  1  0
 30 72  1  1
 31 73  1  0
 31 74  1  0
 32 75  1  0
 32 76  1  0
 34 77  1  0
 35 78  1  0
 35 79  1  0
 36 80  1  1
 37 81  1  0
 38 82  1  1
 39 83  1  0
 40 84  1  6
 41 85  1  0
M  END
$$$$
