
     RDKit          3D

 28 28  0  0  0  0  0  0  0  0999 V2000
   -3.8692   -1.1063    0.0019 C   0  0  0  0  0  0  0  0  0  0  0  0
   -2.6069   -1.1063    0.7066 N   0  0  0  0  0  0  0  0  0  0  0  0
   -1.7165   -0.0308    0.4272 C   0  0  0  0  0  0  0  0  0  0  0  0
   -0.2930   -0.2091    0.3585 N   0  0  0  0  0  0  0  0  0  0  0  0
    0.6424    0.7686   -0.1670 C   0  0  0  0  0  0  0  0  0  0  0  0
    2.0443    0.3186   -0.1143 C   0  0  0  0  0  0  0  0  0  0  0  0
    2.7327    0.6325    1.0407 C   0  0  0  0  0  0  0  0  0  0  0  0
    4.0510    0.2489    1.1739 C   0  0  0  0  0  0  0  0  0  0  0  0
    4.6663   -0.4467    0.1455 C   0  0  0  0  0  0  0  0  0  0  0  0
    3.9941   -0.7692   -1.0160 C   0  0  0  0  0  0  0  0  0  0  0  0
    2.6748   -0.3717   -1.1205 C   0  0  0  0  0  0  0  0  0  0  0  0
   -2.1609    1.1608    0.2299 N   0  0  0  0  0  0  0  0  0  0  0  0
   -3.5883    1.3547    0.3058 C   0  0  0  0  0  0  0  0  0  0  0  0
   -3.7820   -0.9719   -1.1016 H   0  0  0  0  0  0  0  0  0  0  0  0
   -4.7657   -0.8076    0.4948 H   0  0  0  0  0  0  0  0  0  0  0  0
   -4.0627   -2.2367   -0.0297 H   0  0  0  0  0  0  0  0  0  0  0  0
   -2.2530   -1.8257    1.4143 H   0  0  0  0  0  0  0  0  0  0  0  0
    0.0965   -1.1274    0.7215 H   0  0  0  0  0  0  0  0  0  0  0  0
    0.4810    1.7102    0.3917 H   0  0  0  0  0  0  0  0  0  0  0  0
    0.3869    0.9436   -1.2506 H   0  0  0  0  0  0  0  0  0  0  0  0
    2.3023    1.1769    1.8820 H   0  0  0  0  0  0  0  0  0  0  0  0
    4.6505    0.4573    2.0425 H   0  0  0  0  0  0  0  0  0  0  0  0
    5.7086   -0.7935    0.1590 H   0  0  0  0  0  0  0  0  0  0  0  0
    4.3892   -1.3035   -1.8612 H   0  0  0  0  0  0  0  0  0  0  0  0
    2.0729   -0.5756   -1.9812 H   0  0  0  0  0  0  0  0  0  0  0  0
   -3.5972    2.5023    0.3663 H   0  0  0  0  0  0  0  0  0  0  0  0
   -4.0021    1.1733    1.3171 H   0  0  0  0  0  0  0  0  0  0  0  0
   -4.1961    1.2344   -0.5597 H   0  0  0  0  0  0  0  0  0  0  0  0
  1  2  1  0
  2  3  1  0
  3  4  1  0
  4  5  1  0
  5  6  1  0
  6  7  2  0
  7  8  1  0
  8  9  2  0
  9 10  1  0
 10 11  2  0
  3 12  2  0
 12 13  1  0
 11  6  1  0
  1 14  1  0
  1 15  1  0
  1 16  1  0
  2 17  1  0
  4 18  1  0
  5 19  1  0
  5 20  1  0
  7 21  1  0
  8 22  1  0
  9 23  1  0
 10 24  1  0
 11 25  1  0
 13 26  1  0
 13 27  1  0
 13 28  1  0
M  END
$$$$
