
     RDKit          3D

 68 73  0  0  0  0  0  0  0  0999 V2000
   -8.0692   -2.0812    1.8014 C   0  0  0  0  0  0  0  0  0  0  0  0
   -6.8486   -1.9197    1.0454 N   0  0  0  0  0  0  0  0  0  0  0  0
   -6.7479   -2.4882   -0.2734 C   0  0  0  0  0  0  0  0  0  0  0  0
   -5.7755   -1.2172    1.6042 C   0  0  0  0  0  0  0  0  0  0  0  0
   -5.8733   -0.7465    2.7512 O   0  0  0  0  0  0  0  0  0  0  0  0
   -4.5578   -1.0356    0.8586 C   0  0  0  0  0  0  0  0  0  0  0  0
   -3.6976   -2.0831    0.5860 C   0  0  0  0  0  0  0  0  0  0  0  0
   -2.6561   -1.5405   -0.1267 C   0  0  0  0  0  0  0  0  0  0  0  0
   -1.5211   -2.1171   -0.6506 C   0  0  0  0  0  0  0  0  0  0  0  0
   -0.6706   -1.3244   -1.3001 N   0  0  0  0  0  0  0  0  0  0  0  0
   -0.8759    0.0152   -1.4631 C   0  0  0  0  0  0  0  0  0  0  0  0
    0.1150    0.7554   -2.1776 N   0  0  0  0  0  0  0  0  0  0  0  0
    1.4755    0.6358   -1.7967 C   0  0  0  0  0  0  0  0  0  0  0  0
    1.8630   -0.1037   -0.7051 C   0  0  0  0  0  0  0  0  0  0  0  0
    3.1840   -0.2650   -0.3669 C   0  0  0  0  0  0  0  0  0  0  0  0
    4.1267    0.3630   -1.1908 C   0  0  0  0  0  0  0  0  0  0  0  0
    5.5067    0.2329   -0.9418 N   0  0  0  0  0  0  0  0  0  0  0  0
    6.1828   -0.8814   -1.5977 C   0  0  0  0  0  0  0  0  0  0  0  0
    7.5602   -1.0953   -1.0206 C   0  0  0  0  0  0  0  0  0  0  0  0
    7.5241   -0.7078    0.3769 N   0  0  0  0  0  0  0  0  0  0  0  0
    8.7236   -1.0094    1.0805 C   0  0  0  0  0  0  0  0  0  0  0  0
    8.7049   -0.0578    2.2488 C   0  0  0  0  0  0  0  0  0  0  0  0
    7.6759    1.0111    1.8910 C   0  0  0  0  0  0  0  0  0  0  0  0
    7.5065    0.7584    0.4095 C   0  0  2  0  0  0  0  0  0  0  0  0
    6.1698    1.1452   -0.1044 C   0  0  0  0  0  0  0  0  0  0  0  0
    5.6931    2.2548    0.2251 O   0  0  0  0  0  0  0  0  0  0  0  0
    3.7037    1.0950   -2.2726 C   0  0  0  0  0  0  0  0  0  0  0  0
    2.4076    1.2425   -2.5878 N   0  0  0  0  0  0  0  0  0  0  0  0
   -1.9908    0.5386   -0.9387 N   0  0  0  0  0  0  0  0  0  0  0  0
   -2.9171   -0.2009   -0.2585 C   0  0  0  0  0  0  0  0  0  0  0  0
   -4.0940    0.0958    0.3534 N   0  0  0  0  0  0  0  0  0  0  0  0
   -4.5952    1.4376    0.3408 C   0  0  0  0  0  0  0  0  0  0  0  0
   -4.9694    1.8831   -1.0668 C   0  0  0  0  0  0  0  0  0  0  0  0
   -5.6911    3.1845   -0.7886 C   0  0  0  0  0  0  0  0  0  0  0  0
   -6.2003    3.1136    0.6141 C   0  0  0  0  0  0  0  0  0  0  0  0
   -5.8118    1.7106    1.1299 C   0  0  0  0  0  0  0  0  0  0  0  0
   -8.1359   -3.0496    2.2876 H   0  0  0  0  0  0  0  0  0  0  0  0
   -8.0931   -1.3245    2.6347 H   0  0  0  0  0  0  0  0  0  0  0  0
   -8.9722   -1.9494    1.1701 H   0  0  0  0  0  0  0  0  0  0  0  0
   -6.3691   -1.7931   -1.0463 H   0  0  0  0  0  0  0  0  0  0  0  0
   -7.7384   -2.9257   -0.5505 H   0  0  0  0  0  0  0  0  0  0  0  0
   -6.0707   -3.3838   -0.1781 H   0  0  0  0  0  0  0  0  0  0  0  0
   -3.7869   -3.1260    0.8599 H   0  0  0  0  0  0  0  0  0  0  0  0
   -1.3559   -3.1570   -0.5258 H   0  0  0  0  0  0  0  0  0  0  0  0
   -0.1516    1.3607   -2.9555 H   0  0  0  0  0  0  0  0  0  0  0  0
    1.1437   -0.5820   -0.0619 H   0  0  0  0  0  0  0  0  0  0  0  0
    3.5311   -0.8280    0.4699 H   0  0  0  0  0  0  0  0  0  0  0  0
    6.1598   -0.8355   -2.6937 H   0  0  0  0  0  0  0  0  0  0  0  0
    5.5926   -1.7948   -1.2875 H   0  0  0  0  0  0  0  0  0  0  0  0
    7.8931   -2.1542   -1.1498 H   0  0  0  0  0  0  0  0  0  0  0  0
    8.2642   -0.4821   -1.6083 H   0  0  0  0  0  0  0  0  0  0  0  0
    8.6785   -2.0717    1.4513 H   0  0  0  0  0  0  0  0  0  0  0  0
    9.6405   -0.8672    0.4586 H   0  0  0  0  0  0  0  0  0  0  0  0
    9.6980    0.3863    2.4596 H   0  0  0  0  0  0  0  0  0  0  0  0
    8.3056   -0.6111    3.1235 H   0  0  0  0  0  0  0  0  0  0  0  0
    8.0755    2.0262    2.1085 H   0  0  0  0  0  0  0  0  0  0  0  0
    6.6924    0.8088    2.3687 H   0  0  0  0  0  0  0  0  0  0  0  0
    8.3472    1.1962   -0.1517 H   0  0  0  0  0  0  0  0  0  0  0  0
    4.4110    1.6007   -2.9396 H   0  0  0  0  0  0  0  0  0  0  0  0
   -3.8046    2.1543    0.6824 H   0  0  0  0  0  0  0  0  0  0  0  0
   -4.0624    2.1072   -1.6725 H   0  0  0  0  0  0  0  0  0  0  0  0
   -5.6419    1.1850   -1.5659 H   0  0  0  0  0  0  0  0  0  0  0  0
   -4.9681    4.0298   -0.8849 H   0  0  0  0  0  0  0  0  0  0  0  0
   -6.4905    3.3801   -1.5350 H   0  0  0  0  0  0  0  0  0  0  0  0
   -7.2985    3.2433    0.7092 H   0  0  0  0  0  0  0  0  0  0  0  0
   -5.7338    3.8936    1.2263 H   0  0  0  0  0  0  0  0  0  0  0  0
   -5.6358    1.8812    2.2143 H   0  0  0  0  0  0  0  0  0  0  0  0
   -6.6838    1.0838    0.8939 H   0  0  0  0  0  0  0  0  0  0  0  0
  1  2  1  0
  2  3  1  0
  2  4  1  0
  4  5  2  0
  4  6  1  0
  6  7  2  0
  7  8  1  0
  8  9  2  0
  9 10  1  0
 10 11  2  0
 11 12  1  0
 12 13  1  0
 13 14  2  0
 14 15  1  0
 15 16  2  0
 16 17  1  0
 17 18  1  0
 18 19  1  0
 19 20  1  0
 20 21  1  0
 21 22  1  0
 22 23  1  0
 23 24  1  0
 24 25  1  0
 25 26  2  0
 16 27  1  0
 27 28  2  0
 11 29  1  0
 29 30  2  0
 30 31  1  0
 31 32  1  0
 32 33  1  0
 33 34  1  0
 34 35  1  0
 35 36  1  0
 31  6  1  0
 36 32  1  0
 30  8  1  0
 28 13  1  0
 25 17  1  0
 24 20  1  0
  1 37  1  0
  1 38  1  0
  1 39  1  0
  3 40  1  0
  3 41  1  0
  3 42  1  0
  7 43  1  0
  9 44  1  0
 12 45  1  0
 14 46  1  0
 15 47  1  0
 18 48  1  0
 18 49  1  0
 19 50  1  0
 19 51  1  0
 21 52  1  0
 21 53  1  0
 22 54  1  0
 22 55  1  0
 23 56  1  0
 23 57  1  0
 24 58  1  6
 27 59  1  0
 32 60  1  0
 33 61  1  0
 33 62  1  0
 34 63  1  0
 34 64  1  0
 35 65  1  0
 35 66  1  0
 36 67  1  0
 36 68  1  0
M  END
$$$$
