
     RDKit          3D

 51 55  0  0  0  0  0  0  0  0999 V2000
   -3.9541   -2.0180    0.7363 C   0  0  0  0  0  0  0  0  0  0  0  0
   -2.7450   -1.2234    0.5741 N   0  0  0  0  0  0  0  0  0  0  0  0
   -1.5330   -1.8349    0.6231 C   0  0  0  0  0  0  0  0  0  0  0  0
   -1.5513   -3.0812    0.8150 O   0  0  0  0  0  0  0  0  0  0  0  0
   -0.3631   -1.1611    0.4764 C   0  0  0  0  0  0  0  0  0  0  0  0
   -0.3321    0.2374    0.2594 C   0  0  0  0  0  0  0  0  0  0  0  0
    0.9180    0.8784    0.2164 N   0  0  0  0  0  0  0  0  0  0  0  0
    1.7768    1.1666   -0.8443 C   0  0  0  0  0  0  0  0  0  0  0  0
    3.0992    0.6732   -0.6269 C   0  0  0  0  0  0  0  0  0  0  0  0
    4.1123    0.7975   -1.5077 C   0  0  0  0  0  0  0  0  0  0  0  0
    5.4726    0.2759   -1.2548 C   0  0  0  0  0  0  0  0  0  0  0  0
    6.3734    0.4184   -2.1051 O   0  0  0  0  0  0  0  0  0  0  0  0
    5.7758   -0.3904   -0.0514 N   0  0  0  0  0  0  0  0  0  0  0  0
    7.1202   -0.9153    0.2179 C   0  0  0  0  0  0  0  0  0  0  0  0
    7.1574   -2.2555    0.9572 C   0  0  0  0  0  0  0  0  0  0  0  0
    7.5404   -1.0001    1.6774 C   0  0  0  0  0  0  0  0  0  0  0  0
    3.8728    1.4502   -2.7216 C   0  0  0  0  0  0  0  0  0  0  0  0
    2.6118    1.9268   -2.9435 C   0  0  0  0  0  0  0  0  0  0  0  0
    1.5706    1.7805   -2.0013 C   0  0  0  0  0  0  0  0  0  0  0  0
    0.0261    2.4044   -2.4885 Cl  0  0  0  0  0  0  0  0  0  0  0  0
   -1.5626    0.8351    0.2172 C   0  0  0  0  0  0  0  0  0  0  0  0
   -1.9487    2.1496    0.0931 C   0  0  0  0  0  0  0  0  0  0  0  0
   -3.2717    2.2211    0.1607 N   0  0  0  0  0  0  0  0  0  0  0  0
   -3.7717    0.9825    0.3302 N   0  0  0  0  0  0  0  0  0  0  0  0
   -5.1713    0.6910    0.4413 C   0  0  0  0  0  0  0  0  0  0  0  0
   -5.8597    0.9919    1.5998 C   0  0  0  0  0  0  0  0  0  0  0  0
   -7.2033    0.7303    1.6888 C   0  0  0  0  0  0  0  0  0  0  0  0
   -7.8640    0.1652    0.6157 C   0  0  0  0  0  0  0  0  0  0  0  0
   -9.2027   -0.0884    0.7223 F   0  0  0  0  0  0  0  0  0  0  0  0
   -7.1644   -0.1302   -0.5351 C   0  0  0  0  0  0  0  0  0  0  0  0
   -5.8174    0.1267   -0.6379 C   0  0  0  0  0  0  0  0  0  0  0  0
   -2.7627    0.1028    0.3739 C   0  0  0  0  0  0  0  0  0  0  0  0
   -4.6966   -1.5673    1.4085 H   0  0  0  0  0  0  0  0  0  0  0  0
   -4.4326   -2.3118   -0.1945 H   0  0  0  0  0  0  0  0  0  0  0  0
   -3.6829   -2.9965    1.2639 H   0  0  0  0  0  0  0  0  0  0  0  0
    0.6113   -1.6593    0.5176 H   0  0  0  0  0  0  0  0  0  0  0  0
    1.2624    1.2030    1.2080 H   0  0  0  0  0  0  0  0  0  0  0  0
    3.2603    0.1696    0.3253 H   0  0  0  0  0  0  0  0  0  0  0  0
    5.0629   -0.5349    0.6875 H   0  0  0  0  0  0  0  0  0  0  0  0
    7.9001   -0.7749   -0.5536 H   0  0  0  0  0  0  0  0  0  0  0  0
    6.2067   -2.7504    1.1867 H   0  0  0  0  0  0  0  0  0  0  0  0
    7.9819   -2.9612    0.7029 H   0  0  0  0  0  0  0  0  0  0  0  0
    6.8062   -0.5537    2.3995 H   0  0  0  0  0  0  0  0  0  0  0  0
    8.6044   -0.8366    1.8754 H   0  0  0  0  0  0  0  0  0  0  0  0
    4.6855    1.5461   -3.4187 H   0  0  0  0  0  0  0  0  0  0  0  0
    2.3879    2.4360   -3.8673 H   0  0  0  0  0  0  0  0  0  0  0  0
   -1.2275    2.9652   -0.0147 H   0  0  0  0  0  0  0  0  0  0  0  0
   -5.3335    1.4320    2.4291 H   0  0  0  0  0  0  0  0  0  0  0  0
   -7.7436    0.9747    2.6190 H   0  0  0  0  0  0  0  0  0  0  0  0
   -7.7087   -0.5715   -1.3571 H   0  0  0  0  0  0  0  0  0  0  0  0
   -5.2926   -0.1155   -1.5539 H   0  0  0  0  0  0  0  0  0  0  0  0
  1  2  1  0
  2  3  1  0
  3  4  2  0
  3  5  1  0
  5  6  2  0
  6  7  1  0
  7  8  1  0
  8  9  2  0
  9 10  1  0
 10 11  1  0
 11 12  2  0
 11 13  1  0
 13 14  1  0
 14 15  1  0
 15 16  1  0
 10 17  2  0
 17 18  1  0
 18 19  2  0
 19 20  1  0
  6 21  1  0
 21 22  1  0
 22 23  2  0
 23 24  1  0
 24 25  1  0
 25 26  2  0
 26 27  1  0
 27 28  2  0
 28 29  1  0
 28 30  1  0
 30 31  2  0
 24 32  1  0
 32  2  1  0
 19  8  1  0
 32 21  2  0
 16 14  1  0
 31 25  1  0
  1 33  1  0
  1 34  1  0
  1 35  1  0
  5 36  1  0
  7 37  1  0
  9 38  1  0
 13 39  1  0
 14 40  1  0
 15 41  1  0
 15 42  1  0
 16 43  1  0
 16 44  1  0
 17 45  1  0
 18 46  1  0
 22 47  1  0
 26 48  1  0
 27 49  1  0
 30 50  1  0
 31 51  1  0
M  END
$$$$
