
     RDKit          3D

 61 65  0  0  0  0  0  0  0  0999 V2000
   10.1494   -0.5526    2.0702 C   0  0  0  0  0  0  0  0  0  0  0  0
   10.0770    0.6013    1.5985 C   0  0  0  0  0  0  0  0  0  0  0  0
    9.9732    2.0313    1.0173 C   0  0  0  0  0  0  0  0  0  0  0  0
    8.7384    2.0442    0.5484 O   0  0  0  0  0  0  0  0  0  0  0  0
    7.5592    2.0661    0.0983 C   0  0  0  0  0  0  0  0  0  0  0  0
    6.9462    0.7306    0.1799 C   0  0  0  0  0  0  0  0  0  0  0  0
    5.7572    0.4620   -0.1920 N   0  0  0  0  0  0  0  0  0  0  0  0
    4.9454    1.4139   -0.7095 C   0  0  0  0  0  0  0  0  0  0  0  0
    3.5817    1.0049   -1.0531 C   0  0  0  0  0  0  0  0  0  0  0  0
    2.6417    1.9205   -1.3895 F   0  0  0  0  0  0  0  0  0  0  0  0
    3.2425   -0.2619   -1.0370 C   0  0  0  0  0  0  0  0  0  0  0  0
    1.9728   -0.8820   -1.3211 C   0  0  0  0  0  0  0  0  0  0  0  0
    1.8111   -1.8195   -2.3190 C   0  0  0  0  0  0  0  0  0  0  0  0
    0.6237   -2.4894   -2.4058 C   0  0  0  0  0  0  0  0  0  0  0  0
   -0.4173   -2.2632   -1.5274 C   0  0  0  0  0  0  0  0  0  0  0  0
   -1.5471   -2.9860   -1.6839 F   0  0  0  0  0  0  0  0  0  0  0  0
   -0.2794   -1.3279   -0.5162 C   0  0  0  0  0  0  0  0  0  0  0  0
   -1.3092   -1.1725    0.5369 C   0  0  1  0  0  0  0  0  0  0  0  0
   -0.9412   -2.4056    1.4942 C   0  0  0  0  0  0  0  0  0  0  0  0
   -0.9230   -0.0838    1.4544 N   0  0  0  0  0  0  0  0  0  0  0  0
   -1.4331    1.0581    1.4247 C   0  0  0  0  0  0  0  0  0  0  0  0
   -1.0910    2.1006    2.2738 N   0  0  0  0  0  0  0  0  0  0  0  0
   -2.7083    1.3979    0.2069 S   0  0  0  0  0  0  0  0  0  0  0  0
   -3.6055   -0.1954    0.0897 C   0  0  1  0  0  0  0  0  0  0  0  0
   -4.8736   -0.2073    0.8523 C   0  0  0  0  0  0  0  0  0  0  0  0
   -4.7737   -0.7462    2.0356 O   0  0  0  0  0  0  0  0  0  0  0  0
   -6.1113    0.2613    0.4855 N   0  0  0  0  0  0  0  0  0  0  0  0
   -7.3507    0.1402    1.2836 C   0  0  0  0  0  0  0  0  0  0  0  0
   -8.4334   -0.0575    0.2683 C   0  0  0  0  0  0  0  0  0  0  0  0
   -7.7793    0.1878   -1.0771 C   0  0  1  0  0  0  0  0  0  0  0  0
   -8.6208    0.9406   -1.8591 F   0  0  0  0  0  0  0  0  0  0  0  0
   -6.5279    0.9860   -0.6911 C   0  0  0  0  0  0  0  0  0  0  0  0
   -3.3714   -1.0469   -1.0758 C   0  0  0  0  0  0  0  0  0  0  0  0
   -2.6965   -1.3605    0.2101 C   0  0  1  0  0  0  0  0  0  0  0  0
    0.9106   -0.6481   -0.4280 C   0  0  0  0  0  0  0  0  0  0  0  0
    5.4342    2.6583   -0.8244 C   0  0  0  0  0  0  0  0  0  0  0  0
    6.7069    2.9641   -0.4258 N   0  0  0  0  0  0  0  0  0  0  0  0
   10.1919   -1.5219    2.4676 H   0  0  0  0  0  0  0  0  0  0  0  0
   10.2075    2.6790    1.8488 H   0  0  0  0  0  0  0  0  0  0  0  0
   10.7975    2.0608    0.2546 H   0  0  0  0  0  0  0  0  0  0  0  0
    7.5765   -0.0675    0.5866 H   0  0  0  0  0  0  0  0  0  0  0  0
    4.0978   -0.9417   -0.7442 H   0  0  0  0  0  0  0  0  0  0  0  0
    2.6094   -2.0481   -3.0544 H   0  0  0  0  0  0  0  0  0  0  0  0
    0.5461   -3.2270   -3.2110 H   0  0  0  0  0  0  0  0  0  0  0  0
   -1.0833   -3.3299    0.9764 H   0  0  0  0  0  0  0  0  0  0  0  0
   -1.7084   -2.2896    2.2834 H   0  0  0  0  0  0  0  0  0  0  0  0
    0.0345   -2.2069    1.9139 H   0  0  0  0  0  0  0  0  0  0  0  0
   -1.2837    2.1136    3.2918 H   0  0  0  0  0  0  0  0  0  0  0  0
   -0.5880    2.9436    1.8586 H   0  0  0  0  0  0  0  0  0  0  0  0
   -7.3219   -0.6862    1.9913 H   0  0  0  0  0  0  0  0  0  0  0  0
   -7.5451    1.1217    1.8078 H   0  0  0  0  0  0  0  0  0  0  0  0
   -8.8791   -1.0720    0.2836 H   0  0  0  0  0  0  0  0  0  0  0  0
   -9.2437    0.6858    0.3819 H   0  0  0  0  0  0  0  0  0  0  0  0
   -7.4945   -0.7833   -1.5259 H   0  0  0  0  0  0  0  0  0  0  0  0
   -6.9179    2.0020   -0.4274 H   0  0  0  0  0  0  0  0  0  0  0  0
   -5.8203    1.0594   -1.4936 H   0  0  0  0  0  0  0  0  0  0  0  0
   -2.8588   -0.6197   -1.9321 H   0  0  0  0  0  0  0  0  0  0  0  0
   -4.2629   -1.6806   -1.3780 H   0  0  0  0  0  0  0  0  0  0  0  0
   -3.2436   -2.2282    0.7686 H   0  0  0  0  0  0  0  0  0  0  0  0
    1.0963    0.1035    0.3418 H   0  0  0  0  0  0  0  0  0  0  0  0
    4.8161    3.4699   -1.2529 H   0  0  0  0  0  0  0  0  0  0  0  0
  1  2  3  0
  2  3  1  0
  3  4  1  0
  4  5  1  0
  5  6  2  0
  6  7  1  0
  7  8  2  0
  8  9  1  0
  9 10  1  0
  9 11  2  0
 11 12  1  0
 12 13  2  0
 13 14  1  0
 14 15  2  0
 15 16  1  0
 15 17  1  0
 17 18  1  0
 18 19  1  1
 18 20  1  0
 20 21  2  0
 21 22  1  0
 21 23  1  0
 23 24  1  0
 24 25  1  1
 25 26  2  0
 25 27  1  0
 27 28  1  0
 28 29  1  0
 29 30  1  0
 30 31  1  0
 30 32  1  0
 24 33  1  0
 33 34  1  0
 17 35  2  0
  8 36  1  0
 36 37  2  0
 37  5  1  0
 35 12  1  0
 34 18  1  0
 34 24  1  0
 32 27  1  0
  1 38  1  0
  3 39  1  0
  3 40  1  0
  6 41  1  0
 11 42  1  0
 13 43  1  0
 14 44  1  0
 19 45  1  0
 19 46  1  0
 19 47  1  0
 22 48  1  0
 22 49  1  0
 28 50  1  0
 28 51  1  0
 29 52  1  0
 29 53  1  0
 30 54  1  6
 32 55  1  0
 32 56  1  0
 33 57  1  0
 33 58  1  0
 34 59  1  1
 35 60  1  0
 36 61  1  0
M  END
$$$$
