
     RDKit          3D

 69 71  0  0  0  0  0  0  0  0999 V2000
    7.7949    0.5333    0.2305 C   0  0  0  0  0  0  0  0  0  0  0  0
    7.0261   -0.3718   -0.6011 N   0  0  0  0  0  0  0  0  0  0  0  0
    7.2609   -1.7500   -0.2588 C   0  0  0  0  0  0  0  0  0  0  0  0
    5.6221   -0.1033   -0.5711 C   0  0  0  0  0  0  0  0  0  0  0  0
    4.9796   -0.4000    0.7548 C   0  0  0  0  0  0  0  0  0  0  0  0
    3.5586   -0.0847    0.6563 N   0  0  0  0  0  0  0  0  0  0  0  0
    2.7256   -1.1627    0.2189 C   0  0  0  0  0  0  0  0  0  0  0  0
    1.4408   -1.3148    0.9640 C   0  0  0  0  0  0  0  0  0  0  0  0
    0.5893   -0.0912    0.8478 N   0  0  0  0  0  0  0  0  0  0  0  0
   -0.4679   -0.1593   -0.0286 C   0  0  0  0  0  0  0  0  0  0  0  0
   -0.5628   -1.3449   -0.5983 O   0  0  0  0  0  0  0  0  0  0  0  0
   -1.4925    0.7900   -0.4511 C   0  0  0  0  0  0  0  0  0  0  0  0
   -1.4806    2.1020   -0.2731 C   0  0  0  0  0  0  0  0  0  0  0  0
   -2.4920    2.9133   -0.7513 C   0  0  0  0  0  0  0  0  0  0  0  0
   -2.7138    4.3681   -0.6934 C   0  0  0  0  0  0  0  0  0  0  0  0
   -3.4952    4.7740    0.5288 C   0  0  0  0  0  0  0  0  0  0  0  0
   -1.3689    5.0849   -0.6927 C   0  0  0  0  0  0  0  0  0  0  0  0
   -3.4572    4.8727   -1.9125 C   0  0  0  0  0  0  0  0  0  0  0  0
   -3.5539    1.6783   -1.5273 S   0  0  0  0  0  0  0  0  0  0  0  0
   -2.6350    0.2834   -1.1788 C   0  0  0  0  0  0  0  0  0  0  0  0
   -2.9436   -1.0231   -1.5285 N   0  0  0  0  0  0  0  0  0  0  0  0
   -3.7128   -1.9012   -0.7245 C   0  0  0  0  0  0  0  0  0  0  0  0
   -4.1531   -1.4890    0.3747 O   0  0  0  0  0  0  0  0  0  0  0  0
   -3.9729   -3.2349   -1.1768 N   0  0  0  0  0  0  0  0  0  0  0  0
   -4.7274   -4.1492   -0.4314 C   0  0  0  0  0  0  0  0  0  0  0  0
   -6.1015   -4.2357   -0.6144 C   0  0  0  0  0  0  0  0  0  0  0  0
   -6.9027   -5.1063    0.0769 C   0  0  0  0  0  0  0  0  0  0  0  0
   -6.2885   -5.9297    0.9975 C   0  0  0  0  0  0  0  0  0  0  0  0
   -4.9190   -5.8563    1.1924 C   0  0  0  0  0  0  0  0  0  0  0  0
   -4.1947   -6.9191    2.3671 Cl  0  0  0  0  0  0  0  0  0  0  0  0
   -4.1217   -4.9752    0.4900 C   0  0  0  0  0  0  0  0  0  0  0  0
   -2.3743   -4.8908    0.7505 Cl  0  0  0  0  0  0  0  0  0  0  0  0
    0.8662    1.0555    1.6490 C   0  0  0  0  0  0  0  0  0  0  0  0
    1.9021    1.8941    0.9550 C   0  0  0  0  0  0  0  0  0  0  0  0
    3.2545    1.2544    1.0144 C   0  0  0  0  0  0  0  0  0  0  0  0
    4.2355    1.9286    1.4112 O   0  0  0  0  0  0  0  0  0  0  0  0
    7.7960    1.5458   -0.2177 H   0  0  0  0  0  0  0  0  0  0  0  0
    7.4215    0.5297    1.2738 H   0  0  0  0  0  0  0  0  0  0  0  0
    8.8595    0.1808    0.1624 H   0  0  0  0  0  0  0  0  0  0  0  0
    7.1370   -1.8536    0.8391 H   0  0  0  0  0  0  0  0  0  0  0  0
    6.5233   -2.3554   -0.8337 H   0  0  0  0  0  0  0  0  0  0  0  0
    8.3067   -2.0186   -0.5478 H   0  0  0  0  0  0  0  0  0  0  0  0
    5.1286   -0.7376   -1.3373 H   0  0  0  0  0  0  0  0  0  0  0  0
    5.4053    0.9570   -0.8567 H   0  0  0  0  0  0  0  0  0  0  0  0
    5.1373   -1.4758    0.9734 H   0  0  0  0  0  0  0  0  0  0  0  0
    5.4423    0.1654    1.5859 H   0  0  0  0  0  0  0  0  0  0  0  0
    2.4852   -1.1135   -0.8659 H   0  0  0  0  0  0  0  0  0  0  0  0
    3.2867   -2.1143    0.3583 H   0  0  0  0  0  0  0  0  0  0  0  0
    1.5402   -1.5623    2.0278 H   0  0  0  0  0  0  0  0  0  0  0  0
    0.8491   -2.1167    0.4855 H   0  0  0  0  0  0  0  0  0  0  0  0
   -0.6602    2.6794    0.2455 H   0  0  0  0  0  0  0  0  0  0  0  0
   -4.0226    5.7207    0.3081 H   0  0  0  0  0  0  0  0  0  0  0  0
   -2.7977    4.8678    1.3777 H   0  0  0  0  0  0  0  0  0  0  0  0
   -4.2648    3.9673    0.6949 H   0  0  0  0  0  0  0  0  0  0  0  0
   -1.4829    6.1781   -0.6913 H   0  0  0  0  0  0  0  0  0  0  0  0
   -0.8511    4.7393    0.2362 H   0  0  0  0  0  0  0  0  0  0  0  0
   -0.7895    4.7183   -1.5619 H   0  0  0  0  0  0  0  0  0  0  0  0
   -4.5588    4.8456   -1.7876 H   0  0  0  0  0  0  0  0  0  0  0  0
   -3.1740    4.3361   -2.8285 H   0  0  0  0  0  0  0  0  0  0  0  0
   -3.1773    5.9365   -2.0532 H   0  0  0  0  0  0  0  0  0  0  0  0
   -2.5925   -1.3956   -2.4407 H   0  0  0  0  0  0  0  0  0  0  0  0
   -3.5844   -3.5344   -2.0974 H   0  0  0  0  0  0  0  0  0  0  0  0
   -6.6003   -3.5846   -1.3449 H   0  0  0  0  0  0  0  0  0  0  0  0
   -7.9703   -5.1805   -0.0587 H   0  0  0  0  0  0  0  0  0  0  0  0
   -6.8604   -6.6402    1.5772 H   0  0  0  0  0  0  0  0  0  0  0  0
    0.0302    1.6480    1.9729 H   0  0  0  0  0  0  0  0  0  0  0  0
    1.3484    0.7001    2.6407 H   0  0  0  0  0  0  0  0  0  0  0  0
    1.9749    2.8950    1.4142 H   0  0  0  0  0  0  0  0  0  0  0  0
    1.5907    2.0327   -0.1165 H   0  0  0  0  0  0  0  0  0  0  0  0
  1  2  1  0
  2  3  1  0
  2  4  1  0
  4  5  1  0
  5  6  1  0
  6  7  1  0
  7  8  1  0
  8  9  1  0
  9 10  1  0
 10 11  2  0
 10 12  1  0
 12 13  1  0
 13 14  2  0
 14 15  1  0
 15 16  1  0
 15 17  1  0
 15 18  1  0
 14 19  1  0
 19 20  1  0
 20 21  1  0
 21 22  1  0
 22 23  2  0
 22 24  1  0
 24 25  1  0
 25 26  2  0
 26 27  1  0
 27 28  2  0
 28 29  1  0
 29 30  1  0
 29 31  2  0
 31 32  1  0
  9 33  1  0
 33 34  1  0
 34 35  1  0
 35 36  2  0
 35  6  1  0
 20 12  2  0
 31 25  1  0
  1 37  1  0
  1 38  1  0
  1 39  1  0
  3 40  1  0
  3 41  1  0
  3 42  1  0
  4 43  1  0
  4 44  1  0
  5 45  1  0
  5 46  1  0
  7 47  1  0
  7 48  1  0
  8 49  1  0
  8 50  1  0
 13 51  1  0
 16 52  1  0
 16 53  1  0
 16 54  1  0
 17 55  1  0
 17 56  1  0
 17 57  1  0
 18 58  1  0
 18 59  1  0
 18 60  1  0
 21 61  1  0
 24 62  1  0
 26 63  1  0
 27 64  1  0
 28 65  1  0
 33 66  1  0
 33 67  1  0
 34 68  1  0
 34 69  1  0
M  END
$$$$
