
     RDKit          3D

 40 42  0  0  0  0  0  0  0  0999 V2000
   -2.2202   -2.1202    1.3434 C   0  0  0  0  0  0  0  0  0  0  0  0
   -1.8716   -1.5274   -0.0107 C   0  0  0  0  0  0  0  0  0  0  0  0
   -3.0000   -0.7317   -0.5648 C   0  0  0  0  0  0  0  0  0  0  0  0
   -3.0907    0.5937    0.0773 C   0  0  0  0  0  0  0  0  0  0  0  0
   -4.2785    1.2636    0.2083 C   0  0  0  0  0  0  0  0  0  0  0  0
   -4.3081    2.4973    0.8153 C   0  0  0  0  0  0  0  0  0  0  0  0
   -3.1584    3.0789    1.2986 C   0  0  0  0  0  0  0  0  0  0  0  0
   -1.9650    2.4123    1.1701 C   0  0  0  0  0  0  0  0  0  0  0  0
   -1.9294    1.1573    0.5536 C   0  0  0  0  0  0  0  0  0  0  0  0
   -0.6193    0.4926    0.4458 C   0  0  0  0  0  0  0  0  0  0  0  0
   -0.6302   -0.8572    0.0964 N   0  0  0  0  0  0  0  0  0  0  0  0
    0.5806   -1.3957   -0.9653 S   0  0  0  0  0  6  0  0  0  0  0  0
    0.3812   -2.8662   -1.2083 O   0  0  0  0  0  0  0  0  0  0  0  0
    0.4753   -0.7163   -2.3100 O   0  0  0  0  0  0  0  0  0  0  0  0
    2.1914   -1.1915   -0.3142 C   0  0  0  0  0  0  0  0  0  0  0  0
    2.8235   -2.1661    0.4381 C   0  0  0  0  0  0  0  0  0  0  0  0
    4.1103   -1.9395    0.9284 C   0  0  0  0  0  0  0  0  0  0  0  0
    4.7931   -0.7681    0.6936 C   0  0  0  0  0  0  0  0  0  0  0  0
    4.1692    0.2042   -0.0538 C   0  0  0  0  0  0  0  0  0  0  0  0
    4.8704    1.4397   -0.3102 C   0  0  0  0  0  0  0  0  0  0  0  0
    6.0139    1.6178    0.1368 O   0  0  0  0  0  0  0  0  0  0  0  0
    4.2766    2.4326   -1.0535 O   0  0  0  0  0  0  0  0  0  0  0  0
    2.8906   -0.0278   -0.5378 C   0  0  0  0  0  0  0  0  0  0  0  0
   -1.3632   -2.7967    1.6220 H   0  0  0  0  0  0  0  0  0  0  0  0
   -2.1943   -1.2916    2.0730 H   0  0  0  0  0  0  0  0  0  0  0  0
   -3.1672   -2.6639    1.3353 H   0  0  0  0  0  0  0  0  0  0  0  0
   -1.7298   -2.4162   -0.6944 H   0  0  0  0  0  0  0  0  0  0  0  0
   -3.9553   -1.2743   -0.3013 H   0  0  0  0  0  0  0  0  0  0  0  0
   -2.9776   -0.6498   -1.6699 H   0  0  0  0  0  0  0  0  0  0  0  0
   -5.1828    0.8257   -0.1620 H   0  0  0  0  0  0  0  0  0  0  0  0
   -5.2335    3.0489    0.9321 H   0  0  0  0  0  0  0  0  0  0  0  0
   -3.1575    4.0466    1.7787 H   0  0  0  0  0  0  0  0  0  0  0  0
   -1.0506    2.8676    1.5509 H   0  0  0  0  0  0  0  0  0  0  0  0
   -0.0038    1.1228   -0.2595 H   0  0  0  0  0  0  0  0  0  0  0  0
   -0.1238    0.6092    1.4543 H   0  0  0  0  0  0  0  0  0  0  0  0
    2.3137   -3.0917    0.6374 H   0  0  0  0  0  0  0  0  0  0  0  0
    4.6045   -2.7133    1.5220 H   0  0  0  0  0  0  0  0  0  0  0  0
    5.7936   -0.6473    1.1009 H   0  0  0  0  0  0  0  0  0  0  0  0
    4.5161    3.4052   -0.9198 H   0  0  0  0  0  0  0  0  0  0  0  0
    2.4068    0.7364   -1.1221 H   0  0  0  0  0  0  0  0  0  0  0  0
  1  2  1  0
  2  3  1  0
  3  4  1  0
  4  5  2  0
  5  6  1  0
  6  7  2  0
  7  8  1  0
  8  9  2  0
  9 10  1  0
 10 11  1  0
 11 12  1  0
 12 13  2  0
 12 14  2  0
 12 15  1  0
 15 16  2  0
 16 17  1  0
 17 18  2  0
 18 19  1  0
 19 20  1  0
 20 21  2  0
 20 22  1  0
 19 23  2  0
 11  2  1  0
 23 15  1  0
  9  4  1  0
  1 24  1  0
  1 25  1  0
  1 26  1  0
  2 27  1  0
  3 28  1  0
  3 29  1  0
  5 30  1  0
  6 31  1  0
  7 32  1  0
  8 33  1  0
 10 34  1  0
 10 35  1  0
 16 36  1  0
 17 37  1  0
 18 38  1  0
 22 39  1  0
 23 40  1  0
M  END
$$$$
