
     RDKit          3D

 56 60  0  0  0  0  0  0  0  0999 V2000
   -0.9092    1.6830    1.7559 C   0  0  0  0  0  0  0  0  0  0  0  0
   -0.3031    0.7874    0.6711 C   0  0  2  0  0  0  0  0  0  0  0  0
    0.7692   -0.0623    1.2604 C   0  0  0  0  0  0  0  0  0  0  0  0
    2.0588    0.0450    0.7254 C   0  0  0  0  0  0  0  0  0  0  0  0
    3.1313   -0.6696    1.1672 C   0  0  0  0  0  0  0  0  0  0  0  0
    4.4639   -0.6159    0.6509 C   0  0  0  0  0  0  0  0  0  0  0  0
    4.9416    0.2425   -0.2049 C   0  0  0  0  0  0  0  0  0  0  0  0
    4.1618    1.2125   -0.7081 F   0  0  0  0  0  0  0  0  0  0  0  0
    6.3510    0.1885   -0.6337 C   0  0  0  0  0  0  0  0  0  0  0  0
    6.8189    1.0605   -1.5846 C   0  0  0  0  0  0  0  0  0  0  0  0
    8.1612    0.9982   -1.9542 C   0  0  0  0  0  0  0  0  0  0  0  0
    8.9732    0.0608   -1.3514 C   0  0  0  0  0  0  0  0  0  0  0  0
   10.6650   -0.0229   -1.8206 Cl  0  0  0  0  0  0  0  0  0  0  0  0
    8.4674   -0.8118   -0.3869 C   0  0  0  0  0  0  0  0  0  0  0  0
    7.1774   -0.7118   -0.0673 N   0  0  0  0  0  0  0  0  0  0  0  0
    2.8768   -1.5505    2.2189 C   0  0  0  0  0  0  0  0  0  0  0  0
    1.6149   -1.6672    2.7526 C   0  0  0  0  0  0  0  0  0  0  0  0
    0.5480   -0.9331    2.2884 C   0  0  0  0  0  0  0  0  0  0  0  0
   -0.6772   -1.0300    2.8233 F   0  0  0  0  0  0  0  0  0  0  0  0
    0.2730    1.5994   -0.3491 N   0  0  0  0  0  0  0  0  0  0  0  0
   -0.3256    2.3043   -1.2253 C   0  0  0  0  0  0  0  0  0  0  0  0
    0.2587    3.0974   -2.2206 N   0  0  0  0  0  0  0  0  0  0  0  0
   -2.1407    2.2009   -1.1231 S   0  0  0  0  0  0  0  0  0  0  0  0
   -2.4698    0.5148   -0.5703 C   0  0  1  0  0  0  0  0  0  0  0  0
   -3.8367    0.1862   -0.2138 C   0  0  0  0  0  0  0  0  0  0  0  0
   -4.1174    0.2319    1.0450 O   0  0  0  0  0  0  0  0  0  0  0  0
   -4.8740   -0.1756   -1.1023 N   0  0  0  0  0  0  0  0  0  0  0  0
   -6.1538   -0.4786   -0.5719 C   0  0  0  0  0  0  0  0  0  0  0  0
   -7.1325    0.4569   -0.3561 C   0  0  0  0  0  0  0  0  0  0  0  0
   -8.3739    0.1736    0.1662 C   0  0  0  0  0  0  0  0  0  0  0  0
   -8.6861   -1.1216    0.5034 C   0  0  0  0  0  0  0  0  0  0  0  0
   -7.7191   -2.0891    0.2973 C   0  0  0  0  0  0  0  0  0  0  0  0
   -6.4789   -1.7976   -0.2251 C   0  0  0  0  0  0  0  0  0  0  0  0
   -1.5506   -0.5292   -1.2260 C   0  0  0  0  0  0  0  0  0  0  0  0
   -1.3893   -0.1114    0.1920 C   0  0  1  0  0  0  0  0  0  0  0  0
   -1.6952    1.1888    2.3231 H   0  0  0  0  0  0  0  0  0  0  0  0
   -0.0880    2.1291    2.3805 H   0  0  0  0  0  0  0  0  0  0  0  0
   -1.3567    2.5498    1.2337 H   0  0  0  0  0  0  0  0  0  0  0  0
    2.1960    0.7377   -0.0891 H   0  0  0  0  0  0  0  0  0  0  0  0
    5.1854   -1.3767    0.9983 H   0  0  0  0  0  0  0  0  0  0  0  0
    6.1304    1.7798   -2.0295 H   0  0  0  0  0  0  0  0  0  0  0  0
    8.5529    1.6696   -2.7024 H   0  0  0  0  0  0  0  0  0  0  0  0
    9.1511   -1.5438    0.0722 H   0  0  0  0  0  0  0  0  0  0  0  0
    3.6710   -2.1490    2.6185 H   0  0  0  0  0  0  0  0  0  0  0  0
    1.4152   -2.3557    3.5723 H   0  0  0  0  0  0  0  0  0  0  0  0
    0.9230    2.7931   -2.9494 H   0  0  0  0  0  0  0  0  0  0  0  0
   -0.0237    4.1285   -2.2160 H   0  0  0  0  0  0  0  0  0  0  0  0
   -4.6879   -0.2109   -2.1099 H   0  0  0  0  0  0  0  0  0  0  0  0
   -6.8809    1.4929   -0.6261 H   0  0  0  0  0  0  0  0  0  0  0  0
   -9.1181    0.9350    0.3240 H   0  0  0  0  0  0  0  0  0  0  0  0
   -9.6584   -1.4093    0.9190 H   0  0  0  0  0  0  0  0  0  0  0  0
   -7.9803   -3.1151    0.5693 H   0  0  0  0  0  0  0  0  0  0  0  0
   -5.7374   -2.5551   -0.3801 H   0  0  0  0  0  0  0  0  0  0  0  0
   -2.0430   -1.4951   -1.4615 H   0  0  0  0  0  0  0  0  0  0  0  0
   -0.8266   -0.1996   -1.9845 H   0  0  0  0  0  0  0  0  0  0  0  0
   -1.7031   -0.8898    0.9151 H   0  0  0  0  0  0  0  0  0  0  0  0
  2  1  1  1
  2  3  1  0
  3  4  2  0
  4  5  1  0
  5  6  1  0
  6  7  2  0
  7  8  1  0
  7  9  1  0
  9 10  2  0
 10 11  1  0
 11 12  2  0
 12 13  1  0
 12 14  1  0
 14 15  2  0
  5 16  2  0
 16 17  1  0
 17 18  2  0
 18 19  1  0
  2 20  1  0
 20 21  2  0
 21 22  1  0
 21 23  1  0
 23 24  1  0
 24 25  1  1
 25 26  2  0
 25 27  1  0
 27 28  1  0
 28 29  2  0
 29 30  1  0
 30 31  2  0
 31 32  1  0
 32 33  2  0
 24 34  1  0
 34 35  1  0
 35  2  1  0
 18  3  1  0
 35 24  1  0
 15  9  1  0
 33 28  1  0
  1 36  1  0
  1 37  1  0
  1 38  1  0
  4 39  1  0
  6 40  1  0
 10 41  1  0
 11 42  1  0
 14 43  1  0
 16 44  1  0
 17 45  1  0
 22 46  1  0
 22 47  1  0
 27 48  1  0
 29 49  1  0
 30 50  1  0
 31 51  1  0
 32 52  1  0
 33 53  1  0
 34 54  1  0
 34 55  1  0
 35 56  1  1
M  END
$$$$
