
     RDKit          3D

 63 67  0  0  0  0  0  0  0  0999 V2000
    2.0725   -1.8420    2.3988 C   0  0  0  0  0  0  0  0  0  0  0  0
    1.2746   -1.4740    1.3209 O   0  0  0  0  0  0  0  0  0  0  0  0
    1.7075   -0.5360    0.4031 C   0  0  0  0  0  0  0  0  0  0  0  0
    2.9445    0.0424    0.5469 C   0  0  0  0  0  0  0  0  0  0  0  0
    3.4336    0.9821   -0.3304 C   0  0  0  0  0  0  0  0  0  0  0  0
    4.6750    1.5591   -0.1729 C   0  0  0  0  0  0  0  0  0  0  0  0
    5.4766    1.2009    0.9211 N   0  0  0  0  0  0  0  0  0  0  0  0
    6.5083    0.2523    0.7758 C   0  0  0  0  0  0  0  0  0  0  0  0
    6.8651   -0.2139   -0.4593 C   0  0  0  0  0  0  0  0  0  0  0  0
    7.9008   -1.1481   -0.5370 C   0  0  0  0  0  0  0  0  0  0  0  0
    8.5455   -1.5870    0.6054 C   0  0  0  0  0  0  0  0  0  0  0  0
    9.8396   -2.7545    0.4297 Cl  0  0  0  0  0  0  0  0  0  0  0  0
    8.1831   -1.1142    1.8550 C   0  0  0  0  0  0  0  0  0  0  0  0
    9.0166   -1.6866    3.2882 Cl  0  0  0  0  0  0  0  0  0  0  0  0
    7.1503   -0.1819    1.9388 C   0  0  0  0  0  0  0  0  0  0  0  0
    5.0988    2.4691   -1.0579 N   0  0  0  0  0  0  0  0  0  0  0  0
    4.3495    2.8535   -2.1156 C   0  0  0  0  0  0  0  0  0  0  0  0
    3.1467    2.3067   -2.2786 N   0  0  0  0  0  0  0  0  0  0  0  0
    2.6742    1.3798   -1.4077 C   0  0  0  0  0  0  0  0  0  0  0  0
    1.4120    0.7943   -1.5599 C   0  0  0  0  0  0  0  0  0  0  0  0
    0.9228   -0.1381   -0.6917 C   0  0  0  0  0  0  0  0  0  0  0  0
   -0.2974   -0.7101   -0.8221 O   0  0  0  0  0  0  0  0  0  0  0  0
   -1.3106   -0.5030   -1.7336 C   0  0  0  0  0  0  0  0  0  0  0  0
   -1.9423    0.8692   -1.6930 C   0  0  0  0  0  0  0  0  0  0  0  0
   -2.4979    1.0878   -0.3829 N   0  0  0  0  0  0  0  0  0  0  0  0
   -3.6310    0.2543   -0.1551 C   0  0  0  0  0  0  0  0  0  0  0  0
   -4.7394    0.5160   -1.1699 C   0  0  0  0  0  0  0  0  0  0  0  0
   -6.0344   -0.0806   -0.6457 C   0  0  0  0  0  0  0  0  0  0  0  0
   -6.7501    0.9884    0.1421 C   0  0  0  0  0  0  0  0  0  0  0  0
   -6.5567    0.5917    1.5972 C   0  0  0  0  0  0  0  0  0  0  0  0
   -5.3785   -0.4020    1.4700 C   0  0  0  0  0  0  0  0  0  0  0  0
   -4.1678    0.4638    1.2737 C   0  0  0  0  0  0  0  0  0  0  0  0
   -5.7160   -1.1409    0.2665 N   0  0  0  0  0  0  0  0  0  0  0  0
   -6.7656   -2.0803    0.4642 C   0  0  0  0  0  0  0  0  0  0  0  0
    3.0075   -2.3636    2.0787 H   0  0  0  0  0  0  0  0  0  0  0  0
    1.4880   -2.4913    3.1058 H   0  0  0  0  0  0  0  0  0  0  0  0
    2.4010   -0.9539    2.9727 H   0  0  0  0  0  0  0  0  0  0  0  0
    3.5621   -0.2599    1.3961 H   0  0  0  0  0  0  0  0  0  0  0  0
    5.2792    1.6669    1.8490 H   0  0  0  0  0  0  0  0  0  0  0  0
    6.3693    0.1233   -1.3536 H   0  0  0  0  0  0  0  0  0  0  0  0
    8.1550   -1.4922   -1.5347 H   0  0  0  0  0  0  0  0  0  0  0  0
    6.8549    0.1966    2.9055 H   0  0  0  0  0  0  0  0  0  0  0  0
    4.7606    3.5951   -2.8011 H   0  0  0  0  0  0  0  0  0  0  0  0
    0.8787    1.1423   -2.4369 H   0  0  0  0  0  0  0  0  0  0  0  0
   -2.1194   -1.2461   -1.5807 H   0  0  0  0  0  0  0  0  0  0  0  0
   -0.9465   -0.7247   -2.7847 H   0  0  0  0  0  0  0  0  0  0  0  0
   -2.7583    0.8457   -2.4731 H   0  0  0  0  0  0  0  0  0  0  0  0
   -1.2955    1.6946   -2.0010 H   0  0  0  0  0  0  0  0  0  0  0  0
   -1.7889    0.9241    0.3736 H   0  0  0  0  0  0  0  0  0  0  0  0
   -3.4398   -0.8370   -0.1984 H   0  0  0  0  0  0  0  0  0  0  0  0
   -4.4551   -0.1220   -2.0622 H   0  0  0  0  0  0  0  0  0  0  0  0
   -4.8319    1.5746   -1.4418 H   0  0  0  0  0  0  0  0  0  0  0  0
   -6.6855   -0.3925   -1.4935 H   0  0  0  0  0  0  0  0  0  0  0  0
   -6.2796    1.9996   -0.0362 H   0  0  0  0  0  0  0  0  0  0  0  0
   -7.7973    1.1007   -0.1379 H   0  0  0  0  0  0  0  0  0  0  0  0
   -7.4199    0.1176    2.0563 H   0  0  0  0  0  0  0  0  0  0  0  0
   -6.2581    1.4696    2.2017 H   0  0  0  0  0  0  0  0  0  0  0  0
   -5.3354   -1.0928    2.3115 H   0  0  0  0  0  0  0  0  0  0  0  0
   -3.3402    0.0975    1.9290 H   0  0  0  0  0  0  0  0  0  0  0  0
   -4.3377    1.5337    1.4660 H   0  0  0  0  0  0  0  0  0  0  0  0
   -6.7620   -2.7673   -0.4331 H   0  0  0  0  0  0  0  0  0  0  0  0
   -6.5353   -2.7237    1.3358 H   0  0  0  0  0  0  0  0  0  0  0  0
   -7.7795   -1.6333    0.4918 H   0  0  0  0  0  0  0  0  0  0  0  0
  1  2  1  0
  2  3  1  0
  3  4  2  0
  4  5  1  0
  5  6  2  0
  6  7  1  0
  7  8  1  0
  8  9  2  0
  9 10  1  0
 10 11  2  0
 11 12  1  0
 11 13  1  0
 13 14  1  0
 13 15  2  0
  6 16  1  0
 16 17  2  0
 17 18  1  0
 18 19  2  0
 19 20  1  0
 20 21  2  0
 21 22  1  0
 22 23  1  0
 23 24  1  0
 24 25  1  0
 25 26  1  0
 26 27  1  0
 27 28  1  0
 28 29  1  0
 29 30  1  0
 30 31  1  0
 31 32  1  0
 31 33  1  0
 33 34  1  0
 21  3  1  0
 32 26  1  0
 19  5  1  0
 33 28  1  0
 15  8  1  0
  1 35  1  0
  1 36  1  0
  1 37  1  0
  4 38  1  0
  7 39  1  0
  9 40  1  0
 10 41  1  0
 15 42  1  0
 17 43  1  0
 20 44  1  0
 23 45  1  0
 23 46  1  0
 24 47  1  0
 24 48  1  0
 25 49  1  0
 26 50  1  0
 27 51  1  0
 27 52  1  0
 28 53  1  0
 29 54  1  0
 29 55  1  0
 30 56  1  0
 30 57  1  0
 31 58  1  0
 32 59  1  0
 32 60  1  0
 34 61  1  0
 34 62  1  0
 34 63  1  0
M  END
$$$$
