
     RDKit          3D

 34 36  0  0  0  0  0  0  0  0999 V2000
   -0.8078    3.8526    1.3926 C   0  0  0  0  0  0  0  0  0  0  0  0
   -1.2251    2.6697    0.6960 O   0  0  0  0  0  0  0  0  0  0  0  0
   -0.3546    1.5767    0.5719 C   0  0  0  0  0  0  0  0  0  0  0  0
    0.7612    1.7199    1.0992 O   0  0  0  0  0  0  0  0  0  0  0  0
   -0.7791    0.3749   -0.1392 C   0  0  0  0  0  0  0  0  0  0  0  0
   -0.0009   -0.6568   -0.2838 C   0  0  0  0  0  0  0  0  0  0  0  0
    1.4411   -0.4566   -0.3196 C   0  0  0  0  0  0  0  0  0  0  0  0
    2.2431   -1.3411    0.3558 C   0  0  0  0  0  0  0  0  0  0  0  0
    3.6190   -1.1969    0.3287 C   0  0  0  0  0  0  0  0  0  0  0  0
    4.2141   -0.1601   -0.3793 C   0  0  0  0  0  0  0  0  0  0  0  0
    6.1147    0.0219   -0.4082 Br  0  0  0  0  0  0  0  0  0  0  0  0
    3.3653    0.7001   -1.0404 C   0  0  0  0  0  0  0  0  0  0  0  0
    1.9895    0.5709   -1.0233 C   0  0  0  0  0  0  0  0  0  0  0  0
   -0.4336   -2.0710   -0.4318 C   0  0  0  0  0  0  0  0  0  0  0  0
   -1.8415   -2.2430   -0.8929 C   0  0  0  0  0  0  0  0  0  0  0  0
   -2.7698   -1.8568    0.2050 C   0  0  0  0  0  0  0  0  0  0  0  0
   -3.0088   -0.4188    0.2855 C   0  0  0  0  0  0  0  0  0  0  0  0
   -2.1633    0.3490   -0.6955 C   0  0  0  0  0  0  0  0  0  0  0  0
   -2.1277   -0.8519   -2.0717 S   0  0  0  0  0  0  0  0  0  0  0  0
   -1.4825    4.6621    1.0198 H   0  0  0  0  0  0  0  0  0  0  0  0
   -0.7846    3.7352    2.4738 H   0  0  0  0  0  0  0  0  0  0  0  0
    0.2082    4.1528    1.0575 H   0  0  0  0  0  0  0  0  0  0  0  0
    1.8051   -2.1803    0.9314 H   0  0  0  0  0  0  0  0  0  0  0  0
    4.2643   -1.8894    0.8587 H   0  0  0  0  0  0  0  0  0  0  0  0
    3.8088    1.5240   -1.6050 H   0  0  0  0  0  0  0  0  0  0  0  0
    1.4043    1.3066   -1.5798 H   0  0  0  0  0  0  0  0  0  0  0  0
   -0.2371   -2.5754    0.5346 H   0  0  0  0  0  0  0  0  0  0  0  0
    0.2708   -2.5222   -1.2080 H   0  0  0  0  0  0  0  0  0  0  0  0
   -2.0092   -3.2073   -1.3362 H   0  0  0  0  0  0  0  0  0  0  0  0
   -2.3417   -2.2447    1.1749 H   0  0  0  0  0  0  0  0  0  0  0  0
   -3.7066   -2.4417    0.0757 H   0  0  0  0  0  0  0  0  0  0  0  0
   -2.8181   -0.0016    1.3221 H   0  0  0  0  0  0  0  0  0  0  0  0
   -4.0703   -0.1931    0.0615 H   0  0  0  0  0  0  0  0  0  0  0  0
   -2.5470    1.2924   -1.0300 H   0  0  0  0  0  0  0  0  0  0  0  0
  1  2  1  0
  2  3  1  0
  3  4  2  0
  3  5  1  0
  5  6  2  0
  6  7  1  0
  7  8  2  0
  8  9  1  0
  9 10  2  0
 10 11  1  0
 10 12  1  0
 12 13  2  0
  6 14  1  0
 14 15  1  0
 15 16  1  0
 16 17  1  0
 17 18  1  0
 18 19  1  0
 18  5  1  0
 13  7  1  0
 19 15  1  0
  1 20  1  0
  1 21  1  0
  1 22  1  0
  8 23  1  0
  9 24  1  0
 12 25  1  0
 13 26  1  0
 14 27  1  0
 14 28  1  0
 15 29  1  0
 16 30  1  0
 16 31  1  0
 17 32  1  0
 17 33  1  0
 18 34  1  0
M  END
$$$$
