
     RDKit          3D

126129  0  0  0  0  0  0  0  0999 V2000
    6.3532   -4.7640    3.9388 C   0  0  0  0  0  0  0  0  0  0  0  0
    7.4955   -3.9620    3.3630 C   0  0  0  0  0  0  0  0  0  0  0  0
    6.9476   -3.0341    2.3327 C   0  0  0  0  0  0  0  0  0  0  0  0
    5.9439   -2.0457    2.8072 C   0  0  2  0  0  0  0  0  0  0  0  0
    5.4892   -1.2049    1.6829 N   0  0  0  0  0  0  0  0  0  0  0  0
    4.1539   -0.9247    1.4122 C   0  0  0  0  0  0  0  0  0  0  0  0
    3.2502   -1.3863    2.1443 O   0  0  0  0  0  0  0  0  0  0  0  0
    3.7073   -0.0721    0.2565 C   0  0  2  0  0  0  0  0  0  0  0  0
    4.4978    1.1832    0.1849 C   0  0  0  0  0  0  0  0  0  0  0  0
    3.4614    2.2932    0.1824 C   0  0  1  0  0  0  0  0  0  0  0  0
    3.2485    2.6081   -1.1244 O   0  0  0  0  0  0  0  0  0  0  0  0
    3.5000    3.8719   -1.5579 C   0  0  0  0  0  0  0  0  0  0  0  0
    4.9331    4.1953   -1.2882 C   0  0  0  0  0  0  0  0  0  0  0  0
    5.9436    3.7752   -2.1174 C   0  0  0  0  0  0  0  0  0  0  0  0
    7.2571    4.0898   -1.8603 C   0  0  0  0  0  0  0  0  0  0  0  0
    7.5754    4.8353   -0.7605 C   0  0  0  0  0  0  0  0  0  0  0  0
    8.8906    5.1812   -0.4567 C   0  0  0  0  0  0  0  0  0  0  0  0
    9.1483    5.9365    0.6655 C   0  0  0  0  0  0  0  0  0  0  0  0
    8.1739    6.3773    1.5180 C   0  0  0  0  0  0  0  0  0  0  0  0
    6.8703    6.0216    1.1975 C   0  0  0  0  0  0  0  0  0  0  0  0
    6.5784    5.2682    0.0838 C   0  0  0  0  0  0  0  0  0  0  0  0
    5.2498    4.9439   -0.1859 C   0  0  0  0  0  0  0  0  0  0  0  0
    2.2874    1.6304    0.8821 C   0  0  0  0  0  0  0  0  0  0  0  0
    2.3253    0.2436    0.3275 N   0  0  0  0  0  0  0  0  0  0  0  0
    1.1139   -0.4334    0.0742 C   0  0  0  0  0  0  0  0  0  0  0  0
    0.0325    0.1978    0.3990 O   0  0  0  0  0  0  0  0  0  0  0  0
    1.0029   -1.7723   -0.5092 C   0  0  1  0  0  0  0  0  0  0  0  0
   -0.3485   -2.3183   -0.3217 N   0  0  0  0  0  0  0  0  0  0  0  0
   -1.5275   -1.6994   -0.7577 C   0  0  0  0  0  0  0  0  0  0  0  0
   -1.5160   -0.6179   -1.3838 O   0  0  0  0  0  0  0  0  0  0  0  0
   -2.8338   -2.3803   -0.4367 C   0  0  1  0  0  0  0  0  0  0  0  0
   -3.9415   -1.5898   -0.9321 N   0  0  0  0  0  0  0  0  0  0  0  0
   -4.5658   -0.5777   -0.1594 C   0  0  0  0  0  0  0  0  0  0  0  0
   -4.0477   -0.4270    1.0073 O   0  0  0  0  0  0  0  0  0  0  0  0
   -5.6808    0.2755   -0.5342 C   0  0  1  0  0  0  0  0  0  0  0  0
   -6.9884   -0.5025   -0.2869 C   0  0  0  0  0  0  0  0  0  0  0  0
   -7.0067   -1.7594   -1.1126 C   0  0  0  0  0  0  0  0  0  0  0  0
   -8.3079   -2.4518   -0.8444 C   0  0  0  0  0  0  0  0  0  0  0  0
   -9.1194   -1.9560   -0.0299 O   0  0  0  0  0  0  0  0  0  0  0  0
   -8.6637   -3.6441   -1.4705 O   0  0  0  0  0  0  0  0  0  0  0  0
   -5.8140    1.4022    0.4318 N   0  0  0  0  0  0  0  0  0  0  0  0
   -6.1068    2.7160   -0.0019 C   0  0  0  0  0  0  0  0  0  0  0  0
   -6.2470    2.8469   -1.2698 O   0  0  0  0  0  0  0  0  0  0  0  0
   -6.2551    3.8941    0.8431 C   0  0  2  0  0  0  0  0  0  0  0  0
   -7.3140    3.8643    1.8799 C   0  0  0  0  0  0  0  0  0  0  0  0
   -7.2073    2.7943    2.8890 C   0  0  0  0  0  0  0  0  0  0  0  0
   -7.9026    1.7226    2.8624 O   0  0  0  0  0  0  0  0  0  0  0  0
   -6.3121    2.8866    3.9702 O   0  0  0  0  0  0  0  0  0  0  0  0
   -6.5283    5.0532   -0.0274 N   0  0  0  0  0  0  0  0  0  0  0  0
   -7.6827    5.0449   -0.8275 C   0  0  0  0  0  0  0  0  0  0  0  0
   -7.9738    6.2173   -1.7175 C   0  0  0  0  0  0  0  0  0  0  0  0
   -8.5013    4.1098   -0.8494 O   0  0  0  0  0  0  0  0  0  0  0  0
   -2.8412   -3.7287   -1.0362 C   0  0  0  0  0  0  0  0  0  0  0  0
   -4.1074   -4.5189   -0.7575 C   0  0  0  0  0  0  0  0  0  0  0  0
   -3.7043   -5.9873   -0.9916 C   0  0  0  0  0  0  0  0  0  0  0  0
   -3.0556   -6.1300   -2.3437 C   0  0  0  0  0  0  0  0  0  0  0  0
   -3.3430   -4.9012   -3.1588 C   0  0  0  0  0  0  0  0  0  0  0  0
   -2.5314   -3.7615   -2.5203 C   0  0  0  0  0  0  0  0  0  0  0  0
    1.4858   -1.9605   -1.9002 C   0  0  0  0  0  0  0  0  0  0  0  0
    1.2646   -3.4058   -2.3081 C   0  0  0  0  0  0  0  0  0  0  0  0
    0.9385   -0.9908   -2.9172 C   0  0  0  0  0  0  0  0  0  0  0  0
    6.4414   -1.1860    3.9138 C   0  0  0  0  0  0  0  0  0  0  0  0
    6.4850    0.0687    3.8657 O   0  0  0  0  0  0  0  0  0  0  0  0
    6.8840   -1.7962    5.0695 O   0  0  0  0  0  0  0  0  0  0  0  0
    6.1750   -4.5762    5.0162 H   0  0  0  0  0  0  0  0  0  0  0  0
    5.3828   -4.5592    3.4002 H   0  0  0  0  0  0  0  0  0  0  0  0
    6.4939   -5.8752    3.8013 H   0  0  0  0  0  0  0  0  0  0  0  0
    8.1902   -4.7243    2.8924 H   0  0  0  0  0  0  0  0  0  0  0  0
    8.1243   -3.4810    4.1354 H   0  0  0  0  0  0  0  0  0  0  0  0
    7.8291   -2.4442    1.9302 H   0  0  0  0  0  0  0  0  0  0  0  0
    6.6023   -3.6016    1.4292 H   0  0  0  0  0  0  0  0  0  0  0  0
    5.0608   -2.5638    3.2149 H   0  0  0  0  0  0  0  0  0  0  0  0
    6.2280   -0.7931    1.0518 H   0  0  0  0  0  0  0  0  0  0  0  0
    3.9043   -0.6274   -0.6992 H   0  0  0  0  0  0  0  0  0  0  0  0
    5.1341    1.3257    1.0993 H   0  0  0  0  0  0  0  0  0  0  0  0
    5.1267    1.2302   -0.7366 H   0  0  0  0  0  0  0  0  0  0  0  0
    3.8049    3.1341    0.8280 H   0  0  0  0  0  0  0  0  0  0  0  0
    3.3996    3.8551   -2.6818 H   0  0  0  0  0  0  0  0  0  0  0  0
    2.8695    4.6687   -1.1162 H   0  0  0  0  0  0  0  0  0  0  0  0
    5.6884    3.1801   -2.9908 H   0  0  0  0  0  0  0  0  0  0  0  0
    8.0865    3.7731   -2.4936 H   0  0  0  0  0  0  0  0  0  0  0  0
    9.6486    4.8242   -1.1384 H   0  0  0  0  0  0  0  0  0  0  0  0
   10.1684    6.1896    0.8763 H   0  0  0  0  0  0  0  0  0  0  0  0
    8.3634    6.9682    2.3976 H   0  0  0  0  0  0  0  0  0  0  0  0
    6.0847    6.3598    1.8568 H   0  0  0  0  0  0  0  0  0  0  0  0
    4.4753    5.3253    0.5119 H   0  0  0  0  0  0  0  0  0  0  0  0
    2.3954    1.6072    1.9604 H   0  0  0  0  0  0  0  0  0  0  0  0
    1.3760    2.0907    0.4781 H   0  0  0  0  0  0  0  0  0  0  0  0
    1.6841   -2.4132    0.1410 H   0  0  0  0  0  0  0  0  0  0  0  0
   -0.4293   -3.2591    0.1878 H   0  0  0  0  0  0  0  0  0  0  0  0
   -2.8239   -2.4319    0.6729 H   0  0  0  0  0  0  0  0  0  0  0  0
   -4.2994   -1.7575   -1.8899 H   0  0  0  0  0  0  0  0  0  0  0  0
   -5.7362    0.6225   -1.5649 H   0  0  0  0  0  0  0  0  0  0  0  0
   -6.9279   -0.8165    0.7907 H   0  0  0  0  0  0  0  0  0  0  0  0
   -7.8745    0.1490   -0.4525 H   0  0  0  0  0  0  0  0  0  0  0  0
   -6.8890   -1.5433   -2.1752 H   0  0  0  0  0  0  0  0  0  0  0  0
   -6.2089   -2.4219   -0.6887 H   0  0  0  0  0  0  0  0  0  0  0  0
   -9.1542   -4.3801   -0.9417 H   0  0  0  0  0  0  0  0  0  0  0  0
   -5.6842    1.2340    1.4425 H   0  0  0  0  0  0  0  0  0  0  0  0
   -5.2606    4.0724    1.3337 H   0  0  0  0  0  0  0  0  0  0  0  0
   -8.3454    3.9071    1.4669 H   0  0  0  0  0  0  0  0  0  0  0  0
   -7.2227    4.8304    2.4690 H   0  0  0  0  0  0  0  0  0  0  0  0
   -6.4459    2.3296    4.7953 H   0  0  0  0  0  0  0  0  0  0  0  0
   -5.8951    5.8737   -0.0677 H   0  0  0  0  0  0  0  0  0  0  0  0
   -8.6862    6.8555   -1.1999 H   0  0  0  0  0  0  0  0  0  0  0  0
   -7.0156    6.6580   -2.0034 H   0  0  0  0  0  0  0  0  0  0  0  0
   -8.4674    5.8558   -2.6422 H   0  0  0  0  0  0  0  0  0  0  0  0
   -2.0189   -4.3216   -0.5441 H   0  0  0  0  0  0  0  0  0  0  0  0
   -4.3448   -4.4309    0.3019 H   0  0  0  0  0  0  0  0  0  0  0  0
   -4.9506   -4.2699   -1.3962 H   0  0  0  0  0  0  0  0  0  0  0  0
   -2.9523   -6.3069   -0.2349 H   0  0  0  0  0  0  0  0  0  0  0  0
   -4.6159   -6.6217   -0.9948 H   0  0  0  0  0  0  0  0  0  0  0  0
   -1.9534   -6.2028   -2.2474 H   0  0  0  0  0  0  0  0  0  0  0  0
   -3.4520   -7.0123   -2.8872 H   0  0  0  0  0  0  0  0  0  0  0  0
   -2.9191   -5.0050   -4.1993 H   0  0  0  0  0  0  0  0  0  0  0  0
   -4.3971   -4.6538   -3.2906 H   0  0  0  0  0  0  0  0  0  0  0  0
   -1.4690   -3.9796   -2.7045 H   0  0  0  0  0  0  0  0  0  0  0  0
   -2.7920   -2.8498   -3.0566 H   0  0  0  0  0  0  0  0  0  0  0  0
    2.5954   -1.8314   -1.9242 H   0  0  0  0  0  0  0  0  0  0  0  0
    0.6786   -3.8976   -1.5302 H   0  0  0  0  0  0  0  0  0  0  0  0
    2.2435   -3.9086   -2.3761 H   0  0  0  0  0  0  0  0  0  0  0  0
    0.8001   -3.4855   -3.3175 H   0  0  0  0  0  0  0  0  0  0  0  0
    0.8647    0.0097   -2.4974 H   0  0  0  0  0  0  0  0  0  0  0  0
    1.7340   -0.8982   -3.7262 H   0  0  0  0  0  0  0  0  0  0  0  0
    0.0513   -1.3371   -3.4532 H   0  0  0  0  0  0  0  0  0  0  0  0
    7.0127   -1.3052    5.9539 H   0  0  0  0  0  0  0  0  0  0  0  0
  1  2  1  0
  2  3  1  0
  3  4  1  0
  4  5  1  0
  5  6  1  0
  6  7  2  0
  6  8  1  0
  8  9  1  0
  9 10  1  0
 10 11  1  0
 11 12  1  0
 12 13  1  0
 13 14  2  0
 14 15  1  0
 15 16  2  0
 16 17  1  0
 17 18  2  0
 18 19  1  0
 19 20  2  0
 20 21  1  0
 21 22  2  0
 10 23  1  0
 23 24  1  0
 24 25  1  0
 25 26  2  0
 25 27  1  0
 27 28  1  0
 28 29  1  0
 29 30  2  0
 29 31  1  0
 31 32  1  0
 32 33  1  0
 33 34  2  0
 33 35  1  0
 35 36  1  0
 36 37  1  0
 37 38  1  0
 38 39  2  0
 38 40  1  0
 35 41  1  0
 41 42  1  0
 42 43  2  0
 42 44  1  0
 44 45  1  0
 45 46  1  0
 46 47  2  0
 46 48  1  0
 44 49  1  0
 49 50  1  0
 50 51  1  0
 50 52  2  0
 31 53  1  0
 53 54  1  0
 54 55  1  0
 55 56  1  0
 56 57  1  0
 57 58  1  0
 27 59  1  0
 59 60  1  0
 59 61  1  0
  4 62  1  0
 62 63  2  0
 62 64  1  0
 24  8  1  0
 58 53  1  0
 22 13  1  0
 21 16  1  0
  1 65  1  0
  1 66  1  0
  1 67  1  0
  2 68  1  0
  2 69  1  0
  3 70  1  0
  3 71  1  0
  4 72  1  1
  5 73  1  0
  8 74  1  6
  9 75  1  0
  9 76  1  0
 10 77  1  1
 12 78  1  0
 12 79  1  0
 14 80  1  0
 15 81  1  0
 17 82  1  0
 18 83  1  0
 19 84  1  0
 20 85  1  0
 22 86  1  0
 23 87  1  0
 23 88  1  0
 27 89  1  1
 28 90  1  0
 31 91  1  1
 32 92  1  0
 35 93  1  6
 36 94  1  0
 36 95  1  0
 37 96  1  0
 37 97  1  0
 40 98  1  0
 41 99  1  0
 44100  1  1
 45101  1  0
 45102  1  0
 48103  1  0
 49104  1  0
 51105  1  0
 51106  1  0
 51107  1  0
 53108  1  0
 54109  1  0
 54110  1  0
 55111  1  0
 55112  1  0
 56113  1  0
 56114  1  0
 57115  1  0
 57116  1  0
 58117  1  0
 58118  1  0
 59119  1  0
 60120  1  0
 60121  1  0
 60122  1  0
 61123  1  0
 61124  1  0
 61125  1  0
 64126  1  0
M  END
$$$$
