
     RDKit          3D

 24 26  0  0  0  0  0  0  0  0999 V2000
   -3.3539    0.1286   -0.2213 N   0  0  0  0  0  0  0  0  0  0  0  0
   -1.9891    0.4770   -0.1033 C   0  0  0  0  0  0  0  0  0  0  0  0
   -1.6751    1.8353    0.0105 C   0  0  0  0  0  0  0  0  0  0  0  0
   -0.3748    2.2780    0.1305 C   0  0  0  0  0  0  0  0  0  0  0  0
    0.6581    1.3457    0.1386 C   0  0  0  0  0  0  0  0  0  0  0  0
    2.0163    1.8422    0.2662 C   0  0  0  0  0  0  0  0  0  0  0  0
    2.2905    3.0652    0.3681 O   0  0  0  0  0  0  0  0  0  0  0  0
    3.0602    0.8629    0.2720 N   0  0  0  0  0  0  0  0  0  0  0  0
    2.7721   -0.5464    0.1564 C   0  0  0  0  0  0  0  0  0  0  0  0
    3.6797   -1.3914    0.1619 O   0  0  0  0  0  0  0  0  0  0  0  0
    1.3652   -0.9369    0.0327 C   0  0  0  0  0  0  0  0  0  0  0  0
    1.0582   -2.2721   -0.0791 C   0  0  0  0  0  0  0  0  0  0  0  0
   -0.2581   -2.7295   -0.2011 C   0  0  0  0  0  0  0  0  0  0  0  0
   -1.2565   -1.7730   -0.2053 C   0  0  0  0  0  0  0  0  0  0  0  0
   -0.9563   -0.4378   -0.0939 C   0  0  0  0  0  0  0  0  0  0  0  0
    0.3527   -0.0150    0.0252 C   0  0  0  0  0  0  0  0  0  0  0  0
   -4.0395    0.8130   -0.6099 H   0  0  0  0  0  0  0  0  0  0  0  0
   -3.8285   -0.7528    0.0290 H   0  0  0  0  0  0  0  0  0  0  0  0
   -2.4786    2.5608    0.0042 H   0  0  0  0  0  0  0  0  0  0  0  0
   -0.1978    3.3282    0.2139 H   0  0  0  0  0  0  0  0  0  0  0  0
    4.0687    1.1604    0.3619 H   0  0  0  0  0  0  0  0  0  0  0  0
    1.8376   -2.9944   -0.0742 H   0  0  0  0  0  0  0  0  0  0  0  0
   -0.4562   -3.7750   -0.2857 H   0  0  0  0  0  0  0  0  0  0  0  0
   -2.2950   -2.0728   -0.2974 H   0  0  0  0  0  0  0  0  0  0  0  0
  1  2  1  0
  2  3  2  0
  3  4  1  0
  4  5  2  0
  5  6  1  0
  6  7  2  0
  6  8  1  0
  8  9  1  0
  9 10  2  0
  9 11  1  0
 11 12  1  0
 12 13  2  0
 13 14  1  0
 14 15  2  0
 15 16  1  0
 15  2  1  0
 16  5  1  0
 16 11  2  0
  1 17  1  0
  1 18  1  0
  3 19  1  0
  4 20  1  0
  8 21  1  0
 12 22  1  0
 13 23  1  0
 14 24  1  0
M  END
$$$$
