
     RDKit          3D

 16 15  0  0  0  0  0  0  0  0999 V2000
   -2.5532    0.6195    0.0138 C   0  0  0  0  0  0  0  0  0  0  0  0
   -1.4136   -0.3363    0.1956 C   0  0  0  0  0  0  0  0  0  0  0  0
   -1.5722   -1.4956    0.5665 O   0  0  0  0  0  0  0  0  0  0  0  0
   -0.0739    0.1989   -0.0993 C   0  0  0  0  0  0  0  0  0  0  0  0
    0.9203   -0.9202    0.1475 C   0  0  0  0  0  0  0  0  0  0  0  0
    2.2869   -0.4259   -0.1377 C   0  0  0  0  0  0  0  0  0  0  0  0
    2.5934    0.8690   -0.5655 O   0  0  0  0  0  0  0  0  0  0  0  0
    3.3418   -1.0944   -0.0351 O   0  0  0  0  0  0  0  0  0  0  0  0
   -2.4144    1.4260    0.7601 H   0  0  0  0  0  0  0  0  0  0  0  0
   -3.4858    0.0859    0.2585 H   0  0  0  0  0  0  0  0  0  0  0  0
   -2.5451    1.0426   -1.0231 H   0  0  0  0  0  0  0  0  0  0  0  0
    0.2091    1.0365    0.5908 H   0  0  0  0  0  0  0  0  0  0  0  0
   -0.0387    0.6128   -1.1146 H   0  0  0  0  0  0  0  0  0  0  0  0
    0.7857   -1.2255    1.2083 H   0  0  0  0  0  0  0  0  0  0  0  0
    0.6060   -1.7693   -0.4908 H   0  0  0  0  0  0  0  0  0  0  0  0
    3.3538    1.3761   -0.1208 H   0  0  0  0  0  0  0  0  0  0  0  0
  1  2  1  0
  2  3  2  0
  2  4  1  0
  4  5  1  0
  5  6  1  0
  6  7  1  0
  6  8  2  0
  1  9  1  0
  1 10  1  0
  1 11  1  0
  4 12  1  0
  4 13  1  0
  5 14  1  0
  5 15  1  0
  7 16  1  0
M  END
$$$$
