
     RDKit          3D

 37 39  0  0  0  0  0  0  0  0999 V2000
    6.5597    0.4056    0.0845 N   0  0  0  0  0  0  0  0  0  0  0  0
    5.7136    0.8329   -0.9834 C   0  0  0  0  0  0  0  0  0  0  0  0
    6.5296    1.2277   -1.8985 N   0  0  0  0  0  0  0  0  0  0  0  0
    4.2729    0.7470   -0.8400 C   0  0  0  0  0  0  0  0  0  0  0  0
    3.4478    1.6667   -1.4906 C   0  0  0  0  0  0  0  0  0  0  0  0
    2.0714    1.5335   -1.3192 C   0  0  0  0  0  0  0  0  0  0  0  0
    1.5500    0.5225   -0.5302 C   0  0  0  0  0  0  0  0  0  0  0  0
    0.1780    0.4622   -0.4145 C   0  0  0  0  0  0  0  0  0  0  0  0
   -0.3215   -0.5605    0.3819 C   0  0  0  0  0  0  0  0  0  0  0  0
    0.5395   -1.4443    1.0043 C   0  0  0  0  0  0  0  0  0  0  0  0
    1.9110   -1.3650    0.8742 C   0  0  0  0  0  0  0  0  0  0  0  0
    2.4155   -0.3525    0.0849 C   0  0  0  0  0  0  0  0  0  0  0  0
    3.7855   -0.2664   -0.0507 C   0  0  0  0  0  0  0  0  0  0  0  0
   -1.7402   -0.7917    0.6264 C   0  0  0  0  0  0  0  0  0  0  0  0
   -2.2009   -1.7155    1.3663 O   0  0  0  0  0  0  0  0  0  0  0  0
   -2.7480    0.0109    0.0475 N   0  0  0  0  0  0  0  0  0  0  0  0
   -4.1555   -0.1067    0.2025 C   0  0  0  0  0  0  0  0  0  0  0  0
   -4.9249    0.5125    1.1625 C   0  0  0  0  0  0  0  0  0  0  0  0
   -6.2904    0.3451    1.2469 C   0  0  0  0  0  0  0  0  0  0  0  0
   -6.8793   -0.4925    0.3046 C   0  0  0  0  0  0  0  0  0  0  0  0
   -6.1603   -1.1469   -0.6896 C   0  0  0  0  0  0  0  0  0  0  0  0
   -4.7820   -0.9229   -0.7043 C   0  0  0  0  0  0  0  0  0  0  0  0
    7.1469    0.1320    0.8981 H   0  0  0  0  0  0  0  0  0  0  0  0
    7.1699    0.1032    0.8741 H   0  0  0  0  0  0  0  0  0  0  0  0
    7.5457    1.1825   -1.7445 H   0  0  0  0  0  0  0  0  0  0  0  0
    3.9673    2.4116   -2.0770 H   0  0  0  0  0  0  0  0  0  0  0  0
    1.4589    2.2582   -1.8339 H   0  0  0  0  0  0  0  0  0  0  0  0
   -0.5108    1.1259   -0.8800 H   0  0  0  0  0  0  0  0  0  0  0  0
    0.1833   -2.2503    1.6303 H   0  0  0  0  0  0  0  0  0  0  0  0
    2.5694   -2.0668    1.3694 H   0  0  0  0  0  0  0  0  0  0  0  0
    4.4158   -0.9745    0.4506 H   0  0  0  0  0  0  0  0  0  0  0  0
   -2.5039    0.8199   -0.5931 H   0  0  0  0  0  0  0  0  0  0  0  0
   -4.4027    1.1514    1.8655 H   0  0  0  0  0  0  0  0  0  0  0  0
   -6.8747    0.8421    2.0102 H   0  0  0  0  0  0  0  0  0  0  0  0
   -7.9647   -0.5964    0.4091 H   0  0  0  0  0  0  0  0  0  0  0  0
   -6.6892   -1.7810   -1.3847 H   0  0  0  0  0  0  0  0  0  0  0  0
   -4.2827   -1.4595   -1.4999 H   0  0  0  0  0  0  0  0  0  0  0  0
  1  2  1  0
  2  3  2  3
  2  4  1  0
  4  5  2  0
  5  6  1  0
  6  7  2  0
  7  8  1  0
  8  9  2  0
  9 10  1  0
 10 11  2  0
 11 12  1  0
 12 13  2  0
  9 14  1  0
 14 15  2  0
 14 16  1  0
 16 17  1  0
 17 18  2  0
 18 19  1  0
 19 20  2  0
 20 21  1  0
 21 22  2  0
 13  4  1  0
 22 17  1  0
 12  7  1  0
  1 23  1  0
  1 24  1  0
  3 25  1  0
  5 26  1  0
  6 27  1  0
  8 28  1  0
 10 29  1  0
 11 30  1  0
 13 31  1  0
 16 32  1  0
 18 33  1  0
 19 34  1  0
 20 35  1  0
 21 36  1  0
 22 37  1  0
M  END
$$$$
