
     RDKit          3D

 34 36  0  0  0  0  0  0  0  0999 V2000
    2.4091   -2.8162    1.0553 O   0  0  0  0  0  0  0  0  0  0  0  0
    1.2128   -2.5320    1.0125 C   0  0  0  0  0  0  0  0  0  0  0  0
    0.3492   -3.5752    1.4341 O   0  0  0  0  0  0  0  0  0  0  0  0
    0.6400   -1.2793    0.5873 C   0  0  0  0  0  0  0  0  0  0  0  0
   -0.7598   -1.1092    0.5944 C   0  0  0  0  0  0  0  0  0  0  0  0
   -1.3566    0.0629    0.1987 C   0  0  0  0  0  0  0  0  0  0  0  0
   -2.8058    0.2440    0.2043 C   0  0  0  0  0  0  0  0  0  0  0  0
   -3.6415   -0.7649    0.6112 C   0  0  0  0  0  0  0  0  0  0  0  0
   -5.0288   -0.5973    0.6187 C   0  0  0  0  0  0  0  0  0  0  0  0
   -5.5741    0.5906    0.2148 C   0  0  0  0  0  0  0  0  0  0  0  0
   -7.4803    0.8111    0.2287 Br  0  0  0  0  0  0  0  0  0  0  0  0
   -4.7485    1.6255   -0.2010 C   0  0  0  0  0  0  0  0  0  0  0  0
   -3.3929    1.4239   -0.1946 C   0  0  0  0  0  0  0  0  0  0  0  0
   -0.5290    1.0432   -0.1975 N   0  0  0  0  0  0  0  0  0  0  0  0
    0.8080    0.9817   -0.2410 C   0  0  0  0  0  0  0  0  0  0  0  0
    1.5684    2.0511   -0.6661 C   0  0  0  0  0  0  0  0  0  0  0  0
    2.9322    1.9962   -0.7132 C   0  0  0  0  0  0  0  0  0  0  0  0
    3.5246    0.8262   -0.3179 C   0  0  0  0  0  0  0  0  0  0  0  0
    4.9060    0.7423   -0.3554 O   0  0  0  0  0  0  0  0  0  0  0  0
    5.4952    0.2707   -1.5647 C   0  0  0  0  0  0  0  0  0  0  0  0
    6.8492    0.2671   -1.3858 F   0  0  0  0  0  0  0  0  0  0  0  0
    5.0985    1.0941   -2.6048 F   0  0  0  0  0  0  0  0  0  0  0  0
    5.0284   -1.0197   -1.7423 F   0  0  0  0  0  0  0  0  0  0  0  0
    2.7686   -0.2607    0.1133 C   0  0  0  0  0  0  0  0  0  0  0  0
    1.3980   -0.2235    0.1671 C   0  0  0  0  0  0  0  0  0  0  0  0
    0.7176   -4.2080    2.1258 H   0  0  0  0  0  0  0  0  0  0  0  0
   -1.3291   -1.9547    0.9290 H   0  0  0  0  0  0  0  0  0  0  0  0
   -3.3104   -1.7269    0.9437 H   0  0  0  0  0  0  0  0  0  0  0  0
   -5.6959   -1.3933    0.9401 H   0  0  0  0  0  0  0  0  0  0  0  0
   -5.2194    2.5453   -0.5114 H   0  0  0  0  0  0  0  0  0  0  0  0
   -2.7447    2.2236   -0.5165 H   0  0  0  0  0  0  0  0  0  0  0  0
    1.0718    2.9559   -0.9698 H   0  0  0  0  0  0  0  0  0  0  0  0
    3.5423    2.8476   -1.0519 H   0  0  0  0  0  0  0  0  0  0  0  0
    3.2969   -1.1419    0.4070 H   0  0  0  0  0  0  0  0  0  0  0  0
  1  2  2  0
  2  3  1  0
  2  4  1  0
  4  5  2  0
  5  6  1  0
  6  7  1  0
  7  8  2  0
  8  9  1  0
  9 10  2  0
 10 11  1  0
 10 12  1  0
 12 13  2  0
  6 14  2  0
 14 15  1  0
 15 16  2  0
 16 17  1  0
 17 18  2  0
 18 19  1  0
 19 20  1  0
 20 21  1  0
 20 22  1  0
 20 23  1  0
 18 24  1  0
 24 25  2  0
 25  4  1  0
 13  7  1  0
 25 15  1  0
  3 26  1  0
  5 27  1  0
  8 28  1  0
  9 29  1  0
 12 30  1  0
 13 31  1  0
 16 32  1  0
 17 33  1  0
 24 34  1  0
M  END
$$$$
