
     RDKit          3D

 44 47  0  0  0  0  0  0  0  0999 V2000
    8.0970    0.3368   -0.4843 C   0  0  0  0  0  0  0  0  0  0  0  0
    6.6133    0.5656   -0.5615 C   0  0  0  0  0  0  0  0  0  0  0  0
    5.8355   -0.3220    0.7576 S   0  0  0  0  0  6  0  0  0  0  0  0
    6.1042   -1.7922    0.6374 O   0  0  0  0  0  0  0  0  0  0  0  0
    6.3221    0.2009    2.0907 O   0  0  0  0  0  0  0  0  0  0  0  0
    4.1054   -0.0769    0.6973 C   0  0  0  0  0  0  0  0  0  0  0  0
    3.5352    0.9793    1.3850 C   0  0  0  0  0  0  0  0  0  0  0  0
    2.1862    1.1909    1.3528 C   0  0  0  0  0  0  0  0  0  0  0  0
    1.3856    0.3366    0.6230 C   0  0  0  0  0  0  0  0  0  0  0  0
    0.0535    0.2798    0.3985 N   0  0  0  0  0  0  0  0  0  0  0  0
   -0.2672   -0.7671   -0.4050 C   0  0  0  0  0  0  0  0  0  0  0  0
   -1.6371   -1.0667   -0.8109 C   0  0  0  0  0  0  0  0  0  0  0  0
   -2.6882   -0.2690   -0.3769 C   0  0  0  0  0  0  0  0  0  0  0  0
   -4.0045   -0.4919   -0.7195 C   0  0  0  0  0  0  0  0  0  0  0  0
   -5.0704    0.3794   -0.2338 C   0  0  0  0  0  0  0  0  0  0  0  0
   -6.2236    0.6408   -0.9385 C   0  0  0  0  0  0  0  0  0  0  0  0
   -7.2163    1.4793   -0.4379 C   0  0  0  0  0  0  0  0  0  0  0  0
   -7.0635    2.0811    0.8044 C   0  0  0  0  0  0  0  0  0  0  0  0
   -5.9181    1.8271    1.5143 C   0  0  0  0  0  0  0  0  0  0  0  0
   -4.9431    0.9943    1.0060 C   0  0  0  0  0  0  0  0  0  0  0  0
   -4.2963   -1.5668   -1.5392 C   0  0  0  0  0  0  0  0  0  0  0  0
   -3.2872   -2.3845   -1.9934 C   0  0  0  0  0  0  0  0  0  0  0  0
   -1.9597   -2.1224   -1.6208 C   0  0  0  0  0  0  0  0  0  0  0  0
   -0.9622   -2.9308   -2.0697 F   0  0  0  0  0  0  0  0  0  0  0  0
    0.8845   -1.3725   -0.6857 N   0  0  0  0  0  0  0  0  0  0  0  0
    1.9151   -0.7332   -0.0802 C   0  0  0  0  0  0  0  0  0  0  0  0
    3.2802   -0.9133   -0.0229 C   0  0  0  0  0  0  0  0  0  0  0  0
    8.6372    1.2546   -0.1594 H   0  0  0  0  0  0  0  0  0  0  0  0
    8.3286   -0.4802    0.2175 H   0  0  0  0  0  0  0  0  0  0  0  0
    8.5312    0.0210   -1.4728 H   0  0  0  0  0  0  0  0  0  0  0  0
    6.1799    0.1856   -1.5096 H   0  0  0  0  0  0  0  0  0  0  0  0
    6.3293    1.6336   -0.4642 H   0  0  0  0  0  0  0  0  0  0  0  0
    4.2208    1.6302    1.9515 H   0  0  0  0  0  0  0  0  0  0  0  0
    1.7301    2.0017    1.8782 H   0  0  0  0  0  0  0  0  0  0  0  0
   -2.4748    0.5626    0.2555 H   0  0  0  0  0  0  0  0  0  0  0  0
   -6.3649    0.1846   -1.9063 H   0  0  0  0  0  0  0  0  0  0  0  0
   -8.1241    1.6901   -0.9834 H   0  0  0  0  0  0  0  0  0  0  0  0
   -7.8167    2.7285    1.2043 H   0  0  0  0  0  0  0  0  0  0  0  0
   -5.8166    2.3104    2.4901 H   0  0  0  0  0  0  0  0  0  0  0  0
   -4.0404    0.7873    1.5532 H   0  0  0  0  0  0  0  0  0  0  0  0
   -5.3272   -1.7785   -1.8345 H   0  0  0  0  0  0  0  0  0  0  0  0
   -3.4542   -3.2375   -2.6348 H   0  0  0  0  0  0  0  0  0  0  0  0
    0.9999   -2.2234   -1.2870 H   0  0  0  0  0  0  0  0  0  0  0  0
    3.6815   -1.7529   -0.5767 H   0  0  0  0  0  0  0  0  0  0  0  0
  1  2  1  0
  2  3  1  0
  3  4  2  0
  3  5  2  0
  3  6  1  0
  6  7  2  0
  7  8  1  0
  8  9  2  0
  9 10  1  0
 10 11  2  0
 11 12  1  0
 12 13  2  0
 13 14  1  0
 14 15  1  0
 15 16  2  0
 16 17  1  0
 17 18  2  0
 18 19  1  0
 19 20  2  0
 14 21  2  0
 21 22  1  0
 22 23  2  0
 23 24  1  0
 11 25  1  0
 25 26  1  0
 26 27  2  0
 27  6  1  0
 26  9  1  0
 23 12  1  0
 20 15  1  0
  1 28  1  0
  1 29  1  0
  1 30  1  0
  2 31  1  0
  2 32  1  0
  7 33  1  0
  8 34  1  0
 13 35  1  0
 16 36  1  0
 17 37  1  0
 18 38  1  0
 19 39  1  0
 20 40  1  0
 21 41  1  0
 22 42  1  0
 25 43  1  0
 27 44  1  0
M  END
$$$$
