
     RDKit          3D

 32 33  0  0  0  0  0  0  0  0999 V2000
    5.7776   -1.0603   -0.5715 O   0  0  0  0  0  0  0  0  0  0  0  0
    5.3222   -0.2695    0.2853 C   0  0  0  0  0  0  0  0  0  0  0  0
    3.8823   -0.0246    0.4202 C   0  0  0  0  0  0  0  0  0  0  0  0
    2.9934   -0.6214   -0.3487 C   0  0  0  0  0  0  0  0  0  0  0  0
    1.5556   -0.4282   -0.2724 C   0  0  0  0  0  0  0  0  0  0  0  0
    0.7603   -1.1405   -1.1585 C   0  0  0  0  0  0  0  0  0  0  0  0
   -0.6085   -1.0198   -1.1579 C   0  0  0  0  0  0  0  0  0  0  0  0
   -1.2250   -0.1830   -0.2711 C   0  0  0  0  0  0  0  0  0  0  0  0
   -2.6547   -0.0057   -0.2110 C   0  0  0  0  0  0  0  0  0  0  0  0
   -3.5463   -0.9967   -0.5066 C   0  0  0  0  0  0  0  0  0  0  0  0
   -4.9254   -0.8386   -0.4532 C   0  0  0  0  0  0  0  0  0  0  0  0
   -5.3900    0.4229   -0.0703 C   0  0  0  0  0  0  0  0  0  0  0  0
   -6.7673    0.5802   -0.0170 O   0  0  0  0  0  0  0  0  0  0  0  0
   -4.5181    1.4454    0.2351 C   0  0  0  0  0  0  0  0  0  0  0  0
   -3.1542    1.2467    0.1694 C   0  0  0  0  0  0  0  0  0  0  0  0
   -0.4222    0.5183    0.6031 C   0  0  0  0  0  0  0  0  0  0  0  0
    0.9555    0.4054    0.6122 C   0  0  0  0  0  0  0  0  0  0  0  0
    6.2465    0.3918    1.1324 N   0  0  0  0  0  0  0  0  0  0  0  0
    7.5972    0.1987    1.0472 O   0  0  0  0  0  0  0  0  0  0  0  0
    3.5457    0.6659    1.1736 H   0  0  0  0  0  0  0  0  0  0  0  0
    3.4286   -1.3108   -1.0914 H   0  0  0  0  0  0  0  0  0  0  0  0
    1.2209   -1.8139   -1.8764 H   0  0  0  0  0  0  0  0  0  0  0  0
   -1.1668   -1.6021   -1.8736 H   0  0  0  0  0  0  0  0  0  0  0  0
   -3.1439   -1.9565   -0.7977 H   0  0  0  0  0  0  0  0  0  0  0  0
   -5.6069   -1.6512   -0.6952 H   0  0  0  0  0  0  0  0  0  0  0  0
   -7.2577    0.2485    0.8151 H   0  0  0  0  0  0  0  0  0  0  0  0
   -4.9397    2.4119    0.5292 H   0  0  0  0  0  0  0  0  0  0  0  0
   -2.4853    2.0661    0.4141 H   0  0  0  0  0  0  0  0  0  0  0  0
   -0.8403    1.2027    1.3378 H   0  0  0  0  0  0  0  0  0  0  0  0
    1.5623    0.9739    1.3161 H   0  0  0  0  0  0  0  0  0  0  0  0
    5.8390    1.0502    1.8425 H   0  0  0  0  0  0  0  0  0  0  0  0
    7.9649    1.0939    0.7969 H   0  0  0  0  0  0  0  0  0  0  0  0
  1  2  2  0
  2  3  1  0
  3  4  2  0
  4  5  1  0
  5  6  2  0
  6  7  1  0
  7  8  2  0
  8  9  1  0
  9 10  2  0
 10 11  1  0
 11 12  2  0
 12 13  1  0
 12 14  1  0
 14 15  2  0
  8 16  1  0
 16 17  2  0
  2 18  1  0
 18 19  1  0
 17  5  1  0
 15  9  1  0
  3 20  1  0
  4 21  1  0
  6 22  1  0
  7 23  1  0
 10 24  1  0
 11 25  1  0
 13 26  1  0
 14 27  1  0
 15 28  1  0
 16 29  1  0
 17 30  1  0
 18 31  1  0
 19 32  1  0
M  END
$$$$
