
     RDKit          3D

 67 72  0  0  0  0  0  0  0  0999 V2000
    4.5160   -0.2011   -2.6046 O   0  0  0  0  0  0  0  0  0  0  0  0
    4.1417   -0.2151   -1.4037 C   0  0  0  0  0  0  0  0  0  0  0  0
    2.7197   -0.3114   -1.1322 C   0  0  0  0  0  0  0  0  0  0  0  0
    1.7885    0.5335   -1.6993 C   0  0  0  0  0  0  0  0  0  0  0  0
    0.4149    0.4142   -1.4167 C   0  0  0  0  0  0  0  0  0  0  0  0
   -0.4993    1.3496   -2.0643 C   0  0  1  0  0  0  0  0  0  0  0  0
   -1.0219    0.8619   -3.3817 C   0  0  0  0  0  0  0  0  0  0  0  0
   -2.5298    0.8096   -3.2543 C   0  0  0  0  0  0  0  0  0  0  0  0
   -2.7606    1.8430   -2.1669 C   0  0  0  0  0  0  0  0  0  0  0  0
   -1.6138    1.8059   -1.2917 N   0  0  0  0  0  0  0  0  0  0  0  0
   -1.6735    2.1837    0.0877 C   0  0  0  0  0  0  0  0  0  0  0  0
   -2.8589    2.4262    0.7424 C   0  0  0  0  0  0  0  0  0  0  0  0
   -2.9108    2.8031    2.0790 C   0  0  0  0  0  0  0  0  0  0  0  0
   -4.1197    3.0211    2.6416 F   0  0  0  0  0  0  0  0  0  0  0  0
   -1.7243    2.9351    2.7614 C   0  0  0  0  0  0  0  0  0  0  0  0
   -0.5059    2.7006    2.1399 C   0  0  0  0  0  0  0  0  0  0  0  0
    0.6721    2.8307    2.8148 F   0  0  0  0  0  0  0  0  0  0  0  0
   -0.4933    2.3291    0.8149 C   0  0  0  0  0  0  0  0  0  0  0  0
    0.0163   -0.5716   -0.5553 C   0  0  0  0  0  0  0  0  0  0  0  0
   -1.2758   -0.6775   -0.2950 O   0  0  0  0  0  0  0  0  0  0  0  0
   -1.7296   -1.6120    0.5325 C   0  0  0  0  0  0  0  0  0  0  0  0
   -3.1143   -1.7394    0.8228 N   0  0  0  0  0  0  0  0  0  0  0  0
   -4.1230   -0.8848    0.2294 C   0  0  0  0  0  0  0  0  0  0  0  0
   -5.3126   -1.6601   -0.2262 C   0  0  0  0  0  0  0  0  0  0  0  0
   -5.4570   -2.8947    0.4008 O   0  0  0  0  0  0  0  0  0  0  0  0
   -5.0809   -2.7255    1.7537 C   0  0  0  0  0  0  0  0  0  0  0  0
   -3.5685   -2.7528    1.7498 C   0  0  0  0  0  0  0  0  0  0  0  0
   -0.8437   -2.4846    1.1294 C   0  0  0  0  0  0  0  0  0  0  0  0
    0.5134   -2.4210    0.8948 C   0  0  0  0  0  0  0  0  0  0  0  0
    1.3562   -3.1855    1.4083 O   0  0  0  0  0  0  0  0  0  0  0  0
    0.9481   -1.4425    0.0336 C   0  0  0  0  0  0  0  0  0  0  0  0
    2.2909   -1.2956   -0.2675 C   0  0  0  0  0  0  0  0  0  0  0  0
    5.1246   -0.1365   -0.3878 N   0  0  0  0  0  0  0  0  0  0  0  0
    4.7931   -0.1465    1.0296 C   0  0  0  0  0  0  0  0  0  0  0  0
    5.8126    0.7810    1.6975 C   0  0  0  0  0  0  0  0  0  0  0  0
    7.0649    0.2231    1.6135 O   0  0  0  0  0  0  0  0  0  0  0  0
    7.2923   -0.5457    0.5021 C   0  0  0  0  0  0  0  0  0  0  0  0
    6.5321   -0.0396   -0.7218 C   0  0  0  0  0  0  0  0  0  0  0  0
    2.1510    1.2960   -2.3711 H   0  0  0  0  0  0  0  0  0  0  0  0
    0.0766    2.3063   -2.3256 H   0  0  0  0  0  0  0  0  0  0  0  0
   -0.7266    1.4921   -4.2484 H   0  0  0  0  0  0  0  0  0  0  0  0
   -0.6879   -0.1646   -3.6348 H   0  0  0  0  0  0  0  0  0  0  0  0
   -3.0284    1.1036   -4.1959 H   0  0  0  0  0  0  0  0  0  0  0  0
   -2.9109   -0.1613   -2.9369 H   0  0  0  0  0  0  0  0  0  0  0  0
   -2.6827    2.8375   -2.7019 H   0  0  0  0  0  0  0  0  0  0  0  0
   -3.7268    1.7358   -1.6838 H   0  0  0  0  0  0  0  0  0  0  0  0
   -3.8106    2.3225    0.2033 H   0  0  0  0  0  0  0  0  0  0  0  0
   -1.7370    3.2234    3.7877 H   0  0  0  0  0  0  0  0  0  0  0  0
    0.4556    2.1439    0.2919 H   0  0  0  0  0  0  0  0  0  0  0  0
   -3.6609   -0.4323   -0.6782 H   0  0  0  0  0  0  0  0  0  0  0  0
   -4.3818   -0.0300    0.8894 H   0  0  0  0  0  0  0  0  0  0  0  0
   -6.2164   -1.0412    0.0427 H   0  0  0  0  0  0  0  0  0  0  0  0
   -5.3553   -1.7419   -1.3290 H   0  0  0  0  0  0  0  0  0  0  0  0
   -5.4572   -3.5942    2.3131 H   0  0  0  0  0  0  0  0  0  0  0  0
   -5.4917   -1.7884    2.1654 H   0  0  0  0  0  0  0  0  0  0  0  0
   -3.2749   -3.7781    1.4315 H   0  0  0  0  0  0  0  0  0  0  0  0
   -3.1788   -2.5189    2.7732 H   0  0  0  0  0  0  0  0  0  0  0  0
   -1.2620   -3.2317    1.7993 H   0  0  0  0  0  0  0  0  0  0  0  0
    2.9711   -1.9702    0.1936 H   0  0  0  0  0  0  0  0  0  0  0  0
    4.9819   -1.1561    1.4713 H   0  0  0  0  0  0  0  0  0  0  0  0
    3.8045    0.2554    1.2395 H   0  0  0  0  0  0  0  0  0  0  0  0
    5.7264    1.7894    1.2521 H   0  0  0  0  0  0  0  0  0  0  0  0
    5.5125    0.8518    2.7530 H   0  0  0  0  0  0  0  0  0  0  0  0
    8.3773   -0.4216    0.2339 H   0  0  0  0  0  0  0  0  0  0  0  0
    7.1395   -1.6295    0.6598 H   0  0  0  0  0  0  0  0  0  0  0  0
    6.7924    1.0368   -0.8220 H   0  0  0  0  0  0  0  0  0  0  0  0
    6.8207   -0.6420   -1.5835 H   0  0  0  0  0  0  0  0  0  0  0  0
  1  2  2  0
  2  3  1  0
  3  4  2  0
  4  5  1  0
  5  6  1  0
  6  7  1  0
  7  8  1  0
  8  9  1  0
  9 10  1  0
 10 11  1  0
 11 12  2  0
 12 13  1  0
 13 14  1  0
 13 15  2  0
 15 16  1  0
 16 17  1  0
 16 18  2  0
  5 19  2  0
 19 20  1  0
 20 21  1  0
 21 22  1  0
 22 23  1  0
 23 24  1  0
 24 25  1  0
 25 26  1  0
 26 27  1  0
 21 28  2  0
 28 29  1  0
 29 30  2  0
 29 31  1  0
 31 32  2  0
  2 33  1  0
 33 34  1  0
 34 35  1  0
 35 36  1  0
 36 37  1  0
 37 38  1  0
 32  3  1  0
 38 33  1  0
 10  6  1  0
 18 11  1  0
 31 19  1  0
 27 22  1  0
  4 39  1  0
  6 40  1  6
  7 41  1  0
  7 42  1  0
  8 43  1  0
  8 44  1  0
  9 45  1  0
  9 46  1  0
 12 47  1  0
 15 48  1  0
 18 49  1  0
 23 50  1  0
 23 51  1  0
 24 52  1  0
 24 53  1  0
 26 54  1  0
 26 55  1  0
 27 56  1  0
 27 57  1  0
 28 58  1  0
 32 59  1  0
 34 60  1  0
 34 61  1  0
 35 62  1  0
 35 63  1  0
 37 64  1  0
 37 65  1  0
 38 66  1  0
 38 67  1  0
M  END
$$$$
