
     RDKit          3D

 41 44  0  0  0  0  0  0  0  0999 V2000
    3.0372    0.7093    1.3464 C   0  0  0  0  0  0  0  0  0  0  0  0
    3.2021   -0.5181    0.6414 N   0  0  0  0  0  0  0  0  0  0  0  0
    3.2287   -0.4035   -0.7692 C   0  0  0  0  0  0  0  0  0  0  0  0
    1.9239    0.2499   -1.3059 C   0  0  0  0  0  0  0  0  0  0  0  0
    0.7302   -0.3796   -0.7369 C   0  0  0  0  0  0  0  0  0  0  0  0
   -0.4257    0.1441   -0.6419 C   0  0  0  0  0  0  0  0  0  0  0  0
   -1.5182   -0.6893   -0.0390 C   0  0  0  0  0  0  0  0  0  0  0  0
   -1.5344   -1.9494   -0.6102 C   0  0  0  0  0  0  0  0  0  0  0  0
   -2.4647   -2.8435   -0.1894 C   0  0  0  0  0  0  0  0  0  0  0  0
   -3.3647   -2.4631    0.7943 C   0  0  0  0  0  0  0  0  0  0  0  0
   -3.3181   -1.1746    1.3484 C   0  0  0  0  0  0  0  0  0  0  0  0
   -2.3828   -0.2494    0.9380 C   0  0  0  0  0  0  0  0  0  0  0  0
   -2.5641    1.0212    1.6439 C   0  0  0  0  0  0  0  0  0  0  0  0
   -2.0905    2.2292    1.0341 C   0  0  0  0  0  0  0  0  0  0  0  0
   -2.3043    3.2827    1.6830 O   0  0  0  0  0  0  0  0  0  0  0  0
   -1.3832    2.4766   -0.2408 C   0  0  0  0  0  0  0  0  0  0  0  0
   -1.3028    3.9429   -1.0954 S   0  0  0  0  0  0  0  0  0  0  0  0
   -0.3003    3.3737   -2.4812 C   0  0  0  0  0  0  0  0  0  0  0  0
   -0.1124    2.0863   -2.1609 C   0  0  0  0  0  0  0  0  0  0  0  0
   -0.6457    1.5940   -1.0298 C   0  0  0  0  0  0  0  0  0  0  0  0
    1.1509   -1.6532   -0.1394 C   0  0  0  0  0  0  0  0  0  0  0  0
    2.2037   -1.4518    0.9878 C   0  0  0  0  0  0  0  0  0  0  0  0
    3.3830    0.5775    2.3916 H   0  0  0  0  0  0  0  0  0  0  0  0
    3.6401    1.5252    0.9062 H   0  0  0  0  0  0  0  0  0  0  0  0
    1.9547    0.9871    1.3255 H   0  0  0  0  0  0  0  0  0  0  0  0
    3.3683   -1.3322   -1.3150 H   0  0  0  0  0  0  0  0  0  0  0  0
    4.0182    0.3247   -1.0506 H   0  0  0  0  0  0  0  0  0  0  0  0
    1.9628    1.3384   -1.1137 H   0  0  0  0  0  0  0  0  0  0  0  0
    2.1065    0.1160   -2.3768 H   0  0  0  0  0  0  0  0  0  0  0  0
   -0.7804   -2.1166   -1.4006 H   0  0  0  0  0  0  0  0  0  0  0  0
   -2.4747   -3.8246   -0.6336 H   0  0  0  0  0  0  0  0  0  0  0  0
   -4.1068   -3.1902    1.1239 H   0  0  0  0  0  0  0  0  0  0  0  0
   -4.0495   -0.9668    2.1001 H   0  0  0  0  0  0  0  0  0  0  0  0
   -2.0675    0.9055    2.6517 H   0  0  0  0  0  0  0  0  0  0  0  0
   -3.6531    1.1213    1.8754 H   0  0  0  0  0  0  0  0  0  0  0  0
    0.0127    3.9856   -3.3008 H   0  0  0  0  0  0  0  0  0  0  0  0
    0.4736    1.4452   -2.8807 H   0  0  0  0  0  0  0  0  0  0  0  0
    1.6666   -2.3286   -0.8323 H   0  0  0  0  0  0  0  0  0  0  0  0
    0.3931   -2.1740    0.4927 H   0  0  0  0  0  0  0  0  0  0  0  0
    2.6684   -2.4518    1.0913 H   0  0  0  0  0  0  0  0  0  0  0  0
    1.7191   -1.2756    1.9685 H   0  0  0  0  0  0  0  0  0  0  0  0
  1  2  1  0
  2  3  1  0
  3  4  1  0
  4  5  1  0
  5  6  2  3
  6  7  1  0
  7  8  2  0
  8  9  1  0
  9 10  2  0
 10 11  1  0
 11 12  2  0
 12 13  1  0
 13 14  1  0
 14 15  2  0
 14 16  1  0
 16 17  1  0
 17 18  1  0
 18 19  2  0
 19 20  1  0
  5 21  1  0
 21 22  1  0
 22  2  1  0
 20  6  1  0
 12  7  1  0
 20 16  2  0
  1 23  1  0
  1 24  1  0
  1 25  1  0
  3 26  1  0
  3 27  1  0
  4 28  1  0
  4 29  1  0
  8 30  1  0
  9 31  1  0
 10 32  1  0
 11 33  1  0
 13 34  1  0
 13 35  1  0
 18 36  1  0
 19 37  1  0
 21 38  1  0
 21 39  1  0
 22 40  1  0
 22 41  1  0
M  END
$$$$
