
     RDKit          3D

 48 51  0  0  0  0  0  0  0  0999 V2000
   -3.4320   -0.5162    3.1569 C   0  0  0  0  0  0  0  0  0  0  0  0
   -4.0631    0.6246    2.3518 C   0  0  0  0  0  0  0  0  0  0  0  0
   -2.9565    1.4921    1.8049 C   0  0  0  0  0  0  0  0  0  0  0  0
   -2.5944    0.8435    0.5716 N   0  0  0  0  0  0  0  0  0  0  0  0
   -1.3469    0.8752   -0.0941 C   0  0  0  0  0  0  0  0  0  0  0  0
   -1.1499    0.2649   -1.1724 O   0  0  0  0  0  0  0  0  0  0  0  0
   -0.2116    1.6441    0.4702 C   0  0  0  0  0  0  0  0  0  0  0  0
    0.9955    1.5473   -0.3757 C   0  0  0  0  0  0  0  0  0  0  0  0
    1.8609    0.5684   -0.1519 N   0  0  0  0  0  0  0  0  0  0  0  0
    2.9876    0.4498   -0.9156 C   0  0  0  0  0  0  0  0  0  0  0  0
    3.9198   -0.5931   -0.6852 N   0  0  0  0  0  0  0  0  0  0  0  0
    3.6413   -1.5360    0.3904 C   0  0  0  0  0  0  0  0  0  0  0  0
    4.9096   -1.9730    1.0823 C   0  0  0  0  0  0  0  0  0  0  0  0
    6.0533   -1.6682    0.3842 O   0  0  0  0  0  0  0  0  0  0  0  0
    5.9513   -1.8201   -0.9813 C   0  0  0  0  0  0  0  0  0  0  0  0
    5.0967   -0.6888   -1.5080 C   0  0  0  0  0  0  0  0  0  0  0  0
    3.2336    1.3501   -1.9278 C   0  0  0  0  0  0  0  0  0  0  0  0
    2.3247    2.3603   -2.1465 C   0  0  0  0  0  0  0  0  0  0  0  0
    2.5188    3.2058   -3.0684 O   0  0  0  0  0  0  0  0  0  0  0  0
    1.2407    2.4207   -1.3626 N   0  0  0  0  0  0  0  0  0  0  0  0
   -3.7615    0.1342    0.1199 C   0  0  0  0  0  0  0  0  0  0  0  0
   -4.0265   -0.3635   -1.1541 C   0  0  0  0  0  0  0  0  0  0  0  0
   -5.2253   -1.0115   -1.3561 C   0  0  0  0  0  0  0  0  0  0  0  0
   -6.1355   -1.1637   -0.3312 C   0  0  0  0  0  0  0  0  0  0  0  0
   -5.8648   -0.6697    0.9205 C   0  0  0  0  0  0  0  0  0  0  0  0
   -4.6646   -0.0138    1.1479 C   0  0  0  0  0  0  0  0  0  0  0  0
   -4.1643   -1.3682    3.2093 H   0  0  0  0  0  0  0  0  0  0  0  0
   -3.0719   -0.1913    4.1317 H   0  0  0  0  0  0  0  0  0  0  0  0
   -2.5933   -0.8876    2.5161 H   0  0  0  0  0  0  0  0  0  0  0  0
   -4.7993    1.1794    2.9552 H   0  0  0  0  0  0  0  0  0  0  0  0
   -2.1329    1.5109    2.5457 H   0  0  0  0  0  0  0  0  0  0  0  0
   -3.3162    2.5302    1.6044 H   0  0  0  0  0  0  0  0  0  0  0  0
   -0.5039    2.7357    0.4669 H   0  0  0  0  0  0  0  0  0  0  0  0
   -0.0075    1.3912    1.5338 H   0  0  0  0  0  0  0  0  0  0  0  0
    3.1284   -2.4042   -0.0631 H   0  0  0  0  0  0  0  0  0  0  0  0
    2.9373   -1.0872    1.1195 H   0  0  0  0  0  0  0  0  0  0  0  0
    4.8982   -3.0498    1.3632 H   0  0  0  0  0  0  0  0  0  0  0  0
    4.9811   -1.4252    2.0676 H   0  0  0  0  0  0  0  0  0  0  0  0
    6.9654   -1.6868   -1.4098 H   0  0  0  0  0  0  0  0  0  0  0  0
    5.5598   -2.8140   -1.2751 H   0  0  0  0  0  0  0  0  0  0  0  0
    4.8499   -0.8027   -2.5795 H   0  0  0  0  0  0  0  0  0  0  0  0
    5.6647    0.2548   -1.3814 H   0  0  0  0  0  0  0  0  0  0  0  0
    4.1294    1.2649   -2.5433 H   0  0  0  0  0  0  0  0  0  0  0  0
    0.5292    3.1815   -1.5065 H   0  0  0  0  0  0  0  0  0  0  0  0
   -3.2927   -0.2353   -1.9612 H   0  0  0  0  0  0  0  0  0  0  0  0
   -5.4393   -1.4053   -2.3566 H   0  0  0  0  0  0  0  0  0  0  0  0
   -7.0796   -1.6900   -0.5458 H   0  0  0  0  0  0  0  0  0  0  0  0
   -6.5437   -0.7644    1.7503 H   0  0  0  0  0  0  0  0  0  0  0  0
  1  2  1  0
  2  3  1  0
  3  4  1  0
  4  5  1  0
  5  6  2  0
  5  7  1  0
  7  8  1  0
  8  9  2  0
  9 10  1  0
 10 11  1  0
 11 12  1  0
 12 13  1  0
 13 14  1  0
 14 15  1  0
 15 16  1  0
 10 17  2  0
 17 18  1  0
 18 19  2  0
 18 20  1  0
  4 21  1  0
 21 22  2  0
 22 23  1  0
 23 24  2  0
 24 25  1  0
 25 26  2  0
 26  2  1  0
 20  8  1  0
 26 21  1  0
 16 11  1  0
  1 27  1  0
  1 28  1  0
  1 29  1  0
  2 30  1  0
  3 31  1  0
  3 32  1  0
  7 33  1  0
  7 34  1  0
 12 35  1  0
 12 36  1  0
 13 37  1  0
 13 38  1  0
 15 39  1  0
 15 40  1  0
 16 41  1  0
 16 42  1  0
 17 43  1  0
 20 44  1  0
 22 45  1  0
 23 46  1  0
 24 47  1  0
 25 48  1  0
M  END
$$$$
