
     RDKit          3D

 39 40  0  0  0  0  0  0  0  0999 V2000
    4.5061   -1.5490    0.0718 C   0  0  0  0  0  0  0  0  0  0  0  0
    5.0667   -0.1371   -0.1046 C   0  0  0  0  0  0  0  0  0  0  0  0
    4.2976    0.5087   -1.2293 C   0  0  0  0  0  0  0  0  0  0  0  0
    2.8306    0.5619   -0.8910 C   0  0  0  0  0  0  0  0  0  0  0  0
    2.5149    1.3454    0.3494 C   0  0  0  0  0  0  0  0  0  0  0  0
    1.0333    1.2935    0.5219 C   0  0  0  0  0  0  0  0  0  0  0  0
    0.1768    2.2256   -0.0236 C   0  0  0  0  0  0  0  0  0  0  0  0
   -1.1890    2.1640    0.1447 C   0  0  0  0  0  0  0  0  0  0  0  0
   -1.7780    1.1321    0.8915 C   0  0  0  0  0  0  0  0  0  0  0  0
   -3.1510    1.1252    1.0239 O   0  0  0  0  0  0  0  0  0  0  0  0
   -3.9916    0.0980    0.5975 C   0  0  0  0  0  0  0  0  0  0  0  0
   -4.4108    0.0769   -0.7297 C   0  0  0  0  0  0  0  0  0  0  0  0
   -5.2390   -0.9145   -1.1925 C   0  0  0  0  0  0  0  0  0  0  0  0
   -5.6726   -1.9161   -0.3376 C   0  0  0  0  0  0  0  0  0  0  0  0
   -5.2637   -1.9045    0.9778 C   0  0  0  0  0  0  0  0  0  0  0  0
   -4.4398   -0.9087    1.4174 C   0  0  0  0  0  0  0  0  0  0  0  0
   -0.9207    0.2060    1.4330 C   0  0  0  0  0  0  0  0  0  0  0  0
   -1.4428   -0.8301    2.1765 O   0  0  0  0  0  0  0  0  0  0  0  0
    0.4677    0.2790    1.2550 C   0  0  0  0  0  0  0  0  0  0  0  0
    3.5096   -1.5472    0.5193 H   0  0  0  0  0  0  0  0  0  0  0  0
    5.1766   -2.1403    0.7376 H   0  0  0  0  0  0  0  0  0  0  0  0
    4.4399   -2.0199   -0.9276 H   0  0  0  0  0  0  0  0  0  0  0  0
    4.9515    0.3854    0.8547 H   0  0  0  0  0  0  0  0  0  0  0  0
    6.1422   -0.2599   -0.3712 H   0  0  0  0  0  0  0  0  0  0  0  0
    4.7201    1.5142   -1.4142 H   0  0  0  0  0  0  0  0  0  0  0  0
    4.4674   -0.0829   -2.1503 H   0  0  0  0  0  0  0  0  0  0  0  0
    2.3890   -0.4471   -0.7831 H   0  0  0  0  0  0  0  0  0  0  0  0
    2.3262    0.9983   -1.7953 H   0  0  0  0  0  0  0  0  0  0  0  0
    2.8217    2.4040    0.2807 H   0  0  0  0  0  0  0  0  0  0  0  0
    3.0391    0.9156    1.2247 H   0  0  0  0  0  0  0  0  0  0  0  0
    0.6392    3.0217   -0.6006 H   0  0  0  0  0  0  0  0  0  0  0  0
   -1.8508    2.9083   -0.2931 H   0  0  0  0  0  0  0  0  0  0  0  0
   -4.0591    0.8668   -1.3717 H   0  0  0  0  0  0  0  0  0  0  0  0
   -5.5348   -0.8789   -2.2437 H   0  0  0  0  0  0  0  0  0  0  0  0
   -6.3204   -2.6852   -0.7149 H   0  0  0  0  0  0  0  0  0  0  0  0
   -5.6135   -2.7061    1.6528 H   0  0  0  0  0  0  0  0  0  0  0  0
   -4.1318   -0.9081    2.4589 H   0  0  0  0  0  0  0  0  0  0  0  0
   -1.6115   -1.7228    1.7220 H   0  0  0  0  0  0  0  0  0  0  0  0
    1.1046   -0.4721    1.6995 H   0  0  0  0  0  0  0  0  0  0  0  0
  1  2  1  0
  2  3  1  0
  3  4  1  0
  4  5  1  0
  5  6  1  0
  6  7  2  0
  7  8  1  0
  8  9  2  0
  9 10  1  0
 10 11  1  0
 11 12  2  0
 12 13  1  0
 13 14  2  0
 14 15  1  0
 15 16  2  0
  9 17  1  0
 17 18  1  0
 17 19  2  0
 19  6  1  0
 16 11  1  0
  1 20  1  0
  1 21  1  0
  1 22  1  0
  2 23  1  0
  2 24  1  0
  3 25  1  0
  3 26  1  0
  4 27  1  0
  4 28  1  0
  5 29  1  0
  5 30  1  0
  7 31  1  0
  8 32  1  0
 12 33  1  0
 13 34  1  0
 14 35  1  0
 15 36  1  0
 16 37  1  0
 18 38  1  0
 19 39  1  0
M  END
$$$$
