
     RDKit          3D

 55 58  0  0  0  0  0  0  0  0999 V2000
   -2.4726   -2.6031    3.3930 C   0  0  0  0  0  0  0  0  0  0  0  0
   -1.5697   -1.4172    3.2572 C   0  0  0  0  0  0  0  0  0  0  0  0
   -1.4205   -0.9222    1.9585 O   0  0  0  0  0  0  0  0  0  0  0  0
   -2.4437   -0.4187    1.1892 C   0  0  0  0  0  0  0  0  0  0  0  0
   -3.7510   -0.3705    1.7112 C   0  0  0  0  0  0  0  0  0  0  0  0
   -4.7705    0.1298    0.9428 C   0  0  0  0  0  0  0  0  0  0  0  0
   -4.5994    0.5877   -0.3041 N   0  0  0  0  0  0  0  0  0  0  0  0
   -5.7010    1.1034   -1.0723 C   0  0  0  0  0  0  0  0  0  0  0  0
   -6.1812    0.4806   -2.2016 C   0  0  0  0  0  0  0  0  0  0  0  0
   -7.2558    1.0155   -2.9210 C   0  0  0  0  0  0  0  0  0  0  0  0
   -7.8433    2.1868   -2.4910 C   0  0  0  0  0  0  0  0  0  0  0  0
   -8.8936    2.6867   -3.2156 F   0  0  0  0  0  0  0  0  0  0  0  0
   -7.3737    2.8230   -1.3612 C   0  0  0  0  0  0  0  0  0  0  0  0
   -6.2964    2.2673   -0.6580 C   0  0  0  0  0  0  0  0  0  0  0  0
   -3.3706    0.5514   -0.8156 C   0  0  0  0  0  0  0  0  0  0  0  0
   -3.1880    0.9777   -1.9868 O   0  0  0  0  0  0  0  0  0  0  0  0
   -2.2704    0.0493   -0.0819 C   0  0  0  0  0  0  0  0  0  0  0  0
   -0.9744    0.0805   -0.7333 C   0  0  0  0  0  0  0  0  0  0  0  0
   -0.9209    0.3581   -1.9873 O   0  0  0  0  0  0  0  0  0  0  0  0
    0.2427   -0.1670   -0.1055 N   0  0  0  0  0  0  0  0  0  0  0  0
    1.5516   -0.1582   -0.6868 C   0  0  0  0  0  0  0  0  0  0  0  0
    2.6320   -0.4419    0.1550 C   0  0  0  0  0  0  0  0  0  0  0  0
    3.9233   -0.4559   -0.3158 C   0  0  0  0  0  0  0  0  0  0  0  0
    4.2114   -0.1889   -1.6450 C   0  0  0  0  0  0  0  0  0  0  0  0
    5.4831   -0.1841   -2.1793 O   0  0  0  0  0  0  0  0  0  0  0  0
    6.6046   -0.3896   -1.4083 C   0  0  0  0  0  0  0  0  0  0  0  0
    7.3813   -1.4988   -1.6530 C   0  0  0  0  0  0  0  0  0  0  0  0
    8.5119   -1.6830   -0.8593 C   0  0  0  0  0  0  0  0  0  0  0  0
    8.7984   -0.7810    0.1046 N   0  0  0  0  0  0  0  0  0  0  0  0
    8.0624    0.2978    0.3580 C   0  0  0  0  0  0  0  0  0  0  0  0
    8.3750    1.2404    1.3762 N   0  0  0  0  0  0  0  0  0  0  0  0
    6.9236    0.5093   -0.4214 C   0  0  0  0  0  0  0  0  0  0  0  0
    5.9411    1.9227   -0.1538 Cl  0  0  0  0  0  0  0  0  0  0  0  0
    3.1450    0.0888   -2.4669 C   0  0  0  0  0  0  0  0  0  0  0  0
    3.3755    0.3551   -3.7724 F   0  0  0  0  0  0  0  0  0  0  0  0
    1.8366    0.1042   -1.9968 C   0  0  0  0  0  0  0  0  0  0  0  0
   -3.2394   -2.4817    4.1851 H   0  0  0  0  0  0  0  0  0  0  0  0
   -2.9800   -2.9051    2.4601 H   0  0  0  0  0  0  0  0  0  0  0  0
   -1.8916   -3.5156    3.7226 H   0  0  0  0  0  0  0  0  0  0  0  0
   -2.0275   -0.6062    3.9013 H   0  0  0  0  0  0  0  0  0  0  0  0
   -0.5948   -1.6236    3.7525 H   0  0  0  0  0  0  0  0  0  0  0  0
   -3.8954   -0.7312    2.7215 H   0  0  0  0  0  0  0  0  0  0  0  0
   -5.7626    0.1528    1.3725 H   0  0  0  0  0  0  0  0  0  0  0  0
   -5.7302   -0.4269   -2.5396 H   0  0  0  0  0  0  0  0  0  0  0  0
   -7.6388    0.5320   -3.8094 H   0  0  0  0  0  0  0  0  0  0  0  0
   -7.8493    3.7435   -1.0389 H   0  0  0  0  0  0  0  0  0  0  0  0
   -5.9172    2.7622    0.2366 H   0  0  0  0  0  0  0  0  0  0  0  0
    0.2569   -0.3799    0.9336 H   0  0  0  0  0  0  0  0  0  0  0  0
    2.4960   -0.6631    1.2156 H   0  0  0  0  0  0  0  0  0  0  0  0
    4.7544   -0.6968    0.3667 H   0  0  0  0  0  0  0  0  0  0  0  0
    7.1592   -2.2260   -2.4227 H   0  0  0  0  0  0  0  0  0  0  0  0
    9.1224   -2.5570   -1.0533 H   0  0  0  0  0  0  0  0  0  0  0  0
    7.6417    1.8462    1.8010 H   0  0  0  0  0  0  0  0  0  0  0  0
    9.3600    1.3067    1.6846 H   0  0  0  0  0  0  0  0  0  0  0  0
    1.0337    0.3339   -2.7098 H   0  0  0  0  0  0  0  0  0  0  0  0
  1  2  1  0
  2  3  1  0
  3  4  1  0
  4  5  1  0
  5  6  2  0
  6  7  1  0
  7  8  1  0
  8  9  2  0
  9 10  1  0
 10 11  2  0
 11 12  1  0
 11 13  1  0
 13 14  2  0
  7 15  1  0
 15 16  2  0
 15 17  1  0
 17 18  1  0
 18 19  2  0
 18 20  1  0
 20 21  1  0
 21 22  2  0
 22 23  1  0
 23 24  2  0
 24 25  1  0
 25 26  1  0
 26 27  2  0
 27 28  1  0
 28 29  2  0
 29 30  1  0
 30 31  1  0
 30 32  2  0
 32 33  1  0
 24 34  1  0
 34 35  1  0
 34 36  2  0
 17  4  2  0
 36 21  1  0
 14  8  1  0
 32 26  1  0
  1 37  1  0
  1 38  1  0
  1 39  1  0
  2 40  1  0
  2 41  1  0
  5 42  1  0
  6 43  1  0
  9 44  1  0
 10 45  1  0
 13 46  1  0
 14 47  1  0
 20 48  1  0
 22 49  1  0
 23 50  1  0
 27 51  1  0
 28 52  1  0
 31 53  1  0
 31 54  1  0
 36 55  1  0
M  END
$$$$
