
     RDKit          3D

 42 44  0  0  0  0  0  0  0  0999 V2000
   -2.9993    0.1503    2.1725 Cl  0  0  0  0  0  0  0  0  0  0  0  0
   -3.0621   -0.8705    0.7393 C   0  0  0  0  0  0  0  0  0  0  0  0
   -3.8810   -1.9579    0.6992 C   0  0  0  0  0  0  0  0  0  0  0  0
   -3.9577   -2.7830   -0.4082 C   0  0  0  0  0  0  0  0  0  0  0  0
   -3.1921   -2.5187   -1.5181 C   0  0  0  0  0  0  0  0  0  0  0  0
   -2.3676   -1.4142   -1.4626 C   0  0  0  0  0  0  0  0  0  0  0  0
   -2.2712   -0.5775   -0.3767 C   0  0  0  0  0  0  0  0  0  0  0  0
   -1.4152    0.5841   -0.3873 C   0  0  0  0  0  0  0  0  0  0  0  0
   -0.1694    0.5940    0.4089 C   0  0  0  0  0  0  0  0  0  0  0  0
    0.4435    1.9629    0.1722 C   0  0  0  0  0  0  0  0  0  0  0  0
    1.0759    2.1541   -1.0288 C   0  0  0  0  0  0  0  0  0  0  0  0
    1.6725    3.3570   -1.3613 C   0  0  0  0  0  0  0  0  0  0  0  0
    1.6181    4.3775   -0.4459 C   0  0  0  0  0  0  0  0  0  0  0  0
    0.9745    4.1813    0.7752 C   0  0  0  0  0  0  0  0  0  0  0  0
    0.3918    2.9779    1.0774 C   0  0  0  0  0  0  0  0  0  0  0  0
    0.8724   -0.3218    0.0226 N   0  0  0  0  0  0  0  0  0  0  0  0
    2.0385   -0.0748    0.8471 C   0  0  0  0  0  0  0  0  0  0  0  0
    3.1926   -0.9521    0.5591 C   0  0  0  0  0  0  0  0  0  0  0  0
    2.8433   -2.1940   -0.1253 N   0  0  0  0  0  0  0  0  0  0  0  0
    1.5965   -2.6251    0.4844 C   0  0  0  0  0  0  0  0  0  0  0  0
    0.5175   -1.7016   -0.0365 C   0  0  0  0  0  0  0  0  0  0  0  0
   -4.4900   -2.1632    1.5895 H   0  0  0  0  0  0  0  0  0  0  0  0
   -4.6333   -3.6283   -0.3621 H   0  0  0  0  0  0  0  0  0  0  0  0
   -3.2600   -3.1708   -2.3791 H   0  0  0  0  0  0  0  0  0  0  0  0
   -1.7750   -1.2454   -2.3761 H   0  0  0  0  0  0  0  0  0  0  0  0
   -1.1356    0.7848   -1.4620 H   0  0  0  0  0  0  0  0  0  0  0  0
   -2.0742    1.4784   -0.1519 H   0  0  0  0  0  0  0  0  0  0  0  0
   -0.3337    0.4471    1.4975 H   0  0  0  0  0  0  0  0  0  0  0  0
    1.1361    1.3591   -1.7802 H   0  0  0  0  0  0  0  0  0  0  0  0
    2.1682    3.4626   -2.3374 H   0  0  0  0  0  0  0  0  0  0  0  0
    2.0869    5.3333   -0.6988 H   0  0  0  0  0  0  0  0  0  0  0  0
    0.9762    5.0332    1.4388 H   0  0  0  0  0  0  0  0  0  0  0  0
   -0.0997    2.8370    2.0168 H   0  0  0  0  0  0  0  0  0  0  0  0
    1.7173   -0.1500    1.9110 H   0  0  0  0  0  0  0  0  0  0  0  0
    2.3359    0.9781    0.6891 H   0  0  0  0  0  0  0  0  0  0  0  0
    3.6530   -1.2473    1.5424 H   0  0  0  0  0  0  0  0  0  0  0  0
    4.0158   -0.4840   -0.0130 H   0  0  0  0  0  0  0  0  0  0  0  0
    2.7194   -1.9418   -1.1308 H   0  0  0  0  0  0  0  0  0  0  0  0
    1.7320   -2.5244    1.5755 H   0  0  0  0  0  0  0  0  0  0  0  0
    1.3610   -3.6425    0.1725 H   0  0  0  0  0  0  0  0  0  0  0  0
    0.3741   -1.9843   -1.0937 H   0  0  0  0  0  0  0  0  0  0  0  0
   -0.3958   -1.8795    0.5451 H   0  0  0  0  0  0  0  0  0  0  0  0
  1  2  1  0
  2  3  2  0
  3  4  1  0
  4  5  2  0
  5  6  1  0
  6  7  2  0
  7  8  1  0
  8  9  1  0
  9 10  1  0
 10 11  2  0
 11 12  1  0
 12 13  2  0
 13 14  1  0
 14 15  2  0
  9 16  1  0
 16 17  1  0
 17 18  1  0
 18 19  1  0
 19 20  1  0
 20 21  1  0
  7  2  1  0
 15 10  1  0
 21 16  1  0
  3 22  1  0
  4 23  1  0
  5 24  1  0
  6 25  1  0
  8 26  1  0
  8 27  1  0
  9 28  1  0
 11 29  1  0
 12 30  1  0
 13 31  1  0
 14 32  1  0
 15 33  1  0
 17 34  1  0
 17 35  1  0
 18 36  1  0
 18 37  1  0
 19 38  1  0
 20 39  1  0
 20 40  1  0
 21 41  1  0
 21 42  1  0
M  END
$$$$
