
     RDKit          3D

 57 60  0  0  0  0  0  0  0  0999 V2000
   -0.5562    2.0974   -0.4016 C   0  0  0  0  0  0  0  0  0  0  0  0
    0.1048    0.8787   -0.9546 C   0  0  1  0  0  0  0  0  0  0  0  0
    1.4984    0.7113   -0.5195 C   0  0  0  0  0  0  0  0  0  0  0  0
    2.1511    1.6609    0.2319 C   0  0  0  0  0  0  0  0  0  0  0  0
    3.4766    1.4841    0.6354 C   0  0  0  0  0  0  0  0  0  0  0  0
    4.1473    0.3539    0.2848 C   0  0  0  0  0  0  0  0  0  0  0  0
    5.5300    0.1948    0.7192 C   0  0  0  0  0  0  0  0  0  0  0  0
    5.9389   -1.0130    1.2434 C   0  0  0  0  0  0  0  0  0  0  0  0
    7.2271   -1.2334    1.6728 C   0  0  0  0  0  0  0  0  0  0  0  0
    8.1567   -0.2114    1.5799 C   0  0  0  0  0  0  0  0  0  0  0  0
    9.4273   -0.4093    1.9967 F   0  0  0  0  0  0  0  0  0  0  0  0
    7.7793    1.0142    1.0583 C   0  0  0  0  0  0  0  0  0  0  0  0
    6.4706    1.1933    0.6374 C   0  0  0  0  0  0  0  0  0  0  0  0
    6.0890    2.3798    0.1280 F   0  0  0  0  0  0  0  0  0  0  0  0
    3.5223   -0.6109   -0.4642 C   0  0  0  0  0  0  0  0  0  0  0  0
    2.1965   -0.4244   -0.8626 C   0  0  0  0  0  0  0  0  0  0  0  0
   -0.6781   -0.3490   -0.7356 N   0  0  0  0  0  0  0  0  0  0  0  0
   -1.2191   -1.1389   -1.8093 C   0  0  0  0  0  0  0  0  0  0  0  0
   -2.5040   -1.7824   -1.4045 C   0  0  0  0  0  0  0  0  0  0  0  0
   -3.1079   -1.2797   -0.1193 C   0  0  2  0  0  0  0  0  0  0  0  0
   -4.2355   -2.2619    0.1964 C   0  0  0  0  0  0  0  0  0  0  0  0
   -4.9813   -1.9475    1.4429 C   0  0  0  0  0  0  0  0  0  0  0  0
   -5.9999   -2.9042    1.6736 O   0  0  0  0  0  0  0  0  0  0  0  0
   -3.6240    0.0894   -0.2822 C   0  0  0  0  0  0  0  0  0  0  0  0
   -3.9063    0.7863    0.9058 C   0  0  0  0  0  0  0  0  0  0  0  0
   -4.4112    2.0563    0.8282 C   0  0  0  0  0  0  0  0  0  0  0  0
   -4.6303    2.6217   -0.4100 C   0  0  0  0  0  0  0  0  0  0  0  0
   -5.1326    3.8849   -0.4393 F   0  0  0  0  0  0  0  0  0  0  0  0
   -4.3537    1.9399   -1.5784 C   0  0  0  0  0  0  0  0  0  0  0  0
   -3.8440    0.6569   -1.5079 C   0  0  0  0  0  0  0  0  0  0  0  0
   -2.1450   -1.2920    0.9371 O   0  0  0  0  0  0  0  0  0  0  0  0
   -0.8867   -0.7669    0.5936 C   0  0  0  0  0  0  0  0  0  0  0  0
    0.0352   -0.6691    1.4474 O   0  0  0  0  0  0  0  0  0  0  0  0
   -1.5026    2.2613   -0.9971 H   0  0  0  0  0  0  0  0  0  0  0  0
   -0.8624    2.0324    0.6412 H   0  0  0  0  0  0  0  0  0  0  0  0
    0.0928    2.9649   -0.6424 H   0  0  0  0  0  0  0  0  0  0  0  0
    0.1292    1.0029   -2.0782 H   0  0  0  0  0  0  0  0  0  0  0  0
    1.6892    2.5824    0.5504 H   0  0  0  0  0  0  0  0  0  0  0  0
    3.9889    2.2310    1.2258 H   0  0  0  0  0  0  0  0  0  0  0  0
    5.1954   -1.8073    1.3098 H   0  0  0  0  0  0  0  0  0  0  0  0
    7.5329   -2.1838    2.0809 H   0  0  0  0  0  0  0  0  0  0  0  0
    8.5263    1.8057    0.9938 H   0  0  0  0  0  0  0  0  0  0  0  0
    4.0820   -1.4926   -0.7238 H   0  0  0  0  0  0  0  0  0  0  0  0
    1.7678   -1.2208   -1.4481 H   0  0  0  0  0  0  0  0  0  0  0  0
   -0.4913   -1.9647   -2.0626 H   0  0  0  0  0  0  0  0  0  0  0  0
   -1.4063   -0.5214   -2.7234 H   0  0  0  0  0  0  0  0  0  0  0  0
   -3.2140   -1.7454   -2.2516 H   0  0  0  0  0  0  0  0  0  0  0  0
   -2.3145   -2.9119   -1.3034 H   0  0  0  0  0  0  0  0  0  0  0  0
   -3.7420   -3.2636    0.3139 H   0  0  0  0  0  0  0  0  0  0  0  0
   -4.8829   -2.3190   -0.7000 H   0  0  0  0  0  0  0  0  0  0  0  0
   -4.3622   -1.9143    2.3323 H   0  0  0  0  0  0  0  0  0  0  0  0
   -5.5682   -0.9984    1.2655 H   0  0  0  0  0  0  0  0  0  0  0  0
   -5.6617   -3.7413    1.2476 H   0  0  0  0  0  0  0  0  0  0  0  0
   -3.7228    0.3385    1.8785 H   0  0  0  0  0  0  0  0  0  0  0  0
   -4.6392    2.6188    1.7166 H   0  0  0  0  0  0  0  0  0  0  0  0
   -4.5256    2.3840   -2.5492 H   0  0  0  0  0  0  0  0  0  0  0  0
   -3.6444    0.1528   -2.4567 H   0  0  0  0  0  0  0  0  0  0  0  0
  1  2  1  0
  2  3  1  0
  3  4  2  0
  4  5  1  0
  5  6  2  0
  6  7  1  0
  7  8  2  0
  8  9  1  0
  9 10  2  0
 10 11  1  0
 10 12  1  0
 12 13  2  0
 13 14  1  0
  6 15  1  0
 15 16  2  0
  2 17  1  0
 17 18  1  0
 18 19  1  0
 19 20  1  0
 20 21  1  1
 21 22  1  0
 22 23  1  0
 20 24  1  0
 24 25  2  0
 25 26  1  0
 26 27  2  0
 27 28  1  0
 27 29  1  0
 29 30  2  0
 20 31  1  0
 31 32  1  0
 32 33  2  0
 16  3  1  0
 32 17  1  0
 13  7  1  0
 30 24  1  0
  1 34  1  0
  1 35  1  0
  1 36  1  0
  2 37  1  6
  4 38  1  0
  5 39  1  0
  8 40  1  0
  9 41  1  0
 12 42  1  0
 15 43  1  0
 16 44  1  0
 18 45  1  0
 18 46  1  0
 19 47  1  0
 19 48  1  0
 21 49  1  0
 21 50  1  0
 22 51  1  0
 22 52  1  0
 23 53  1  0
 25 54  1  0
 26 55  1  0
 29 56  1  0
 30 57  1  0
M  END
$$$$
