
     RDKit          3D

 86 91  0  0  0  0  0  0  0  0999 V2000
   -8.6720   -0.6610   -3.8718 C   0  0  0  0  0  0  0  0  0  0  0  0
   -7.5869   -0.4854   -2.8740 C   0  0  0  0  0  0  0  0  0  0  0  0
   -6.9866    0.7146   -2.4778 C   0  0  0  0  0  0  0  0  0  0  0  0
   -6.0138    0.4512   -1.5466 C   0  0  0  0  0  0  0  0  0  0  0  0
   -5.1653    1.4608   -0.9184 C   0  0  0  0  0  0  0  0  0  0  0  0
   -5.3225    2.6740   -1.2206 O   0  0  0  0  0  0  0  0  0  0  0  0
   -4.1626    1.1454    0.0201 N   0  0  0  0  0  0  0  0  0  0  0  0
   -3.2861    2.1340    0.6652 C   0  0  1  0  0  0  0  0  0  0  0  0
   -3.4828    1.9534    2.1379 C   0  0  0  0  0  0  0  0  0  0  0  0
   -2.5206    2.6295    3.0241 C   0  0  0  0  0  0  0  0  0  0  0  0
   -1.1237    2.8337    2.5198 C   0  0  1  0  0  0  0  0  0  0  0  0
   -0.2739    1.7181    2.9778 N   0  0  0  0  0  0  0  0  0  0  0  0
    0.3788    1.6629    4.2042 C   0  0  0  0  0  0  0  0  0  0  0  0
    0.1289    2.6983    4.9583 O   0  0  0  0  0  0  0  0  0  0  0  0
    1.2699    0.6802    4.7509 C   0  0  0  0  0  0  0  0  0  0  0  0
    1.5527    0.7888    6.1187 C   0  0  0  0  0  0  0  0  0  0  0  0
    2.2857   -0.1419    6.7898 C   0  0  0  0  0  0  0  0  0  0  0  0
    2.5587   -0.0309    8.1151 F   0  0  0  0  0  0  0  0  0  0  0  0
    2.7573   -1.2196    6.0797 C   0  0  0  0  0  0  0  0  0  0  0  0
    2.5000   -1.3292    4.7931 N   0  0  0  0  0  0  0  0  0  0  0  0
    1.7645   -0.4216    4.0455 C   0  0  0  0  0  0  0  0  0  0  0  0
    1.5831   -0.6089    2.8104 O   0  0  0  0  0  0  0  0  0  0  0  0
    1.3747   -0.7630    1.5490 C   0  0  0  0  0  0  0  0  0  0  0  0
    0.3779   -1.5787    0.9896 C   0  0  0  0  0  0  0  0  0  0  0  0
    0.1984   -1.6950   -0.3517 C   0  0  0  0  0  0  0  0  0  0  0  0
    1.0001   -1.0066   -1.2295 C   0  0  0  0  0  0  0  0  0  0  0  0
    2.0011   -0.1910   -0.7371 C   0  0  0  0  0  0  0  0  0  0  0  0
    2.8325    0.5531   -1.6730 C   0  0  0  0  0  0  0  0  0  0  0  0
    2.8387    1.9420   -1.5174 C   0  0  0  0  0  0  0  0  0  0  0  0
    3.5093    2.7243   -2.3994 C   0  0  0  0  0  0  0  0  0  0  0  0
    4.1976    2.1660   -3.4675 C   0  0  0  0  0  0  0  0  0  0  0  0
    4.8774    2.9660   -4.3649 O   0  0  0  0  0  0  0  0  0  0  0  0
    4.1790    0.8070   -3.5998 C   0  0  0  0  0  0  0  0  0  0  0  0
    3.4887   -0.0329   -2.6923 C   0  0  0  0  0  0  0  0  0  0  0  0
    3.6358   -1.4747   -2.9038 C   0  0  0  0  0  0  0  0  0  0  0  0
    4.7747   -1.9853   -2.1986 N   0  0  0  0  0  0  0  0  0  0  0  0
    4.7947   -1.7746   -0.7897 C   0  0  0  0  0  0  0  0  0  0  0  0
    6.1912   -2.2604   -0.3226 C   0  0  0  0  0  0  0  0  0  0  0  0
    6.3374   -3.6032   -0.5656 O   0  0  0  0  0  0  0  0  0  0  0  0
    6.2799   -3.8391   -1.9449 C   0  0  0  0  0  0  0  0  0  0  0  0
    4.9127   -3.4361   -2.4385 C   0  0  0  0  0  0  0  0  0  0  0  0
    2.1837   -0.0723    0.6028 C   0  0  0  0  0  0  0  0  0  0  0  0
   -1.0064    2.9037    1.0423 C   0  0  0  0  0  0  0  0  0  0  0  0
   -1.8509    1.8550    0.3489 C   0  0  0  0  0  0  0  0  0  0  0  0
   -6.0225   -0.8813   -1.3781 N   0  0  0  0  0  0  0  0  0  0  0  0
   -6.9387   -1.4317   -2.1512 N   0  0  0  0  0  0  0  0  0  0  0  0
   -7.2272   -2.8537   -2.2471 C   0  0  0  0  0  0  0  0  0  0  0  0
   -8.4004   -0.1975   -4.8461 H   0  0  0  0  0  0  0  0  0  0  0  0
   -9.5764   -0.1600   -3.4309 H   0  0  0  0  0  0  0  0  0  0  0  0
   -8.9003   -1.7278   -4.0225 H   0  0  0  0  0  0  0  0  0  0  0  0
   -7.2760    1.6880   -2.8787 H   0  0  0  0  0  0  0  0  0  0  0  0
   -4.0132    0.1498    0.2832 H   0  0  0  0  0  0  0  0  0  0  0  0
   -3.5441    3.1407    0.2829 H   0  0  0  0  0  0  0  0  0  0  0  0
   -4.5313    2.3225    2.3872 H   0  0  0  0  0  0  0  0  0  0  0  0
   -3.5592    0.8420    2.3270 H   0  0  0  0  0  0  0  0  0  0  0  0
   -2.4702    2.0888    3.9918 H   0  0  0  0  0  0  0  0  0  0  0  0
   -2.9701    3.6436    3.2922 H   0  0  0  0  0  0  0  0  0  0  0  0
   -0.7496    3.7358    2.9991 H   0  0  0  0  0  0  0  0  0  0  0  0
   -0.2132    0.9380    2.3367 H   0  0  0  0  0  0  0  0  0  0  0  0
    1.1919    1.6371    6.7129 H   0  0  0  0  0  0  0  0  0  0  0  0
    3.3356   -1.9634    6.6194 H   0  0  0  0  0  0  0  0  0  0  0  0
   -0.2493   -2.1176    1.6697 H   0  0  0  0  0  0  0  0  0  0  0  0
   -0.5856   -2.3365   -0.7533 H   0  0  0  0  0  0  0  0  0  0  0  0
    0.7995   -1.1044   -2.2785 H   0  0  0  0  0  0  0  0  0  0  0  0
    2.3082    2.3925   -0.6864 H   0  0  0  0  0  0  0  0  0  0  0  0
    3.5299    3.7855   -2.2990 H   0  0  0  0  0  0  0  0  0  0  0  0
    4.4439    3.2679   -5.2124 H   0  0  0  0  0  0  0  0  0  0  0  0
    4.7059    0.3359   -4.4188 H   0  0  0  0  0  0  0  0  0  0  0  0
    3.8314   -1.6488   -3.9972 H   0  0  0  0  0  0  0  0  0  0  0  0
    2.7492   -2.0916   -2.6447 H   0  0  0  0  0  0  0  0  0  0  0  0
    4.0391   -2.4028   -0.3036 H   0  0  0  0  0  0  0  0  0  0  0  0
    4.7511   -0.6953   -0.5161 H   0  0  0  0  0  0  0  0  0  0  0  0
    6.2653   -2.0370    0.7523 H   0  0  0  0  0  0  0  0  0  0  0  0
    6.9134   -1.6578   -0.9140 H   0  0  0  0  0  0  0  0  0  0  0  0
    7.0514   -3.2448   -2.4802 H   0  0  0  0  0  0  0  0  0  0  0  0
    6.5093   -4.8962   -2.1186 H   0  0  0  0  0  0  0  0  0  0  0  0
    4.1280   -3.9339   -1.8224 H   0  0  0  0  0  0  0  0  0  0  0  0
    4.7862   -3.6364   -3.5257 H   0  0  0  0  0  0  0  0  0  0  0  0
    2.9581    0.5583    1.0376 H   0  0  0  0  0  0  0  0  0  0  0  0
   -1.2618    3.8808    0.6047 H   0  0  0  0  0  0  0  0  0  0  0  0
    0.0480    2.6773    0.7338 H   0  0  0  0  0  0  0  0  0  0  0  0
   -1.6912    1.9629   -0.7411 H   0  0  0  0  0  0  0  0  0  0  0  0
   -1.5393    0.8222    0.6164 H   0  0  0  0  0  0  0  0  0  0  0  0
   -6.9598   -3.2389   -3.2712 H   0  0  0  0  0  0  0  0  0  0  0  0
   -8.3066   -3.0693   -2.1336 H   0  0  0  0  0  0  0  0  0  0  0  0
   -6.6702   -3.3932   -1.4696 H   0  0  0  0  0  0  0  0  0  0  0  0
  1  2  1  0
  2  3  2  0
  3  4  1  0
  4  5  1  0
  5  6  2  0
  5  7  1  0
  7  8  1  0
  8  9  1  0
  9 10  1  0
 10 11  1  0
 11 12  1  0
 12 13  1  0
 13 14  2  0
 13 15  1  0
 15 16  2  0
 16 17  1  0
 17 18  1  0
 17 19  2  0
 19 20  1  0
 20 21  2  0
 21 22  1  0
 22 23  1  0
 23 24  2  0
 24 25  1  0
 25 26  2  0
 26 27  1  0
 27 28  1  0
 28 29  2  0
 29 30  1  0
 30 31  2  0
 31 32  1  0
 31 33  1  0
 33 34  2  0
 34 35  1  0
 35 36  1  0
 36 37  1  0
 37 38  1  0
 38 39  1  0
 39 40  1  0
 40 41  1  0
 27 42  2  0
 11 43  1  0
 43 44  1  0
  4 45  2  0
 45 46  1  0
 46 47  1  0
 46  2  1  0
 44  8  1  0
 21 15  1  0
 42 23  1  0
 34 28  1  0
 41 36  1  0
  1 48  1  0
  1 49  1  0
  1 50  1  0
  3 51  1  0
  7 52  1  0
  8 53  1  6
  9 54  1  0
  9 55  1  0
 10 56  1  0
 10 57  1  0
 11 58  1  1
 12 59  1  0
 16 60  1  0
 19 61  1  0
 24 62  1  0
 25 63  1  0
 26 64  1  0
 29 65  1  0
 30 66  1  0
 32 67  1  0
 33 68  1  0
 35 69  1  0
 35 70  1  0
 37 71  1  0
 37 72  1  0
 38 73  1  0
 38 74  1  0
 40 75  1  0
 40 76  1  0
 41 77  1  0
 41 78  1  0
 42 79  1  0
 43 80  1  0
 43 81  1  0
 44 82  1  0
 44 83  1  0
 47 84  1  0
 47 85  1  0
 47 86  1  0
M  END
$$$$
