
     RDKit          3D

 51 54  0  0  0  0  0  0  0  0999 V2000
   -5.0139   -1.9012    0.3017 C   0  0  0  0  0  0  0  0  0  0  0  0
   -4.2633   -0.7066    0.8512 C   0  0  0  0  0  0  0  0  0  0  0  0
   -4.6950   -0.4640    2.2747 C   0  0  0  0  0  0  0  0  0  0  0  0
   -2.7829   -1.0047    0.7923 C   0  0  0  0  0  0  0  0  0  0  0  0
   -2.2284   -0.1436   -0.2309 N   0  0  0  0  0  0  0  0  0  0  0  0
   -0.9186   -0.2410   -0.7298 C   0  0  0  0  0  0  0  0  0  0  0  0
   -0.5528    0.5597   -1.6144 O   0  0  0  0  0  0  0  0  0  0  0  0
    0.0022   -1.2530   -0.2312 C   0  0  0  0  0  0  0  0  0  0  0  0
    1.3253   -1.1816   -0.8883 C   0  0  0  0  0  0  0  0  0  0  0  0
    2.2817   -0.3936   -0.3310 N   0  0  0  0  0  0  0  0  0  0  0  0
    3.5055   -0.2796   -0.8722 C   0  0  0  0  0  0  0  0  0  0  0  0
    4.4939    0.5440   -0.2821 N   0  0  0  0  0  0  0  0  0  0  0  0
    5.8108    0.7409   -0.7823 C   0  0  0  0  0  0  0  0  0  0  0  0
    6.7780    0.1546    0.2445 C   0  0  0  0  0  0  0  0  0  0  0  0
    6.2717    0.2601    1.5090 O   0  0  0  0  0  0  0  0  0  0  0  0
    5.4526    1.3433    1.7381 C   0  0  0  0  0  0  0  0  0  0  0  0
    4.1531    1.2608    0.9465 C   0  0  0  0  0  0  0  0  0  0  0  0
    3.7429   -1.0014   -2.0207 C   0  0  0  0  0  0  0  0  0  0  0  0
    2.7547   -1.8129   -2.5928 C   0  0  0  0  0  0  0  0  0  0  0  0
    2.9609   -2.4653   -3.6261 O   0  0  0  0  0  0  0  0  0  0  0  0
    1.5500   -1.8865   -2.0059 N   0  0  0  0  0  0  0  0  0  0  0  0
   -3.2351    0.7851   -0.6158 C   0  0  0  0  0  0  0  0  0  0  0  0
   -3.2355    1.8855   -1.4545 C   0  0  0  0  0  0  0  0  0  0  0  0
   -4.3696    2.6532   -1.6760 C   0  0  0  0  0  0  0  0  0  0  0  0
   -5.5405    2.3363   -1.0589 C   0  0  0  0  0  0  0  0  0  0  0  0
   -5.5608    1.2460   -0.2213 C   0  0  0  0  0  0  0  0  0  0  0  0
   -4.4327    0.4825   -0.0011 C   0  0  0  0  0  0  0  0  0  0  0  0
   -4.6995   -2.7836    0.9172 H   0  0  0  0  0  0  0  0  0  0  0  0
   -4.7105   -2.0887   -0.7537 H   0  0  0  0  0  0  0  0  0  0  0  0
   -6.0995   -1.8134    0.4201 H   0  0  0  0  0  0  0  0  0  0  0  0
   -4.3508   -1.3377    2.8711 H   0  0  0  0  0  0  0  0  0  0  0  0
   -4.2172    0.4826    2.6001 H   0  0  0  0  0  0  0  0  0  0  0  0
   -5.7852   -0.3782    2.3477 H   0  0  0  0  0  0  0  0  0  0  0  0
   -2.2896   -0.7488    1.7656 H   0  0  0  0  0  0  0  0  0  0  0  0
   -2.6078   -2.0676    0.5205 H   0  0  0  0  0  0  0  0  0  0  0  0
   -0.4361   -2.2602   -0.4903 H   0  0  0  0  0  0  0  0  0  0  0  0
    0.0974   -1.2689    0.8741 H   0  0  0  0  0  0  0  0  0  0  0  0
    6.0245    0.4063   -1.7896 H   0  0  0  0  0  0  0  0  0  0  0  0
    5.9992    1.8561   -0.7850 H   0  0  0  0  0  0  0  0  0  0  0  0
    7.7836    0.5777    0.1022 H   0  0  0  0  0  0  0  0  0  0  0  0
    6.8208   -0.9466   -0.0041 H   0  0  0  0  0  0  0  0  0  0  0  0
    5.9419    2.3205    1.5632 H   0  0  0  0  0  0  0  0  0  0  0  0
    5.1650    1.3214    2.8094 H   0  0  0  0  0  0  0  0  0  0  0  0
    3.8788    2.2873    0.6379 H   0  0  0  0  0  0  0  0  0  0  0  0
    3.3637    0.7455    1.5136 H   0  0  0  0  0  0  0  0  0  0  0  0
    4.6956   -0.9504   -2.4944 H   0  0  0  0  0  0  0  0  0  0  0  0
    0.7774   -2.4765   -2.3909 H   0  0  0  0  0  0  0  0  0  0  0  0
   -2.3298    2.1587   -1.9532 H   0  0  0  0  0  0  0  0  0  0  0  0
   -4.3588    3.5111   -2.3334 H   0  0  0  0  0  0  0  0  0  0  0  0
   -6.4214    2.9357   -1.2333 H   0  0  0  0  0  0  0  0  0  0  0  0
   -6.4959    1.0008    0.2655 H   0  0  0  0  0  0  0  0  0  0  0  0
  1  2  1  0
  2  3  1  0
  2  4  1  0
  4  5  1  0
  5  6  1  0
  6  7  2  0
  6  8  1  0
  8  9  1  0
  9 10  2  0
 10 11  1  0
 11 12  1  0
 12 13  1  0
 13 14  1  0
 14 15  1  0
 15 16  1  0
 16 17  1  0
 11 18  2  0
 18 19  1  0
 19 20  2  0
 19 21  1  0
  5 22  1  0
 22 23  2  0
 23 24  1  0
 24 25  2  0
 25 26  1  0
 26 27  2  0
 27  2  1  0
 21  9  1  0
 27 22  1  0
 17 12  1  0
  1 28  1  0
  1 29  1  0
  1 30  1  0
  3 31  1  0
  3 32  1  0
  3 33  1  0
  4 34  1  0
  4 35  1  0
  8 36  1  0
  8 37  1  0
 13 38  1  0
 13 39  1  0
 14 40  1  0
 14 41  1  0
 16 42  1  0
 16 43  1  0
 17 44  1  0
 17 45  1  0
 18 46  1  0
 21 47  1  0
 23 48  1  0
 24 49  1  0
 25 50  1  0
 26 51  1  0
M  END
$$$$
