
     RDKit          3D

 64 68  0  0  0  0  0  0  0  0999 V2000
   -4.2498    1.1858   -2.4322 C   0  0  0  0  0  0  0  0  0  0  0  0
   -5.2931    0.8004   -1.4701 C   0  0  2  0  0  0  0  0  0  0  0  0
   -6.2586    1.9003   -1.1066 C   0  0  0  0  0  0  0  0  0  0  0  0
   -7.4115    1.3154   -0.6773 O   0  0  0  0  0  0  0  0  0  0  0  0
   -7.3292    0.3725    0.2959 C   0  0  0  0  0  0  0  0  0  0  0  0
   -6.0923   -0.3894    0.4557 C   0  0  1  0  0  0  0  0  0  0  0  0
   -6.1906   -1.8136   -0.0377 C   0  0  0  0  0  0  0  0  0  0  0  0
   -4.9124    0.1798   -0.2478 N   0  0  0  0  0  0  0  0  0  0  0  0
   -3.6687    0.0476    0.3487 C   0  0  0  0  0  0  0  0  0  0  0  0
   -3.6941   -0.5964    1.4931 O   0  0  0  0  0  0  0  0  0  0  0  0
   -2.3408    0.4741   -0.0256 C   0  0  2  0  0  0  0  0  0  0  0  0
   -1.6222   -0.1219   -1.2087 C   0  0  0  0  0  0  0  0  0  0  0  0
   -1.2214   -0.4951    0.1608 C   0  0  1  0  0  0  0  0  0  0  0  0
   -0.0250    0.0924    0.7884 C   0  0  1  0  0  0  0  0  0  0  0  0
   -0.3140    0.6685    2.1778 C   0  0  0  0  0  0  0  0  0  0  0  0
    1.0476   -0.9270    1.0231 C   0  0  0  0  0  0  0  0  0  0  0  0
    2.3490   -0.7426    0.5697 C   0  0  0  0  0  0  0  0  0  0  0  0
    3.3345   -1.6323    0.8197 C   0  0  0  0  0  0  0  0  0  0  0  0
    4.7310   -1.5042    0.4029 C   0  0  0  0  0  0  0  0  0  0  0  0
    5.3546   -0.3517    0.2656 C   0  0  0  0  0  0  0  0  0  0  0  0
    4.6852    0.7800    0.5130 F   0  0  0  0  0  0  0  0  0  0  0  0
    6.7778   -0.2707   -0.0782 C   0  0  0  0  0  0  0  0  0  0  0  0
    7.3566    0.9550   -0.3828 C   0  0  0  0  0  0  0  0  0  0  0  0
    8.6968    1.0544   -0.6533 C   0  0  0  0  0  0  0  0  0  0  0  0
    9.4861   -0.0909   -0.6231 C   0  0  0  0  0  0  0  0  0  0  0  0
   10.9047   -0.0421   -0.9217 C   0  0  0  0  0  0  0  0  0  0  0  0
   12.0172   -0.0048   -1.1365 N   0  0  0  0  0  0  0  0  0  0  0  0
    8.9135   -1.2857   -0.3246 C   0  0  0  0  0  0  0  0  0  0  0  0
    7.5733   -1.3442   -0.0604 N   0  0  0  0  0  0  0  0  0  0  0  0
    3.0089   -2.7665    1.5576 C   0  0  0  0  0  0  0  0  0  0  0  0
    1.7452   -2.9572    2.0029 C   0  0  0  0  0  0  0  0  0  0  0  0
    0.7236   -2.0640    1.7603 C   0  0  0  0  0  0  0  0  0  0  0  0
   -0.4863   -2.3332    2.2578 F   0  0  0  0  0  0  0  0  0  0  0  0
    0.6226    1.1528    0.0321 N   0  0  0  0  0  0  0  0  0  0  0  0
   -0.0893    2.2321   -0.1731 C   0  0  0  0  0  0  0  0  0  0  0  0
    0.3846    3.3407   -0.8723 N   0  0  0  0  0  0  0  0  0  0  0  0
   -1.7437    2.1215    0.5138 S   0  0  0  0  0  0  0  0  0  0  0  0
   -3.9010    0.2618   -2.9427 H   0  0  0  0  0  0  0  0  0  0  0  0
   -4.7842    1.7381   -3.2722 H   0  0  0  0  0  0  0  0  0  0  0  0
   -3.4705    1.8743   -2.1121 H   0  0  0  0  0  0  0  0  0  0  0  0
   -5.9466    0.0330   -2.0069 H   0  0  0  0  0  0  0  0  0  0  0  0
   -5.8940    2.6442   -0.4131 H   0  0  0  0  0  0  0  0  0  0  0  0
   -6.5045    2.4142   -2.0800 H   0  0  0  0  0  0  0  0  0  0  0  0
   -7.5721    0.8773    1.2787 H   0  0  0  0  0  0  0  0  0  0  0  0
   -8.1911   -0.3370    0.1530 H   0  0  0  0  0  0  0  0  0  0  0  0
   -5.7743   -0.4523    1.5419 H   0  0  0  0  0  0  0  0  0  0  0  0
   -5.2234   -2.1892   -0.4376 H   0  0  0  0  0  0  0  0  0  0  0  0
   -6.5247   -2.4454    0.8361 H   0  0  0  0  0  0  0  0  0  0  0  0
   -6.9796   -1.9333   -0.8088 H   0  0  0  0  0  0  0  0  0  0  0  0
   -2.1205   -0.8752   -1.8273 H   0  0  0  0  0  0  0  0  0  0  0  0
   -1.0057    0.6004   -1.8092 H   0  0  0  0  0  0  0  0  0  0  0  0
   -1.4666   -1.5503    0.4823 H   0  0  0  0  0  0  0  0  0  0  0  0
    0.2151    0.0790    2.9633 H   0  0  0  0  0  0  0  0  0  0  0  0
    0.0455    1.7005    2.2813 H   0  0  0  0  0  0  0  0  0  0  0  0
   -1.3934    0.6348    2.4008 H   0  0  0  0  0  0  0  0  0  0  0  0
    2.5739    0.1443   -0.0070 H   0  0  0  0  0  0  0  0  0  0  0  0
    5.3007   -2.3916    0.1835 H   0  0  0  0  0  0  0  0  0  0  0  0
    6.6889    1.8332   -0.3961 H   0  0  0  0  0  0  0  0  0  0  0  0
    9.1649    1.9884   -0.8928 H   0  0  0  0  0  0  0  0  0  0  0  0
    9.4759   -2.2073   -0.2773 H   0  0  0  0  0  0  0  0  0  0  0  0
    3.7778   -3.4956    1.7749 H   0  0  0  0  0  0  0  0  0  0  0  0
    1.5245   -3.8612    2.5880 H   0  0  0  0  0  0  0  0  0  0  0  0
   -0.0677    3.7691   -1.6972 H   0  0  0  0  0  0  0  0  0  0  0  0
    1.2829    3.7684   -0.5107 H   0  0  0  0  0  0  0  0  0  0  0  0
  1  2  1  0
  2  3  1  0
  3  4  1  0
  4  5  1  0
  5  6  1  0
  6  7  1  0
  6  8  1  0
  8  9  1  0
  9 10  2  0
 11  9  1  6
 11 12  1  0
 12 13  1  0
 13 14  1  0
 14 15  1  1
 14 16  1  0
 16 17  2  0
 17 18  1  0
 18 19  1  0
 19 20  2  0
 20 21  1  0
 20 22  1  0
 22 23  2  0
 23 24  1  0
 24 25  2  0
 25 26  1  0
 26 27  3  0
 25 28  1  0
 28 29  2  0
 18 30  2  0
 30 31  1  0
 31 32  2  0
 32 33  1  0
 14 34  1  0
 34 35  2  0
 35 36  1  0
 35 37  1  0
  8  2  1  0
 13 11  1  0
 32 16  1  0
 37 11  1  0
 29 22  1  0
  1 38  1  0
  1 39  1  0
  1 40  1  0
  2 41  1  6
  3 42  1  0
  3 43  1  0
  5 44  1  0
  5 45  1  0
  6 46  1  1
  7 47  1  0
  7 48  1  0
  7 49  1  0
 12 50  1  0
 12 51  1  0
 13 52  1  6
 15 53  1  0
 15 54  1  0
 15 55  1  0
 17 56  1  0
 19 57  1  0
 23 58  1  0
 24 59  1  0
 28 60  1  0
 30 61  1  0
 31 62  1  0
 36 63  1  0
 36 64  1  0
M  END
$$$$
