
     RDKit          3D

 58 60  0  0  0  0  0  0  0  0999 V2000
    5.5001   -2.4274    1.9817 C   0  0  0  0  0  0  0  0  0  0  0  0
    5.7662   -1.0197    1.4956 C   0  0  0  0  0  0  0  0  0  0  0  0
    4.4881   -0.2995    1.1454 C   0  0  0  0  0  0  0  0  0  0  0  0
    3.6762   -1.1993   -0.1301 S   0  0  0  0  0  6  0  0  0  0  0  0
    3.3192   -2.5629    0.4382 O   0  0  0  0  0  0  0  0  0  0  0  0
    4.5876   -1.3961   -1.2849 O   0  0  0  0  0  0  0  0  0  0  0  0
    2.1926   -0.4695   -0.6189 N   0  0  0  0  0  0  0  0  0  0  0  0
    2.4388    0.8446   -1.1469 C   0  0  0  0  0  0  0  0  0  0  0  0
    1.2041    1.3871   -1.8400 C   0  0  0  0  0  0  0  0  0  0  0  0
   -0.0406    1.1413   -0.9747 C   0  0  0  0  0  0  0  0  0  0  0  0
   -0.8675    2.3394   -1.0212 C   0  0  0  0  0  0  0  0  0  0  0  0
   -0.6893    3.3352   -0.0935 C   0  0  0  0  0  0  0  0  0  0  0  0
   -1.4432    4.5062   -0.0786 C   0  0  0  0  0  0  0  0  0  0  0  0
   -2.4081    4.6793   -1.0293 C   0  0  0  0  0  0  0  0  0  0  0  0
   -2.5615    3.6618   -1.9449 C   0  0  0  0  0  0  0  0  0  0  0  0
   -1.8291    2.5470   -1.9427 N   0  0  0  0  0  0  0  0  0  0  0  0
   -0.7393   -0.1026   -1.4499 C   0  0  2  0  0  0  0  0  0  0  0  0
   -1.1756    0.0430   -2.9168 C   0  0  0  0  0  0  0  0  0  0  0  0
   -1.9221   -0.4342   -0.7125 N   0  0  0  0  0  0  0  0  0  0  0  0
   -2.2351   -1.7013   -0.1534 C   0  0  0  0  0  0  0  0  0  0  0  0
   -1.3891   -2.6366   -0.3225 O   0  0  0  0  0  0  0  0  0  0  0  0
   -3.4435   -1.9856    0.5869 C   0  0  0  0  0  0  0  0  0  0  0  0
   -3.7577   -1.3562    1.7668 C   0  0  0  0  0  0  0  0  0  0  0  0
   -4.9248   -1.6449    2.4618 C   0  0  0  0  0  0  0  0  0  0  0  0
   -5.2615   -1.0456    3.6205 F   0  0  0  0  0  0  0  0  0  0  0  0
   -5.7879   -2.5878    1.9519 C   0  0  0  0  0  0  0  0  0  0  0  0
   -5.5052   -3.2276    0.7872 C   0  0  0  0  0  0  0  0  0  0  0  0
   -6.3750   -4.1574    0.3020 F   0  0  0  0  0  0  0  0  0  0  0  0
   -4.3210   -2.9222    0.0995 C   0  0  0  0  0  0  0  0  0  0  0  0
   -4.0563   -3.8042   -1.3890 Cl  0  0  0  0  0  0  0  0  0  0  0  0
    0.4783    0.9360    0.4205 C   0  0  0  0  0  0  0  0  0  0  0  0
    1.3125   -0.3311    0.5264 C   0  0  0  0  0  0  0  0  0  0  0  0
    4.4980   -2.4748    2.4538 H   0  0  0  0  0  0  0  0  0  0  0  0
    5.4935   -3.1003    1.1093 H   0  0  0  0  0  0  0  0  0  0  0  0
    6.3142   -2.6739    2.6931 H   0  0  0  0  0  0  0  0  0  0  0  0
    6.4109   -1.0200    0.5838 H   0  0  0  0  0  0  0  0  0  0  0  0
    6.2981   -0.4212    2.2797 H   0  0  0  0  0  0  0  0  0  0  0  0
    3.8867   -0.2322    2.0701 H   0  0  0  0  0  0  0  0  0  0  0  0
    4.7559    0.7315    0.8506 H   0  0  0  0  0  0  0  0  0  0  0  0
    3.2228    0.7348   -1.9457 H   0  0  0  0  0  0  0  0  0  0  0  0
    2.8608    1.5585   -0.4240 H   0  0  0  0  0  0  0  0  0  0  0  0
    1.3769    2.4693   -2.0037 H   0  0  0  0  0  0  0  0  0  0  0  0
    1.1569    0.9006   -2.8125 H   0  0  0  0  0  0  0  0  0  0  0  0
    0.0497    3.2989    0.7067 H   0  0  0  0  0  0  0  0  0  0  0  0
   -1.2913    5.2808    0.6575 H   0  0  0  0  0  0  0  0  0  0  0  0
   -3.0071    5.5867   -1.0343 H   0  0  0  0  0  0  0  0  0  0  0  0
   -3.3483    3.8360   -2.6955 H   0  0  0  0  0  0  0  0  0  0  0  0
    0.0231   -0.9040   -1.4809 H   0  0  0  0  0  0  0  0  0  0  0  0
   -2.2795    0.1441   -2.9666 H   0  0  0  0  0  0  0  0  0  0  0  0
   -0.9351   -0.8619   -3.5105 H   0  0  0  0  0  0  0  0  0  0  0  0
   -0.7789    0.9681   -3.3623 H   0  0  0  0  0  0  0  0  0  0  0  0
   -2.6360    0.3101   -0.5586 H   0  0  0  0  0  0  0  0  0  0  0  0
   -3.1068   -0.6164    2.1916 H   0  0  0  0  0  0  0  0  0  0  0  0
   -6.7235   -2.8509    2.4649 H   0  0  0  0  0  0  0  0  0  0  0  0
    1.1886    1.7627    0.7174 H   0  0  0  0  0  0  0  0  0  0  0  0
   -0.2957    0.8846    1.1984 H   0  0  0  0  0  0  0  0  0  0  0  0
    1.9570   -0.2118    1.4195 H   0  0  0  0  0  0  0  0  0  0  0  0
    0.6788   -1.2085    0.7176 H   0  0  0  0  0  0  0  0  0  0  0  0
  1  2  1  0
  2  3  1  0
  3  4  1  0
  4  5  2  0
  4  6  2  0
  4  7  1  0
  7  8  1  0
  8  9  1  0
  9 10  1  0
 10 11  1  0
 11 12  2  0
 12 13  1  0
 13 14  2  0
 14 15  1  0
 15 16  2  0
 10 17  1  0
 17 18  1  0
 17 19  1  0
 19 20  1  0
 20 21  2  0
 20 22  1  0
 22 23  2  0
 23 24  1  0
 24 25  1  0
 24 26  2  0
 26 27  1  0
 27 28  1  0
 27 29  2  0
 29 30  1  0
 10 31  1  0
 31 32  1  0
 32  7  1  0
 16 11  1  0
 29 22  1  0
  1 33  1  0
  1 34  1  0
  1 35  1  0
  2 36  1  0
  2 37  1  0
  3 38  1  0
  3 39  1  0
  8 40  1  0
  8 41  1  0
  9 42  1  0
  9 43  1  0
 12 44  1  0
 13 45  1  0
 14 46  1  0
 15 47  1  0
 17 48  1  6
 18 49  1  0
 18 50  1  0
 18 51  1  0
 19 52  1  0
 23 53  1  0
 26 54  1  0
 31 55  1  0
 31 56  1  0
 32 57  1  0
 32 58  1  0
M  END
$$$$
