
     RDKit          3D

 75 78  0  0  0  0  0  0  0  0999 V2000
   -7.0853   -1.8742    1.0666 C   0  0  0  0  0  0  0  0  0  0  0  0
   -6.4376   -1.1661    0.0485 O   0  0  0  0  0  0  0  0  0  0  0  0
   -6.0343    0.0858    0.4193 C   0  0  2  0  0  0  0  0  0  0  0  0
   -6.6996    1.1974   -0.3406 C   0  0  0  0  0  0  0  0  0  0  0  0
   -6.6826    2.3247    0.4796 O   0  0  0  0  0  0  0  0  0  0  0  0
   -5.6271    2.3509    1.3539 C   0  0  0  0  0  0  0  0  0  0  0  0
   -4.3354    1.7771    0.7523 C   0  0  0  0  0  0  0  0  0  0  0  0
   -4.5522    0.3292    0.4115 C   0  0  2  0  0  0  0  0  0  0  0  0
   -3.8677   -0.1374   -0.7469 N   0  0  0  0  0  0  0  0  0  0  0  0
   -4.0453   -1.5414   -0.8908 C   0  0  0  0  0  0  0  0  0  0  0  0
   -2.5384    0.3462   -0.8204 C   0  0  2  0  0  0  0  0  0  0  0  0
   -1.8014   -0.1590   -2.0756 C   0  0  0  0  0  0  0  0  0  0  0  0
   -0.4849    0.6035   -1.7804 C   0  0  0  0  0  0  0  0  0  0  0  0
   -0.2169    0.3801   -0.3325 C   0  0  1  0  0  0  0  0  0  0  0  0
    0.6489   -0.8128   -0.1431 C   0  0  0  0  0  0  0  0  0  0  0  0
    0.2686   -1.6174    0.8493 O   0  0  0  0  0  0  0  0  0  0  0  0
    1.7733   -1.2670   -0.7846 N   0  0  0  0  0  0  0  0  0  0  0  0
    2.4307   -2.5013   -0.2586 C   0  0  0  0  0  0  0  0  0  0  0  0
    3.7351   -1.9574    0.3433 C   0  0  0  0  0  0  0  0  0  0  0  0
    4.4655   -1.3675   -0.7499 N   0  0  0  0  0  0  0  0  0  0  0  0
    5.7721   -0.9038   -0.5418 C   0  0  0  0  0  0  0  0  0  0  0  0
    6.3412   -0.8576    0.7047 C   0  0  0  0  0  0  0  0  0  0  0  0
    7.6309   -0.4045    0.8845 C   0  0  0  0  0  0  0  0  0  0  0  0
    8.2434   -0.3533    2.2353 C   0  0  0  0  0  0  0  0  0  0  0  0
    7.6286   -1.2415    3.1073 F   0  0  0  0  0  0  0  0  0  0  0  0
    8.1538    0.9107    2.7886 F   0  0  0  0  0  0  0  0  0  0  0  0
    9.5872   -0.7017    2.2132 F   0  0  0  0  0  0  0  0  0  0  0  0
    8.3585    0.0078   -0.2098 C   0  0  0  0  0  0  0  0  0  0  0  0
    7.7643   -0.0458   -1.4728 C   0  0  0  0  0  0  0  0  0  0  0  0
    6.5039   -0.4953   -1.5933 N   0  0  0  0  0  0  0  0  0  0  0  0
    3.8685   -1.2410   -2.0556 C   0  0  0  0  0  0  0  0  0  0  0  0
    2.4188   -0.7428   -1.9436 C   0  0  0  0  0  0  0  0  0  0  0  0
    0.3181    1.5455    0.4290 C   0  0  0  0  0  0  0  0  0  0  0  0
    1.6242    2.0787   -0.0641 C   0  0  0  0  0  0  0  0  0  0  0  0
   -0.5902    2.7106    0.6237 C   0  0  0  0  0  0  0  0  0  0  0  0
   -1.5928   -0.0266    0.2140 C   0  0  0  0  0  0  0  0  0  0  0  0
   -7.9889   -1.3871    1.4333 H   0  0  0  0  0  0  0  0  0  0  0  0
   -7.2801   -2.9010    0.6448 H   0  0  0  0  0  0  0  0  0  0  0  0
   -6.3064   -2.0433    1.8567 H   0  0  0  0  0  0  0  0  0  0  0  0
   -6.3552    0.2068    1.4988 H   0  0  0  0  0  0  0  0  0  0  0  0
   -7.7727    0.9808   -0.5627 H   0  0  0  0  0  0  0  0  0  0  0  0
   -6.1444    1.4753   -1.2662 H   0  0  0  0  0  0  0  0  0  0  0  0
   -5.3867    3.4459    1.5135 H   0  0  0  0  0  0  0  0  0  0  0  0
   -5.8195    1.9653    2.3608 H   0  0  0  0  0  0  0  0  0  0  0  0
   -4.1451    2.4256   -0.1327 H   0  0  0  0  0  0  0  0  0  0  0  0
   -3.5848    1.9118    1.5664 H   0  0  0  0  0  0  0  0  0  0  0  0
   -4.1487   -0.2587    1.2859 H   0  0  0  0  0  0  0  0  0  0  0  0
   -3.2106   -2.1247   -1.2718 H   0  0  0  0  0  0  0  0  0  0  0  0
   -4.8965   -1.7341   -1.5985 H   0  0  0  0  0  0  0  0  0  0  0  0
   -4.2567   -1.9723    0.1333 H   0  0  0  0  0  0  0  0  0  0  0  0
   -2.5967    1.4497   -0.9898 H   0  0  0  0  0  0  0  0  0  0  0  0
   -1.5552   -1.2274   -2.0040 H   0  0  0  0  0  0  0  0  0  0  0  0
   -2.2623    0.1738   -3.0010 H   0  0  0  0  0  0  0  0  0  0  0  0
    0.2610    0.3310   -2.5003 H   0  0  0  0  0  0  0  0  0  0  0  0
   -0.7976    1.6839   -1.9662 H   0  0  0  0  0  0  0  0  0  0  0  0
    1.8079   -3.0261    0.4527 H   0  0  0  0  0  0  0  0  0  0  0  0
    2.7293   -3.1663   -1.0874 H   0  0  0  0  0  0  0  0  0  0  0  0
    4.2874   -2.7192    0.8990 H   0  0  0  0  0  0  0  0  0  0  0  0
    3.4100   -1.1126    0.9982 H   0  0  0  0  0  0  0  0  0  0  0  0
    5.8025   -1.1725    1.5986 H   0  0  0  0  0  0  0  0  0  0  0  0
    9.3849    0.3812   -0.1545 H   0  0  0  0  0  0  0  0  0  0  0  0
    8.3522    0.2840   -2.3183 H   0  0  0  0  0  0  0  0  0  0  0  0
    3.8345   -2.2440   -2.5285 H   0  0  0  0  0  0  0  0  0  0  0  0
    4.4018   -0.5278   -2.6903 H   0  0  0  0  0  0  0  0  0  0  0  0
    2.5057    0.3488   -1.9830 H   0  0  0  0  0  0  0  0  0  0  0  0
    1.9575   -1.1677   -2.8948 H   0  0  0  0  0  0  0  0  0  0  0  0
    0.5408    1.1509    1.4693 H   0  0  0  0  0  0  0  0  0  0  0  0
    1.8457    3.0466    0.4800 H   0  0  0  0  0  0  0  0  0  0  0  0
    2.4802    1.4114    0.1580 H   0  0  0  0  0  0  0  0  0  0  0  0
    1.5510    2.3702   -1.1289 H   0  0  0  0  0  0  0  0  0  0  0  0
   -1.0144    3.0786   -0.3302 H   0  0  0  0  0  0  0  0  0  0  0  0
    0.0617    3.5811    0.9516 H   0  0  0  0  0  0  0  0  0  0  0  0
   -1.3138    2.6111    1.4278 H   0  0  0  0  0  0  0  0  0  0  0  0
   -1.5636   -1.1272    0.3141 H   0  0  0  0  0  0  0  0  0  0  0  0
   -1.7583    0.3657    1.2253 H   0  0  0  0  0  0  0  0  0  0  0  0
  1  2  1  0
  2  3  1  0
  3  4  1  0
  4  5  1  0
  5  6  1  0
  6  7  1  0
  7  8  1  0
  8  9  1  0
  9 10  1  0
  9 11  1  0
 11 12  1  0
 12 13  1  0
 13 14  1  0
 14 15  1  0
 15 16  2  0
 15 17  1  0
 17 18  1  0
 18 19  1  0
 19 20  1  0
 20 21  1  0
 21 22  2  0
 22 23  1  0
 23 24  1  0
 24 25  1  0
 24 26  1  0
 24 27  1  0
 23 28  2  0
 28 29  1  0
 29 30  2  0
 20 31  1  0
 31 32  1  0
 14 33  1  1
 33 34  1  0
 33 35  1  0
 14 36  1  0
  8  3  1  0
 36 11  1  0
 32 17  1  0
 30 21  1  0
  1 37  1  0
  1 38  1  0
  1 39  1  0
  3 40  1  1
  4 41  1  0
  4 42  1  0
  6 43  1  0
  6 44  1  0
  7 45  1  0
  7 46  1  0
  8 47  1  1
 10 48  1  0
 10 49  1  0
 10 50  1  0
 11 51  1  6
 12 52  1  0
 12 53  1  0
 13 54  1  0
 13 55  1  0
 18 56  1  0
 18 57  1  0
 19 58  1  0
 19 59  1  0
 22 60  1  0
 28 61  1  0
 29 62  1  0
 31 63  1  0
 31 64  1  0
 32 65  1  0
 32 66  1  0
 33 67  1  0
 34 68  1  0
 34 69  1  0
 34 70  1  0
 35 71  1  0
 35 72  1  0
 35 73  1  0
 36 74  1  0
 36 75  1  0
M  END
$$$$
