
     RDKit          3D

 37 39  0  0  0  0  0  0  0  0999 V2000
   -1.4209   -0.7131    0.6064 C   0  0  1  0  0  0  0  0  0  0  0  0
   -1.7247   -2.1279    1.0503 C   0  0  0  0  0  0  0  0  0  0  0  0
   -0.4016   -0.6578   -0.3924 N   0  0  0  0  0  0  0  0  0  0  0  0
    0.2081    0.4180   -1.0907 C   0  0  0  0  0  0  0  0  0  0  0  0
    1.3363    0.9596   -0.4636 C   0  0  0  0  0  0  0  0  0  0  0  0
    2.3024    1.0350    0.5885 N   0  0  0  0  0  0  0  0  0  0  0  0
    3.5044    0.2767    0.5173 C   0  0  0  0  0  0  0  0  0  0  0  0
    3.7024   -0.5238   -0.5886 C   0  0  0  0  0  0  0  0  0  0  0  0
    4.9098   -1.2302   -0.5705 C   0  0  0  0  0  0  0  0  0  0  0  0
    5.8072   -1.1404    0.4387 N   0  0  0  0  0  0  0  0  0  0  0  0
    5.5984   -0.3490    1.5195 C   0  0  0  0  0  0  0  0  0  0  0  0
    4.4179    0.3636    1.5373 C   0  0  0  0  0  0  0  0  0  0  0  0
    1.4880    1.8673   -1.4866 C   0  0  0  0  0  0  0  0  0  0  0  0
    2.0340    2.8207   -2.0997 O   0  0  0  0  0  0  0  0  0  0  0  0
    0.3856    1.3358   -2.0969 C   0  0  0  0  0  0  0  0  0  0  0  0
   -0.4945    1.2370   -3.0162 O   0  0  0  0  0  0  0  0  0  0  0  0
   -2.6957   -0.0955    0.1780 C   0  0  0  0  0  0  0  0  0  0  0  0
   -2.8545    1.1434   -0.3991 C   0  0  0  0  0  0  0  0  0  0  0  0
   -4.0576    1.6863   -0.7927 C   0  0  0  0  0  0  0  0  0  0  0  0
   -5.2148    0.9604   -0.6094 C   0  0  0  0  0  0  0  0  0  0  0  0
   -5.1540   -0.2931   -0.0375 C   0  0  0  0  0  0  0  0  0  0  0  0
   -3.9141   -0.7708    0.3311 C   0  0  0  0  0  0  0  0  0  0  0  0
   -1.0983   -0.1614    1.5296 H   0  0  0  0  0  0  0  0  0  0  0  0
   -2.3017   -2.0686    1.9956 H   0  0  0  0  0  0  0  0  0  0  0  0
   -0.7659   -2.6381    1.3488 H   0  0  0  0  0  0  0  0  0  0  0  0
   -2.1896   -2.7332    0.2702 H   0  0  0  0  0  0  0  0  0  0  0  0
   -0.0141   -1.6099   -0.6823 H   0  0  0  0  0  0  0  0  0  0  0  0
    2.1063    1.6608    1.4132 H   0  0  0  0  0  0  0  0  0  0  0  0
    3.0383   -0.6366   -1.4104 H   0  0  0  0  0  0  0  0  0  0  0  0
    5.2159   -1.9056   -1.3698 H   0  0  0  0  0  0  0  0  0  0  0  0
    6.2600   -0.2287    2.3512 H   0  0  0  0  0  0  0  0  0  0  0  0
    4.1784    1.0218    2.3727 H   0  0  0  0  0  0  0  0  0  0  0  0
   -1.9822    1.7397   -0.5525 H   0  0  0  0  0  0  0  0  0  0  0  0
   -4.0989    2.6614   -1.2368 H   0  0  0  0  0  0  0  0  0  0  0  0
   -6.1565    1.3619   -0.9070 H   0  0  0  0  0  0  0  0  0  0  0  0
   -6.0403   -0.8906    0.1216 H   0  0  0  0  0  0  0  0  0  0  0  0
   -3.9133   -1.7751    0.7834 H   0  0  0  0  0  0  0  0  0  0  0  0
  1  2  1  0
  1  3  1  0
  3  4  1  0
  4  5  2  0
  5  6  1  0
  6  7  1  0
  7  8  2  0
  8  9  1  0
  9 10  2  0
 10 11  1  0
 11 12  2  0
  5 13  1  0
 13 14  2  0
 13 15  1  0
 15 16  2  0
  1 17  1  0
 17 18  2  0
 18 19  1  0
 19 20  2  0
 20 21  1  0
 21 22  2  0
 15  4  1  0
 22 17  1  0
 12  7  1  0
  1 23  1  1
  2 24  1  0
  2 25  1  0
  2 26  1  0
  3 27  1  0
  6 28  1  0
  8 29  1  0
  9 30  1  0
 11 31  1  0
 12 32  1  0
 18 33  1  0
 19 34  1  0
 20 35  1  0
 21 36  1  0
 22 37  1  0
M  END
$$$$
