
     RDKit          3D

 49 52  0  0  0  0  0  0  0  0999 V2000
    3.8298   -2.4257    2.0481 C   0  0  0  0  0  0  0  0  0  0  0  0
    4.4927   -1.5584    1.1633 O   0  0  0  0  0  0  0  0  0  0  0  0
    3.7758   -0.7645    0.2629 C   0  0  0  0  0  0  0  0  0  0  0  0
    2.4401   -0.7724    0.1802 N   0  0  0  0  0  0  0  0  0  0  0  0
    1.7474   -0.0030   -0.6922 C   0  0  0  0  0  0  0  0  0  0  0  0
    0.3296   -0.0379   -0.7517 N   0  0  0  0  0  0  0  0  0  0  0  0
   -0.4632    0.7552   -1.6596 C   0  0  0  0  0  0  0  0  0  0  0  0
   -1.8926    0.6711   -1.1798 C   0  0  1  0  0  0  0  0  0  0  0  0
   -2.5734   -0.3368   -2.0304 C   0  0  0  0  0  0  0  0  0  0  0  0
   -2.3917   -0.3211   -3.2748 O   0  0  0  0  0  0  0  0  0  0  0  0
   -3.4372   -1.3416   -1.5170 N   0  0  0  0  0  0  0  0  0  0  0  0
   -4.1119   -2.2715   -2.3983 C   0  0  0  0  0  0  0  0  0  0  0  0
   -3.6363   -1.4282   -0.1134 C   0  0  0  0  0  0  0  0  0  0  0  0
   -4.4211   -2.3344    0.4103 N   0  0  0  0  0  0  0  0  0  0  0  0
   -2.9480   -0.4896    0.7037 N   0  0  0  0  0  0  0  0  0  0  0  0
   -1.7335    0.1373    0.2265 C   0  0  2  0  0  0  0  0  0  0  0  0
   -1.3406    1.1617    1.1944 C   0  0  0  0  0  0  0  0  0  0  0  0
   -1.2032    2.5036    0.9227 C   0  0  0  0  0  0  0  0  0  0  0  0
   -0.8239    3.4195    1.8887 C   0  0  0  0  0  0  0  0  0  0  0  0
   -0.5678    2.9987    3.1803 C   0  0  0  0  0  0  0  0  0  0  0  0
   -0.1968    3.9281    4.1046 F   0  0  0  0  0  0  0  0  0  0  0  0
   -0.6967    1.6579    3.4856 C   0  0  0  0  0  0  0  0  0  0  0  0
   -1.0809    0.7597    2.4890 C   0  0  0  0  0  0  0  0  0  0  0  0
   -1.1808   -0.5317    2.8913 F   0  0  0  0  0  0  0  0  0  0  0  0
   -0.5929   -0.8320    0.0407 C   0  0  0  0  0  0  0  0  0  0  0  0
    2.4517    0.7971   -1.5022 N   0  0  0  0  0  0  0  0  0  0  0  0
    3.7825    0.8774   -1.4973 C   0  0  0  0  0  0  0  0  0  0  0  0
    4.5416    1.7729   -2.4057 C   0  0  0  0  0  0  0  0  0  0  0  0
    4.4616    0.0822   -0.5982 C   0  0  0  0  0  0  0  0  0  0  0  0
    5.8148    0.1200   -0.5462 F   0  0  0  0  0  0  0  0  0  0  0  0
    4.3676   -3.3930    2.1453 H   0  0  0  0  0  0  0  0  0  0  0  0
    2.8106   -2.6707    1.6457 H   0  0  0  0  0  0  0  0  0  0  0  0
    3.7614   -1.9910    3.0634 H   0  0  0  0  0  0  0  0  0  0  0  0
   -0.0931    1.7818   -1.7696 H   0  0  0  0  0  0  0  0  0  0  0  0
   -0.3406    0.2823   -2.6783 H   0  0  0  0  0  0  0  0  0  0  0  0
   -2.4571    1.5984   -1.2520 H   0  0  0  0  0  0  0  0  0  0  0  0
   -3.4112   -2.7214   -3.1393 H   0  0  0  0  0  0  0  0  0  0  0  0
   -4.9528   -1.7362   -2.8674 H   0  0  0  0  0  0  0  0  0  0  0  0
   -4.5278   -3.1028   -1.8001 H   0  0  0  0  0  0  0  0  0  0  0  0
   -4.5223   -2.3420    1.4471 H   0  0  0  0  0  0  0  0  0  0  0  0
   -3.3699   -0.2883    1.6510 H   0  0  0  0  0  0  0  0  0  0  0  0
   -1.3936    2.8514   -0.0609 H   0  0  0  0  0  0  0  0  0  0  0  0
   -0.7151    4.4842    1.6723 H   0  0  0  0  0  0  0  0  0  0  0  0
   -0.4954    1.3238    4.5032 H   0  0  0  0  0  0  0  0  0  0  0  0
   -0.9598   -1.6401   -0.6325 H   0  0  0  0  0  0  0  0  0  0  0  0
   -0.1407   -1.1824    0.9649 H   0  0  0  0  0  0  0  0  0  0  0  0
    5.4244    2.2251   -1.9091 H   0  0  0  0  0  0  0  0  0  0  0  0
    3.8450    2.6164   -2.6558 H   0  0  0  0  0  0  0  0  0  0  0  0
    4.7954    1.2642   -3.3534 H   0  0  0  0  0  0  0  0  0  0  0  0
  1  2  1  0
  2  3  1  0
  3  4  2  0
  4  5  1  0
  5  6  1  0
  6  7  1  0
  7  8  1  0
  8  9  1  0
  9 10  2  0
  9 11  1  0
 11 12  1  0
 11 13  1  0
 13 14  2  3
 13 15  1  0
 15 16  1  0
 16 17  1  1
 17 18  2  0
 18 19  1  0
 19 20  2  0
 20 21  1  0
 20 22  1  0
 22 23  2  0
 23 24  1  0
 16 25  1  0
  5 26  2  0
 26 27  1  0
 27 28  1  0
 27 29  2  0
 29 30  1  0
 29  3  1  0
 25  6  1  0
 16  8  1  0
 23 17  1  0
  1 31  1  0
  1 32  1  0
  1 33  1  0
  7 34  1  0
  7 35  1  0
  8 36  1  1
 12 37  1  0
 12 38  1  0
 12 39  1  0
 14 40  1  0
 15 41  1  0
 18 42  1  0
 19 43  1  0
 22 44  1  0
 25 45  1  0
 25 46  1  0
 28 47  1  0
 28 48  1  0
 28 49  1  0
M  END
$$$$
