
     RDKit          3D

 70 75  0  0  0  0  0  0  0  0999 V2000
   -2.0789    7.6268    1.3787 C   0  0  0  0  0  0  0  0  0  0  0  0
   -1.4588    6.3664    1.5220 O   0  0  0  0  0  0  0  0  0  0  0  0
   -1.4714    5.4891    0.4628 C   0  0  0  0  0  0  0  0  0  0  0  0
   -0.8753    4.2303    0.5461 C   0  0  0  0  0  0  0  0  0  0  0  0
   -0.8857    3.3487   -0.5121 C   0  0  0  0  0  0  0  0  0  0  0  0
   -0.2821    2.0848   -0.4217 N   0  0  0  0  0  0  0  0  0  0  0  0
    1.0986    1.8250   -0.7657 C   0  0  0  0  0  0  0  0  0  0  0  0
    1.7909    2.5282   -1.5368 O   0  0  0  0  0  0  0  0  0  0  0  0
    1.4572    0.6400   -0.0527 N   0  0  0  0  0  0  0  0  0  0  0  0
    2.7248   -0.0297   -0.0621 C   0  0  0  0  0  0  0  0  0  0  0  0
    3.7792    0.4861   -0.7833 C   0  0  0  0  0  0  0  0  0  0  0  0
    5.0238   -0.1630   -0.8132 C   0  0  0  0  0  0  0  0  0  0  0  0
    5.2180   -1.3284   -0.1229 C   0  0  0  0  0  0  0  0  0  0  0  0
    6.4685   -2.0376   -0.1230 C   0  0  0  0  0  0  0  0  0  0  0  0
    6.8910   -3.1628    0.4614 C   0  0  0  0  0  0  0  0  0  0  0  0
    8.1436   -3.6024    0.2806 C   0  0  0  0  0  0  0  0  0  0  0  0
    8.9659   -2.8543   -0.5230 C   0  0  0  0  0  0  0  0  0  0  0  0
   10.3694   -3.0610   -0.9145 C   0  0  0  0  0  0  0  0  0  0  0  0
   10.9564   -2.2471   -1.6723 O   0  0  0  0  0  0  0  0  0  0  0  0
   10.9951   -4.1736   -0.4164 O   0  0  0  0  0  0  0  0  0  0  0  0
    7.9472   -1.5205   -1.0208 S   0  0  0  0  0  0  0  0  0  0  0  0
    4.1588   -1.8225    0.5863 C   0  0  0  0  0  0  0  0  0  0  0  0
    2.9232   -1.1979    0.6287 C   0  0  0  0  0  0  0  0  0  0  0  0
    0.3233    0.1947    0.7057 C   0  0  0  0  0  0  0  0  0  0  0  0
    0.2423   -0.5401    1.7131 O   0  0  0  0  0  0  0  0  0  0  0  0
   -0.8589    0.8307    0.0072 C   0  0  0  0  0  0  0  0  0  0  0  0
   -1.9986    0.9593    0.9581 C   0  0  0  0  0  0  0  0  0  0  0  0
   -2.8131   -0.3230    0.8555 C   0  0  0  0  0  0  0  0  0  0  0  0
   -3.5900   -0.3738   -0.3460 N   0  0  0  0  0  0  0  0  0  0  0  0
   -3.8514   -1.7405   -0.7689 C   0  0  0  0  0  0  0  0  0  0  0  0
   -4.5898   -2.5296    0.2356 C   0  0  0  0  0  0  0  0  0  0  0  0
   -3.9748   -3.4665    1.0086 N   0  0  0  0  0  0  0  0  0  0  0  0
   -4.6325   -4.1947    1.9264 C   0  0  0  0  0  0  0  0  0  0  0  0
   -5.9689   -4.0171    2.1204 C   0  0  0  0  0  0  0  0  0  0  0  0
   -6.6503   -3.0841    1.3699 C   0  0  0  0  0  0  0  0  0  0  0  0
   -5.9428   -2.3518    0.4340 C   0  0  0  0  0  0  0  0  0  0  0  0
   -6.6857   -1.3464   -0.3711 C   0  0  0  0  0  0  0  0  0  0  0  0
   -2.7844    0.2261   -1.4011 C   0  0  0  0  0  0  0  0  0  0  0  0
   -1.3045   -0.0130   -1.1624 C   0  0  0  0  0  0  0  0  0  0  0  0
   -1.5042    3.7666   -1.6373 N   0  0  0  0  0  0  0  0  0  0  0  0
   -2.0818    4.9780   -1.7277 C   0  0  0  0  0  0  0  0  0  0  0  0
   -2.0570    5.8200   -0.6780 N   0  0  0  0  0  0  0  0  0  0  0  0
   -2.8238    7.7242    2.1902 H   0  0  0  0  0  0  0  0  0  0  0  0
   -1.3423    8.4558    1.4298 H   0  0  0  0  0  0  0  0  0  0  0  0
   -2.5884    7.7397    0.3941 H   0  0  0  0  0  0  0  0  0  0  0  0
   -0.3984    3.9692    1.4856 H   0  0  0  0  0  0  0  0  0  0  0  0
    3.6937    1.4099   -1.3539 H   0  0  0  0  0  0  0  0  0  0  0  0
    5.8282    0.2784   -1.3948 H   0  0  0  0  0  0  0  0  0  0  0  0
    6.1776   -3.7448    1.1149 H   0  0  0  0  0  0  0  0  0  0  0  0
    8.5780   -4.5344    0.7326 H   0  0  0  0  0  0  0  0  0  0  0  0
   12.0197   -4.2191   -0.5213 H   0  0  0  0  0  0  0  0  0  0  0  0
    4.2765   -2.7502    1.1500 H   0  0  0  0  0  0  0  0  0  0  0  0
    2.1224   -1.6231    1.1941 H   0  0  0  0  0  0  0  0  0  0  0  0
   -1.6809    1.0713    2.0075 H   0  0  0  0  0  0  0  0  0  0  0  0
   -2.6617    1.8196    0.7318 H   0  0  0  0  0  0  0  0  0  0  0  0
   -3.4755   -0.4002    1.7544 H   0  0  0  0  0  0  0  0  0  0  0  0
   -2.1469   -1.1940    0.8817 H   0  0  0  0  0  0  0  0  0  0  0  0
   -4.2985   -1.7879   -1.7711 H   0  0  0  0  0  0  0  0  0  0  0  0
   -2.8357   -2.2227   -0.8780 H   0  0  0  0  0  0  0  0  0  0  0  0
   -4.1020   -4.9349    2.5247 H   0  0  0  0  0  0  0  0  0  0  0  0
   -6.4845   -4.6177    2.8697 H   0  0  0  0  0  0  0  0  0  0  0  0
   -7.7183   -2.9321    1.5151 H   0  0  0  0  0  0  0  0  0  0  0  0
   -6.8202   -0.4118    0.2143 H   0  0  0  0  0  0  0  0  0  0  0  0
   -6.1645   -1.1063   -1.3023 H   0  0  0  0  0  0  0  0  0  0  0  0
   -7.6677   -1.8001   -0.6317 H   0  0  0  0  0  0  0  0  0  0  0  0
   -3.0776   -0.2208   -2.3517 H   0  0  0  0  0  0  0  0  0  0  0  0
   -3.0326    1.3032   -1.4146 H   0  0  0  0  0  0  0  0  0  0  0  0
   -1.1584   -1.0706   -0.9408 H   0  0  0  0  0  0  0  0  0  0  0  0
   -0.7699    0.2455   -2.1031 H   0  0  0  0  0  0  0  0  0  0  0  0
   -2.5844    5.3348   -2.6217 H   0  0  0  0  0  0  0  0  0  0  0  0
  1  2  1  0
  2  3  1  0
  3  4  2  0
  4  5  1  0
  5  6  1  0
  6  7  1  0
  7  8  2  0
  7  9  1  0
  9 10  1  0
 10 11  2  0
 11 12  1  0
 12 13  2  0
 13 14  1  0
 14 15  2  0
 15 16  1  0
 16 17  2  0
 17 18  1  0
 18 19  2  0
 18 20  1  0
 17 21  1  0
 13 22  1  0
 22 23  2  0
  9 24  1  0
 24 25  2  0
 24 26  1  0
 26 27  1  0
 27 28  1  0
 28 29  1  0
 29 30  1  0
 30 31  1  0
 31 32  2  0
 32 33  1  0
 33 34  2  0
 34 35  1  0
 35 36  2  0
 36 37  1  0
 29 38  1  0
 38 39  1  0
  5 40  2  0
 40 41  1  0
 41 42  2  0
 42  3  1  0
 26  6  1  0
 36 31  1  0
 23 10  1  0
 39 26  1  0
 21 14  1  0
  1 43  1  0
  1 44  1  0
  1 45  1  0
  4 46  1  0
 11 47  1  0
 12 48  1  0
 15 49  1  0
 16 50  1  0
 20 51  1  0
 22 52  1  0
 23 53  1  0
 27 54  1  0
 27 55  1  0
 28 56  1  0
 28 57  1  0
 30 58  1  0
 30 59  1  0
 33 60  1  0
 34 61  1  0
 35 62  1  0
 37 63  1  0
 37 64  1  0
 37 65  1  0
 38 66  1  0
 38 67  1  0
 39 68  1  0
 39 69  1  0
 41 70  1  0
M  END
$$$$
