
     RDKit          3D

 47 49  0  0  0  0  0  0  0  0999 V2000
   -2.8826   -0.4504   -0.3242 C   0  0  2  0  0  0  0  0  0  0  0  0
   -3.1922   -0.9688   -1.6710 C   0  0  0  0  0  0  0  0  0  0  0  0
   -2.7788   -0.0871   -2.7449 N   0  0  0  0  0  0  0  0  0  0  0  0
   -3.4987    0.8210    0.1199 C   0  0  0  0  0  0  0  0  0  0  0  0
   -4.9676    0.8202    0.2061 C   0  0  0  0  0  0  0  0  0  0  0  0
   -6.0068    1.0214   -0.6676 C   0  0  0  0  0  0  0  0  0  0  0  0
   -5.5803    1.4853   -2.2695 Cl  0  0  0  0  0  0  0  0  0  0  0  0
   -7.3288    0.9077   -0.3281 C   0  0  0  0  0  0  0  0  0  0  0  0
   -7.7366    0.5740    0.9548 C   0  0  0  0  0  0  0  0  0  0  0  0
   -9.4404    0.4538    1.2994 Cl  0  0  0  0  0  0  0  0  0  0  0  0
   -6.7377    0.3527    1.9070 C   0  0  0  0  0  0  0  0  0  0  0  0
   -5.4272    0.4846    1.4915 C   0  0  0  0  0  0  0  0  0  0  0  0
   -1.4368   -0.4674   -0.1454 N   0  0  0  0  0  0  0  0  0  0  0  0
   -0.7637   -1.2259    0.8453 C   0  0  0  0  0  0  0  0  0  0  0  0
   -1.2847   -1.9746    1.6927 O   0  0  0  0  0  0  0  0  0  0  0  0
    0.6557   -1.1228    0.8791 C   0  0  0  0  0  0  0  0  0  0  0  0
    1.6142   -1.7384    1.7527 C   0  0  0  0  0  0  0  0  0  0  0  0
    2.9262   -1.4213    1.5236 C   0  0  0  0  0  0  0  0  0  0  0  0
    3.2506   -0.5708    0.5181 C   0  0  0  0  0  0  0  0  0  0  0  0
    1.7037   -0.1289   -0.2136 S   0  0  0  0  0  0  0  0  0  0  0  0
    4.4931   -0.0644    0.0336 C   0  0  0  0  0  0  0  0  0  0  0  0
    4.4941    0.7975   -1.0731 C   0  0  0  0  0  0  0  0  0  0  0  0
    5.7232    1.2505   -1.4988 C   0  0  0  0  0  0  0  0  0  0  0  0
    6.8449    0.8648   -0.8611 N   0  0  0  0  0  0  0  0  0  0  0  0
    6.8399    0.0373    0.2015 C   0  0  0  0  0  0  0  0  0  0  0  0
    8.1582   -0.1941    0.6604 N   0  0  0  0  0  0  0  0  0  0  0  0
    8.8715    0.7270    1.5405 C   0  0  0  0  0  0  0  0  0  0  0  0
    5.6474   -0.4076    0.6217 N   0  0  0  0  0  0  0  0  0  0  0  0
   -3.2439   -1.2289    0.4216 H   0  0  0  0  0  0  0  0  0  0  0  0
   -4.2765   -1.1703   -1.8179 H   0  0  0  0  0  0  0  0  0  0  0  0
   -2.6674   -1.9254   -1.8369 H   0  0  0  0  0  0  0  0  0  0  0  0
   -3.0078   -0.5649   -3.6411 H   0  0  0  0  0  0  0  0  0  0  0  0
   -1.7482    0.0791   -2.7447 H   0  0  0  0  0  0  0  0  0  0  0  0
   -3.2313    1.5864   -0.6902 H   0  0  0  0  0  0  0  0  0  0  0  0
   -3.0987    1.1923    1.0913 H   0  0  0  0  0  0  0  0  0  0  0  0
   -8.0655    1.0854   -1.0808 H   0  0  0  0  0  0  0  0  0  0  0  0
   -7.0498    0.0932    2.9036 H   0  0  0  0  0  0  0  0  0  0  0  0
   -4.7505    0.2826    2.3332 H   0  0  0  0  0  0  0  0  0  0  0  0
   -0.9064    0.1394   -0.8231 H   0  0  0  0  0  0  0  0  0  0  0  0
    1.2332   -2.3984    2.5187 H   0  0  0  0  0  0  0  0  0  0  0  0
    3.7084   -1.8425    2.1361 H   0  0  0  0  0  0  0  0  0  0  0  0
    3.5851    1.0992   -1.5757 H   0  0  0  0  0  0  0  0  0  0  0  0
    5.7097    1.9123   -2.3506 H   0  0  0  0  0  0  0  0  0  0  0  0
    8.5746   -1.0697    0.3197 H   0  0  0  0  0  0  0  0  0  0  0  0
    9.5891    1.2945    0.9005 H   0  0  0  0  0  0  0  0  0  0  0  0
    9.3596    0.2195    2.3706 H   0  0  0  0  0  0  0  0  0  0  0  0
    8.1261    1.4410    1.9384 H   0  0  0  0  0  0  0  0  0  0  0  0
  1  2  1  0
  2  3  1  0
  1  4  1  0
  4  5  1  0
  5  6  2  0
  6  7  1  0
  6  8  1  0
  8  9  2  0
  9 10  1  0
  9 11  1  0
 11 12  2  0
  1 13  1  0
 13 14  1  0
 14 15  2  0
 14 16  1  0
 16 17  2  0
 17 18  1  0
 18 19  2  0
 19 20  1  0
 19 21  1  0
 21 22  2  0
 22 23  1  0
 23 24  2  0
 24 25  1  0
 25 26  1  0
 26 27  1  0
 25 28  2  0
 12  5  1  0
 20 16  1  0
 28 21  1  0
  1 29  1  1
  2 30  1  0
  2 31  1  0
  3 32  1  0
  3 33  1  0
  4 34  1  0
  4 35  1  0
  8 36  1  0
 11 37  1  0
 12 38  1  0
 13 39  1  0
 17 40  1  0
 18 41  1  0
 22 42  1  0
 23 43  1  0
 26 44  1  0
 27 45  1  0
 27 46  1  0
 27 47  1  0
M  END
$$$$
