
     RDKit          3D

 50 52  0  0  0  0  0  0  0  0999 V2000
   -5.7672   -2.3594   -1.3068 O   0  0  0  0  0  0  0  0  0  0  0  0
   -4.6402   -1.9252   -0.9773 C   0  0  0  0  0  0  0  0  0  0  0  0
   -3.6715   -2.8440   -0.5087 N   0  0  0  0  0  0  0  0  0  0  0  0
   -3.9888   -4.1622   -0.4293 O   0  0  0  0  0  0  0  0  0  0  0  0
   -4.3677   -0.4770   -1.0905 C   0  0  1  0  0  0  0  0  0  0  0  0
   -5.4401    0.3767   -0.5065 C   0  0  0  0  0  0  0  0  0  0  0  0
   -5.1192    0.9442    0.8469 C   0  0  1  0  0  0  0  0  0  0  0  0
   -6.2144    1.1994    1.6324 O   0  0  0  0  0  0  0  0  0  0  0  0
   -4.1718   -0.0627    1.5132 C   0  0  0  0  0  0  0  0  0  0  0  0
   -2.8751    0.0584    0.7436 C   0  0  0  0  0  0  0  0  0  0  0  0
   -3.0379   -0.2124   -0.6465 N   0  0  0  0  0  0  0  0  0  0  0  0
   -2.1359    0.7986   -1.6775 S   0  0  0  0  0  6  0  0  0  0  0  0
   -2.5013    2.2462   -1.5627 O   0  0  0  0  0  0  0  0  0  0  0  0
   -2.4181    0.3862   -3.1011 O   0  0  0  0  0  0  0  0  0  0  0  0
   -0.4235    0.5677   -1.3283 C   0  0  0  0  0  0  0  0  0  0  0  0
    0.3535   -0.3535   -2.0005 C   0  0  0  0  0  0  0  0  0  0  0  0
    1.6917   -0.5374   -1.7264 C   0  0  0  0  0  0  0  0  0  0  0  0
    2.3181    0.2080   -0.7489 C   0  0  0  0  0  0  0  0  0  0  0  0
    3.6686    0.0451   -0.4485 O   0  0  0  0  0  0  0  0  0  0  0  0
    4.2202    0.8552    0.5711 C   0  0  0  0  0  0  0  0  0  0  0  0
    5.6407    0.4985    0.6978 C   0  0  0  0  0  0  0  0  0  0  0  0
    6.0606   -0.2783    1.7414 C   0  0  0  0  0  0  0  0  0  0  0  0
    7.4053   -0.6360    1.8875 C   0  0  0  0  0  0  0  0  0  0  0  0
    8.2834   -0.1696    0.9327 C   0  0  0  0  0  0  0  0  0  0  0  0
    7.8899    0.6207   -0.1389 C   0  0  0  0  0  0  0  0  0  0  0  0
    6.5443    0.9406   -0.2280 C   0  0  0  0  0  0  0  0  0  0  0  0
    6.0177    1.9399   -1.5750 Cl  0  0  0  0  0  0  0  0  0  0  0  0
    1.5415    1.1355   -0.0700 C   0  0  0  0  0  0  0  0  0  0  0  0
    0.2038    1.3180   -0.3455 C   0  0  0  0  0  0  0  0  0  0  0  0
   -2.7165   -2.5386   -0.2220 H   0  0  0  0  0  0  0  0  0  0  0  0
   -3.8238   -4.4598    0.5177 H   0  0  0  0  0  0  0  0  0  0  0  0
   -4.3732   -0.2665   -2.2031 H   0  0  0  0  0  0  0  0  0  0  0  0
   -6.4179   -0.1889   -0.4571 H   0  0  0  0  0  0  0  0  0  0  0  0
   -5.6776    1.2489   -1.1674 H   0  0  0  0  0  0  0  0  0  0  0  0
   -4.5004    1.8758    0.6971 H   0  0  0  0  0  0  0  0  0  0  0  0
   -6.7691    1.8710    1.1859 H   0  0  0  0  0  0  0  0  0  0  0  0
   -4.0338    0.1996    2.5729 H   0  0  0  0  0  0  0  0  0  0  0  0
   -4.6155   -1.0663    1.4686 H   0  0  0  0  0  0  0  0  0  0  0  0
   -2.4788    1.0719    0.9565 H   0  0  0  0  0  0  0  0  0  0  0  0
   -2.1668   -0.6772    1.1723 H   0  0  0  0  0  0  0  0  0  0  0  0
   -0.1685   -0.9331   -2.7727 H   0  0  0  0  0  0  0  0  0  0  0  0
    2.2695   -1.2687   -2.2743 H   0  0  0  0  0  0  0  0  0  0  0  0
    4.0701    1.9110    0.2422 H   0  0  0  0  0  0  0  0  0  0  0  0
    3.6727    0.6976    1.5443 H   0  0  0  0  0  0  0  0  0  0  0  0
    5.3803   -0.6563    2.5059 H   0  0  0  0  0  0  0  0  0  0  0  0
    7.6951   -1.2510    2.7252 H   0  0  0  0  0  0  0  0  0  0  0  0
    9.3448   -0.4317    1.0170 H   0  0  0  0  0  0  0  0  0  0  0  0
    8.6020    0.9598   -0.8540 H   0  0  0  0  0  0  0  0  0  0  0  0
    2.0193    1.7272    0.6995 H   0  0  0  0  0  0  0  0  0  0  0  0
   -0.3785    2.0539    0.2052 H   0  0  0  0  0  0  0  0  0  0  0  0
  1  2  2  0
  2  3  1  0
  3  4  1  0
  2  5  1  0
  5  6  1  0
  6  7  1  0
  7  8  1  0
  7  9  1  0
  9 10  1  0
 10 11  1  0
 11 12  1  0
 12 13  2  0
 12 14  2  0
 12 15  1  0
 15 16  2  0
 16 17  1  0
 17 18  2  0
 18 19  1  0
 19 20  1  0
 20 21  1  0
 21 22  2  0
 22 23  1  0
 23 24  2  0
 24 25  1  0
 25 26  2  0
 26 27  1  0
 18 28  1  0
 28 29  2  0
 11  5  1  0
 29 15  1  0
 26 21  1  0
  3 30  1  0
  4 31  1  0
  5 32  1  6
  6 33  1  0
  6 34  1  0
  7 35  1  6
  8 36  1  0
  9 37  1  0
  9 38  1  0
 10 39  1  0
 10 40  1  0
 16 41  1  0
 17 42  1  0
 20 43  1  0
 20 44  1  0
 22 45  1  0
 23 46  1  0
 24 47  1  0
 25 48  1  0
 28 49  1  0
 29 50  1  0
M  END
$$$$
