
     RDKit          3D

 88 90  0  0  0  0  0  0  0  0999 V2000
   -3.1065   -3.7617   -3.5899 C   0  0  0  0  0  0  0  0  0  0  0  0
   -3.7614   -2.8686   -2.7043 O   0  0  0  0  0  0  0  0  0  0  0  0
   -3.1625   -1.6926   -2.2848 C   0  0  0  0  0  0  0  0  0  0  0  0
   -2.0302   -1.3928   -2.6802 O   0  0  0  0  0  0  0  0  0  0  0  0
   -3.8344   -0.7766   -1.3740 N   0  0  0  0  0  0  0  0  0  0  0  0
   -3.1829    0.4423   -0.9629 C   0  0  2  0  0  0  0  0  0  0  0  0
   -2.3391    0.1937    0.2625 C   0  0  0  0  0  0  0  0  0  0  0  0
   -2.3055   -0.9553    0.7191 O   0  0  0  0  0  0  0  0  0  0  0  0
   -1.6249    1.2374    0.8463 N   0  0  0  0  0  0  0  0  0  0  0  0
   -0.7293    1.2220    1.9620 C   0  0  0  0  0  0  0  0  0  0  0  0
    0.5865    0.6034    1.6591 C   0  0  0  0  0  0  0  0  0  0  0  0
    0.5488   -0.7876    1.2089 C   0  0  0  0  0  0  0  0  0  0  0  0
    1.9364   -1.3594    0.9071 C   0  0  0  0  0  0  0  0  0  0  0  0
    2.8714   -1.3619    2.0877 C   0  0  0  0  0  0  0  0  0  0  0  0
    2.2315   -2.2239    3.1537 C   0  0  0  0  0  0  0  0  0  0  0  0
    2.9325   -2.2829    4.3268 O   0  0  0  0  0  0  0  0  0  0  0  0
    4.1417   -1.7170    1.6428 N   0  0  0  0  0  0  0  0  0  0  0  0
    4.5638   -3.0114    1.4104 C   0  0  0  0  0  0  0  0  0  0  0  0
    4.4768   -3.5522   -0.0012 C   0  0  0  0  0  0  0  0  0  0  0  0
    5.0319   -4.9884   -0.0302 C   0  0  0  0  0  0  0  0  0  0  0  0
    5.2744   -2.7375   -0.9442 C   0  0  0  0  0  0  0  0  0  0  0  0
    5.3958   -0.6148    1.9034 S   0  0  0  0  0  6  0  0  0  0  0  0
    5.7181   -0.3957    3.3524 O   0  0  0  0  0  0  0  0  0  0  0  0
    6.6834   -1.1842    1.3063 O   0  0  0  0  0  0  0  0  0  0  0  0
    5.1122    0.9163    1.0858 C   0  0  0  0  0  0  0  0  0  0  0  0
    4.3835    1.9269    1.6771 C   0  0  0  0  0  0  0  0  0  0  0  0
    4.1662    3.1481    1.0329 C   0  0  0  0  0  0  0  0  0  0  0  0
    4.6774    3.3764   -0.2177 C   0  0  0  0  0  0  0  0  0  0  0  0
    4.4790    4.6186   -0.9208 N   0  0  0  0  0  0  0  0  0  0  0  0
    5.4035    2.3770   -0.8136 C   0  0  0  0  0  0  0  0  0  0  0  0
    5.6193    1.1655   -0.1740 C   0  0  0  0  0  0  0  0  0  0  0  0
   -4.0382    1.6398   -0.8407 C   0  0  0  0  0  0  0  0  0  0  0  0
   -4.6985    1.8642   -2.1500 C   0  0  0  0  0  0  0  0  0  0  0  0
   -4.0910    2.6420   -3.1019 C   0  0  0  0  0  0  0  0  0  0  0  0
   -4.6874    2.8791   -4.3379 C   0  0  0  0  0  0  0  0  0  0  0  0
   -5.9113    2.3410   -4.6509 C   0  0  0  0  0  0  0  0  0  0  0  0
   -6.5303    1.5579   -3.7009 C   0  0  0  0  0  0  0  0  0  0  0  0
   -5.9331    1.3263   -2.4759 C   0  0  0  0  0  0  0  0  0  0  0  0
   -4.8646    1.8087    0.3341 C   0  0  0  0  0  0  0  0  0  0  0  0
   -5.2327    0.7688    1.1464 C   0  0  0  0  0  0  0  0  0  0  0  0
   -6.0340    1.0017    2.2706 C   0  0  0  0  0  0  0  0  0  0  0  0
   -6.4581    2.2717    2.5706 C   0  0  0  0  0  0  0  0  0  0  0  0
   -6.0858    3.3158    1.7507 C   0  0  0  0  0  0  0  0  0  0  0  0
   -5.3004    3.0817    0.6499 C   0  0  0  0  0  0  0  0  0  0  0  0
   -3.6795   -4.7021   -3.6364 H   0  0  0  0  0  0  0  0  0  0  0  0
   -2.0494   -3.9235   -3.3031 H   0  0  0  0  0  0  0  0  0  0  0  0
   -3.1114   -3.3187   -4.6026 H   0  0  0  0  0  0  0  0  0  0  0  0
   -4.7766   -1.1029   -1.1061 H   0  0  0  0  0  0  0  0  0  0  0  0
   -2.3964    0.6510   -1.7437 H   0  0  0  0  0  0  0  0  0  0  0  0
   -1.7436    2.2123    0.4012 H   0  0  0  0  0  0  0  0  0  0  0  0
   -0.5511    2.2746    2.3474 H   0  0  0  0  0  0  0  0  0  0  0  0
   -1.2244    0.6762    2.8403 H   0  0  0  0  0  0  0  0  0  0  0  0
    1.2784    0.7696    2.5421 H   0  0  0  0  0  0  0  0  0  0  0  0
    1.1052    1.2681    0.8713 H   0  0  0  0  0  0  0  0  0  0  0  0
    0.0940   -0.7856    0.1664 H   0  0  0  0  0  0  0  0  0  0  0  0
   -0.0044   -1.5000    1.8098 H   0  0  0  0  0  0  0  0  0  0  0  0
    1.7098   -2.4429    0.6672 H   0  0  0  0  0  0  0  0  0  0  0  0
    2.3376   -0.9264   -0.0053 H   0  0  0  0  0  0  0  0  0  0  0  0
    2.9406   -0.3449    2.5586 H   0  0  0  0  0  0  0  0  0  0  0  0
    1.9089   -3.2169    2.7705 H   0  0  0  0  0  0  0  0  0  0  0  0
    1.2591   -1.6907    3.3936 H   0  0  0  0  0  0  0  0  0  0  0  0
    3.7223   -2.8316    4.2420 H   0  0  0  0  0  0  0  0  0  0  0  0
    5.6818   -3.0837    1.6375 H   0  0  0  0  0  0  0  0  0  0  0  0
    4.1571   -3.7841    2.1351 H   0  0  0  0  0  0  0  0  0  0  0  0
    3.4155   -3.6939   -0.3279 H   0  0  0  0  0  0  0  0  0  0  0  0
    4.2464   -5.7453    0.0575 H   0  0  0  0  0  0  0  0  0  0  0  0
    5.6678   -5.0834    0.8957 H   0  0  0  0  0  0  0  0  0  0  0  0
    5.6022   -5.1635   -0.9500 H   0  0  0  0  0  0  0  0  0  0  0  0
    6.3394   -2.9291   -0.8103 H   0  0  0  0  0  0  0  0  0  0  0  0
    5.0678   -1.6624   -0.7822 H   0  0  0  0  0  0  0  0  0  0  0  0
    5.0343   -2.9504   -2.0173 H   0  0  0  0  0  0  0  0  0  0  0  0
    3.9790    1.7687    2.6655 H   0  0  0  0  0  0  0  0  0  0  0  0
    3.5967    3.9365    1.4927 H   0  0  0  0  0  0  0  0  0  0  0  0
    4.7915    5.5366   -0.5479 H   0  0  0  0  0  0  0  0  0  0  0  0
    4.0044    4.5996   -1.8433 H   0  0  0  0  0  0  0  0  0  0  0  0
    5.8078    2.5608   -1.8053 H   0  0  0  0  0  0  0  0  0  0  0  0
    6.2038    0.3850   -0.6517 H   0  0  0  0  0  0  0  0  0  0  0  0
   -3.2785    2.5175   -0.7742 H   0  0  0  0  0  0  0  0  0  0  0  0
   -3.1111    3.0888   -2.8913 H   0  0  0  0  0  0  0  0  0  0  0  0
   -4.1782    3.4959   -5.0670 H   0  0  0  0  0  0  0  0  0  0  0  0
   -6.3481    2.5434   -5.6204 H   0  0  0  0  0  0  0  0  0  0  0  0
   -7.5007    1.1401   -3.9605 H   0  0  0  0  0  0  0  0  0  0  0  0
   -6.4556    0.7169   -1.7810 H   0  0  0  0  0  0  0  0  0  0  0  0
   -4.9507   -0.2489    1.0113 H   0  0  0  0  0  0  0  0  0  0  0  0
   -6.3379    0.1746    2.9260 H   0  0  0  0  0  0  0  0  0  0  0  0
   -7.0871    2.4691    3.4524 H   0  0  0  0  0  0  0  0  0  0  0  0
   -6.4150    4.3298    1.9818 H   0  0  0  0  0  0  0  0  0  0  0  0
   -5.0439    3.9540    0.0511 H   0  0  0  0  0  0  0  0  0  0  0  0
  1  2  1  0
  2  3  1  0
  3  4  2  0
  3  5  1  0
  5  6  1  0
  6  7  1  0
  7  8  2  0
  7  9  1  0
  9 10  1  0
 10 11  1  0
 11 12  1  0
 12 13  1  0
 13 14  1  0
 14 15  1  0
 15 16  1  0
 14 17  1  0
 17 18  1  0
 18 19  1  0
 19 20  1  0
 19 21  1  0
 17 22  1  0
 22 23  2  0
 22 24  2  0
 22 25  1  0
 25 26  2  0
 26 27  1  0
 27 28  2  0
 28 29  1  0
 28 30  1  0
 30 31  2  0
  6 32  1  0
 32 33  1  0
 33 34  2  0
 34 35  1  0
 35 36  2  0
 36 37  1  0
 37 38  2  0
 32 39  1  0
 39 40  2  0
 40 41  1  0
 41 42  2  0
 42 43  1  0
 43 44  2  0
 31 25  1  0
 38 33  1  0
 44 39  1  0
  1 45  1  0
  1 46  1  0
  1 47  1  0
  5 48  1  0
  6 49  1  6
  9 50  1  0
 10 51  1  0
 10 52  1  0
 11 53  1  0
 11 54  1  0
 12 55  1  0
 12 56  1  0
 13 57  1  0
 13 58  1  0
 14 59  1  0
 15 60  1  0
 15 61  1  0
 16 62  1  0
 18 63  1  0
 18 64  1  0
 19 65  1  0
 20 66  1  0
 20 67  1  0
 20 68  1  0
 21 69  1  0
 21 70  1  0
 21 71  1  0
 26 72  1  0
 27 73  1  0
 29 74  1  0
 29 75  1  0
 30 76  1  0
 31 77  1  0
 32 78  1  0
 34 79  1  0
 35 80  1  0
 36 81  1  0
 37 82  1  0
 38 83  1  0
 40 84  1  0
 41 85  1  0
 42 86  1  0
 43 87  1  0
 44 88  1  0
M  END
$$$$
