
     RDKit          3D

 70 74  0  0  0  0  0  0  0  0999 V2000
   -0.4910    3.5057   -0.5642 C   0  0  0  0  0  0  0  0  0  0  0  0
   -0.2421    2.2204   -1.3188 C   0  0  1  0  0  0  0  0  0  0  0  0
    1.0899    1.6499   -1.0141 C   0  0  0  0  0  0  0  0  0  0  0  0
    1.9987    2.3331   -0.2446 C   0  0  0  0  0  0  0  0  0  0  0  0
    3.2253    1.7823    0.0195 C   0  0  0  0  0  0  0  0  0  0  0  0
    3.6197    0.5262   -0.4629 C   0  0  0  0  0  0  0  0  0  0  0  0
    4.9209   -0.0106   -0.1583 C   0  0  0  0  0  0  0  0  0  0  0  0
    5.1303   -1.3586   -0.0418 C   0  0  0  0  0  0  0  0  0  0  0  0
    6.4222   -1.8275    0.2594 C   0  0  0  0  0  0  0  0  0  0  0  0
    7.4485   -0.9767    0.4334 N   0  0  0  0  0  0  0  0  0  0  0  0
    8.7920   -1.4613    0.7460 C   0  0  0  0  0  0  0  0  0  0  0  0
    9.1765   -1.4904    2.2416 C   0  0  0  0  0  0  0  0  0  0  0  0
    8.9303   -2.7381    1.4762 C   0  0  0  0  0  0  0  0  0  0  0  0
    7.2614    0.3391    0.3230 C   0  0  0  0  0  0  0  0  0  0  0  0
    8.2363    1.1067    0.4907 O   0  0  0  0  0  0  0  0  0  0  0  0
    5.9853    0.8341    0.0239 C   0  0  0  0  0  0  0  0  0  0  0  0
    2.6653   -0.1194   -1.2335 C   0  0  0  0  0  0  0  0  0  0  0  0
    1.4293    0.4104   -1.5130 C   0  0  0  0  0  0  0  0  0  0  0  0
   -1.2657    1.2482   -1.1240 N   0  0  0  0  0  0  0  0  0  0  0  0
   -2.1305    0.7777   -2.1832 C   0  0  0  0  0  0  0  0  0  0  0  0
   -3.5381    0.8586   -1.6399 C   0  0  0  0  0  0  0  0  0  0  0  0
   -3.7206   -0.0179   -0.3848 C   0  0  2  0  0  0  0  0  0  0  0  0
   -4.2336   -1.3247   -0.8948 C   0  0  0  0  0  0  0  0  0  0  0  0
   -4.4523   -2.3868    0.0954 C   0  0  0  0  0  0  0  0  0  0  0  0
   -4.9455   -3.6665   -0.6103 C   0  0  0  0  0  0  0  0  0  0  0  0
   -5.4058   -2.0185    1.1807 C   0  0  0  0  0  0  0  0  0  0  0  0
   -3.2405   -2.7673    0.7169 O   0  0  0  0  0  0  0  0  0  0  0  0
   -4.6438    0.7769    0.4511 C   0  0  0  0  0  0  0  0  0  0  0  0
   -4.2631    1.2286    1.6959 C   0  0  0  0  0  0  0  0  0  0  0  0
   -5.0861    2.0051    2.5009 C   0  0  0  0  0  0  0  0  0  0  0  0
   -6.3433    2.3464    2.0461 C   0  0  0  0  0  0  0  0  0  0  0  0
   -6.7571    1.9132    0.8083 C   0  0  0  0  0  0  0  0  0  0  0  0
   -5.9042    1.1347    0.0257 C   0  0  0  0  0  0  0  0  0  0  0  0
   -6.3931    0.7616   -1.1723 F   0  0  0  0  0  0  0  0  0  0  0  0
   -2.5289   -0.2083    0.3252 O   0  0  0  0  0  0  0  0  0  0  0  0
   -1.4877    0.6893    0.1604 C   0  0  0  0  0  0  0  0  0  0  0  0
   -0.7137    1.0483    1.0845 O   0  0  0  0  0  0  0  0  0  0  0  0
    0.2150    4.2591   -0.9892 H   0  0  0  0  0  0  0  0  0  0  0  0
   -0.2756    3.4334    0.5109 H   0  0  0  0  0  0  0  0  0  0  0  0
   -1.5036    3.8482   -0.8000 H   0  0  0  0  0  0  0  0  0  0  0  0
   -0.2535    2.5113   -2.4079 H   0  0  0  0  0  0  0  0  0  0  0  0
    1.7329    3.2984    0.1433 H   0  0  0  0  0  0  0  0  0  0  0  0
    3.9563    2.3042    0.6242 H   0  0  0  0  0  0  0  0  0  0  0  0
    4.3264   -2.0943   -0.1744 H   0  0  0  0  0  0  0  0  0  0  0  0
    6.5632   -2.8861    0.3449 H   0  0  0  0  0  0  0  0  0  0  0  0
    9.6109   -1.1223    0.0496 H   0  0  0  0  0  0  0  0  0  0  0  0
    8.4050   -1.1214    2.9406 H   0  0  0  0  0  0  0  0  0  0  0  0
   10.2050   -1.1488    2.4669 H   0  0  0  0  0  0  0  0  0  0  0  0
    8.0182   -3.3021    1.7071 H   0  0  0  0  0  0  0  0  0  0  0  0
    9.8473   -3.3613    1.2682 H   0  0  0  0  0  0  0  0  0  0  0  0
    5.8489    1.9027   -0.0625 H   0  0  0  0  0  0  0  0  0  0  0  0
    2.9331   -1.0923   -1.6239 H   0  0  0  0  0  0  0  0  0  0  0  0
    0.6924   -0.1301   -2.1306 H   0  0  0  0  0  0  0  0  0  0  0  0
   -1.9010   -0.3032   -2.3478 H   0  0  0  0  0  0  0  0  0  0  0  0
   -2.0995    1.3818   -3.0910 H   0  0  0  0  0  0  0  0  0  0  0  0
   -4.2233    0.5314   -2.4427 H   0  0  0  0  0  0  0  0  0  0  0  0
   -3.7497    1.9247   -1.4331 H   0  0  0  0  0  0  0  0  0  0  0  0
   -5.2094   -1.1532   -1.4330 H   0  0  0  0  0  0  0  0  0  0  0  0
   -3.5258   -1.7385   -1.6783 H   0  0  0  0  0  0  0  0  0  0  0  0
   -4.9822   -4.4443    0.1792 H   0  0  0  0  0  0  0  0  0  0  0  0
   -4.1211   -3.9525   -1.2991 H   0  0  0  0  0  0  0  0  0  0  0  0
   -5.8974   -3.5087   -1.1142 H   0  0  0  0  0  0  0  0  0  0  0  0
   -6.3189   -1.5025    0.8316 H   0  0  0  0  0  0  0  0  0  0  0  0
   -4.9767   -1.4343    2.0131 H   0  0  0  0  0  0  0  0  0  0  0  0
   -5.8157   -2.9740    1.6701 H   0  0  0  0  0  0  0  0  0  0  0  0
   -3.2703   -3.7186    0.9902 H   0  0  0  0  0  0  0  0  0  0  0  0
   -3.2821    0.9603    2.0500 H   0  0  0  0  0  0  0  0  0  0  0  0
   -4.7615    2.3523    3.4860 H   0  0  0  0  0  0  0  0  0  0  0  0
   -6.9818    2.9626    2.6982 H   0  0  0  0  0  0  0  0  0  0  0  0
   -7.7505    2.1944    0.4714 H   0  0  0  0  0  0  0  0  0  0  0  0
  1  2  1  0
  2  3  1  0
  3  4  2  0
  4  5  1  0
  5  6  2  0
  6  7  1  0
  7  8  1  0
  8  9  2  0
  9 10  1  0
 10 11  1  0
 11 12  1  0
 12 13  1  0
 10 14  1  0
 14 15  2  0
 14 16  1  0
  6 17  1  0
 17 18  2  0
  2 19  1  0
 19 20  1  0
 20 21  1  0
 21 22  1  0
 22 23  1  6
 23 24  1  0
 24 25  1  0
 24 26  1  0
 24 27  1  0
 22 28  1  0
 28 29  2  0
 29 30  1  0
 30 31  2  0
 31 32  1  0
 32 33  2  0
 33 34  1  0
 22 35  1  0
 35 36  1  0
 36 37  2  0
 18  3  1  0
 36 19  1  0
 16  7  2  0
 33 28  1  0
 13 11  1  0
  1 38  1  0
  1 39  1  0
  1 40  1  0
  2 41  1  6
  4 42  1  0
  5 43  1  0
  8 44  1  0
  9 45  1  0
 11 46  1  0
 12 47  1  0
 12 48  1  0
 13 49  1  0
 13 50  1  0
 16 51  1  0
 17 52  1  0
 18 53  1  0
 20 54  1  0
 20 55  1  0
 21 56  1  0
 21 57  1  0
 23 58  1  0
 23 59  1  0
 25 60  1  0
 25 61  1  0
 25 62  1  0
 26 63  1  0
 26 64  1  0
 26 65  1  0
 27 66  1  0
 29 67  1  0
 30 68  1  0
 31 69  1  0
 32 70  1  0
M  END
$$$$
