
     RDKit          3D

 81 83  0  0  0  0  0  0  0  0999 V2000
    5.1819   -0.4199    0.5598 C   0  0  0  0  0  0  0  0  0  0  0  0
    3.8673   -0.9255    0.1946 C   0  0  0  0  0  0  0  0  0  0  0  0
    2.9474   -0.9088    1.1651 C   0  0  0  0  0  0  0  0  0  0  0  0
    3.3201   -0.3833    2.5338 C   0  0  0  0  0  0  0  0  0  0  0  0
    2.1330   -0.5320    3.4330 C   0  0  0  0  0  0  0  0  0  0  0  0
    0.8778    0.1416    2.9042 C   0  0  0  0  0  0  0  0  0  0  0  0
    0.5916   -0.2062    1.4619 C   0  0  1  0  0  0  0  0  0  0  0  0
    0.8693    0.9594    0.5367 C   0  0  0  0  0  0  0  0  0  0  0  0
    1.5307   -1.3456    1.1224 C   0  0  1  0  0  0  0  0  0  0  0  0
    1.0588   -1.7320   -0.2311 C   0  0  0  0  0  0  0  0  0  0  0  0
   -0.4455   -1.6733   -0.0587 C   0  0  0  0  0  0  0  0  0  0  0  0
   -0.7163   -0.8515    1.2024 C   0  0  2  0  0  0  0  0  0  0  0  0
   -1.9015    0.0251    1.0496 C   0  0  1  0  0  0  0  0  0  0  0  0
   -2.0748    0.8316    2.3462 C   0  0  0  0  0  0  0  0  0  0  0  0
   -1.9055    0.8166   -0.0512 O   0  0  0  0  0  0  0  0  0  0  0  0
   -2.9643    0.6928   -0.9151 C   0  0  0  0  0  0  0  0  0  0  0  0
   -4.2947    1.0301   -0.2633 C   0  0  0  0  0  0  0  0  0  0  0  0
   -5.4622    0.8892   -1.2168 C   0  0  0  0  0  0  0  0  0  0  0  0
   -6.7455    1.2385   -0.5207 C   0  0  0  0  0  0  0  0  0  0  0  0
   -6.5786    2.5893   -0.1028 O   0  0  0  0  0  0  0  0  0  0  0  0
   -7.0263    0.4686    0.7214 C   0  0  0  0  0  0  0  0  0  0  0  0
   -7.1302   -1.0078    0.5761 C   0  0  0  0  0  0  0  0  0  0  0  0
   -7.9301    1.2391   -1.4214 C   0  0  0  0  0  0  0  0  0  0  0  0
   -8.2386   -0.0481   -2.1039 C   0  0  0  0  0  0  0  0  0  0  0  0
    6.2222   -0.3481   -0.2302 C   0  0  0  0  0  0  0  0  0  0  0  0
    7.5589    0.1817    0.1879 C   0  0  0  0  0  0  0  0  0  0  0  0
    8.3095    0.7344   -1.0088 C   0  0  1  0  0  0  0  0  0  0  0  0
    9.2285   -0.2267   -1.4248 O   0  0  0  0  0  0  0  0  0  0  0  0
    7.3740    1.1124   -2.1280 C   0  0  0  0  0  0  0  0  0  0  0  0
    6.7219   -0.1157   -2.7766 C   0  0  2  0  0  0  0  0  0  0  0  0
    5.8210    0.2957   -3.7256 O   0  0  0  0  0  0  0  0  0  0  0  0
    6.0619   -0.8282   -1.6210 C   0  0  0  0  0  0  0  0  0  0  0  0
    5.2976   -1.9266   -1.7175 C   0  0  0  0  0  0  0  0  0  0  0  0
    5.3942   -0.0549    1.5514 H   0  0  0  0  0  0  0  0  0  0  0  0
    3.3196   -1.3348   -0.6344 H   0  0  0  0  0  0  0  0  0  0  0  0
    3.6380    0.6672    2.4652 H   0  0  0  0  0  0  0  0  0  0  0  0
    4.1275   -1.0093    2.9739 H   0  0  0  0  0  0  0  0  0  0  0  0
    2.3588   -0.0114    4.3913 H   0  0  0  0  0  0  0  0  0  0  0  0
    1.8946   -1.5735    3.6536 H   0  0  0  0  0  0  0  0  0  0  0  0
    0.0834   -0.1191    3.5977 H   0  0  0  0  0  0  0  0  0  0  0  0
    1.0621    1.2306    2.9605 H   0  0  0  0  0  0  0  0  0  0  0  0
    1.9746    1.0236    0.3237 H   0  0  0  0  0  0  0  0  0  0  0  0
    0.3999    0.8061   -0.4439 H   0  0  0  0  0  0  0  0  0  0  0  0
    0.5732    1.9339    0.9265 H   0  0  0  0  0  0  0  0  0  0  0  0
    1.2971   -2.1815    1.8101 H   0  0  0  0  0  0  0  0  0  0  0  0
    1.3647   -0.9391   -0.9700 H   0  0  0  0  0  0  0  0  0  0  0  0
    1.4188   -2.7306   -0.5403 H   0  0  0  0  0  0  0  0  0  0  0  0
   -0.7811   -2.7086    0.1110 H   0  0  0  0  0  0  0  0  0  0  0  0
   -0.9120   -1.2317   -0.9631 H   0  0  0  0  0  0  0  0  0  0  0  0
   -0.8742   -1.5964    2.0428 H   0  0  0  0  0  0  0  0  0  0  0  0
   -2.8083   -0.6515    0.9565 H   0  0  0  0  0  0  0  0  0  0  0  0
   -1.2544    1.5149    2.5447 H   0  0  0  0  0  0  0  0  0  0  0  0
   -2.2233    0.1841    3.2279 H   0  0  0  0  0  0  0  0  0  0  0  0
   -3.0609    1.3986    2.2870 H   0  0  0  0  0  0  0  0  0  0  0  0
   -3.0616   -0.3692   -1.2124 H   0  0  0  0  0  0  0  0  0  0  0  0
   -2.8125    1.2703   -1.8467 H   0  0  0  0  0  0  0  0  0  0  0  0
   -4.5156    0.3996    0.5950 H   0  0  0  0  0  0  0  0  0  0  0  0
   -4.2351    2.1166   -0.0164 H   0  0  0  0  0  0  0  0  0  0  0  0
   -5.3336    1.5072   -2.1091 H   0  0  0  0  0  0  0  0  0  0  0  0
   -5.5360   -0.1941   -1.5022 H   0  0  0  0  0  0  0  0  0  0  0  0
   -6.5795    3.1638   -0.9041 H   0  0  0  0  0  0  0  0  0  0  0  0
   -6.3557    0.7282    1.5668 H   0  0  0  0  0  0  0  0  0  0  0  0
   -8.0427    0.8178    1.0775 H   0  0  0  0  0  0  0  0  0  0  0  0
   -8.1742   -1.3870    0.6341 H   0  0  0  0  0  0  0  0  0  0  0  0
   -6.6628   -1.4491   -0.3091 H   0  0  0  0  0  0  0  0  0  0  0  0
   -6.5855   -1.4808    1.4476 H   0  0  0  0  0  0  0  0  0  0  0  0
   -7.8155    2.0308   -2.2204 H   0  0  0  0  0  0  0  0  0  0  0  0
   -8.8444    1.5797   -0.8655 H   0  0  0  0  0  0  0  0  0  0  0  0
   -8.9079   -0.7277   -1.5408 H   0  0  0  0  0  0  0  0  0  0  0  0
   -7.3207   -0.5524   -2.4243 H   0  0  0  0  0  0  0  0  0  0  0  0
   -8.8272    0.2026   -3.0316 H   0  0  0  0  0  0  0  0  0  0  0  0
    8.1206   -0.6149    0.6963 H   0  0  0  0  0  0  0  0  0  0  0  0
    7.4318    1.0085    0.9067 H   0  0  0  0  0  0  0  0  0  0  0  0
    8.8773    1.6492   -0.7547 H   0  0  0  0  0  0  0  0  0  0  0  0
    8.8612   -1.1165   -1.2007 H   0  0  0  0  0  0  0  0  0  0  0  0
    6.5286    1.6712   -1.6420 H   0  0  0  0  0  0  0  0  0  0  0  0
    7.8921    1.7058   -2.8804 H   0  0  0  0  0  0  0  0  0  0  0  0
    7.5695   -0.7158   -3.1687 H   0  0  0  0  0  0  0  0  0  0  0  0
    5.6912    1.2569   -3.6598 H   0  0  0  0  0  0  0  0  0  0  0  0
    4.8951   -2.6229   -2.4197 H   0  0  0  0  0  0  0  0  0  0  0  0
    5.1919   -2.2611   -2.7380 H   0  0  0  0  0  0  0  0  0  0  0  0
  1  2  1  0
  2  3  2  0
  3  4  1  0
  4  5  1  0
  5  6  1  0
  6  7  1  0
  7  8  1  6
  7  9  1  0
  9 10  1  0
 10 11  1  0
 11 12  1  0
 12 13  1  0
 13 14  1  0
 13 15  1  0
 15 16  1  0
 16 17  1  0
 17 18  1  0
 18 19  1  0
 19 20  1  0
 19 21  1  0
 21 22  1  0
 19 23  1  0
 23 24  1  0
  1 25  2  0
 25 26  1  0
 26 27  1  0
 27 28  1  0
 27 29  1  0
 29 30  1  0
 30 31  1  0
 30 32  1  0
 32 33  2  0
  9  3  1  0
 32 25  1  0
 12  7  1  0
  1 34  1  0
  2 35  1  0
  4 36  1  0
  4 37  1  0
  5 38  1  0
  5 39  1  0
  6 40  1  0
  6 41  1  0
  8 42  1  0
  8 43  1  0
  8 44  1  0
  9 45  1  1
 10 46  1  0
 10 47  1  0
 11 48  1  0
 11 49  1  0
 12 50  1  1
 13 51  1  6
 14 52  1  0
 14 53  1  0
 14 54  1  0
 16 55  1  0
 16 56  1  0
 17 57  1  0
 17 58  1  0
 18 59  1  0
 18 60  1  0
 20 61  1  0
 21 62  1  0
 21 63  1  0
 22 64  1  0
 22 65  1  0
 22 66  1  0
 23 67  1  0
 23 68  1  0
 24 69  1  0
 24 70  1  0
 24 71  1  0
 26 72  1  0
 26 73  1  0
 27 74  1  1
 28 75  1  0
 29 76  1  0
 29 77  1  0
 30 78  1  6
 31 79  1  0
 33 80  1  0
 33 81  1  0
M  END
$$$$
