
     RDKit          3D

 35 35  0  0  0  0  0  0  0  0999 V2000
    3.0797   -1.2177   -2.0734 C   0  0  0  0  0  0  0  0  0  0  0  0
    1.9873   -0.2879   -1.4647 C   0  0  0  0  0  0  0  0  0  0  0  0
    1.8344   -0.5872   -0.0070 C   0  0  0  0  0  0  0  0  0  0  0  0
    0.8059    0.2611    0.6706 C   0  0  0  0  0  0  0  0  0  0  0  0
    0.8174   -0.1904    2.1237 C   0  0  0  0  0  0  0  0  0  0  0  0
   -0.5488    0.3287    0.0799 C   0  0  0  0  0  0  0  0  0  0  0  0
   -1.5468    1.1773    0.8668 C   0  0  0  0  0  0  0  0  0  0  0  0
   -1.8536    0.7849    2.2178 C   0  0  0  0  0  0  0  0  0  0  0  0
   -1.9977    0.7950    3.5631 C   0  0  0  0  0  0  0  0  0  0  0  0
   -1.1604   -0.9922   -0.1805 C   0  0  0  0  0  0  0  0  0  0  0  0
   -0.9792   -1.9557    0.6162 O   0  0  0  0  0  0  0  0  0  0  0  0
   -1.9816   -1.3400   -1.2878 N   0  0  0  0  0  0  0  0  0  0  0  0
   -2.0659   -0.4126   -2.3592 C   0  0  0  0  0  0  0  0  0  0  0  0
   -2.7812   -0.6771   -3.3623 O   0  0  0  0  0  0  0  0  0  0  0  0
   -1.3751    0.8035   -2.3456 N   0  0  0  0  0  0  0  0  0  0  0  0
   -0.5457    1.1411   -1.2120 C   0  0  0  0  0  0  0  0  0  0  0  0
    0.1757    2.1619   -1.3820 O   0  0  0  0  0  0  0  0  0  0  0  0
    3.9574   -1.1886   -1.4354 H   0  0  0  0  0  0  0  0  0  0  0  0
    2.5841   -2.2070   -2.1049 H   0  0  0  0  0  0  0  0  0  0  0  0
    3.2331   -0.8527   -3.0943 H   0  0  0  0  0  0  0  0  0  0  0  0
    2.4153    0.7236   -1.6480 H   0  0  0  0  0  0  0  0  0  0  0  0
    1.0740   -0.4096   -2.0523 H   0  0  0  0  0  0  0  0  0  0  0  0
    2.8631   -0.4199    0.4493 H   0  0  0  0  0  0  0  0  0  0  0  0
    1.6851   -1.6753    0.1894 H   0  0  0  0  0  0  0  0  0  0  0  0
    1.1699    1.3428    0.7083 H   0  0  0  0  0  0  0  0  0  0  0  0
    0.0212   -0.8704    2.4003 H   0  0  0  0  0  0  0  0  0  0  0  0
    1.8398   -0.5786    2.4016 H   0  0  0  0  0  0  0  0  0  0  0  0
    0.7289    0.7178    2.7475 H   0  0  0  0  0  0  0  0  0  0  0  0
   -1.2430    2.2427    0.7752 H   0  0  0  0  0  0  0  0  0  0  0  0
   -2.4978    1.1204    0.2634 H   0  0  0  0  0  0  0  0  0  0  0  0
   -2.2769   -0.2330    2.2873 H   0  0  0  0  0  0  0  0  0  0  0  0
   -1.8269    1.4437    4.3861 H   0  0  0  0  0  0  0  0  0  0  0  0
   -1.6130    1.8072    3.7786 H   0  0  0  0  0  0  0  0  0  0  0  0
   -2.5178   -2.2157   -1.3658 H   0  0  0  0  0  0  0  0  0  0  0  0
   -1.4610    1.4596   -3.1500 H   0  0  0  0  0  0  0  0  0  0  0  0
  1  2  1  0
  2  3  1  0
  3  4  1  0
  4  5  1  0
  4  6  1  0
  6  7  1  0
  7  8  1  0
  8  9  2  0
  6 10  1  0
 10 11  2  0
 10 12  1  0
 12 13  1  0
 13 14  2  0
 13 15  1  0
 15 16  1  0
 16 17  2  0
 16  6  1  0
  1 18  1  0
  1 19  1  0
  1 20  1  0
  2 21  1  0
  2 22  1  0
  3 23  1  0
  3 24  1  0
  4 25  1  0
  5 26  1  0
  5 27  1  0
  5 28  1  0
  7 29  1  0
  7 30  1  0
  8 31  1  0
  9 32  1  0
  9 33  1  0
 12 34  1  0
 15 35  1  0
M  END
$$$$
