
     RDKit          3D

 65 68  0  0  0  0  0  0  0  0999 V2000
    8.3140    1.2949    1.3484 C   0  0  0  0  0  0  0  0  0  0  0  0
    8.1241   -0.0715    0.7434 C   0  0  2  0  0  0  0  0  0  0  0  0
    9.4855   -0.6942    0.5580 C   0  0  0  0  0  0  0  0  0  0  0  0
    9.4051   -1.9701   -0.0011 O   0  0  0  0  0  0  0  0  0  0  0  0
    7.3466   -0.0542   -0.5179 C   0  0  0  0  0  0  0  0  0  0  0  0
    7.9292   -0.4884   -1.5612 O   0  0  0  0  0  0  0  0  0  0  0  0
    6.0081    0.4259   -0.5616 N   0  0  0  0  0  0  0  0  0  0  0  0
    5.3062    0.4182   -1.8118 C   0  0  0  0  0  0  0  0  0  0  0  0
    3.9864   -0.3319   -1.7171 C   0  0  0  0  0  0  0  0  0  0  0  0
    3.4800   -0.3253   -0.2761 C   0  0  0  0  0  0  0  0  0  0  0  0
    2.0159   -0.5423   -0.2500 C   0  0  0  0  0  0  0  0  0  0  0  0
    1.0299    0.2045   -0.7494 N   0  0  0  0  0  0  0  0  0  0  0  0
   -0.1726   -0.3634   -0.5027 C   0  0  0  0  0  0  0  0  0  0  0  0
   -1.4667    0.1752   -0.9028 C   0  0  0  0  0  0  0  0  0  0  0  0
   -1.6186    1.0290   -1.9756 C   0  0  0  0  0  0  0  0  0  0  0  0
   -2.8277    1.5174   -2.3306 N   0  0  0  0  0  0  0  0  0  0  0  0
   -3.9481    1.1893   -1.6467 C   0  0  0  0  0  0  0  0  0  0  0  0
   -5.2245    1.7080   -2.0255 N   0  0  0  0  0  0  0  0  0  0  0  0
   -3.7967    0.3361   -0.5745 C   0  0  0  0  0  0  0  0  0  0  0  0
   -4.9912   -0.0413    0.1899 C   0  0  0  0  0  0  0  0  0  0  0  0
   -5.0453   -0.8624    1.2677 N   0  0  0  0  0  0  0  0  0  0  0  0
   -6.3095   -0.9363    1.6543 N   0  0  0  0  0  0  0  0  0  0  0  0
   -7.0550   -0.1693    0.8305 C   0  0  0  0  0  0  0  0  0  0  0  0
   -8.5349    0.0635    0.8687 C   0  0  0  0  0  0  0  0  0  0  0  0
   -9.1598   -0.6938    1.9941 C   0  0  0  0  0  0  0  0  0  0  0  0
   -9.0971   -0.3205   -0.4901 C   0  0  0  0  0  0  0  0  0  0  0  0
   -8.7307    1.5591    1.1039 C   0  0  0  0  0  0  0  0  0  0  0  0
   -6.2209    0.3387   -0.0204 O   0  0  0  0  0  0  0  0  0  0  0  0
   -2.5902   -0.1460   -0.2271 N   0  0  0  0  0  0  0  0  0  0  0  0
    0.1080   -1.4864    0.1664 N   0  0  0  0  0  0  0  0  0  0  0  0
   -0.8741   -2.4267    0.6438 C   0  0  0  0  0  0  0  0  0  0  0  0
    1.4060   -1.6043    0.3231 N   0  0  0  0  0  0  0  0  0  0  0  0
    3.8825    0.9599    0.4127 C   0  0  0  0  0  0  0  0  0  0  0  0
    5.3735    0.9116    0.6460 C   0  0  0  0  0  0  0  0  0  0  0  0
    9.3785    1.4365    1.6989 H   0  0  0  0  0  0  0  0  0  0  0  0
    7.7036    1.3739    2.2710 H   0  0  0  0  0  0  0  0  0  0  0  0
    8.1365    2.1212    0.6380 H   0  0  0  0  0  0  0  0  0  0  0  0
    7.5544   -0.7520    1.4381 H   0  0  0  0  0  0  0  0  0  0  0  0
    9.9281   -0.8237    1.5761 H   0  0  0  0  0  0  0  0  0  0  0  0
   10.1527   -0.0362   -0.0420 H   0  0  0  0  0  0  0  0  0  0  0  0
    8.4708   -2.3009   -0.0361 H   0  0  0  0  0  0  0  0  0  0  0  0
    5.9064   -0.1134   -2.5713 H   0  0  0  0  0  0  0  0  0  0  0  0
    5.0973    1.4261   -2.2065 H   0  0  0  0  0  0  0  0  0  0  0  0
    3.2292    0.1724   -2.3506 H   0  0  0  0  0  0  0  0  0  0  0  0
    4.0890   -1.3687   -2.0984 H   0  0  0  0  0  0  0  0  0  0  0  0
    4.0045   -1.1529    0.2418 H   0  0  0  0  0  0  0  0  0  0  0  0
   -0.7218    1.2890   -2.5194 H   0  0  0  0  0  0  0  0  0  0  0  0
   -6.0573    1.1328   -2.2436 H   0  0  0  0  0  0  0  0  0  0  0  0
   -5.3164    2.7432   -2.0844 H   0  0  0  0  0  0  0  0  0  0  0  0
   -8.5007   -0.7611    2.8659 H   0  0  0  0  0  0  0  0  0  0  0  0
   -9.5467   -1.7061    1.6831 H   0  0  0  0  0  0  0  0  0  0  0  0
  -10.0820   -0.1376    2.3268 H   0  0  0  0  0  0  0  0  0  0  0  0
   -9.0910   -1.4170   -0.5612 H   0  0  0  0  0  0  0  0  0  0  0  0
   -8.4129    0.1030   -1.2429 H   0  0  0  0  0  0  0  0  0  0  0  0
  -10.1258    0.0861   -0.5994 H   0  0  0  0  0  0  0  0  0  0  0  0
   -8.2875    1.7796    2.0973 H   0  0  0  0  0  0  0  0  0  0  0  0
   -8.0638    2.0774    0.3624 H   0  0  0  0  0  0  0  0  0  0  0  0
   -9.7772    1.8613    1.0055 H   0  0  0  0  0  0  0  0  0  0  0  0
   -0.4234   -3.3058    1.1305 H   0  0  0  0  0  0  0  0  0  0  0  0
   -1.4743   -2.8278   -0.2244 H   0  0  0  0  0  0  0  0  0  0  0  0
   -1.6376   -1.9188    1.2956 H   0  0  0  0  0  0  0  0  0  0  0  0
    3.6743    1.8420   -0.2255 H   0  0  0  0  0  0  0  0  0  0  0  0
    3.3393    0.9988    1.3778 H   0  0  0  0  0  0  0  0  0  0  0  0
    5.5446    0.1290    1.4309 H   0  0  0  0  0  0  0  0  0  0  0  0
    5.7716    1.9049    0.9572 H   0  0  0  0  0  0  0  0  0  0  0  0
  1  2  1  0
  2  3  1  0
  3  4  1  0
  2  5  1  0
  5  6  2  0
  5  7  1  0
  7  8  1  0
  8  9  1  0
  9 10  1  0
 10 11  1  0
 11 12  1  0
 12 13  2  0
 13 14  1  0
 14 15  2  0
 15 16  1  0
 16 17  2  0
 17 18  1  0
 17 19  1  0
 19 20  1  0
 20 21  2  0
 21 22  1  0
 22 23  2  0
 23 24  1  0
 24 25  1  0
 24 26  1  0
 24 27  1  0
 23 28  1  0
 19 29  2  0
 13 30  1  0
 30 31  1  0
 30 32  1  0
 10 33  1  0
 33 34  1  0
 34  7  1  0
 32 11  2  0
 29 14  1  0
 28 20  1  0
  1 35  1  0
  1 36  1  0
  1 37  1  0
  2 38  1  1
  3 39  1  0
  3 40  1  0
  4 41  1  0
  8 42  1  0
  8 43  1  0
  9 44  1  0
  9 45  1  0
 10 46  1  0
 15 47  1  0
 18 48  1  0
 18 49  1  0
 25 50  1  0
 25 51  1  0
 25 52  1  0
 26 53  1  0
 26 54  1  0
 26 55  1  0
 27 56  1  0
 27 57  1  0
 27 58  1  0
 31 59  1  0
 31 60  1  0
 31 61  1  0
 33 62  1  0
 33 63  1  0
 34 64  1  0
 34 65  1  0
M  END
$$$$
