
     RDKit          3D

 58 61  0  0  0  0  0  0  0  0999 V2000
   -7.1596   -1.7089   -0.4829 C   0  0  0  0  0  0  0  0  0  0  0  0
   -6.0066   -2.2808    0.1376 N   0  0  0  0  0  0  0  0  0  0  0  0
   -5.0985   -2.9314   -0.7442 C   0  0  0  0  0  0  0  0  0  0  0  0
   -3.9474   -2.0955   -1.2003 C   0  0  0  0  0  0  0  0  0  0  0  0
   -3.3758   -1.2088   -0.1332 C   0  0  0  0  0  0  0  0  0  0  0  0
   -1.9211   -1.2386   -0.1152 N   0  0  0  0  0  0  0  0  0  0  0  0
   -1.2153    0.0070   -0.2048 C   0  0  0  0  0  0  0  0  0  0  0  0
   -1.9317    1.0359   -0.2917 O   0  0  0  0  0  0  0  0  0  0  0  0
    0.2288    0.0146   -0.1907 C   0  0  0  0  0  0  0  0  0  0  0  0
    0.9284   -1.1754   -0.1155 C   0  0  0  0  0  0  0  0  0  0  0  0
    2.2635   -1.1309   -0.1106 N   0  0  0  0  0  0  0  0  0  0  0  0
    3.0143   -0.0250   -0.1726 C   0  0  0  0  0  0  0  0  0  0  0  0
    4.4279   -0.0150   -0.1644 N   0  0  0  0  0  0  0  0  0  0  0  0
    5.2598   -1.1374   -0.0621 C   0  0  0  0  0  0  0  0  0  0  0  0
    6.6440   -0.9449   -0.1797 C   0  0  0  0  0  0  0  0  0  0  0  0
    7.5050   -2.0069   -0.0810 C   0  0  0  0  0  0  0  0  0  0  0  0
    9.2281   -1.6572   -0.2436 Cl  0  0  0  0  0  0  0  0  0  0  0  0
    7.0810   -3.3004    0.1345 C   0  0  0  0  0  0  0  0  0  0  0  0
    5.7344   -3.5119    0.2524 C   0  0  0  0  0  0  0  0  0  0  0  0
    5.1429   -5.1258    0.5255 Cl  0  0  0  0  0  0  0  0  0  0  0  0
    4.8620   -2.4264    0.1511 C   0  0  0  0  0  0  0  0  0  0  0  0
    2.3169    1.1396   -0.2463 N   0  0  0  0  0  0  0  0  0  0  0  0
    0.9514    1.1853   -0.2566 C   0  0  0  0  0  0  0  0  0  0  0  0
    0.3432    2.4809   -0.3320 N   0  0  0  0  0  0  0  0  0  0  0  0
    1.2053    3.6607   -0.4014 C   0  0  2  0  0  0  0  0  0  0  0  0
    2.1073    3.7355    0.8131 C   0  0  0  0  0  0  0  0  0  0  0  0
    2.1919    5.0384    1.2123 O   0  0  0  0  0  0  0  0  0  0  0  0
    1.3239    5.8141    0.4976 C   0  0  0  0  0  0  0  0  0  0  0  0
    0.3478    4.8891   -0.1968 C   0  0  1  0  0  0  0  0  0  0  0  0
   -0.1443    5.4072   -1.3786 O   0  0  0  0  0  0  0  0  0  0  0  0
   -3.8982   -1.7438    1.2067 C   0  0  0  0  0  0  0  0  0  0  0  0
   -5.4110   -1.4922    1.1637 C   0  0  0  0  0  0  0  0  0  0  0  0
   -7.9966   -2.4588   -0.3698 H   0  0  0  0  0  0  0  0  0  0  0  0
   -7.4917   -0.8125    0.0895 H   0  0  0  0  0  0  0  0  0  0  0  0
   -7.0293   -1.4773   -1.5493 H   0  0  0  0  0  0  0  0  0  0  0  0
   -4.7507   -3.8969   -0.2845 H   0  0  0  0  0  0  0  0  0  0  0  0
   -5.6706   -3.2326   -1.6660 H   0  0  0  0  0  0  0  0  0  0  0  0
   -4.1721   -1.5174   -2.1268 H   0  0  0  0  0  0  0  0  0  0  0  0
   -3.1307   -2.8118   -1.5098 H   0  0  0  0  0  0  0  0  0  0  0  0
   -3.7252   -0.1839   -0.2289 H   0  0  0  0  0  0  0  0  0  0  0  0
   -1.5027   -2.1654   -0.0378 H   0  0  0  0  0  0  0  0  0  0  0  0
    0.3794   -2.0938   -0.0641 H   0  0  0  0  0  0  0  0  0  0  0  0
    4.8758    0.9328   -0.2422 H   0  0  0  0  0  0  0  0  0  0  0  0
    7.0249    0.0541   -0.3496 H   0  0  0  0  0  0  0  0  0  0  0  0
    7.8140   -4.0878    0.2013 H   0  0  0  0  0  0  0  0  0  0  0  0
    3.8239   -2.6778    0.2587 H   0  0  0  0  0  0  0  0  0  0  0  0
   -0.6421    2.6434   -0.3414 H   0  0  0  0  0  0  0  0  0  0  0  0
    1.7795    3.7048   -1.3374 H   0  0  0  0  0  0  0  0  0  0  0  0
    3.0867    3.2781    0.5943 H   0  0  0  0  0  0  0  0  0  0  0  0
    1.6115    3.1191    1.6097 H   0  0  0  0  0  0  0  0  0  0  0  0
    1.8526    6.3757   -0.3274 H   0  0  0  0  0  0  0  0  0  0  0  0
    0.8070    6.6014    1.0949 H   0  0  0  0  0  0  0  0  0  0  0  0
   -0.4690    4.6413    0.5287 H   0  0  0  0  0  0  0  0  0  0  0  0
   -0.9609    4.9020   -1.6195 H   0  0  0  0  0  0  0  0  0  0  0  0
   -3.4474   -1.1978    2.0494 H   0  0  0  0  0  0  0  0  0  0  0  0
   -3.7461   -2.8219    1.2051 H   0  0  0  0  0  0  0  0  0  0  0  0
   -5.8152   -1.6769    2.1811 H   0  0  0  0  0  0  0  0  0  0  0  0
   -5.5034   -0.3913    0.9285 H   0  0  0  0  0  0  0  0  0  0  0  0
  1  2  1  0
  2  3  1  0
  3  4  1  0
  4  5  1  0
  5  6  1  0
  6  7  1  0
  7  8  2  0
  7  9  1  0
  9 10  2  0
 10 11  1  0
 11 12  2  0
 12 13  1  0
 13 14  1  0
 14 15  2  0
 15 16  1  0
 16 17  1  0
 16 18  2  0
 18 19  1  0
 19 20  1  0
 19 21  2  0
 12 22  1  0
 22 23  2  0
 23 24  1  0
 24 25  1  0
 25 26  1  0
 26 27  1  0
 27 28  1  0
 28 29  1  0
 29 30  1  0
  5 31  1  0
 31 32  1  0
 32  2  1  0
 23  9  1  0
 29 25  1  0
 21 14  1  0
  1 33  1  0
  1 34  1  0
  1 35  1  0
  3 36  1  0
  3 37  1  0
  4 38  1  0
  4 39  1  0
  5 40  1  0
  6 41  1  0
 10 42  1  0
 13 43  1  0
 15 44  1  0
 18 45  1  0
 21 46  1  0
 24 47  1  0
 25 48  1  6
 26 49  1  0
 26 50  1  0
 28 51  1  0
 28 52  1  0
 29 53  1  1
 30 54  1  0
 31 55  1  0
 31 56  1  0
 32 57  1  0
 32 58  1  0
M  END
$$$$
