
     RDKit          3D

 71 76  0  0  0  0  0  0  0  0999 V2000
    4.8059    1.3981   -1.6146 C   0  0  0  0  0  0  0  0  0  0  0  0
    4.2275    0.4972   -0.5783 C   0  0  0  0  0  0  0  0  0  0  0  0
    2.8768    0.2375   -0.6034 C   0  0  0  0  0  0  0  0  0  0  0  0
    2.3489   -0.5930    0.3535 C   0  0  0  0  0  0  0  0  0  0  0  0
    0.9176   -0.8668    0.3246 C   0  0  0  0  0  0  0  0  0  0  0  0
    0.3464   -2.1211    0.4784 C   0  0  0  0  0  0  0  0  0  0  0  0
   -0.9849   -1.9569    0.3913 N   0  0  0  0  0  0  0  0  0  0  0  0
   -1.3069   -0.6936    0.1937 N   0  0  0  0  0  0  0  0  0  0  0  0
   -2.4986   -0.0747    0.0476 C   0  0  0  0  0  0  0  0  0  0  0  0
   -3.7041   -0.8244    0.0986 N   0  0  0  0  0  0  0  0  0  0  0  0
   -3.6927   -2.2543    0.3058 C   0  0  0  0  0  0  0  0  0  0  0  0
   -5.0918   -2.8293    0.3234 C   0  0  0  0  0  0  0  0  0  0  0  0
   -5.0603   -4.3138    0.5394 C   0  0  0  0  0  0  0  0  0  0  0  0
   -6.2641   -5.0024   -0.0532 C   0  0  0  0  0  0  0  0  0  0  0  0
   -6.3833   -4.8148   -1.4096 O   0  0  0  0  0  0  0  0  0  0  0  0
   -5.6223   -3.7611   -1.8903 C   0  0  0  0  0  0  0  0  0  0  0  0
   -5.7344   -2.5311   -1.0160 C   0  0  0  0  0  0  0  0  0  0  0  0
   -2.4828    1.2533   -0.1434 N   0  0  0  0  0  0  0  0  0  0  0  0
   -1.3533    1.9729   -0.1935 C   0  0  0  0  0  0  0  0  0  0  0  0
   -1.3605    3.3871   -0.3983 N   0  0  0  0  0  0  0  0  0  0  0  0
   -2.6523    4.0272   -0.5529 C   0  0  0  0  0  0  0  0  0  0  0  0
   -2.5363    5.5075   -0.7624 C   0  0  0  0  0  0  0  0  0  0  0  0
   -3.6217    6.0999    0.1129 C   0  0  0  0  0  0  0  0  0  0  0  0
   -3.6423    5.1698    1.2938 C   0  0  0  0  0  0  0  0  0  0  0  0
   -3.4410    3.8122    0.7022 C   0  0  0  0  0  0  0  0  0  0  0  0
   -0.1754    1.3272   -0.0441 N   0  0  0  0  0  0  0  0  0  0  0  0
   -0.1427   -0.0034    0.1496 C   0  0  0  0  0  0  0  0  0  0  0  0
    3.1929   -1.1303    1.2968 C   0  0  0  0  0  0  0  0  0  0  0  0
    4.5469   -0.8588    1.3072 C   0  0  0  0  0  0  0  0  0  0  0  0
    5.1016   -0.0242    0.3522 C   0  0  0  0  0  0  0  0  0  0  0  0
    6.5150    0.2923    0.3192 C   0  0  0  0  0  0  0  0  0  0  0  0
    6.9196    1.4692    0.4273 O   0  0  0  0  0  0  0  0  0  0  0  0
    7.4686   -0.7390    0.1622 N   0  0  0  0  0  0  0  0  0  0  0  0
    8.8833   -0.4680    0.1242 C   0  0  0  0  0  0  0  0  0  0  0  0
    9.8844   -1.4459    0.5669 C   0  0  0  0  0  0  0  0  0  0  0  0
    9.7181   -1.1955   -0.9347 C   0  0  0  0  0  0  0  0  0  0  0  0
    4.0056    1.7773   -2.2944 H   0  0  0  0  0  0  0  0  0  0  0  0
    5.5169    0.8498   -2.2750 H   0  0  0  0  0  0  0  0  0  0  0  0
    5.2992    2.2816   -1.1865 H   0  0  0  0  0  0  0  0  0  0  0  0
    2.2422    0.6920   -1.3799 H   0  0  0  0  0  0  0  0  0  0  0  0
    0.8927   -3.0424    0.6374 H   0  0  0  0  0  0  0  0  0  0  0  0
   -4.6282   -0.3653   -0.0119 H   0  0  0  0  0  0  0  0  0  0  0  0
   -3.2549   -2.4606    1.3167 H   0  0  0  0  0  0  0  0  0  0  0  0
   -3.0573   -2.7953   -0.4246 H   0  0  0  0  0  0  0  0  0  0  0  0
   -5.6872   -2.3148    1.1003 H   0  0  0  0  0  0  0  0  0  0  0  0
   -5.0267   -4.5936    1.6211 H   0  0  0  0  0  0  0  0  0  0  0  0
   -4.1454   -4.7770    0.0941 H   0  0  0  0  0  0  0  0  0  0  0  0
   -7.1908   -4.7080    0.5020 H   0  0  0  0  0  0  0  0  0  0  0  0
   -6.1355   -6.0948    0.1411 H   0  0  0  0  0  0  0  0  0  0  0  0
   -4.5496   -4.0279   -1.9589 H   0  0  0  0  0  0  0  0  0  0  0  0
   -5.9831   -3.5058   -2.9028 H   0  0  0  0  0  0  0  0  0  0  0  0
   -5.1857   -1.7203   -1.5221 H   0  0  0  0  0  0  0  0  0  0  0  0
   -6.8131   -2.2594   -0.8987 H   0  0  0  0  0  0  0  0  0  0  0  0
   -0.5092    3.9534   -0.4392 H   0  0  0  0  0  0  0  0  0  0  0  0
   -3.1966    3.5801   -1.4353 H   0  0  0  0  0  0  0  0  0  0  0  0
   -1.5316    5.8725   -0.4021 H   0  0  0  0  0  0  0  0  0  0  0  0
   -2.7020    5.8203   -1.8144 H   0  0  0  0  0  0  0  0  0  0  0  0
   -3.4137    7.1487    0.3994 H   0  0  0  0  0  0  0  0  0  0  0  0
   -4.6051    5.9893   -0.4093 H   0  0  0  0  0  0  0  0  0  0  0  0
   -4.6356    5.1899    1.8124 H   0  0  0  0  0  0  0  0  0  0  0  0
   -2.8644    5.4136    2.0510 H   0  0  0  0  0  0  0  0  0  0  0  0
   -4.4020    3.3049    0.4692 H   0  0  0  0  0  0  0  0  0  0  0  0
   -2.9034    3.1793    1.4408 H   0  0  0  0  0  0  0  0  0  0  0  0
    2.7953   -1.7997    2.0758 H   0  0  0  0  0  0  0  0  0  0  0  0
    5.2056   -1.2873    2.0555 H   0  0  0  0  0  0  0  0  0  0  0  0
    7.1680   -1.7551    0.0666 H   0  0  0  0  0  0  0  0  0  0  0  0
    9.1613    0.6025    0.2270 H   0  0  0  0  0  0  0  0  0  0  0  0
   10.8490   -1.0648    0.9745 H   0  0  0  0  0  0  0  0  0  0  0  0
    9.6287   -2.4439    0.9640 H   0  0  0  0  0  0  0  0  0  0  0  0
   10.4988   -0.6408   -1.4623 H   0  0  0  0  0  0  0  0  0  0  0  0
    9.1560   -1.9473   -1.5204 H   0  0  0  0  0  0  0  0  0  0  0  0
  1  2  1  0
  2  3  2  0
  3  4  1  0
  4  5  1  0
  5  6  1  0
  6  7  2  0
  7  8  1  0
  8  9  1  0
  9 10  1  0
 10 11  1  0
 11 12  1  0
 12 13  1  0
 13 14  1  0
 14 15  1  0
 15 16  1  0
 16 17  1  0
  9 18  2  0
 18 19  1  0
 19 20  1  0
 20 21  1  0
 21 22  1  0
 22 23  1  0
 23 24  1  0
 24 25  1  0
 19 26  2  0
 26 27  1  0
  4 28  2  0
 28 29  1  0
 29 30  2  0
 30 31  1  0
 31 32  2  0
 31 33  1  0
 33 34  1  0
 34 35  1  0
 35 36  1  0
 30  2  1  0
 36 34  1  0
 27  5  2  0
 27  8  1  0
 17 12  1  0
 25 21  1  0
  1 37  1  0
  1 38  1  0
  1 39  1  0
  3 40  1  0
  6 41  1  0
 10 42  1  0
 11 43  1  0
 11 44  1  0
 12 45  1  0
 13 46  1  0
 13 47  1  0
 14 48  1  0
 14 49  1  0
 16 50  1  0
 16 51  1  0
 17 52  1  0
 17 53  1  0
 20 54  1  0
 21 55  1  0
 22 56  1  0
 22 57  1  0
 23 58  1  0
 23 59  1  0
 24 60  1  0
 24 61  1  0
 25 62  1  0
 25 63  1  0
 28 64  1  0
 29 65  1  0
 33 66  1  0
 34 67  1  0
 35 68  1  0
 35 69  1  0
 36 70  1  0
 36 71  1  0
M  END
$$$$
