
     RDKit          3D

 53 58  0  0  0  0  0  0  0  0999 V2000
    4.0221   -1.4590    1.8495 F   0  0  0  0  0  0  0  0  0  0  0  0
    3.3591   -0.6345    1.0289 C   0  0  0  0  0  0  0  0  0  0  0  0
    2.0172   -0.8406    0.7654 C   0  0  0  0  0  0  0  0  0  0  0  0
    1.2649   -0.0283   -0.0519 C   0  0  0  0  0  0  0  0  0  0  0  0
   -0.1580   -0.2951   -0.2968 C   0  0  0  0  0  0  0  0  0  0  0  0
   -1.0612    0.7095   -0.5376 C   0  0  0  0  0  0  0  0  0  0  0  0
   -2.3649    0.4107   -0.7571 N   0  0  0  0  0  0  0  0  0  0  0  0
   -2.7588   -0.8728   -0.7360 C   0  0  0  0  0  0  0  0  0  0  0  0
   -4.0286   -1.4084   -0.9310 C   0  0  0  0  0  0  0  0  0  0  0  0
   -5.2465   -0.6585   -1.2109 C   0  0  0  0  0  0  0  0  0  0  0  0
   -5.6902   -0.3457   -2.4775 C   0  0  0  0  0  0  0  0  0  0  0  0
   -6.8540    0.3683   -2.7018 C   0  0  0  0  0  0  0  0  0  0  0  0
   -7.5811    0.7731   -1.6347 N   0  0  0  0  0  0  0  0  0  0  0  0
   -7.2008    0.4992   -0.3749 C   0  0  0  0  0  0  0  0  0  0  0  0
   -7.9687    0.9295    0.6871 C   0  0  0  0  0  0  0  0  0  0  0  0
   -7.5327    0.6219    1.9620 C   0  0  0  0  0  0  0  0  0  0  0  0
   -6.3810   -0.0854    2.2018 C   0  0  0  0  0  0  0  0  0  0  0  0
   -5.6090   -0.5179    1.1299 C   0  0  0  0  0  0  0  0  0  0  0  0
   -6.0310   -0.2186   -0.1499 C   0  0  0  0  0  0  0  0  0  0  0  0
   -3.8430   -2.7679   -0.7968 C   0  0  0  0  0  0  0  0  0  0  0  0
   -2.5539   -3.0430   -0.5385 N   0  0  0  0  0  0  0  0  0  0  0  0
   -1.9038   -1.8837   -0.5037 N   0  0  0  0  0  0  0  0  0  0  0  0
   -0.6082   -1.6024   -0.2844 C   0  0  0  0  0  0  0  0  0  0  0  0
    1.9212    1.0381   -0.6202 C   0  0  0  0  0  0  0  0  0  0  0  0
    3.2846    1.2654   -0.3660 C   0  0  0  0  0  0  0  0  0  0  0  0
    4.0067    0.4345    0.4554 C   0  0  0  0  0  0  0  0  0  0  0  0
    5.4073    0.6458    0.6947 N   0  0  0  0  0  0  0  0  0  0  0  0
    6.0464    1.9136    0.4644 C   0  0  0  0  0  0  0  0  0  0  0  0
    7.3525    1.6657   -0.2980 C   0  0  0  0  0  0  0  0  0  0  0  0
    8.2078    0.9808    0.6905 N   0  0  0  0  0  0  0  0  0  0  0  0
    7.6828   -0.3432    0.8334 C   0  0  0  0  0  0  0  0  0  0  0  0
    6.2352   -0.4465    1.1684 C   0  0  0  0  0  0  0  0  0  0  0  0
    1.5271   -1.6871    1.2260 H   0  0  0  0  0  0  0  0  0  0  0  0
   -0.6923    1.7308   -0.5444 H   0  0  0  0  0  0  0  0  0  0  0  0
   -5.0880   -0.6831   -3.3042 H   0  0  0  0  0  0  0  0  0  0  0  0
   -7.1818    0.6020   -3.7146 H   0  0  0  0  0  0  0  0  0  0  0  0
   -8.8822    1.4879    0.5701 H   0  0  0  0  0  0  0  0  0  0  0  0
   -8.1245    0.9525    2.8162 H   0  0  0  0  0  0  0  0  0  0  0  0
   -6.0413   -0.3256    3.2126 H   0  0  0  0  0  0  0  0  0  0  0  0
   -4.6938   -1.0783    1.2839 H   0  0  0  0  0  0  0  0  0  0  0  0
   -4.6383   -3.4897   -0.8905 H   0  0  0  0  0  0  0  0  0  0  0  0
    0.1283   -2.3901   -0.0906 H   0  0  0  0  0  0  0  0  0  0  0  0
    1.3860    1.7104   -1.2695 H   0  0  0  0  0  0  0  0  0  0  0  0
    3.7311    2.1206   -0.8543 H   0  0  0  0  0  0  0  0  0  0  0  0
    6.3814    2.3302    1.4477 H   0  0  0  0  0  0  0  0  0  0  0  0
    5.4124    2.6289   -0.0756 H   0  0  0  0  0  0  0  0  0  0  0  0
    7.1870    1.0091   -1.1685 H   0  0  0  0  0  0  0  0  0  0  0  0
    7.8261    2.6032   -0.5994 H   0  0  0  0  0  0  0  0  0  0  0  0
    8.1614    1.5158    1.5785 H   0  0  0  0  0  0  0  0  0  0  0  0
    8.2534   -0.8816    1.6409 H   0  0  0  0  0  0  0  0  0  0  0  0
    7.9388   -0.9217   -0.1011 H   0  0  0  0  0  0  0  0  0  0  0  0
    6.1097   -0.6439    2.2520 H   0  0  0  0  0  0  0  0  0  0  0  0
    5.8673   -1.3951    0.6532 H   0  0  0  0  0  0  0  0  0  0  0  0
  1  2  1  0
  2  3  2  0
  3  4  1  0
  4  5  1  0
  5  6  1  0
  6  7  2  0
  7  8  1  0
  8  9  2  0
  9 10  1  0
 10 11  2  0
 11 12  1  0
 12 13  2  0
 13 14  1  0
 14 15  2  0
 15 16  1  0
 16 17  2  0
 17 18  1  0
 18 19  2  0
  9 20  1  0
 20 21  2  0
 21 22  1  0
 22 23  1  0
  4 24  2  0
 24 25  1  0
 25 26  2  0
 26 27  1  0
 27 28  1  0
 28 29  1  0
 29 30  1  0
 30 31  1  0
 31 32  1  0
 26  2  1  0
 32 27  1  0
 23  5  2  0
 22  8  1  0
 19 10  1  0
 19 14  1  0
  3 33  1  0
  6 34  1  0
 11 35  1  0
 12 36  1  0
 15 37  1  0
 16 38  1  0
 17 39  1  0
 18 40  1  0
 20 41  1  0
 23 42  1  0
 24 43  1  0
 25 44  1  0
 28 45  1  0
 28 46  1  0
 29 47  1  0
 29 48  1  0
 30 49  1  0
 31 50  1  0
 31 51  1  0
 32 52  1  0
 32 53  1  0
M  END
$$$$
