
     RDKit          3D

 56 60  0  0  0  0  0  0  0  0999 V2000
   -3.0825   -1.9007    2.9957 C   0  0  0  0  0  0  0  0  0  0  0  0
   -1.8486   -2.4002    2.3317 C   0  0  0  0  0  0  0  0  0  0  0  0
   -1.0606   -1.6845    1.4472 C   0  0  0  0  0  0  0  0  0  0  0  0
   -1.1030   -0.4067    0.9080 C   0  0  0  0  0  0  0  0  0  0  0  0
   -2.1244    0.4092    1.2767 O   0  0  0  0  0  0  0  0  0  0  0  0
   -2.4210    1.7082    0.9096 C   0  0  2  0  0  0  0  0  0  0  0  0
   -2.3822    2.6819    2.0817 C   0  0  0  0  0  0  0  0  0  0  0  0
   -3.7501    1.8464    0.2029 C   0  0  1  0  0  0  0  0  0  0  0  0
   -4.0560    3.2606   -0.1865 C   0  0  0  0  0  0  0  0  0  0  0  0
   -5.1223    3.0469   -1.1829 N   0  0  0  0  0  0  0  0  0  0  0  0
   -4.8935    1.7957   -1.8109 C   0  0  0  0  0  0  0  0  0  0  0  0
   -5.5420    1.3415   -2.7754 O   0  0  0  0  0  0  0  0  0  0  0  0
   -3.7611    1.1274   -1.1293 C   0  0  0  0  0  0  0  0  0  0  0  0
   -0.1185   -0.0171    0.0280 C   0  0  0  0  0  0  0  0  0  0  0  0
    0.9261   -0.8632   -0.3442 C   0  0  0  0  0  0  0  0  0  0  0  0
    1.9609   -0.4304   -1.2773 C   0  0  0  0  0  0  0  0  0  0  0  0
    1.7691    0.4581   -2.3133 C   0  0  0  0  0  0  0  0  0  0  0  0
    2.9454    0.6134   -2.9546 N   0  0  0  0  0  0  0  0  0  0  0  0
    3.8591   -0.1362   -2.3665 N   0  0  0  0  0  0  0  0  0  0  0  0
    5.2287   -0.2119   -2.7921 C   0  0  0  0  0  0  0  0  0  0  0  0
    6.0942    0.8207   -2.1072 C   0  0  0  0  0  0  0  0  0  0  0  0
    7.5698    0.8009   -2.5094 C   0  0  0  0  0  0  0  0  0  0  0  0
    7.0781    0.3921   -1.1008 C   0  0  0  0  0  0  0  0  0  0  0  0
    3.2803   -0.7883   -1.3324 C   0  0  0  0  0  0  0  0  0  0  0  0
    0.9211   -2.1218    0.2204 C   0  0  0  0  0  0  0  0  0  0  0  0
   -0.0401   -2.5611    1.1057 C   0  0  0  0  0  0  0  0  0  0  0  0
   -0.2507   -3.7243    1.7754 N   0  0  0  0  0  0  0  0  0  0  0  0
   -1.3406   -3.6326    2.5165 N   0  0  0  0  0  0  0  0  0  0  0  0
   -1.9125   -4.6699    3.3889 C   0  0  0  0  0  0  0  0  0  0  0  0
   -3.1019   -2.2733    4.0425 H   0  0  0  0  0  0  0  0  0  0  0  0
   -4.0018   -2.1324    2.4478 H   0  0  0  0  0  0  0  0  0  0  0  0
   -2.9897   -0.7990    3.0715 H   0  0  0  0  0  0  0  0  0  0  0  0
   -1.6509    2.0690    0.1996 H   0  0  0  0  0  0  0  0  0  0  0  0
   -3.3745    2.5664    2.6093 H   0  0  0  0  0  0  0  0  0  0  0  0
   -1.6135    2.4149    2.8029 H   0  0  0  0  0  0  0  0  0  0  0  0
   -2.3591    3.7091    1.7067 H   0  0  0  0  0  0  0  0  0  0  0  0
   -4.5913    1.4716    0.8043 H   0  0  0  0  0  0  0  0  0  0  0  0
   -3.2229    3.7276   -0.7776 H   0  0  0  0  0  0  0  0  0  0  0  0
   -4.3819    3.9037    0.6299 H   0  0  0  0  0  0  0  0  0  0  0  0
   -5.8834    3.7212   -1.3572 H   0  0  0  0  0  0  0  0  0  0  0  0
   -3.9153    0.0376   -1.0062 H   0  0  0  0  0  0  0  0  0  0  0  0
   -2.8476    1.3819   -1.7020 H   0  0  0  0  0  0  0  0  0  0  0  0
   -0.0876    0.9597   -0.4294 H   0  0  0  0  0  0  0  0  0  0  0  0
    0.8681    0.9727   -2.6130 H   0  0  0  0  0  0  0  0  0  0  0  0
    5.6127   -1.2376   -2.5574 H   0  0  0  0  0  0  0  0  0  0  0  0
    5.2984   -0.1068   -3.8956 H   0  0  0  0  0  0  0  0  0  0  0  0
    5.6182    1.8325   -2.0715 H   0  0  0  0  0  0  0  0  0  0  0  0
    8.0974    1.7911   -2.5534 H   0  0  0  0  0  0  0  0  0  0  0  0
    7.9428   -0.0276   -3.1190 H   0  0  0  0  0  0  0  0  0  0  0  0
    7.1248   -0.6950   -0.8663 H   0  0  0  0  0  0  0  0  0  0  0  0
    7.2829    1.0985   -0.2742 H   0  0  0  0  0  0  0  0  0  0  0  0
    3.7506   -1.4716   -0.6584 H   0  0  0  0  0  0  0  0  0  0  0  0
    1.7268   -2.7963   -0.0575 H   0  0  0  0  0  0  0  0  0  0  0  0
   -1.0535   -5.2090    3.8339 H   0  0  0  0  0  0  0  0  0  0  0  0
   -2.4692   -5.4177    2.7763 H   0  0  0  0  0  0  0  0  0  0  0  0
   -2.6017   -4.2453    4.1159 H   0  0  0  0  0  0  0  0  0  0  0  0
  1  2  1  0
  2  3  2  0
  3  4  1  0
  4  5  1  0
  5  6  1  0
  6  7  1  0
  6  8  1  0
  8  9  1  0
  9 10  1  0
 10 11  1  0
 11 12  2  0
 11 13  1  0
  4 14  2  0
 14 15  1  0
 15 16  1  0
 16 17  1  0
 17 18  2  0
 18 19  1  0
 19 20  1  0
 20 21  1  0
 21 22  1  0
 22 23  1  0
 19 24  1  0
 15 25  2  0
 25 26  1  0
 26 27  2  0
 27 28  1  0
 28 29  1  0
 28  2  1  0
 26  3  1  0
 13  8  1  0
 24 16  2  0
 23 21  1  0
  1 30  1  0
  1 31  1  0
  1 32  1  0
  6 33  1  6
  7 34  1  0
  7 35  1  0
  7 36  1  0
  8 37  1  1
  9 38  1  0
  9 39  1  0
 10 40  1  0
 13 41  1  0
 13 42  1  0
 14 43  1  0
 17 44  1  0
 20 45  1  0
 20 46  1  0
 21 47  1  0
 22 48  1  0
 22 49  1  0
 23 50  1  0
 23 51  1  0
 24 52  1  0
 25 53  1  0
 29 54  1  0
 29 55  1  0
 29 56  1  0
M  END
$$$$
