
     RDKit          3D

 33 35  0  0  0  0  0  0  0  0999 V2000
    6.3479    0.1808    0.0897 C   0  0  0  0  0  0  0  0  0  0  0  0
    5.4053    1.0415   -0.5219 O   0  0  0  0  0  0  0  0  0  0  0  0
    4.0484    0.7366   -0.3882 C   0  0  0  0  0  0  0  0  0  0  0  0
    3.6305   -0.3713    0.3192 C   0  0  0  0  0  0  0  0  0  0  0  0
    2.2792   -0.6452    0.4329 C   0  0  0  0  0  0  0  0  0  0  0  0
    1.3059    0.1292   -0.1235 C   0  0  0  0  0  0  0  0  0  0  0  0
   -0.1217   -0.1875    0.0145 C   0  0  0  0  0  0  0  0  0  0  0  0
   -0.5949   -1.2743    0.7054 C   0  0  0  0  0  0  0  0  0  0  0  0
   -1.9349   -1.5685    0.8329 C   0  0  0  0  0  0  0  0  0  0  0  0
   -2.3801   -2.5563    1.4601 O   0  0  0  0  0  0  0  0  0  0  0  0
   -2.8287   -0.7022    0.2199 C   0  0  0  0  0  0  0  0  0  0  0  0
   -4.1810   -0.9019    0.2847 C   0  0  0  0  0  0  0  0  0  0  0  0
   -4.6192   -2.0199    0.9978 O   0  0  0  0  0  0  0  0  0  0  0  0
   -5.0367   -0.0313   -0.3292 C   0  0  0  0  0  0  0  0  0  0  0  0
   -4.5725    1.0636   -1.0259 C   0  0  0  0  0  0  0  0  0  0  0  0
   -5.4670    1.9413   -1.6464 O   0  0  0  0  0  0  0  0  0  0  0  0
   -3.2136    1.2729   -1.0967 C   0  0  0  0  0  0  0  0  0  0  0  0
   -2.3316    0.3812   -0.4675 C   0  0  0  0  0  0  0  0  0  0  0  0
   -1.0368    0.5825   -0.5363 O   0  0  0  0  0  0  0  0  0  0  0  0
    1.7232    1.2399   -0.8327 C   0  0  0  0  0  0  0  0  0  0  0  0
    3.0666    1.5195   -0.9506 C   0  0  0  0  0  0  0  0  0  0  0  0
    6.2850   -0.8283   -0.3884 H   0  0  0  0  0  0  0  0  0  0  0  0
    7.3700    0.5545    0.0306 H   0  0  0  0  0  0  0  0  0  0  0  0
    6.0593    0.0424    1.1730 H   0  0  0  0  0  0  0  0  0  0  0  0
    4.3636   -1.0220    0.7825 H   0  0  0  0  0  0  0  0  0  0  0  0
    2.0204   -1.5199    0.9948 H   0  0  0  0  0  0  0  0  0  0  0  0
    0.1059   -1.9496    1.1834 H   0  0  0  0  0  0  0  0  0  0  0  0
   -4.7078   -2.9341    0.6245 H   0  0  0  0  0  0  0  0  0  0  0  0
   -6.1148   -0.2095   -0.2651 H   0  0  0  0  0  0  0  0  0  0  0  0
   -6.4316    1.6557   -1.7491 H   0  0  0  0  0  0  0  0  0  0  0  0
   -2.7869    2.1202   -1.6325 H   0  0  0  0  0  0  0  0  0  0  0  0
    0.9728    1.8705   -1.2837 H   0  0  0  0  0  0  0  0  0  0  0  0
    3.3758    2.3897   -1.5070 H   0  0  0  0  0  0  0  0  0  0  0  0
  1  2  1  0
  2  3  1  0
  3  4  2  0
  4  5  1  0
  5  6  2  0
  6  7  1  0
  7  8  2  0
  8  9  1  0
  9 10  2  0
  9 11  1  0
 11 12  2  0
 12 13  1  0
 12 14  1  0
 14 15  2  0
 15 16  1  0
 15 17  1  0
 17 18  2  0
 18 19  1  0
  6 20  1  0
 20 21  2  0
 21  3  1  0
 19  7  1  0
 18 11  1  0
  1 22  1  0
  1 23  1  0
  1 24  1  0
  4 25  1  0
  5 26  1  0
  8 27  1  0
 13 28  1  0
 14 29  1  0
 16 30  1  0
 17 31  1  0
 20 32  1  0
 21 33  1  0
M  END
$$$$
