
     RDKit          3D

 55 59  0  0  0  0  0  0  0  0999 V2000
   -4.9143   -1.2318    3.8423 C   0  0  0  0  0  0  0  0  0  0  0  0
   -4.1017   -0.5186    2.8164 C   0  0  0  0  0  0  0  0  0  0  0  0
   -3.0349    0.2495    3.2137 C   0  0  0  0  0  0  0  0  0  0  0  0
   -2.2608    0.9256    2.2652 C   0  0  0  0  0  0  0  0  0  0  0  0
   -2.5474    0.8376    0.9263 C   0  0  0  0  0  0  0  0  0  0  0  0
   -1.7824    1.5155   -0.0827 C   0  0  0  0  0  0  0  0  0  0  0  0
   -2.1439    2.6816   -0.3880 O   0  0  0  0  0  0  0  0  0  0  0  0
   -0.6612    0.9643   -0.7513 N   0  0  0  0  0  0  0  0  0  0  0  0
   -0.0002    1.7913   -1.7624 C   0  0  0  0  0  0  0  0  0  0  0  0
   -0.2016    1.0584   -3.0753 C   0  0  0  0  0  0  0  0  0  0  0  0
   -0.3721   -0.3092   -2.8718 O   0  0  0  0  0  0  0  0  0  0  0  0
    0.4391   -0.8048   -1.8682 C   0  0  0  0  0  0  0  0  0  0  0  0
   -0.1310   -0.3318   -0.5389 C   0  0  1  0  0  0  0  0  0  0  0  0
    0.7697   -0.5646    0.6012 C   0  0  0  0  0  0  0  0  0  0  0  0
    2.0193    0.1780    0.6731 C   0  0  0  0  0  0  0  0  0  0  0  0
    3.2210   -0.4469    0.3092 C   0  0  0  0  0  0  0  0  0  0  0  0
    4.4413    0.1895    0.3483 C   0  0  0  0  0  0  0  0  0  0  0  0
    5.6550   -0.4537   -0.0216 N   0  0  0  0  0  0  0  0  0  0  0  0
    6.3302   -0.3126   -1.1270 N   0  0  0  0  0  0  0  0  0  0  0  0
    7.4353   -1.0878   -1.1226 C   0  0  0  0  0  0  0  0  0  0  0  0
    7.4249   -1.7483    0.0810 C   0  0  0  0  0  0  0  0  0  0  0  0
    6.3208   -1.3344    0.7266 N   0  0  0  0  0  0  0  0  0  0  0  0
    4.4339    1.5058    0.7723 C   0  0  0  0  0  0  0  0  0  0  0  0
    3.2569    2.1274    1.1318 C   0  0  0  0  0  0  0  0  0  0  0  0
    2.0238    1.4838    1.0922 C   0  0  0  0  0  0  0  0  0  0  0  0
    0.9029    2.1615    1.4654 F   0  0  0  0  0  0  0  0  0  0  0  0
   -3.6235    0.0605    0.5508 C   0  0  0  0  0  0  0  0  0  0  0  0
   -3.9345   -0.0430   -0.8209 N   0  0  0  0  0  0  0  0  0  0  0  0
   -4.3493    0.9461   -1.6113 N   0  0  0  0  0  0  0  0  0  0  0  0
   -4.5373    0.4606   -2.8316 C   0  0  0  0  0  0  0  0  0  0  0  0
   -4.2313   -0.8744   -2.8076 C   0  0  0  0  0  0  0  0  0  0  0  0
   -3.8598   -1.1435   -1.5300 N   0  0  0  0  0  0  0  0  0  0  0  0
   -4.4021   -0.6167    1.4760 C   0  0  0  0  0  0  0  0  0  0  0  0
   -4.3686   -2.1578    4.1490 H   0  0  0  0  0  0  0  0  0  0  0  0
   -5.8991   -1.4607    3.4034 H   0  0  0  0  0  0  0  0  0  0  0  0
   -5.0745   -0.5503    4.7170 H   0  0  0  0  0  0  0  0  0  0  0  0
   -2.8130    0.3169    4.2664 H   0  0  0  0  0  0  0  0  0  0  0  0
   -1.4310    1.5204    2.6176 H   0  0  0  0  0  0  0  0  0  0  0  0
    1.0559    1.9391   -1.5509 H   0  0  0  0  0  0  0  0  0  0  0  0
   -0.4625    2.7822   -1.8589 H   0  0  0  0  0  0  0  0  0  0  0  0
   -1.1064    1.4815   -3.5535 H   0  0  0  0  0  0  0  0  0  0  0  0
    0.6581    1.2728   -3.7415 H   0  0  0  0  0  0  0  0  0  0  0  0
    0.4207   -1.9081   -1.9458 H   0  0  0  0  0  0  0  0  0  0  0  0
    1.4425   -0.3669   -1.9789 H   0  0  0  0  0  0  0  0  0  0  0  0
   -1.0233   -1.0131   -0.3768 H   0  0  0  0  0  0  0  0  0  0  0  0
    0.1697   -0.4617    1.5367 H   0  0  0  0  0  0  0  0  0  0  0  0
    1.0216   -1.6708    0.5862 H   0  0  0  0  0  0  0  0  0  0  0  0
    3.2202   -1.4908   -0.0266 H   0  0  0  0  0  0  0  0  0  0  0  0
    8.1756   -1.1696   -1.9090 H   0  0  0  0  0  0  0  0  0  0  0  0
    8.1827   -2.4609    0.4101 H   0  0  0  0  0  0  0  0  0  0  0  0
    5.3926    2.0247    0.8085 H   0  0  0  0  0  0  0  0  0  0  0  0
    3.2463    3.1689    1.4678 H   0  0  0  0  0  0  0  0  0  0  0  0
   -4.8728    1.0354   -3.6801 H   0  0  0  0  0  0  0  0  0  0  0  0
   -4.2706   -1.5811   -3.6211 H   0  0  0  0  0  0  0  0  0  0  0  0
   -5.2489   -1.2299    1.1999 H   0  0  0  0  0  0  0  0  0  0  0  0
  1  2  1  0
  2  3  2  0
  3  4  1  0
  4  5  2  0
  5  6  1  0
  6  7  2  0
  6  8  1  0
  8  9  1  0
  9 10  1  0
 10 11  1  0
 11 12  1  0
 12 13  1  0
 13 14  1  0
 14 15  1  0
 15 16  2  0
 16 17  1  0
 17 18  1  0
 18 19  1  0
 19 20  2  0
 20 21  1  0
 21 22  2  0
 17 23  2  0
 23 24  1  0
 24 25  2  0
 25 26  1  0
  5 27  1  0
 27 28  1  0
 28 29  1  0
 29 30  2  0
 30 31  1  0
 31 32  2  0
 27 33  2  0
 33  2  1  0
 13  8  1  0
 25 15  1  0
 32 28  1  0
 22 18  1  0
  1 34  1  0
  1 35  1  0
  1 36  1  0
  3 37  1  0
  4 38  1  0
  9 39  1  0
  9 40  1  0
 10 41  1  0
 10 42  1  0
 12 43  1  0
 12 44  1  0
 13 45  1  1
 14 46  1  0
 14 47  1  0
 16 48  1  0
 20 49  1  0
 21 50  1  0
 23 51  1  0
 24 52  1  0
 30 53  1  0
 31 54  1  0
 33 55  1  0
M  END
$$$$
