
     RDKit          3D

 45 47  0  0  0  0  0  0  0  0999 V2000
    3.3500    2.1085   -0.8906 C   0  0  0  0  0  0  0  0  0  0  0  0
    3.7044    0.7508   -0.6632 N   0  0  0  0  0  0  0  0  0  0  0  0
    4.5665    0.1776   -1.6383 C   0  0  0  0  0  0  0  0  0  0  0  0
    2.6175   -0.1024   -0.2204 C   0  0  0  0  0  0  0  0  0  0  0  0
    1.5757   -0.3353   -1.2482 C   0  0  0  0  0  0  0  0  0  0  0  0
    0.4378   -1.2309   -0.8595 C   0  0  0  0  0  0  0  0  0  0  0  0
   -0.3840   -0.7660    0.2976 C   0  0  0  0  0  0  0  0  0  0  0  0
    0.3568   -0.6482    1.4324 O   0  0  0  0  0  0  0  0  0  0  0  0
   -0.2116    0.3477    2.2205 C   0  0  0  0  0  0  0  0  0  0  0  0
   -0.9055    1.2550    1.2733 C   0  0  0  0  0  0  0  0  0  0  0  0
   -1.0134    0.5561    0.0672 C   0  0  0  0  0  0  0  0  0  0  0  0
   -1.6321    1.2294   -0.9496 C   0  0  0  0  0  0  0  0  0  0  0  0
   -2.1191    2.5283   -0.7804 C   0  0  0  0  0  0  0  0  0  0  0  0
   -1.9843    3.1760    0.4425 C   0  0  0  0  0  0  0  0  0  0  0  0
   -1.3661    2.5158    1.4742 C   0  0  0  0  0  0  0  0  0  0  0  0
   -2.4614    4.5116    0.6871 C   0  0  0  0  0  0  0  0  0  0  0  0
   -2.8478    5.5869    0.8813 N   0  0  0  0  0  0  0  0  0  0  0  0
   -1.4377   -1.8073    0.5698 C   0  0  0  0  0  0  0  0  0  0  0  0
   -2.4139   -2.0095   -0.3983 C   0  0  0  0  0  0  0  0  0  0  0  0
   -3.4119   -2.9458   -0.2285 C   0  0  0  0  0  0  0  0  0  0  0  0
   -3.4635   -3.7127    0.9223 C   0  0  0  0  0  0  0  0  0  0  0  0
   -4.4452   -4.6430    1.1038 F   0  0  0  0  0  0  0  0  0  0  0  0
   -2.4967   -3.5209    1.8947 C   0  0  0  0  0  0  0  0  0  0  0  0
   -1.5066   -2.5801    1.7072 C   0  0  0  0  0  0  0  0  0  0  0  0
    3.5834    2.7528   -0.0090 H   0  0  0  0  0  0  0  0  0  0  0  0
    2.2899    2.2091   -1.1312 H   0  0  0  0  0  0  0  0  0  0  0  0
    4.0151    2.5240   -1.7044 H   0  0  0  0  0  0  0  0  0  0  0  0
    4.9048    0.9487   -2.3898 H   0  0  0  0  0  0  0  0  0  0  0  0
    5.5079   -0.1820   -1.1512 H   0  0  0  0  0  0  0  0  0  0  0  0
    4.0897   -0.6914   -2.1207 H   0  0  0  0  0  0  0  0  0  0  0  0
    2.2108    0.4282    0.6863 H   0  0  0  0  0  0  0  0  0  0  0  0
    3.0258   -1.0583    0.1417 H   0  0  0  0  0  0  0  0  0  0  0  0
    2.0645   -0.7680   -2.1504 H   0  0  0  0  0  0  0  0  0  0  0  0
    1.0865    0.6366   -1.5680 H   0  0  0  0  0  0  0  0  0  0  0  0
    0.8755   -2.2295   -0.5923 H   0  0  0  0  0  0  0  0  0  0  0  0
   -0.1910   -1.4601   -1.7584 H   0  0  0  0  0  0  0  0  0  0  0  0
    0.5684    0.9177    2.7728 H   0  0  0  0  0  0  0  0  0  0  0  0
   -0.9846   -0.0914    2.8784 H   0  0  0  0  0  0  0  0  0  0  0  0
   -1.7375    0.7312   -1.8949 H   0  0  0  0  0  0  0  0  0  0  0  0
   -2.6125    3.0596   -1.5977 H   0  0  0  0  0  0  0  0  0  0  0  0
   -1.2508    3.0051    2.4380 H   0  0  0  0  0  0  0  0  0  0  0  0
   -2.4780   -1.4827   -1.3194 H   0  0  0  0  0  0  0  0  0  0  0  0
   -4.1984   -3.1478   -0.9467 H   0  0  0  0  0  0  0  0  0  0  0  0
   -2.5231   -4.1128    2.8006 H   0  0  0  0  0  0  0  0  0  0  0  0
   -0.7540   -2.4307    2.4605 H   0  0  0  0  0  0  0  0  0  0  0  0
  1  2  1  0
  2  3  1  0
  2  4  1  0
  4  5  1  0
  5  6  1  0
  6  7  1  0
  7  8  1  0
  8  9  1  0
  9 10  1  0
 10 11  2  0
 11 12  1  0
 12 13  2  0
 13 14  1  0
 14 15  2  0
 14 16  1  0
 16 17  3  0
  7 18  1  0
 18 19  2  0
 19 20  1  0
 20 21  2  0
 21 22  1  0
 21 23  1  0
 23 24  2  0
 11  7  1  0
 24 18  1  0
 15 10  1  0
  1 25  1  0
  1 26  1  0
  1 27  1  0
  3 28  1  0
  3 29  1  0
  3 30  1  0
  4 31  1  0
  4 32  1  0
  5 33  1  0
  5 34  1  0
  6 35  1  0
  6 36  1  0
  9 37  1  0
  9 38  1  0
 12 39  1  0
 13 40  1  0
 15 41  1  0
 19 42  1  0
 20 43  1  0
 23 44  1  0
 24 45  1  0
M  END
$$$$
