
     RDKit          3D

 34 36  0  0  0  0  0  0  0  0999 V2000
    0.5271    6.3311   -2.4622 C   0  0  0  0  0  0  0  0  0  0  0  0
    0.7881    5.8463   -1.3737 C   0  0  0  0  0  0  0  0  0  0  0  0
    1.1104    5.2804   -0.0530 C   0  0  0  0  0  0  0  0  0  0  0  0
    0.8412    3.9653    0.0060 O   0  0  0  0  0  0  0  0  0  0  0  0
    0.7353    2.8240    0.5644 C   0  0  0  0  0  0  0  0  0  0  0  0
    0.9191    2.4448    1.8630 C   0  0  0  0  0  0  0  0  0  0  0  0
    0.8192    1.2987    2.5109 C   0  0  0  0  0  0  0  0  0  0  0  0
    1.0437    1.0924    3.8449 O   0  0  0  0  0  0  0  0  0  0  0  0
    0.4376    0.2115    1.6766 C   0  0  0  0  0  0  0  0  0  0  0  0
    0.3015   -0.9914    2.2589 C   0  0  0  0  0  0  0  0  0  0  0  0
    0.5085   -1.2439    3.4935 O   0  0  0  0  0  0  0  0  0  0  0  0
   -0.0936   -2.0951    1.4363 C   0  0  0  0  0  0  0  0  0  0  0  0
   -0.2872   -1.7880    0.1033 C   0  0  0  0  0  0  0  0  0  0  0  0
   -0.6770   -2.9483   -0.7212 C   0  0  0  0  0  0  0  0  0  0  0  0
   -0.5978   -2.8774   -2.1303 C   0  0  0  0  0  0  0  0  0  0  0  0
   -0.9801   -3.9202   -2.9149 C   0  0  0  0  0  0  0  0  0  0  0  0
   -1.4814   -5.1396   -2.3955 C   0  0  0  0  0  0  0  0  0  0  0  0
   -1.5348   -5.1415   -1.0249 C   0  0  0  0  0  0  0  0  0  0  0  0
   -1.1690   -4.1491   -0.1945 C   0  0  0  0  0  0  0  0  0  0  0  0
   -0.1413   -0.6258   -0.4006 O   0  0  0  0  0  0  0  0  0  0  0  0
    0.2247    0.4523    0.3443 C   0  0  0  0  0  0  0  0  0  0  0  0
    0.3483    1.6636   -0.2586 C   0  0  0  0  0  0  0  0  0  0  0  0
    0.2876    6.7489   -3.4377 H   0  0  0  0  0  0  0  0  0  0  0  0
    0.3818    5.8146    0.6325 H   0  0  0  0  0  0  0  0  0  0  0  0
    2.0994    5.6028    0.3418 H   0  0  0  0  0  0  0  0  0  0  0  0
    1.2369    3.3521    2.4918 H   0  0  0  0  0  0  0  0  0  0  0  0
    0.4769    1.7227    4.4609 H   0  0  0  0  0  0  0  0  0  0  0  0
   -0.1997   -3.0071    1.9344 H   0  0  0  0  0  0  0  0  0  0  0  0
   -0.2326   -1.9689   -2.5684 H   0  0  0  0  0  0  0  0  0  0  0  0
   -0.9172   -3.8926   -4.0057 H   0  0  0  0  0  0  0  0  0  0  0  0
   -1.7869   -5.9420   -3.0206 H   0  0  0  0  0  0  0  0  0  0  0  0
   -1.9192   -6.1188   -0.6001 H   0  0  0  0  0  0  0  0  0  0  0  0
   -1.2580   -4.2347    0.8901 H   0  0  0  0  0  0  0  0  0  0  0  0
    0.1884    1.8556   -1.2919 H   0  0  0  0  0  0  0  0  0  0  0  0
  1  2  3  0
  2  3  1  0
  3  4  1  0
  4  5  1  0
  5  6  2  0
  6  7  1  0
  7  8  1  0
  7  9  2  0
  9 10  1  0
 10 11  2  0
 10 12  1  0
 12 13  2  0
 13 14  1  0
 14 15  2  0
 15 16  1  0
 16 17  2  0
 17 18  1  0
 18 19  2  0
 13 20  1  0
 20 21  1  0
 21 22  2  0
 22  5  1  0
 21  9  1  0
 19 14  1  0
  1 23  1  0
  3 24  1  0
  3 25  1  0
  6 26  1  0
  8 27  1  0
 12 28  1  0
 15 29  1  0
 16 30  1  0
 17 31  1  0
 18 32  1  0
 19 33  1  0
 22 34  1  0
M  END
$$$$
