
     RDKit          3D

 59 63  0  0  0  0  0  0  0  0999 V2000
   -1.1745    0.7654   -1.0403 O   0  0  0  0  0  0  0  0  0  0  0  0
   -1.3633   -0.3164   -0.3748 C   0  0  0  0  0  0  0  0  0  0  0  0
   -2.6140   -0.9900   -0.6302 N   0  0  0  0  0  0  0  0  0  0  0  0
   -3.5593   -0.4194   -1.5924 C   0  0  0  0  0  0  0  0  0  0  0  0
   -4.7513   -1.2829   -1.7813 C   0  0  0  0  0  0  0  0  0  0  0  0
   -5.6034   -1.5443   -0.5963 C   0  0  0  0  0  0  0  0  0  0  0  0
   -6.2338   -0.3802   -0.0565 N   0  0  0  0  0  0  0  0  0  0  0  0
   -5.7562    0.4791    0.9817 C   0  0  0  0  0  0  0  0  0  0  0  0
   -6.9572    1.2680    1.4711 C   0  0  0  0  0  0  0  0  0  0  0  0
   -8.1057    0.9071    0.5718 C   0  0  0  0  0  0  0  0  0  0  0  0
   -7.5203    0.0793   -0.5137 C   0  0  0  0  0  0  0  0  0  0  0  0
   -8.0624   -0.1622   -1.6178 O   0  0  0  0  0  0  0  0  0  0  0  0
   -0.4219   -0.8710    0.5648 C   0  0  0  0  0  0  0  0  0  0  0  0
   -0.9105   -1.7788    1.5169 C   0  0  0  0  0  0  0  0  0  0  0  0
   -0.0770   -2.2960    2.4343 N   0  0  0  0  0  0  0  0  0  0  0  0
    1.2064   -1.9845    2.4842 C   0  0  0  0  0  0  0  0  0  0  0  0
    1.7676   -1.0920    1.5747 C   0  0  0  0  0  0  0  0  0  0  0  0
    0.9337   -0.5457    0.6214 C   0  0  0  0  0  0  0  0  0  0  0  0
    1.4950    0.2644   -0.3752 N   0  0  0  0  0  0  0  0  0  0  0  0
    2.9014    0.4427   -0.5390 C   0  0  0  0  0  0  0  0  0  0  0  0
    3.8055    0.7080    0.3807 N   0  0  0  0  0  0  0  0  0  0  0  0
    5.1355    0.8030    0.1172 C   0  0  0  0  0  0  0  0  0  0  0  0
    6.1266    1.0841    1.1555 C   0  0  0  0  0  0  0  0  0  0  0  0
    5.8102    1.4261    2.4460 C   0  0  0  0  0  0  0  0  0  0  0  0
    6.8361    1.6303    3.3762 C   0  0  0  0  0  0  0  0  0  0  0  0
    6.4093    2.1140    5.1653 Br  0  0  0  0  0  0  0  0  0  0  0  0
    8.1652    1.5014    3.0548 C   0  0  0  0  0  0  0  0  0  0  0  0
    8.4749    1.1558    1.7498 C   0  0  0  0  0  0  0  0  0  0  0  0
    7.4582    0.9574    0.8400 C   0  0  0  0  0  0  0  0  0  0  0  0
    7.7689    0.6071   -0.4443 F   0  0  0  0  0  0  0  0  0  0  0  0
    5.5103    0.6121   -1.1642 N   0  0  0  0  0  0  0  0  0  0  0  0
    4.6896    0.3416   -2.1703 C   0  0  0  0  0  0  0  0  0  0  0  0
    5.0543    0.1547   -3.4360 N   0  0  0  0  0  0  0  0  0  0  0  0
    4.1558   -0.1168   -4.3861 C   0  0  0  0  0  0  0  0  0  0  0  0
    2.8117   -0.2128   -4.1020 C   0  0  0  0  0  0  0  0  0  0  0  0
    2.4380   -0.0210   -2.8190 N   0  0  0  0  0  0  0  0  0  0  0  0
    3.3378    0.2506   -1.8632 C   0  0  0  0  0  0  0  0  0  0  0  0
   -2.8251   -1.8673   -0.1442 H   0  0  0  0  0  0  0  0  0  0  0  0
   -3.0023   -0.3923   -2.5579 H   0  0  0  0  0  0  0  0  0  0  0  0
   -3.8502    0.6070   -1.3704 H   0  0  0  0  0  0  0  0  0  0  0  0
   -4.4069   -2.2439   -2.2700 H   0  0  0  0  0  0  0  0  0  0  0  0
   -5.3601   -0.8016   -2.6009 H   0  0  0  0  0  0  0  0  0  0  0  0
   -4.9940   -1.9748    0.2645 H   0  0  0  0  0  0  0  0  0  0  0  0
   -6.3604   -2.3312   -0.9090 H   0  0  0  0  0  0  0  0  0  0  0  0
   -5.3658   -0.0927    1.8572 H   0  0  0  0  0  0  0  0  0  0  0  0
   -4.9521    1.1528    0.6344 H   0  0  0  0  0  0  0  0  0  0  0  0
   -6.7682    2.3805    1.4086 H   0  0  0  0  0  0  0  0  0  0  0  0
   -7.2206    0.9489    2.5053 H   0  0  0  0  0  0  0  0  0  0  0  0
   -8.8732    0.3026    1.1280 H   0  0  0  0  0  0  0  0  0  0  0  0
   -8.5644    1.8181    0.1081 H   0  0  0  0  0  0  0  0  0  0  0  0
   -1.9684   -2.0571    1.5174 H   0  0  0  0  0  0  0  0  0  0  0  0
    1.8502   -2.4348    3.2597 H   0  0  0  0  0  0  0  0  0  0  0  0
    2.8343   -0.8716    1.6492 H   0  0  0  0  0  0  0  0  0  0  0  0
    0.8440    0.7717   -1.0390 H   0  0  0  0  0  0  0  0  0  0  0  0
    4.7698    1.5399    2.7165 H   0  0  0  0  0  0  0  0  0  0  0  0
    8.9280    1.6629    3.8073 H   0  0  0  0  0  0  0  0  0  0  0  0
    9.5271    1.0547    1.5099 H   0  0  0  0  0  0  0  0  0  0  0  0
    4.4484   -0.2755   -5.4172 H   0  0  0  0  0  0  0  0  0  0  0  0
    2.1288   -0.4345   -4.9000 H   0  0  0  0  0  0  0  0  0  0  0  0
  1  2  2  0
  2  3  1  0
  3  4  1  0
  4  5  1  0
  5  6  1  0
  6  7  1  0
  7  8  1  0
  8  9  1  0
  9 10  1  0
 10 11  1  0
 11 12  2  0
  2 13  1  0
 13 14  2  0
 14 15  1  0
 15 16  2  0
 16 17  1  0
 17 18  2  0
 18 19  1  0
 19 20  1  0
 20 21  2  0
 21 22  1  0
 22 23  1  0
 23 24  2  0
 24 25  1  0
 25 26  1  0
 25 27  2  0
 27 28  1  0
 28 29  2  0
 29 30  1  0
 22 31  2  0
 31 32  1  0
 32 33  2  0
 33 34  1  0
 34 35  2  0
 35 36  1  0
 36 37  2  0
 11  7  1  0
 18 13  1  0
 37 20  1  0
 29 23  1  0
 37 32  1  0
  3 38  1  0
  4 39  1  0
  4 40  1  0
  5 41  1  0
  5 42  1  0
  6 43  1  0
  6 44  1  0
  8 45  1  0
  8 46  1  0
  9 47  1  0
  9 48  1  0
 10 49  1  0
 10 50  1  0
 14 51  1  0
 16 52  1  0
 17 53  1  0
 19 54  1  0
 24 55  1  0
 27 56  1  0
 28 57  1  0
 34 58  1  0
 35 59  1  0
M  END
$$$$
