
     RDKit          3D

 30 30  0  0  0  0  0  0  0  0999 V2000
    1.6900   -0.6441    0.5865 C   0  0  1  0  0  0  0  0  0  0  0  0
    3.0764   -0.2031    0.9950 C   0  0  0  0  0  0  0  0  0  0  0  0
    4.0233   -0.7921    0.1709 O   0  0  0  0  0  0  0  0  0  0  0  0
    0.7023    0.0277    1.5174 C   0  0  0  0  0  0  0  0  0  0  0  0
    0.1335    1.1725    0.8736 N   0  0  0  0  0  0  0  0  0  0  0  0
   -0.7636    0.7300   -0.1690 C   0  0  2  0  0  0  0  0  0  0  0  0
   -1.9036    0.1430    0.4876 N   0  0  0  0  0  0  0  0  0  0  0  0
   -2.9847   -0.2414   -0.0732 C   0  0  0  0  0  0  0  0  0  0  0  0
   -4.0115   -0.8195    0.8571 C   0  0  0  0  0  0  0  0  0  0  0  0
   -3.0126   -0.0511   -1.4631 O   0  0  0  0  0  0  0  0  0  0  0  0
   -0.1324   -0.3195   -1.0531 C   0  0  1  0  0  0  0  0  0  0  0  0
   -0.3224   -0.0094   -2.4082 O   0  0  0  0  0  0  0  0  0  0  0  0
    1.3660   -0.3122   -0.8316 C   0  0  1  0  0  0  0  0  0  0  0  0
    1.8356    0.9143   -1.2606 O   0  0  0  0  0  0  0  0  0  0  0  0
    1.5626   -1.7319    0.7325 H   0  0  0  0  0  0  0  0  0  0  0  0
    3.2719   -0.5964    2.0181 H   0  0  0  0  0  0  0  0  0  0  0  0
    3.1593    0.8823    1.0262 H   0  0  0  0  0  0  0  0  0  0  0  0
    4.0363   -0.4756   -0.7468 H   0  0  0  0  0  0  0  0  0  0  0  0
   -0.1316   -0.6519    1.7860 H   0  0  0  0  0  0  0  0  0  0  0  0
    1.2263    0.3637    2.4507 H   0  0  0  0  0  0  0  0  0  0  0  0
    0.8028    1.8979    0.5912 H   0  0  0  0  0  0  0  0  0  0  0  0
   -1.0521    1.6256   -0.7811 H   0  0  0  0  0  0  0  0  0  0  0  0
   -4.7975   -1.3802    0.3074 H   0  0  0  0  0  0  0  0  0  0  0  0
   -4.4842   -0.0343    1.4845 H   0  0  0  0  0  0  0  0  0  0  0  0
   -3.5366   -1.5344    1.5475 H   0  0  0  0  0  0  0  0  0  0  0  0
   -2.8675    0.9046   -1.8160 H   0  0  0  0  0  0  0  0  0  0  0  0
   -0.5775   -1.3167   -0.8638 H   0  0  0  0  0  0  0  0  0  0  0  0
   -0.5467    0.9523   -2.4930 H   0  0  0  0  0  0  0  0  0  0  0  0
    1.7520   -1.1462   -1.4892 H   0  0  0  0  0  0  0  0  0  0  0  0
    2.4862    0.8905   -1.9834 H   0  0  0  0  0  0  0  0  0  0  0  0
  1  2  1  0
  2  3  1  0
  1  4  1  0
  4  5  1  0
  5  6  1  0
  6  7  1  0
  7  8  2  3
  8  9  1  0
  8 10  1  0
  6 11  1  0
 11 12  1  0
 11 13  1  0
 13 14  1  0
 13  1  1  0
  1 15  1  6
  2 16  1  0
  2 17  1  0
  3 18  1  0
  4 19  1  0
  4 20  1  0
  5 21  1  0
  6 22  1  6
  9 23  1  0
  9 24  1  0
  9 25  1  0
 10 26  1  0
 11 27  1  1
 12 28  1  0
 13 29  1  6
 14 30  1  0
M  END
$$$$
