
     RDKit          3D

 54 58  0  0  0  0  0  0  0  0999 V2000
    2.9625    0.2887    2.7671 C   0  0  0  0  0  0  0  0  0  0  0  0
    3.9650    0.0048    1.6917 C   0  0  0  0  0  0  0  0  0  0  0  0
    5.1424   -0.6520    1.9850 C   0  0  0  0  0  0  0  0  0  0  0  0
    6.0668   -0.9144    0.9943 C   0  0  0  0  0  0  0  0  0  0  0  0
    5.7680   -0.4986   -0.2810 C   0  0  0  0  0  0  0  0  0  0  0  0
    4.5917    0.1565   -0.5690 C   0  0  0  0  0  0  0  0  0  0  0  0
    3.6502    0.4283    0.4183 C   0  0  0  0  0  0  0  0  0  0  0  0
    2.4267    1.0996    0.1586 N   0  0  0  0  0  0  0  0  0  0  0  0
    1.2767    0.5040    0.0745 N   0  0  0  0  0  0  0  0  0  0  0  0
    0.0921    1.1395   -0.1748 C   0  0  0  0  0  0  0  0  0  0  0  0
   -1.1399    0.3893   -0.2546 C   0  0  0  0  0  0  0  0  0  0  0  0
   -2.4187    0.8034   -0.4889 C   0  0  0  0  0  0  0  0  0  0  0  0
   -2.9403    2.1329   -0.7225 C   0  0  0  0  0  0  0  0  0  0  0  0
   -3.3466    2.9257    0.3266 C   0  0  0  0  0  0  0  0  0  0  0  0
   -3.8699    4.1958    0.1145 C   0  0  0  0  0  0  0  0  0  0  0  0
   -3.9849    4.6718   -1.1664 C   0  0  0  0  0  0  0  0  0  0  0  0
   -4.4996    5.9197   -1.3669 F   0  0  0  0  0  0  0  0  0  0  0  0
   -3.5863    3.9007   -2.2368 C   0  0  0  0  0  0  0  0  0  0  0  0
   -3.0623    2.6244   -1.9980 C   0  0  0  0  0  0  0  0  0  0  0  0
   -3.1972   -0.3316   -0.4579 N   0  0  0  0  0  0  0  0  0  0  0  0
   -2.4994   -1.3922   -0.2252 N   0  0  0  0  0  0  0  0  0  0  0  0
   -1.2133   -0.9976   -0.0909 C   0  0  0  0  0  0  0  0  0  0  0  0
   -0.2468   -2.0024    0.1765 N   0  0  0  0  0  0  0  0  0  0  0  0
   -0.4197   -3.3872   -0.2071 C   0  0  0  0  0  0  0  0  0  0  0  0
   -1.7517   -3.6013   -0.8393 C   0  0  1  0  0  0  0  0  0  0  0  0
   -2.1251   -5.0709   -0.7765 C   0  0  0  0  0  0  0  0  0  0  0  0
   -3.3492   -5.3324   -1.3466 O   0  0  0  0  0  0  0  0  0  0  0  0
   -2.8332   -2.8202   -0.0976 C   0  0  0  0  0  0  0  0  0  0  0  0
    0.1765    2.4949   -0.3397 C   0  0  0  0  0  0  0  0  0  0  0  0
    1.3906    3.1873   -0.2591 C   0  0  0  0  0  0  0  0  0  0  0  0
    2.4982    2.4417   -0.0062 C   0  0  0  0  0  0  0  0  0  0  0  0
    3.6087    3.0602    0.0694 O   0  0  0  0  0  0  0  0  0  0  0  0
    2.4403    1.2308    2.5125 H   0  0  0  0  0  0  0  0  0  0  0  0
    2.2307   -0.5453    2.7825 H   0  0  0  0  0  0  0  0  0  0  0  0
    3.4539    0.4527    3.7462 H   0  0  0  0  0  0  0  0  0  0  0  0
    5.3480   -0.9705    3.0180 H   0  0  0  0  0  0  0  0  0  0  0  0
    6.9969   -1.4361    1.2390 H   0  0  0  0  0  0  0  0  0  0  0  0
    6.4712   -0.6912   -1.0681 H   0  0  0  0  0  0  0  0  0  0  0  0
    4.3379    0.4949   -1.5807 H   0  0  0  0  0  0  0  0  0  0  0  0
   -3.2646    2.5707    1.3389 H   0  0  0  0  0  0  0  0  0  0  0  0
   -4.1859    4.8125    0.9301 H   0  0  0  0  0  0  0  0  0  0  0  0
   -3.6828    4.2880   -3.2373 H   0  0  0  0  0  0  0  0  0  0  0  0
   -2.7703    2.0722   -2.8616 H   0  0  0  0  0  0  0  0  0  0  0  0
    0.6327   -1.6882    0.6853 H   0  0  0  0  0  0  0  0  0  0  0  0
    0.3880   -3.6320   -0.9277 H   0  0  0  0  0  0  0  0  0  0  0  0
   -0.3274   -4.0687    0.6762 H   0  0  0  0  0  0  0  0  0  0  0  0
   -1.7405   -3.2946   -1.9031 H   0  0  0  0  0  0  0  0  0  0  0  0
   -2.0978   -5.3953    0.2653 H   0  0  0  0  0  0  0  0  0  0  0  0
   -1.3607   -5.6461   -1.3473 H   0  0  0  0  0  0  0  0  0  0  0  0
   -4.0950   -5.0786   -0.7165 H   0  0  0  0  0  0  0  0  0  0  0  0
   -3.7854   -3.0488   -0.6030 H   0  0  0  0  0  0  0  0  0  0  0  0
   -2.8359   -3.1394    0.9494 H   0  0  0  0  0  0  0  0  0  0  0  0
   -0.6920    3.0843   -0.5410 H   0  0  0  0  0  0  0  0  0  0  0  0
    1.4067    4.2603   -0.3968 H   0  0  0  0  0  0  0  0  0  0  0  0
  1  2  1  0
  2  3  2  0
  3  4  1  0
  4  5  2  0
  5  6  1  0
  6  7  2  0
  7  8  1  0
  8  9  1  0
  9 10  2  0
 10 11  1  0
 11 12  1  0
 12 13  1  0
 13 14  2  0
 14 15  1  0
 15 16  2  0
 16 17  1  0
 16 18  1  0
 18 19  2  0
 12 20  2  0
 20 21  1  0
 21 22  1  0
 22 23  1  0
 23 24  1  0
 24 25  1  0
 25 26  1  0
 26 27  1  0
 25 28  1  0
 10 29  1  0
 29 30  2  0
 30 31  1  0
 31 32  2  0
  7  2  1  0
 31  8  1  0
 22 11  2  0
 19 13  1  0
 28 21  1  0
  1 33  1  0
  1 34  1  0
  1 35  1  0
  3 36  1  0
  4 37  1  0
  5 38  1  0
  6 39  1  0
 14 40  1  0
 15 41  1  0
 18 42  1  0
 19 43  1  0
 23 44  1  0
 24 45  1  0
 24 46  1  0
 25 47  1  6
 26 48  1  0
 26 49  1  0
 27 50  1  0
 28 51  1  0
 28 52  1  0
 29 53  1  0
 30 54  1  0
M  END
$$$$
