
     RDKit          3D

 52 56  0  0  0  0  0  0  0  0999 V2000
   -1.4153    1.1232   -3.7888 C   0  0  0  0  0  0  0  0  0  0  0  0
   -2.4688    0.9612   -2.8605 O   0  0  0  0  0  0  0  0  0  0  0  0
   -2.2424    0.3436   -1.6427 C   0  0  0  0  0  0  0  0  0  0  0  0
   -0.9666   -0.1201   -1.3334 C   0  0  0  0  0  0  0  0  0  0  0  0
   -0.7230   -0.7337   -0.1336 C   0  0  0  0  0  0  0  0  0  0  0  0
    0.5942   -1.2621    0.2989 C   0  0  2  0  0  0  0  0  0  0  0  0
    1.4191   -0.2086    0.9480 C   0  0  0  0  0  0  0  0  0  0  0  0
    0.7665    0.7148    1.7592 C   0  0  0  0  0  0  0  0  0  0  0  0
    1.5013    1.6958    2.3771 C   0  0  0  0  0  0  0  0  0  0  0  0
    2.8672    1.7750    2.2038 C   0  0  0  0  0  0  0  0  0  0  0  0
    3.4926    0.8292    1.3801 C   0  0  0  0  0  0  0  0  0  0  0  0
    2.7748   -0.1589    0.7538 C   0  0  0  0  0  0  0  0  0  0  0  0
    3.4233   -1.1563   -0.1210 C   0  0  2  0  0  0  0  0  0  0  0  0
    4.7000   -0.7994   -0.5149 O   0  0  0  0  0  0  0  0  0  0  0  0
    2.4582   -1.2959   -1.2653 C   0  0  1  0  0  0  0  0  0  0  0  0
    2.8787   -2.1877   -2.3698 C   0  0  0  0  0  0  0  0  0  0  0  0
    1.5983   -2.5752   -2.8973 O   0  0  0  0  0  0  0  0  0  0  0  0
    0.6188   -2.4804   -1.9098 C   0  0  0  0  0  0  0  0  0  0  0  0
   -0.6054   -2.7075   -2.1514 O   0  0  0  0  0  0  0  0  0  0  0  0
    1.3070   -2.0979   -0.6825 C   0  0  2  0  0  0  0  0  0  0  0  0
    3.3507    2.8503    2.9363 O   0  0  0  0  0  0  0  0  0  0  0  0
    2.2179    3.5686    3.3861 C   0  0  0  0  0  0  0  0  0  0  0  0
    1.1043    2.7152    3.2174 O   0  0  0  0  0  0  0  0  0  0  0  0
   -1.8064   -0.8583    0.7296 C   0  0  0  0  0  0  0  0  0  0  0  0
   -3.0727   -0.4188    0.4677 C   0  0  0  0  0  0  0  0  0  0  0  0
   -4.1300   -0.5665    1.3668 O   0  0  0  0  0  0  0  0  0  0  0  0
   -3.8411   -1.2078    2.6020 C   0  0  0  0  0  0  0  0  0  0  0  0
   -3.2801    0.1999   -0.7630 C   0  0  0  0  0  0  0  0  0  0  0  0
   -4.5705    0.6406   -1.0146 O   0  0  0  0  0  0  0  0  0  0  0  0
   -4.9861    1.9478   -0.6542 C   0  0  0  0  0  0  0  0  0  0  0  0
   -0.6425    1.7871   -3.3952 H   0  0  0  0  0  0  0  0  0  0  0  0
   -1.7842    1.3921   -4.7963 H   0  0  0  0  0  0  0  0  0  0  0  0
   -0.9223    0.1153   -3.9196 H   0  0  0  0  0  0  0  0  0  0  0  0
   -0.1456   -0.0034   -2.0373 H   0  0  0  0  0  0  0  0  0  0  0  0
    0.3767   -1.9671    1.1735 H   0  0  0  0  0  0  0  0  0  0  0  0
   -0.2973    0.6807    1.9152 H   0  0  0  0  0  0  0  0  0  0  0  0
    4.5618    0.8572    1.2187 H   0  0  0  0  0  0  0  0  0  0  0  0
    3.5028   -2.1130    0.4376 H   0  0  0  0  0  0  0  0  0  0  0  0
    5.3057   -1.0092    0.2588 H   0  0  0  0  0  0  0  0  0  0  0  0
    2.1517   -0.3125   -1.6019 H   0  0  0  0  0  0  0  0  0  0  0  0
    3.4573   -3.0550   -2.0408 H   0  0  0  0  0  0  0  0  0  0  0  0
    3.3839   -1.5801   -3.1456 H   0  0  0  0  0  0  0  0  0  0  0  0
    1.7241   -3.0444   -0.2447 H   0  0  0  0  0  0  0  0  0  0  0  0
    2.3742    3.8468    4.4510 H   0  0  0  0  0  0  0  0  0  0  0  0
    2.0317    4.4785    2.7708 H   0  0  0  0  0  0  0  0  0  0  0  0
   -1.6614   -1.3444    1.7065 H   0  0  0  0  0  0  0  0  0  0  0  0
   -3.0365   -0.6067    3.0851 H   0  0  0  0  0  0  0  0  0  0  0  0
   -3.4009   -2.1896    2.3552 H   0  0  0  0  0  0  0  0  0  0  0  0
   -4.7225   -1.2718    3.2526 H   0  0  0  0  0  0  0  0  0  0  0  0
   -4.8295    2.5951   -1.5329 H   0  0  0  0  0  0  0  0  0  0  0  0
   -6.0579    1.9337   -0.3969 H   0  0  0  0  0  0  0  0  0  0  0  0
   -4.3335    2.2805    0.1622 H   0  0  0  0  0  0  0  0  0  0  0  0
  1  2  1  0
  2  3  1  0
  3  4  2  0
  4  5  1  0
  5  6  1  0
  6  7  1  0
  7  8  2  0
  8  9  1  0
  9 10  2  0
 10 11  1  0
 11 12  2  0
 12 13  1  0
 13 14  1  0
 13 15  1  0
 15 16  1  0
 16 17  1  0
 17 18  1  0
 18 19  2  0
 18 20  1  0
 10 21  1  0
 21 22  1  0
 22 23  1  0
  5 24  2  0
 24 25  1  0
 25 26  1  0
 26 27  1  0
 25 28  2  0
 28 29  1  0
 29 30  1  0
 28  3  1  0
 20  6  1  0
 12  7  1  0
 20 15  1  0
 23  9  1  0
  1 31  1  0
  1 32  1  0
  1 33  1  0
  4 34  1  0
  6 35  1  1
  8 36  1  0
 11 37  1  0
 13 38  1  1
 14 39  1  0
 15 40  1  6
 16 41  1  0
 16 42  1  0
 20 43  1  1
 22 44  1  0
 22 45  1  0
 24 46  1  0
 27 47  1  0
 27 48  1  0
 27 49  1  0
 30 50  1  0
 30 51  1  0
 30 52  1  0
M  END
$$$$
