
     RDKit          3D

 46 50  0  0  0  0  0  0  0  0999 V2000
    3.5916   -3.4035   -2.7988 N   0  0  0  0  0  0  0  0  0  0  0  0
    2.6372   -2.5326   -2.1781 C   0  0  0  0  0  0  0  0  0  0  0  0
    1.4760   -2.5203   -2.6565 O   0  0  0  0  0  0  0  0  0  0  0  0
    3.0314   -1.7115   -1.0431 C   0  0  0  0  0  0  0  0  0  0  0  0
    4.2814   -1.6736   -0.4761 C   0  0  0  0  0  0  0  0  0  0  0  0
    4.2399   -0.8082    0.5328 N   0  0  0  0  0  0  0  0  0  0  0  0
    2.9844   -0.3181    0.5898 C   0  0  0  0  0  0  0  0  0  0  0  0
    2.4224    0.5963    1.4409 C   0  0  0  0  0  0  0  0  0  0  0  0
    1.1003    0.9331    1.2894 C   0  0  0  0  0  0  0  0  0  0  0  0
    0.3038    0.3825    0.3037 C   0  0  0  0  0  0  0  0  0  0  0  0
   -1.0594    0.7298    0.1493 C   0  0  0  0  0  0  0  0  0  0  0  0
   -2.1468   -0.1353    0.2505 C   0  0  0  0  0  0  0  0  0  0  0  0
   -2.0170   -1.5713    0.5354 C   0  0  0  0  0  0  0  0  0  0  0  0
   -2.4790   -2.5183   -0.3541 C   0  0  0  0  0  0  0  0  0  0  0  0
   -2.3763   -3.8742   -0.1292 C   0  0  0  0  0  0  0  0  0  0  0  0
   -1.7815   -4.3036    1.0447 C   0  0  0  0  0  0  0  0  0  0  0  0
   -1.6736   -5.6496    1.2802 F   0  0  0  0  0  0  0  0  0  0  0  0
   -1.3139   -3.3690    1.9454 C   0  0  0  0  0  0  0  0  0  0  0  0
   -0.5659   -3.9270    3.4214 Cl  0  0  0  0  0  0  0  0  0  0  0  0
   -1.4254   -1.9994    1.7030 C   0  0  0  0  0  0  0  0  0  0  0  0
   -3.2980    0.5133    0.0526 N   0  0  0  0  0  0  0  0  0  0  0  0
   -2.9541    1.8072   -0.1785 C   0  0  0  0  0  0  0  0  0  0  0  0
   -1.6180    1.9456   -0.1228 N   0  0  0  0  0  0  0  0  0  0  0  0
   -0.8231    3.1223   -0.3047 C   0  0  0  0  0  0  0  0  0  0  0  0
   -1.5148    4.1104   -1.2305 C   0  0  0  0  0  0  0  0  0  0  0  0
   -0.9615    5.2300   -0.3439 C   0  0  0  0  0  0  0  0  0  0  0  0
    0.2811    5.6660   -0.7208 F   0  0  0  0  0  0  0  0  0  0  0  0
   -1.8584    6.2111   -0.0485 F   0  0  0  0  0  0  0  0  0  0  0  0
   -0.9418    4.1865    0.7713 C   0  0  0  0  0  0  0  0  0  0  0  0
    0.9416   -0.5301   -0.5137 C   0  0  0  0  0  0  0  0  0  0  0  0
    2.2290   -0.8645   -0.3736 N   0  0  0  0  0  0  0  0  0  0  0  0
    3.6189   -4.4286   -2.6400 H   0  0  0  0  0  0  0  0  0  0  0  0
    4.2861   -2.9814   -3.4374 H   0  0  0  0  0  0  0  0  0  0  0  0
    5.1692   -2.2393   -0.7761 H   0  0  0  0  0  0  0  0  0  0  0  0
    2.9835    1.0822    2.2522 H   0  0  0  0  0  0  0  0  0  0  0  0
    0.6674    1.6401    1.9494 H   0  0  0  0  0  0  0  0  0  0  0  0
   -2.9479   -2.1880   -1.2783 H   0  0  0  0  0  0  0  0  0  0  0  0
   -2.7356   -4.6259   -0.8202 H   0  0  0  0  0  0  0  0  0  0  0  0
   -1.0638   -1.2563    2.3987 H   0  0  0  0  0  0  0  0  0  0  0  0
   -3.6775    2.5882   -0.3754 H   0  0  0  0  0  0  0  0  0  0  0  0
    0.2016    2.9728   -0.6933 H   0  0  0  0  0  0  0  0  0  0  0  0
   -2.6194    4.1384   -1.1555 H   0  0  0  0  0  0  0  0  0  0  0  0
   -1.1078    4.1261   -2.2615 H   0  0  0  0  0  0  0  0  0  0  0  0
    0.0065    4.3148    1.3495 H   0  0  0  0  0  0  0  0  0  0  0  0
   -1.8627    4.1186    1.3462 H   0  0  0  0  0  0  0  0  0  0  0  0
    0.3697   -0.9858   -1.2939 H   0  0  0  0  0  0  0  0  0  0  0  0
  1  2  1  0
  2  3  2  0
  2  4  1  0
  4  5  2  0
  5  6  1  0
  6  7  2  0
  7  8  1  0
  8  9  2  0
  9 10  1  0
 10 11  1  0
 11 12  2  0
 12 13  1  0
 13 14  2  0
 14 15  1  0
 15 16  2  0
 16 17  1  0
 16 18  1  0
 18 19  1  0
 18 20  2  0
 12 21  1  0
 21 22  2  0
 22 23  1  0
 23 24  1  0
 24 25  1  0
 25 26  1  0
 26 27  1  0
 26 28  1  0
 26 29  1  0
 10 30  2  0
 30 31  1  0
 31  4  1  0
 31  7  1  0
 23 11  1  0
 29 24  1  0
 20 13  1  0
  1 32  1  0
  1 33  1  0
  5 34  1  0
  8 35  1  0
  9 36  1  0
 14 37  1  0
 15 38  1  0
 20 39  1  0
 22 40  1  0
 24 41  1  0
 25 42  1  0
 25 43  1  0
 29 44  1  0
 29 45  1  0
 30 46  1  0
M  END
$$$$
