
     RDKit          3D

 53 52  0  0  0  0  0  0  0  0999 V2000
    6.1474    1.3280   -0.5376 C   0  0  0  0  0  0  0  0  0  0  0  0
    7.5782    1.2157   -0.3427 C   0  0  0  0  0  0  0  0  0  0  0  0
    8.8886    0.9544   -0.0641 O   0  0  0  0  0  0  0  0  0  0  0  0
    8.3281    2.1146   -0.8467 O   0  0  0  0  0  0  0  0  0  0  0  0
    5.3754    0.3740   -0.0035 C   0  0  0  0  0  0  0  0  0  0  0  0
    6.1527   -0.6429    0.7033 C   0  0  0  0  0  0  0  0  0  0  0  0
    3.9738    0.5902   -0.2660 C   0  0  0  0  0  0  0  0  0  0  0  0
    2.9180   -0.0845    0.1137 C   0  0  0  0  0  0  0  0  0  0  0  0
    3.1461   -1.2818    0.9598 C   0  0  0  0  0  0  0  0  0  0  0  0
    1.4948    0.2382   -0.2292 C   0  0  0  0  0  0  0  0  0  0  0  0
    0.9006   -0.9152   -0.9707 C   0  0  2  0  0  0  0  0  0  0  0  0
    1.6853   -1.1997   -2.2622 C   0  0  0  0  0  0  0  0  0  0  0  0
   -0.5153   -0.6192   -1.3358 C   0  0  0  0  0  0  0  0  0  0  0  0
   -1.3847   -0.3647   -0.1298 C   0  0  0  0  0  0  0  0  0  0  0  0
   -2.8071   -0.0914   -0.6057 C   0  0  0  0  0  0  0  0  0  0  0  0
   -3.7458    0.1773    0.5757 C   0  0  0  0  0  0  0  0  0  0  0  0
   -5.0905    0.4263   -0.0138 C   0  0  1  0  0  0  0  0  0  0  0  0
   -5.4374   -0.7438   -0.7238 O   0  0  0  0  0  0  0  0  0  0  0  0
   -6.1760    0.6404    0.9958 C   0  0  1  0  0  0  0  0  0  0  0  0
   -5.8823    1.8355    1.8788 C   0  0  0  0  0  0  0  0  0  0  0  0
   -6.9104    2.0088    2.8078 O   0  0  0  0  0  0  0  0  0  0  0  0
   -7.4374    0.9272    0.2581 C   0  0  0  0  0  0  0  0  0  0  0  0
   -8.4132    0.2103    0.3833 O   0  0  0  0  0  0  0  0  0  0  0  0
    5.7954    2.1912   -1.1120 H   0  0  0  0  0  0  0  0  0  0  0  0
    9.1726    0.6529    0.8777 H   0  0  0  0  0  0  0  0  0  0  0  0
    5.7314   -1.6505    0.4821 H   0  0  0  0  0  0  0  0  0  0  0  0
    7.2307   -0.6212    0.4028 H   0  0  0  0  0  0  0  0  0  0  0  0
    6.1413   -0.4833    1.7815 H   0  0  0  0  0  0  0  0  0  0  0  0
    3.6274    1.4275   -0.8725 H   0  0  0  0  0  0  0  0  0  0  0  0
    2.1838   -1.5747    1.4789 H   0  0  0  0  0  0  0  0  0  0  0  0
    3.4439   -2.1608    0.3693 H   0  0  0  0  0  0  0  0  0  0  0  0
    3.8528   -1.0839    1.7696 H   0  0  0  0  0  0  0  0  0  0  0  0
    1.4045    1.1681   -0.8108 H   0  0  0  0  0  0  0  0  0  0  0  0
    0.9479    0.3735    0.7417 H   0  0  0  0  0  0  0  0  0  0  0  0
    0.9527   -1.8392   -0.3593 H   0  0  0  0  0  0  0  0  0  0  0  0
    1.4578   -0.4065   -3.0062 H   0  0  0  0  0  0  0  0  0  0  0  0
    1.3741   -2.2104   -2.5947 H   0  0  0  0  0  0  0  0  0  0  0  0
    2.7559   -1.2431   -2.0436 H   0  0  0  0  0  0  0  0  0  0  0  0
   -0.9288   -1.4684   -1.9487 H   0  0  0  0  0  0  0  0  0  0  0  0
   -0.5573    0.2571   -2.0185 H   0  0  0  0  0  0  0  0  0  0  0  0
   -1.0081    0.4910    0.4668 H   0  0  0  0  0  0  0  0  0  0  0  0
   -1.3956   -1.2460    0.5430 H   0  0  0  0  0  0  0  0  0  0  0  0
   -3.1539   -0.9683   -1.1883 H   0  0  0  0  0  0  0  0  0  0  0  0
   -2.7959    0.7717   -1.3016 H   0  0  0  0  0  0  0  0  0  0  0  0
   -3.7537   -0.7559    1.1941 H   0  0  0  0  0  0  0  0  0  0  0  0
   -3.3358    0.9635    1.2081 H   0  0  0  0  0  0  0  0  0  0  0  0
   -5.0789    1.2563   -0.7164 H   0  0  0  0  0  0  0  0  0  0  0  0
   -5.2150   -0.6538   -1.6741 H   0  0  0  0  0  0  0  0  0  0  0  0
   -6.3409   -0.2574    1.6430 H   0  0  0  0  0  0  0  0  0  0  0  0
   -4.8917    1.6754    2.3475 H   0  0  0  0  0  0  0  0  0  0  0  0
   -5.8167    2.7445    1.2249 H   0  0  0  0  0  0  0  0  0  0  0  0
   -7.0903    1.0948    3.1733 H   0  0  0  0  0  0  0  0  0  0  0  0
   -7.4986    1.7836   -0.4022 H   0  0  0  0  0  0  0  0  0  0  0  0
  1  2  1  0
  2  3  1  0
  2  4  2  0
  1  5  2  0
  5  6  1  0
  5  7  1  0
  7  8  2  0
  8  9  1  0
  8 10  1  0
 10 11  1  0
 11 12  1  0
 11 13  1  0
 13 14  1  0
 14 15  1  0
 15 16  1  0
 16 17  1  0
 17 18  1  0
 17 19  1  0
 19 20  1  0
 20 21  1  0
 19 22  1  0
 22 23  2  0
  1 24  1  0
  3 25  1  0
  6 26  1  0
  6 27  1  0
  6 28  1  0
  7 29  1  0
  9 30  1  0
  9 31  1  0
  9 32  1  0
 10 33  1  0
 10 34  1  0
 11 35  1  1
 12 36  1  0
 12 37  1  0
 12 38  1  0
 13 39  1  0
 13 40  1  0
 14 41  1  0
 14 42  1  0
 15 43  1  0
 15 44  1  0
 16 45  1  0
 16 46  1  0
 17 47  1  6
 18 48  1  0
 19 49  1  1
 20 50  1  0
 20 51  1  0
 21 52  1  0
 22 53  1  0
M  END
$$$$
