
     RDKit          3D

 65 68  0  0  0  0  0  0  0  0999 V2000
    7.8942   -3.4554    0.1170 C   0  0  0  0  0  0  0  0  0  0  0  0
    8.1908   -3.2005    1.4489 O   0  0  0  0  0  0  0  0  0  0  0  0
    9.0449   -2.1125    1.5371 C   0  0  0  0  0  0  0  0  0  0  0  0
    8.4616   -0.8435    0.9593 C   0  0  2  0  0  0  0  0  0  0  0  0
    9.4918    0.2694    1.2309 C   0  0  0  0  0  0  0  0  0  0  0  0
    7.2839   -0.4597    1.5839 O   0  0  0  0  0  0  0  0  0  0  0  0
    6.0857   -0.1166    1.0029 C   0  0  0  0  0  0  0  0  0  0  0  0
    5.8563   -0.0964   -0.3501 C   0  0  0  0  0  0  0  0  0  0  0  0
    4.6277    0.2600   -0.8219 N   0  0  0  0  0  0  0  0  0  0  0  0
    3.6090    0.5993   -0.0077 C   0  0  0  0  0  0  0  0  0  0  0  0
    2.3002    0.9781   -0.5569 C   0  0  0  0  0  0  0  0  0  0  0  0
    2.1200    0.9864   -1.9229 F   0  0  0  0  0  0  0  0  0  0  0  0
    1.2633    1.3080    0.1751 C   0  0  0  0  0  0  0  0  0  0  0  0
   -0.0210    1.6804   -0.3966 C   0  0  0  0  0  0  0  0  0  0  0  0
   -0.0301    2.4968   -1.4970 C   0  0  0  0  0  0  0  0  0  0  0  0
   -1.2302    2.8445   -2.0619 C   0  0  0  0  0  0  0  0  0  0  0  0
   -2.3926    2.3853   -1.5357 C   0  0  0  0  0  0  0  0  0  0  0  0
   -3.5386    2.7814   -2.1017 F   0  0  0  0  0  0  0  0  0  0  0  0
   -2.4589    1.5486   -0.4152 C   0  0  0  0  0  0  0  0  0  0  0  0
   -3.7528    1.0373    0.0892 C   0  0  1  0  0  0  0  0  0  0  0  0
   -3.3726    0.5752    1.5523 C   0  0  0  0  0  0  0  0  0  0  0  0
   -4.6195    2.1201    0.3977 N   0  0  0  0  0  0  0  0  0  0  0  0
   -5.8224    2.3177    0.1287 C   0  0  0  0  0  0  0  0  0  0  0  0
   -6.4600    3.5115    0.5672 N   0  0  0  0  0  0  0  0  0  0  0  0
   -6.6988    1.0743   -0.8054 S   0  0  0  0  0  0  0  0  0  0  0  0
   -5.6252   -0.3487   -0.8933 C   0  0  1  0  0  0  0  0  0  0  0  0
   -6.3069   -1.6549   -0.6302 C   0  0  0  0  0  0  0  0  0  0  0  0
   -5.9793   -2.6465   -1.3672 O   0  0  0  0  0  0  0  0  0  0  0  0
   -7.2657   -1.8383    0.3634 N   0  0  0  0  0  0  0  0  0  0  0  0
   -7.6580   -0.7348    1.2145 C   0  0  0  0  0  0  0  0  0  0  0  0
   -7.8791   -3.1342    0.5545 C   0  0  0  0  0  0  0  0  0  0  0  0
   -4.6081   -0.2850   -2.0199 C   0  0  0  0  0  0  0  0  0  0  0  0
   -4.2156   -0.1592   -0.5701 C   0  0  1  0  0  0  0  0  0  0  0  0
   -1.2211    1.2307    0.1133 C   0  0  0  0  0  0  0  0  0  0  0  0
    3.8649    0.5704    1.3345 C   0  0  0  0  0  0  0  0  0  0  0  0
    5.0777    0.2200    1.8301 N   0  0  0  0  0  0  0  0  0  0  0  0
    8.8156   -3.6730   -0.4632 H   0  0  0  0  0  0  0  0  0  0  0  0
    7.1752   -4.3105    0.0706 H   0  0  0  0  0  0  0  0  0  0  0  0
    7.3839   -2.6113   -0.3693 H   0  0  0  0  0  0  0  0  0  0  0  0
    9.4111   -1.9751    2.5660 H   0  0  0  0  0  0  0  0  0  0  0  0
    9.9336   -2.3784    0.8918 H   0  0  0  0  0  0  0  0  0  0  0  0
    8.3799   -0.8773   -0.1392 H   0  0  0  0  0  0  0  0  0  0  0  0
    9.4423    0.5550    2.2870 H   0  0  0  0  0  0  0  0  0  0  0  0
    9.2808    1.1487    0.5939 H   0  0  0  0  0  0  0  0  0  0  0  0
   10.5078   -0.1194    1.0030 H   0  0  0  0  0  0  0  0  0  0  0  0
    6.6560   -0.3644   -1.0247 H   0  0  0  0  0  0  0  0  0  0  0  0
    1.3322    1.3127    1.2532 H   0  0  0  0  0  0  0  0  0  0  0  0
    0.9145    2.8836   -1.9311 H   0  0  0  0  0  0  0  0  0  0  0  0
   -1.2385    3.5015   -2.9472 H   0  0  0  0  0  0  0  0  0  0  0  0
   -4.3251    0.4992    2.1319 H   0  0  0  0  0  0  0  0  0  0  0  0
   -2.7474    1.3522    1.9918 H   0  0  0  0  0  0  0  0  0  0  0  0
   -2.8713   -0.4004    1.4992 H   0  0  0  0  0  0  0  0  0  0  0  0
   -6.2071    4.4536    0.1937 H   0  0  0  0  0  0  0  0  0  0  0  0
   -7.2100    3.4774    1.2862 H   0  0  0  0  0  0  0  0  0  0  0  0
   -8.2010   -1.0894    2.1276 H   0  0  0  0  0  0  0  0  0  0  0  0
   -8.4057   -0.0614    0.7016 H   0  0  0  0  0  0  0  0  0  0  0  0
   -6.7967   -0.1392    1.5739 H   0  0  0  0  0  0  0  0  0  0  0  0
   -8.0378   -3.3738    1.6283 H   0  0  0  0  0  0  0  0  0  0  0  0
   -7.3376   -3.9348    0.0122 H   0  0  0  0  0  0  0  0  0  0  0  0
   -8.9184   -3.1159    0.1125 H   0  0  0  0  0  0  0  0  0  0  0  0
   -4.6363    0.5410   -2.7183 H   0  0  0  0  0  0  0  0  0  0  0  0
   -4.4990   -1.2700   -2.5327 H   0  0  0  0  0  0  0  0  0  0  0  0
   -3.7231   -1.1377   -0.2244 H   0  0  0  0  0  0  0  0  0  0  0  0
   -1.2004    0.5710    0.9974 H   0  0  0  0  0  0  0  0  0  0  0  0
    3.1075    0.8273    2.0467 H   0  0  0  0  0  0  0  0  0  0  0  0
  1  2  1  0
  2  3  1  0
  3  4  1  0
  4  5  1  0
  4  6  1  0
  6  7  1  0
  7  8  2  0
  8  9  1  0
  9 10  2  0
 10 11  1  0
 11 12  1  0
 11 13  2  0
 13 14  1  0
 14 15  2  0
 15 16  1  0
 16 17  2  0
 17 18  1  0
 17 19  1  0
 19 20  1  0
 20 21  1  1
 20 22  1  0
 22 23  2  0
 23 24  1  0
 23 25  1  0
 25 26  1  0
 26 27  1  1
 27 28  2  0
 27 29  1  0
 29 30  1  0
 29 31  1  0
 26 32  1  0
 32 33  1  0
 19 34  2  0
 10 35  1  0
 35 36  2  0
 36  7  1  0
 34 14  1  0
 33 20  1  0
 33 26  1  0
  1 37  1  0
  1 38  1  0
  1 39  1  0
  3 40  1  0
  3 41  1  0
  4 42  1  6
  5 43  1  0
  5 44  1  0
  5 45  1  0
  8 46  1  0
 13 47  1  0
 15 48  1  0
 16 49  1  0
 21 50  1  0
 21 51  1  0
 21 52  1  0
 24 53  1  0
 24 54  1  0
 30 55  1  0
 30 56  1  0
 30 57  1  0
 31 58  1  0
 31 59  1  0
 31 60  1  0
 32 61  1  0
 32 62  1  0
 33 63  1  1
 34 64  1  0
 35 65  1  0
M  END
$$$$
