
     RDKit          3D

 30 29  0  0  0  0  0  0  0  0999 V2000
    4.7644    1.1811   -0.1531 C   0  0  0  0  0  0  0  0  0  0  0  0
    3.4636    0.6499   -0.6884 C   0  0  0  0  0  0  0  0  0  0  0  0
    3.0824    1.0945   -1.8281 N   0  0  0  0  0  0  0  0  0  0  0  0
    2.6876   -0.2985    0.0260 N   0  0  0  0  0  0  0  0  0  0  0  0
    1.2354   -0.3788   -0.2236 C   0  0  0  0  0  0  0  0  0  0  0  0
    0.5879   -1.4260    0.6122 C   0  0  0  0  0  0  0  0  0  0  0  0
   -0.8898   -1.4985    0.3289 C   0  0  1  0  0  0  0  0  0  0  0  0
   -1.5178   -2.4615    1.0899 F   0  0  0  0  0  0  0  0  0  0  0  0
   -1.5302   -0.1590    0.4609 C   0  0  0  0  0  0  0  0  0  0  0  0
   -3.0318   -0.2168    0.1843 C   0  0  2  0  0  0  0  0  0  0  0  0
   -3.2335   -0.6930   -1.1521 N   0  0  0  0  0  0  0  0  0  0  0  0
   -3.5713    1.1567    0.3241 C   0  0  0  0  0  0  0  0  0  0  0  0
   -4.1893    1.9064   -0.6715 O   0  0  0  0  0  0  0  0  0  0  0  0
   -3.4754    1.7260    1.4404 O   0  0  0  0  0  0  0  0  0  0  0  0
    5.4827    1.2368   -0.9815 H   0  0  0  0  0  0  0  0  0  0  0  0
    4.5347    2.2493    0.1129 H   0  0  0  0  0  0  0  0  0  0  0  0
    5.0829    0.6112    0.7202 H   0  0  0  0  0  0  0  0  0  0  0  0
    2.2134    0.8134   -2.3065 H   0  0  0  0  0  0  0  0  0  0  0  0
    3.1816   -0.9203    0.7188 H   0  0  0  0  0  0  0  0  0  0  0  0
    1.0793   -0.5497   -1.2981 H   0  0  0  0  0  0  0  0  0  0  0  0
    0.8699    0.6357    0.1168 H   0  0  0  0  0  0  0  0  0  0  0  0
    0.6555   -1.1215    1.6989 H   0  0  0  0  0  0  0  0  0  0  0  0
    1.0641   -2.4204    0.5311 H   0  0  0  0  0  0  0  0  0  0  0  0
   -0.9679   -1.8340   -0.7443 H   0  0  0  0  0  0  0  0  0  0  0  0
   -1.0895    0.5561   -0.2804 H   0  0  0  0  0  0  0  0  0  0  0  0
   -1.4105    0.3024    1.4529 H   0  0  0  0  0  0  0  0  0  0  0  0
   -3.5143   -0.8570    0.9498 H   0  0  0  0  0  0  0  0  0  0  0  0
   -4.2309   -0.4958   -1.4014 H   0  0  0  0  0  0  0  0  0  0  0  0
   -2.9741   -1.6924   -1.1964 H   0  0  0  0  0  0  0  0  0  0  0  0
   -4.3592    2.9037   -0.5566 H   0  0  0  0  0  0  0  0  0  0  0  0
  1  2  1  0
  2  3  2  3
  2  4  1  0
  4  5  1  0
  5  6  1  0
  6  7  1  0
  7  8  1  0
  7  9  1  0
  9 10  1  0
 10 11  1  0
 10 12  1  0
 12 13  1  0
 12 14  2  0
  1 15  1  0
  1 16  1  0
  1 17  1  0
  3 18  1  0
  4 19  1  0
  5 20  1  0
  5 21  1  0
  6 22  1  0
  6 23  1  0
  7 24  1  6
  9 25  1  0
  9 26  1  0
 10 27  1  1
 11 28  1  0
 11 29  1  0
 13 30  1  0
M  END
$$$$
