
     RDKit          3D

 72 79  0  0  0  0  0  0  0  0999 V2000
   -5.5469   -4.1316   -0.3240 C   0  0  0  0  0  0  0  0  0  0  0  0
   -5.0859   -3.4687    0.7834 C   0  0  0  0  0  0  0  0  0  0  0  0
   -5.0575   -2.0667    0.8137 C   0  0  0  0  0  0  0  0  0  0  0  0
   -5.4927   -1.3332   -0.2692 C   0  0  0  0  0  0  0  0  0  0  0  0
   -5.4442    0.1151   -0.1905 C   0  0  0  0  0  0  0  0  0  0  0  0
   -6.6038    0.8704   -0.2589 C   0  0  0  0  0  0  0  0  0  0  0  0
   -6.5825    2.2412   -0.1919 C   0  0  0  0  0  0  0  0  0  0  0  0
   -5.3502    2.8658   -0.0517 C   0  0  0  0  0  0  0  0  0  0  0  0
   -5.3427    4.2504    0.0148 C   0  0  0  0  0  0  0  0  0  0  0  0
   -6.5229    4.9858   -0.0561 C   0  0  0  0  0  0  0  0  0  0  0  0
   -7.6926    4.3376   -0.1917 N   0  0  0  0  0  0  0  0  0  0  0  0
   -8.9617    4.7674   -0.2844 C   0  0  0  0  0  0  0  0  0  0  0  0
   -9.7982    3.7302   -0.4083 N   0  0  0  0  0  0  0  0  0  0  0  0
   -9.0413    2.6456   -0.3925 N   0  0  0  0  0  0  0  0  0  0  0  0
   -7.7512    2.9988   -0.2607 C   0  0  0  0  0  0  0  0  0  0  0  0
   -4.2322    2.1514    0.0149 N   0  0  0  0  0  0  0  0  0  0  0  0
   -4.2492    0.7859   -0.0512 C   0  0  0  0  0  0  0  0  0  0  0  0
   -3.0280    0.0088    0.0284 C   0  0  0  0  0  0  0  0  0  0  0  0
   -2.2224    0.1532    1.1365 C   0  0  0  0  0  0  0  0  0  0  0  0
   -1.0414   -0.5974    1.2153 C   0  0  0  0  0  0  0  0  0  0  0  0
   -0.6809   -1.4644    0.2145 C   0  0  0  0  0  0  0  0  0  0  0  0
    0.5754   -2.2244    0.3323 C   0  0  0  0  0  0  0  0  0  0  0  0
    1.6945   -1.6174   -0.2684 N   0  0  0  0  0  0  0  0  0  0  0  0
    2.9057   -2.3346   -0.1219 C   0  0  0  0  0  0  0  0  0  0  0  0
    3.7051   -1.7633    1.0225 C   0  0  0  0  0  0  0  0  0  0  0  0
    4.1400   -0.3464    0.7427 C   0  0  0  0  0  0  0  0  0  0  0  0
    5.5646   -0.3391    0.2894 C   0  0  0  0  0  0  0  0  0  0  0  0
    6.0311   -0.9523   -0.8173 N   0  0  0  0  0  0  0  0  0  0  0  0
    7.3027   -0.7530   -0.9243 N   0  0  0  0  0  0  0  0  0  0  0  0
    7.7272   -0.0030    0.1028 C   0  0  0  0  0  0  0  0  0  0  0  0
    9.0810    0.4392    0.3448 C   0  0  0  0  0  0  0  0  0  0  0  0
   10.0809    0.0906   -0.5230 C   0  0  0  0  0  0  0  0  0  0  0  0
   11.3912    0.4976   -0.3200 C   0  0  0  0  0  0  0  0  0  0  0  0
   11.6911    1.2706    0.7811 C   0  0  0  0  0  0  0  0  0  0  0  0
   10.6600    1.6091    1.6433 C   0  0  0  0  0  0  0  0  0  0  0  0
    9.3912    1.1904    1.4086 N   0  0  0  0  0  0  0  0  0  0  0  0
    6.6182    0.2486    0.8578 N   0  0  0  0  0  0  0  0  0  0  0  0
    3.2216    0.3470   -0.2238 C   0  0  0  0  0  0  0  0  0  0  0  0
    1.8460   -0.2391   -0.2719 C   0  0  0  0  0  0  0  0  0  0  0  0
   -1.4888   -1.6025   -0.8853 C   0  0  0  0  0  0  0  0  0  0  0  0
   -2.6535   -0.8637   -0.9653 C   0  0  0  0  0  0  0  0  0  0  0  0
   -5.9554   -2.0008   -1.3805 C   0  0  0  0  0  0  0  0  0  0  0  0
   -5.9782   -3.3808   -1.3980 C   0  0  0  0  0  0  0  0  0  0  0  0
   -5.5717   -5.2293   -0.3541 H   0  0  0  0  0  0  0  0  0  0  0  0
   -4.7452   -4.0453    1.6311 H   0  0  0  0  0  0  0  0  0  0  0  0
   -4.6787   -1.6289    1.7271 H   0  0  0  0  0  0  0  0  0  0  0  0
   -7.5386    0.3581   -0.3670 H   0  0  0  0  0  0  0  0  0  0  0  0
   -4.3863    4.7431    0.1239 H   0  0  0  0  0  0  0  0  0  0  0  0
   -6.4753    6.0649   -0.0005 H   0  0  0  0  0  0  0  0  0  0  0  0
   -9.2308    5.8251   -0.2579 H   0  0  0  0  0  0  0  0  0  0  0  0
   -2.5004    0.8333    1.9268 H   0  0  0  0  0  0  0  0  0  0  0  0
   -0.4169   -0.4795    2.0911 H   0  0  0  0  0  0  0  0  0  0  0  0
    0.3849   -3.2124   -0.1712 H   0  0  0  0  0  0  0  0  0  0  0  0
    0.8222   -2.4541    1.3905 H   0  0  0  0  0  0  0  0  0  0  0  0
    2.7735   -3.4150    0.0947 H   0  0  0  0  0  0  0  0  0  0  0  0
    3.4898   -2.2236   -1.0674 H   0  0  0  0  0  0  0  0  0  0  0  0
    3.0995   -1.8545    1.9452 H   0  0  0  0  0  0  0  0  0  0  0  0
    4.5969   -2.4070    1.1537 H   0  0  0  0  0  0  0  0  0  0  0  0
    4.1111    0.2046    1.6938 H   0  0  0  0  0  0  0  0  0  0  0  0
    9.8376   -0.5129   -1.3797 H   0  0  0  0  0  0  0  0  0  0  0  0
   12.1759    0.2270   -0.9964 H   0  0  0  0  0  0  0  0  0  0  0  0
   12.7008    1.6076    0.9735 H   0  0  0  0  0  0  0  0  0  0  0  0
   10.8930    2.2160    2.5081 H   0  0  0  0  0  0  0  0  0  0  0  0
    6.6173    0.8090    1.7293 H   0  0  0  0  0  0  0  0  0  0  0  0
    3.6645    0.2461   -1.2374 H   0  0  0  0  0  0  0  0  0  0  0  0
    3.1257    1.4357   -0.0367 H   0  0  0  0  0  0  0  0  0  0  0  0
    1.3502    0.1622   -1.2114 H   0  0  0  0  0  0  0  0  0  0  0  0
    1.2347    0.2595    0.5418 H   0  0  0  0  0  0  0  0  0  0  0  0
   -1.2280   -2.2893   -1.7051 H   0  0  0  0  0  0  0  0  0  0  0  0
   -3.2662   -1.0105   -1.8671 H   0  0  0  0  0  0  0  0  0  0  0  0
   -6.3110   -1.4589   -2.2640 H   0  0  0  0  0  0  0  0  0  0  0  0
   -6.3518   -3.8890   -2.2954 H   0  0  0  0  0  0  0  0  0  0  0  0
  1  2  2  0
  2  3  1  0
  3  4  2  0
  4  5  1  0
  5  6  2  0
  6  7  1  0
  7  8  2  0
  8  9  1  0
  9 10  2  0
 10 11  1  0
 11 12  1  0
 12 13  2  0
 13 14  1  0
 14 15  2  0
  8 16  1  0
 16 17  2  0
 17 18  1  0
 18 19  2  0
 19 20  1  0
 20 21  2  0
 21 22  1  0
 22 23  1  0
 23 24  1  0
 24 25  1  0
 25 26  1  0
 26 27  1  0
 27 28  2  0
 28 29  1  0
 29 30  2  0
 30 31  1  0
 31 32  2  0
 32 33  1  0
 33 34  2  0
 34 35  1  0
 35 36  2  0
 30 37  1  0
 26 38  1  0
 38 39  1  0
 21 40  1  0
 40 41  2  0
  4 42  1  0
 42 43  2  0
 43  1  1  0
 17  5  1  0
 41 18  1  0
 15  7  1  0
 39 23  1  0
 15 11  1  0
 37 27  1  0
 36 31  1  0
  1 44  1  0
  2 45  1  0
  3 46  1  0
  6 47  1  0
  9 48  1  0
 10 49  1  0
 12 50  1  0
 19 51  1  0
 20 52  1  0
 22 53  1  0
 22 54  1  0
 24 55  1  0
 24 56  1  0
 25 57  1  0
 25 58  1  0
 26 59  1  0
 32 60  1  0
 33 61  1  0
 34 62  1  0
 35 63  1  0
 37 64  1  0
 38 65  1  0
 38 66  1  0
 39 67  1  0
 39 68  1  0
 40 69  1  0
 41 70  1  0
 42 71  1  0
 43 72  1  0
M  END
$$$$
