
     RDKit          3D

 30 32  0  0  0  0  0  0  0  0999 V2000
    0.8979   -0.7901   -0.9427 O   0  0  0  0  0  0  0  0  0  0  0  0
    1.4429   -0.0646   -0.0182 C   0  0  0  0  0  0  0  0  0  0  0  0
    0.6082    0.6517    0.8511 N   0  0  0  0  0  0  0  0  0  0  0  0
   -0.8446    0.5281    0.6507 C   0  0  0  0  0  0  0  0  0  0  0  0
   -1.7502    0.9740    0.1048 N   0  0  0  0  0  0  0  0  0  0  0  0
   -3.0245    0.6300    0.1187 C   0  0  0  0  0  0  0  0  0  0  0  0
   -4.1150    1.1901   -0.5572 C   0  0  0  0  0  0  0  0  0  0  0  0
   -5.3749    0.6671   -0.3964 C   0  0  0  0  0  0  0  0  0  0  0  0
   -5.6637   -0.4067    0.4083 C   0  0  0  0  0  0  0  0  0  0  0  0
   -6.9414   -0.8810    0.5263 O   0  0  0  0  0  0  0  0  0  0  0  0
   -4.5867   -0.9785    1.0908 C   0  0  0  0  0  0  0  0  0  0  0  0
   -3.3202   -0.4498    0.9268 C   0  0  0  0  0  0  0  0  0  0  0  0
   -1.7128   -0.8775    1.6028 S   0  0  0  0  0  0  0  0  0  0  0  0
    2.8805   -0.0450    0.0517 C   0  0  0  0  0  0  0  0  0  0  0  0
    3.6185    0.6613    0.9583 C   0  0  0  0  0  0  0  0  0  0  0  0
    2.9821    1.4229    1.8904 F   0  0  0  0  0  0  0  0  0  0  0  0
    5.0321    0.6430    0.9801 C   0  0  0  0  0  0  0  0  0  0  0  0
    5.6964   -0.1186    0.0488 C   0  0  0  0  0  0  0  0  0  0  0  0
    4.9940   -0.8437   -0.8801 C   0  0  0  0  0  0  0  0  0  0  0  0
    5.6811   -1.6016   -1.8061 O   0  0  0  0  0  0  0  0  0  0  0  0
    3.6235   -0.8051   -0.8753 C   0  0  0  0  0  0  0  0  0  0  0  0
    2.9053   -1.5133   -1.7835 F   0  0  0  0  0  0  0  0  0  0  0  0
    0.9627    1.2427    1.6014 H   0  0  0  0  0  0  0  0  0  0  0  0
   -4.0129    2.0462   -1.2252 H   0  0  0  0  0  0  0  0  0  0  0  0
   -6.2105    1.1411   -0.9504 H   0  0  0  0  0  0  0  0  0  0  0  0
   -7.4632   -0.6002    1.3707 H   0  0  0  0  0  0  0  0  0  0  0  0
   -4.7229   -1.8230    1.7424 H   0  0  0  0  0  0  0  0  0  0  0  0
    5.5389    1.2373    1.7393 H   0  0  0  0  0  0  0  0  0  0  0  0
    6.7767   -0.1298    0.0689 H   0  0  0  0  0  0  0  0  0  0  0  0
    6.1026   -1.1073   -2.5978 H   0  0  0  0  0  0  0  0  0  0  0  0
  1  2  2  0
  2  3  1  0
  3  4  1  0
  4  5  2  0
  5  6  1  0
  6  7  2  0
  7  8  1  0
  8  9  2  0
  9 10  1  0
  9 11  1  0
 11 12  2  0
 12 13  1  0
  2 14  1  0
 14 15  2  0
 15 16  1  0
 15 17  1  0
 17 18  2  0
 18 19  1  0
 19 20  1  0
 19 21  2  0
 21 22  1  0
 13  4  1  0
 21 14  1  0
 12  6  1  0
  3 23  1  0
  7 24  1  0
  8 25  1  0
 10 26  1  0
 11 27  1  0
 17 28  1  0
 18 29  1  0
 20 30  1  0
M  END
$$$$
