
     RDKit          3D

 43 44  0  0  0  0  0  0  0  0999 V2000
    1.2411    0.0893   -0.0264 C   0  0  1  0  0  0  0  0  0  0  0  0
    1.2846    1.3283   -0.7140 N   0  0  0  0  0  0  0  0  0  0  0  0
    2.5092   -0.3725    0.6151 C   0  0  0  0  0  0  0  0  0  0  0  0
    3.6595   -0.5753   -0.2868 C   0  0  0  0  0  0  0  0  0  0  0  0
    4.8395   -1.0436    0.5651 C   0  0  0  0  0  0  0  0  0  0  0  0
    4.1404    0.6514   -1.0033 C   0  0  0  0  0  0  0  0  0  0  0  0
    0.1925    0.1955    1.0808 C   0  0  0  0  0  0  0  0  0  0  0  0
   -1.1081    0.4763    0.6453 N   0  0  0  0  0  0  0  0  0  0  0  0
   -1.3949    1.7264    0.0921 C   0  0  0  0  0  0  0  0  0  0  0  0
   -2.6945    2.2043    0.7092 C   0  0  0  0  0  0  0  0  0  0  0  0
   -3.7476    1.2218    0.2829 C   0  0  0  0  0  0  0  0  0  0  0  0
   -3.4174   -0.1409    0.4966 N   0  0  0  0  0  0  0  0  0  0  0  0
   -3.8932   -1.0734   -0.4798 C   0  0  0  0  0  0  0  0  0  0  0  0
   -3.1788   -2.3465   -0.0061 C   0  0  0  0  0  0  0  0  0  0  0  0
   -1.7676   -1.7672    0.1543 C   0  0  0  0  0  0  0  0  0  0  0  0
   -2.1120   -0.4608    0.8725 C   0  0  1  0  0  0  0  0  0  0  0  0
    0.8501   -0.6720   -0.7452 H   0  0  0  0  0  0  0  0  0  0  0  0
    1.8381    2.0845   -0.2662 H   0  0  0  0  0  0  0  0  0  0  0  0
    1.2709    1.3097   -1.7367 H   0  0  0  0  0  0  0  0  0  0  0  0
    2.7906    0.2968    1.4531 H   0  0  0  0  0  0  0  0  0  0  0  0
    2.2723   -1.3616    1.0768 H   0  0  0  0  0  0  0  0  0  0  0  0
    3.4594   -1.3663   -1.0146 H   0  0  0  0  0  0  0  0  0  0  0  0
    4.6347   -1.9903    1.0916 H   0  0  0  0  0  0  0  0  0  0  0  0
    5.7706   -1.0817   -0.0343 H   0  0  0  0  0  0  0  0  0  0  0  0
    4.9986   -0.2236    1.2986 H   0  0  0  0  0  0  0  0  0  0  0  0
    4.1762    1.5491   -0.3448 H   0  0  0  0  0  0  0  0  0  0  0  0
    5.2181    0.5217   -1.3133 H   0  0  0  0  0  0  0  0  0  0  0  0
    3.6095    0.8201   -1.9622 H   0  0  0  0  0  0  0  0  0  0  0  0
    0.1707   -0.7234    1.7133 H   0  0  0  0  0  0  0  0  0  0  0  0
    0.5301    1.0090    1.7808 H   0  0  0  0  0  0  0  0  0  0  0  0
   -1.5933    1.6655   -1.0116 H   0  0  0  0  0  0  0  0  0  0  0  0
   -0.5638    2.4267    0.3025 H   0  0  0  0  0  0  0  0  0  0  0  0
   -2.9819    3.2121    0.4090 H   0  0  0  0  0  0  0  0  0  0  0  0
   -2.5555    2.0917    1.8238 H   0  0  0  0  0  0  0  0  0  0  0  0
   -3.9448    1.3912   -0.8083 H   0  0  0  0  0  0  0  0  0  0  0  0
   -4.6930    1.4688    0.8071 H   0  0  0  0  0  0  0  0  0  0  0  0
   -4.9839   -1.2150   -0.4921 H   0  0  0  0  0  0  0  0  0  0  0  0
   -3.4795   -0.8713   -1.5034 H   0  0  0  0  0  0  0  0  0  0  0  0
   -3.2225   -3.1613   -0.7303 H   0  0  0  0  0  0  0  0  0  0  0  0
   -3.5414   -2.5702    0.9974 H   0  0  0  0  0  0  0  0  0  0  0  0
   -1.1091   -2.4091    0.7521 H   0  0  0  0  0  0  0  0  0  0  0  0
   -1.3640   -1.5827   -0.8643 H   0  0  0  0  0  0  0  0  0  0  0  0
   -2.1100   -0.7317    1.9679 H   0  0  0  0  0  0  0  0  0  0  0  0
  1  2  1  0
  1  3  1  0
  3  4  1  0
  4  5  1  0
  4  6  1  0
  1  7  1  0
  7  8  1  0
  8  9  1  0
  9 10  1  0
 10 11  1  0
 11 12  1  0
 12 13  1  0
 13 14  1  0
 14 15  1  0
 15 16  1  0
 16  8  1  0
 16 12  1  0
  1 17  1  6
  2 18  1  0
  2 19  1  0
  3 20  1  0
  3 21  1  0
  4 22  1  0
  5 23  1  0
  5 24  1  0
  5 25  1  0
  6 26  1  0
  6 27  1  0
  6 28  1  0
  7 29  1  0
  7 30  1  0
  9 31  1  0
  9 32  1  0
 10 33  1  0
 10 34  1  0
 11 35  1  0
 11 36  1  0
 13 37  1  0
 13 38  1  0
 14 39  1  0
 14 40  1  0
 15 41  1  0
 15 42  1  0
 16 43  1  1
M  END
$$$$
