
     RDKit          3D

 71 75  0  0  0  0  0  0  0  0999 V2000
   -0.9933   -6.6108   -1.7698 C   0  0  0  0  0  0  0  0  0  0  0  0
   -0.4664   -5.8842   -0.5700 C   0  0  0  0  0  0  0  0  0  0  0  0
   -0.9038   -4.4818   -0.6899 N   0  0  0  0  0  0  0  0  0  0  0  0
   -0.2332   -3.4912   -1.2956 C   0  0  0  0  0  0  0  0  0  0  0  0
   -0.9991   -2.3545   -1.1734 C   0  0  0  0  0  0  0  0  0  0  0  0
   -0.6094   -1.0650   -1.7040 C   0  0  0  0  0  0  0  0  0  0  0  0
   -1.3811   -0.4692   -2.6643 C   0  0  0  0  0  0  0  0  0  0  0  0
   -0.9622    0.7652   -3.1367 C   0  0  0  0  0  0  0  0  0  0  0  0
    0.1532    1.3426   -2.6665 N   0  0  0  0  0  0  0  0  0  0  0  0
    0.9213    0.7739   -1.7262 C   0  0  0  0  0  0  0  0  0  0  0  0
    2.0685    1.1330   -1.0932 N   0  0  0  0  0  0  0  0  0  0  0  0
    2.4448    0.1928   -0.2110 C   0  0  0  0  0  0  0  0  0  0  0  0
    3.6166    0.2122    0.6567 C   0  0  0  0  0  0  0  0  0  0  0  0
    3.9146   -0.8102    1.5293 C   0  0  0  0  0  0  0  0  0  0  0  0
    5.0229   -0.7792    2.3418 C   0  0  0  0  0  0  0  0  0  0  0  0
    5.8722    0.3096    2.2887 C   0  0  0  0  0  0  0  0  0  0  0  0
    5.6125    1.3558    1.4296 C   0  0  0  0  0  0  0  0  0  0  0  0
    6.5290    2.5350    1.3674 C   0  0  0  0  0  0  0  0  0  0  0  0
    7.5126    2.2865    0.3636 N   0  0  0  0  0  0  0  0  0  0  0  0
    8.4088    3.4322    0.2736 C   0  0  0  0  0  0  0  0  0  0  0  0
    8.2378    1.0825    0.6969 C   0  0  0  0  0  0  0  0  0  0  0  0
    4.4868    1.2785    0.6334 C   0  0  0  0  0  0  0  0  0  0  0  0
    1.4955   -0.8012   -0.2902 C   0  0  0  0  0  0  0  0  0  0  0  0
    0.5271   -0.4641   -1.2328 C   0  0  0  0  0  0  0  0  0  0  0  0
   -2.1503   -2.6718   -0.4812 C   0  0  0  0  0  0  0  0  0  0  0  0
   -3.1927   -1.7150   -0.1661 C   0  0  0  0  0  0  0  0  0  0  0  0
   -2.8817   -0.6580    0.6579 C   0  0  0  0  0  0  0  0  0  0  0  0
   -3.7983    0.3061    1.0160 C   0  0  0  0  0  0  0  0  0  0  0  0
   -5.0847    0.2302    0.5425 C   0  0  0  0  0  0  0  0  0  0  0  0
   -6.0915    1.1762    0.8569 N   0  0  0  0  0  0  0  0  0  0  0  0
   -6.3213    2.3427    0.0625 C   0  0  0  0  0  0  0  0  0  0  0  0
   -5.5716    2.4773   -0.9375 O   0  0  0  0  0  0  0  0  0  0  0  0
   -7.3328    3.2894    0.3832 N   0  0  0  0  0  0  0  0  0  0  0  0
   -8.1876    3.1221    1.5389 C   0  0  0  0  0  0  0  0  0  0  0  0
   -7.4744    4.4371   -0.5012 C   0  0  0  0  0  0  0  0  0  0  0  0
   -5.4169   -0.8224   -0.2855 C   0  0  0  0  0  0  0  0  0  0  0  0
   -4.4851   -1.7830   -0.6362 C   0  0  0  0  0  0  0  0  0  0  0  0
   -2.0289   -3.9824   -0.2168 N   0  0  0  0  0  0  0  0  0  0  0  0
   -0.3357   -7.4356   -2.1063 H   0  0  0  0  0  0  0  0  0  0  0  0
   -1.0627   -5.9098   -2.6365 H   0  0  0  0  0  0  0  0  0  0  0  0
   -2.0293   -6.9329   -1.5506 H   0  0  0  0  0  0  0  0  0  0  0  0
   -0.9494   -6.3117    0.3429 H   0  0  0  0  0  0  0  0  0  0  0  0
    0.6279   -5.8859   -0.4938 H   0  0  0  0  0  0  0  0  0  0  0  0
    0.7398   -3.6135   -1.7824 H   0  0  0  0  0  0  0  0  0  0  0  0
   -2.2702   -0.9741   -3.0108 H   0  0  0  0  0  0  0  0  0  0  0  0
   -1.5922    1.2130   -3.8961 H   0  0  0  0  0  0  0  0  0  0  0  0
    2.5546    2.0310   -1.3005 H   0  0  0  0  0  0  0  0  0  0  0  0
    3.2631   -1.6610    1.5801 H   0  0  0  0  0  0  0  0  0  0  0  0
    5.2583   -1.5958    3.0369 H   0  0  0  0  0  0  0  0  0  0  0  0
    6.7327    0.2931    2.9467 H   0  0  0  0  0  0  0  0  0  0  0  0
    7.0312    2.5972    2.3594 H   0  0  0  0  0  0  0  0  0  0  0  0
    5.9783    3.4827    1.2293 H   0  0  0  0  0  0  0  0  0  0  0  0
    8.4944    3.6531   -0.8257 H   0  0  0  0  0  0  0  0  0  0  0  0
    7.9028    4.2950    0.7232 H   0  0  0  0  0  0  0  0  0  0  0  0
    9.3944    3.2195    0.7232 H   0  0  0  0  0  0  0  0  0  0  0  0
    7.5833    0.2195    0.5278 H   0  0  0  0  0  0  0  0  0  0  0  0
    8.6208    1.1338    1.7452 H   0  0  0  0  0  0  0  0  0  0  0  0
    9.1053    0.9572    0.0118 H   0  0  0  0  0  0  0  0  0  0  0  0
    4.2782    2.1140   -0.0533 H   0  0  0  0  0  0  0  0  0  0  0  0
    1.4952   -1.7019    0.2837 H   0  0  0  0  0  0  0  0  0  0  0  0
   -1.8805   -0.5722    1.0449 H   0  0  0  0  0  0  0  0  0  0  0  0
   -3.5433    1.1302    1.6627 H   0  0  0  0  0  0  0  0  0  0  0  0
   -6.6956    1.0339    1.6919 H   0  0  0  0  0  0  0  0  0  0  0  0
   -8.5472    2.0582    1.5900 H   0  0  0  0  0  0  0  0  0  0  0  0
   -7.5984    3.2876    2.4594 H   0  0  0  0  0  0  0  0  0  0  0  0
   -9.0631    3.7852    1.4762 H   0  0  0  0  0  0  0  0  0  0  0  0
   -6.7051    4.4523   -1.2836 H   0  0  0  0  0  0  0  0  0  0  0  0
   -7.3412    5.3710    0.1169 H   0  0  0  0  0  0  0  0  0  0  0  0
   -8.4748    4.4982   -0.9543 H   0  0  0  0  0  0  0  0  0  0  0  0
   -6.4317   -0.8900   -0.6641 H   0  0  0  0  0  0  0  0  0  0  0  0
   -4.7978   -2.5781   -1.2818 H   0  0  0  0  0  0  0  0  0  0  0  0
  1  2  1  0
  2  3  1  0
  3  4  1  0
  4  5  2  0
  5  6  1  0
  6  7  2  0
  7  8  1  0
  8  9  2  0
  9 10  1  0
 10 11  1  0
 11 12  1  0
 12 13  1  0
 13 14  2  0
 14 15  1  0
 15 16  2  0
 16 17  1  0
 17 18  1  0
 18 19  1  0
 19 20  1  0
 19 21  1  0
 17 22  2  0
 12 23  2  0
 23 24  1  0
  5 25  1  0
 25 26  1  0
 26 27  2  0
 27 28  1  0
 28 29  2  0
 29 30  1  0
 30 31  1  0
 31 32  2  0
 31 33  1  0
 33 34  1  0
 33 35  1  0
 29 36  1  0
 36 37  2  0
 25 38  2  0
 38  3  1  0
 24  6  1  0
 37 26  1  0
 24 10  2  0
 22 13  1  0
  1 39  1  0
  1 40  1  0
  1 41  1  0
  2 42  1  0
  2 43  1  0
  4 44  1  0
  7 45  1  0
  8 46  1  0
 11 47  1  0
 14 48  1  0
 15 49  1  0
 16 50  1  0
 18 51  1  0
 18 52  1  0
 20 53  1  0
 20 54  1  0
 20 55  1  0
 21 56  1  0
 21 57  1  0
 21 58  1  0
 22 59  1  0
 23 60  1  0
 27 61  1  0
 28 62  1  0
 30 63  1  0
 34 64  1  0
 34 65  1  0
 34 66  1  0
 35 67  1  0
 35 68  1  0
 35 69  1  0
 36 70  1  0
 37 71  1  0
M  END
$$$$
