
     RDKit          3D

 66 69  0  0  0  0  0  0  0  0999 V2000
   -7.3993   -1.6171   -0.2555 C   0  0  0  0  0  0  0  0  0  0  0  0
   -6.9934   -0.1981    0.0815 C   0  0  2  0  0  0  0  0  0  0  0  0
   -7.1351   -0.0561    1.5322 N   0  0  0  0  0  0  0  0  0  0  0  0
   -7.8575    0.8065   -0.6457 C   0  0  0  0  0  0  0  0  0  0  0  0
   -9.1938    0.6458   -0.3390 O   0  0  0  0  0  0  0  0  0  0  0  0
  -10.1937    1.7356   -1.1040 P   0  0  0  0  0  5  0  0  0  0  0  0
   -9.9936    3.1538   -0.6259 O   0  0  0  0  0  0  0  0  0  0  0  0
  -10.0685    1.7176   -2.7770 O   0  0  0  0  0  0  0  0  0  0  0  0
  -11.8050    1.3226   -0.7197 O   0  0  0  0  0  0  0  0  0  0  0  0
   -5.5667   -0.0018   -0.2826 C   0  0  0  0  0  0  0  0  0  0  0  0
   -4.5420   -0.2335    0.5573 N   0  0  0  0  0  0  0  0  0  0  0  0
   -3.3715    0.0340   -0.0544 C   0  0  0  0  0  0  0  0  0  0  0  0
   -2.0346   -0.0891    0.5128 C   0  0  0  0  0  0  0  0  0  0  0  0
   -0.9377    0.2272   -0.2525 C   0  0  0  0  0  0  0  0  0  0  0  0
    0.3428    0.1076    0.2954 C   0  0  0  0  0  0  0  0  0  0  0  0
    0.5480   -0.3218    1.5897 C   0  0  0  0  0  0  0  0  0  0  0  0
    1.7491   -0.4623    2.1943 O   0  0  0  0  0  0  0  0  0  0  0  0
    2.9992   -0.2526    1.6926 C   0  0  0  0  0  0  0  0  0  0  0  0
    3.3932   -1.1778    0.5757 C   0  0  0  0  0  0  0  0  0  0  0  0
    4.7842   -0.8216    0.1183 C   0  0  0  0  0  0  0  0  0  0  0  0
    4.9612    0.1068   -0.8828 C   0  0  0  0  0  0  0  0  0  0  0  0
    6.2506    0.4415   -1.3122 C   0  0  0  0  0  0  0  0  0  0  0  0
    7.3600   -0.1483   -0.7446 C   0  0  0  0  0  0  0  0  0  0  0  0
    8.7084    0.2054   -1.1974 C   0  0  0  0  0  0  0  0  0  0  0  0
    9.0009    1.4883   -1.6603 C   0  0  0  0  0  0  0  0  0  0  0  0
   10.2860    1.7677   -2.0744 C   0  0  0  0  0  0  0  0  0  0  0  0
   11.2647    0.8094   -2.0357 C   0  0  0  0  0  0  0  0  0  0  0  0
   10.9582   -0.4589   -1.5737 C   0  0  0  0  0  0  0  0  0  0  0  0
    9.6824   -0.7695   -1.1525 C   0  0  0  0  0  0  0  0  0  0  0  0
    7.1744   -1.0783    0.2587 C   0  0  0  0  0  0  0  0  0  0  0  0
    5.8899   -1.4096    0.6842 C   0  0  0  0  0  0  0  0  0  0  0  0
   -0.5837   -0.6444    2.3697 C   0  0  0  0  0  0  0  0  0  0  0  0
   -0.3958   -1.1158    3.7885 C   0  0  0  0  0  0  0  0  0  0  0  0
    0.2402   -0.1838    4.5475 F   0  0  0  0  0  0  0  0  0  0  0  0
   -1.6601   -1.3139    4.3068 F   0  0  0  0  0  0  0  0  0  0  0  0
    0.2316   -2.3425    3.7800 F   0  0  0  0  0  0  0  0  0  0  0  0
   -1.8067   -0.5141    1.8005 C   0  0  0  0  0  0  0  0  0  0  0  0
   -3.7183    0.4456   -1.3224 C   0  0  0  0  0  0  0  0  0  0  0  0
   -5.0654    0.4243   -1.4643 N   0  0  0  0  0  0  0  0  0  0  0  0
   -8.0865   -1.6597   -1.1157 H   0  0  0  0  0  0  0  0  0  0  0  0
   -7.9036   -2.1239    0.6138 H   0  0  0  0  0  0  0  0  0  0  0  0
   -6.5162   -2.2650   -0.4790 H   0  0  0  0  0  0  0  0  0  0  0  0
   -6.2716   -0.2970    2.0400 H   0  0  0  0  0  0  0  0  0  0  0  0
   -7.9955   -0.5119    1.8687 H   0  0  0  0  0  0  0  0  0  0  0  0
   -7.5303    1.8348   -0.5140 H   0  0  0  0  0  0  0  0  0  0  0  0
   -7.7507    0.5676   -1.7366 H   0  0  0  0  0  0  0  0  0  0  0  0
   -9.4564    2.4495   -3.0407 H   0  0  0  0  0  0  0  0  0  0  0  0
  -12.2018    1.9476   -0.0873 H   0  0  0  0  0  0  0  0  0  0  0  0
   -1.0969    0.5625   -1.2650 H   0  0  0  0  0  0  0  0  0  0  0  0
    1.1723    0.3907   -0.3402 H   0  0  0  0  0  0  0  0  0  0  0  0
    3.8156   -0.2699    2.4569 H   0  0  0  0  0  0  0  0  0  0  0  0
    3.0358    0.8137    1.2969 H   0  0  0  0  0  0  0  0  0  0  0  0
    2.7293   -1.2266   -0.2680 H   0  0  0  0  0  0  0  0  0  0  0  0
    3.4850   -2.2235    1.0099 H   0  0  0  0  0  0  0  0  0  0  0  0
    4.1007    0.5804   -1.3401 H   0  0  0  0  0  0  0  0  0  0  0  0
    6.3831    1.1740   -2.1019 H   0  0  0  0  0  0  0  0  0  0  0  0
    8.2013    2.2243   -1.6779 H   0  0  0  0  0  0  0  0  0  0  0  0
   10.5134    2.7605   -2.4328 H   0  0  0  0  0  0  0  0  0  0  0  0
   12.2758    1.0265   -2.3609 H   0  0  0  0  0  0  0  0  0  0  0  0
   11.7213   -1.2336   -1.5351 H   0  0  0  0  0  0  0  0  0  0  0  0
    9.4214   -1.7508   -0.7890 H   0  0  0  0  0  0  0  0  0  0  0  0
    8.0403   -1.5363    0.6993 H   0  0  0  0  0  0  0  0  0  0  0  0
    5.7501   -2.1302    1.4614 H   0  0  0  0  0  0  0  0  0  0  0  0
   -2.6851   -0.7642    2.4050 H   0  0  0  0  0  0  0  0  0  0  0  0
   -3.0483    0.7419   -2.0948 H   0  0  0  0  0  0  0  0  0  0  0  0
   -5.6053    0.6897   -2.3304 H   0  0  0  0  0  0  0  0  0  0  0  0
  1  2  1  0
  2  3  1  1
  2  4  1  0
  4  5  1  0
  5  6  1  0
  6  7  2  0
  6  8  1  0
  6  9  1  0
  2 10  1  0
 10 11  2  0
 11 12  1  0
 12 13  1  0
 13 14  2  0
 14 15  1  0
 15 16  2  0
 16 17  1  0
 17 18  1  0
 18 19  1  0
 19 20  1  0
 20 21  2  0
 21 22  1  0
 22 23  2  0
 23 24  1  0
 24 25  2  0
 25 26  1  0
 26 27  2  0
 27 28  1  0
 28 29  2  0
 23 30  1  0
 30 31  2  0
 16 32  1  0
 32 33  1  0
 33 34  1  0
 33 35  1  0
 33 36  1  0
 32 37  2  0
 12 38  2  0
 38 39  1  0
 39 10  1  0
 37 13  1  0
 31 20  1  0
 29 24  1  0
  1 40  1  0
  1 41  1  0
  1 42  1  0
  3 43  1  0
  3 44  1  0
  4 45  1  0
  4 46  1  0
  8 47  1  0
  9 48  1  0
 14 49  1  0
 15 50  1  0
 18 51  1  0
 18 52  1  0
 19 53  1  0
 19 54  1  0
 21 55  1  0
 22 56  1  0
 25 57  1  0
 26 58  1  0
 27 59  1  0
 28 60  1  0
 29 61  1  0
 30 62  1  0
 31 63  1  0
 37 64  1  0
 38 65  1  0
 39 66  1  0
M  END
$$$$
