
     RDKit          3D

 38 39  0  0  0  0  0  0  0  0999 V2000
    4.3936    1.7382    0.7799 C   0  0  0  0  0  0  0  0  0  0  0  0
    3.4928    2.2727   -0.3359 C   0  0  0  0  0  0  0  0  0  0  0  0
    2.1258    1.6249   -0.1761 C   0  0  0  0  0  0  0  0  0  0  0  0
    2.2102    0.2313   -0.2711 O   0  0  0  0  0  0  0  0  0  0  0  0
    1.0211   -0.5080   -0.1425 C   0  0  0  0  0  0  0  0  0  0  0  0
   -0.1800    0.1743    0.0723 C   0  0  0  0  0  0  0  0  0  0  0  0
   -1.3720   -0.5175    0.2041 C   0  0  0  0  0  0  0  0  0  0  0  0
   -1.3596   -1.9133    0.1194 C   0  0  0  0  0  0  0  0  0  0  0  0
   -0.1694   -2.5660   -0.0921 C   0  0  0  0  0  0  0  0  0  0  0  0
    1.0205   -1.8881   -0.2244 C   0  0  0  0  0  0  0  0  0  0  0  0
    2.2378   -2.4937   -0.4369 O   0  0  0  0  0  0  0  0  0  0  0  0
    2.4773   -3.8640   -0.5531 C   0  0  0  0  0  0  0  0  0  0  0  0
   -2.6194    0.2564    0.4310 C   0  0  2  0  0  0  0  0  0  0  0  0
   -3.7943   -0.7145    0.5431 C   0  0  0  0  0  0  0  0  0  0  0  0
   -2.8992    1.1961   -0.7340 C   0  0  0  0  0  0  0  0  0  0  0  0
   -3.7898    2.1442   -0.0897 N   0  0  0  0  0  0  0  0  0  0  0  0
   -3.4572    2.1218    1.3110 C   0  0  0  0  0  0  0  0  0  0  0  0
   -4.0023    3.0169    2.0291 O   0  0  0  0  0  0  0  0  0  0  0  0
   -2.5739    1.0765    1.5691 O   0  0  0  0  0  0  0  0  0  0  0  0
    5.3869    2.2213    0.7244 H   0  0  0  0  0  0  0  0  0  0  0  0
    3.9320    1.8988    1.7685 H   0  0  0  0  0  0  0  0  0  0  0  0
    4.4692    0.6345    0.6111 H   0  0  0  0  0  0  0  0  0  0  0  0
    3.9601    2.0027   -1.2832 H   0  0  0  0  0  0  0  0  0  0  0  0
    3.4170    3.3730   -0.2446 H   0  0  0  0  0  0  0  0  0  0  0  0
    1.6909    1.9121    0.8005 H   0  0  0  0  0  0  0  0  0  0  0  0
    1.4848    2.0133   -1.0058 H   0  0  0  0  0  0  0  0  0  0  0  0
   -0.1922    1.2606    0.1385 H   0  0  0  0  0  0  0  0  0  0  0  0
   -2.2791   -2.4556    0.2205 H   0  0  0  0  0  0  0  0  0  0  0  0
   -0.1725   -3.6477   -0.1558 H   0  0  0  0  0  0  0  0  0  0  0  0
    2.5937   -4.0986   -1.6367 H   0  0  0  0  0  0  0  0  0  0  0  0
    1.6834   -4.4948   -0.1158 H   0  0  0  0  0  0  0  0  0  0  0  0
    3.4366   -4.1424   -0.0624 H   0  0  0  0  0  0  0  0  0  0  0  0
   -4.7010   -0.1159    0.7160 H   0  0  0  0  0  0  0  0  0  0  0  0
   -3.8838   -1.2712   -0.4130 H   0  0  0  0  0  0  0  0  0  0  0  0
   -3.6102   -1.4195    1.3678 H   0  0  0  0  0  0  0  0  0  0  0  0
   -2.0026    1.6640   -1.1470 H   0  0  0  0  0  0  0  0  0  0  0  0
   -3.4827    0.5980   -1.4863 H   0  0  0  0  0  0  0  0  0  0  0  0
   -4.4923    2.6797   -0.6324 H   0  0  0  0  0  0  0  0  0  0  0  0
  1  2  1  0
  2  3  1  0
  3  4  1  0
  4  5  1  0
  5  6  2  0
  6  7  1  0
  7  8  2  0
  8  9  1  0
  9 10  2  0
 10 11  1  0
 11 12  1  0
  7 13  1  0
 13 14  1  1
 13 15  1  0
 15 16  1  0
 16 17  1  0
 17 18  2  0
 17 19  1  0
 10  5  1  0
 19 13  1  0
  1 20  1  0
  1 21  1  0
  1 22  1  0
  2 23  1  0
  2 24  1  0
  3 25  1  0
  3 26  1  0
  6 27  1  0
  8 28  1  0
  9 29  1  0
 12 30  1  0
 12 31  1  0
 12 32  1  0
 14 33  1  0
 14 34  1  0
 14 35  1  0
 15 36  1  0
 15 37  1  0
 16 38  1  0
M  END
$$$$
