
     RDKit          3D

 64 67  0  0  0  0  0  0  0  0999 V2000
   -2.2624    0.2306   -4.1948 C   0  0  0  0  0  0  0  0  0  0  0  0
   -1.7723    0.3256   -2.7734 C   0  0  0  0  0  0  0  0  0  0  0  0
   -0.4809   -0.0183   -2.4427 C   0  0  0  0  0  0  0  0  0  0  0  0
   -0.0528    0.0751   -1.1164 C   0  0  0  0  0  0  0  0  0  0  0  0
   -0.8908    0.5059   -0.1138 C   0  0  0  0  0  0  0  0  0  0  0  0
   -0.7150    0.6840    1.2506 C   0  0  0  0  0  0  0  0  0  0  0  0
    0.4861    0.4341    2.0386 C   0  0  0  0  0  0  0  0  0  0  0  0
    0.4444    0.6400    3.4087 C   0  0  0  0  0  0  0  0  0  0  0  0
    1.5082    0.4197    4.1977 N   0  0  0  0  0  0  0  0  0  0  0  0
    2.6738   -0.0138    3.6966 C   0  0  0  0  0  0  0  0  0  0  0  0
    3.8813   -0.3243    4.1733 N   0  0  0  0  0  0  0  0  0  0  0  0
    4.7117   -0.7208    3.1966 C   0  0  0  0  0  0  0  0  0  0  0  0
    3.9949   -0.6646    2.0008 C   0  0  0  0  0  0  0  0  0  0  0  0
    4.5336   -1.0163    0.6766 C   0  0  0  0  0  0  0  0  0  0  0  0
    3.8624   -1.6352   -0.1664 O   0  0  0  0  0  0  0  0  0  0  0  0
    5.8712   -0.6493    0.3149 N   0  0  0  0  0  0  0  0  0  0  0  0
    6.4973   -0.9366   -0.9334 C   0  0  0  0  0  0  0  0  0  0  0  0
    6.5752   -2.4173   -1.2209 C   0  0  0  0  0  0  0  0  0  0  0  0
    7.9310   -0.4142   -0.8783 C   0  0  0  0  0  0  0  0  0  0  0  0
    5.7689   -0.3041   -2.1200 C   0  0  0  0  0  0  0  0  0  0  0  0
    6.4379   -0.6219   -3.3163 O   0  0  0  0  0  0  0  0  0  0  0  0
    2.7309   -0.2264    2.3106 C   0  0  0  0  0  0  0  0  0  0  0  0
    1.6459    0.0018    1.5308 N   0  0  0  0  0  0  0  0  0  0  0  0
   -1.9136    1.1300    1.6828 N   0  0  0  0  0  0  0  0  0  0  0  0
   -2.7744    1.2302    0.7059 N   0  0  0  0  0  0  0  0  0  0  0  0
   -4.1496    1.6677    0.8214 C   0  0  0  0  0  0  0  0  0  0  0  0
   -5.0836    0.5092    1.1274 C   0  0  0  0  0  0  0  0  0  0  0  0
   -6.4785    1.1061    1.2175 C   0  0  0  0  0  0  0  0  0  0  0  0
   -7.4903    0.1293    1.5116 N   0  0  0  0  0  0  0  0  0  0  0  0
   -7.6268   -0.7547    0.3692 C   0  0  0  0  0  0  0  0  0  0  0  0
   -8.7400    0.8375    1.7137 C   0  0  0  0  0  0  0  0  0  0  0  0
   -2.1875    0.8518   -0.4438 C   0  0  0  0  0  0  0  0  0  0  0  0
   -2.6058    0.7565   -1.7636 C   0  0  0  0  0  0  0  0  0  0  0  0
   -1.4036   -0.0928   -4.8085 H   0  0  0  0  0  0  0  0  0  0  0  0
   -2.9871   -0.6334   -4.2071 H   0  0  0  0  0  0  0  0  0  0  0  0
   -2.7201    1.1676   -4.5279 H   0  0  0  0  0  0  0  0  0  0  0  0
    0.2181   -0.3632   -3.1925 H   0  0  0  0  0  0  0  0  0  0  0  0
    0.9651   -0.1913   -0.8226 H   0  0  0  0  0  0  0  0  0  0  0  0
   -0.4681    0.9905    3.8697 H   0  0  0  0  0  0  0  0  0  0  0  0
    4.1618   -0.2707    5.1848 H   0  0  0  0  0  0  0  0  0  0  0  0
    5.7563   -1.0399    3.2434 H   0  0  0  0  0  0  0  0  0  0  0  0
    6.3987   -0.1338    1.0455 H   0  0  0  0  0  0  0  0  0  0  0  0
    6.6469   -3.0141   -0.2919 H   0  0  0  0  0  0  0  0  0  0  0  0
    7.5130   -2.5979   -1.7824 H   0  0  0  0  0  0  0  0  0  0  0  0
    5.7556   -2.7654   -1.8845 H   0  0  0  0  0  0  0  0  0  0  0  0
    8.5450   -1.2443   -0.4372 H   0  0  0  0  0  0  0  0  0  0  0  0
    8.3029   -0.3018   -1.9192 H   0  0  0  0  0  0  0  0  0  0  0  0
    7.9966    0.5275   -0.3053 H   0  0  0  0  0  0  0  0  0  0  0  0
    5.6760    0.7851   -2.0059 H   0  0  0  0  0  0  0  0  0  0  0  0
    4.7466   -0.7328   -2.1197 H   0  0  0  0  0  0  0  0  0  0  0  0
    6.2105    0.0193   -4.0257 H   0  0  0  0  0  0  0  0  0  0  0  0
   -4.5158    2.1491   -0.0929 H   0  0  0  0  0  0  0  0  0  0  0  0
   -4.2930    2.3961    1.6524 H   0  0  0  0  0  0  0  0  0  0  0  0
   -5.0625   -0.2944    0.3918 H   0  0  0  0  0  0  0  0  0  0  0  0
   -4.8158    0.0675    2.1305 H   0  0  0  0  0  0  0  0  0  0  0  0
   -6.7168    1.5823    0.2202 H   0  0  0  0  0  0  0  0  0  0  0  0
   -6.4720    1.9664    1.9284 H   0  0  0  0  0  0  0  0  0  0  0  0
   -6.8603   -1.5551    0.4473 H   0  0  0  0  0  0  0  0  0  0  0  0
   -7.3886   -0.1810   -0.5562 H   0  0  0  0  0  0  0  0  0  0  0  0
   -8.6468   -1.1876    0.3024 H   0  0  0  0  0  0  0  0  0  0  0  0
   -8.5875    1.9428    1.6778 H   0  0  0  0  0  0  0  0  0  0  0  0
   -9.2236    0.5369    2.6861 H   0  0  0  0  0  0  0  0  0  0  0  0
   -9.4456    0.6199    0.8602 H   0  0  0  0  0  0  0  0  0  0  0  0
   -3.6163    1.0308   -1.9956 H   0  0  0  0  0  0  0  0  0  0  0  0
  1  2  1  0
  2  3  2  0
  3  4  1  0
  4  5  2  0
  5  6  1  0
  6  7  1  0
  7  8  2  0
  8  9  1  0
  9 10  2  0
 10 11  1  0
 11 12  1  0
 12 13  2  0
 13 14  1  0
 14 15  2  0
 14 16  1  0
 16 17  1  0
 17 18  1  0
 17 19  1  0
 17 20  1  0
 20 21  1  0
 13 22  1  0
 22 23  2  0
  6 24  2  0
 24 25  1  0
 25 26  1  0
 26 27  1  0
 27 28  1  0
 28 29  1  0
 29 30  1  0
 29 31  1  0
 25 32  1  0
 32 33  2  0
 33  2  1  0
 32  5  1  0
 23  7  1  0
 22 10  1  0
  1 34  1  0
  1 35  1  0
  1 36  1  0
  3 37  1  0
  4 38  1  0
  8 39  1  0
 11 40  1  0
 12 41  1  0
 16 42  1  0
 18 43  1  0
 18 44  1  0
 18 45  1  0
 19 46  1  0
 19 47  1  0
 19 48  1  0
 20 49  1  0
 20 50  1  0
 21 51  1  0
 26 52  1  0
 26 53  1  0
 27 54  1  0
 27 55  1  0
 28 56  1  0
 28 57  1  0
 30 58  1  0
 30 59  1  0
 30 60  1  0
 31 61  1  0
 31 62  1  0
 31 63  1  0
 33 64  1  0
M  END
$$$$
