
     RDKit          3D

 50 52  0  0  0  0  0  0  0  0999 V2000
    6.8671   -0.5162    0.1729 C   0  0  0  0  0  0  0  0  0  0  0  0
    5.8958    0.5237    0.5431 C   0  0  0  0  0  0  0  0  0  0  0  0
    5.7477    0.8794    1.9883 C   0  0  0  0  0  0  0  0  0  0  0  0
    4.6159    0.1353   -0.0737 C   0  0  0  0  0  0  0  0  0  0  0  0
    3.3667   -0.2326   -0.6619 C   0  0  0  0  0  0  0  0  0  0  0  0
    2.2066   -0.5521   -1.1955 C   0  0  0  0  0  0  0  0  0  0  0  0
    2.0809   -0.3354   -2.6449 C   0  0  0  0  0  0  0  0  0  0  0  0
    0.8688   -0.3685   -3.2529 C   0  0  0  0  0  0  0  0  0  0  0  0
   -0.2609   -0.5912   -2.6304 C   0  0  0  0  0  0  0  0  0  0  0  0
   -0.2489   -0.8096   -1.1500 C   0  0  0  0  0  0  0  0  0  0  0  0
   -1.4611   -0.8930   -0.3757 C   0  0  1  0  0  0  0  0  0  0  0  0
   -2.0678    0.3398    0.1074 C   0  0  0  0  0  0  0  0  0  0  0  0
   -3.3013    0.5934    0.2847 C   0  0  0  0  0  0  0  0  0  0  0  0
   -4.0510    1.6137    0.6690 C   0  0  0  0  0  0  0  0  0  0  0  0
   -3.1515    2.7863    0.9720 C   0  0  0  0  0  0  0  0  0  0  0  0
   -3.9064    3.8340    1.3695 O   0  0  0  0  0  0  0  0  0  0  0  0
   -3.6326    5.1376    1.7142 C   0  0  0  0  0  0  0  0  0  0  0  0
   -4.8210    5.8739    1.5528 F   0  0  0  0  0  0  0  0  0  0  0  0
   -3.2408    5.1945    3.0906 F   0  0  0  0  0  0  0  0  0  0  0  0
   -1.8678    2.6025    0.8223 C   0  0  0  0  0  0  0  0  0  0  0  0
   -1.1394    1.5025    0.4168 C   0  0  0  0  0  0  0  0  0  0  0  0
   -2.4634   -1.3838   -1.3865 N   0  0  0  0  0  0  0  0  0  0  0  0
   -2.9770   -2.4407   -0.9739 C   0  0  0  0  0  0  0  0  0  0  0  0
   -3.9927   -3.1556   -1.7580 N   0  0  0  0  0  0  0  0  0  0  0  0
   -2.4567   -2.8910    0.2738 N   0  0  0  0  0  0  0  0  0  0  0  0
   -2.9564   -4.1134    0.9494 C   0  0  0  0  0  0  0  0  0  0  0  0
   -1.4747   -1.9464    0.6393 C   0  0  0  0  0  0  0  0  0  0  0  0
   -0.7815   -2.0987    1.7089 O   0  0  0  0  0  0  0  0  0  0  0  0
    1.0048   -0.7686   -0.6287 C   0  0  0  0  0  0  0  0  0  0  0  0
    7.1024   -0.4401   -0.9421 H   0  0  0  0  0  0  0  0  0  0  0  0
    7.8732   -0.3678    0.6748 H   0  0  0  0  0  0  0  0  0  0  0  0
    6.5493   -1.5670    0.3174 H   0  0  0  0  0  0  0  0  0  0  0  0
    6.1380    1.5493   -0.0434 H   0  0  0  0  0  0  0  0  0  0  0  0
    6.7312    1.4063    2.3082 H   0  0  0  0  0  0  0  0  0  0  0  0
    4.9828    1.7514    2.0642 H   0  0  0  0  0  0  0  0  0  0  0  0
    5.4859    0.0579    2.6499 H   0  0  0  0  0  0  0  0  0  0  0  0
    3.0253   -0.1562   -3.1497 H   0  0  0  0  0  0  0  0  0  0  0  0
    0.8873   -0.1595   -4.3710 H   0  0  0  0  0  0  0  0  0  0  0  0
   -1.2597   -0.6294   -3.0223 H   0  0  0  0  0  0  0  0  0  0  0  0
   -3.9493   -0.4020    0.0497 H   0  0  0  0  0  0  0  0  0  0  0  0
   -5.0846    1.6909    0.7766 H   0  0  0  0  0  0  0  0  0  0  0  0
   -2.7845    5.5053    1.1229 H   0  0  0  0  0  0  0  0  0  0  0  0
   -1.2198    3.5071    1.1092 H   0  0  0  0  0  0  0  0  0  0  0  0
   -0.1389    1.4362    0.2896 H   0  0  0  0  0  0  0  0  0  0  0  0
   -4.9638   -2.9313   -1.6197 H   0  0  0  0  0  0  0  0  0  0  0  0
   -3.6327   -3.8557   -2.4342 H   0  0  0  0  0  0  0  0  0  0  0  0
   -4.0172   -4.0578    1.1986 H   0  0  0  0  0  0  0  0  0  0  0  0
   -2.3572   -4.3068    1.8534 H   0  0  0  0  0  0  0  0  0  0  0  0
   -2.8443   -4.9449    0.1739 H   0  0  0  0  0  0  0  0  0  0  0  0
    1.0752   -1.0058    0.4513 H   0  0  0  0  0  0  0  0  0  0  0  0
  1  2  1  0
  2  3  1  0
  2  4  1  0
  4  5  3  0
  5  6  1  0
  6  7  2  0
  7  8  1  0
  8  9  2  0
  9 10  1  0
 11 10  1  6
 11 12  1  0
 12 13  2  0
 13 14  1  0
 14 15  2  0
 15 16  1  0
 16 17  1  0
 17 18  1  0
 17 19  1  0
 15 20  1  0
 20 21  2  0
 11 22  1  0
 22 23  2  0
 23 24  1  0
 23 25  1  0
 25 26  1  0
 25 27  1  0
 27 28  2  0
 10 29  2  0
 29  6  1  0
 27 11  1  0
 21 12  1  0
  1 30  1  0
  1 31  1  0
  1 32  1  0
  2 33  1  0
  3 34  1  0
  3 35  1  0
  3 36  1  0
  7 37  1  0
  8 38  1  0
  9 39  1  0
 13 40  1  0
 14 41  1  0
 17 42  1  0
 20 43  1  0
 21 44  1  0
 24 45  1  0
 24 46  1  0
 26 47  1  0
 26 48  1  0
 26 49  1  0
 29 50  1  0
M  END
$$$$
