
     RDKit          3D

 60 64  0  0  0  0  0  0  0  0999 V2000
    5.9016    2.6667   -1.8591 C   0  0  0  0  0  0  0  0  0  0  0  0
    4.8910    1.5174   -1.9343 C   0  0  0  0  0  0  0  0  0  0  0  0
    3.5427    2.1173   -1.7383 C   0  0  0  0  0  0  0  0  0  0  0  0
    2.4029    1.1296   -1.7815 C   0  0  0  0  0  0  0  0  0  0  0  0
    2.5470    0.1077   -0.7108 C   0  0  0  0  0  0  0  0  0  0  0  0
    3.4471    0.0143    0.2007 N   0  0  0  0  0  0  0  0  0  0  0  0
    3.2425   -1.1056    1.0413 C   0  0  0  0  0  0  0  0  0  0  0  0
    4.3477   -2.1360    0.9678 C   0  0  0  0  0  0  0  0  0  0  0  0
    3.9870   -3.0311    2.1335 C   0  0  0  0  0  0  0  0  0  0  0  0
    3.3164   -2.1438    3.1455 C   0  0  0  0  0  0  0  0  0  0  0  0
    3.1399   -0.7952    2.5031 C   0  0  0  0  0  0  0  0  0  0  0  0
    2.0138   -1.7139    0.4892 C   0  0  0  0  0  0  0  0  0  0  0  0
    1.4879   -2.7613    0.9853 O   0  0  0  0  0  0  0  0  0  0  0  0
    1.5876   -0.9350   -0.6236 N   0  0  0  0  0  0  0  0  0  0  0  0
    0.4053   -1.3204   -1.3544 C   0  0  0  0  0  0  0  0  0  0  0  0
   -0.8493   -0.7446   -0.8606 C   0  0  0  0  0  0  0  0  0  0  0  0
   -1.6302   -1.3569    0.1082 C   0  0  0  0  0  0  0  0  0  0  0  0
   -2.8111   -0.8185    0.5724 C   0  0  0  0  0  0  0  0  0  0  0  0
   -3.2762    0.3823    0.0794 C   0  0  0  0  0  0  0  0  0  0  0  0
   -2.5406    1.0590   -0.9013 C   0  0  0  0  0  0  0  0  0  0  0  0
   -1.3505    0.4702   -1.3376 C   0  0  0  0  0  0  0  0  0  0  0  0
   -4.4948    1.0947    0.4461 C   0  0  0  0  0  0  0  0  0  0  0  0
   -4.2432    2.3096    1.0740 C   0  0  0  0  0  0  0  0  0  0  0  0
   -5.3223    3.0819    1.4774 C   0  0  0  0  0  0  0  0  0  0  0  0
   -6.6199    2.6568    1.2618 C   0  0  0  0  0  0  0  0  0  0  0  0
   -6.8646    1.4376    0.6314 C   0  0  0  0  0  0  0  0  0  0  0  0
   -5.7804    0.6959    0.2438 C   0  0  0  0  0  0  0  0  0  0  0  0
   -5.9722   -0.5857   -0.4239 C   0  0  0  0  0  0  0  0  0  0  0  0
   -7.2024   -1.0766   -0.6724 N   0  0  0  0  0  0  0  0  0  0  0  0
   -7.1009   -2.2270   -1.2763 N   0  0  0  0  0  0  0  0  0  0  0  0
   -5.8189   -2.4668   -1.4112 N   0  0  0  0  0  0  0  0  0  0  0  0
   -5.1079   -1.4777   -0.8978 N   0  0  0  0  0  0  0  0  0  0  0  0
    6.0256    2.9660   -0.8072 H   0  0  0  0  0  0  0  0  0  0  0  0
    6.8916    2.3438   -2.2926 H   0  0  0  0  0  0  0  0  0  0  0  0
    5.5158    3.5328   -2.4330 H   0  0  0  0  0  0  0  0  0  0  0  0
    5.0224    1.0860   -2.9520 H   0  0  0  0  0  0  0  0  0  0  0  0
    5.1856    0.7543   -1.2107 H   0  0  0  0  0  0  0  0  0  0  0  0
    3.3898    2.8821   -2.5325 H   0  0  0  0  0  0  0  0  0  0  0  0
    3.5342    2.6177   -0.7332 H   0  0  0  0  0  0  0  0  0  0  0  0
    1.4521    1.6875   -1.5584 H   0  0  0  0  0  0  0  0  0  0  0  0
    2.3646    0.6736   -2.7899 H   0  0  0  0  0  0  0  0  0  0  0  0
    5.3476   -1.6848    1.1787 H   0  0  0  0  0  0  0  0  0  0  0  0
    4.3388   -2.6840    0.0048 H   0  0  0  0  0  0  0  0  0  0  0  0
    4.9338   -3.4692    2.5077 H   0  0  0  0  0  0  0  0  0  0  0  0
    3.3493   -3.8932    1.8222 H   0  0  0  0  0  0  0  0  0  0  0  0
    3.9745   -2.1067    4.0404 H   0  0  0  0  0  0  0  0  0  0  0  0
    2.3141   -2.5769    3.3675 H   0  0  0  0  0  0  0  0  0  0  0  0
    2.1692   -0.3222    2.7380 H   0  0  0  0  0  0  0  0  0  0  0  0
    3.9653   -0.1427    2.7777 H   0  0  0  0  0  0  0  0  0  0  0  0
    0.5283   -0.9191   -2.4040 H   0  0  0  0  0  0  0  0  0  0  0  0
    0.2808   -2.4179   -1.4219 H   0  0  0  0  0  0  0  0  0  0  0  0
   -1.3081   -2.3059    0.5298 H   0  0  0  0  0  0  0  0  0  0  0  0
   -3.4400   -1.2690    1.3267 H   0  0  0  0  0  0  0  0  0  0  0  0
   -2.8227    2.0098   -1.3523 H   0  0  0  0  0  0  0  0  0  0  0  0
   -0.7735    0.9876   -2.0992 H   0  0  0  0  0  0  0  0  0  0  0  0
   -3.2437    2.7127    1.2792 H   0  0  0  0  0  0  0  0  0  0  0  0
   -5.1352    4.0330    1.9689 H   0  0  0  0  0  0  0  0  0  0  0  0
   -7.4569    3.2817    1.5881 H   0  0  0  0  0  0  0  0  0  0  0  0
   -7.8764    1.0984    0.4594 H   0  0  0  0  0  0  0  0  0  0  0  0
   -7.8018   -2.9201   -1.6346 H   0  0  0  0  0  0  0  0  0  0  0  0
  1  2  1  0
  2  3  1  0
  3  4  1  0
  4  5  1  0
  5  6  2  0
  6  7  1  0
  7  8  1  0
  8  9  1  0
  9 10  1  0
 10 11  1  0
  7 12  1  0
 12 13  2  0
 12 14  1  0
 14 15  1  0
 15 16  1  0
 16 17  2  0
 17 18  1  0
 18 19  2  0
 19 20  1  0
 20 21  2  0
 19 22  1  0
 22 23  2  0
 23 24  1  0
 24 25  2  0
 25 26  1  0
 26 27  2  0
 27 28  1  0
 28 29  2  0
 29 30  1  0
 30 31  1  0
 31 32  2  0
 14  5  1  0
 21 16  1  0
 27 22  1  0
 32 28  1  0
 11  7  1  0
  1 33  1  0
  1 34  1  0
  1 35  1  0
  2 36  1  0
  2 37  1  0
  3 38  1  0
  3 39  1  0
  4 40  1  0
  4 41  1  0
  8 42  1  0
  8 43  1  0
  9 44  1  0
  9 45  1  0
 10 46  1  0
 10 47  1  0
 11 48  1  0
 11 49  1  0
 15 50  1  0
 15 51  1  0
 17 52  1  0
 18 53  1  0
 20 54  1  0
 21 55  1  0
 23 56  1  0
 24 57  1  0
 25 58  1  0
 26 59  1  0
 30 60  1  0
M  END
$$$$
