
     RDKit          3D

 61 62  0  0  0  0  0  0  0  0999 V2000
   -3.4391    2.4684    1.5698 C   0  0  0  0  0  0  0  0  0  0  0  0
   -3.6865    1.0305    1.0275 C   0  0  2  0  0  0  0  0  0  0  0  0
   -5.0983    0.9725    0.7895 N   0  0  0  0  0  0  0  0  0  0  0  0
   -5.8406   -0.1194    0.3160 C   0  0  0  0  0  0  0  0  0  0  0  0
   -5.2750   -1.1839    0.0567 O   0  0  0  0  0  0  0  0  0  0  0  0
   -7.3299   -0.0398    0.1084 C   0  0  0  0  0  0  0  0  0  0  0  0
   -7.8249   -1.2274   -0.3591 F   0  0  0  0  0  0  0  0  0  0  0  0
   -7.9430    0.1965    1.3344 F   0  0  0  0  0  0  0  0  0  0  0  0
   -7.6256    0.9464   -0.8000 F   0  0  0  0  0  0  0  0  0  0  0  0
   -3.2850    0.1311    2.1174 C   0  0  0  0  0  0  0  0  0  0  0  0
   -4.2125   -0.5787    2.6785 O   0  0  0  0  0  0  0  0  0  0  0  0
   -1.9964   -0.0544    2.6365 N   0  0  0  0  0  0  0  0  0  0  0  0
   -1.4227   -0.8519    3.6947 C   0  0  0  0  0  0  0  0  0  0  0  0
   -0.4603    0.3094    3.9044 C   0  0  0  0  0  0  0  0  0  0  0  0
   -0.6732    0.4325    2.3934 C   0  0  1  0  0  0  0  0  0  0  0  0
    0.2477   -0.4290    1.6161 C   0  0  0  0  0  0  0  0  0  0  0  0
   -0.1407   -1.5588    1.2505 O   0  0  0  0  0  0  0  0  0  0  0  0
    1.5589    0.0044    1.2806 N   0  0  0  0  0  0  0  0  0  0  0  0
    2.4853   -0.8143    0.5215 C   0  0  2  0  0  0  0  0  0  0  0  0
    3.6708   -1.1980    1.3307 C   0  0  0  0  0  0  0  0  0  0  0  0
    3.7332   -0.7876    2.4973 O   0  0  0  0  0  0  0  0  0  0  0  0
    2.8704   -0.1802   -0.7829 C   0  0  0  0  0  0  0  0  0  0  0  0
    3.8343   -1.0737   -1.5318 C   0  0  0  0  0  0  0  0  0  0  0  0
    4.2307   -0.4410   -2.8672 C   0  0  0  0  0  0  0  0  0  0  0  0
    5.1476   -1.3254   -3.5444 N   0  0  0  0  0  0  0  0  0  0  0  0
    6.3645   -1.4881   -3.2163 C   0  0  0  0  0  0  0  0  0  0  0  0
    7.2061   -2.3750   -3.9294 N   0  0  0  0  0  0  0  0  0  0  0  0
    6.8964   -0.7723   -2.1178 N   0  0  0  0  0  0  0  0  0  0  0  0
   -2.8525    0.8452   -0.1908 C   0  0  0  0  0  0  0  0  0  0  0  0
   -2.4881    1.9893   -0.8976 C   0  0  0  0  0  0  0  0  0  0  0  0
   -1.7095    1.8895   -2.0201 C   0  0  0  0  0  0  0  0  0  0  0  0
   -1.2518    0.6804   -2.5047 C   0  0  0  0  0  0  0  0  0  0  0  0
   -1.6262   -0.4357   -1.7871 C   0  0  0  0  0  0  0  0  0  0  0  0
   -2.4079   -0.3635   -0.6552 C   0  0  0  0  0  0  0  0  0  0  0  0
   -3.7246    2.4174    2.6372 H   0  0  0  0  0  0  0  0  0  0  0  0
   -4.1794    3.1601    1.0729 H   0  0  0  0  0  0  0  0  0  0  0  0
   -2.4130    2.7789    1.4120 H   0  0  0  0  0  0  0  0  0  0  0  0
   -5.6901    1.8452    0.9838 H   0  0  0  0  0  0  0  0  0  0  0  0
   -2.0684   -1.0066    4.5809 H   0  0  0  0  0  0  0  0  0  0  0  0
   -1.0055   -1.7971    3.3726 H   0  0  0  0  0  0  0  0  0  0  0  0
   -0.9666    1.1421    4.4043 H   0  0  0  0  0  0  0  0  0  0  0  0
    0.5457    0.0491    4.2154 H   0  0  0  0  0  0  0  0  0  0  0  0
   -0.5454    1.4728    2.0533 H   0  0  0  0  0  0  0  0  0  0  0  0
    1.8180    0.9632    1.6195 H   0  0  0  0  0  0  0  0  0  0  0  0
    1.9484   -1.7688    0.2925 H   0  0  0  0  0  0  0  0  0  0  0  0
    4.4319   -1.8064    0.9055 H   0  0  0  0  0  0  0  0  0  0  0  0
    3.4583    0.7440   -0.5223 H   0  0  0  0  0  0  0  0  0  0  0  0
    2.0043    0.0550   -1.4188 H   0  0  0  0  0  0  0  0  0  0  0  0
    3.4630   -2.0803   -1.7109 H   0  0  0  0  0  0  0  0  0  0  0  0
    4.8078   -1.1669   -0.9776 H   0  0  0  0  0  0  0  0  0  0  0  0
    3.3204   -0.3779   -3.4939 H   0  0  0  0  0  0  0  0  0  0  0  0
    4.6622    0.5650   -2.7036 H   0  0  0  0  0  0  0  0  0  0  0  0
    8.1491   -2.6666   -3.5906 H   0  0  0  0  0  0  0  0  0  0  0  0
    6.9239   -2.7982   -4.8569 H   0  0  0  0  0  0  0  0  0  0  0  0
    6.9249    0.2619   -2.1054 H   0  0  0  0  0  0  0  0  0  0  0  0
    7.2858   -1.2645   -1.2665 H   0  0  0  0  0  0  0  0  0  0  0  0
   -2.8266    2.9785   -0.5583 H   0  0  0  0  0  0  0  0  0  0  0  0
   -1.4275    2.8004   -2.5704 H   0  0  0  0  0  0  0  0  0  0  0  0
   -0.6383    0.6194   -3.3921 H   0  0  0  0  0  0  0  0  0  0  0  0
   -1.2724   -1.3946   -2.1578 H   0  0  0  0  0  0  0  0  0  0  0  0
   -2.6424   -1.2736   -0.1440 H   0  0  0  0  0  0  0  0  0  0  0  0
  1  2  1  0
  2  3  1  6
  3  4  1  0
  4  5  2  0
  4  6  1  0
  6  7  1  0
  6  8  1  0
  6  9  1  0
  2 10  1  0
 10 11  2  0
 10 12  1  0
 12 13  1  0
 13 14  1  0
 14 15  1  0
 15 16  1  0
 16 17  2  0
 16 18  1  0
 18 19  1  0
 19 20  1  0
 20 21  2  0
 19 22  1  0
 22 23  1  0
 23 24  1  0
 24 25  1  0
 25 26  2  3
 26 27  1  0
 26 28  1  0
  2 29  1  0
 29 30  2  0
 30 31  1  0
 31 32  2  0
 32 33  1  0
 33 34  2  0
 15 12  1  0
 34 29  1  0
  1 35  1  0
  1 36  1  0
  1 37  1  0
  3 38  1  0
 13 39  1  0
 13 40  1  0
 14 41  1  0
 14 42  1  0
 15 43  1  6
 18 44  1  0
 19 45  1  6
 20 46  1  0
 22 47  1  0
 22 48  1  0
 23 49  1  0
 23 50  1  0
 24 51  1  0
 24 52  1  0
 27 53  1  0
 27 54  1  0
 28 55  1  0
 28 56  1  0
 30 57  1  0
 31 58  1  0
 32 59  1  0
 33 60  1  0
 34 61  1  0
M  END
$$$$
