
     RDKit          3D

 56 58  0  0  0  0  0  0  0  0999 V2000
    1.9140   -4.1683    1.1347 C   0  0  0  0  0  0  0  0  0  0  0  0
    1.3226   -3.0875    0.6357 C   0  0  0  0  0  0  0  0  0  0  0  0
   -0.1425   -3.1215    0.3864 C   0  0  0  0  0  0  0  0  0  0  0  0
    2.1168   -1.9336    0.2426 C   0  0  0  0  0  0  0  0  0  0  0  0
    3.5093   -2.0720    0.1113 C   0  0  0  0  0  0  0  0  0  0  0  0
    4.2519   -1.0577   -0.2555 N   0  0  0  0  0  0  0  0  0  0  0  0
    3.8129    0.2046   -0.5468 C   0  0  0  0  0  0  0  0  0  0  0  0
    4.7703    1.2197   -0.9418 C   0  0  0  0  0  0  0  0  0  0  0  0
    6.1091    0.8611   -1.0059 C   0  0  0  0  0  0  0  0  0  0  0  0
    7.0826    1.7618   -1.3717 C   0  0  0  0  0  0  0  0  0  0  0  0
    8.7486    1.2451   -1.4319 Cl  0  0  0  0  0  0  0  0  0  0  0  0
    6.7413    3.0554   -1.6858 C   0  0  0  0  0  0  0  0  0  0  0  0
    5.4254    3.4400   -1.6317 C   0  0  0  0  0  0  0  0  0  0  0  0
    4.4709    2.5058   -1.2589 C   0  0  0  0  0  0  0  0  0  0  0  0
    3.1980    2.9573   -1.2285 F   0  0  0  0  0  0  0  0  0  0  0  0
    2.4611    0.3620   -0.4234 C   0  0  0  0  0  0  0  0  0  0  0  0
    1.6257   -0.7012   -0.0294 C   0  0  0  0  0  0  0  0  0  0  0  0
    0.2361   -0.3461    0.0824 N   0  0  0  0  0  0  0  0  0  0  0  0
   -0.3376   -0.3209    1.3651 C   0  0  0  0  0  0  0  0  0  0  0  0
    0.4816   -0.5837    2.4831 C   0  0  0  0  0  0  0  0  0  0  0  0
    0.0060   -0.5828    3.7671 C   0  0  0  0  0  0  0  0  0  0  0  0
   -1.2941   -0.3174    3.9283 N   0  0  0  0  0  0  0  0  0  0  0  0
   -2.1163   -0.0586    2.8684 C   0  0  0  0  0  0  0  0  0  0  0  0
   -1.6580   -0.0537    1.5545 C   0  0  0  0  0  0  0  0  0  0  0  0
   -2.6225    0.2215    0.5157 C   0  0  0  0  0  0  0  0  0  0  0  0
   -2.2673    0.1978   -0.6904 O   0  0  0  0  0  0  0  0  0  0  0  0
   -3.9852    0.5282    0.7330 N   0  0  0  0  0  0  0  0  0  0  0  0
   -4.8976    0.7940   -0.3762 C   0  0  0  0  0  0  0  0  0  0  0  0
   -4.9237   -0.4453   -1.2468 C   0  0  0  0  0  0  0  0  0  0  0  0
   -4.4420    1.9394   -1.2278 C   0  0  0  0  0  0  0  0  0  0  0  0
   -6.2868    1.0577    0.0988 C   0  0  0  0  0  0  0  0  0  0  0  0
   -7.1213    1.3047   -0.9783 O   0  0  0  0  0  0  0  0  0  0  0  0
    2.9297   -4.2777    1.3571 H   0  0  0  0  0  0  0  0  0  0  0  0
    1.2636   -5.0345    1.3323 H   0  0  0  0  0  0  0  0  0  0  0  0
   -0.3242   -4.1884   -0.0067 H   0  0  0  0  0  0  0  0  0  0  0  0
   -0.7507   -3.0321    1.2908 H   0  0  0  0  0  0  0  0  0  0  0  0
   -0.3773   -2.4839   -0.4614 H   0  0  0  0  0  0  0  0  0  0  0  0
    3.9242   -3.0561    0.3200 H   0  0  0  0  0  0  0  0  0  0  0  0
    6.3859   -0.1730   -0.7553 H   0  0  0  0  0  0  0  0  0  0  0  0
    7.5145    3.7901   -1.9819 H   0  0  0  0  0  0  0  0  0  0  0  0
    5.1661    4.4695   -1.8831 H   0  0  0  0  0  0  0  0  0  0  0  0
    2.0193    1.3268   -0.6336 H   0  0  0  0  0  0  0  0  0  0  0  0
   -0.2619   -0.1231   -0.7706 H   0  0  0  0  0  0  0  0  0  0  0  0
    1.5302   -0.7928    2.3532 H   0  0  0  0  0  0  0  0  0  0  0  0
    0.6787   -0.7916    4.5968 H   0  0  0  0  0  0  0  0  0  0  0  0
   -3.1530    0.1440    3.1004 H   0  0  0  0  0  0  0  0  0  0  0  0
   -4.3541    0.5692    1.6943 H   0  0  0  0  0  0  0  0  0  0  0  0
   -5.9405   -0.5707   -1.6896 H   0  0  0  0  0  0  0  0  0  0  0  0
   -4.1392   -0.3450   -2.0069 H   0  0  0  0  0  0  0  0  0  0  0  0
   -4.7106   -1.3713   -0.6422 H   0  0  0  0  0  0  0  0  0  0  0  0
   -3.7176    1.6255   -2.0056 H   0  0  0  0  0  0  0  0  0  0  0  0
   -5.3595    2.3732   -1.7073 H   0  0  0  0  0  0  0  0  0  0  0  0
   -4.0108    2.7870   -0.6267 H   0  0  0  0  0  0  0  0  0  0  0  0
   -6.2670    1.9673    0.7322 H   0  0  0  0  0  0  0  0  0  0  0  0
   -6.6643    0.2131    0.7399 H   0  0  0  0  0  0  0  0  0  0  0  0
   -7.5706    2.1688   -0.8970 H   0  0  0  0  0  0  0  0  0  0  0  0
  1  2  2  3
  2  3  1  0
  2  4  1  0
  4  5  2  0
  5  6  1  0
  6  7  2  0
  7  8  1  0
  8  9  2  0
  9 10  1  0
 10 11  1  0
 10 12  2  0
 12 13  1  0
 13 14  2  0
 14 15  1  0
  7 16  1  0
 16 17  2  0
 17 18  1  0
 18 19  1  0
 19 20  2  0
 20 21  1  0
 21 22  2  0
 22 23  1  0
 23 24  2  0
 24 25  1  0
 25 26  2  0
 25 27  1  0
 27 28  1  0
 28 29  1  0
 28 30  1  0
 28 31  1  0
 31 32  1  0
 17  4  1  0
 24 19  1  0
 14  8  1  0
  1 33  1  0
  1 34  1  0
  3 35  1  0
  3 36  1  0
  3 37  1  0
  5 38  1  0
  9 39  1  0
 12 40  1  0
 13 41  1  0
 16 42  1  0
 18 43  1  0
 20 44  1  0
 21 45  1  0
 23 46  1  0
 27 47  1  0
 29 48  1  0
 29 49  1  0
 29 50  1  0
 30 51  1  0
 30 52  1  0
 30 53  1  0
 31 54  1  0
 31 55  1  0
 32 56  1  0
M  END
$$$$
