
     RDKit          3D

 65 69  0  0  0  0  0  0  0  0999 V2000
    1.0435   -4.2032    1.8146 O   0  0  0  0  0  0  0  0  0  0  0  0
    1.4925   -3.3270    1.0253 C   0  0  0  0  0  0  0  0  0  0  0  0
    2.6123   -3.4584    0.1013 C   0  0  0  0  0  0  0  0  0  0  0  0
    3.3293   -4.4621   -0.0759 O   0  0  0  0  0  0  0  0  0  0  0  0
    2.7261   -2.1929   -0.5690 N   0  0  0  0  0  0  0  0  0  0  0  0
    3.7352   -1.9350   -1.5739 C   0  0  0  0  0  0  0  0  0  0  0  0
    4.9828   -1.4071   -1.0179 C   0  0  0  0  0  0  0  0  0  0  0  0
    5.9976   -2.2555   -0.6176 C   0  0  0  0  0  0  0  0  0  0  0  0
    7.1515   -1.7479   -0.1051 C   0  0  0  0  0  0  0  0  0  0  0  0
    7.3507   -0.3573    0.0340 C   0  0  0  0  0  0  0  0  0  0  0  0
    8.5204    0.0910    0.5549 O   0  0  0  0  0  0  0  0  0  0  0  0
    9.0130    1.3394    0.7754 C   0  0  0  0  0  0  0  0  0  0  0  0
    9.2602    2.1182   -0.4870 C   0  0  0  0  0  0  0  0  0  0  0  0
    9.9482    3.8838    0.0056 Br  0  0  0  0  0  0  0  0  0  0  0  0
    6.3458    0.4931   -0.3606 C   0  0  0  0  0  0  0  0  0  0  0  0
    5.1843   -0.0595   -0.8787 C   0  0  0  0  0  0  0  0  0  0  0  0
    1.7238   -1.3031   -0.0902 C   0  0  0  0  0  0  0  0  0  0  0  0
    1.3915    0.0049   -0.3890 C   0  0  0  0  0  0  0  0  0  0  0  0
    0.3336    0.6606    0.2431 C   0  0  0  0  0  0  0  0  0  0  0  0
   -0.4174    0.0039    1.1985 C   0  0  0  0  0  0  0  0  0  0  0  0
   -1.7667    0.7771    2.0312 S   0  0  0  0  0  6  0  0  0  0  0  0
   -1.7922    0.2398    3.4321 O   0  0  0  0  0  0  0  0  0  0  0  0
   -1.3924    2.2352    2.1469 O   0  0  0  0  0  0  0  0  0  0  0  0
   -3.1672    0.5063    1.1633 N   0  0  0  0  0  0  0  0  0  0  0  0
   -3.5943   -0.8184    0.9800 C   0  0  0  0  0  0  0  0  0  0  0  0
   -3.6073   -0.9580   -0.5296 C   0  0  0  0  0  0  0  0  0  0  0  0
   -3.1866    0.3755   -1.1058 C   0  0  0  0  0  0  0  0  0  0  0  0
   -3.4402    1.3214    0.0493 C   0  0  1  0  0  0  0  0  0  0  0  0
   -4.8698    1.7907   -0.0574 C   0  0  0  0  0  0  0  0  0  0  0  0
   -5.7834    0.7418   -0.1558 O   0  0  0  0  0  0  0  0  0  0  0  0
   -7.1477    0.9614   -0.2630 C   0  0  0  0  0  0  0  0  0  0  0  0
   -8.0180   -0.1076   -0.3584 C   0  0  0  0  0  0  0  0  0  0  0  0
   -9.3853    0.0713   -0.4667 C   0  0  0  0  0  0  0  0  0  0  0  0
   -9.9344    1.3293   -0.4836 C   0  0  0  0  0  0  0  0  0  0  0  0
   -9.0777    2.4116   -0.3889 C   0  0  0  0  0  0  0  0  0  0  0  0
   -7.7114    2.2213   -0.2810 C   0  0  0  0  0  0  0  0  0  0  0  0
   -0.0607   -1.2982    1.4733 C   0  0  0  0  0  0  0  0  0  0  0  0
    0.9781   -1.9654    0.8631 C   0  0  0  0  0  0  0  0  0  0  0  0
    3.2771   -1.2311   -2.3131 H   0  0  0  0  0  0  0  0  0  0  0  0
    3.9667   -2.8600   -2.1671 H   0  0  0  0  0  0  0  0  0  0  0  0
    5.8957   -3.3186   -0.7021 H   0  0  0  0  0  0  0  0  0  0  0  0
    7.9541   -2.4005    0.2124 H   0  0  0  0  0  0  0  0  0  0  0  0
    9.9964    1.3377    1.3271 H   0  0  0  0  0  0  0  0  0  0  0  0
    8.3132    1.9389    1.4434 H   0  0  0  0  0  0  0  0  0  0  0  0
   10.0857    1.5825   -1.0276 H   0  0  0  0  0  0  0  0  0  0  0  0
    8.3775    2.1874   -1.1056 H   0  0  0  0  0  0  0  0  0  0  0  0
    6.4290    1.5679   -0.2547 H   0  0  0  0  0  0  0  0  0  0  0  0
    4.4141    0.6090   -1.1817 H   0  0  0  0  0  0  0  0  0  0  0  0
    1.9939    0.4948   -1.1389 H   0  0  0  0  0  0  0  0  0  0  0  0
    0.1005    1.6717   -0.0088 H   0  0  0  0  0  0  0  0  0  0  0  0
   -2.8714   -1.5616    1.3924 H   0  0  0  0  0  0  0  0  0  0  0  0
   -4.5739   -1.0749    1.4284 H   0  0  0  0  0  0  0  0  0  0  0  0
   -2.9064   -1.7554   -0.8539 H   0  0  0  0  0  0  0  0  0  0  0  0
   -4.6376   -1.1686   -0.8545 H   0  0  0  0  0  0  0  0  0  0  0  0
   -3.7799    0.6480   -2.0021 H   0  0  0  0  0  0  0  0  0  0  0  0
   -2.0994    0.3823   -1.3047 H   0  0  0  0  0  0  0  0  0  0  0  0
   -2.7460    2.1815    0.0432 H   0  0  0  0  0  0  0  0  0  0  0  0
   -5.1411    2.4587    0.7980 H   0  0  0  0  0  0  0  0  0  0  0  0
   -4.9742    2.4201   -0.9658 H   0  0  0  0  0  0  0  0  0  0  0  0
   -7.6067   -1.1167   -0.3475 H   0  0  0  0  0  0  0  0  0  0  0  0
  -10.0573   -0.7858   -0.5411 H   0  0  0  0  0  0  0  0  0  0  0  0
  -11.0077    1.4661   -0.5687 H   0  0  0  0  0  0  0  0  0  0  0  0
   -9.5099    3.3834   -0.4026 H   0  0  0  0  0  0  0  0  0  0  0  0
   -7.0265    3.0526   -0.2062 H   0  0  0  0  0  0  0  0  0  0  0  0
   -0.6338   -1.8305    2.2162 H   0  0  0  0  0  0  0  0  0  0  0  0
  1  2  2  0
  2  3  1  0
  3  4  2  0
  3  5  1  0
  5  6  1  0
  6  7  1  0
  7  8  2  0
  8  9  1  0
  9 10  2  0
 10 11  1  0
 11 12  1  0
 12 13  1  0
 13 14  1  0
 10 15  1  0
 15 16  2  0
  5 17  1  0
 17 18  2  0
 18 19  1  0
 19 20  2  0
 20 21  1  0
 21 22  2  0
 21 23  2  0
 21 24  1  0
 24 25  1  0
 25 26  1  0
 26 27  1  0
 27 28  1  0
 28 29  1  0
 29 30  1  0
 30 31  1  0
 31 32  2  0
 32 33  1  0
 33 34  2  0
 34 35  1  0
 35 36  2  0
 20 37  1  0
 37 38  2  0
 38  2  1  0
 16  7  1  0
 38 17  1  0
 28 24  1  0
 36 31  1  0
  6 39  1  0
  6 40  1  0
  8 41  1  0
  9 42  1  0
 12 43  1  0
 12 44  1  0
 13 45  1  0
 13 46  1  0
 15 47  1  0
 16 48  1  0
 18 49  1  0
 19 50  1  0
 25 51  1  0
 25 52  1  0
 26 53  1  0
 26 54  1  0
 27 55  1  0
 27 56  1  0
 28 57  1  6
 29 58  1  0
 29 59  1  0
 32 60  1  0
 33 61  1  0
 34 62  1  0
 35 63  1  0
 36 64  1  0
 37 65  1  0
M  END
$$$$
