
     RDKit          3D

 52 55  0  0  0  0  0  0  0  0999 V2000
   -0.1182   -1.6419   -2.1331 O   0  0  0  0  0  0  0  0  0  0  0  0
   -0.0709   -1.4183   -0.8813 C   0  0  0  0  0  0  0  0  0  0  0  0
   -1.0297   -2.1013   -0.1010 N   0  0  0  0  0  0  0  0  0  0  0  0
   -1.9813   -2.9782   -0.6785 C   0  0  0  0  0  0  0  0  0  0  0  0
   -1.7302   -4.3227   -0.8452 C   0  0  0  0  0  0  0  0  0  0  0  0
   -2.6868   -5.1679   -1.4184 C   0  0  0  0  0  0  0  0  0  0  0  0
   -3.8959   -4.6518   -1.8220 C   0  0  0  0  0  0  0  0  0  0  0  0
   -5.0803   -5.7103   -2.5340 Cl  0  0  0  0  0  0  0  0  0  0  0  0
   -4.1509   -3.2886   -1.6530 C   0  0  0  0  0  0  0  0  0  0  0  0
   -3.1913   -2.4540   -1.0808 C   0  0  0  0  0  0  0  0  0  0  0  0
   -3.4187   -1.0421   -0.8904 C   0  0  0  0  0  0  0  0  0  0  0  0
   -2.5486   -0.3042   -0.3753 O   0  0  0  0  0  0  0  0  0  0  0  0
   -4.6357   -0.4363   -1.2791 N   0  0  0  0  0  0  0  0  0  0  0  0
   -4.8768    0.9668   -1.0962 C   0  0  0  0  0  0  0  0  0  0  0  0
   -5.4475    1.3596    0.0904 C   0  0  0  0  0  0  0  0  0  0  0  0
   -5.7226    2.6927    0.3680 C   0  0  0  0  0  0  0  0  0  0  0  0
   -5.3970    3.6125   -0.6034 C   0  0  0  0  0  0  0  0  0  0  0  0
   -5.7116    5.3326   -0.3362 Cl  0  0  0  0  0  0  0  0  0  0  0  0
   -4.8174    3.2154   -1.8089 C   0  0  0  0  0  0  0  0  0  0  0  0
   -4.5809    1.9045   -2.0051 N   0  0  0  0  0  0  0  0  0  0  0  0
    0.9345   -0.5002   -0.3278 C   0  0  0  0  0  0  0  0  0  0  0  0
    1.8472    0.1394   -1.1415 C   0  0  0  0  0  0  0  0  0  0  0  0
    2.8032    1.0062   -0.6564 C   0  0  0  0  0  0  0  0  0  0  0  0
    2.8899    1.2768    0.6923 C   0  0  0  0  0  0  0  0  0  0  0  0
    3.9267    2.2143    1.2003 C   0  0  0  0  0  0  0  0  0  0  0  0
    5.1551    1.5285    1.5351 N   0  0  0  0  0  4  0  0  0  0  0  0
    6.0945    1.3881    0.5775 C   0  0  0  0  0  0  0  0  0  0  0  0
    7.2865    0.7306    0.8774 C   0  0  0  0  0  0  0  0  0  0  0  0
    7.5013    0.2284    2.1439 C   0  0  0  0  0  0  0  0  0  0  0  0
    6.5070    0.4022    3.0776 C   0  0  0  0  0  0  0  0  0  0  0  0
    5.3332    1.0515    2.7766 C   0  0  0  0  0  0  0  0  0  0  0  0
    1.9878    0.6485    1.5227 C   0  0  0  0  0  0  0  0  0  0  0  0
    1.0203   -0.2308    1.0182 C   0  0  0  0  0  0  0  0  0  0  0  0
   -1.0509   -1.9676    0.9276 H   0  0  0  0  0  0  0  0  0  0  0  0
   -0.7774   -4.7249   -0.5263 H   0  0  0  0  0  0  0  0  0  0  0  0
   -2.4347   -6.2148   -1.5245 H   0  0  0  0  0  0  0  0  0  0  0  0
   -5.0968   -2.9129   -1.9744 H   0  0  0  0  0  0  0  0  0  0  0  0
   -5.4184   -0.9698   -1.7160 H   0  0  0  0  0  0  0  0  0  0  0  0
   -5.6967    0.6266    0.8414 H   0  0  0  0  0  0  0  0  0  0  0  0
   -6.1681    3.0460    1.2822 H   0  0  0  0  0  0  0  0  0  0  0  0
   -4.5773    3.9695   -2.5448 H   0  0  0  0  0  0  0  0  0  0  0  0
    1.7771   -0.0767   -2.2134 H   0  0  0  0  0  0  0  0  0  0  0  0
    3.5116    1.4991   -1.3123 H   0  0  0  0  0  0  0  0  0  0  0  0
    4.1868    2.9920    0.4448 H   0  0  0  0  0  0  0  0  0  0  0  0
    3.5837    2.7550    2.0983 H   0  0  0  0  0  0  0  0  0  0  0  0
    5.9718    1.7662   -0.4343 H   0  0  0  0  0  0  0  0  0  0  0  0
    8.0695    0.5926    0.1454 H   0  0  0  0  0  0  0  0  0  0  0  0
    8.4055   -0.2875    2.4254 H   0  0  0  0  0  0  0  0  0  0  0  0
    6.6198    0.0275    4.0935 H   0  0  0  0  0  0  0  0  0  0  0  0
    4.5361    1.2032    3.4863 H   0  0  0  0  0  0  0  0  0  0  0  0
    2.0411    0.8491    2.5843 H   0  0  0  0  0  0  0  0  0  0  0  0
    0.3227   -0.7103    1.7045 H   0  0  0  0  0  0  0  0  0  0  0  0
  1  2  2  0
  2  3  1  0
  3  4  1  0
  4  5  2  0
  5  6  1  0
  6  7  2  0
  7  8  1  0
  7  9  1  0
  9 10  2  0
 10 11  1  0
 11 12  2  0
 11 13  1  0
 13 14  1  0
 14 15  2  0
 15 16  1  0
 16 17  2  0
 17 18  1  0
 17 19  1  0
 19 20  2  0
  2 21  1  0
 21 22  2  0
 22 23  1  0
 23 24  2  0
 24 25  1  0
 25 26  1  0
 26 27  2  0
 27 28  1  0
 28 29  2  0
 29 30  1  0
 30 31  2  0
 24 32  1  0
 32 33  2  0
 10  4  1  0
 20 14  1  0
 33 21  1  0
 31 26  1  0
  3 34  1  0
  5 35  1  0
  6 36  1  0
  9 37  1  0
 13 38  1  0
 15 39  1  0
 16 40  1  0
 19 41  1  0
 22 42  1  0
 23 43  1  0
 25 44  1  0
 25 45  1  0
 27 46  1  0
 28 47  1  0
 29 48  1  0
 30 49  1  0
 31 50  1  0
 32 51  1  0
 33 52  1  0
M  CHG  1  26   1
M  END
$$$$
