
     RDKit          3D

 36 38  0  0  0  0  0  0  0  0999 V2000
   -5.1088    3.6134   -1.8668 Br  0  0  0  0  0  0  0  0  0  0  0  0
   -4.6935    1.9742   -0.9923 C   0  0  0  0  0  0  0  0  0  0  0  0
   -5.7000    1.1928   -0.4707 C   0  0  0  0  0  0  0  0  0  0  0  0
   -5.3309    0.0260    0.1455 C   0  0  0  0  0  0  0  0  0  0  0  0
   -4.0035   -0.3364    0.2314 C   0  0  0  0  0  0  0  0  0  0  0  0
   -2.9793    0.4045   -0.2693 C   0  0  0  0  0  0  0  0  0  0  0  0
   -1.6229    0.0089   -0.1615 N   0  0  0  0  0  0  0  0  0  0  0  0
   -1.0967   -1.0959    0.5283 C   0  0  0  0  0  0  0  0  0  0  0  0
    0.2552   -1.3467    0.5104 C   0  0  0  0  0  0  0  0  0  0  0  0
    1.1724   -0.5719   -0.1623 C   0  0  0  0  0  0  0  0  0  0  0  0
    2.5327   -0.7821   -0.2105 C   0  0  0  0  0  0  0  0  0  0  0  0
    3.4180    0.0680   -0.9306 N   0  0  0  0  0  0  0  0  0  0  0  0
    3.9734    1.1717   -0.2417 C   0  0  0  0  0  0  0  0  0  0  0  0
    3.7640    1.4847    0.9571 O   0  0  0  0  0  0  0  0  0  0  0  0
    4.8726    2.0113   -1.0206 C   0  0  0  0  0  0  0  0  0  0  0  0
    5.4603    3.0753   -0.4996 C   0  0  0  0  0  0  0  0  0  0  0  0
    3.0426   -1.8728    0.4780 C   0  0  0  0  0  0  0  0  0  0  0  0
    2.1682   -2.6786    1.1660 C   0  0  0  0  0  0  0  0  0  0  0  0
    0.8342   -2.4082    1.1686 C   0  0  0  0  0  0  0  0  0  0  0  0
    0.0507   -3.2546    1.8711 N   0  0  0  0  0  0  0  0  0  0  0  0
   -1.2639   -3.0371    1.9069 C   0  0  0  0  0  0  0  0  0  0  0  0
   -1.7712   -1.9935    1.2510 N   0  0  0  0  0  0  0  0  0  0  0  0
   -3.3869    1.5673   -0.8799 C   0  0  0  0  0  0  0  0  0  0  0  0
   -6.7226    1.5270   -0.5674 H   0  0  0  0  0  0  0  0  0  0  0  0
   -6.1501   -0.5584    0.5412 H   0  0  0  0  0  0  0  0  0  0  0  0
   -3.8906   -1.2743    0.7404 H   0  0  0  0  0  0  0  0  0  0  0  0
   -1.0077    0.6627   -0.6803 H   0  0  0  0  0  0  0  0  0  0  0  0
    0.8500    0.2917   -0.7204 H   0  0  0  0  0  0  0  0  0  0  0  0
    3.6326   -0.1385   -1.9308 H   0  0  0  0  0  0  0  0  0  0  0  0
    5.1372    1.8569   -2.0530 H   0  0  0  0  0  0  0  0  0  0  0  0
    6.1372    3.8612   -0.7789 H   0  0  0  0  0  0  0  0  0  0  0  0
    5.4004    3.4882    0.4915 H   0  0  0  0  0  0  0  0  0  0  0  0
    4.1030   -2.0629    0.4587 H   0  0  0  0  0  0  0  0  0  0  0  0
    2.6143   -3.5128    1.6847 H   0  0  0  0  0  0  0  0  0  0  0  0
   -2.0591   -3.5898    2.4060 H   0  0  0  0  0  0  0  0  0  0  0  0
   -2.6314    2.2288   -1.3132 H   0  0  0  0  0  0  0  0  0  0  0  0
  1  2  1  0
  2  3  2  0
  3  4  1  0
  4  5  2  0
  5  6  1  0
  6  7  1  0
  7  8  1  0
  8  9  1  0
  9 10  2  0
 10 11  1  0
 11 12  1  0
 12 13  1  0
 13 14  2  0
 13 15  1  0
 15 16  2  0
 11 17  2  0
 17 18  1  0
 18 19  2  0
 19 20  1  0
 20 21  2  0
 21 22  1  0
  6 23  2  0
 23  2  1  0
 22  8  2  0
 19  9  1  0
  3 24  1  0
  4 25  1  0
  5 26  1  0
  7 27  1  0
 10 28  1  0
 12 29  1  0
 15 30  1  0
 16 31  1  0
 16 32  1  0
 17 33  1  0
 18 34  1  0
 21 35  1  0
 23 36  1  0
M  END
$$$$
