
     RDKit          3D

 57 60  0  0  0  0  0  0  0  0999 V2000
    5.8906   -2.8031   -0.6418 N   0  0  0  0  0  0  0  0  0  0  0  0
    6.0438   -1.4093   -0.8701 C   0  0  0  0  0  0  0  0  0  0  0  0
    6.2221   -0.9082   -2.0135 O   0  0  0  0  0  0  0  0  0  0  0  0
    5.9928   -0.4801    0.2978 C   0  0  0  0  0  0  0  0  0  0  0  0
    6.1703    0.9415   -0.1172 C   0  0  0  0  0  0  0  0  0  0  0  0
    4.9590    1.6281   -0.6382 C   0  0  0  0  0  0  0  0  0  0  0  0
    3.6676    1.2335    0.1084 C   0  0  0  0  0  0  0  0  0  0  0  0
    3.0834    0.1988   -0.6669 N   0  0  0  0  0  0  0  0  0  0  0  0
    1.7436   -0.1557   -0.4142 C   0  0  1  0  0  0  0  0  0  0  0  0
    1.2208   -0.7326    0.8525 C   0  0  0  0  0  0  0  0  0  0  0  0
    0.9648    0.6760    0.5472 C   0  0  2  0  0  0  0  0  0  0  0  0
   -0.4163    1.0945    0.1209 C   0  0  0  0  0  0  0  0  0  0  0  0
   -0.9201    2.3527    0.3988 C   0  0  0  0  0  0  0  0  0  0  0  0
   -2.1897    2.6405   -0.0254 C   0  0  0  0  0  0  0  0  0  0  0  0
   -2.9577    1.6978   -0.7177 C   0  0  0  0  0  0  0  0  0  0  0  0
   -4.2388    2.0533   -1.1206 O   0  0  0  0  0  0  0  0  0  0  0  0
   -5.1402    1.2497   -1.8143 C   0  0  0  0  0  0  0  0  0  0  0  0
   -5.5348   -0.0003   -1.1356 C   0  0  0  0  0  0  0  0  0  0  0  0
   -4.9443   -1.2273   -1.3464 C   0  0  0  0  0  0  0  0  0  0  0  0
   -5.3214   -2.3832   -0.6894 C   0  0  0  0  0  0  0  0  0  0  0  0
   -6.3437   -2.3289    0.2324 C   0  0  0  0  0  0  0  0  0  0  0  0
   -6.9503   -1.1036    0.4576 C   0  0  0  0  0  0  0  0  0  0  0  0
   -8.0653   -1.0689    1.4692 C   0  0  0  0  0  0  0  0  0  0  0  0
   -8.4175    0.2277    1.7148 F   0  0  0  0  0  0  0  0  0  0  0  0
   -9.0936   -1.8573    1.0371 F   0  0  0  0  0  0  0  0  0  0  0  0
   -7.5284   -1.6637    2.6172 F   0  0  0  0  0  0  0  0  0  0  0  0
   -6.5717    0.0358   -0.1960 C   0  0  0  0  0  0  0  0  0  0  0  0
   -2.4172    0.5093   -0.9529 N   0  0  0  0  0  0  0  0  0  0  0  0
   -1.1901    0.1823   -0.5618 C   0  0  0  0  0  0  0  0  0  0  0  0
    4.1679    0.6448    1.4344 C   0  0  0  0  0  0  0  0  0  0  0  0
    4.7381   -0.7154    1.1143 C   0  0  0  0  0  0  0  0  0  0  0  0
    6.5835   -3.2547    0.0042 H   0  0  0  0  0  0  0  0  0  0  0  0
    5.1184   -3.3031   -1.1125 H   0  0  0  0  0  0  0  0  0  0  0  0
    6.8563   -0.7559    0.9549 H   0  0  0  0  0  0  0  0  0  0  0  0
    6.9114    0.9191   -0.9747 H   0  0  0  0  0  0  0  0  0  0  0  0
    6.7261    1.5422    0.6631 H   0  0  0  0  0  0  0  0  0  0  0  0
    5.0819    2.7153   -0.4584 H   0  0  0  0  0  0  0  0  0  0  0  0
    4.8304    1.4805   -1.7291 H   0  0  0  0  0  0  0  0  0  0  0  0
    3.0546    2.1327    0.2747 H   0  0  0  0  0  0  0  0  0  0  0  0
    3.2926    0.2119   -1.6791 H   0  0  0  0  0  0  0  0  0  0  0  0
    1.1270   -0.4574   -1.3460 H   0  0  0  0  0  0  0  0  0  0  0  0
    1.9262   -1.0469    1.6429 H   0  0  0  0  0  0  0  0  0  0  0  0
    0.3987   -1.5000    0.7532 H   0  0  0  0  0  0  0  0  0  0  0  0
    1.4301    1.4365    1.1945 H   0  0  0  0  0  0  0  0  0  0  0  0
   -0.3013    3.0782    0.9433 H   0  0  0  0  0  0  0  0  0  0  0  0
   -2.6313    3.6271    0.1729 H   0  0  0  0  0  0  0  0  0  0  0  0
   -6.0833    1.8555   -1.9305 H   0  0  0  0  0  0  0  0  0  0  0  0
   -4.8187    1.0633   -2.8745 H   0  0  0  0  0  0  0  0  0  0  0  0
   -4.1329   -1.3016   -2.0855 H   0  0  0  0  0  0  0  0  0  0  0  0
   -4.8556   -3.3432   -0.8573 H   0  0  0  0  0  0  0  0  0  0  0  0
   -6.6860   -3.2017    0.7812 H   0  0  0  0  0  0  0  0  0  0  0  0
   -7.0600    0.9983   -0.0082 H   0  0  0  0  0  0  0  0  0  0  0  0
   -0.7622   -0.8146   -0.7659 H   0  0  0  0  0  0  0  0  0  0  0  0
    3.3926    0.6380    2.2014 H   0  0  0  0  0  0  0  0  0  0  0  0
    5.0278    1.3301    1.7506 H   0  0  0  0  0  0  0  0  0  0  0  0
    4.0133   -1.2540    0.4773 H   0  0  0  0  0  0  0  0  0  0  0  0
    4.9366   -1.3241    2.0157 H   0  0  0  0  0  0  0  0  0  0  0  0
  1  2  1  0
  2  3  2  0
  2  4  1  0
  4  5  1  0
  5  6  1  0
  6  7  1  0
  7  8  1  0
  8  9  1  0
  9 10  1  0
 10 11  1  0
 11 12  1  0
 12 13  2  0
 13 14  1  0
 14 15  2  0
 15 16  1  0
 16 17  1  0
 17 18  1  0
 18 19  2  0
 19 20  1  0
 20 21  2  0
 21 22  1  0
 22 23  1  0
 23 24  1  0
 23 25  1  0
 23 26  1  0
 22 27  2  0
 15 28  1  0
 28 29  2  0
  7 30  1  0
 30 31  1  0
 31  4  1  0
 11  9  1  0
 29 12  1  0
 27 18  1  0
  1 32  1  0
  1 33  1  0
  4 34  1  0
  5 35  1  0
  5 36  1  0
  6 37  1  0
  6 38  1  0
  7 39  1  0
  8 40  1  0
  9 41  1  6
 10 42  1  0
 10 43  1  0
 11 44  1  1
 13 45  1  0
 14 46  1  0
 17 47  1  0
 17 48  1  0
 19 49  1  0
 20 50  1  0
 21 51  1  0
 27 52  1  0
 29 53  1  0
 30 54  1  0
 30 55  1  0
 31 56  1  0
 31 57  1  0
M  END
$$$$
