
     RDKit          3D

191194  0  0  0  0  0  0  0  0999 V2000
   17.0468    0.8567   -0.9485 C   0  0  0  0  0  0  0  0  0  0  0  0
   16.9233    0.0867   -2.5585 S   0  0  0  0  0  0  0  0  0  0  0  0
   16.6802   -1.6514   -2.4670 C   0  0  0  0  0  0  0  0  0  0  0  0
   15.3801   -2.2403   -2.2273 C   0  0  0  0  0  0  0  0  0  0  0  0
   14.4888   -1.9531   -1.0901 C   0  0  2  0  0  0  0  0  0  0  0  0
   13.9589   -0.6168   -0.9987 N   0  0  0  0  0  0  0  0  0  0  0  0
   12.5554   -0.3704   -1.1309 C   0  0  0  0  0  0  0  0  0  0  0  0
   11.8452   -1.4390   -1.2855 O   0  0  0  0  0  0  0  0  0  0  0  0
   11.8530    0.9091   -1.1192 C   0  0  2  0  0  0  0  0  0  0  0  0
   12.2079    1.9405   -0.1535 C   0  0  0  0  0  0  0  0  0  0  0  0
   12.0585    1.6126    1.3039 C   0  0  0  0  0  0  0  0  0  0  0  0
   12.5005    2.8925    2.0460 C   0  0  0  0  0  0  0  0  0  0  0  0
   12.9418    0.5306    1.8125 C   0  0  0  0  0  0  0  0  0  0  0  0
   10.3994    0.7026   -1.2629 N   0  0  0  0  0  0  0  0  0  0  0  0
    9.8478    0.2843   -2.4942 C   0  0  0  0  0  0  0  0  0  0  0  0
   10.7639    0.1210   -3.4118 O   0  0  0  0  0  0  0  0  0  0  0  0
    8.4653    0.0219   -2.8427 C   0  0  0  0  0  0  0  0  0  0  0  0
    7.3996    0.2368   -1.9748 N   0  0  0  0  0  0  0  0  0  0  0  0
    6.9796    1.5069   -1.4658 C   0  0  0  0  0  0  0  0  0  0  0  0
    7.6551    2.4960   -1.8261 O   0  0  0  0  0  0  0  0  0  0  0  0
    5.8345    1.6789   -0.5960 C   0  0  2  0  0  0  0  0  0  0  0  0
    5.8829    2.7593    0.4183 C   0  0  0  0  0  0  0  0  0  0  0  0
    6.9433    2.7261    1.4289 C   0  0  0  0  0  0  0  0  0  0  0  0
    8.0811    3.4991    1.2579 C   0  0  0  0  0  0  0  0  0  0  0  0
    9.0832    3.5209    2.1982 C   0  0  0  0  0  0  0  0  0  0  0  0
    8.9806    2.7656    3.3421 C   0  0  0  0  0  0  0  0  0  0  0  0
    7.8286    1.9837    3.5060 C   0  0  0  0  0  0  0  0  0  0  0  0
    6.8147    1.9445    2.5883 C   0  0  0  0  0  0  0  0  0  0  0  0
    5.2873    0.4347   -0.0513 N   0  0  0  0  0  0  0  0  0  0  0  0
    3.9236    0.1574   -0.1724 C   0  0  0  0  0  0  0  0  0  0  0  0
    3.1377    0.9812   -0.7748 O   0  0  0  0  0  0  0  0  0  0  0  0
    3.3050   -1.0513    0.3616 C   0  0  0  0  0  0  0  0  0  0  0  0
    3.8897   -1.9951    1.0057 C   0  0  0  0  0  0  0  0  0  0  0  0
    5.2573   -2.2174    1.4187 C   0  0  0  0  0  0  0  0  0  0  0  0
    6.1346   -3.0149    0.7339 C   0  0  0  0  0  0  0  0  0  0  0  0
    7.4111   -3.2737    1.2013 C   0  0  0  0  0  0  0  0  0  0  0  0
    7.8279   -2.7131    2.4014 C   0  0  0  0  0  0  0  0  0  0  0  0
    6.9380   -1.9143    3.0822 C   0  0  0  0  0  0  0  0  0  0  0  0
    5.6705   -1.6499    2.6298 C   0  0  0  0  0  0  0  0  0  0  0  0
    1.8784   -1.1733    0.0740 N   0  0  0  0  0  0  0  0  0  0  0  0
    1.1274   -2.3311    0.1031 C   0  0  0  0  0  0  0  0  0  0  0  0
    1.7252   -3.4539    0.3612 O   0  0  0  0  0  0  0  0  0  0  0  0
   -0.3160   -2.4812   -0.1231 C   0  0  2  0  0  0  0  0  0  0  0  0
   -0.6009   -3.4269   -1.2743 C   0  0  0  0  0  0  0  0  0  0  0  0
    0.0245   -2.8789   -2.5511 C   0  0  0  0  0  0  0  0  0  0  0  0
   -0.2670   -3.8187   -3.6862 C   0  0  0  0  0  0  0  0  0  0  0  0
    0.1716   -3.5001   -4.9952 N   0  0  0  0  0  0  0  0  0  0  0  0
   -0.8901   -4.8900   -3.5151 O   0  0  0  0  0  0  0  0  0  0  0  0
   -1.1205   -1.3255   -0.2857 N   0  0  0  0  0  0  0  0  0  0  0  0
   -1.5923   -0.6318    0.8423 C   0  0  0  0  0  0  0  0  0  0  0  0
   -1.1886   -1.0716    1.9895 O   0  0  0  0  0  0  0  0  0  0  0  0
   -2.4721    0.5080    0.8621 C   0  0  2  0  0  0  0  0  0  0  0  0
   -2.8392    1.0398    2.2493 C   0  0  0  0  0  0  0  0  0  0  0  0
   -1.6401    1.5256    2.9873 C   0  0  0  0  0  0  0  0  0  0  0  0
   -1.9949    2.0899    4.3170 C   0  0  0  0  0  0  0  0  0  0  0  0
   -1.0242    2.5835    5.2238 N   0  0  0  0  0  0  0  0  0  0  0  0
   -3.2423    2.1072    4.6152 O   0  0  0  0  0  0  0  0  0  0  0  0
   -3.6554    0.4152    0.0271 N   0  0  0  0  0  0  0  0  0  0  0  0
   -4.2233    1.5567   -0.5475 C   0  0  0  0  0  0  0  0  0  0  0  0
   -3.6014    2.6550   -0.2903 O   0  0  0  0  0  0  0  0  0  0  0  0
   -5.4107    1.6364   -1.3823 C   0  0  1  0  0  0  0  0  0  0  0  0
   -5.0917    2.1545   -2.7832 C   0  0  0  0  0  0  0  0  0  0  0  0
   -5.0069    0.9267   -3.6538 C   0  0  0  0  0  0  0  0  0  0  0  0
   -5.3321   -0.2327   -2.6950 C   0  0  0  0  0  0  0  0  0  0  0  0
   -6.1182    0.4427   -1.6914 N   0  0  0  0  0  0  0  0  0  0  0  0
   -7.3565   -0.0123   -1.1839 C   0  0  0  0  0  0  0  0  0  0  0  0
   -7.7223   -1.1729   -1.6347 O   0  0  0  0  0  0  0  0  0  0  0  0
   -8.2393    0.6823   -0.2449 C   0  0  2  0  0  0  0  0  0  0  0  0
   -7.7064    0.8443    1.1199 C   0  0  0  0  0  0  0  0  0  0  0  0
   -7.4332   -0.3166    1.9658 C   0  0  0  0  0  0  0  0  0  0  0  0
   -6.4150   -1.3196    1.6125 C   0  0  0  0  0  0  0  0  0  0  0  0
   -6.3598   -2.4574    2.6479 C   0  0  0  0  0  0  0  0  0  0  0  0
   -5.3462   -3.4202    2.2759 N   0  0  0  0  0  0  0  0  0  0  0  0
   -9.5054   -0.0907   -0.1574 N   0  0  0  0  0  0  0  0  0  0  0  0
  -10.7538    0.3997   -0.5959 C   0  0  0  0  0  0  0  0  0  0  0  0
  -10.8511    1.5363   -1.1009 O   0  0  0  0  0  0  0  0  0  0  0  0
  -11.9393   -0.4638   -0.4414 C   0  0  2  0  0  0  0  0  0  0  0  0
  -11.7935   -1.8354   -0.9851 C   0  0  0  0  0  0  0  0  0  0  0  0
  -12.6931   -1.8469   -2.1741 C   0  0  0  0  0  0  0  0  0  0  0  0
  -13.7478   -0.8360   -1.8474 C   0  0  0  0  0  0  0  0  0  0  0  0
  -13.1713    0.1040   -0.9259 N   0  0  0  0  0  0  0  0  0  0  0  0
  -13.6617    1.3613   -0.5218 C   0  0  0  0  0  0  0  0  0  0  0  0
  -12.9852    2.0573    0.3301 O   0  0  0  0  0  0  0  0  0  0  0  0
  -14.9255    1.9899   -0.9959 C   0  0  1  0  0  0  0  0  0  0  0  0
  -15.6709    1.1230   -1.8266 N   0  0  0  0  0  0  0  0  0  0  0  0
  -15.7455    2.3880    0.2091 C   0  0  0  0  0  0  0  0  0  0  0  0
  -17.0317    3.0545   -0.0571 C   0  0  0  0  0  0  0  0  0  0  0  0
  -18.0767    2.3207   -0.8100 C   0  0  0  0  0  0  0  0  0  0  0  0
  -18.5302    1.1232   -0.1665 N   0  0  0  0  0  0  0  0  0  0  0  0
  -19.2783    1.1360    1.0507 C   0  0  0  0  0  0  0  0  0  0  0  0
  -20.1073    2.1190    1.2756 N   0  0  0  0  0  0  0  0  0  0  0  0
  -19.1400    0.1100    2.0131 N   0  0  0  0  0  0  0  0  0  0  0  0
   15.0991   -2.4200    0.2007 C   0  0  0  0  0  0  0  0  0  0  0  0
   15.6272   -3.7394    0.3186 N   0  0  0  0  0  0  0  0  0  0  0  0
   15.1451   -1.6632    1.1688 O   0  0  0  0  0  0  0  0  0  0  0  0
   18.1055    1.1713   -0.7690 H   0  0  0  0  0  0  0  0  0  0  0  0
   16.8236    0.0767   -0.1825 H   0  0  0  0  0  0  0  0  0  0  0  0
   16.3518    1.7066   -0.8850 H   0  0  0  0  0  0  0  0  0  0  0  0
   17.0272   -2.0714   -3.4932 H   0  0  0  0  0  0  0  0  0  0  0  0
   17.5022   -2.1375   -1.8097 H   0  0  0  0  0  0  0  0  0  0  0  0
   14.7474   -2.0157   -3.1675 H   0  0  0  0  0  0  0  0  0  0  0  0
   15.4719   -3.3818   -2.2624 H   0  0  0  0  0  0  0  0  0  0  0  0
   13.6103   -2.6870   -1.2179 H   0  0  0  0  0  0  0  0  0  0  0  0
   14.5496    0.1811   -0.8375 H   0  0  0  0  0  0  0  0  0  0  0  0
   12.1051    1.3292   -2.1715 H   0  0  0  0  0  0  0  0  0  0  0  0
   13.2456    2.3845   -0.3387 H   0  0  0  0  0  0  0  0  0  0  0  0
   11.5658    2.8728   -0.2881 H   0  0  0  0  0  0  0  0  0  0  0  0
   10.9930    1.4715    1.5612 H   0  0  0  0  0  0  0  0  0  0  0  0
   11.9347    2.9831    2.9917 H   0  0  0  0  0  0  0  0  0  0  0  0
   13.5734    2.8058    2.3201 H   0  0  0  0  0  0  0  0  0  0  0  0
   12.2833    3.7855    1.4452 H   0  0  0  0  0  0  0  0  0  0  0  0
   13.9981    0.7490    1.5506 H   0  0  0  0  0  0  0  0  0  0  0  0
   12.8713    0.5101    2.9385 H   0  0  0  0  0  0  0  0  0  0  0  0
   12.7013   -0.4764    1.4672 H   0  0  0  0  0  0  0  0  0  0  0  0
    9.7987    0.8719   -0.4603 H   0  0  0  0  0  0  0  0  0  0  0  0
    8.2214    0.5168   -3.8688 H   0  0  0  0  0  0  0  0  0  0  0  0
    8.4454   -1.0953   -3.1399 H   0  0  0  0  0  0  0  0  0  0  0  0
    6.8145   -0.5840   -1.6318 H   0  0  0  0  0  0  0  0  0  0  0  0
    4.9821    2.0089   -1.3349 H   0  0  0  0  0  0  0  0  0  0  0  0
    4.8953    2.7202    0.9880 H   0  0  0  0  0  0  0  0  0  0  0  0
    5.8676    3.7412   -0.1352 H   0  0  0  0  0  0  0  0  0  0  0  0
    8.1393    4.0926    0.3359 H   0  0  0  0  0  0  0  0  0  0  0  0
    9.9492    4.1651    2.0046 H   0  0  0  0  0  0  0  0  0  0  0  0
    9.7683    2.7889    4.0769 H   0  0  0  0  0  0  0  0  0  0  0  0
    7.7974    1.3995    4.4306 H   0  0  0  0  0  0  0  0  0  0  0  0
    5.9390    1.3349    2.7348 H   0  0  0  0  0  0  0  0  0  0  0  0
    5.9769   -0.1948    0.3907 H   0  0  0  0  0  0  0  0  0  0  0  0
    3.2329   -2.8270    1.3890 H   0  0  0  0  0  0  0  0  0  0  0  0
    5.8480   -3.4759   -0.2191 H   0  0  0  0  0  0  0  0  0  0  0  0
    8.0756   -3.9017    0.6459 H   0  0  0  0  0  0  0  0  0  0  0  0
    8.8022   -2.8887    2.8016 H   0  0  0  0  0  0  0  0  0  0  0  0
    7.2767   -1.4780    4.0315 H   0  0  0  0  0  0  0  0  0  0  0  0
    4.9789   -1.0207    3.1756 H   0  0  0  0  0  0  0  0  0  0  0  0
    1.3593   -0.2705   -0.1864 H   0  0  0  0  0  0  0  0  0  0  0  0
   -0.6957   -2.9706    0.8542 H   0  0  0  0  0  0  0  0  0  0  0  0
   -0.2297   -4.4441   -1.0697 H   0  0  0  0  0  0  0  0  0  0  0  0
   -1.6993   -3.4540   -1.4164 H   0  0  0  0  0  0  0  0  0  0  0  0
   -0.3389   -1.8942   -2.8189 H   0  0  0  0  0  0  0  0  0  0  0  0
    1.1308   -2.8874   -2.4244 H   0  0  0  0  0  0  0  0  0  0  0  0
   -0.1202   -4.0751   -5.7993 H   0  0  0  0  0  0  0  0  0  0  0  0
    0.7860   -2.6776   -5.1388 H   0  0  0  0  0  0  0  0  0  0  0  0
   -1.3882   -0.9411   -1.2394 H   0  0  0  0  0  0  0  0  0  0  0  0
   -1.8934    1.4003    0.3917 H   0  0  0  0  0  0  0  0  0  0  0  0
   -3.2796    0.1850    2.7999 H   0  0  0  0  0  0  0  0  0  0  0  0
   -3.5912    1.8480    2.1297 H   0  0  0  0  0  0  0  0  0  0  0  0
   -0.8477    0.8040    3.1196 H   0  0  0  0  0  0  0  0  0  0  0  0
   -1.1770    2.3987    2.4267 H   0  0  0  0  0  0  0  0  0  0  0  0
   -1.1450    2.4351    6.2418 H   0  0  0  0  0  0  0  0  0  0  0  0
   -0.1777    3.1031    4.8843 H   0  0  0  0  0  0  0  0  0  0  0  0
   -4.0819   -0.5324   -0.1440 H   0  0  0  0  0  0  0  0  0  0  0  0
   -6.0973    2.4319   -0.9592 H   0  0  0  0  0  0  0  0  0  0  0  0
   -5.9446    2.7673   -3.1691 H   0  0  0  0  0  0  0  0  0  0  0  0
   -4.2085    2.7938   -2.8019 H   0  0  0  0  0  0  0  0  0  0  0  0
   -5.7308    0.9570   -4.4888 H   0  0  0  0  0  0  0  0  0  0  0  0
   -3.9701    0.7954   -4.0123 H   0  0  0  0  0  0  0  0  0  0  0  0
   -6.0150   -0.9363   -3.2817 H   0  0  0  0  0  0  0  0  0  0  0  0
   -4.4334   -0.7336   -2.3722 H   0  0  0  0  0  0  0  0  0  0  0  0
   -8.4950    1.6761   -0.6706 H   0  0  0  0  0  0  0  0  0  0  0  0
   -8.4190    1.5136    1.7217 H   0  0  0  0  0  0  0  0  0  0  0  0
   -6.7662    1.4941    1.1316 H   0  0  0  0  0  0  0  0  0  0  0  0
   -7.0941    0.1146    2.9795 H   0  0  0  0  0  0  0  0  0  0  0  0
   -8.4125   -0.8084    2.2914 H   0  0  0  0  0  0  0  0  0  0  0  0
   -6.4873   -1.7531    0.6223 H   0  0  0  0  0  0  0  0  0  0  0  0
   -5.3583   -0.8919    1.6983 H   0  0  0  0  0  0  0  0  0  0  0  0
   -6.0781   -2.0586    3.6470 H   0  0  0  0  0  0  0  0  0  0  0  0
   -7.3298   -2.9937    2.6480 H   0  0  0  0  0  0  0  0  0  0  0  0
   -5.1614   -3.2991    1.2421 H   0  0  0  0  0  0  0  0  0  0  0  0
   -5.6968   -4.3930    2.3718 H   0  0  0  0  0  0  0  0  0  0  0  0
   -9.4548   -1.0413    0.2490 H   0  0  0  0  0  0  0  0  0  0  0  0
  -12.0826   -0.5622    0.6838 H   0  0  0  0  0  0  0  0  0  0  0  0
  -10.7287   -2.0422   -1.2434 H   0  0  0  0  0  0  0  0  0  0  0  0
  -12.1493   -2.6174   -0.2478 H   0  0  0  0  0  0  0  0  0  0  0  0
  -12.1341   -1.5934   -3.0900 H   0  0  0  0  0  0  0  0  0  0  0  0
  -13.1283   -2.8854   -2.2834 H   0  0  0  0  0  0  0  0  0  0  0  0
  -14.1697   -0.3816   -2.7698 H   0  0  0  0  0  0  0  0  0  0  0  0
  -14.5384   -1.4078   -1.2747 H   0  0  0  0  0  0  0  0  0  0  0  0
  -14.6165    2.8995   -1.5800 H   0  0  0  0  0  0  0  0  0  0  0  0
  -15.8136    1.3253   -2.7964 H   0  0  0  0  0  0  0  0  0  0  0  0
  -16.1519    0.3272   -1.4669 H   0  0  0  0  0  0  0  0  0  0  0  0
  -15.9352    1.4827    0.8408 H   0  0  0  0  0  0  0  0  0  0  0  0
  -15.1527    3.0612    0.8877 H   0  0  0  0  0  0  0  0  0  0  0  0
  -17.4819    3.3051    0.9572 H   0  0  0  0  0  0  0  0  0  0  0  0
  -16.9079    4.0612   -0.5556 H   0  0  0  0  0  0  0  0  0  0  0  0
  -17.8107    2.1489   -1.8708 H   0  0  0  0  0  0  0  0  0  0  0  0
  -18.9739    3.0190   -0.8606 H   0  0  0  0  0  0  0  0  0  0  0  0
  -18.3241    0.1988   -0.5860 H   0  0  0  0  0  0  0  0  0  0  0  0
  -20.2887    2.9063    0.6598 H   0  0  0  0  0  0  0  0  0  0  0  0
  -18.4642    0.2777    2.7878 H   0  0  0  0  0  0  0  0  0  0  0  0
  -19.6596   -0.7804    2.0015 H   0  0  0  0  0  0  0  0  0  0  0  0
   15.5151   -4.3786   -0.4948 H   0  0  0  0  0  0  0  0  0  0  0  0
   16.1030   -4.0332    1.1952 H   0  0  0  0  0  0  0  0  0  0  0  0
  1  2  1  0
  2  3  1  0
  3  4  1  0
  4  5  1  0
  5  6  1  0
  6  7  1  0
  7  8  2  0
  7  9  1  0
  9 10  1  0
 10 11  1  0
 11 12  1  0
 11 13  1  0
  9 14  1  0
 14 15  1  0
 15 16  2  0
 15 17  1  0
 17 18  1  0
 18 19  1  0
 19 20  2  0
 19 21  1  0
 21 22  1  0
 22 23  1  0
 23 24  2  0
 24 25  1  0
 25 26  2  0
 26 27  1  0
 27 28  2  0
 21 29  1  0
 29 30  1  0
 30 31  2  0
 30 32  1  0
 32 33  2  3
 33 34  1  0
 34 35  2  0
 35 36  1  0
 36 37  2  0
 37 38  1  0
 38 39  2  0
 32 40  1  0
 40 41  1  0
 41 42  2  0
 41 43  1  0
 43 44  1  0
 44 45  1  0
 45 46  1  0
 46 47  1  0
 46 48  2  0
 43 49  1  0
 49 50  1  0
 50 51  2  0
 50 52  1  0
 52 53  1  0
 53 54  1  0
 54 55  1  0
 55 56  1  0
 55 57  2  0
 52 58  1  0
 58 59  1  0
 59 60  2  0
 59 61  1  0
 61 62  1  0
 62 63  1  0
 63 64  1  0
 64 65  1  0
 65 66  1  0
 66 67  2  0
 66 68  1  0
 68 69  1  0
 69 70  1  0
 70 71  1  0
 71 72  1  0
 72 73  1  0
 68 74  1  0
 74 75  1  0
 75 76  2  0
 75 77  1  0
 77 78  1  0
 78 79  1  0
 79 80  1  0
 80 81  1  0
 81 82  1  0
 82 83  2  0
 82 84  1  0
 84 85  1  0
 84 86  1  0
 86 87  1  0
 87 88  1  0
 88 89  1  0
 89 90  1  0
 90 91  2  3
 90 92  1  0
  5 93  1  0
 93 94  1  0
 93 95  2  0
 28 23  1  0
 39 34  1  0
 65 61  1  0
 81 77  1  0
  1 96  1  0
  1 97  1  0
  1 98  1  0
  3 99  1  0
  3100  1  0
  4101  1  0
  4102  1  0
  5103  1  6
  6104  1  0
  9105  1  6
 10106  1  0
 10107  1  0
 11108  1  0
 12109  1  0
 12110  1  0
 12111  1  0
 13112  1  0
 13113  1  0
 13114  1  0
 14115  1  0
 17116  1  0
 17117  1  0
 18118  1  0
 21119  1  6
 22120  1  0
 22121  1  0
 24122  1  0
 25123  1  0
 26124  1  0
 27125  1  0
 28126  1  0
 29127  1  0
 33128  1  0
 35129  1  0
 36130  1  0
 37131  1  0
 38132  1  0
 39133  1  0
 40134  1  0
 43135  1  1
 44136  1  0
 44137  1  0
 45138  1  0
 45139  1  0
 47140  1  0
 47141  1  0
 49142  1  0
 52143  1  6
 53144  1  0
 53145  1  0
 54146  1  0
 54147  1  0
 56148  1  0
 56149  1  0
 58150  1  0
 61151  1  1
 62152  1  0
 62153  1  0
 63154  1  0
 63155  1  0
 64156  1  0
 64157  1  0
 68158  1  6
 69159  1  0
 69160  1  0
 70161  1  0
 70162  1  0
 71163  1  0
 71164  1  0
 72165  1  0
 72166  1  0
 73167  1  0
 73168  1  0
 74169  1  0
 77170  1  1
 78171  1  0
 78172  1  0
 79173  1  0
 79174  1  0
 80175  1  0
 80176  1  0
 84177  1  6
 85178  1  0
 85179  1  0
 86180  1  0
 86181  1  0
 87182  1  0
 87183  1  0
 88184  1  0
 88185  1  0
 89186  1  0
 91187  1  0
 92188  1  0
 92189  1  0
 94190  1  0
 94191  1  0
M  END
$$$$
