
     RDKit          3D

 50 51  0  0  0  0  0  0  0  0999 V2000
   -0.8044   -0.5148   -1.0240 C   0  0  2  0  0  0  0  0  0  0  0  0
    0.5737   -0.3296   -0.4028 C   0  0  0  0  0  0  0  0  0  0  0  0
    1.7605   -1.4548   -1.0796 S   0  0  0  0  0  0  0  0  0  0  0  0
    1.9888   -1.2825   -2.5411 O   0  0  0  0  0  0  0  0  0  0  0  0
    1.3901   -2.8643   -0.7905 O   0  0  0  0  0  0  0  0  0  0  0  0
    3.3023   -1.1513   -0.2937 C   0  0  0  0  0  0  0  0  0  0  0  0
    3.6135   -1.8399    0.8582 C   0  0  0  0  0  0  0  0  0  0  0  0
    4.7927   -1.6962    1.5763 C   0  0  0  0  0  0  0  0  0  0  0  0
    5.7270   -0.7802    1.0829 C   0  0  0  0  0  0  0  0  0  0  0  0
    6.9015   -0.6470    1.8113 O   0  0  0  0  0  0  0  0  0  0  0  0
    7.9304    0.2562    1.4078 C   0  0  0  0  0  0  0  0  0  0  0  0
    5.4288   -0.0838   -0.0692 C   0  0  0  0  0  0  0  0  0  0  0  0
    4.2396   -0.2607   -0.7512 C   0  0  0  0  0  0  0  0  0  0  0  0
   -0.6793   -0.2693   -2.4946 C   0  0  0  0  0  0  0  0  0  0  0  0
   -1.9531    0.0375   -3.2114 C   0  0  0  0  0  0  0  0  0  0  0  0
   -3.0352    0.5971   -2.3405 C   0  0  0  0  0  0  0  0  0  0  0  0
   -2.3379    1.3916   -1.2494 C   0  0  0  0  0  0  0  0  0  0  0  0
   -1.7441    0.3931   -0.2991 C   0  0  1  0  0  0  0  0  0  0  0  0
   -2.8684   -0.3803    0.3287 C   0  0  0  0  0  0  0  0  0  0  0  0
   -2.7933   -1.6372    0.1183 O   0  0  0  0  0  0  0  0  0  0  0  0
   -3.8728    0.2657    1.0616 N   0  0  0  0  0  0  0  0  0  0  0  0
   -4.8661   -0.6307    1.5888 C   0  0  0  0  0  0  0  0  0  0  0  0
   -5.9217    0.1164    2.3678 C   0  0  0  0  0  0  0  0  0  0  0  0
   -5.4000    0.8403    3.4818 N   0  0  0  0  0  0  0  0  0  0  0  0
   -1.1117   -1.5647   -0.8208 H   0  0  0  0  0  0  0  0  0  0  0  0
    0.9010    0.7066   -0.4947 H   0  0  0  0  0  0  0  0  0  0  0  0
    0.5218   -0.5518    0.6822 H   0  0  0  0  0  0  0  0  0  0  0  0
    2.8998   -2.5439    1.2407 H   0  0  0  0  0  0  0  0  0  0  0  0
    4.9603   -2.2725    2.4688 H   0  0  0  0  0  0  0  0  0  0  0  0
    8.8760   -0.1439    1.8763 H   0  0  0  0  0  0  0  0  0  0  0  0
    7.7843    1.2591    1.8552 H   0  0  0  0  0  0  0  0  0  0  0  0
    8.0419    0.3215    0.3101 H   0  0  0  0  0  0  0  0  0  0  0  0
    6.1653    0.6229   -0.4378 H   0  0  0  0  0  0  0  0  0  0  0  0
    4.0190    0.2936   -1.6553 H   0  0  0  0  0  0  0  0  0  0  0  0
   -0.3164   -1.2443   -2.9341 H   0  0  0  0  0  0  0  0  0  0  0  0
    0.1321    0.4491   -2.6587 H   0  0  0  0  0  0  0  0  0  0  0  0
   -1.7088    0.8350   -3.9590 H   0  0  0  0  0  0  0  0  0  0  0  0
   -2.3481   -0.8203   -3.8193 H   0  0  0  0  0  0  0  0  0  0  0  0
   -3.5766   -0.2575   -1.8837 H   0  0  0  0  0  0  0  0  0  0  0  0
   -3.7514    1.2167   -2.9090 H   0  0  0  0  0  0  0  0  0  0  0  0
   -3.0004    2.1196   -0.7690 H   0  0  0  0  0  0  0  0  0  0  0  0
   -1.5389    1.9794   -1.7483 H   0  0  0  0  0  0  0  0  0  0  0  0
   -1.2779    0.9669    0.5174 H   0  0  0  0  0  0  0  0  0  0  0  0
   -3.8222    1.2878    1.1604 H   0  0  0  0  0  0  0  0  0  0  0  0
   -4.3968   -1.3749    2.2942 H   0  0  0  0  0  0  0  0  0  0  0  0
   -5.3856   -1.2091    0.7938 H   0  0  0  0  0  0  0  0  0  0  0  0
   -6.6895   -0.5957    2.7232 H   0  0  0  0  0  0  0  0  0  0  0  0
   -6.4443    0.8308    1.6908 H   0  0  0  0  0  0  0  0  0  0  0  0
   -5.9232    1.6773    3.7481 H   0  0  0  0  0  0  0  0  0  0  0  0
   -4.3818    0.8506    3.5921 H   0  0  0  0  0  0  0  0  0  0  0  0
  1  2  1  0
  2  3  1  0
  3  4  2  0
  3  5  2  0
  3  6  1  0
  6  7  2  0
  7  8  1  0
  8  9  2  0
  9 10  1  0
 10 11  1  0
  9 12  1  0
 12 13  2  0
  1 14  1  0
 14 15  1  0
 15 16  1  0
 16 17  1  0
 17 18  1  0
 18 19  1  0
 19 20  2  0
 19 21  1  0
 21 22  1  0
 22 23  1  0
 23 24  1  0
 18  1  1  0
 13  6  1  0
  1 25  1  6
  2 26  1  0
  2 27  1  0
  7 28  1  0
  8 29  1  0
 11 30  1  0
 11 31  1  0
 11 32  1  0
 12 33  1  0
 13 34  1  0
 14 35  1  0
 14 36  1  0
 15 37  1  0
 15 38  1  0
 16 39  1  0
 16 40  1  0
 17 41  1  0
 17 42  1  0
 18 43  1  1
 21 44  1  0
 22 45  1  0
 22 46  1  0
 23 47  1  0
 23 48  1  0
 24 49  1  0
 24 50  1  0
M  END
$$$$
