
     RDKit          3D

 53 57  0  0  0  0  0  0  0  0999 V2000
    6.8096   -3.0140    0.3340 C   0  0  0  0  0  0  0  0  0  0  0  0
    5.0878   -3.0661   -0.0789 S   0  0  0  0  0  0  0  0  0  0  0  0
    4.4776   -1.4228   -0.4660 C   0  0  0  0  0  0  0  0  0  0  0  0
    4.9104   -0.0591   -0.5576 C   0  0  0  0  0  0  0  0  0  0  0  0
    6.2072    0.2498   -0.2833 C   0  0  0  0  0  0  0  0  0  0  0  0
    6.6329    1.5530   -0.3676 C   0  0  0  0  0  0  0  0  0  0  0  0
    5.7293    2.5267   -0.7309 C   0  0  0  0  0  0  0  0  0  0  0  0
    4.4370    2.1267   -0.9905 C   0  0  0  0  0  0  0  0  0  0  0  0
    3.9562    0.8396   -0.9223 C   0  0  0  0  0  0  0  0  0  0  0  0
    2.6637    0.3925   -1.1753 C   0  0  0  0  0  0  0  0  0  0  0  0
    2.7742   -1.3728   -0.8921 S   0  0  0  0  0  0  0  0  0  0  0  0
    1.5311    1.1804   -1.5682 C   0  0  0  0  0  0  0  0  0  0  0  0
    1.7123    1.8297   -2.6215 O   0  0  0  0  0  0  0  0  0  0  0  0
    0.3118    1.2270   -0.8371 N   0  0  0  0  0  0  0  0  0  0  0  0
    0.2051    0.4384    0.3676 C   0  0  0  0  0  0  0  0  0  0  0  0
   -1.2127    0.3403    0.8676 C   0  0  0  0  0  0  0  0  0  0  0  0
   -2.1356    0.2681   -0.3301 C   0  0  0  0  0  0  0  0  0  0  0  0
   -1.6447   -0.8241   -1.2224 C   0  0  0  0  0  0  0  0  0  0  0  0
   -2.8370   -1.3943   -1.7226 O   0  0  0  0  0  0  0  0  0  0  0  0
   -3.8623   -1.1598   -0.8307 C   0  0  0  0  0  0  0  0  0  0  0  0
   -3.4893   -0.1569    0.0381 C   0  0  0  0  0  0  0  0  0  0  0  0
   -4.3254    0.3024    1.0588 C   0  0  0  0  0  0  0  0  0  0  0  0
   -5.5707   -0.2415    1.2328 C   0  0  0  0  0  0  0  0  0  0  0  0
   -6.4154    0.2868    2.3334 C   0  0  0  0  0  0  0  0  0  0  0  0
   -6.2168   -0.4225    3.5768 N   0  0  0  0  0  0  0  0  0  0  0  0
   -5.9930   -1.2554    0.3827 C   0  0  0  0  0  0  0  0  0  0  0  0
   -5.1282   -1.6820   -0.6199 C   0  0  0  0  0  0  0  0  0  0  0  0
   -2.1235    1.6375   -0.9603 C   0  0  0  0  0  0  0  0  0  0  0  0
   -0.7422    2.0530   -1.3370 C   0  0  0  0  0  0  0  0  0  0  0  0
    7.5022   -2.6591   -0.4437 H   0  0  0  0  0  0  0  0  0  0  0  0
    6.9994   -2.4079    1.2547 H   0  0  0  0  0  0  0  0  0  0  0  0
    7.1277   -4.0944    0.5469 H   0  0  0  0  0  0  0  0  0  0  0  0
    6.9714   -0.4391    0.0049 H   0  0  0  0  0  0  0  0  0  0  0  0
    7.6496    1.8539   -0.1613 H   0  0  0  0  0  0  0  0  0  0  0  0
    6.0458    3.5589   -0.8036 H   0  0  0  0  0  0  0  0  0  0  0  0
    3.7703    2.9289   -1.2701 H   0  0  0  0  0  0  0  0  0  0  0  0
    0.8036    0.8702    1.2127 H   0  0  0  0  0  0  0  0  0  0  0  0
    0.5671   -0.5899    0.1777 H   0  0  0  0  0  0  0  0  0  0  0  0
   -1.3418   -0.5958    1.4678 H   0  0  0  0  0  0  0  0  0  0  0  0
   -1.4796    1.2332    1.4550 H   0  0  0  0  0  0  0  0  0  0  0  0
   -1.0993   -0.4472   -2.1139 H   0  0  0  0  0  0  0  0  0  0  0  0
   -1.0370   -1.5469   -0.6381 H   0  0  0  0  0  0  0  0  0  0  0  0
   -3.9818    1.0924    1.7122 H   0  0  0  0  0  0  0  0  0  0  0  0
   -6.2801    1.3949    2.4797 H   0  0  0  0  0  0  0  0  0  0  0  0
   -7.4862    0.1524    2.0739 H   0  0  0  0  0  0  0  0  0  0  0  0
   -5.9024   -1.3840    3.4113 H   0  0  0  0  0  0  0  0  0  0  0  0
   -5.5290    0.1392    4.1323 H   0  0  0  0  0  0  0  0  0  0  0  0
   -6.9641   -1.6489    0.5522 H   0  0  0  0  0  0  0  0  0  0  0  0
   -5.4841   -2.4847   -1.2799 H   0  0  0  0  0  0  0  0  0  0  0  0
   -2.4958    2.3354   -0.1594 H   0  0  0  0  0  0  0  0  0  0  0  0
   -2.8626    1.7115   -1.8062 H   0  0  0  0  0  0  0  0  0  0  0  0
   -0.6747    2.0599   -2.4612 H   0  0  0  0  0  0  0  0  0  0  0  0
   -0.5684    3.1115   -1.0212 H   0  0  0  0  0  0  0  0  0  0  0  0
  1  2  1  0
  2  3  1  0
  3  4  2  0
  4  5  1  0
  5  6  2  0
  6  7  1  0
  7  8  2  0
  8  9  1  0
  9 10  2  0
 10 11  1  0
 10 12  1  0
 12 13  2  0
 12 14  1  0
 14 15  1  0
 15 16  1  0
 16 17  1  0
 17 18  1  0
 18 19  1  0
 19 20  1  0
 20 21  2  0
 21 22  1  0
 22 23  2  0
 23 24  1  0
 24 25  1  0
 23 26  1  0
 26 27  2  0
 17 28  1  0
 28 29  1  0
 11  3  1  0
 29 14  1  0
  9  4  1  0
 21 17  1  0
 27 20  1  0
  1 30  1  0
  1 31  1  0
  1 32  1  0
  5 33  1  0
  6 34  1  0
  7 35  1  0
  8 36  1  0
 15 37  1  0
 15 38  1  0
 16 39  1  0
 16 40  1  0
 18 41  1  0
 18 42  1  0
 22 43  1  0
 24 44  1  0
 24 45  1  0
 25 46  1  0
 25 47  1  0
 26 48  1  0
 27 49  1  0
 28 50  1  0
 28 51  1  0
 29 52  1  0
 29 53  1  0
M  END
$$$$
