
     RDKit          3D

 32 34  0  0  0  0  0  0  0  0999 V2000
   -2.2917   -2.9345    1.1281 O   0  0  0  0  0  0  0  0  0  0  0  0
   -1.8371   -1.8461    0.6918 C   0  0  0  0  0  0  0  0  0  0  0  0
   -0.5204   -1.6189    0.6190 N   0  0  0  0  0  0  0  0  0  0  0  0
   -0.0499   -0.4561    0.1527 C   0  0  0  0  0  0  0  0  0  0  0  0
    1.4014   -0.2038    0.0734 C   0  0  0  0  0  0  0  0  0  0  0  0
    2.3404   -1.1210    0.4650 C   0  0  0  0  0  0  0  0  0  0  0  0
    3.7102   -0.8491    0.3763 C   0  0  0  0  0  0  0  0  0  0  0  0
    4.1501    0.3608   -0.1123 C   0  0  0  0  0  0  0  0  0  0  0  0
    5.6198    0.6177   -0.1932 C   0  0  0  0  0  0  0  0  0  0  0  0
    5.7950    1.8698   -0.7131 F   0  0  0  0  0  0  0  0  0  0  0  0
    6.1540    0.4850    1.0675 F   0  0  0  0  0  0  0  0  0  0  0  0
    6.1752   -0.3690   -0.9839 F   0  0  0  0  0  0  0  0  0  0  0  0
    3.2217    1.2811   -0.5049 C   0  0  0  0  0  0  0  0  0  0  0  0
    1.8542    1.0027   -0.4135 C   0  0  0  0  0  0  0  0  0  0  0  0
   -0.9366    0.4532   -0.2309 N   0  0  0  0  0  0  0  0  0  0  0  0
   -2.2994    0.3032   -0.1903 C   0  0  0  0  0  0  0  0  0  0  0  0
   -2.7844   -0.8806    0.2846 C   0  0  0  0  0  0  0  0  0  0  0  0
   -4.2244   -1.2474    0.4184 C   0  0  0  0  0  0  0  0  0  0  0  0
   -5.1570   -0.2008   -0.7254 S   0  0  0  0  0  0  0  0  0  0  0  0
   -4.5140    1.4873   -0.4234 C   0  0  0  0  0  0  0  0  0  0  0  0
   -3.0749    1.4688   -0.6780 C   0  0  0  0  0  0  0  0  0  0  0  0
    0.1028   -2.3914    0.9428 H   0  0  0  0  0  0  0  0  0  0  0  0
    2.0700   -2.0735    0.8510 H   0  0  0  0  0  0  0  0  0  0  0  0
    4.4443   -1.5767    0.6867 H   0  0  0  0  0  0  0  0  0  0  0  0
    3.5843    2.2331   -0.8891 H   0  0  0  0  0  0  0  0  0  0  0  0
    1.1413    1.7502   -0.7318 H   0  0  0  0  0  0  0  0  0  0  0  0
   -4.3453   -2.2911    0.0803 H   0  0  0  0  0  0  0  0  0  0  0  0
   -4.5485   -1.0926    1.4659 H   0  0  0  0  0  0  0  0  0  0  0  0
   -5.0154    2.2189   -1.0882 H   0  0  0  0  0  0  0  0  0  0  0  0
   -4.7145    1.7298    0.6615 H   0  0  0  0  0  0  0  0  0  0  0  0
   -2.5610    2.3873   -0.2942 H   0  0  0  0  0  0  0  0  0  0  0  0
   -2.8902    1.5036   -1.7926 H   0  0  0  0  0  0  0  0  0  0  0  0
  1  2  2  0
  2  3  1  0
  3  4  1  0
  4  5  1  0
  5  6  2  0
  6  7  1  0
  7  8  2  0
  8  9  1  0
  9 10  1  0
  9 11  1  0
  9 12  1  0
  8 13  1  0
 13 14  2  0
  4 15  2  0
 15 16  1  0
 16 17  2  0
 17 18  1  0
 18 19  1  0
 19 20  1  0
 20 21  1  0
 17  2  1  0
 14  5  1  0
 21 16  1  0
  3 22  1  0
  6 23  1  0
  7 24  1  0
 13 25  1  0
 14 26  1  0
 18 27  1  0
 18 28  1  0
 20 29  1  0
 20 30  1  0
 21 31  1  0
 21 32  1  0
M  END
$$$$
