
     RDKit          3D

 48 52  0  0  0  0  0  0  0  0999 V2000
    2.6888   -1.6494    1.0988 C   0  0  1  0  0  0  0  0  0  0  0  0
    3.6413   -1.4467    2.0736 O   0  0  0  0  0  0  0  0  0  0  0  0
    2.7810   -0.3948    1.9298 C   0  0  1  0  0  0  0  0  0  0  0  0
    2.9952    0.6671    0.8816 C   0  0  2  0  0  0  0  0  0  0  0  0
    1.6336    1.1474    0.4617 C   0  0  0  0  0  0  0  0  0  0  0  0
    0.9758    0.3651   -0.6153 C   0  0  1  0  0  0  0  0  0  0  0  0
    1.6360   -0.9279   -0.9876 C   0  0  0  0  0  0  0  0  0  0  0  0
    2.9327   -1.2100   -0.3089 C   0  0  1  0  0  0  0  0  0  0  0  0
    3.7159   -0.0043   -0.1492 N   0  0  0  0  0  4  0  0  0  0  0  0
    5.0485   -0.3082    0.3163 C   0  0  0  0  0  0  0  0  0  0  0  0
    3.8595    0.7390   -1.3736 C   0  0  0  0  0  0  0  0  0  0  0  0
   -0.4303    0.1748   -0.3749 O   0  0  0  0  0  0  0  0  0  0  0  0
   -1.3841    0.7426   -1.2062 C   0  0  0  0  0  0  0  0  0  0  0  0
   -1.1032    1.4384   -2.1949 O   0  0  0  0  0  0  0  0  0  0  0  0
   -2.8452    0.6203   -1.0612 C   0  0  0  0  0  0  0  0  0  0  0  0
   -3.4525    1.3458   -2.1153 O   0  0  0  0  0  0  0  0  0  0  0  0
   -3.3557    1.1308    0.2373 C   0  0  0  0  0  0  0  0  0  0  0  0
   -4.2812    2.0095    0.6185 C   0  0  0  0  0  0  0  0  0  0  0  0
   -4.5137    2.2556    1.9280 C   0  0  0  0  0  0  0  0  0  0  0  0
   -3.7264    1.5335    2.8394 C   0  0  0  0  0  0  0  0  0  0  0  0
   -2.6557    0.5036    1.7320 S   0  0  0  0  0  0  0  0  0  0  0  0
   -3.2842   -0.7604   -1.2306 C   0  0  0  0  0  0  0  0  0  0  0  0
   -4.5973   -1.2599   -1.4230 C   0  0  0  0  0  0  0  0  0  0  0  0
   -4.7338   -2.6044   -1.5543 C   0  0  0  0  0  0  0  0  0  0  0  0
   -3.5572   -3.4225   -1.4906 C   0  0  0  0  0  0  0  0  0  0  0  0
   -2.2172   -2.1210   -1.2262 S   0  0  0  0  0  0  0  0  0  0  0  0
    1.9324   -2.4148    1.3518 H   0  0  0  0  0  0  0  0  0  0  0  0
    1.9744   -0.2160    2.6717 H   0  0  0  0  0  0  0  0  0  0  0  0
    3.5975    1.5193    1.2788 H   0  0  0  0  0  0  0  0  0  0  0  0
    1.7314    2.2284    0.2016 H   0  0  0  0  0  0  0  0  0  0  0  0
    0.9673    1.1453    1.3602 H   0  0  0  0  0  0  0  0  0  0  0  0
    0.9823    1.0150   -1.5382 H   0  0  0  0  0  0  0  0  0  0  0  0
    0.9625   -1.8150   -0.8048 H   0  0  0  0  0  0  0  0  0  0  0  0
    1.8340   -0.9856   -2.0863 H   0  0  0  0  0  0  0  0  0  0  0  0
    3.5405   -1.9302   -0.8682 H   0  0  0  0  0  0  0  0  0  0  0  0
    5.3051    0.1872    1.2805 H   0  0  0  0  0  0  0  0  0  0  0  0
    5.2359   -1.4220    0.3433 H   0  0  0  0  0  0  0  0  0  0  0  0
    5.8506    0.0521   -0.3879 H   0  0  0  0  0  0  0  0  0  0  0  0
    3.6213    0.1135   -2.2630 H   0  0  0  0  0  0  0  0  0  0  0  0
    3.2727    1.6964   -1.3553 H   0  0  0  0  0  0  0  0  0  0  0  0
    4.9140    1.0878   -1.5389 H   0  0  0  0  0  0  0  0  0  0  0  0
   -2.8968    2.1639   -2.3104 H   0  0  0  0  0  0  0  0  0  0  0  0
   -4.8049    2.4839   -0.2072 H   0  0  0  0  0  0  0  0  0  0  0  0
   -5.2706    2.9770    2.2703 H   0  0  0  0  0  0  0  0  0  0  0  0
   -3.8461    1.6703    3.9678 H   0  0  0  0  0  0  0  0  0  0  0  0
   -5.4014   -0.5453   -1.4531 H   0  0  0  0  0  0  0  0  0  0  0  0
   -5.6972   -3.0698   -1.7047 H   0  0  0  0  0  0  0  0  0  0  0  0
   -3.5754   -4.5056   -1.5856 H   0  0  0  0  0  0  0  0  0  0  0  0
  1  2  1  0
  2  3  1  0
  3  4  1  0
  4  5  1  0
  5  6  1  0
  6  7  1  0
  7  8  1  0
  8  9  1  0
  9 10  1  0
  9 11  1  0
  6 12  1  0
 12 13  1  0
 13 14  2  0
 13 15  1  0
 15 16  1  0
 15 17  1  0
 17 18  2  0
 18 19  1  0
 19 20  2  0
 20 21  1  0
 15 22  1  0
 22 23  2  0
 23 24  1  0
 24 25  2  0
 25 26  1  0
  3  1  1  0
  9  4  1  0
 21 17  1  0
 26 22  1  0
  8  1  1  0
  1 27  1  6
  3 28  1  1
  4 29  1  1
  5 30  1  0
  5 31  1  0
  6 32  1  6
  7 33  1  0
  7 34  1  0
  8 35  1  6
 10 36  1  0
 10 37  1  0
 10 38  1  0
 11 39  1  0
 11 40  1  0
 11 41  1  0
 16 42  1  0
 18 43  1  0
 19 44  1  0
 20 45  1  0
 23 46  1  0
 24 47  1  0
 25 48  1  0
M  CHG  1   9   1
M  END
$$$$
