
     RDKit          3D

 38 41  0  0  0  0  0  0  0  0999 V2000
    0.5395   -2.7442   -4.3656 N   0  0  0  0  0  0  0  0  0  0  0  0
    0.2334   -1.6825   -4.0470 C   0  0  0  0  0  0  0  0  0  0  0  0
   -0.1791   -0.3224   -3.6307 C   0  0  0  0  0  0  0  0  0  0  0  0
   -0.7737    0.6161   -4.4433 C   0  0  0  0  0  0  0  0  0  0  0  0
   -0.9836    1.7144   -3.7111 N   0  0  0  0  0  0  0  0  0  0  0  0
   -0.5306    1.4967   -2.4305 C   0  0  0  0  0  0  0  0  0  0  0  0
   -0.5240    2.2965   -1.3070 C   0  0  0  0  0  0  0  0  0  0  0  0
    0.0051    1.7715   -0.1107 C   0  0  0  0  0  0  0  0  0  0  0  0
    0.4748    0.5002   -0.1606 C   0  0  0  0  0  0  0  0  0  0  0  0
    1.0023   -0.1216    1.0777 C   0  0  0  0  0  0  0  0  0  0  0  0
    0.1273   -0.8433    1.9138 C   0  0  0  0  0  0  0  0  0  0  0  0
   -1.2771   -1.0879    1.6371 C   0  0  0  0  0  0  0  0  0  0  0  0
   -2.3368   -0.4160    2.0983 C   0  0  0  0  0  0  0  0  0  0  0  0
   -3.6583   -0.7122    1.7272 C   0  0  0  0  0  0  0  0  0  0  0  0
   -5.0279    0.1938    2.3167 Cl  0  0  0  0  0  0  0  0  0  0  0  0
   -3.8786   -1.7440    0.8476 C   0  0  0  0  0  0  0  0  0  0  0  0
   -2.8193   -2.4739    0.3402 C   0  0  0  0  0  0  0  0  0  0  0  0
   -3.1479   -3.7687   -0.7685 Cl  0  0  0  0  0  0  0  0  0  0  0  0
   -1.5366   -2.1394    0.7392 C   0  0  0  0  0  0  0  0  0  0  0  0
    0.9384   -1.2339    2.9300 N   0  0  0  0  0  0  0  0  0  0  0  0
    2.2013   -0.7713    2.7009 C   0  0  0  0  0  0  0  0  0  0  0  0
    2.2221   -0.0696    1.5249 N   0  0  0  0  0  0  0  0  0  0  0  0
    3.3945    0.5635    0.9292 C   0  0  0  0  0  0  0  0  0  0  0  0
    3.4928    2.0152    1.3765 C   0  0  0  0  0  0  0  0  0  0  0  0
    3.6145    2.1620    2.7324 F   0  0  0  0  0  0  0  0  0  0  0  0
    4.4987    2.6560    0.6828 F   0  0  0  0  0  0  0  0  0  0  0  0
    0.4330   -0.2108   -1.2948 N   0  0  0  0  0  0  0  0  0  0  0  0
   -0.0510    0.2424   -2.4314 N   0  0  0  0  0  0  0  0  0  0  0  0
   -1.0171    0.4578   -5.5021 H   0  0  0  0  0  0  0  0  0  0  0  0
   -0.9083    3.3093   -1.3245 H   0  0  0  0  0  0  0  0  0  0  0  0
    0.0265    2.3993    0.7978 H   0  0  0  0  0  0  0  0  0  0  0  0
   -2.2217    0.4040    2.7916 H   0  0  0  0  0  0  0  0  0  0  0  0
   -4.9166   -1.9958    0.5419 H   0  0  0  0  0  0  0  0  0  0  0  0
   -0.7059   -2.7161    0.3388 H   0  0  0  0  0  0  0  0  0  0  0  0
    3.0930   -0.8969    3.2985 H   0  0  0  0  0  0  0  0  0  0  0  0
    4.3095    0.0762    1.3435 H   0  0  0  0  0  0  0  0  0  0  0  0
    3.3522    0.5860   -0.1760 H   0  0  0  0  0  0  0  0  0  0  0  0
    2.5350    2.4896    1.0171 H   0  0  0  0  0  0  0  0  0  0  0  0
  1  2  3  0
  2  3  1  0
  3  4  2  0
  4  5  1  0
  5  6  2  0
  6  7  1  0
  7  8  2  0
  8  9  1  0
  9 10  1  0
 10 11  2  0
 11 12  1  0
 12 13  2  0
 13 14  1  0
 14 15  1  0
 14 16  2  0
 16 17  1  0
 17 18  1  0
 17 19  2  0
 11 20  1  0
 20 21  2  0
 21 22  1  0
 22 23  1  0
 23 24  1  0
 24 25  1  0
 24 26  1  0
  9 27  2  0
 27 28  1  0
 28  3  1  0
 28  6  1  0
 22 10  1  0
 19 12  1  0
  4 29  1  0
  7 30  1  0
  8 31  1  0
 13 32  1  0
 16 33  1  0
 19 34  1  0
 21 35  1  0
 23 36  1  0
 23 37  1  0
 24 38  1  0
M  END
$$$$
