
     RDKit          3D

 54 56  0  0  0  0  0  0  0  0999 V2000
   -5.8935    2.7552   -2.1230 C   0  0  0  0  0  0  0  0  0  0  0  0
   -5.6976    1.3741   -2.5532 N   0  0  0  0  0  0  0  0  0  0  0  0
   -5.0423    0.4315   -1.7227 C   0  0  0  0  0  0  0  0  0  0  0  0
   -5.7560   -0.3133   -0.8667 N   0  0  0  0  0  0  0  0  0  0  0  0
   -5.1826   -1.2271   -0.0518 C   0  0  0  0  0  0  0  0  0  0  0  0
   -6.0300   -1.9609    0.8158 N   0  0  0  0  0  0  0  0  0  0  0  0
   -6.2688   -1.3764    2.1357 C   0  0  0  0  0  0  0  0  0  0  0  0
   -3.8532   -1.3772   -0.1187 N   0  0  0  0  0  0  0  0  0  0  0  0
   -3.0847   -0.6584   -0.9577 C   0  0  0  0  0  0  0  0  0  0  0  0
   -1.6811   -0.8060   -1.0395 N   0  0  0  0  0  0  0  0  0  0  0  0
   -1.0235   -1.8049   -0.1934 C   0  0  0  0  0  0  0  0  0  0  0  0
    0.3783   -1.2822    0.1710 C   0  0  0  0  0  0  0  0  0  0  0  0
    0.2183    0.2289    0.2116 C   0  0  0  0  0  0  0  0  0  0  0  0
    1.2849    0.8647    1.0196 C   0  0  0  0  0  0  0  0  0  0  0  0
    0.9915    1.5201    2.0471 O   0  0  0  0  0  0  0  0  0  0  0  0
    2.6628    0.7717    0.6859 N   0  0  0  0  0  0  0  0  0  0  0  0
    3.7068    1.3909    1.4727 C   0  0  0  0  0  0  0  0  0  0  0  0
    5.0468    1.1584    0.9441 C   0  0  0  0  0  0  0  0  0  0  0  0
    5.7089    2.1539    0.2116 C   0  0  0  0  0  0  0  0  0  0  0  0
    6.9672    1.9711   -0.3144 C   0  0  0  0  0  0  0  0  0  0  0  0
    7.6194    0.7733   -0.1263 C   0  0  0  0  0  0  0  0  0  0  0  0
    6.9690   -0.2025    0.5928 C   0  0  0  0  0  0  0  0  0  0  0  0
    5.6914   -0.0360    1.1350 C   0  0  0  0  0  0  0  0  0  0  0  0
    5.0492   -1.1104    1.9059 C   0  0  0  0  0  0  0  0  0  0  0  0
    4.7554   -0.7410    3.2051 F   0  0  0  0  0  0  0  0  0  0  0  0
    5.9966   -2.1429    2.0538 F   0  0  0  0  0  0  0  0  0  0  0  0
    3.9894   -1.7204    1.2683 F   0  0  0  0  0  0  0  0  0  0  0  0
    0.1519    0.7438   -1.1823 C   0  0  0  0  0  0  0  0  0  0  0  0
   -0.9246    0.0235   -1.9461 C   0  0  0  0  0  0  0  0  0  0  0  0
   -3.7172    0.2419   -1.7495 N   0  0  0  0  0  0  0  0  0  0  0  0
   -6.6950    3.2080   -2.7148 H   0  0  0  0  0  0  0  0  0  0  0  0
   -4.9119    3.2738   -2.2532 H   0  0  0  0  0  0  0  0  0  0  0  0
   -6.2042    2.7907   -1.0518 H   0  0  0  0  0  0  0  0  0  0  0  0
   -6.0557    1.0874   -3.5018 H   0  0  0  0  0  0  0  0  0  0  0  0
   -6.4794   -2.8541    0.5913 H   0  0  0  0  0  0  0  0  0  0  0  0
   -7.1059   -1.8793    2.6310 H   0  0  0  0  0  0  0  0  0  0  0  0
   -6.5201   -0.3008    2.0657 H   0  0  0  0  0  0  0  0  0  0  0  0
   -5.3421   -1.4605    2.7599 H   0  0  0  0  0  0  0  0  0  0  0  0
   -1.5855   -1.8440    0.7590 H   0  0  0  0  0  0  0  0  0  0  0  0
   -0.9922   -2.7965   -0.6475 H   0  0  0  0  0  0  0  0  0  0  0  0
    1.0665   -1.5156   -0.6585 H   0  0  0  0  0  0  0  0  0  0  0  0
    0.7089   -1.6187    1.1521 H   0  0  0  0  0  0  0  0  0  0  0  0
   -0.7543    0.4284    0.7010 H   0  0  0  0  0  0  0  0  0  0  0  0
    2.8939    0.2307   -0.1746 H   0  0  0  0  0  0  0  0  0  0  0  0
    3.5447    1.0628    2.5208 H   0  0  0  0  0  0  0  0  0  0  0  0
    3.5585    2.5123    1.5249 H   0  0  0  0  0  0  0  0  0  0  0  0
    5.1777    3.1068    0.0683 H   0  0  0  0  0  0  0  0  0  0  0  0
    7.4770    2.7356   -0.8773 H   0  0  0  0  0  0  0  0  0  0  0  0
    8.6242    0.5902   -0.5310 H   0  0  0  0  0  0  0  0  0  0  0  0
    7.4618   -1.1702    0.7608 H   0  0  0  0  0  0  0  0  0  0  0  0
    0.0411    1.8486   -1.2428 H   0  0  0  0  0  0  0  0  0  0  0  0
    1.1487    0.5029   -1.6611 H   0  0  0  0  0  0  0  0  0  0  0  0
   -0.4964   -0.6233   -2.7417 H   0  0  0  0  0  0  0  0  0  0  0  0
   -1.5929    0.8004   -2.4092 H   0  0  0  0  0  0  0  0  0  0  0  0
  1  2  1  0
  2  3  1  0
  3  4  2  0
  4  5  1  0
  5  6  1  0
  6  7  1  0
  5  8  2  0
  8  9  1  0
  9 10  1  0
 10 11  1  0
 11 12  1  0
 12 13  1  0
 13 14  1  0
 14 15  2  0
 14 16  1  0
 16 17  1  0
 17 18  1  0
 18 19  2  0
 19 20  1  0
 20 21  2  0
 21 22  1  0
 22 23  2  0
 23 24  1  0
 24 25  1  0
 24 26  1  0
 24 27  1  0
 13 28  1  0
 28 29  1  0
  9 30  2  0
 30  3  1  0
 29 10  1  0
 23 18  1  0
  1 31  1  0
  1 32  1  0
  1 33  1  0
  2 34  1  0
  6 35  1  0
  7 36  1  0
  7 37  1  0
  7 38  1  0
 11 39  1  0
 11 40  1  0
 12 41  1  0
 12 42  1  0
 13 43  1  0
 16 44  1  0
 17 45  1  0
 17 46  1  0
 19 47  1  0
 20 48  1  0
 21 49  1  0
 22 50  1  0
 28 51  1  0
 28 52  1  0
 29 53  1  0
 29 54  1  0
M  END
$$$$
