
     RDKit          3D

 70 73  0  0  0  0  0  0  0  0999 V2000
   -5.3076   -5.2965    0.4617 C   0  0  0  0  0  0  0  0  0  0  0  0
   -4.4651   -4.1528    0.4445 N   0  0  0  0  0  0  0  0  0  0  0  0
   -4.3117   -3.4946    1.7022 C   0  0  0  0  0  0  0  0  0  0  0  0
   -3.1829   -2.5047    1.7437 C   0  0  0  0  0  0  0  0  0  0  0  0
   -2.9473   -1.8473    0.4014 C   0  0  0  0  0  0  0  0  0  0  0  0
   -2.4250   -0.5167    0.5230 N   0  0  0  0  0  0  0  0  0  0  0  0
   -1.1136   -0.1609    0.0001 C   0  0  0  0  0  0  0  0  0  0  0  0
   -0.5353   -1.1218   -0.5312 O   0  0  0  0  0  0  0  0  0  0  0  0
   -0.6134    1.1759    0.1336 C   0  0  0  0  0  0  0  0  0  0  0  0
   -1.6128    2.1731    0.1368 C   0  0  0  0  0  0  0  0  0  0  0  0
   -1.3417    3.4811    0.1637 N   0  0  0  0  0  0  0  0  0  0  0  0
   -0.0885    3.9251    0.1885 C   0  0  0  0  0  0  0  0  0  0  0  0
    0.2498    5.3148    0.2084 N   0  0  0  0  0  0  0  0  0  0  0  0
   -0.7207    6.3172    0.0882 C   0  0  0  0  0  0  0  0  0  0  0  0
   -1.9853    6.1320   -0.4048 C   0  0  0  0  0  0  0  0  0  0  0  0
   -2.8824    7.1900   -0.4638 C   0  0  0  0  0  0  0  0  0  0  0  0
   -4.4962    6.9687   -1.0866 Cl  0  0  0  0  0  0  0  0  0  0  0  0
   -2.4854    8.4306   -0.0206 C   0  0  0  0  0  0  0  0  0  0  0  0
   -1.2099    8.6254    0.4781 C   0  0  0  0  0  0  0  0  0  0  0  0
   -0.6997   10.2218    1.0467 Cl  0  0  0  0  0  0  0  0  0  0  0  0
   -0.3350    7.5921    0.5355 C   0  0  0  0  0  0  0  0  0  0  0  0
    0.8725    2.9995    0.1867 N   0  0  0  0  0  0  0  0  0  0  0  0
    0.6617    1.6236    0.1611 C   0  0  0  0  0  0  0  0  0  0  0  0
    1.7786    0.8035    0.2284 N   0  0  0  0  0  0  0  0  0  0  0  0
    2.1494   -0.5463    0.2464 C   0  0  0  0  0  0  0  0  0  0  0  0
    3.5142   -0.7150    1.0040 C   0  0  0  0  0  0  0  0  0  0  0  0
    4.1357   -1.9785    0.4578 C   0  0  0  0  0  0  0  0  0  0  0  0
    4.8129   -1.5460   -0.8498 C   0  0  0  0  0  0  0  0  0  0  0  0
    5.5472   -2.5836   -1.4845 N   0  0  0  0  0  0  0  0  0  0  0  0
    4.7690   -3.7563   -1.8184 C   0  0  0  0  0  0  0  0  0  0  0  0
    6.7350   -2.9131   -0.7354 C   0  0  0  0  0  0  0  0  0  0  0  0
    3.7522   -0.9212   -1.6873 C   0  0  0  0  0  0  0  0  0  0  0  0
    2.3624   -1.0903   -1.1560 C   0  0  0  0  0  0  0  0  0  0  0  0
   -4.2336   -1.9141   -0.3631 C   0  0  0  0  0  0  0  0  0  0  0  0
   -4.4968   -3.3499   -0.7161 C   0  0  0  0  0  0  0  0  0  0  0  0
   -5.8690   -5.2633    1.4417 H   0  0  0  0  0  0  0  0  0  0  0  0
   -4.7633   -6.2560    0.3550 H   0  0  0  0  0  0  0  0  0  0  0  0
   -6.0888   -5.2262   -0.3232 H   0  0  0  0  0  0  0  0  0  0  0  0
   -5.2626   -3.0011    1.9606 H   0  0  0  0  0  0  0  0  0  0  0  0
   -4.1180   -4.2670    2.4731 H   0  0  0  0  0  0  0  0  0  0  0  0
   -3.4626   -1.7075    2.4619 H   0  0  0  0  0  0  0  0  0  0  0  0
   -2.2683   -2.9891    2.1429 H   0  0  0  0  0  0  0  0  0  0  0  0
   -2.2048   -2.4729   -0.1284 H   0  0  0  0  0  0  0  0  0  0  0  0
   -2.9467    0.2314    0.9968 H   0  0  0  0  0  0  0  0  0  0  0  0
   -2.6586    1.8460    0.0983 H   0  0  0  0  0  0  0  0  0  0  0  0
    1.2539    5.5795    0.3113 H   0  0  0  0  0  0  0  0  0  0  0  0
   -2.3410    5.1814   -0.7812 H   0  0  0  0  0  0  0  0  0  0  0  0
   -3.1253    9.3087   -0.0330 H   0  0  0  0  0  0  0  0  0  0  0  0
    0.6872    7.7354    0.9324 H   0  0  0  0  0  0  0  0  0  0  0  0
    2.7025    1.4327    0.2837 H   0  0  0  0  0  0  0  0  0  0  0  0
    1.4937   -1.1899    0.8112 H   0  0  0  0  0  0  0  0  0  0  0  0
    4.1767    0.1229    0.8070 H   0  0  0  0  0  0  0  0  0  0  0  0
    3.3192   -0.8521    2.0799 H   0  0  0  0  0  0  0  0  0  0  0  0
    3.3153   -2.7038    0.2061 H   0  0  0  0  0  0  0  0  0  0  0  0
    4.8762   -2.4219    1.1334 H   0  0  0  0  0  0  0  0  0  0  0  0
    5.5343   -0.7432   -0.5719 H   0  0  0  0  0  0  0  0  0  0  0  0
    3.7050   -3.6895   -1.5526 H   0  0  0  0  0  0  0  0  0  0  0  0
    5.1671   -4.6401   -1.2533 H   0  0  0  0  0  0  0  0  0  0  0  0
    4.9128   -3.9617   -2.9028 H   0  0  0  0  0  0  0  0  0  0  0  0
    7.0024   -2.0864   -0.0373 H   0  0  0  0  0  0  0  0  0  0  0  0
    7.6006   -3.0456   -1.4280 H   0  0  0  0  0  0  0  0  0  0  0  0
    6.5953   -3.8654   -0.1795 H   0  0  0  0  0  0  0  0  0  0  0  0
    3.9582    0.1580   -1.9006 H   0  0  0  0  0  0  0  0  0  0  0  0
    3.7648   -1.4082   -2.6974 H   0  0  0  0  0  0  0  0  0  0  0  0
    1.9463   -2.1000   -1.2697 H   0  0  0  0  0  0  0  0  0  0  0  0
    1.7176   -0.4282   -1.8169 H   0  0  0  0  0  0  0  0  0  0  0  0
   -5.1109   -1.5191    0.1966 H   0  0  0  0  0  0  0  0  0  0  0  0
   -4.0913   -1.2962   -1.2785 H   0  0  0  0  0  0  0  0  0  0  0  0
   -3.7483   -3.6624   -1.4839 H   0  0  0  0  0  0  0  0  0  0  0  0
   -5.5202   -3.3644   -1.1971 H   0  0  0  0  0  0  0  0  0  0  0  0
  1  2  1  0
  2  3  1  0
  3  4  1  0
  4  5  1  0
  5  6  1  0
  6  7  1  0
  7  8  2  0
  7  9  1  0
  9 10  2  0
 10 11  1  0
 11 12  2  0
 12 13  1  0
 13 14  1  0
 14 15  2  0
 15 16  1  0
 16 17  1  0
 16 18  2  0
 18 19  1  0
 19 20  1  0
 19 21  2  0
 12 22  1  0
 22 23  2  0
 23 24  1  0
 24 25  1  0
 25 26  1  0
 26 27  1  0
 27 28  1  0
 28 29  1  0
 29 30  1  0
 29 31  1  0
 28 32  1  0
 32 33  1  0
  5 34  1  0
 34 35  1  0
 35  2  1  0
 23  9  1  0
 33 25  1  0
 21 14  1  0
  1 36  1  0
  1 37  1  0
  1 38  1  0
  3 39  1  0
  3 40  1  0
  4 41  1  0
  4 42  1  0
  5 43  1  0
  6 44  1  0
 10 45  1  0
 13 46  1  0
 15 47  1  0
 18 48  1  0
 21 49  1  0
 24 50  1  0
 25 51  1  0
 26 52  1  0
 26 53  1  0
 27 54  1  0
 27 55  1  0
 28 56  1  0
 30 57  1  0
 30 58  1  0
 30 59  1  0
 31 60  1  0
 31 61  1  0
 31 62  1  0
 32 63  1  0
 32 64  1  0
 33 65  1  0
 33 66  1  0
 34 67  1  0
 34 68  1  0
 35 69  1  0
 35 70  1  0
M  END
$$$$
