
     RDKit          3D

 69 71  0  0  0  0  0  0  0  0999 V2000
    7.3096    1.0499    1.6228 C   0  0  0  0  0  0  0  0  0  0  0  0
    7.1126    1.2181    0.1852 N   0  0  0  0  0  0  0  0  0  0  0  0
    7.9700    0.3134   -0.5170 C   0  0  0  0  0  0  0  0  0  0  0  0
    5.7260    1.1349   -0.1657 C   0  0  0  0  0  0  0  0  0  0  0  0
    5.1205   -0.2343    0.0117 C   0  0  0  0  0  0  0  0  0  0  0  0
    3.7264   -0.1315   -0.3806 N   0  0  0  0  0  0  0  0  0  0  0  0
    2.7508    0.2068    0.6098 C   0  0  0  0  0  0  0  0  0  0  0  0
    1.4083   -0.5245    0.3888 C   0  0  0  0  0  0  0  0  0  0  0  0
    0.7000    0.0046   -0.7295 N   0  0  0  0  0  0  0  0  0  0  0  0
   -0.6348   -0.2455   -1.0481 C   0  0  0  0  0  0  0  0  0  0  0  0
   -1.0584    0.3812   -2.1082 O   0  0  0  0  0  0  0  0  0  0  0  0
   -1.6333   -1.0874   -0.3934 C   0  0  0  0  0  0  0  0  0  0  0  0
   -1.3719   -1.9639    0.5921 C   0  0  0  0  0  0  0  0  0  0  0  0
   -2.3611   -2.7171    1.1144 C   0  0  0  0  0  0  0  0  0  0  0  0
   -2.3928   -3.7377    2.1706 C   0  0  0  0  0  0  0  0  0  0  0  0
   -2.1547   -5.0820    1.5131 C   0  0  0  0  0  0  0  0  0  0  0  0
   -3.7525   -3.7119    2.8334 C   0  0  0  0  0  0  0  0  0  0  0  0
   -1.3375   -3.5065    3.2236 C   0  0  0  0  0  0  0  0  0  0  0  0
   -3.7470   -2.2423    0.2465 S   0  0  0  0  0  0  0  0  0  0  0  0
   -2.9428   -1.0127   -0.8228 C   0  0  0  0  0  0  0  0  0  0  0  0
   -3.6035   -0.2287   -1.8160 N   0  0  0  0  0  0  0  0  0  0  0  0
   -4.1479    1.0229   -1.4402 C   0  0  0  0  0  0  0  0  0  0  0  0
   -4.0253    1.3900   -0.2429 O   0  0  0  0  0  0  0  0  0  0  0  0
   -4.8323    1.8990   -2.3434 N   0  0  0  0  0  0  0  0  0  0  0  0
   -5.3631    3.1512   -1.9015 C   0  0  0  0  0  0  0  0  0  0  0  0
   -4.5680    4.2761   -1.9569 C   0  0  0  0  0  0  0  0  0  0  0  0
   -5.0375    5.5213   -1.5380 C   0  0  0  0  0  0  0  0  0  0  0  0
   -6.3342    5.6262   -1.0554 C   0  0  0  0  0  0  0  0  0  0  0  0
   -7.1270    4.4979   -1.0012 C   0  0  0  0  0  0  0  0  0  0  0  0
   -8.7463    4.5968   -0.4029 Cl  0  0  0  0  0  0  0  0  0  0  0  0
   -6.6483    3.2610   -1.4219 C   0  0  0  0  0  0  0  0  0  0  0  0
   -7.6580    1.8286   -1.3511 Cl  0  0  0  0  0  0  0  0  0  0  0  0
    1.3947    0.9181   -1.7068 C   0  0  0  0  0  0  0  0  0  0  0  0
    2.3334    0.0838   -2.5540 C   0  0  0  0  0  0  0  0  0  0  0  0
    3.4956   -0.3896   -1.7543 C   0  0  0  0  0  0  0  0  0  0  0  0
    4.3323   -1.0733   -2.3625 O   0  0  0  0  0  0  0  0  0  0  0  0
    6.5384    1.6110    2.1904 H   0  0  0  0  0  0  0  0  0  0  0  0
    7.2282   -0.0517    1.8414 H   0  0  0  0  0  0  0  0  0  0  0  0
    8.3062    1.4566    1.8640 H   0  0  0  0  0  0  0  0  0  0  0  0
    8.7065    0.8998   -1.1357 H   0  0  0  0  0  0  0  0  0  0  0  0
    7.4486   -0.3526   -1.2101 H   0  0  0  0  0  0  0  0  0  0  0  0
    8.5468   -0.3181    0.1963 H   0  0  0  0  0  0  0  0  0  0  0  0
    5.1379    1.8316    0.4503 H   0  0  0  0  0  0  0  0  0  0  0  0
    5.5990    1.3956   -1.2376 H   0  0  0  0  0  0  0  0  0  0  0  0
    5.1239   -0.4875    1.1030 H   0  0  0  0  0  0  0  0  0  0  0  0
    5.6326   -1.0264   -0.5701 H   0  0  0  0  0  0  0  0  0  0  0  0
    2.5553    1.2722    0.7245 H   0  0  0  0  0  0  0  0  0  0  0  0
    3.1349   -0.1998    1.5897 H   0  0  0  0  0  0  0  0  0  0  0  0
    0.8701   -0.3208    1.3614 H   0  0  0  0  0  0  0  0  0  0  0  0
    1.6860   -1.5869    0.2733 H   0  0  0  0  0  0  0  0  0  0  0  0
   -0.3544   -2.1373    1.0224 H   0  0  0  0  0  0  0  0  0  0  0  0
   -2.0546   -5.8978    2.2570 H   0  0  0  0  0  0  0  0  0  0  0  0
   -1.1928   -5.0498    0.9608 H   0  0  0  0  0  0  0  0  0  0  0  0
   -3.0147   -5.2848    0.8434 H   0  0  0  0  0  0  0  0  0  0  0  0
   -4.1558   -2.6558    2.8329 H   0  0  0  0  0  0  0  0  0  0  0  0
   -4.4451   -4.3988    2.3162 H   0  0  0  0  0  0  0  0  0  0  0  0
   -3.6709   -3.9643    3.9213 H   0  0  0  0  0  0  0  0  0  0  0  0
   -1.1871   -4.4643    3.7686 H   0  0  0  0  0  0  0  0  0  0  0  0
   -0.3991   -3.1970    2.7628 H   0  0  0  0  0  0  0  0  0  0  0  0
   -1.6666   -2.7211    3.9302 H   0  0  0  0  0  0  0  0  0  0  0  0
   -3.7075   -0.5291   -2.8050 H   0  0  0  0  0  0  0  0  0  0  0  0
   -4.9190    1.5720   -3.3337 H   0  0  0  0  0  0  0  0  0  0  0  0
   -3.5575    4.1842   -2.3359 H   0  0  0  0  0  0  0  0  0  0  0  0
   -4.4208    6.4073   -1.5781 H   0  0  0  0  0  0  0  0  0  0  0  0
   -6.7692    6.5543   -0.7138 H   0  0  0  0  0  0  0  0  0  0  0  0
    1.9732    1.6671   -1.1693 H   0  0  0  0  0  0  0  0  0  0  0  0
    0.6557    1.3649   -2.3790 H   0  0  0  0  0  0  0  0  0  0  0  0
    1.8082   -0.7861   -2.9910 H   0  0  0  0  0  0  0  0  0  0  0  0
    2.6612    0.7201   -3.3947 H   0  0  0  0  0  0  0  0  0  0  0  0
  1  2  1  0
  2  3  1  0
  2  4  1  0
  4  5  1  0
  5  6  1  0
  6  7  1  0
  7  8  1  0
  8  9  1  0
  9 10  1  0
 10 11  2  0
 10 12  1  0
 12 13  1  0
 13 14  2  0
 14 15  1  0
 15 16  1  0
 15 17  1  0
 15 18  1  0
 14 19  1  0
 19 20  1  0
 20 21  1  0
 21 22  1  0
 22 23  2  0
 22 24  1  0
 24 25  1  0
 25 26  2  0
 26 27  1  0
 27 28  2  0
 28 29  1  0
 29 30  1  0
 29 31  2  0
 31 32  1  0
  9 33  1  0
 33 34  1  0
 34 35  1  0
 35 36  2  0
 35  6  1  0
 20 12  2  0
 31 25  1  0
  1 37  1  0
  1 38  1  0
  1 39  1  0
  3 40  1  0
  3 41  1  0
  3 42  1  0
  4 43  1  0
  4 44  1  0
  5 45  1  0
  5 46  1  0
  7 47  1  0
  7 48  1  0
  8 49  1  0
  8 50  1  0
 13 51  1  0
 16 52  1  0
 16 53  1  0
 16 54  1  0
 17 55  1  0
 17 56  1  0
 17 57  1  0
 18 58  1  0
 18 59  1  0
 18 60  1  0
 21 61  1  0
 24 62  1  0
 26 63  1  0
 27 64  1  0
 28 65  1  0
 33 66  1  0
 33 67  1  0
 34 68  1  0
 34 69  1  0
M  END
$$$$
