
     RDKit          3D

 61 65  0  0  0  0  0  0  0  0999 V2000
    7.0831    1.4657    0.3852 C   0  0  0  0  0  0  0  0  0  0  0  0
    6.7474    0.3514   -0.5580 C   0  0  0  0  0  0  0  0  0  0  0  0
    5.4112    0.0025   -0.8083 C   0  0  0  0  0  0  0  0  0  0  0  0
    5.0559   -1.0096   -1.6627 C   0  0  0  0  0  0  0  0  0  0  0  0
    3.7615   -1.3942   -1.9491 N   0  0  0  0  0  0  0  0  0  0  0  0
    2.5402   -0.8183   -1.4832 C   0  0  0  0  0  0  0  0  0  0  0  0
    2.5260    0.2421   -0.6720 N   0  0  0  0  0  0  0  0  0  0  0  0
    1.4135    0.8094   -0.2186 C   0  0  0  0  0  0  0  0  0  0  0  0
    0.1499    0.2686   -0.6102 C   0  0  0  0  0  0  0  0  0  0  0  0
   -0.9763    1.1573   -0.2502 C   0  0  0  0  0  0  0  0  0  0  0  0
   -1.1509    2.0975    0.4615 N   0  0  0  0  0  0  0  0  0  0  0  0
   -2.1826    2.8896    0.5470 C   0  0  0  0  0  0  0  0  0  0  0  0
   -2.3074    4.0465    1.4758 C   0  0  0  0  0  0  0  0  0  0  0  0
   -3.4425    4.7984    1.4667 C   0  0  0  0  0  0  0  0  0  0  0  0
   -3.5383    5.8769    2.3432 C   0  0  0  0  0  0  0  0  0  0  0  0
   -2.5307    6.1968    3.2049 C   0  0  0  0  0  0  0  0  0  0  0  0
   -1.3831    5.4152    3.1957 C   0  0  0  0  0  0  0  0  0  0  0  0
   -1.2789    4.3467    2.3325 C   0  0  0  0  0  0  0  0  0  0  0  0
   -3.2101    2.5911   -0.3086 C   0  0  0  0  0  0  0  0  0  0  0  0
   -2.5951    1.1754   -1.1757 S   0  0  0  0  0  0  0  0  0  0  0  0
    0.1320   -0.7945   -1.4113 C   0  0  0  0  0  0  0  0  0  0  0  0
   -1.0018   -1.5918   -1.6720 N   0  0  0  0  0  0  0  0  0  0  0  0
   -2.2849   -1.7478   -1.1252 C   0  0  2  0  0  0  0  0  0  0  0  0
   -2.3131   -1.8760    0.3909 C   0  0  0  0  0  0  0  0  0  0  0  0
   -3.3839   -2.8913    0.7327 C   0  0  2  0  0  0  0  0  0  0  0  0
   -2.7177   -3.9490    1.5980 C   0  0  0  0  0  0  0  0  0  0  0  0
   -3.5995   -4.9435    1.9797 O   0  0  0  0  0  0  0  0  0  0  0  0
   -3.8280   -3.4456   -0.5926 C   0  0  1  0  0  0  0  0  0  0  0  0
   -4.7817   -2.5351   -1.1020 O   0  0  0  0  0  0  0  0  0  0  0  0
   -2.5875   -3.3107   -1.4119 C   0  0  1  0  0  0  0  0  0  0  0  0
   -2.7367   -3.4830   -2.7600 O   0  0  0  0  0  0  0  0  0  0  0  0
    1.3546   -1.3202   -1.8406 N   0  0  0  0  0  0  0  0  0  0  0  0
    6.1257   -1.6719   -2.2693 C   0  0  0  0  0  0  0  0  0  0  0  0
    7.4301   -1.3187   -2.0142 C   0  0  0  0  0  0  0  0  0  0  0  0
    7.7329   -0.3202   -1.1696 N   0  0  0  0  0  0  0  0  0  0  0  0
    7.2877    2.4176   -0.1630 H   0  0  0  0  0  0  0  0  0  0  0  0
    6.2524    1.6274    1.1025 H   0  0  0  0  0  0  0  0  0  0  0  0
    7.9886    1.2245    0.9807 H   0  0  0  0  0  0  0  0  0  0  0  0
    4.6946    0.5882   -0.2775 H   0  0  0  0  0  0  0  0  0  0  0  0
    3.6421   -2.2377   -2.6083 H   0  0  0  0  0  0  0  0  0  0  0  0
    1.4090    1.6657    0.4384 H   0  0  0  0  0  0  0  0  0  0  0  0
   -4.2812    4.6162    0.8219 H   0  0  0  0  0  0  0  0  0  0  0  0
   -4.4328    6.4795    2.3452 H   0  0  0  0  0  0  0  0  0  0  0  0
   -2.5953    7.0364    3.8932 H   0  0  0  0  0  0  0  0  0  0  0  0
   -0.5701    5.6244    3.8484 H   0  0  0  0  0  0  0  0  0  0  0  0
   -0.3806    3.7506    2.3385 H   0  0  0  0  0  0  0  0  0  0  0  0
   -4.2010    3.0540   -0.4841 H   0  0  0  0  0  0  0  0  0  0  0  0
   -0.8088   -2.2223   -2.5687 H   0  0  0  0  0  0  0  0  0  0  0  0
   -3.1497   -1.3119   -1.5836 H   0  0  0  0  0  0  0  0  0  0  0  0
   -2.5582   -0.9314    0.8840 H   0  0  0  0  0  0  0  0  0  0  0  0
   -1.3063   -2.1957    0.7219 H   0  0  0  0  0  0  0  0  0  0  0  0
   -4.2169   -2.4201    1.2631 H   0  0  0  0  0  0  0  0  0  0  0  0
   -2.4136   -3.4180    2.5390 H   0  0  0  0  0  0  0  0  0  0  0  0
   -1.8233   -4.3288    1.0907 H   0  0  0  0  0  0  0  0  0  0  0  0
   -3.2470   -5.8592    1.7844 H   0  0  0  0  0  0  0  0  0  0  0  0
   -4.2256   -4.4578   -0.5372 H   0  0  0  0  0  0  0  0  0  0  0  0
   -5.2377   -2.0530   -0.3430 H   0  0  0  0  0  0  0  0  0  0  0  0
   -1.7293   -3.7978   -0.9474 H   0  0  0  0  0  0  0  0  0  0  0  0
   -1.9023   -3.8489   -3.1348 H   0  0  0  0  0  0  0  0  0  0  0  0
    5.9111   -2.4788   -2.9533 H   0  0  0  0  0  0  0  0  0  0  0  0
    8.2607   -1.8325   -2.4848 H   0  0  0  0  0  0  0  0  0  0  0  0
  1  2  1  0
  2  3  2  0
  3  4  1  0
  4  5  1  0
  5  6  1  0
  6  7  2  0
  7  8  1  0
  8  9  2  0
  9 10  1  0
 10 11  2  0
 11 12  1  0
 12 13  1  0
 13 14  2  0
 14 15  1  0
 15 16  2  0
 16 17  1  0
 17 18  2  0
 12 19  2  0
 19 20  1  0
  9 21  1  0
 21 22  1  0
 22 23  1  0
 23 24  1  0
 24 25  1  0
 25 26  1  0
 26 27  1  0
 25 28  1  0
 28 29  1  0
 28 30  1  0
 30 31  1  0
 21 32  2  0
  4 33  2  0
 33 34  1  0
 34 35  2  0
 35  2  1  0
 32  6  1  0
 20 10  1  0
 30 23  1  0
 18 13  1  0
  1 36  1  0
  1 37  1  0
  1 38  1  0
  3 39  1  0
  5 40  1  0
  8 41  1  0
 14 42  1  0
 15 43  1  0
 16 44  1  0
 17 45  1  0
 18 46  1  0
 19 47  1  0
 22 48  1  0
 23 49  1  6
 24 50  1  0
 24 51  1  0
 25 52  1  1
 26 53  1  0
 26 54  1  0
 27 55  1  0
 28 56  1  1
 29 57  1  0
 30 58  1  1
 31 59  1  0
 33 60  1  0
 34 61  1  0
M  END
$$$$
