
     RDKit          3D

 68 72  0  0  0  0  0  0  0  0999 V2000
    2.0264    3.8084   -0.1539 C   0  0  0  0  0  0  0  0  0  0  0  0
    1.6115    2.5016   -0.4372 O   0  0  0  0  0  0  0  0  0  0  0  0
    2.0108    1.3696    0.2993 C   0  0  0  0  0  0  0  0  0  0  0  0
    2.8421    1.6199    1.3261 N   0  0  0  0  0  0  0  0  0  0  0  0
    3.2839    0.6100    2.0936 C   0  0  0  0  0  0  0  0  0  0  0  0
    2.8643   -0.6664    1.7987 C   0  0  0  0  0  0  0  0  0  0  0  0
    3.3289   -1.6719    2.5950 C   0  0  0  0  0  0  0  0  0  0  0  0
    4.1803   -1.4489    3.6531 C   0  0  0  0  0  0  0  0  0  0  0  0
    4.7765   -2.8997    4.7063 Br  0  0  0  0  0  0  0  0  0  0  0  0
    4.5561   -0.1502    3.8872 C   0  0  0  0  0  0  0  0  0  0  0  0
    4.1325    0.9231    3.1307 C   0  0  0  0  0  0  0  0  0  0  0  0
    2.0134   -0.8656    0.7365 C   0  0  0  0  0  0  0  0  0  0  0  0
    1.5128    0.1082   -0.1001 C   0  0  0  0  0  0  0  0  0  0  0  0
    0.5995   -0.0786   -1.2368 C   0  0  1  0  0  0  0  0  0  0  0  0
    1.0543   -0.8814   -2.3698 C   0  0  0  0  0  0  0  0  0  0  0  0
    1.2399   -0.3699   -3.6731 C   0  0  0  0  0  0  0  0  0  0  0  0
    1.6691   -1.0226   -4.7938 C   0  0  0  0  0  0  0  0  0  0  0  0
    1.9663   -2.3595   -4.6567 C   0  0  0  0  0  0  0  0  0  0  0  0
    1.8235   -2.9704   -3.4289 C   0  0  0  0  0  0  0  0  0  0  0  0
    1.3851   -2.2171   -2.3728 C   0  0  0  0  0  0  0  0  0  0  0  0
   -0.8417   -0.2449   -0.9342 C   0  0  1  0  0  0  0  0  0  0  0  0
   -1.6239   -0.4202   -2.0549 O   0  0  0  0  0  0  0  0  0  0  0  0
   -1.1409   -1.6308   -0.2765 C   0  0  0  0  0  0  0  0  0  0  0  0
   -2.6202   -1.8073   -0.0233 C   0  0  0  0  0  0  0  0  0  0  0  0
   -2.9088   -3.0879    0.6047 N   0  0  0  0  0  0  0  0  0  0  0  0
   -4.3608   -3.1243    0.7815 C   0  0  0  0  0  0  0  0  0  0  0  0
   -2.3263   -3.1907    1.9280 C   0  0  0  0  0  0  0  0  0  0  0  0
   -1.3561    0.7097    0.0731 C   0  0  0  0  0  0  0  0  0  0  0  0
   -1.4993    0.4877    1.4286 C   0  0  0  0  0  0  0  0  0  0  0  0
   -1.8890    1.4263    2.3578 C   0  0  0  0  0  0  0  0  0  0  0  0
   -2.1713    2.7094    1.9552 C   0  0  0  0  0  0  0  0  0  0  0  0
   -2.0528    3.0114    0.6175 C   0  0  0  0  0  0  0  0  0  0  0  0
   -1.6591    2.0273   -0.2623 C   0  0  0  0  0  0  0  0  0  0  0  0
   -1.6047    2.4671   -1.5675 C   0  0  0  0  0  0  0  0  0  0  0  0
   -1.8983    3.7416   -2.0021 C   0  0  0  0  0  0  0  0  0  0  0  0
   -2.2821    4.6726   -1.0709 C   0  0  0  0  0  0  0  0  0  0  0  0
   -2.3603    4.3027    0.2536 C   0  0  0  0  0  0  0  0  0  0  0  0
    1.9801    4.0619    0.9356 H   0  0  0  0  0  0  0  0  0  0  0  0
    1.4288    4.5019   -0.7602 H   0  0  0  0  0  0  0  0  0  0  0  0
    3.0873    3.8953   -0.4952 H   0  0  0  0  0  0  0  0  0  0  0  0
    3.0210   -2.6990    2.3961 H   0  0  0  0  0  0  0  0  0  0  0  0
    5.2353    0.0761    4.7219 H   0  0  0  0  0  0  0  0  0  0  0  0
    4.4655    1.9286    3.3663 H   0  0  0  0  0  0  0  0  0  0  0  0
    1.7529   -1.8840    0.6007 H   0  0  0  0  0  0  0  0  0  0  0  0
    0.6442    0.9822   -1.7074 H   0  0  0  0  0  0  0  0  0  0  0  0
    1.0155    0.6999   -3.8406 H   0  0  0  0  0  0  0  0  0  0  0  0
    1.7722   -0.5200   -5.7435 H   0  0  0  0  0  0  0  0  0  0  0  0
    2.3067   -2.8931   -5.5299 H   0  0  0  0  0  0  0  0  0  0  0  0
    2.0702   -4.0128   -3.3844 H   0  0  0  0  0  0  0  0  0  0  0  0
    1.3243   -2.8051   -1.4717 H   0  0  0  0  0  0  0  0  0  0  0  0
   -1.5377   -1.2792   -2.4878 H   0  0  0  0  0  0  0  0  0  0  0  0
   -0.9031   -2.3662   -1.0816 H   0  0  0  0  0  0  0  0  0  0  0  0
   -0.6057   -1.7911    0.6360 H   0  0  0  0  0  0  0  0  0  0  0  0
   -3.1142   -1.0387    0.5743 H   0  0  0  0  0  0  0  0  0  0  0  0
   -3.1712   -1.8892   -1.0256 H   0  0  0  0  0  0  0  0  0  0  0  0
   -4.6610   -3.0856    1.8390 H   0  0  0  0  0  0  0  0  0  0  0  0
   -4.8746   -2.3238    0.2199 H   0  0  0  0  0  0  0  0  0  0  0  0
   -4.6709   -4.1253    0.3624 H   0  0  0  0  0  0  0  0  0  0  0  0
   -2.6756   -2.3064    2.4998 H   0  0  0  0  0  0  0  0  0  0  0  0
   -1.2404   -3.2755    1.8772 H   0  0  0  0  0  0  0  0  0  0  0  0
   -2.7888   -4.0640    2.4537 H   0  0  0  0  0  0  0  0  0  0  0  0
   -1.2949   -0.4538    1.8660 H   0  0  0  0  0  0  0  0  0  0  0  0
   -1.9894    1.2115    3.4123 H   0  0  0  0  0  0  0  0  0  0  0  0
   -2.4774    3.4593    2.6678 H   0  0  0  0  0  0  0  0  0  0  0  0
   -1.3356    1.8123   -2.3772 H   0  0  0  0  0  0  0  0  0  0  0  0
   -1.8512    4.0676   -3.0149 H   0  0  0  0  0  0  0  0  0  0  0  0
   -2.5315    5.6955   -1.3131 H   0  0  0  0  0  0  0  0  0  0  0  0
   -2.6626    5.0322    0.9919 H   0  0  0  0  0  0  0  0  0  0  0  0
  1  2  1  0
  2  3  1  0
  3  4  2  0
  4  5  1  0
  5  6  2  0
  6  7  1  0
  7  8  2  0
  8  9  1  0
  8 10  1  0
 10 11  2  0
  6 12  1  0
 12 13  2  0
 13 14  1  0
 14 15  1  0
 15 16  2  0
 16 17  1  0
 17 18  2  0
 18 19  1  0
 19 20  2  0
 14 21  1  0
 21 22  1  6
 21 23  1  0
 23 24  1  0
 24 25  1  0
 25 26  1  0
 25 27  1  0
 21 28  1  0
 28 29  2  0
 29 30  1  0
 30 31  2  0
 31 32  1  0
 32 33  2  0
 33 34  1  0
 34 35  2  0
 35 36  1  0
 36 37  2  0
 13  3  1  0
 20 15  1  0
 33 28  1  0
 11  5  1  0
 37 32  1  0
  1 38  1  0
  1 39  1  0
  1 40  1  0
  7 41  1  0
 10 42  1  0
 11 43  1  0
 12 44  1  0
 14 45  1  6
 16 46  1  0
 17 47  1  0
 18 48  1  0
 19 49  1  0
 20 50  1  0
 22 51  1  0
 23 52  1  0
 23 53  1  0
 24 54  1  0
 24 55  1  0
 26 56  1  0
 26 57  1  0
 26 58  1  0
 27 59  1  0
 27 60  1  0
 27 61  1  0
 29 62  1  0
 30 63  1  0
 31 64  1  0
 34 65  1  0
 35 66  1  0
 36 67  1  0
 37 68  1  0
M  END
$$$$
