
     RDKit          3D

 44 46  0  0  0  0  0  0  0  0999 V2000
   -4.6411    2.0990    1.8966 N   0  0  0  0  0  0  0  0  0  0  0  0
   -4.0760    1.0460    1.1304 C   0  0  0  0  0  0  0  0  0  0  0  0
   -2.8548    0.6809    1.2137 N   0  0  0  0  0  0  0  0  0  0  0  0
   -2.2538   -0.3663    0.4650 C   0  0  2  0  0  0  0  0  0  0  0  0
   -1.6214   -1.3261    1.4850 C   0  0  0  0  0  0  0  0  0  0  0  0
   -2.6727   -1.7662    2.2751 F   0  0  0  0  0  0  0  0  0  0  0  0
   -1.1095    0.2477   -0.3006 C   0  0  0  0  0  0  0  0  0  0  0  0
    0.1796   -0.1642   -0.1361 C   0  0  0  0  0  0  0  0  0  0  0  0
    1.1983    0.4144   -0.8478 C   0  0  0  0  0  0  0  0  0  0  0  0
    2.5692    0.0094   -0.7035 N   0  0  0  0  0  0  0  0  0  0  0  0
    3.4327    0.6139    0.2477 C   0  0  0  0  0  0  0  0  0  0  0  0
    2.9428    1.5246    0.9627 O   0  0  0  0  0  0  0  0  0  0  0  0
    4.8333    0.2062    0.4012 C   0  0  0  0  0  0  0  0  0  0  0  0
    5.3839   -0.7629   -0.3477 N   0  0  0  0  0  0  0  0  0  0  0  0
    6.6656   -1.1557   -0.2269 C   0  0  0  0  0  0  0  0  0  0  0  0
    7.5138   -0.5692    0.7000 C   0  0  0  0  0  0  0  0  0  0  0  0
    9.1857   -1.0776    0.8616 Cl  0  0  0  0  0  0  0  0  0  0  0  0
    6.9669    0.4302    1.4808 C   0  0  0  0  0  0  0  0  0  0  0  0
    5.6411    0.8162    1.3355 C   0  0  0  0  0  0  0  0  0  0  0  0
    5.0988    1.7909    2.0934 F   0  0  0  0  0  0  0  0  0  0  0  0
    0.9002    1.4219   -1.7351 C   0  0  0  0  0  0  0  0  0  0  0  0
   -0.4010    1.8360   -1.8996 C   0  0  0  0  0  0  0  0  0  0  0  0
   -0.6704    2.8299   -2.7791 F   0  0  0  0  0  0  0  0  0  0  0  0
   -1.4293    1.2569   -1.1858 C   0  0  0  0  0  0  0  0  0  0  0  0
   -2.6871    1.7068   -1.3908 F   0  0  0  0  0  0  0  0  0  0  0  0
   -3.1193   -1.1307   -0.4561 C   0  0  0  0  0  0  0  0  0  0  0  0
   -4.4950   -0.6145   -0.6497 C   0  0  1  0  0  0  0  0  0  0  0  0
   -5.5409   -1.7368   -0.6079 C   0  0  0  0  0  0  0  0  0  0  0  0
   -5.3310   -2.6697   -1.5777 F   0  0  0  0  0  0  0  0  0  0  0  0
   -6.8012   -1.1953   -0.7390 F   0  0  0  0  0  0  0  0  0  0  0  0
   -5.4689   -2.2885    0.6738 F   0  0  0  0  0  0  0  0  0  0  0  0
   -4.8916    0.3745    0.2416 O   0  0  0  0  0  0  0  0  0  0  0  0
   -4.2096    3.0587    1.9227 H   0  0  0  0  0  0  0  0  0  0  0  0
   -5.5038    1.9062    2.4424 H   0  0  0  0  0  0  0  0  0  0  0  0
   -0.9169   -0.7832    2.1418 H   0  0  0  0  0  0  0  0  0  0  0  0
   -1.1622   -2.1966    0.9817 H   0  0  0  0  0  0  0  0  0  0  0  0
    0.4187   -0.9446    0.5498 H   0  0  0  0  0  0  0  0  0  0  0  0
    2.9733   -0.7494   -1.3008 H   0  0  0  0  0  0  0  0  0  0  0  0
    7.0867   -1.9528   -0.8557 H   0  0  0  0  0  0  0  0  0  0  0  0
    7.6062    0.8995    2.2066 H   0  0  0  0  0  0  0  0  0  0  0  0
    1.6700    1.9038   -2.3145 H   0  0  0  0  0  0  0  0  0  0  0  0
   -2.6074   -1.2354   -1.4576 H   0  0  0  0  0  0  0  0  0  0  0  0
   -3.2138   -2.2013   -0.1061 H   0  0  0  0  0  0  0  0  0  0  0  0
   -4.5880   -0.1869   -1.6842 H   0  0  0  0  0  0  0  0  0  0  0  0
  1  2  1  0
  2  3  2  0
  3  4  1  0
  4  5  1  1
  5  6  1  0
  4  7  1  0
  7  8  2  0
  8  9  1  0
  9 10  1  0
 10 11  1  0
 11 12  2  0
 11 13  1  0
 13 14  2  0
 14 15  1  0
 15 16  2  0
 16 17  1  0
 16 18  1  0
 18 19  2  0
 19 20  1  0
  9 21  2  0
 21 22  1  0
 22 23  1  0
 22 24  2  0
 24 25  1  0
  4 26  1  0
 26 27  1  0
 27 28  1  0
 28 29  1  0
 28 30  1  0
 28 31  1  0
 27 32  1  0
 32  2  1  0
 24  7  1  0
 19 13  1  0
  1 33  1  0
  1 34  1  0
  5 35  1  0
  5 36  1  0
  8 37  1  0
 10 38  1  0
 15 39  1  0
 18 40  1  0
 21 41  1  0
 26 42  1  0
 26 43  1  0
 27 44  1  6
M  END
$$$$
