
     RDKit          3D

 45 48  0  0  0  0  0  0  0  0999 V2000
   -1.8570   -1.0999    0.0933 C   0  0  1  0  0  0  0  0  0  0  0  0
   -0.8328   -1.6087    1.0784 C   0  0  0  0  0  0  0  0  0  0  0  0
    0.4813   -1.0249    0.6928 C   0  0  0  0  0  0  0  0  0  0  0  0
    0.5703    0.1301   -0.0564 C   0  0  0  0  0  0  0  0  0  0  0  0
    1.8037    0.6538   -0.4025 C   0  0  0  0  0  0  0  0  0  0  0  0
    2.9712    0.0054    0.0114 C   0  0  0  0  0  0  0  0  0  0  0  0
    4.1590    0.5757   -0.3648 O   0  0  0  0  0  0  0  0  0  0  0  0
    5.4452    0.1016   -0.0644 C   0  0  0  0  0  0  0  0  0  0  0  0
    2.8342   -1.1432    0.7566 C   0  0  0  0  0  0  0  0  0  0  0  0
    1.6245   -1.6948    1.1208 C   0  0  0  0  0  0  0  0  0  0  0  0
   -0.6379    0.8824   -0.5374 C   0  0  2  0  0  0  0  0  0  0  0  0
   -0.4496    2.3271   -0.2194 C   0  0  0  0  0  0  0  0  0  0  0  0
   -0.1596    2.3464    1.2849 C   0  0  0  0  0  0  0  0  0  0  0  0
   -1.3933    1.9701    2.0489 C   0  0  0  0  0  0  0  0  0  0  0  0
   -2.2917    1.0019    1.3883 C   0  0  0  0  0  0  0  0  0  0  0  0
   -1.9061    0.4273    0.0890 C   0  0  2  0  0  0  0  0  0  0  0  0
   -0.7231    0.5773   -2.0211 C   0  0  0  0  0  0  0  0  0  0  0  0
   -1.6034   -0.6310   -2.2653 C   0  0  0  0  0  0  0  0  0  0  0  0
   -1.5063   -1.5986   -1.1995 N   0  0  0  0  0  0  0  0  0  0  0  0
   -2.3447   -2.7182   -1.5068 C   0  0  0  0  0  0  0  0  0  0  0  0
   -2.8385   -1.4835    0.4568 H   0  0  0  0  0  0  0  0  0  0  0  0
   -0.7348   -2.7073    0.8548 H   0  0  0  0  0  0  0  0  0  0  0  0
   -1.0893   -1.4320    2.1330 H   0  0  0  0  0  0  0  0  0  0  0  0
    1.8787    1.5714   -0.9977 H   0  0  0  0  0  0  0  0  0  0  0  0
    5.5300   -0.2639    0.9768 H   0  0  0  0  0  0  0  0  0  0  0  0
    6.1289    0.9814   -0.1781 H   0  0  0  0  0  0  0  0  0  0  0  0
    5.8060   -0.6573   -0.7856 H   0  0  0  0  0  0  0  0  0  0  0  0
    3.7567   -1.6404    1.0739 H   0  0  0  0  0  0  0  0  0  0  0  0
    1.5618   -2.6006    1.7082 H   0  0  0  0  0  0  0  0  0  0  0  0
   -1.4329    2.8260   -0.3288 H   0  0  0  0  0  0  0  0  0  0  0  0
    0.3103    2.8597   -0.7842 H   0  0  0  0  0  0  0  0  0  0  0  0
    0.1854    3.3777    1.5188 H   0  0  0  0  0  0  0  0  0  0  0  0
    0.6797    1.6678    1.5428 H   0  0  0  0  0  0  0  0  0  0  0  0
   -1.9029    2.9490    2.2661 H   0  0  0  0  0  0  0  0  0  0  0  0
   -1.0676    1.6176    3.0526 H   0  0  0  0  0  0  0  0  0  0  0  0
   -3.3277    1.4565    1.3572 H   0  0  0  0  0  0  0  0  0  0  0  0
   -2.4610    0.1296    2.0893 H   0  0  0  0  0  0  0  0  0  0  0  0
   -2.7215    0.6479   -0.6582 H   0  0  0  0  0  0  0  0  0  0  0  0
   -1.1266    1.4576   -2.5329 H   0  0  0  0  0  0  0  0  0  0  0  0
    0.2846    0.3748   -2.4414 H   0  0  0  0  0  0  0  0  0  0  0  0
   -1.2257   -1.1266   -3.1844 H   0  0  0  0  0  0  0  0  0  0  0  0
   -2.6506   -0.3249   -2.4980 H   0  0  0  0  0  0  0  0  0  0  0  0
   -3.3960   -2.4268   -1.6496 H   0  0  0  0  0  0  0  0  0  0  0  0
   -1.9812   -3.3614   -2.3269 H   0  0  0  0  0  0  0  0  0  0  0  0
   -2.3495   -3.3721   -0.5913 H   0  0  0  0  0  0  0  0  0  0  0  0
  1  2  1  0
  2  3  1  0
  3  4  2  0
  4  5  1  0
  5  6  2  0
  6  7  1  0
  7  8  1  0
  6  9  1  0
  9 10  2  0
  4 11  1  0
 11 12  1  6
 12 13  1  0
 13 14  1  0
 14 15  1  0
 15 16  1  0
 11 17  1  0
 17 18  1  0
 18 19  1  0
 19 20  1  0
 16  1  1  0
 19  1  1  0
 10  3  1  0
 16 11  1  0
  1 21  1  1
  2 22  1  0
  2 23  1  0
  5 24  1  0
  8 25  1  0
  8 26  1  0
  8 27  1  0
  9 28  1  0
 10 29  1  0
 12 30  1  0
 12 31  1  0
 13 32  1  0
 13 33  1  0
 14 34  1  0
 14 35  1  0
 15 36  1  0
 15 37  1  0
 16 38  1  6
 17 39  1  0
 17 40  1  0
 18 41  1  0
 18 42  1  0
 20 43  1  0
 20 44  1  0
 20 45  1  0
M  END
$$$$
