
     RDKit          3D

 63 65  0  0  0  0  0  0  0  0999 V2000
    4.0819   -2.4776    2.5787 C   0  0  0  0  0  0  0  0  0  0  0  0
    4.6041   -1.0593    2.5559 C   0  0  0  0  0  0  0  0  0  0  0  0
    3.3969   -0.1666    2.2011 C   0  0  0  0  0  0  0  0  0  0  0  0
    2.9218   -0.6144    0.8671 C   0  0  0  0  0  0  0  0  0  0  0  0
    1.8407   -0.0278    0.2509 N   0  0  0  0  0  0  0  0  0  0  0  0
    1.5707   -0.5955   -1.0417 C   0  0  0  0  0  0  0  0  0  0  0  0
    2.6390   -0.2696   -2.0349 C   0  0  0  0  0  0  0  0  0  0  0  0
    2.3651   -0.8515   -3.4105 C   0  0  0  0  0  0  0  0  0  0  0  0
    3.5197   -0.4583   -4.3287 C   0  0  0  0  0  0  0  0  0  0  0  0
    1.4364    1.2905    0.3432 C   0  0  0  0  0  0  0  0  0  0  0  0
    0.8738    1.7977    1.6455 C   0  0  0  0  0  0  0  0  0  0  0  0
   -0.3357    1.1335    2.1561 C   0  0  0  0  0  0  0  0  0  0  0  0
   -0.7308    1.7409    3.3898 O   0  0  0  0  0  0  0  0  0  0  0  0
   -1.5207    1.0627    1.3371 C   0  0  0  0  0  0  0  0  0  0  0  0
   -2.0696    0.0603    0.5672 C   0  0  0  0  0  0  0  0  0  0  0  0
   -1.3521   -1.1155    0.5966 C   0  0  0  0  0  0  0  0  0  0  0  0
   -1.7864   -2.1991   -0.1183 C   0  0  0  0  0  0  0  0  0  0  0  0
   -2.9459   -2.1202   -0.8730 C   0  0  0  0  0  0  0  0  0  0  0  0
   -3.6448   -0.9340   -0.8856 C   0  0  0  0  0  0  0  0  0  0  0  0
   -3.2226    0.1480   -0.1792 C   0  0  0  0  0  0  0  0  0  0  0  0
   -3.9057    1.3397   -0.1684 C   0  0  0  0  0  0  0  0  0  0  0  0
   -5.0607    1.4457   -0.9072 C   0  0  0  0  0  0  0  0  0  0  0  0
   -5.7888    2.6277   -0.9293 C   0  0  0  0  0  0  0  0  0  0  0  0
   -7.2783    2.8466   -1.8492 Cl  0  0  0  0  0  0  0  0  0  0  0  0
   -5.3095    3.7007   -0.1784 C   0  0  0  0  0  0  0  0  0  0  0  0
   -4.1486    3.5699    0.5548 C   0  0  0  0  0  0  0  0  0  0  0  0
   -3.5833    4.9468    1.4845 Cl  0  0  0  0  0  0  0  0  0  0  0  0
   -3.4311    2.3949    0.5726 C   0  0  0  0  0  0  0  0  0  0  0  0
   -2.2662    2.2489    1.3035 C   0  0  0  0  0  0  0  0  0  0  0  0
   -3.3670   -3.3477   -1.6326 C   0  0  0  0  0  0  0  0  0  0  0  0
   -3.9538   -3.0134   -2.8361 F   0  0  0  0  0  0  0  0  0  0  0  0
   -2.2078   -4.0376   -1.9540 F   0  0  0  0  0  0  0  0  0  0  0  0
   -4.2256   -4.1300   -0.9091 F   0  0  0  0  0  0  0  0  0  0  0  0
    4.5789   -3.0868    3.3692 H   0  0  0  0  0  0  0  0  0  0  0  0
    4.1562   -2.9860    1.5826 H   0  0  0  0  0  0  0  0  0  0  0  0
    3.0072   -2.4907    2.8519 H   0  0  0  0  0  0  0  0  0  0  0  0
    5.4098   -0.9329    1.8184 H   0  0  0  0  0  0  0  0  0  0  0  0
    4.8772   -0.7984    3.5834 H   0  0  0  0  0  0  0  0  0  0  0  0
    3.8054    0.8642    2.2170 H   0  0  0  0  0  0  0  0  0  0  0  0
    2.6476   -0.3859    2.9816 H   0  0  0  0  0  0  0  0  0  0  0  0
    3.8556   -0.6820    0.2143 H   0  0  0  0  0  0  0  0  0  0  0  0
    2.6854   -1.7267    0.9979 H   0  0  0  0  0  0  0  0  0  0  0  0
    0.6033   -0.2034   -1.4241 H   0  0  0  0  0  0  0  0  0  0  0  0
    1.4767   -1.7051   -0.9677 H   0  0  0  0  0  0  0  0  0  0  0  0
    3.6494   -0.6252   -1.7557 H   0  0  0  0  0  0  0  0  0  0  0  0
    2.7582    0.8290   -2.1913 H   0  0  0  0  0  0  0  0  0  0  0  0
    1.4838   -0.3319   -3.8139 H   0  0  0  0  0  0  0  0  0  0  0  0
    2.2618   -1.9340   -3.4243 H   0  0  0  0  0  0  0  0  0  0  0  0
    4.4750   -0.4171   -3.7445 H   0  0  0  0  0  0  0  0  0  0  0  0
    3.3632    0.4958   -4.8304 H   0  0  0  0  0  0  0  0  0  0  0  0
    3.6370   -1.2468   -5.0994 H   0  0  0  0  0  0  0  0  0  0  0  0
    0.5685    1.4313   -0.3895 H   0  0  0  0  0  0  0  0  0  0  0  0
    2.1800    2.0418   -0.0763 H   0  0  0  0  0  0  0  0  0  0  0  0
    1.6513    1.7091    2.4311 H   0  0  0  0  0  0  0  0  0  0  0  0
    0.7713    2.9002    1.4985 H   0  0  0  0  0  0  0  0  0  0  0  0
   -0.0374    0.1090    2.4863 H   0  0  0  0  0  0  0  0  0  0  0  0
   -1.3737    1.1261    3.8299 H   0  0  0  0  0  0  0  0  0  0  0  0
   -0.4572   -1.2548    1.1532 H   0  0  0  0  0  0  0  0  0  0  0  0
   -1.2320   -3.1432   -0.1085 H   0  0  0  0  0  0  0  0  0  0  0  0
   -4.5288   -0.9620   -1.4949 H   0  0  0  0  0  0  0  0  0  0  0  0
   -5.5186    0.6875   -1.5184 H   0  0  0  0  0  0  0  0  0  0  0  0
   -5.8865    4.6362   -0.1958 H   0  0  0  0  0  0  0  0  0  0  0  0
   -1.9837    3.1462    1.8511 H   0  0  0  0  0  0  0  0  0  0  0  0
  1  2  1  0
  2  3  1  0
  3  4  1  0
  4  5  1  0
  5  6  1  0
  6  7  1  0
  7  8  1  0
  8  9  1  0
  5 10  1  0
 10 11  1  0
 11 12  1  0
 12 13  1  0
 12 14  1  0
 14 15  2  0
 15 16  1  0
 16 17  2  0
 17 18  1  0
 18 19  2  0
 19 20  1  0
 20 21  2  0
 21 22  1  0
 22 23  2  0
 23 24  1  0
 23 25  1  0
 25 26  2  0
 26 27  1  0
 26 28  1  0
 28 29  2  0
 18 30  1  0
 30 31  1  0
 30 32  1  0
 30 33  1  0
 29 14  1  0
 20 15  1  0
 28 21  1  0
  1 34  1  0
  1 35  1  0
  1 36  1  0
  2 37  1  0
  2 38  1  0
  3 39  1  0
  3 40  1  0
  4 41  1  0
  4 42  1  0
  6 43  1  0
  6 44  1  0
  7 45  1  0
  7 46  1  0
  8 47  1  0
  8 48  1  0
  9 49  1  0
  9 50  1  0
  9 51  1  0
 10 52  1  0
 10 53  1  0
 11 54  1  0
 11 55  1  0
 12 56  1  0
 13 57  1  0
 16 58  1  0
 17 59  1  0
 19 60  1  0
 22 61  1  0
 25 62  1  0
 29 63  1  0
M  END
$$$$
