
     RDKit          3D

 66 72  0  0  0  0  0  0  0  0999 V2000
    1.0244   -5.5640   -1.5590 C   0  0  0  0  0  0  0  0  0  0  0  0
    0.6798   -4.1774   -1.1293 C   0  0  0  0  0  0  0  0  0  0  0  0
   -0.5455   -3.6450   -1.3975 C   0  0  0  0  0  0  0  0  0  0  0  0
   -0.8702   -2.3358   -0.9918 C   0  0  0  0  0  0  0  0  0  0  0  0
    0.1053   -1.6329   -0.3182 C   0  0  0  0  0  0  0  0  0  0  0  0
    1.3682   -2.1789   -0.0396 C   0  0  0  0  0  0  0  0  0  0  0  0
    1.6423   -3.4630   -0.4559 C   0  0  0  0  0  0  0  0  0  0  0  0
    2.1521   -1.2689    0.6361 C   0  0  0  0  0  0  0  0  0  0  0  0
    3.5299   -1.4210    1.1529 C   0  0  0  0  0  0  0  0  0  0  0  0
    4.5287   -0.5340    1.0179 C   0  0  0  0  0  0  0  0  0  0  0  0
    4.3010    0.7195    0.3012 C   0  0  0  0  0  0  0  0  0  0  0  0
    3.6529    0.8061   -0.9406 C   0  0  0  0  0  0  0  0  0  0  0  0
    3.6374    2.0918   -1.2326 N   0  0  0  0  0  0  0  0  0  0  0  0
    4.2293    2.8169   -0.2616 C   0  0  0  0  0  0  0  0  0  0  0  0
    4.4499    4.1616   -0.1060 C   0  0  0  0  0  0  0  0  0  0  0  0
    5.0820    4.6108    1.0128 C   0  0  0  0  0  0  0  0  0  0  0  0
    5.4977    3.7282    1.9820 C   0  0  0  0  0  0  0  0  0  0  0  0
    5.2694    2.3954    1.8087 C   0  0  0  0  0  0  0  0  0  0  0  0
    4.6470    1.9533    0.7049 N   0  0  0  0  0  0  0  0  0  0  0  0
    5.7408   -1.0105    1.6475 C   0  0  0  0  0  0  0  0  0  0  0  0
    6.8778   -0.4273    1.7062 O   0  0  0  0  0  0  0  0  0  0  0  0
    5.4547   -2.2847    2.2122 N   0  0  0  0  0  0  0  0  0  0  0  0
    4.0784   -2.5289    1.8994 C   0  0  0  0  0  0  0  0  0  0  0  0
    3.4890   -3.5793    2.2557 O   0  0  0  0  0  0  0  0  0  0  0  0
    1.3652   -0.1524    0.7728 C   0  0  0  0  0  0  0  0  0  0  0  0
    0.1583   -0.4166    0.1903 N   0  0  0  0  0  0  0  0  0  0  0  0
   -0.8922    0.6141    0.1835 C   0  0  0  0  0  0  0  0  0  0  0  0
   -1.7099    0.4918   -1.0839 C   0  0  0  0  0  0  0  0  0  0  0  0
   -2.5940   -0.6134   -1.0374 N   0  0  0  0  0  0  0  0  0  0  0  0
   -3.9112   -0.5063   -0.6322 C   0  0  0  0  0  0  0  0  0  0  0  0
   -4.6372   -1.6211   -0.6534 O   0  0  0  0  0  0  0  0  0  0  0  0
   -4.6465    0.5782   -0.1922 N   0  0  0  0  0  0  0  0  0  0  0  0
   -4.1985    1.9142   -0.0311 C   0  0  0  0  0  0  0  0  0  0  0  0
   -5.2339    2.7312    0.7914 C   0  0  0  0  0  0  0  0  0  0  0  0
   -6.5690    2.7628    0.1331 C   0  0  0  0  0  0  0  0  0  0  0  0
   -6.8433    1.4509   -0.5673 C   0  0  0  0  0  0  0  0  0  0  0  0
   -6.0894    0.3719    0.1665 C   0  0  0  0  0  0  0  0  0  0  0  0
   -2.2398   -2.0175   -1.3981 C   0  0  0  0  0  0  0  0  0  0  0  0
    0.1574   -6.2415   -1.4729 H   0  0  0  0  0  0  0  0  0  0  0  0
    1.8983   -5.9663   -1.0150 H   0  0  0  0  0  0  0  0  0  0  0  0
    1.3236   -5.4915   -2.6403 H   0  0  0  0  0  0  0  0  0  0  0  0
   -1.3281   -4.1992   -1.9339 H   0  0  0  0  0  0  0  0  0  0  0  0
    2.6246   -3.8705   -0.2462 H   0  0  0  0  0  0  0  0  0  0  0  0
    3.2738   -0.0339   -1.4849 H   0  0  0  0  0  0  0  0  0  0  0  0
    4.1040    4.8194   -0.8966 H   0  0  0  0  0  0  0  0  0  0  0  0
    5.2484    5.6838    1.1181 H   0  0  0  0  0  0  0  0  0  0  0  0
    6.0094    4.1010    2.8867 H   0  0  0  0  0  0  0  0  0  0  0  0
    5.6008    1.7292    2.6000 H   0  0  0  0  0  0  0  0  0  0  0  0
    6.1442   -2.8674    2.7316 H   0  0  0  0  0  0  0  0  0  0  0  0
    1.6529    0.7765    1.2587 H   0  0  0  0  0  0  0  0  0  0  0  0
   -1.4981    0.5747    1.0852 H   0  0  0  0  0  0  0  0  0  0  0  0
   -0.3702    1.5792    0.1298 H   0  0  0  0  0  0  0  0  0  0  0  0
   -2.1756    1.4212   -1.3306 H   0  0  0  0  0  0  0  0  0  0  0  0
   -0.9427    0.3284   -1.9179 H   0  0  0  0  0  0  0  0  0  0  0  0
   -4.1449    2.4219   -1.0141 H   0  0  0  0  0  0  0  0  0  0  0  0
   -3.2735    2.0711    0.5399 H   0  0  0  0  0  0  0  0  0  0  0  0
   -4.7977    3.7557    0.8851 H   0  0  0  0  0  0  0  0  0  0  0  0
   -5.2947    2.2689    1.7931 H   0  0  0  0  0  0  0  0  0  0  0  0
   -7.3570    2.9038    0.9141 H   0  0  0  0  0  0  0  0  0  0  0  0
   -6.6531    3.5724   -0.6283 H   0  0  0  0  0  0  0  0  0  0  0  0
   -7.9341    1.2468   -0.5854 H   0  0  0  0  0  0  0  0  0  0  0  0
   -6.4238    1.5122   -1.6038 H   0  0  0  0  0  0  0  0  0  0  0  0
   -6.4027   -0.6317   -0.1717 H   0  0  0  0  0  0  0  0  0  0  0  0
   -6.1461    0.5122    1.2590 H   0  0  0  0  0  0  0  0  0  0  0  0
   -2.9986   -2.6985   -1.0189 H   0  0  0  0  0  0  0  0  0  0  0  0
   -2.2775   -2.0977   -2.5239 H   0  0  0  0  0  0  0  0  0  0  0  0
  1  2  1  0
  2  3  2  0
  3  4  1  0
  4  5  2  0
  5  6  1  0
  6  7  2  0
  6  8  1  0
  8  9  1  0
  9 10  2  0
 10 11  1  0
 11 12  2  0
 12 13  1  0
 13 14  2  0
 14 15  1  0
 15 16  2  0
 16 17  1  0
 17 18  2  0
 18 19  1  0
 10 20  1  0
 20 21  2  0
 20 22  1  0
 22 23  1  0
 23 24  2  0
  8 25  2  0
 25 26  1  0
 26 27  1  0
 27 28  1  0
 28 29  1  0
 29 30  1  0
 30 31  2  0
 30 32  1  0
 32 33  1  0
 33 34  1  0
 34 35  1  0
 35 36  1  0
 36 37  1  0
 29 38  1  0
  7  2  1  0
 23  9  1  0
 37 32  1  0
 38  4  1  0
 26  5  1  0
 19 11  1  0
 19 14  1  0
  1 39  1  0
  1 40  1  0
  1 41  1  0
  3 42  1  0
  7 43  1  0
 12 44  1  0
 15 45  1  0
 16 46  1  0
 17 47  1  0
 18 48  1  0
 22 49  1  0
 25 50  1  0
 27 51  1  0
 27 52  1  0
 28 53  1  0
 28 54  1  0
 33 55  1  0
 33 56  1  0
 34 57  1  0
 34 58  1  0
 35 59  1  0
 35 60  1  0
 36 61  1  0
 36 62  1  0
 37 63  1  0
 37 64  1  0
 38 65  1  0
 38 66  1  0
M  END
$$$$
