
     RDKit          3D

 70 69  0  0  0  0  0  0  0  0999 V2000
   -2.8490    0.4536   -0.6296 C   0  0  2  0  0  0  0  0  0  0  0  0
   -3.7196    1.6007   -0.9867 C   0  0  0  0  0  0  0  0  0  0  0  0
   -4.7517    1.2488   -1.9941 C   0  0  0  0  0  0  0  0  0  0  0  0
   -4.1830    0.7556   -3.3031 C   0  0  0  0  0  0  0  0  0  0  0  0
   -5.3700    0.4481   -4.1981 C   0  0  0  0  0  0  0  0  0  0  0  0
   -3.6168   -0.7155   -0.0422 C   0  0  0  0  0  0  0  0  0  0  0  0
   -4.1060   -0.3515    1.1867 O   0  0  0  0  0  0  0  0  0  0  0  0
   -4.9866   -1.5297    1.9833 P   0  0  2  0  0  5  0  0  0  0  0  0
   -4.1735   -1.8806    3.4363 O   0  0  0  0  0  0  0  0  0  0  0  0
   -5.0164   -2.7898    1.1710 O   0  0  0  0  0  0  0  0  0  0  0  0
   -6.5355   -1.0145    2.4007 O   0  0  0  0  0  0  0  0  0  0  0  0
   -7.4147   -1.0239    1.3385 C   0  0  0  0  0  0  0  0  0  0  0  0
   -8.8040   -0.5590    1.7213 C   0  0  0  0  0  0  0  0  0  0  0  0
   -9.3743   -1.3478    2.6955 O   0  0  0  0  0  0  0  0  0  0  0  0
   -1.7806    0.7716    0.2588 N   0  0  0  0  0  0  0  0  0  0  0  0
   -0.3714    0.7068    0.0710 C   0  0  0  0  0  0  0  0  0  0  0  0
   -0.1304    0.2925   -1.0933 O   0  0  0  0  0  0  0  0  0  0  0  0
    0.4103    1.1360    1.2730 C   0  0  0  0  0  0  0  0  0  0  0  0
    1.8724    0.9961    0.8700 C   0  0  0  0  0  0  0  0  0  0  0  0
    2.7906    1.3914    1.9759 C   0  0  0  0  0  0  0  0  0  0  0  0
    4.2176    1.2313    1.5546 C   0  0  0  0  0  0  0  0  0  0  0  0
    4.4992    2.0986    0.3724 C   0  0  0  0  0  0  0  0  0  0  0  0
    5.9350    1.9663   -0.0337 C   0  0  0  0  0  0  0  0  0  0  0  0
    6.2871    0.5234   -0.4170 C   0  0  0  0  0  0  0  0  0  0  0  0
    7.7250    0.4998   -0.8200 C   0  0  0  0  0  0  0  0  0  0  0  0
    8.2079   -0.8165   -1.2603 C   0  0  0  0  0  0  0  0  0  0  0  0
    8.1642   -1.9723   -0.3408 C   0  0  0  0  0  0  0  0  0  0  0  0
    6.8455   -2.4367    0.1481 C   0  0  0  0  0  0  0  0  0  0  0  0
   -2.3651    0.1130   -1.5843 H   0  0  0  0  0  0  0  0  0  0  0  0
   -3.0605    2.3767   -1.4454 H   0  0  0  0  0  0  0  0  0  0  0  0
   -4.2681    1.9955   -0.0976 H   0  0  0  0  0  0  0  0  0  0  0  0
   -5.3353    2.1625   -2.2352 H   0  0  0  0  0  0  0  0  0  0  0  0
   -5.4850    0.5014   -1.6705 H   0  0  0  0  0  0  0  0  0  0  0  0
   -3.4997    1.4742   -3.7726 H   0  0  0  0  0  0  0  0  0  0  0  0
   -3.7019   -0.2321   -3.0948 H   0  0  0  0  0  0  0  0  0  0  0  0
   -6.1914    0.0120   -3.5604 H   0  0  0  0  0  0  0  0  0  0  0  0
   -5.7879    1.3933   -4.5921 H   0  0  0  0  0  0  0  0  0  0  0  0
   -5.1277   -0.3040   -4.9675 H   0  0  0  0  0  0  0  0  0  0  0  0
   -2.9662   -1.6033    0.0921 H   0  0  0  0  0  0  0  0  0  0  0  0
   -4.4153   -1.0371   -0.7603 H   0  0  0  0  0  0  0  0  0  0  0  0
   -4.4333   -1.2727    4.1733 H   0  0  0  0  0  0  0  0  0  0  0  0
   -7.0888   -0.4925    0.4420 H   0  0  0  0  0  0  0  0  0  0  0  0
   -7.5454   -2.1049    1.0376 H   0  0  0  0  0  0  0  0  0  0  0  0
   -8.7950    0.5306    1.9701 H   0  0  0  0  0  0  0  0  0  0  0  0
   -9.4333   -0.6423    0.8047 H   0  0  0  0  0  0  0  0  0  0  0  0
   -9.7385   -0.7366    3.3992 H   0  0  0  0  0  0  0  0  0  0  0  0
   -2.2689    1.0875    1.1478 H   0  0  0  0  0  0  0  0  0  0  0  0
    0.1891    0.4313    2.1056 H   0  0  0  0  0  0  0  0  0  0  0  0
    0.1731    2.1523    1.5793 H   0  0  0  0  0  0  0  0  0  0  0  0
    2.1100   -0.0487    0.5869 H   0  0  0  0  0  0  0  0  0  0  0  0
    1.9763    1.6175   -0.0393 H   0  0  0  0  0  0  0  0  0  0  0  0
    2.5746    2.4080    2.3818 H   0  0  0  0  0  0  0  0  0  0  0  0
    2.6413    0.7042    2.8474 H   0  0  0  0  0  0  0  0  0  0  0  0
    4.3300    0.1591    1.2621 H   0  0  0  0  0  0  0  0  0  0  0  0
    4.8819    1.4916    2.3978 H   0  0  0  0  0  0  0  0  0  0  0  0
    4.3233    3.1698    0.5909 H   0  0  0  0  0  0  0  0  0  0  0  0
    3.9052    1.7618   -0.5205 H   0  0  0  0  0  0  0  0  0  0  0  0
    6.6218    2.3091    0.7687 H   0  0  0  0  0  0  0  0  0  0  0  0
    6.0955    2.6303   -0.9034 H   0  0  0  0  0  0  0  0  0  0  0  0
    6.1482   -0.1031    0.5093 H   0  0  0  0  0  0  0  0  0  0  0  0
    5.5763    0.1552   -1.1612 H   0  0  0  0  0  0  0  0  0  0  0  0
    8.3831    1.0017   -0.0701 H   0  0  0  0  0  0  0  0  0  0  0  0
    7.7945    1.1986   -1.7140 H   0  0  0  0  0  0  0  0  0  0  0  0
    7.7241   -1.0488   -2.2547 H   0  0  0  0  0  0  0  0  0  0  0  0
    9.3016   -0.6996   -1.5564 H   0  0  0  0  0  0  0  0  0  0  0  0
    8.8131   -1.8258    0.5700 H   0  0  0  0  0  0  0  0  0  0  0  0
    8.6703   -2.8367   -0.8707 H   0  0  0  0  0  0  0  0  0  0  0  0
    5.9739   -2.1989   -0.4939 H   0  0  0  0  0  0  0  0  0  0  0  0
    6.8599   -3.5805    0.1205 H   0  0  0  0  0  0  0  0  0  0  0  0
    6.6690   -2.2465    1.2397 H   0  0  0  0  0  0  0  0  0  0  0  0
  1  2  1  0
  2  3  1  0
  3  4  1  0
  4  5  1  0
  1  6  1  0
  6  7  1  0
  8  7  1  6
  8  9  1  0
  8 10  2  0
  8 11  1  0
 11 12  1  0
 12 13  1  0
 13 14  1  0
  1 15  1  0
 15 16  1  0
 16 17  2  0
 16 18  1  0
 18 19  1  0
 19 20  1  0
 20 21  1  0
 21 22  1  0
 22 23  1  0
 23 24  1  0
 24 25  1  0
 25 26  1  0
 26 27  1  0
 27 28  1  0
  1 29  1  6
  2 30  1  0
  2 31  1  0
  3 32  1  0
  3 33  1  0
  4 34  1  0
  4 35  1  0
  5 36  1  0
  5 37  1  0
  5 38  1  0
  6 39  1  0
  6 40  1  0
  9 41  1  0
 12 42  1  0
 12 43  1  0
 13 44  1  0
 13 45  1  0
 14 46  1  0
 15 47  1  0
 18 48  1  0
 18 49  1  0
 19 50  1  0
 19 51  1  0
 20 52  1  0
 20 53  1  0
 21 54  1  0
 21 55  1  0
 22 56  1  0
 22 57  1  0
 23 58  1  0
 23 59  1  0
 24 60  1  0
 24 61  1  0
 25 62  1  0
 25 63  1  0
 26 64  1  0
 26 65  1  0
 27 66  1  0
 27 67  1  0
 28 68  1  0
 28 69  1  0
 28 70  1  0
M  END
$$$$
