
     RDKit          3D

 39 41  0  0  0  0  0  0  0  0999 V2000
   -1.4838   -0.2991   -1.3292 C   0  0  0  0  0  0  0  0  0  0  0  0
   -0.3119    0.2894   -0.7114 N   0  0  0  0  0  0  0  0  0  0  0  0
    0.7459   -0.6527   -0.9174 C   0  0  0  0  0  0  0  0  0  0  0  0
    2.0721   -0.3569   -0.3922 C   0  0  0  0  0  0  0  0  0  0  0  0
    2.3791   -0.7563    0.9147 C   0  0  0  0  0  0  0  0  0  0  0  0
    3.6562   -0.5086    1.4170 C   0  0  0  0  0  0  0  0  0  0  0  0
    4.5591    0.1208    0.5987 C   0  0  0  0  0  0  0  0  0  0  0  0
    4.2844    0.5241   -0.6876 C   0  0  0  0  0  0  0  0  0  0  0  0
    3.0131    0.2869   -1.2127 C   0  0  0  0  0  0  0  0  0  0  0  0
   -0.4276    1.5426   -0.0593 C   0  0  0  0  0  0  0  0  0  0  0  0
   -1.6727    2.1250    0.0077 C   0  0  0  0  0  0  0  0  0  0  0  0
   -1.8823    3.3261    0.6031 C   0  0  0  0  0  0  0  0  0  0  0  0
   -0.8495    4.0471    1.1859 C   0  0  0  0  0  0  0  0  0  0  0  0
    0.4203    3.4956    1.1413 C   0  0  0  0  0  0  0  0  0  0  0  0
    0.5681    2.2774    0.5243 C   0  0  0  0  0  0  0  0  0  0  0  0
   -1.9953   -1.4872   -0.5964 C   0  0  0  0  0  0  0  0  0  0  0  0
   -1.5789   -2.0287    0.4973 N   0  0  0  0  0  0  0  0  0  0  0  0
   -2.3453   -3.1731    0.8833 C   0  0  0  0  0  0  0  0  0  0  0  0
   -3.3101   -3.4093   -0.2563 C   0  0  0  0  0  0  0  0  0  0  0  0
   -3.1156   -2.2246   -1.0668 N   0  0  0  0  0  0  0  0  0  0  0  0
   -2.2714    0.4292   -1.5738 H   0  0  0  0  0  0  0  0  0  0  0  0
   -1.1446   -0.7222   -2.3355 H   0  0  0  0  0  0  0  0  0  0  0  0
    0.8432   -0.8461   -2.0413 H   0  0  0  0  0  0  0  0  0  0  0  0
    0.4985   -1.6803   -0.5382 H   0  0  0  0  0  0  0  0  0  0  0  0
    1.6016   -1.2536    1.5032 H   0  0  0  0  0  0  0  0  0  0  0  0
    3.8491   -0.8322    2.4203 H   0  0  0  0  0  0  0  0  0  0  0  0
    5.5188    0.2749    1.0640 H   0  0  0  0  0  0  0  0  0  0  0  0
    5.0789    1.0236   -1.2636 H   0  0  0  0  0  0  0  0  0  0  0  0
    2.7985    0.6037   -2.2220 H   0  0  0  0  0  0  0  0  0  0  0  0
   -2.6275    1.7773   -0.3507 H   0  0  0  0  0  0  0  0  0  0  0  0
   -2.8265    3.8660    0.7077 H   0  0  0  0  0  0  0  0  0  0  0  0
   -0.9613    5.0154    1.6771 H   0  0  0  0  0  0  0  0  0  0  0  0
    1.2481    4.0306    1.5856 H   0  0  0  0  0  0  0  0  0  0  0  0
    1.5594    1.9174    0.5289 H   0  0  0  0  0  0  0  0  0  0  0  0
   -2.9343   -2.9285    1.8138 H   0  0  0  0  0  0  0  0  0  0  0  0
   -1.7537   -4.1020    1.0254 H   0  0  0  0  0  0  0  0  0  0  0  0
   -4.3639   -3.3741    0.1283 H   0  0  0  0  0  0  0  0  0  0  0  0
   -3.1003   -4.3502   -0.7977 H   0  0  0  0  0  0  0  0  0  0  0  0
   -3.7380   -1.9874   -1.8755 H   0  0  0  0  0  0  0  0  0  0  0  0
  1  2  1  0
  2  3  1  0
  3  4  1  0
  4  5  2  0
  5  6  1  0
  6  7  2  0
  7  8  1  0
  8  9  2  0
  2 10  1  0
 10 11  2  0
 11 12  1  0
 12 13  2  0
 13 14  1  0
 14 15  2  0
  1 16  1  0
 16 17  2  0
 17 18  1  0
 18 19  1  0
 19 20  1  0
  9  4  1  0
 15 10  1  0
 20 16  1  0
  1 21  1  0
  1 22  1  0
  3 23  1  0
  3 24  1  0
  5 25  1  0
  6 26  1  0
  7 27  1  0
  8 28  1  0
  9 29  1  0
 11 30  1  0
 12 31  1  0
 13 32  1  0
 14 33  1  0
 15 34  1  0
 18 35  1  0
 18 36  1  0
 19 37  1  0
 19 38  1  0
 20 39  1  0
M  END
$$$$
