
     RDKit          3D

 82 86  0  0  0  0  0  0  0  0999 V2000
   -5.7472   -6.2094    0.1766 C   0  0  0  0  0  0  0  0  0  0  0  0
   -5.4387   -4.7978    0.5059 C   0  0  0  0  0  0  0  0  0  0  0  0
   -5.1628   -4.3968    1.7943 C   0  0  0  0  0  0  0  0  0  0  0  0
   -4.8743   -3.0570    2.0785 C   0  0  0  0  0  0  0  0  0  0  0  0
   -4.8579   -2.1046    1.0846 C   0  0  0  0  0  0  0  0  0  0  0  0
   -4.4990   -0.4476    1.4478 S   0  0  0  0  0  6  0  0  0  0  0  0
   -5.2532    0.4455    0.5001 O   0  0  0  0  0  0  0  0  0  0  0  0
   -4.9850   -0.0723    2.8420 O   0  0  0  0  0  0  0  0  0  0  0  0
   -2.8532   -0.0622    1.3537 N   0  0  0  0  0  0  0  0  0  0  0  0
   -2.0111   -0.7804    2.2677 C   0  0  0  0  0  0  0  0  0  0  0  0
   -0.7614    0.0448    2.4909 C   0  0  0  0  0  0  0  0  0  0  0  0
   -0.9662    1.5021    2.1335 C   0  0  0  0  0  0  0  0  0  0  0  0
   -0.6136    1.7833    0.6955 C   0  0  1  0  0  0  0  0  0  0  0  0
    0.6383    1.1995    0.3846 O   0  0  0  0  0  0  0  0  0  0  0  0
    1.7495    1.9548    0.0393 C   0  0  0  0  0  0  0  0  0  0  0  0
    1.6783    3.2071   -0.0094 O   0  0  0  0  0  0  0  0  0  0  0  0
    3.0387    1.3363   -0.2799 C   0  0  0  0  0  0  0  0  0  0  0  0
    4.1327    2.1005   -0.6219 C   0  0  0  0  0  0  0  0  0  0  0  0
    5.3367    1.5096   -0.9186 C   0  0  0  0  0  0  0  0  0  0  0  0
    6.4583    2.2855   -1.2688 O   0  0  0  0  0  0  0  0  0  0  0  0
    5.5318    0.1384   -0.8957 C   0  0  0  0  0  0  0  0  0  0  0  0
    6.7677   -0.4678   -1.3200 C   0  0  0  0  0  0  0  0  0  0  0  0
    7.4434    0.3025   -2.1447 O   0  0  0  0  0  0  0  0  0  0  0  0
    7.3484   -1.7272   -1.0099 C   0  0  0  0  0  0  0  0  0  0  0  0
    8.0087   -2.3964   -2.0696 C   0  0  0  0  0  0  0  0  0  0  0  0
    8.0155   -1.7841   -3.3268 O   0  0  0  0  0  0  0  0  0  0  0  0
    8.6255   -3.6064   -1.8827 C   0  0  0  0  0  0  0  0  0  0  0  0
    8.6228   -4.2151   -0.6481 C   0  0  0  0  0  0  0  0  0  0  0  0
    7.9943   -3.5863    0.3937 C   0  0  0  0  0  0  0  0  0  0  0  0
    7.3594   -2.3314    0.1987 C   0  0  0  0  0  0  0  0  0  0  0  0
    6.9230   -1.6458    1.4023 C   0  0  0  0  0  0  0  0  0  0  0  0
    6.8531   -2.3203    2.4950 O   0  0  0  0  0  0  0  0  0  0  0  0
    6.5791   -0.3327    1.5095 O   0  0  0  0  0  0  0  0  0  0  0  0
    4.4305   -0.6116   -0.5540 C   0  0  0  0  0  0  0  0  0  0  0  0
    4.5010   -2.0032   -0.5032 O   0  0  0  0  0  0  0  0  0  0  0  0
    3.1981   -0.0297   -0.2483 C   0  0  0  0  0  0  0  0  0  0  0  0
   -1.6899    1.3770   -0.2684 C   0  0  2  0  0  0  0  0  0  0  0  0
   -2.7056    2.4054   -0.3010 N   0  0  0  0  0  0  0  0  0  0  0  0
   -3.0162    3.1697   -1.4473 C   0  0  0  0  0  0  0  0  0  0  0  0
   -2.3386    2.9040   -2.4883 O   0  0  0  0  0  0  0  0  0  0  0  0
   -4.0371    4.2006   -1.4720 C   0  0  0  0  0  0  0  0  0  0  0  0
   -4.7973    4.5276   -0.3747 C   0  0  0  0  0  0  0  0  0  0  0  0
   -5.7589    5.5245   -0.4633 C   0  0  0  0  0  0  0  0  0  0  0  0
   -5.9943    6.2211   -1.6304 C   0  0  0  0  0  0  0  0  0  0  0  0
   -6.9638    7.2258   -1.7186 O   0  0  0  0  0  0  0  0  0  0  0  0
   -5.2265    5.8875   -2.7304 C   0  0  0  0  0  0  0  0  0  0  0  0
   -4.2574    4.8835   -2.6428 C   0  0  0  0  0  0  0  0  0  0  0  0
   -2.3210    0.0582    0.0382 C   0  0  0  0  0  0  0  0  0  0  0  0
   -5.1369   -2.5305   -0.1941 C   0  0  0  0  0  0  0  0  0  0  0  0
   -5.4223   -3.8460   -0.4874 C   0  0  0  0  0  0  0  0  0  0  0  0
   -5.0465   -6.5303   -0.6204 H   0  0  0  0  0  0  0  0  0  0  0  0
   -5.5895   -6.8568    1.0584 H   0  0  0  0  0  0  0  0  0  0  0  0
   -6.8054   -6.3508   -0.1334 H   0  0  0  0  0  0  0  0  0  0  0  0
   -5.1804   -5.1589    2.5614 H   0  0  0  0  0  0  0  0  0  0  0  0
   -4.6698   -2.8220    3.1049 H   0  0  0  0  0  0  0  0  0  0  0  0
   -2.5087   -1.0911    3.1816 H   0  0  0  0  0  0  0  0  0  0  0  0
   -1.6833   -1.7142    1.7428 H   0  0  0  0  0  0  0  0  0  0  0  0
    0.0997   -0.3449    1.9105 H   0  0  0  0  0  0  0  0  0  0  0  0
   -0.5093   -0.0287    3.5809 H   0  0  0  0  0  0  0  0  0  0  0  0
   -0.3187    2.1362    2.7794 H   0  0  0  0  0  0  0  0  0  0  0  0
   -2.0235    1.8184    2.3065 H   0  0  0  0  0  0  0  0  0  0  0  0
   -0.4857    2.8822    0.6010 H   0  0  0  0  0  0  0  0  0  0  0  0
    4.0711    3.1682   -0.6643 H   0  0  0  0  0  0  0  0  0  0  0  0
    7.1751    2.5352   -0.6200 H   0  0  0  0  0  0  0  0  0  0  0  0
    7.5276   -2.2723   -4.0774 H   0  0  0  0  0  0  0  0  0  0  0  0
    9.1282   -4.1087   -2.7045 H   0  0  0  0  0  0  0  0  0  0  0  0
    9.1128   -5.1815   -0.5028 H   0  0  0  0  0  0  0  0  0  0  0  0
    7.9746   -4.0413    1.3805 H   0  0  0  0  0  0  0  0  0  0  0  0
    6.4305    0.1599    2.3799 H   0  0  0  0  0  0  0  0  0  0  0  0
    4.0816   -2.4297    0.3281 H   0  0  0  0  0  0  0  0  0  0  0  0
    2.3385   -0.6554    0.0217 H   0  0  0  0  0  0  0  0  0  0  0  0
   -1.2113    1.2940   -1.2736 H   0  0  0  0  0  0  0  0  0  0  0  0
   -3.2360    2.5888    0.5752 H   0  0  0  0  0  0  0  0  0  0  0  0
   -4.6670    4.0184    0.5846 H   0  0  0  0  0  0  0  0  0  0  0  0
   -6.3743    5.8036    0.3889 H   0  0  0  0  0  0  0  0  0  0  0  0
   -6.6959    8.1156   -1.2873 H   0  0  0  0  0  0  0  0  0  0  0  0
   -5.3608    6.3905   -3.6636 H   0  0  0  0  0  0  0  0  0  0  0  0
   -3.6847    4.6720   -3.5577 H   0  0  0  0  0  0  0  0  0  0  0  0
   -1.5503   -0.7257   -0.0975 H   0  0  0  0  0  0  0  0  0  0  0  0
   -3.1049   -0.1234   -0.7252 H   0  0  0  0  0  0  0  0  0  0  0  0
   -5.1402   -1.8201   -1.0348 H   0  0  0  0  0  0  0  0  0  0  0  0
   -5.6385   -4.1594   -1.4983 H   0  0  0  0  0  0  0  0  0  0  0  0
  1  2  1  0
  2  3  2  0
  3  4  1  0
  4  5  2  0
  5  6  1  0
  6  7  2  0
  6  8  2  0
  6  9  1  0
  9 10  1  0
 10 11  1  0
 11 12  1  0
 12 13  1  0
 13 14  1  0
 14 15  1  0
 15 16  2  0
 15 17  1  0
 17 18  2  0
 18 19  1  0
 19 20  1  0
 19 21  2  0
 21 22  1  0
 22 23  2  0
 22 24  1  0
 24 25  2  0
 25 26  1  0
 25 27  1  0
 27 28  2  0
 28 29  1  0
 29 30  2  0
 30 31  1  0
 31 32  2  0
 31 33  1  0
 21 34  1  0
 34 35  1  0
 34 36  2  0
 13 37  1  0
 37 38  1  0
 38 39  1  0
 39 40  2  0
 39 41  1  0
 41 42  2  0
 42 43  1  0
 43 44  2  0
 44 45  1  0
 44 46  1  0
 46 47  2  0
 37 48  1  0
  5 49  1  0
 49 50  2  0
 50  2  1  0
 48  9  1  0
 36 17  1  0
 47 41  1  0
 30 24  1  0
  1 51  1  0
  1 52  1  0
  1 53  1  0
  3 54  1  0
  4 55  1  0
 10 56  1  0
 10 57  1  0
 11 58  1  0
 11 59  1  0
 12 60  1  0
 12 61  1  0
 13 62  1  1
 18 63  1  0
 20 64  1  0
 26 65  1  0
 27 66  1  0
 28 67  1  0
 29 68  1  0
 33 69  1  0
 35 70  1  0
 36 71  1  0
 37 72  1  6
 38 73  1  0
 42 74  1  0
 43 75  1  0
 45 76  1  0
 46 77  1  0
 47 78  1  0
 48 79  1  0
 48 80  1  0
 49 81  1  0
 50 82  1  0
M  END
$$$$
