
     RDKit          3D

 40 41  0  0  0  0  0  0  0  0999 V2000
    1.1845    1.0293    1.2634 O   0  0  0  0  0  0  0  0  0  0  0  0
    1.3998    1.6508    0.1917 C   0  0  0  0  0  0  0  0  0  0  0  0
    0.3714    1.7284   -0.8667 C   0  0  0  0  0  0  0  0  0  0  0  0
   -0.8703    0.9921   -0.4312 C   0  0  0  0  0  0  0  0  0  0  0  0
   -1.8581    1.0764   -1.4880 N   0  0  0  0  0  0  0  0  0  0  0  0
   -3.0097    0.4093   -1.0643 N   0  0  0  0  0  0  0  0  0  0  0  0
   -3.6069   -0.8792   -1.0688 C   0  0  0  0  0  0  0  0  0  0  0  0
   -2.9642   -1.8110   -1.6156 O   0  0  0  0  0  0  0  0  0  0  0  0
   -4.9116   -0.9235   -0.4194 C   0  0  0  0  0  0  0  0  0  0  0  0
   -5.6461    0.0777    0.1796 C   0  0  0  0  0  0  0  0  0  0  0  0
   -6.8597   -0.1912    0.7331 C   0  0  0  0  0  0  0  0  0  0  0  0
   -7.4120   -1.4373    0.7300 N   0  0  0  0  0  0  0  0  0  0  0  0
   -6.6940   -2.4364    0.1398 C   0  0  0  0  0  0  0  0  0  0  0  0
   -5.4451   -2.2055   -0.4401 C   0  0  0  0  0  0  0  0  0  0  0  0
    2.6237    2.3233   -0.1005 N   0  0  0  0  0  0  0  0  0  0  0  0
    3.7621    2.3516    0.8313 C   0  0  0  0  0  0  0  0  0  0  0  0
    4.5041    1.0686    0.8246 C   0  0  0  0  0  0  0  0  0  0  0  0
    4.3145   -0.0491    1.6096 C   0  0  0  0  0  0  0  0  0  0  0  0
    5.1120   -1.1636    1.4534 C   0  0  0  0  0  0  0  0  0  0  0  0
    6.1316   -1.2109    0.5088 C   0  0  0  0  0  0  0  0  0  0  0  0
    6.3420   -0.1073   -0.2885 C   0  0  0  0  0  0  0  0  0  0  0  0
    5.5233    1.0066   -0.1117 C   0  0  0  0  0  0  0  0  0  0  0  0
    0.0882    2.8030   -1.0709 H   0  0  0  0  0  0  0  0  0  0  0  0
    0.7456    1.2800   -1.8235 H   0  0  0  0  0  0  0  0  0  0  0  0
   -1.2525    1.4910    0.4796 H   0  0  0  0  0  0  0  0  0  0  0  0
   -0.6295   -0.0508   -0.1595 H   0  0  0  0  0  0  0  0  0  0  0  0
   -1.5032    0.7977   -2.4060 H   0  0  0  0  0  0  0  0  0  0  0  0
   -3.3207    1.3298   -0.6880 H   0  0  0  0  0  0  0  0  0  0  0  0
   -5.1480    1.0347    0.1444 H   0  0  0  0  0  0  0  0  0  0  0  0
   -7.3473    0.6716    1.1756 H   0  0  0  0  0  0  0  0  0  0  0  0
   -7.1914   -3.3976    0.1733 H   0  0  0  0  0  0  0  0  0  0  0  0
   -4.9589   -3.0884   -0.8857 H   0  0  0  0  0  0  0  0  0  0  0  0
    2.7682    2.8404   -1.0191 H   0  0  0  0  0  0  0  0  0  0  0  0
    3.3006    2.4506    1.8496 H   0  0  0  0  0  0  0  0  0  0  0  0
    4.4259    3.1885    0.5937 H   0  0  0  0  0  0  0  0  0  0  0  0
    3.5114    0.0453    2.3239 H   0  0  0  0  0  0  0  0  0  0  0  0
    4.8918   -2.0101    2.1204 H   0  0  0  0  0  0  0  0  0  0  0  0
    6.7370   -2.1129    0.4198 H   0  0  0  0  0  0  0  0  0  0  0  0
    7.1273   -0.1402   -1.0177 H   0  0  0  0  0  0  0  0  0  0  0  0
    5.7642    1.8195   -0.7800 H   0  0  0  0  0  0  0  0  0  0  0  0
  1  2  2  0
  2  3  1  0
  3  4  1  0
  4  5  1  0
  5  6  1  0
  6  7  1  0
  7  8  2  0
  7  9  1  0
  9 10  2  0
 10 11  1  0
 11 12  2  0
 12 13  1  0
 13 14  2  0
  2 15  1  0
 15 16  1  0
 16 17  1  0
 17 18  2  0
 18 19  1  0
 19 20  2  0
 20 21  1  0
 21 22  2  0
 14  9  1  0
 22 17  1  0
  3 23  1  0
  3 24  1  0
  4 25  1  0
  4 26  1  0
  5 27  1  0
  6 28  1  0
 10 29  1  0
 11 30  1  0
 13 31  1  0
 14 32  1  0
 15 33  1  0
 16 34  1  0
 16 35  1  0
 18 36  1  0
 19 37  1  0
 20 38  1  0
 21 39  1  0
 22 40  1  0
M  END
$$$$
