
     RDKit          3D

 49 51  0  0  0  0  0  0  0  0999 V2000
    2.0575   -1.1815   -0.4727 C   0  0  0  0  0  0  0  0  0  0  0  0
    2.2063    0.2954   -0.4495 C   0  0  0  0  0  0  0  0  0  0  0  0
    1.2098    1.2254   -0.6178 C   0  0  0  0  0  0  0  0  0  0  0  0
   -0.2435    1.1158   -0.7908 C   0  0  0  0  0  0  0  0  0  0  0  0
   -0.9444    0.9954    0.5103 C   0  0  0  0  0  0  0  0  0  0  0  0
   -0.4986   -0.2163    1.2670 C   0  0  0  0  0  0  0  0  0  0  0  0
   -2.4233    0.9912    0.3648 C   0  0  0  0  0  0  0  0  0  0  0  0
   -3.0800    1.8763    0.9531 O   0  0  0  0  0  0  0  0  0  0  0  0
   -3.1148    0.0275   -0.4130 N   0  0  0  0  0  0  0  0  0  0  0  0
   -4.5403    0.0777   -0.5197 C   0  0  0  0  0  0  0  0  0  0  0  0
   -5.1270    0.8399   -1.5371 C   0  0  0  0  0  0  0  0  0  0  0  0
   -6.4932    0.9279   -1.6910 C   0  0  0  0  0  0  0  0  0  0  0  0
   -7.3039    0.2344   -0.8029 C   0  0  0  0  0  0  0  0  0  0  0  0
   -6.7399   -0.5189    0.2019 C   0  0  0  0  0  0  0  0  0  0  0  0
   -5.3608   -0.6008    0.3479 C   0  0  0  0  0  0  0  0  0  0  0  0
   -4.8215   -1.4125    1.4169 C   0  0  0  0  0  0  0  0  0  0  0  0
   -3.5778   -1.5005    1.5503 O   0  0  0  0  0  0  0  0  0  0  0  0
   -5.6662   -2.0935    2.2948 O   0  0  0  0  0  0  0  0  0  0  0  0
    1.8862    2.4521   -0.5485 C   0  0  0  0  0  0  0  0  0  0  0  0
    3.1898    2.1961   -0.3502 N   0  0  0  0  0  0  0  0  0  0  0  0
    3.4063    0.8965   -0.2867 N   0  0  0  0  0  0  0  0  0  0  0  0
    4.6691    0.2617   -0.0838 C   0  0  0  0  0  0  0  0  0  0  0  0
    4.8739   -0.6742    0.8966 C   0  0  0  0  0  0  0  0  0  0  0  0
    6.1246   -1.2419    1.0292 C   0  0  0  0  0  0  0  0  0  0  0  0
    7.1805   -0.9007    0.2082 C   0  0  0  0  0  0  0  0  0  0  0  0
    8.4428   -1.4527    0.3182 O   0  0  0  0  0  0  0  0  0  0  0  0
    6.9855    0.0419   -0.7838 C   0  0  0  0  0  0  0  0  0  0  0  0
    5.7333    0.5965   -0.9010 C   0  0  0  0  0  0  0  0  0  0  0  0
    1.9856   -1.6238    0.5401 H   0  0  0  0  0  0  0  0  0  0  0  0
    2.8784   -1.6584   -1.0715 H   0  0  0  0  0  0  0  0  0  0  0  0
    1.1256   -1.4622   -1.0058 H   0  0  0  0  0  0  0  0  0  0  0  0
   -0.5789    2.0496   -1.3368 H   0  0  0  0  0  0  0  0  0  0  0  0
   -0.5211    0.2754   -1.4738 H   0  0  0  0  0  0  0  0  0  0  0  0
   -0.6646    1.9105    1.1220 H   0  0  0  0  0  0  0  0  0  0  0  0
   -0.5432   -1.1457    0.6790 H   0  0  0  0  0  0  0  0  0  0  0  0
   -1.1588   -0.4005    2.1600 H   0  0  0  0  0  0  0  0  0  0  0  0
    0.5388   -0.0962    1.6590 H   0  0  0  0  0  0  0  0  0  0  0  0
   -2.5418   -0.7024   -0.8918 H   0  0  0  0  0  0  0  0  0  0  0  0
   -4.4825    1.3757   -2.2226 H   0  0  0  0  0  0  0  0  0  0  0  0
   -6.9770    1.5062   -2.4639 H   0  0  0  0  0  0  0  0  0  0  0  0
   -8.3776    0.2923   -0.9088 H   0  0  0  0  0  0  0  0  0  0  0  0
   -7.3754   -1.0620    0.8972 H   0  0  0  0  0  0  0  0  0  0  0  0
   -5.3385   -2.9333    2.7713 H   0  0  0  0  0  0  0  0  0  0  0  0
    1.3961    3.4148   -0.6445 H   0  0  0  0  0  0  0  0  0  0  0  0
    4.0495   -0.9644    1.5652 H   0  0  0  0  0  0  0  0  0  0  0  0
    6.3173   -1.9801    1.7897 H   0  0  0  0  0  0  0  0  0  0  0  0
    8.8575   -1.7412    1.2032 H   0  0  0  0  0  0  0  0  0  0  0  0
    7.7768    0.3459   -1.4540 H   0  0  0  0  0  0  0  0  0  0  0  0
    5.6029    1.3415   -1.6947 H   0  0  0  0  0  0  0  0  0  0  0  0
  1  2  1  0
  2  3  2  0
  3  4  1  0
  4  5  1  0
  5  6  1  0
  5  7  1  0
  7  8  2  0
  7  9  1  0
  9 10  1  0
 10 11  2  0
 11 12  1  0
 12 13  2  0
 13 14  1  0
 14 15  2  0
 15 16  1  0
 16 17  2  0
 16 18  1  0
  3 19  1  0
 19 20  2  0
 20 21  1  0
 21 22  1  0
 22 23  2  0
 23 24  1  0
 24 25  2  0
 25 26  1  0
 25 27  1  0
 27 28  2  0
 21  2  1  0
 28 22  1  0
 15 10  1  0
  1 29  1  0
  1 30  1  0
  1 31  1  0
  4 32  1  0
  4 33  1  0
  5 34  1  0
  6 35  1  0
  6 36  1  0
  6 37  1  0
  9 38  1  0
 11 39  1  0
 12 40  1  0
 13 41  1  0
 14 42  1  0
 18 43  1  0
 19 44  1  0
 23 45  1  0
 24 46  1  0
 26 47  1  0
 27 48  1  0
 28 49  1  0
M  END
$$$$
