
     RDKit          3D

 53 55  0  0  0  0  0  0  0  0999 V2000
    2.5572    1.1350    3.9144 O   0  0  0  0  0  0  0  0  0  0  0  0
    2.9246    0.6360    2.8118 C   0  0  0  0  0  0  0  0  0  0  0  0
    4.2471    0.7137    2.2110 C   0  0  0  0  0  0  0  0  0  0  0  0
    5.2677    1.2978    2.6895 O   0  0  0  0  0  0  0  0  0  0  0  0
    4.1987    0.0207    0.9924 N   0  0  0  0  0  0  0  0  0  0  0  0
    5.2475   -0.2001    0.0083 C   0  0  0  0  0  0  0  0  0  0  0  0
    5.3019    0.8677   -1.0229 C   0  0  0  0  0  0  0  0  0  0  0  0
    6.4016    0.5655   -2.0078 C   0  0  0  0  0  0  0  0  0  0  0  0
    7.7478    0.4923   -1.3500 C   0  0  0  0  0  0  0  0  0  0  0  0
    7.9936    1.7210   -0.7497 F   0  0  0  0  0  0  0  0  0  0  0  0
    2.8852   -0.4776    0.8321 C   0  0  0  0  0  0  0  0  0  0  0  0
    2.2758   -1.2308   -0.1808 C   0  0  0  0  0  0  0  0  0  0  0  0
    0.9545   -1.6169   -0.1349 C   0  0  0  0  0  0  0  0  0  0  0  0
    0.1767   -1.2577    0.9462 C   0  0  0  0  0  0  0  0  0  0  0  0
   -1.4908   -1.7707    0.9576 S   0  0  0  0  0  6  0  0  0  0  0  0
   -1.9626   -2.0623    2.3635 O   0  0  0  0  0  0  0  0  0  0  0  0
   -1.6107   -3.0386    0.1607 O   0  0  0  0  0  0  0  0  0  0  0  0
   -2.4429   -0.5740    0.2035 N   0  0  0  0  0  0  0  0  0  0  0  0
   -2.4180    0.6994    0.8523 C   0  0  0  0  0  0  0  0  0  0  0  0
   -3.5870    0.6842    1.8132 C   0  0  0  0  0  0  0  0  0  0  0  0
   -4.3422   -0.5691    1.5118 C   0  0  0  0  0  0  0  0  0  0  0  0
   -3.8242   -0.9560    0.1435 C   0  0  1  0  0  0  0  0  0  0  0  0
   -4.5819   -0.1385   -0.8912 C   0  0  0  0  0  0  0  0  0  0  0  0
   -5.8824   -0.5794   -0.8686 O   0  0  0  0  0  0  0  0  0  0  0  0
   -6.7483    0.0193   -1.7375 C   0  0  0  0  0  0  0  0  0  0  0  0
   -6.8932    1.5049   -1.5259 C   0  0  0  0  0  0  0  0  0  0  0  0
   -7.7886    2.0502   -2.4315 F   0  0  0  0  0  0  0  0  0  0  0  0
    0.7386   -0.5190    1.9595 C   0  0  0  0  0  0  0  0  0  0  0  0
    2.0860   -0.1328    1.8993 C   0  0  0  0  0  0  0  0  0  0  0  0
    6.2149   -0.2024    0.5864 H   0  0  0  0  0  0  0  0  0  0  0  0
    5.1341   -1.1793   -0.4497 H   0  0  0  0  0  0  0  0  0  0  0  0
    4.3438    0.8402   -1.6063 H   0  0  0  0  0  0  0  0  0  0  0  0
    5.4977    1.8744   -0.6113 H   0  0  0  0  0  0  0  0  0  0  0  0
    6.3915    1.2716   -2.8732 H   0  0  0  0  0  0  0  0  0  0  0  0
    6.2281   -0.4440   -2.4781 H   0  0  0  0  0  0  0  0  0  0  0  0
    7.8043   -0.3317   -0.6350 H   0  0  0  0  0  0  0  0  0  0  0  0
    8.4832    0.2939   -2.1642 H   0  0  0  0  0  0  0  0  0  0  0  0
    2.8760   -1.5224   -1.0408 H   0  0  0  0  0  0  0  0  0  0  0  0
    0.5545   -2.2006   -0.9602 H   0  0  0  0  0  0  0  0  0  0  0  0
   -2.5516    1.4957    0.0702 H   0  0  0  0  0  0  0  0  0  0  0  0
   -1.5115    0.9254    1.4138 H   0  0  0  0  0  0  0  0  0  0  0  0
   -4.2179    1.5561    1.5877 H   0  0  0  0  0  0  0  0  0  0  0  0
   -3.2579    0.7582    2.8686 H   0  0  0  0  0  0  0  0  0  0  0  0
   -4.1951   -1.3798    2.2452 H   0  0  0  0  0  0  0  0  0  0  0  0
   -5.4271   -0.3365    1.3892 H   0  0  0  0  0  0  0  0  0  0  0  0
   -3.9683   -2.0295   -0.0734 H   0  0  0  0  0  0  0  0  0  0  0  0
   -4.1024   -0.3741   -1.8829 H   0  0  0  0  0  0  0  0  0  0  0  0
   -4.4428    0.9361   -0.7304 H   0  0  0  0  0  0  0  0  0  0  0  0
   -6.5562   -0.2365   -2.8012 H   0  0  0  0  0  0  0  0  0  0  0  0
   -7.7654   -0.4174   -1.5244 H   0  0  0  0  0  0  0  0  0  0  0  0
   -5.8851    1.9863   -1.6556 H   0  0  0  0  0  0  0  0  0  0  0  0
   -7.2155    1.6638   -0.4751 H   0  0  0  0  0  0  0  0  0  0  0  0
    0.1372   -0.2321    2.8118 H   0  0  0  0  0  0  0  0  0  0  0  0
  1  2  2  0
  2  3  1  0
  3  4  2  0
  3  5  1  0
  5  6  1  0
  6  7  1  0
  7  8  1  0
  8  9  1  0
  9 10  1  0
  5 11  1  0
 11 12  2  0
 12 13  1  0
 13 14  2  0
 14 15  1  0
 15 16  2  0
 15 17  2  0
 15 18  1  0
 18 19  1  0
 19 20  1  0
 20 21  1  0
 21 22  1  0
 22 23  1  0
 23 24  1  0
 24 25  1  0
 25 26  1  0
 26 27  1  0
 14 28  1  0
 28 29  2  0
 29  2  1  0
 29 11  1  0
 22 18  1  0
  6 30  1  0
  6 31  1  0
  7 32  1  0
  7 33  1  0
  8 34  1  0
  8 35  1  0
  9 36  1  0
  9 37  1  0
 12 38  1  0
 13 39  1  0
 19 40  1  0
 19 41  1  0
 20 42  1  0
 20 43  1  0
 21 44  1  0
 21 45  1  0
 22 46  1  6
 23 47  1  0
 23 48  1  0
 25 49  1  0
 25 50  1  0
 26 51  1  0
 26 52  1  0
 28 53  1  0
M  END
$$$$
