
     RDKit          3D

 56 61  0  0  0  0  0  0  0  0999 V2000
    8.2689   -2.0496   -0.7133 C   0  0  0  0  0  0  0  0  0  0  0  0
    7.4640   -1.8150   -1.8534 O   0  0  0  0  0  0  0  0  0  0  0  0
    6.1572   -1.3581   -1.6192 C   0  0  0  0  0  0  0  0  0  0  0  0
    5.6699   -1.1445   -0.3433 C   0  0  0  0  0  0  0  0  0  0  0  0
    4.3903   -0.6963   -0.0889 C   0  0  0  0  0  0  0  0  0  0  0  0
    3.5485   -0.4458   -1.1415 C   0  0  0  0  0  0  0  0  0  0  0  0
    2.2390    0.0009   -1.2124 C   0  0  0  0  0  0  0  0  0  0  0  0
    1.3681    0.3392   -0.1223 N   0  0  0  0  0  0  0  0  0  0  0  0
    0.2790   -0.3105    0.2663 C   0  0  0  0  0  0  0  0  0  0  0  0
   -0.1459   -1.3685   -0.3130 O   0  0  0  0  0  0  0  0  0  0  0  0
   -0.2710    0.3040    1.3188 N   0  0  0  0  0  0  0  0  0  0  0  0
   -1.4450   -0.0888    2.0181 C   0  0  0  0  0  0  0  0  0  0  0  0
   -2.6688    0.5219    1.4452 C   0  0  0  0  0  0  0  0  0  0  0  0
   -3.1817    1.7249    1.8556 C   0  0  0  0  0  0  0  0  0  0  0  0
   -4.3339    2.2464    1.2790 C   0  0  0  0  0  0  0  0  0  0  0  0
   -4.9874    1.5503    0.2705 C   0  0  0  0  0  0  0  0  0  0  0  0
   -4.4797    0.3347   -0.1526 C   0  0  0  0  0  0  0  0  0  0  0  0
   -5.1343   -0.4586   -1.2286 C   0  0  1  0  0  0  0  0  0  0  0  0
   -4.7543    0.0605   -2.5869 C   0  0  0  0  0  0  0  0  0  0  0  0
   -4.7903   -1.8390   -1.0672 O   0  0  0  0  0  0  0  0  0  0  0  0
   -5.7432   -2.3848   -0.2286 C   0  0  0  0  0  0  0  0  0  0  0  0
   -5.5609   -3.5912    0.4647 O   0  0  0  0  0  0  0  0  0  0  0  0
   -6.8031   -1.6527   -0.1678 N   0  0  0  0  0  0  0  0  0  0  0  0
   -6.6024   -0.5056   -1.0166 C   0  0  0  0  0  0  0  0  0  0  0  0
   -7.4419    0.2873   -1.4847 O   0  0  0  0  0  0  0  0  0  0  0  0
   -3.3416   -0.1502    0.4376 C   0  0  0  0  0  0  0  0  0  0  0  0
    0.4890    1.3880    1.6207 C   0  0  0  0  0  0  0  0  0  0  0  0
    0.4029    2.3598    2.5815 C   0  0  0  0  0  0  0  0  0  0  0  0
    1.3437    3.3535    2.6395 C   0  0  0  0  0  0  0  0  0  0  0  0
    2.3659    3.3461    1.7139 C   0  0  0  0  0  0  0  0  0  0  0  0
    2.4908    2.3915    0.7338 C   0  0  0  0  0  0  0  0  0  0  0  0
    1.5167    1.4082    0.7154 C   0  0  0  0  0  0  0  0  0  0  0  0
    1.9754    0.0430   -2.5364 N   0  0  0  0  0  0  0  0  0  0  0  0
    3.0014   -0.3337   -3.2150 O   0  0  0  0  0  0  0  0  0  0  0  0
    4.0225   -0.6551   -2.4233 C   0  0  0  0  0  0  0  0  0  0  0  0
    5.3023   -1.1035   -2.6800 C   0  0  0  0  0  0  0  0  0  0  0  0
    7.6858   -2.7738   -0.0786 H   0  0  0  0  0  0  0  0  0  0  0  0
    9.2610   -2.4273   -0.9557 H   0  0  0  0  0  0  0  0  0  0  0  0
    8.2990   -1.1117   -0.0896 H   0  0  0  0  0  0  0  0  0  0  0  0
    6.3399   -1.3443    0.4800 H   0  0  0  0  0  0  0  0  0  0  0  0
    4.0245   -0.5339    0.9267 H   0  0  0  0  0  0  0  0  0  0  0  0
   -1.4080    0.1380    3.1109 H   0  0  0  0  0  0  0  0  0  0  0  0
   -1.5906   -1.2011    1.9637 H   0  0  0  0  0  0  0  0  0  0  0  0
   -2.7000    2.2825    2.6298 H   0  0  0  0  0  0  0  0  0  0  0  0
   -4.7324    3.1942    1.6066 H   0  0  0  0  0  0  0  0  0  0  0  0
   -5.8958    1.9455   -0.1949 H   0  0  0  0  0  0  0  0  0  0  0  0
   -3.8025    0.6482   -2.4571 H   0  0  0  0  0  0  0  0  0  0  0  0
   -4.5001   -0.7402   -3.3065 H   0  0  0  0  0  0  0  0  0  0  0  0
   -5.4875    0.7926   -2.9868 H   0  0  0  0  0  0  0  0  0  0  0  0
   -6.0696   -3.7916    1.3093 H   0  0  0  0  0  0  0  0  0  0  0  0
   -2.9554   -1.1073    0.0933 H   0  0  0  0  0  0  0  0  0  0  0  0
   -0.4040    2.3654    3.3127 H   0  0  0  0  0  0  0  0  0  0  0  0
    1.3039    4.1468    3.3964 H   0  0  0  0  0  0  0  0  0  0  0  0
    3.1123    4.1444    1.7688 H   0  0  0  0  0  0  0  0  0  0  0  0
    3.2663    2.3535    0.0023 H   0  0  0  0  0  0  0  0  0  0  0  0
    5.6430   -1.2575   -3.6969 H   0  0  0  0  0  0  0  0  0  0  0  0
  1  2  1  0
  2  3  1  0
  3  4  2  0
  4  5  1  0
  5  6  2  0
  6  7  1  0
  7  8  1  0
  8  9  1  0
  9 10  2  0
  9 11  1  0
 11 12  1  0
 12 13  1  0
 13 14  2  0
 14 15  1  0
 15 16  2  0
 16 17  1  0
 17 18  1  0
 18 19  1  6
 18 20  1  0
 20 21  1  0
 21 22  1  0
 21 23  2  0
 23 24  1  0
 24 25  2  0
 17 26  2  0
 11 27  1  0
 27 28  2  0
 28 29  1  0
 29 30  2  0
 30 31  1  0
 31 32  2  0
  7 33  2  0
 33 34  1  0
 34 35  1  0
 35 36  2  0
 36  3  1  0
 35  6  1  0
 32  8  1  0
 26 13  1  0
 32 27  1  0
 24 18  1  0
  1 37  1  0
  1 38  1  0
  1 39  1  0
  4 40  1  0
  5 41  1  0
 12 42  1  0
 12 43  1  0
 14 44  1  0
 15 45  1  0
 16 46  1  0
 19 47  1  0
 19 48  1  0
 19 49  1  0
 22 50  1  0
 26 51  1  0
 28 52  1  0
 29 53  1  0
 30 54  1  0
 31 55  1  0
 36 56  1  0
M  END
$$$$
