
     RDKit          3D

 65 67  0  0  0  0  0  0  0  0999 V2000
   -2.0386    5.0947    1.1661 C   0  0  0  0  0  0  0  0  0  0  0  0
   -1.2069    3.8567    1.4878 C   0  0  0  0  0  0  0  0  0  0  0  0
   -1.6871    2.7229    0.5549 C   0  0  0  0  0  0  0  0  0  0  0  0
   -0.8287    1.5445    0.9272 C   0  0  0  0  0  0  0  0  0  0  0  0
   -1.0715    0.3440    0.1659 N   0  0  0  0  0  0  0  0  0  0  0  0
   -2.0701   -0.6174    0.5112 C   0  0  0  0  0  0  0  0  0  0  0  0
   -1.7129   -1.6151    1.4249 C   0  0  0  0  0  0  0  0  0  0  0  0
   -2.6294   -2.5571    1.8195 C   0  0  0  0  0  0  0  0  0  0  0  0
   -3.9144   -2.5500    1.3340 C   0  0  0  0  0  0  0  0  0  0  0  0
   -4.2874   -1.5778    0.4338 C   0  0  0  0  0  0  0  0  0  0  0  0
   -5.6579   -1.6025   -0.0540 C   0  0  0  0  0  0  0  0  0  0  0  0
   -6.4473   -0.4757   -0.1223 C   0  0  0  0  0  0  0  0  0  0  0  0
   -7.7344   -0.5281   -0.5885 C   0  0  0  0  0  0  0  0  0  0  0  0
   -8.2941   -1.7130   -1.0093 C   0  0  0  0  0  0  0  0  0  0  0  0
   -9.9570   -1.7734   -1.6102 Cl  0  0  0  0  0  0  0  0  0  0  0  0
   -7.5227   -2.8523   -0.9496 C   0  0  0  0  0  0  0  0  0  0  0  0
   -6.2394   -2.7788   -0.4809 C   0  0  0  0  0  0  0  0  0  0  0  0
   -3.3502   -0.6368    0.0471 C   0  0  0  0  0  0  0  0  0  0  0  0
   -3.8494    0.5606   -1.1265 Cl  0  0  0  0  0  0  0  0  0  0  0  0
   -0.0322    0.1026   -1.1897 S   0  0  0  0  0  6  0  0  0  0  0  0
   -0.2519    1.2761   -2.1242 O   0  0  0  0  0  0  0  0  0  0  0  0
   -0.5529   -1.1120   -1.9381 O   0  0  0  0  0  0  0  0  0  0  0  0
    1.6356   -0.0688   -0.7889 C   0  0  0  0  0  0  0  0  0  0  0  0
    2.1178   -0.1391    0.4885 C   0  0  0  0  0  0  0  0  0  0  0  0
    3.4790   -0.3002    0.7878 C   0  0  0  0  0  0  0  0  0  0  0  0
    4.3895   -0.3948   -0.2338 C   0  0  0  0  0  0  0  0  0  0  0  0
    5.7277   -0.5526    0.0089 O   0  0  0  0  0  0  0  0  0  0  0  0
    6.3894   -0.6424    1.2335 C   0  0  0  0  0  0  0  0  0  0  0  0
    7.1201   -1.9673    1.3763 C   0  0  0  0  0  0  0  0  0  0  0  0
    7.4469    0.4215    1.2788 C   0  0  0  0  0  0  0  0  0  0  0  0
    8.1705    0.5282    2.2942 O   0  0  0  0  0  0  0  0  0  0  0  0
    7.6476    1.2922    0.2278 O   0  0  0  0  0  0  0  0  0  0  0  0
    3.9143   -0.3255   -1.5572 C   0  0  0  0  0  0  0  0  0  0  0  0
    4.8872   -0.4267   -2.6777 C   0  0  0  0  0  0  0  0  0  0  0  0
    2.5696   -0.1665   -1.8011 C   0  0  0  0  0  0  0  0  0  0  0  0
    2.0844   -0.0953   -3.2036 C   0  0  0  0  0  0  0  0  0  0  0  0
   -1.8633    5.4278    0.1245 H   0  0  0  0  0  0  0  0  0  0  0  0
   -1.7949    5.8692    1.9170 H   0  0  0  0  0  0  0  0  0  0  0  0
   -3.0970    4.7737    1.2408 H   0  0  0  0  0  0  0  0  0  0  0  0
   -1.3608    3.5917    2.5372 H   0  0  0  0  0  0  0  0  0  0  0  0
   -0.1585    4.1226    1.2403 H   0  0  0  0  0  0  0  0  0  0  0  0
   -2.7496    2.5205    0.7432 H   0  0  0  0  0  0  0  0  0  0  0  0
   -1.4626    3.0159   -0.4828 H   0  0  0  0  0  0  0  0  0  0  0  0
   -0.9655    1.2686    2.0061 H   0  0  0  0  0  0  0  0  0  0  0  0
    0.2370    1.8236    0.8034 H   0  0  0  0  0  0  0  0  0  0  0  0
   -0.6952   -1.6196    1.8084 H   0  0  0  0  0  0  0  0  0  0  0  0
   -2.3638   -3.3255    2.5196 H   0  0  0  0  0  0  0  0  0  0  0  0
   -4.6404   -3.3084    1.6566 H   0  0  0  0  0  0  0  0  0  0  0  0
   -6.0023    0.4700    0.2150 H   0  0  0  0  0  0  0  0  0  0  0  0
   -8.3393    0.3769   -0.6331 H   0  0  0  0  0  0  0  0  0  0  0  0
   -7.9956   -3.7750   -1.2904 H   0  0  0  0  0  0  0  0  0  0  0  0
   -5.6366   -3.6723   -0.4349 H   0  0  0  0  0  0  0  0  0  0  0  0
    1.4274   -0.0834    1.3269 H   0  0  0  0  0  0  0  0  0  0  0  0
    3.7804   -0.3466    1.8465 H   0  0  0  0  0  0  0  0  0  0  0  0
    5.7250   -0.5749    2.1082 H   0  0  0  0  0  0  0  0  0  0  0  0
    7.9930   -1.7993    2.0208 H   0  0  0  0  0  0  0  0  0  0  0  0
    7.4668   -2.3688    0.4201 H   0  0  0  0  0  0  0  0  0  0  0  0
    6.4677   -2.6963    1.9346 H   0  0  0  0  0  0  0  0  0  0  0  0
    8.6004    1.5988   -0.0071 H   0  0  0  0  0  0  0  0  0  0  0  0
    4.7085   -1.3404   -3.2754 H   0  0  0  0  0  0  0  0  0  0  0  0
    5.9160   -0.3261   -2.3316 H   0  0  0  0  0  0  0  0  0  0  0  0
    4.7039    0.4312   -3.3790 H   0  0  0  0  0  0  0  0  0  0  0  0
    1.3177   -0.9067   -3.3622 H   0  0  0  0  0  0  0  0  0  0  0  0
    2.8865   -0.3110   -3.9341 H   0  0  0  0  0  0  0  0  0  0  0  0
    1.6522    0.8887   -3.4514 H   0  0  0  0  0  0  0  0  0  0  0  0
  1  2  1  0
  2  3  1  0
  3  4  1  0
  4  5  1  0
  5  6  1  0
  6  7  2  0
  7  8  1  0
  8  9  2  0
  9 10  1  0
 10 11  1  0
 11 12  2  0
 12 13  1  0
 13 14  2  0
 14 15  1  0
 14 16  1  0
 16 17  2  0
 10 18  2  0
 18 19  1  0
  5 20  1  0
 20 21  2  0
 20 22  2  0
 20 23  1  0
 23 24  2  0
 24 25  1  0
 25 26  2  0
 26 27  1  0
 27 28  1  0
 28 29  1  0
 28 30  1  0
 30 31  2  0
 30 32  1  0
 26 33  1  0
 33 34  1  0
 33 35  2  0
 35 36  1  0
 18  6  1  0
 35 23  1  0
 17 11  1  0
  1 37  1  0
  1 38  1  0
  1 39  1  0
  2 40  1  0
  2 41  1  0
  3 42  1  0
  3 43  1  0
  4 44  1  0
  4 45  1  0
  7 46  1  0
  8 47  1  0
  9 48  1  0
 12 49  1  0
 13 50  1  0
 16 51  1  0
 17 52  1  0
 24 53  1  0
 25 54  1  0
 28 55  1  0
 29 56  1  0
 29 57  1  0
 29 58  1  0
 32 59  1  0
 34 60  1  0
 34 61  1  0
 34 62  1  0
 36 63  1  0
 36 64  1  0
 36 65  1  0
M  END
$$$$
