
     RDKit          3D

 81 82  0  0  0  0  0  0  0  0999 V2000
    0.0000    0.0000    0.0000 Cl  0  0  0  0  0 15  0  0  0  0  0  0
    0.0000    0.0000    0.0000 Cl  0  0  0  0  0 15  0  0  0  0  0  0
    0.0000    0.0000    0.0000 Sn  0  0  0  0  0 15  0  0  0  0  0  0
   -5.9750    3.1536   -1.2762 C   0  0  0  0  0  0  0  0  0  0  0  0
   -5.5733    3.0289    0.1528 C   0  0  0  0  0  0  0  0  0  0  0  0
   -4.1514    2.5849    0.3355 C   0  0  0  0  0  0  0  0  0  0  0  0
   -3.6405    1.3128    0.1808 C   0  0  0  0  0  0  0  0  0  0  0  0
   -2.3279    1.3882    0.4448 N   0  0  0  0  0  2  0  0  0  0  0  0
   -1.9947    2.6545    0.7588 C   0  0  0  0  0  0  0  0  0  0  0  0
   -0.7389    3.1018    1.0878 C   0  0  0  0  0  0  0  0  0  0  0  0
    0.4768    2.6634    0.6133 C   0  0  0  0  0  0  0  0  0  0  0  0
    0.8549    1.3940    0.6094 N   0  0  0  0  0  0  0  0  0  0  0  0
    2.0812    1.3405    0.0827 C   0  0  0  0  0  0  0  0  0  0  0  0
    2.6562    0.1098   -0.0229 C   0  0  0  0  0  0  0  0  0  0  0  0
    1.9960   -1.1087   -0.1121 C   0  0  0  0  0  0  0  0  0  0  0  0
    0.7455   -1.2277   -0.5445 N   0  0  0  0  0  2  0  0  0  0  0  0
    0.4252   -2.5316   -0.5047 C   0  0  0  0  0  0  0  0  0  0  0  0
   -0.7976   -3.0537   -0.8822 C   0  0  0  0  0  0  0  0  0  0  0  0
   -2.0649   -2.5513   -0.6240 C   0  0  0  0  0  0  0  0  0  0  0  0
   -2.3195   -1.2219   -0.5621 N   0  0  0  0  0  0  0  0  0  0  0  0
   -3.6114   -1.0753   -0.3037 C   0  0  0  0  0  0  0  0  0  0  0  0
   -4.2564    0.1343   -0.1684 C   0  0  0  0  0  0  0  0  0  0  0  0
   -4.2483   -2.4038   -0.1876 C   0  0  0  0  0  0  0  0  0  0  0  0
   -5.6693   -2.7257    0.0951 C   0  0  0  0  0  0  0  0  0  0  0  0
   -3.2925   -3.2958   -0.3858 C   0  0  0  0  0  0  0  0  0  0  0  0
   -3.5100   -4.7660   -0.3614 C   0  0  0  0  0  0  0  0  0  0  0  0
   -2.6851   -5.4318    0.7182 C   0  0  0  0  0  0  0  0  0  0  0  0
    1.4955   -3.2779   -0.0344 C   0  0  0  0  0  0  0  0  0  0  0  0
    1.6801   -4.7334    0.1997 C   0  0  0  0  0  0  0  0  0  0  0  0
    2.5125   -2.3662    0.2212 C   0  0  0  0  0  0  0  0  0  0  0  0
    3.8704   -2.6806    0.7355 C   0  0  0  0  0  0  0  0  0  0  0  0
    4.9266   -2.6621   -0.3221 C   0  0  0  0  0  0  0  0  0  0  0  0
    6.2333   -2.9958    0.3404 C   0  0  0  0  0  0  0  0  0  0  0  0
    6.8381   -4.2565    0.1945 O   0  0  0  0  0  0  0  0  0  0  0  0
    6.8673   -2.1927    1.0572 O   0  0  0  0  0  0  0  0  0  0  0  0
    2.5700    2.6605   -0.2957 C   0  0  0  0  0  0  0  0  0  0  0  0
    3.8385    3.1163   -0.9159 C   0  0  0  0  0  0  0  0  0  0  0  0
    5.0552    2.9088   -0.0678 C   0  0  0  0  0  0  0  0  0  0  0  0
    6.2800    3.4177   -0.7908 C   0  0  0  0  0  0  0  0  0  0  0  0
    7.4149    3.2257   -0.0172 O   0  0  0  0  0  0  0  0  0  0  0  0
    6.5047    3.9640   -1.9100 O   0  0  0  0  0  0  0  0  0  0  0  0
    1.5484    3.4709    0.0454 C   0  0  0  0  0  0  0  0  0  0  0  0
    1.5578    4.9466   -0.1480 C   0  0  0  0  0  0  0  0  0  0  0  0
   -3.1318    3.4410    0.6981 C   0  0  0  0  0  0  0  0  0  0  0  0
   -3.2873    4.8996    0.9581 C   0  0  0  0  0  0  0  0  0  0  0  0
   -6.3208    4.2141   -1.4072 H   0  0  0  0  0  0  0  0  0  0  0  0
   -5.2208    2.8716   -2.0138 H   0  0  0  0  0  0  0  0  0  0  0  0
   -6.8922    2.5382   -1.4944 H   0  0  0  0  0  0  0  0  0  0  0  0
   -5.7526    3.9429    0.7720 H   0  0  0  0  0  0  0  0  0  0  0  0
   -6.2171    2.2466    0.6306 H   0  0  0  0  0  0  0  0  0  0  0  0
   -0.6308    3.9143    1.8220 H   0  0  0  0  0  0  0  0  0  0  0  0
    3.7263    0.0917   -0.0397 H   0  0  0  0  0  0  0  0  0  0  0  0
   -0.7684   -3.9905   -1.4671 H   0  0  0  0  0  0  0  0  0  0  0  0
   -5.3424    0.1874   -0.3502 H   0  0  0  0  0  0  0  0  0  0  0  0
   -6.2348   -2.8371   -0.8601 H   0  0  0  0  0  0  0  0  0  0  0  0
   -5.7657   -3.6291    0.7263 H   0  0  0  0  0  0  0  0  0  0  0  0
   -6.1536   -1.8711    0.6352 H   0  0  0  0  0  0  0  0  0  0  0  0
   -3.1942   -5.1779   -1.3428 H   0  0  0  0  0  0  0  0  0  0  0  0
   -4.5723   -5.0145   -0.1679 H   0  0  0  0  0  0  0  0  0  0  0  0
   -3.0939   -6.4333    0.9784 H   0  0  0  0  0  0  0  0  0  0  0  0
   -1.6113   -5.4377    0.5267 H   0  0  0  0  0  0  0  0  0  0  0  0
   -2.8526   -4.8222    1.6519 H   0  0  0  0  0  0  0  0  0  0  0  0
    0.7358   -5.2673    0.1472 H   0  0  0  0  0  0  0  0  0  0  0  0
    2.4645   -5.0909   -0.5019 H   0  0  0  0  0  0  0  0  0  0  0  0
    2.1031   -4.8879    1.2161 H   0  0  0  0  0  0  0  0  0  0  0  0
    3.8475   -3.7053    1.1585 H   0  0  0  0  0  0  0  0  0  0  0  0
    4.1629   -2.0027    1.5535 H   0  0  0  0  0  0  0  0  0  0  0  0
    5.0850   -1.7003   -0.8255 H   0  0  0  0  0  0  0  0  0  0  0  0
    4.7685   -3.4701   -1.0819 H   0  0  0  0  0  0  0  0  0  0  0  0
    7.6124   -4.5328    0.7738 H   0  0  0  0  0  0  0  0  0  0  0  0
    3.9536    2.6137   -1.9209 H   0  0  0  0  0  0  0  0  0  0  0  0
    3.7551    4.2066   -1.1154 H   0  0  0  0  0  0  0  0  0  0  0  0
    5.2397    1.8312    0.0609 H   0  0  0  0  0  0  0  0  0  0  0  0
    4.9770    3.3713    0.9277 H   0  0  0  0  0  0  0  0  0  0  0  0
    8.2715    3.7746   -0.1947 H   0  0  0  0  0  0  0  0  0  0  0  0
    0.6436    5.3771    0.2994 H   0  0  0  0  0  0  0  0  0  0  0  0
    1.6655    5.1489   -1.2324 H   0  0  0  0  0  0  0  0  0  0  0  0
    2.4283    5.3938    0.4010 H   0  0  0  0  0  0  0  0  0  0  0  0
   -2.3429    5.4082    0.7128 H   0  0  0  0  0  0  0  0  0  0  0  0
   -3.5570    5.0379    2.0214 H   0  0  0  0  0  0  0  0  0  0  0  0
   -4.0702    5.3411    0.2861 H   0  0  0  0  0  0  0  0  0  0  0  0
  4  5  1  0
  5  6  1  0
  6  7  2  0
  7  8  1  0
  8  9  1  0
  9 10  1  0
 10 11  2  0
 11 12  1  0
 12 13  2  0
 13 14  1  0
 14 15  2  0
 15 16  1  0
 16 17  1  0
 17 18  2  0
 18 19  1  0
 19 20  2  0
 20 21  1  0
 21 22  2  0
 21 23  1  0
 23 24  1  0
 23 25  2  0
 25 26  1  0
 26 27  1  0
 17 28  1  0
 28 29  1  0
 28 30  2  0
 30 31  1  0
 31 32  1  0
 32 33  1  0
 33 34  1  0
 33 35  2  0
 13 36  1  0
 36 37  1  0
 37 38  1  0
 38 39  1  0
 39 40  1  0
 39 41  2  0
 36 42  2  0
 42 43  1  0
  9 44  2  0
 44 45  1  0
 44  6  1  0
 22  7  1  0
 42 11  1  0
 30 15  1  0
 25 19  1  0
  4 46  1  0
  4 47  1  0
  4 48  1  0
  5 49  1  0
  5 50  1  0
 10 51  1  0
 14 52  1  0
 18 53  1  0
 22 54  1  0
 24 55  1  0
 24 56  1  0
 24 57  1  0
 26 58  1  0
 26 59  1  0
 27 60  1  0
 27 61  1  0
 27 62  1  0
 29 63  1  0
 29 64  1  0
 29 65  1  0
 31 66  1  0
 31 67  1  0
 32 68  1  0
 32 69  1  0
 34 70  1  0
 37 71  1  0
 37 72  1  0
 38 73  1  0
 38 74  1  0
 40 75  1  0
 43 76  1  0
 43 77  1  0
 43 78  1  0
 45 79  1  0
 45 80  1  0
 45 81  1  0
M  CHG  5   1  -1   2  -1   3   4   8  -1  16  -1
M  END
$$$$
