
     RDKit          3D

 35 38  0  0  0  0  0  0  0  0999 V2000
    5.9704    0.7374   -1.0703 O   0  0  0  0  0  0  0  0  0  0  0  0
    4.9024    0.2278   -0.6980 C   0  0  0  0  0  0  0  0  0  0  0  0
    4.6988   -0.0728    0.7463 C   0  0  0  0  0  0  0  0  0  0  0  0
    3.3614    0.3546    1.2014 C   0  0  0  0  0  0  0  0  0  0  0  0
    2.2930   -0.0252    0.2649 C   0  0  0  0  0  0  0  0  0  0  0  0
    0.9769   -0.1839    0.7670 C   0  0  0  0  0  0  0  0  0  0  0  0
   -0.0762   -0.5093   -0.0494 C   0  0  0  0  0  0  0  0  0  0  0  0
   -1.3867   -0.6841    0.5443 C   0  0  0  0  0  0  0  0  0  0  0  0
   -1.6121   -1.6002    1.5514 C   0  0  0  0  0  0  0  0  0  0  0  0
   -2.8487   -1.7839    2.0752 N   0  0  0  0  0  0  0  0  0  0  0  0
   -3.9116   -1.0885    1.6445 C   0  0  0  0  0  0  0  0  0  0  0  0
   -3.7321   -0.1616    0.6400 C   0  0  0  0  0  0  0  0  0  0  0  0
   -4.8093    0.5610    0.2005 C   0  0  0  0  0  0  0  0  0  0  0  0
   -4.6649    1.4971   -0.7869 C   0  0  0  0  0  0  0  0  0  0  0  0
   -3.4270    1.7150   -1.3432 C   0  0  0  0  0  0  0  0  0  0  0  0
   -2.3206    0.9778   -0.8972 C   0  0  0  0  0  0  0  0  0  0  0  0
   -2.4710    0.0299    0.1019 C   0  0  0  0  0  0  0  0  0  0  0  0
    0.2031   -0.6774   -1.3912 C   0  0  0  0  0  0  0  0  0  0  0  0
    1.4657   -0.5312   -1.9074 C   0  0  0  0  0  0  0  0  0  0  0  0
    2.5431   -0.1977   -1.0671 C   0  0  0  0  0  0  0  0  0  0  0  0
    3.8508   -0.0819   -1.6301 N   0  0  0  0  0  0  0  0  0  0  0  0
    4.7760   -1.1869    0.9271 H   0  0  0  0  0  0  0  0  0  0  0  0
    5.4896    0.4610    1.3095 H   0  0  0  0  0  0  0  0  0  0  0  0
    3.2693    1.4610    1.3549 H   0  0  0  0  0  0  0  0  0  0  0  0
    3.1091   -0.0846    2.1916 H   0  0  0  0  0  0  0  0  0  0  0  0
    0.8323   -0.0341    1.8480 H   0  0  0  0  0  0  0  0  0  0  0  0
   -0.7470   -2.1652    1.9012 H   0  0  0  0  0  0  0  0  0  0  0  0
   -4.9060   -1.2443    2.0731 H   0  0  0  0  0  0  0  0  0  0  0  0
   -5.8097    0.4105    0.6245 H   0  0  0  0  0  0  0  0  0  0  0  0
   -5.5260    2.0856   -1.1497 H   0  0  0  0  0  0  0  0  0  0  0  0
   -3.2853    2.4468   -2.1222 H   0  0  0  0  0  0  0  0  0  0  0  0
   -1.3462    1.1603   -1.3260 H   0  0  0  0  0  0  0  0  0  0  0  0
   -0.5992   -0.9417   -2.0529 H   0  0  0  0  0  0  0  0  0  0  0  0
    1.6977   -0.6615   -2.9669 H   0  0  0  0  0  0  0  0  0  0  0  0
    4.0402   -0.2102   -2.6432 H   0  0  0  0  0  0  0  0  0  0  0  0
  1  2  2  0
  2  3  1  0
  3  4  1  0
  4  5  1  0
  5  6  2  0
  6  7  1  0
  7  8  1  0
  8  9  2  0
  9 10  1  0
 10 11  2  0
 11 12  1  0
 12 13  2  0
 13 14  1  0
 14 15  2  0
 15 16  1  0
 16 17  2  0
  7 18  2  0
 18 19  1  0
 19 20  2  0
 20 21  1  0
 21  2  1  0
 20  5  1  0
 17  8  1  0
 17 12  1  0
  3 22  1  0
  3 23  1  0
  4 24  1  0
  4 25  1  0
  6 26  1  0
  9 27  1  0
 11 28  1  0
 13 29  1  0
 14 30  1  0
 15 31  1  0
 16 32  1  0
 18 33  1  0
 19 34  1  0
 21 35  1  0
M  END
$$$$
