
     RDKit          3D

 57 60  0  0  0  0  0  0  0  0999 V2000
    8.9590    1.0291   -0.7478 C   0  0  0  0  0  0  0  0  0  0  0  0
    8.1201    0.8131    0.3783 O   0  0  0  0  0  0  0  0  0  0  0  0
    6.8294    0.3519    0.1639 C   0  0  0  0  0  0  0  0  0  0  0  0
    6.3301    0.0963   -1.0888 C   0  0  0  0  0  0  0  0  0  0  0  0
    5.0660   -0.3593   -1.3546 C   0  0  0  0  0  0  0  0  0  0  0  0
    4.2238   -0.5789   -0.2592 C   0  0  0  0  0  0  0  0  0  0  0  0
    2.9061   -1.1128   -0.5091 C   0  0  0  0  0  0  0  0  0  0  0  0
    2.8286   -1.9233   -1.5199 O   0  0  0  0  0  0  0  0  0  0  0  0
    1.7082   -0.8354    0.2476 C   0  0  0  0  0  0  0  0  0  0  0  0
    0.6057   -1.7039    0.3667 C   0  0  0  0  0  0  0  0  0  0  0  0
    0.6573   -3.0637   -0.2680 C   0  0  0  0  0  0  0  0  0  0  0  0
   -0.3539   -1.1447    1.0968 N   0  0  0  0  0  0  0  0  0  0  0  0
   -1.6455   -1.6962    1.4254 C   0  0  0  0  0  0  0  0  0  0  0  0
   -2.7559   -1.2875    0.5604 C   0  0  0  0  0  0  0  0  0  0  0  0
   -3.5833   -0.2536    1.0271 C   0  0  0  0  0  0  0  0  0  0  0  0
   -4.6477    0.2251    0.2831 C   0  0  0  0  0  0  0  0  0  0  0  0
   -5.4473    1.2460    0.7675 O   0  0  0  0  0  0  0  0  0  0  0  0
   -6.5433    1.7657    0.0639 C   0  0  1  0  0  0  0  0  0  0  0  0
   -6.2304    2.4080   -1.2384 C   0  0  0  0  0  0  0  0  0  0  0  0
   -7.6115    0.7301   -0.1480 C   0  0  0  0  0  0  0  0  0  0  0  0
   -8.6467    0.9754   -0.8000 O   0  0  0  0  0  0  0  0  0  0  0  0
   -7.4840   -0.5435    0.3793 O   0  0  0  0  0  0  0  0  0  0  0  0
   -4.8561   -0.3660   -0.9439 C   0  0  0  0  0  0  0  0  0  0  0  0
   -4.0645   -1.3791   -1.4272 C   0  0  0  0  0  0  0  0  0  0  0  0
   -2.9975   -1.8474   -0.6624 C   0  0  0  0  0  0  0  0  0  0  0  0
   -2.2429   -2.8759   -1.1776 F   0  0  0  0  0  0  0  0  0  0  0  0
    0.0944    0.1025    1.4748 C   0  0  0  0  0  0  0  0  0  0  0  0
   -0.4959    1.0654    2.2031 N   0  0  0  0  0  0  0  0  0  0  0  0
    0.0966    2.2465    2.4592 C   0  0  0  0  0  0  0  0  0  0  0  0
    1.3570    2.4826    1.9569 C   0  0  0  0  0  0  0  0  0  0  0  0
    1.9744    1.5038    1.2085 C   0  0  0  0  0  0  0  0  0  0  0  0
    1.3610    0.2865    0.9487 C   0  0  0  0  0  0  0  0  0  0  0  0
    4.7078   -0.3266    1.0232 C   0  0  0  0  0  0  0  0  0  0  0  0
    5.9877    0.1312    1.2406 C   0  0  0  0  0  0  0  0  0  0  0  0
    8.4002    1.7067   -1.4281 H   0  0  0  0  0  0  0  0  0  0  0  0
    9.0699    0.0671   -1.2890 H   0  0  0  0  0  0  0  0  0  0  0  0
    9.9309    1.4612   -0.4436 H   0  0  0  0  0  0  0  0  0  0  0  0
    6.9967    0.2726   -1.9238 H   0  0  0  0  0  0  0  0  0  0  0  0
    4.7065   -0.5502   -2.3550 H   0  0  0  0  0  0  0  0  0  0  0  0
    1.6498   -3.5321   -0.0912 H   0  0  0  0  0  0  0  0  0  0  0  0
   -0.0895   -3.7146    0.2102 H   0  0  0  0  0  0  0  0  0  0  0  0
    0.4484   -3.0251   -1.3429 H   0  0  0  0  0  0  0  0  0  0  0  0
   -1.8373   -1.4500    2.4987 H   0  0  0  0  0  0  0  0  0  0  0  0
   -1.5479   -2.8217    1.4233 H   0  0  0  0  0  0  0  0  0  0  0  0
   -3.3910    0.1971    2.0101 H   0  0  0  0  0  0  0  0  0  0  0  0
   -7.0738    2.5485    0.6846 H   0  0  0  0  0  0  0  0  0  0  0  0
   -6.8709    2.0037   -2.0294 H   0  0  0  0  0  0  0  0  0  0  0  0
   -5.1698    2.3065   -1.5621 H   0  0  0  0  0  0  0  0  0  0  0  0
   -6.3662    3.5324   -1.1642 H   0  0  0  0  0  0  0  0  0  0  0  0
   -7.9614   -1.3418   -0.0571 H   0  0  0  0  0  0  0  0  0  0  0  0
   -5.6954   -0.0012   -1.5565 H   0  0  0  0  0  0  0  0  0  0  0  0
   -4.2628   -1.8241   -2.4089 H   0  0  0  0  0  0  0  0  0  0  0  0
   -0.3699    3.0292    3.0458 H   0  0  0  0  0  0  0  0  0  0  0  0
    1.8852    3.4209    2.1308 H   0  0  0  0  0  0  0  0  0  0  0  0
    2.9450    1.7270    0.8105 H   0  0  0  0  0  0  0  0  0  0  0  0
    4.0531   -0.4956    1.8882 H   0  0  0  0  0  0  0  0  0  0  0  0
    6.3438    0.3221    2.2637 H   0  0  0  0  0  0  0  0  0  0  0  0
  1  2  1  0
  2  3  1  0
  3  4  2  0
  4  5  1  0
  5  6  2  0
  6  7  1  0
  7  8  2  0
  7  9  1  0
  9 10  2  0
 10 11  1  0
 10 12  1  0
 12 13  1  0
 13 14  1  0
 14 15  2  0
 15 16  1  0
 16 17  1  0
 17 18  1  0
 18 19  1  0
 18 20  1  0
 20 21  2  0
 20 22  1  0
 16 23  2  0
 23 24  1  0
 24 25  2  0
 25 26  1  0
 12 27  1  0
 27 28  2  0
 28 29  1  0
 29 30  2  0
 30 31  1  0
 31 32  2  0
  6 33  1  0
 33 34  2  0
 34  3  1  0
 32  9  1  0
 25 14  1  0
 32 27  1  0
  1 35  1  0
  1 36  1  0
  1 37  1  0
  4 38  1  0
  5 39  1  0
 11 40  1  0
 11 41  1  0
 11 42  1  0
 13 43  1  0
 13 44  1  0
 15 45  1  0
 18 46  1  1
 19 47  1  0
 19 48  1  0
 19 49  1  0
 22 50  1  0
 23 51  1  0
 24 52  1  0
 29 53  1  0
 30 54  1  0
 31 55  1  0
 33 56  1  0
 34 57  1  0
M  END
$$$$
