
     RDKit          3D

 49 52  0  0  0  0  0  0  0  0999 V2000
    3.5764    1.3237   -0.4941 O   0  0  0  0  0  0  0  0  0  0  0  0
    4.3468    0.3563   -0.9089 C   0  0  0  0  0  0  0  0  0  0  0  0
    3.5988   -0.5290   -1.5267 O   0  0  0  0  0  0  0  0  0  0  0  0
    2.6886   -1.2102   -2.0479 C   0  0  0  0  0  0  0  0  0  0  0  0
    1.5041   -1.2041   -0.8541 C   0  0  0  0  0  0  0  0  0  0  0  0
    0.7538   -1.2041   -0.0937 C   0  0  0  0  0  0  0  0  0  0  0  0
   -0.2387   -1.2019    0.9268 C   0  0  0  0  0  0  0  0  0  0  0  0
   -0.8221    0.2692    1.6540 S   0  0  0  0  0  0  0  0  0  0  0  0
   -1.9005    1.3005    0.5740 C   0  0  0  0  0  0  0  0  0  0  0  0
   -2.5352    1.8889   -0.0507 N   0  0  0  0  0  0  0  0  0  0  0  0
   -3.6685    1.9239   -0.5959 N   0  0  0  0  0  0  0  0  0  0  0  0
   -4.0874    0.6293   -0.1024 C   0  0  0  0  0  0  0  0  0  0  0  0
   -5.2434   -0.1156   -0.2683 C   0  0  0  0  0  0  0  0  0  0  0  0
   -5.3994   -1.4604    0.0307 C   0  0  0  0  0  0  0  0  0  0  0  0
   -6.3279   -2.2546    0.1849 C   0  0  0  0  0  0  0  0  0  0  0  0
   -7.7747   -1.7150    0.0562 C   0  0  0  0  0  0  0  0  0  0  0  0
   -7.6034   -0.3372   -0.2543 C   0  0  0  0  0  0  0  0  0  0  0  0
   -8.9652    0.2213   -0.4528 C   0  0  0  0  0  0  0  0  0  0  0  0
   -8.9996    1.5495   -0.7959 C   0  0  0  0  0  0  0  0  0  0  0  0
   -7.9113    2.3531   -0.9564 C   0  0  0  0  0  0  0  0  0  0  0  0
   -6.5700    1.7742   -0.7619 C   0  0  0  0  0  0  0  0  0  0  0  0
   -6.6142    0.4360   -0.4112 C   0  0  0  0  0  0  0  0  0  0  0  0
   -3.0768    0.2436    0.5869 O   0  0  0  0  0  0  0  0  0  0  0  0
    5.7375    0.5088   -0.5787 C   0  0  0  0  0  0  0  0  0  0  0  0
    6.7253   -0.3387   -0.9050 C   0  0  0  0  0  0  0  0  0  0  0  0
    8.0940   -0.3129   -0.3673 C   0  0  0  0  0  0  0  0  0  0  0  0
    8.2989    0.7177    0.5530 C   0  0  0  0  0  0  0  0  0  0  0  0
    9.4900    0.8492    1.2149 O   0  0  0  0  0  0  0  0  0  0  0  0
    9.9416    0.3663    2.4445 C   0  0  0  0  0  0  0  0  0  0  0  0
   11.2992    0.6669    2.6206 F   0  0  0  0  0  0  0  0  0  0  0  0
    9.3090    1.0258    3.5555 F   0  0  0  0  0  0  0  0  0  0  0  0
    9.6640   -0.9891    2.5704 F   0  0  0  0  0  0  0  0  0  0  0  0
    7.3072    1.5508    0.8234 C   0  0  0  0  0  0  0  0  0  0  0  0
    5.9951    1.5982    0.3771 C   0  0  0  0  0  0  0  0  0  0  0  0
    2.8526   -2.3149   -2.0586 H   0  0  0  0  0  0  0  0  0  0  0  0
    2.0917   -0.8465   -2.8927 H   0  0  0  0  0  0  0  0  0  0  0  0
    0.1268   -1.9476    1.7243 H   0  0  0  0  0  0  0  0  0  0  0  0
   -1.1543   -1.7886    0.5172 H   0  0  0  0  0  0  0  0  0  0  0  0
   -4.3208   -1.9410    0.0362 H   0  0  0  0  0  0  0  0  0  0  0  0
   -6.3351   -3.3135    0.4134 H   0  0  0  0  0  0  0  0  0  0  0  0
   -8.5574   -2.3369    0.1854 H   0  0  0  0  0  0  0  0  0  0  0  0
   -9.8052   -0.4310   -0.3309 H   0  0  0  0  0  0  0  0  0  0  0  0
  -10.0065    1.9418   -1.0113 H   0  0  0  0  0  0  0  0  0  0  0  0
   -7.8743    3.3449   -1.2250 H   0  0  0  0  0  0  0  0  0  0  0  0
   -5.6759    2.3130   -0.8657 H   0  0  0  0  0  0  0  0  0  0  0  0
    6.4942   -1.1424   -1.6382 H   0  0  0  0  0  0  0  0  0  0  0  0
    8.7606   -1.0379   -0.6736 H   0  0  0  0  0  0  0  0  0  0  0  0
    7.5240    2.3558    1.5326 H   0  0  0  0  0  0  0  0  0  0  0  0
    5.2878    2.2825    0.5401 H   0  0  0  0  0  0  0  0  0  0  0  0
  1  2  2  0
  2  3  1  0
  3  4  1  0
  4  5  1  0
  5  6  3  0
  6  7  1  0
  7  8  1  0
  8  9  1  0
  9 10  2  0
 10 11  1  0
 11 12  2  0
 12 13  1  0
 13 14  2  0
 14 15  1  0
 15 16  2  0
 16 17  1  0
 17 18  2  0
 18 19  1  0
 19 20  2  0
 20 21  1  0
 21 22  2  0
 12 23  1  0
  2 24  1  0
 24 25  2  0
 25 26  1  0
 26 27  2  0
 27 28  1  0
 28 29  1  0
 29 30  1  0
 29 31  1  0
 29 32  1  0
 27 33  1  0
 33 34  2  0
 23  9  1  0
 34 24  1  0
 22 13  1  0
 22 17  1  0
  4 35  1  0
  4 36  1  0
  7 37  1  0
  7 38  1  0
 14 39  1  0
 15 40  1  0
 16 41  1  0
 18 42  1  0
 19 43  1  0
 20 44  1  0
 21 45  1  0
 25 46  1  0
 26 47  1  0
 33 48  1  0
 34 49  1  0
M  END
$$$$
