
     RDKit          3D

 30 31  0  0  0  0  0  0  0  0999 V2000
    4.2044    1.8599    0.4614 O   0  0  0  0  0  0  0  0  0  0  0  0
    4.3848    0.4829    0.3252 C   0  0  0  0  0  0  0  0  0  0  0  0
    4.9398    0.2036   -0.7679 O   0  0  0  0  0  0  0  0  0  0  0  0
    4.1491   -0.7894    1.0263 C   0  0  0  0  0  0  0  0  0  0  0  0
    3.3597   -1.7034    0.1106 C   0  0  0  0  0  0  0  0  0  0  0  0
    2.0353   -1.0743   -0.2394 C   0  0  0  0  0  0  0  0  0  0  0  0
    1.7998   -0.2570   -1.3411 C   0  0  0  0  0  0  0  0  0  0  0  0
    0.5414    0.2100   -1.4809 C   0  0  0  0  0  0  0  0  0  0  0  0
   -0.4131   -0.1356   -0.5556 C   0  0  0  0  0  0  0  0  0  0  0  0
    0.4546   -1.1489    0.5576 S   0  0  0  0  0  0  0  0  0  0  0  0
   -1.8149    0.2145   -0.4478 C   0  0  0  0  0  0  0  0  0  0  0  0
   -2.5438   -0.2505    0.6202 C   0  0  0  0  0  0  0  0  0  0  0  0
   -3.8632    0.1270    0.6419 C   0  0  0  0  0  0  0  0  0  0  0  0
   -4.4779    0.9217   -0.3209 C   0  0  0  0  0  0  0  0  0  0  0  0
   -3.7151    1.3735   -1.3851 C   0  0  0  0  0  0  0  0  0  0  0  0
   -2.4039    1.0012   -1.4094 C   0  0  0  0  0  0  0  0  0  0  0  0
   -4.7062   -0.2967    1.7046 N   0  0  0  0  0  4  0  0  0  0  0  0
   -4.4333   -1.0753    2.7983 O   0  0  0  0  0  1  0  0  0  0  0  0
   -5.9001   -0.0140    1.8236 O   0  0  0  0  0  0  0  0  0  0  0  0
    3.5728    2.2949   -0.2390 H   0  0  0  0  0  0  0  0  0  0  0  0
    5.1073   -1.3288    1.2221 H   0  0  0  0  0  0  0  0  0  0  0  0
    3.6564   -0.6386    1.9849 H   0  0  0  0  0  0  0  0  0  0  0  0
    3.1581   -2.6753    0.6167 H   0  0  0  0  0  0  0  0  0  0  0  0
    3.8753   -1.8451   -0.8357 H   0  0  0  0  0  0  0  0  0  0  0  0
    2.5785   -0.0097   -2.0540 H   0  0  0  0  0  0  0  0  0  0  0  0
    0.1949    0.8616   -2.2910 H   0  0  0  0  0  0  0  0  0  0  0  0
   -2.1532   -0.8734    1.4180 H   0  0  0  0  0  0  0  0  0  0  0  0
   -5.5215    1.1863   -0.2516 H   0  0  0  0  0  0  0  0  0  0  0  0
   -4.2079    1.9921   -2.1337 H   0  0  0  0  0  0  0  0  0  0  0  0
   -1.8580    1.3868   -2.2725 H   0  0  0  0  0  0  0  0  0  0  0  0
  1  2  1  0
  2  3  2  0
  2  4  1  0
  4  5  1  0
  5  6  1  0
  6  7  2  0
  7  8  1  0
  8  9  2  0
  9 10  1  0
  9 11  1  0
 11 12  2  0
 12 13  1  0
 13 14  2  0
 14 15  1  0
 15 16  2  0
 13 17  1  0
 17 18  1  0
 17 19  2  0
 10  6  1  0
 16 11  1  0
  1 20  1  0
  4 21  1  0
  4 22  1  0
  5 23  1  0
  5 24  1  0
  7 25  1  0
  8 26  1  0
 12 27  1  0
 14 28  1  0
 15 29  1  0
 16 30  1  0
M  CHG  2  17   1  18  -1
M  END
$$$$
