
     RDKit          3D

 52 57  0  0  0  0  0  0  0  0999 V2000
    4.4585    1.1136    2.7403 C   0  0  0  0  0  0  0  0  0  0  0  0
    3.7796    0.5241    1.5782 C   0  0  0  0  0  0  0  0  0  0  0  0
    2.4714    0.8753    1.3287 C   0  0  0  0  0  0  0  0  0  0  0  0
    1.7534    0.3815    0.2731 C   0  0  0  0  0  0  0  0  0  0  0  0
    0.4027    0.7210   -0.0233 N   0  0  0  0  0  0  0  0  0  0  0  0
   -0.4308    1.6309    0.6834 C   0  0  0  0  0  0  0  0  0  0  0  0
   -0.1487    2.3091    1.7202 O   0  0  0  0  0  0  0  0  0  0  0  0
   -1.7566    1.7375    0.0727 C   0  0  0  0  0  0  0  0  0  0  0  0
   -2.9915    2.3529    0.1569 C   0  0  0  0  0  0  0  0  0  0  0  0
   -3.4328    3.3403    1.1786 C   0  0  0  0  0  0  0  0  0  0  0  0
   -4.0788    2.8455    2.4271 C   0  0  0  0  0  0  0  0  0  0  0  0
   -4.8636    3.6214    1.3863 C   0  0  0  0  0  0  0  0  0  0  0  0
   -3.6948    1.8519   -0.8952 N   0  0  0  0  0  0  0  0  0  0  0  0
   -2.9398    0.9979   -1.5637 N   0  0  0  0  0  0  0  0  0  0  0  0
   -3.3919    0.2822   -2.7489 C   0  0  0  0  0  0  0  0  0  0  0  0
   -1.7284    0.8939   -1.0002 C   0  0  0  0  0  0  0  0  0  0  0  0
   -0.4153    0.2113   -1.1107 C   0  0  0  0  0  0  0  0  0  0  0  0
   -0.7032   -1.2322   -0.7583 C   0  0  0  0  0  0  0  0  0  0  0  0
   -0.6218   -2.2175   -1.7104 C   0  0  0  0  0  0  0  0  0  0  0  0
   -0.8926   -3.5145   -1.3412 C   0  0  0  0  0  0  0  0  0  0  0  0
   -1.2426   -3.8727   -0.0580 C   0  0  0  0  0  0  0  0  0  0  0  0
   -1.5865   -5.5178    0.4119 Cl  0  0  0  0  0  0  0  0  0  0  0  0
   -1.3155   -2.8601    0.8745 C   0  0  0  0  0  0  0  0  0  0  0  0
   -1.0516   -1.5804    0.5245 C   0  0  0  0  0  0  0  0  0  0  0  0
    2.4178   -0.5093   -0.5537 C   0  0  0  0  0  0  0  0  0  0  0  0
    3.7030   -0.8720   -0.3322 N   0  0  0  0  0  0  0  0  0  0  0  0
    4.5364   -1.7122   -0.9982 C   0  0  0  0  0  0  0  0  0  0  0  0
    4.1741   -2.4746   -2.2177 C   0  0  0  0  0  0  0  0  0  0  0  0
    3.6516   -3.7090   -1.8455 F   0  0  0  0  0  0  0  0  0  0  0  0
    5.6918   -1.6924   -0.3363 N   0  0  0  0  0  0  0  0  0  0  0  0
    5.6104   -0.8790    0.7075 N   0  0  0  0  0  0  0  0  0  0  0  0
    4.3646   -0.3644    0.7109 C   0  0  0  0  0  0  0  0  0  0  0  0
    4.0640    2.1438    2.8641 H   0  0  0  0  0  0  0  0  0  0  0  0
    5.5525    1.2185    2.6030 H   0  0  0  0  0  0  0  0  0  0  0  0
    4.2292    0.4766    3.6437 H   0  0  0  0  0  0  0  0  0  0  0  0
    1.9980    1.5688    1.9969 H   0  0  0  0  0  0  0  0  0  0  0  0
   -2.7535    4.2242    1.3458 H   0  0  0  0  0  0  0  0  0  0  0  0
   -3.8601    3.3565    3.4001 H   0  0  0  0  0  0  0  0  0  0  0  0
   -4.3223    1.7812    2.5202 H   0  0  0  0  0  0  0  0  0  0  0  0
   -5.5625    3.0314    0.7411 H   0  0  0  0  0  0  0  0  0  0  0  0
   -5.1904    4.6523    1.6638 H   0  0  0  0  0  0  0  0  0  0  0  0
   -3.2426    0.8729   -3.6765 H   0  0  0  0  0  0  0  0  0  0  0  0
   -2.8113   -0.6601   -2.8918 H   0  0  0  0  0  0  0  0  0  0  0  0
   -4.4702    0.0273   -2.6659 H   0  0  0  0  0  0  0  0  0  0  0  0
    0.0498    0.2851   -2.0899 H   0  0  0  0  0  0  0  0  0  0  0  0
   -0.3458   -1.9392   -2.7246 H   0  0  0  0  0  0  0  0  0  0  0  0
   -0.8353   -4.3100   -2.0737 H   0  0  0  0  0  0  0  0  0  0  0  0
   -1.5834   -3.0812    1.8889 H   0  0  0  0  0  0  0  0  0  0  0  0
   -1.1093   -0.7732    1.2655 H   0  0  0  0  0  0  0  0  0  0  0  0
    1.9427   -0.9465   -1.4043 H   0  0  0  0  0  0  0  0  0  0  0  0
    5.0884   -2.6344   -2.8494 H   0  0  0  0  0  0  0  0  0  0  0  0
    3.4338   -1.9762   -2.8383 H   0  0  0  0  0  0  0  0  0  0  0  0
  1  2  1  0
  2  3  2  0
  3  4  1  0
  4  5  1  0
  5  6  1  0
  6  7  2  0
  6  8  1  0
  8  9  1  0
  9 10  1  0
 10 11  1  0
 11 12  1  0
  9 13  2  0
 13 14  1  0
 14 15  1  0
 14 16  1  0
 16 17  1  0
 17 18  1  0
 18 19  2  0
 19 20  1  0
 20 21  2  0
 21 22  1  0
 21 23  1  0
 23 24  2  0
  4 25  2  0
 25 26  1  0
 26 27  1  0
 27 28  1  0
 28 29  1  0
 27 30  2  0
 30 31  1  0
 31 32  2  0
 32  2  1  0
 17  5  1  0
 24 18  1  0
 32 26  1  0
 16  8  2  0
 12 10  1  0
  1 33  1  0
  1 34  1  0
  1 35  1  0
  3 36  1  0
 10 37  1  0
 11 38  1  0
 11 39  1  0
 12 40  1  0
 12 41  1  0
 15 42  1  0
 15 43  1  0
 15 44  1  0
 17 45  1  0
 19 46  1  0
 20 47  1  0
 23 48  1  0
 24 49  1  0
 25 50  1  0
 28 51  1  0
 28 52  1  0
M  END
$$$$
