
     RDKit          3D

 54 54  0  0  0  0  0  0  0  0999 V2000
   -2.9322   -3.4442   -0.1624 C   0  0  1  0  0  0  0  0  0  0  0  0
   -3.0468   -3.3038    1.2302 O   0  0  0  0  0  0  0  0  0  0  0  0
   -4.2852   -3.2744   -0.7869 C   0  0  0  0  0  0  0  0  0  0  0  0
   -5.1642   -4.3318   -0.2200 C   0  0  0  0  0  0  0  0  0  0  0  0
   -6.5026   -4.5070   -0.5519 O   0  0  0  0  0  0  0  0  0  0  0  0
   -4.5660   -5.0614    0.6012 O   0  0  0  0  0  0  0  0  0  0  0  0
   -1.9198   -2.4889   -0.6357 C   0  0  0  0  0  0  0  0  0  0  0  0
   -1.8087   -2.6088   -1.8983 O   0  0  0  0  0  0  0  0  0  0  0  0
   -1.1254   -1.5407    0.0628 N   0  0  0  0  0  0  0  0  0  0  0  0
   -0.1857   -0.7063   -0.6583 C   0  0  1  0  0  0  0  0  0  0  0  0
   -0.4686    0.7661   -0.4407 C   0  0  0  0  0  0  0  0  0  0  0  0
   -1.8394    1.1852   -0.8941 C   0  0  0  0  0  0  0  0  0  0  0  0
   -1.9829    2.6578   -0.6206 C   0  0  0  0  0  0  0  0  0  0  0  0
   -2.4955    3.0042    0.6281 C   0  0  0  0  0  0  0  0  0  0  0  0
   -2.6876    4.3134    1.0309 C   0  0  0  0  0  0  0  0  0  0  0  0
   -2.3418    5.2878    0.1222 C   0  0  0  0  0  0  0  0  0  0  0  0
   -1.8340    4.9617   -1.1158 C   0  0  0  0  0  0  0  0  0  0  0  0
   -1.6444    3.6545   -1.5125 C   0  0  0  0  0  0  0  0  0  0  0  0
    1.1606   -0.9790   -0.0891 C   0  0  0  0  0  0  0  0  0  0  0  0
    0.5290   -1.7962    0.6743 O   0  0  0  0  0  0  0  0  0  0  0  0
    2.5088   -0.5171   -0.3206 N   0  0  0  0  0  0  0  0  0  0  0  0
    3.3261   -1.2347    0.6254 C   0  0  0  0  0  0  0  0  0  0  0  0
    4.7764   -0.8659    0.5213 C   0  0  0  0  0  0  0  0  0  0  0  0
    5.0417    0.5578    0.8308 C   0  0  0  0  0  0  0  0  0  0  0  0
    6.5470    0.8636    0.7180 C   0  0  0  0  0  0  0  0  0  0  0  0
    4.2790    1.5374   -0.0041 C   0  0  0  0  0  0  0  0  0  0  0  0
   -2.6096   -4.4877   -0.3833 H   0  0  0  0  0  0  0  0  0  0  0  0
   -2.1657   -3.3977    1.6694 H   0  0  0  0  0  0  0  0  0  0  0  0
   -4.1823   -3.3588   -1.8977 H   0  0  0  0  0  0  0  0  0  0  0  0
   -4.7566   -2.3021   -0.5911 H   0  0  0  0  0  0  0  0  0  0  0  0
   -6.9916   -5.2949   -0.1289 H   0  0  0  0  0  0  0  0  0  0  0  0
   -1.3361   -1.5678    1.0846 H   0  0  0  0  0  0  0  0  0  0  0  0
   -0.2699   -0.9865   -1.7144 H   0  0  0  0  0  0  0  0  0  0  0  0
   -0.2895    1.0389    0.6176 H   0  0  0  0  0  0  0  0  0  0  0  0
    0.2513    1.3719   -1.0287 H   0  0  0  0  0  0  0  0  0  0  0  0
   -2.6002    0.6172   -0.3562 H   0  0  0  0  0  0  0  0  0  0  0  0
   -1.9349    1.0353   -1.9820 H   0  0  0  0  0  0  0  0  0  0  0  0
   -2.7728    2.2380    1.3558 H   0  0  0  0  0  0  0  0  0  0  0  0
   -3.0876    4.5367    2.0078 H   0  0  0  0  0  0  0  0  0  0  0  0
   -2.4647    6.3274    0.3687 H   0  0  0  0  0  0  0  0  0  0  0  0
   -1.5710    5.7560   -1.8098 H   0  0  0  0  0  0  0  0  0  0  0  0
   -1.2486    3.3513   -2.4746 H   0  0  0  0  0  0  0  0  0  0  0  0
    2.2476    0.1319   -1.0869 H   0  0  0  0  0  0  0  0  0  0  0  0
    2.9440   -1.0003    1.6602 H   0  0  0  0  0  0  0  0  0  0  0  0
    3.1814   -2.3387    0.5366 H   0  0  0  0  0  0  0  0  0  0  0  0
    5.3132   -1.5326    1.2551 H   0  0  0  0  0  0  0  0  0  0  0  0
    5.1583   -1.1474   -0.5064 H   0  0  0  0  0  0  0  0  0  0  0  0
    4.7367    0.7277    1.9009 H   0  0  0  0  0  0  0  0  0  0  0  0
    6.6973    1.9292    0.4948 H   0  0  0  0  0  0  0  0  0  0  0  0
    7.0054    0.2035   -0.0612 H   0  0  0  0  0  0  0  0  0  0  0  0
    7.0403    0.5933    1.6738 H   0  0  0  0  0  0  0  0  0  0  0  0
    4.2970    1.2484   -1.0637 H   0  0  0  0  0  0  0  0  0  0  0  0
    4.8246    2.5247    0.0607 H   0  0  0  0  0  0  0  0  0  0  0  0
    3.2461    1.6541    0.3742 H   0  0  0  0  0  0  0  0  0  0  0  0
  1  2  1  0
  1  3  1  0
  3  4  1  0
  4  5  1  0
  4  6  2  0
  1  7  1  0
  7  8  2  0
  7  9  1  0
  9 10  1  0
 10 11  1  0
 11 12  1  0
 12 13  1  0
 13 14  2  0
 14 15  1  0
 15 16  2  0
 16 17  1  0
 17 18  2  0
 10 19  1  0
 19 20  2  0
 19 21  1  0
 21 22  1  0
 22 23  1  0
 23 24  1  0
 24 25  1  0
 24 26  1  0
 18 13  1  0
  1 27  1  1
  2 28  1  0
  3 29  1  0
  3 30  1  0
  5 31  1  0
  9 32  1  0
 10 33  1  6
 11 34  1  0
 11 35  1  0
 12 36  1  0
 12 37  1  0
 14 38  1  0
 15 39  1  0
 16 40  1  0
 17 41  1  0
 18 42  1  0
 21 43  1  0
 22 44  1  0
 22 45  1  0
 23 46  1  0
 23 47  1  0
 24 48  1  0
 25 49  1  0
 25 50  1  0
 25 51  1  0
 26 52  1  0
 26 53  1  0
 26 54  1  0
M  END
$$$$
