
     RDKit          3D

 51 54  0  0  0  0  0  0  0  0999 V2000
   -0.7154   -0.9095    0.3476 C   0  0  2  0  0  0  0  0  0  0  0  0
   -1.4933   -2.1625    0.4235 C   0  0  0  0  0  0  0  0  0  0  0  0
   -2.9253   -1.7072    0.5145 C   0  0  0  0  0  0  0  0  0  0  0  0
   -2.9026   -0.1852    0.1964 C   0  0  1  0  0  0  0  0  0  0  0  0
   -3.9877    0.0616   -0.6359 O   0  0  0  0  0  0  0  0  0  0  0  0
   -2.9752    0.5518    1.4846 C   0  0  0  0  0  0  0  0  0  0  0  0
   -2.9877    2.0409    1.4218 C   0  0  0  0  0  0  0  0  0  0  0  0
   -1.5895   -0.0076   -0.4993 C   0  0  2  0  0  0  0  0  0  0  0  0
   -1.6679   -0.5686   -1.9288 C   0  0  0  0  0  0  0  0  0  0  0  0
   -2.5501    0.3499   -2.7794 C   0  0  0  0  0  0  0  0  0  0  0  0
   -0.9949    1.3183   -0.5171 C   0  0  0  0  0  0  0  0  0  0  0  0
    0.3386    1.4258   -0.3451 C   0  0  0  0  0  0  0  0  0  0  0  0
    1.2875    0.3043   -0.1359 C   0  0  0  0  0  0  0  0  0  0  0  0
    2.5667    0.5520    0.0878 C   0  0  0  0  0  0  0  0  0  0  0  0
    3.0633    1.9284    0.1336 C   0  0  0  0  0  0  0  0  0  0  0  0
    4.5384    2.0011    0.3507 C   0  0  0  0  0  0  0  0  0  0  0  0
    5.2361    0.8641   -0.2450 C   0  0  0  0  0  0  0  0  0  0  0  0
    6.2245    0.9620   -1.0525 O   0  0  0  0  0  0  0  0  0  0  0  0
    4.7600   -0.4821    0.1167 C   0  0  0  0  0  0  0  0  0  0  0  0
    3.4470   -0.6002    0.2724 C   0  0  0  0  0  0  0  0  0  0  0  0
    2.9073   -1.9164    0.6327 C   0  0  0  0  0  0  0  0  0  0  0  0
    1.4252   -1.9161    0.8245 C   0  0  0  0  0  0  0  0  0  0  0  0
    0.6794   -1.0659   -0.2018 C   0  0  1  0  0  0  0  0  0  0  0  0
   -0.6190   -0.4932    1.3658 H   0  0  0  0  0  0  0  0  0  0  0  0
   -1.2128   -2.8183    1.2827 H   0  0  0  0  0  0  0  0  0  0  0  0
   -1.4173   -2.7940   -0.5097 H   0  0  0  0  0  0  0  0  0  0  0  0
   -3.2579   -1.8388    1.5635 H   0  0  0  0  0  0  0  0  0  0  0  0
   -3.5814   -2.2316   -0.2107 H   0  0  0  0  0  0  0  0  0  0  0  0
   -4.7055   -0.5821   -0.4357 H   0  0  0  0  0  0  0  0  0  0  0  0
   -2.2166    0.2167    2.2496 H   0  0  0  0  0  0  0  0  0  0  0  0
   -3.9533    0.2672    2.0169 H   0  0  0  0  0  0  0  0  0  0  0  0
   -3.5918    2.4718    2.2919 H   0  0  0  0  0  0  0  0  0  0  0  0
   -1.9909    2.4953    1.5746 H   0  0  0  0  0  0  0  0  0  0  0  0
   -3.4464    2.3641    0.4678 H   0  0  0  0  0  0  0  0  0  0  0  0
   -0.6846   -0.6349   -2.4081 H   0  0  0  0  0  0  0  0  0  0  0  0
   -2.2039   -1.5306   -1.8645 H   0  0  0  0  0  0  0  0  0  0  0  0
   -2.1119    0.4304   -3.8074 H   0  0  0  0  0  0  0  0  0  0  0  0
   -3.5583   -0.0853   -2.9282 H   0  0  0  0  0  0  0  0  0  0  0  0
   -2.7009    1.3280   -2.3031 H   0  0  0  0  0  0  0  0  0  0  0  0
   -1.4209    2.2772   -0.6669 H   0  0  0  0  0  0  0  0  0  0  0  0
    0.8321    2.4144   -0.3522 H   0  0  0  0  0  0  0  0  0  0  0  0
    2.4850    2.5925    0.8034 H   0  0  0  0  0  0  0  0  0  0  0  0
    2.8623    2.3482   -0.8900 H   0  0  0  0  0  0  0  0  0  0  0  0
    4.9151    2.9172   -0.1872 H   0  0  0  0  0  0  0  0  0  0  0  0
    4.8175    2.1868    1.4113 H   0  0  0  0  0  0  0  0  0  0  0  0
    5.4839   -1.3050    0.2364 H   0  0  0  0  0  0  0  0  0  0  0  0
    3.2227   -2.6821   -0.1246 H   0  0  0  0  0  0  0  0  0  0  0  0
    3.3484   -2.2642    1.6052 H   0  0  0  0  0  0  0  0  0  0  0  0
    1.0766   -2.9664    0.7500 H   0  0  0  0  0  0  0  0  0  0  0  0
    1.2049   -1.4746    1.8193 H   0  0  0  0  0  0  0  0  0  0  0  0
    0.7406   -1.4481   -1.2157 H   0  0  0  0  0  0  0  0  0  0  0  0
  1  2  1  0
  2  3  1  0
  3  4  1  0
  4  5  1  6
  4  6  1  0
  6  7  1  0
  4  8  1  0
  8  9  1  6
  9 10  1  0
  8 11  1  0
 11 12  2  0
 12 13  1  0
 13 14  2  0
 14 15  1  0
 15 16  1  0
 16 17  1  0
 17 18  2  0
 17 19  1  0
 19 20  2  0
 20 21  1  0
 21 22  1  0
 22 23  1  0
  8  1  1  0
 23 13  1  0
 23  1  1  0
 20 14  1  0
  1 24  1  1
  2 25  1  0
  2 26  1  0
  3 27  1  0
  3 28  1  0
  5 29  1  0
  6 30  1  0
  6 31  1  0
  7 32  1  0
  7 33  1  0
  7 34  1  0
  9 35  1  0
  9 36  1  0
 10 37  1  0
 10 38  1  0
 10 39  1  0
 11 40  1  0
 12 41  1  0
 15 42  1  0
 15 43  1  0
 16 44  1  0
 16 45  1  0
 19 46  1  0
 21 47  1  0
 21 48  1  0
 22 49  1  0
 22 50  1  0
 23 51  1  6
M  END
$$$$
