
     RDKit          3D

 48 50  0  0  0  0  0  0  0  0999 V2000
   -4.9457   -1.6564   -0.0594 C   0  0  0  0  0  0  0  0  0  0  0  0
   -3.7522   -2.4447    0.4202 C   0  0  0  0  0  0  0  0  0  0  0  0
   -2.8228   -1.7105    1.1129 O   0  0  0  0  0  0  0  0  0  0  0  0
   -2.2763   -0.6654    0.3712 C   0  0  0  0  0  0  0  0  0  0  0  0
   -1.2819    0.0358    1.2699 C   0  0  0  0  0  0  0  0  0  0  0  0
   -0.6391    1.1537    0.6060 N   0  0  0  0  0  0  0  0  0  0  0  0
    0.4996    1.1403   -0.1195 C   0  0  0  0  0  0  0  0  0  0  0  0
    0.7903    2.3742   -0.5843 N   0  0  0  0  0  0  0  0  0  0  0  0
   -0.1700    3.2273   -0.1627 C   0  0  0  0  0  0  0  0  0  0  0  0
   -0.4350    4.5784   -0.2985 C   0  0  0  0  0  0  0  0  0  0  0  0
   -1.5118    5.2058    0.2487 C   0  0  0  0  0  0  0  0  0  0  0  0
   -2.3726    4.4287    0.9750 C   0  0  0  0  0  0  0  0  0  0  0  0
   -2.1662    3.0679    1.1505 C   0  0  0  0  0  0  0  0  0  0  0  0
   -1.0583    2.4472    0.5819 C   0  0  0  0  0  0  0  0  0  0  0  0
    1.3276   -0.0106   -0.3890 N   0  0  0  0  0  0  0  0  0  0  0  0
    1.1519   -0.8777   -1.5344 C   0  0  0  0  0  0  0  0  0  0  0  0
    2.4381   -1.2098   -2.2274 C   0  0  0  0  0  0  0  0  0  0  0  0
    3.0417   -2.4266   -1.5666 C   0  0  0  0  0  0  0  0  0  0  0  0
    3.6552   -2.1406   -0.3014 N   0  0  0  0  0  0  0  0  0  0  0  0
    4.8658   -1.3846   -0.4043 C   0  0  0  0  0  0  0  0  0  0  0  0
    2.7504   -1.7025    0.7086 C   0  0  0  0  0  0  0  0  0  0  0  0
    2.3752   -0.2467    0.5903 C   0  0  0  0  0  0  0  0  0  0  0  0
   -5.5181   -1.2670    0.8025 H   0  0  0  0  0  0  0  0  0  0  0  0
   -4.7279   -0.8857   -0.7985 H   0  0  0  0  0  0  0  0  0  0  0  0
   -5.6156   -2.4029   -0.5641 H   0  0  0  0  0  0  0  0  0  0  0  0
   -4.1533   -3.2049    1.1228 H   0  0  0  0  0  0  0  0  0  0  0  0
   -3.3157   -3.0331   -0.4172 H   0  0  0  0  0  0  0  0  0  0  0  0
   -1.8251   -0.9828   -0.5741 H   0  0  0  0  0  0  0  0  0  0  0  0
   -3.1272    0.0051    0.0990 H   0  0  0  0  0  0  0  0  0  0  0  0
   -1.7534    0.3860    2.1868 H   0  0  0  0  0  0  0  0  0  0  0  0
   -0.5209   -0.7307    1.5481 H   0  0  0  0  0  0  0  0  0  0  0  0
    0.2750    5.1582   -0.8838 H   0  0  0  0  0  0  0  0  0  0  0  0
   -1.6999    6.2753    0.1273 H   0  0  0  0  0  0  0  0  0  0  0  0
   -3.2524    4.8777    1.4365 H   0  0  0  0  0  0  0  0  0  0  0  0
   -2.8244    2.4278    1.7163 H   0  0  0  0  0  0  0  0  0  0  0  0
    0.4285   -0.4698   -2.2680 H   0  0  0  0  0  0  0  0  0  0  0  0
    0.7123   -1.8423   -1.1603 H   0  0  0  0  0  0  0  0  0  0  0  0
    3.1643   -0.3977   -2.2804 H   0  0  0  0  0  0  0  0  0  0  0  0
    2.1995   -1.5141   -3.2734 H   0  0  0  0  0  0  0  0  0  0  0  0
    3.8364   -2.8459   -2.2201 H   0  0  0  0  0  0  0  0  0  0  0  0
    2.2860   -3.2183   -1.4327 H   0  0  0  0  0  0  0  0  0  0  0  0
    4.8228   -0.5243   -1.0992 H   0  0  0  0  0  0  0  0  0  0  0  0
    5.6215   -2.0776   -0.8659 H   0  0  0  0  0  0  0  0  0  0  0  0
    5.2411   -1.1493    0.5954 H   0  0  0  0  0  0  0  0  0  0  0  0
    3.2340   -1.8558    1.7035 H   0  0  0  0  0  0  0  0  0  0  0  0
    1.8546   -2.3321    0.6807 H   0  0  0  0  0  0  0  0  0  0  0  0
    1.9434    0.0462    1.5768 H   0  0  0  0  0  0  0  0  0  0  0  0
    3.2507    0.3751    0.3589 H   0  0  0  0  0  0  0  0  0  0  0  0
  1  2  1  0
  2  3  1  0
  3  4  1  0
  4  5  1  0
  5  6  1  0
  6  7  1  0
  7  8  2  0
  8  9  1  0
  9 10  2  0
 10 11  1  0
 11 12  2  0
 12 13  1  0
 13 14  2  0
  7 15  1  0
 15 16  1  0
 16 17  1  0
 17 18  1  0
 18 19  1  0
 19 20  1  0
 19 21  1  0
 21 22  1  0
 14  6  1  0
 22 15  1  0
 14  9  1  0
  1 23  1  0
  1 24  1  0
  1 25  1  0
  2 26  1  0
  2 27  1  0
  4 28  1  0
  4 29  1  0
  5 30  1  0
  5 31  1  0
 10 32  1  0
 11 33  1  0
 12 34  1  0
 13 35  1  0
 16 36  1  0
 16 37  1  0
 17 38  1  0
 17 39  1  0
 18 40  1  0
 18 41  1  0
 20 42  1  0
 20 43  1  0
 20 44  1  0
 21 45  1  0
 21 46  1  0
 22 47  1  0
 22 48  1  0
M  END
$$$$
