
     RDKit          3D

 57 60  0  0  0  0  0  0  0  0999 V2000
   -7.8412    0.4106   -0.0719 C   0  0  0  0  0  0  0  0  0  0  0  0
   -6.4692    0.2428   -0.3686 O   0  0  0  0  0  0  0  0  0  0  0  0
   -5.9018   -0.6491    0.5510 C   0  0  1  0  0  0  0  0  0  0  0  0
   -5.0462   -1.7059   -0.0948 C   0  0  0  0  0  0  0  0  0  0  0  0
   -3.8175   -0.9255    0.3186 C   0  0  2  0  0  0  0  0  0  0  0  0
   -4.6789   -0.0933    1.2350 C   0  0  0  0  0  0  0  0  0  0  0  0
   -3.3093   -0.1624   -0.8508 C   0  0  0  0  0  0  0  0  0  0  0  0
   -4.1113   -0.0059   -2.0377 N   0  0  0  0  0  0  0  0  0  0  0  0
   -2.1461    0.3432   -0.7630 N   0  0  0  0  0  0  0  0  0  0  0  0
   -1.2356    0.2743    0.3390 C   0  0  2  0  0  0  0  0  0  0  0  0
   -1.6297    1.1258    1.5268 C   0  0  0  0  0  0  0  0  0  0  0  0
    0.0372    0.8966   -0.1782 C   0  0  0  0  0  0  0  0  0  0  0  0
    1.2330    0.2485   -0.2430 C   0  0  0  0  0  0  0  0  0  0  0  0
    2.3250    0.9308   -0.7350 C   0  0  0  0  0  0  0  0  0  0  0  0
    3.6004    0.2566   -0.8100 N   0  0  0  0  0  0  0  0  0  0  0  0
    4.4874    0.3025    0.2591 C   0  0  0  0  0  0  0  0  0  0  0  0
    4.0518    0.9734    1.2901 O   0  0  0  0  0  0  0  0  0  0  0  0
    5.8036   -0.2845    0.3920 C   0  0  0  0  0  0  0  0  0  0  0  0
    6.2711   -0.5225    1.6720 N   0  0  0  0  0  0  0  0  0  0  0  0
    7.4823   -1.0380    1.8844 C   0  0  0  0  0  0  0  0  0  0  0  0
    8.3208   -1.3555    0.8287 C   0  0  0  0  0  0  0  0  0  0  0  0
    9.9034   -2.0326    1.1746 Cl  0  0  0  0  0  0  0  0  0  0  0  0
    7.9064   -1.1384   -0.4600 C   0  0  0  0  0  0  0  0  0  0  0  0
    6.6214   -0.5920   -0.6409 C   0  0  0  0  0  0  0  0  0  0  0  0
    6.2491   -0.3307   -2.0465 C   0  0  0  0  0  0  0  0  0  0  0  0
    2.2337    2.2281   -1.1539 C   0  0  0  0  0  0  0  0  0  0  0  0
    1.0215    2.9158   -1.0986 C   0  0  0  0  0  0  0  0  0  0  0  0
   -0.0655    2.2066   -0.5986 C   0  0  0  0  0  0  0  0  0  0  0  0
   -1.2619    2.8761   -0.5409 F   0  0  0  0  0  0  0  0  0  0  0  0
   -1.0060   -1.1277    0.8226 C   0  0  0  0  0  0  0  0  0  0  0  0
   -2.5783   -1.8803    1.1098 S   0  0  0  0  0  6  0  0  0  0  0  0
   -2.8358   -1.9406    2.5939 O   0  0  0  0  0  0  0  0  0  0  0  0
   -2.5560   -3.3051    0.6296 O   0  0  0  0  0  0  0  0  0  0  0  0
   -7.9884    0.8096    0.9334 H   0  0  0  0  0  0  0  0  0  0  0  0
   -8.3019    1.0700   -0.8175 H   0  0  0  0  0  0  0  0  0  0  0  0
   -8.2777   -0.6246   -0.1494 H   0  0  0  0  0  0  0  0  0  0  0  0
   -6.6239   -1.0322    1.3046 H   0  0  0  0  0  0  0  0  0  0  0  0
   -5.1755   -2.6752    0.4293 H   0  0  0  0  0  0  0  0  0  0  0  0
   -5.1808   -1.7968   -1.1754 H   0  0  0  0  0  0  0  0  0  0  0  0
   -4.5940   -0.3409    2.3093 H   0  0  0  0  0  0  0  0  0  0  0  0
   -4.5190    0.9908    1.0213 H   0  0  0  0  0  0  0  0  0  0  0  0
   -4.5648    0.8733   -2.2371 H   0  0  0  0  0  0  0  0  0  0  0  0
   -4.1942   -0.8227   -2.6600 H   0  0  0  0  0  0  0  0  0  0  0  0
   -0.7004    1.5470    2.0076 H   0  0  0  0  0  0  0  0  0  0  0  0
   -2.0606    0.4642    2.3066 H   0  0  0  0  0  0  0  0  0  0  0  0
   -2.3380    1.9224    1.2834 H   0  0  0  0  0  0  0  0  0  0  0  0
    1.3060   -0.7589    0.0832 H   0  0  0  0  0  0  0  0  0  0  0  0
    3.8233   -0.2773   -1.6537 H   0  0  0  0  0  0  0  0  0  0  0  0
    7.8616   -1.2308    2.8884 H   0  0  0  0  0  0  0  0  0  0  0  0
    8.5401   -1.3767   -1.3067 H   0  0  0  0  0  0  0  0  0  0  0  0
    5.7163   -1.1681   -2.5068 H   0  0  0  0  0  0  0  0  0  0  0  0
    5.8000    0.6541   -2.1547 H   0  0  0  0  0  0  0  0  0  0  0  0
    7.2050   -0.2608   -2.6665 H   0  0  0  0  0  0  0  0  0  0  0  0
    3.1208    2.7151   -1.5308 H   0  0  0  0  0  0  0  0  0  0  0  0
    0.9540    3.9418   -1.4310 H   0  0  0  0  0  0  0  0  0  0  0  0
   -0.3937   -1.0656    1.7434 H   0  0  0  0  0  0  0  0  0  0  0  0
   -0.4720   -1.7192    0.0443 H   0  0  0  0  0  0  0  0  0  0  0  0
  1  2  1  0
  2  3  1  0
  3  4  1  0
  5  4  1  6
  5  6  1  0
  5  7  1  0
  7  8  1  0
  7  9  2  0
  9 10  1  0
 10 11  1  1
 10 12  1  0
 12 13  2  0
 13 14  1  0
 14 15  1  0
 15 16  1  0
 16 17  2  0
 16 18  1  0
 18 19  2  0
 19 20  1  0
 20 21  2  0
 21 22  1  0
 21 23  1  0
 23 24  2  0
 24 25  1  0
 14 26  2  0
 26 27  1  0
 27 28  2  0
 28 29  1  0
 10 30  1  0
 30 31  1  0
 31 32  2  0
 31 33  2  0
  6  3  1  0
 28 12  1  0
 31  5  1  0
 24 18  1  0
  1 34  1  0
  1 35  1  0
  1 36  1  0
  3 37  1  1
  4 38  1  0
  4 39  1  0
  6 40  1  0
  6 41  1  0
  8 42  1  0
  8 43  1  0
 11 44  1  0
 11 45  1  0
 11 46  1  0
 13 47  1  0
 15 48  1  0
 20 49  1  0
 23 50  1  0
 25 51  1  0
 25 52  1  0
 25 53  1  0
 26 54  1  0
 27 55  1  0
 30 56  1  0
 30 57  1  0
M  END
$$$$
