
     RDKit          3D

 31 32  0  0  0  0  0  0  0  0999 V2000
   -0.7417    0.8583   -0.2271 C   0  0  2  0  0  0  0  0  0  0  0  0
    0.6928    0.7793   -0.1430 C   0  0  0  0  0  0  0  0  0  0  0  0
    1.3782   -0.1519    0.7623 C   0  0  0  0  0  0  0  0  0  0  0  0
    2.8816   -0.0258    0.6764 C   0  0  0  0  0  0  0  0  0  0  0  0
    3.4370   -0.2773   -0.6957 C   0  0  0  0  0  0  0  0  0  0  0  0
    4.9341   -0.1252   -0.6278 C   0  0  0  0  0  0  0  0  0  0  0  0
    6.1300   -0.1454   -0.5763 O   0  0  0  0  0  0  0  0  0  0  0  0
   -1.6114    1.3189    1.3178 S   0  0  0  0  0  0  0  0  0  0  0  0
   -3.2744    1.0464    0.5661 C   0  0  0  0  0  0  0  0  0  0  0  0
   -2.9608    0.2886   -0.6853 C   0  0  2  0  0  0  0  0  0  0  0  0
   -3.7706   -0.9464   -0.6322 N   0  0  0  0  0  0  0  0  0  0  0  0
   -3.2221   -1.6162    0.5271 C   0  0  0  0  0  0  0  0  0  0  0  0
   -3.9525   -2.3830    1.2429 O   0  0  0  0  0  0  0  0  0  0  0  0
   -1.8498   -1.2012    0.5753 N   0  0  0  0  0  0  0  0  0  0  0  0
   -1.5740   -0.3188   -0.5613 C   0  0  2  0  0  0  0  0  0  0  0  0
   -1.0210    1.6503   -0.9526 H   0  0  0  0  0  0  0  0  0  0  0  0
    1.0821    0.6130   -1.1761 H   0  0  0  0  0  0  0  0  0  0  0  0
    1.0679    1.8185    0.0968 H   0  0  0  0  0  0  0  0  0  0  0  0
    1.1410   -0.0498    1.8347 H   0  0  0  0  0  0  0  0  0  0  0  0
    1.1549   -1.2077    0.5097 H   0  0  0  0  0  0  0  0  0  0  0  0
    3.0944    1.0603    0.9046 H   0  0  0  0  0  0  0  0  0  0  0  0
    3.3959   -0.6573    1.4278 H   0  0  0  0  0  0  0  0  0  0  0  0
    3.0595    0.3752   -1.4785 H   0  0  0  0  0  0  0  0  0  0  0  0
    3.2321   -1.3220   -0.9589 H   0  0  0  0  0  0  0  0  0  0  0  0
    5.1918    0.9199   -0.5902 H   0  0  0  0  0  0  0  0  0  0  0  0
   -3.9534    0.5249    1.2610 H   0  0  0  0  0  0  0  0  0  0  0  0
   -3.6079    2.0710    0.2848 H   0  0  0  0  0  0  0  0  0  0  0  0
   -3.1135    0.8282   -1.6289 H   0  0  0  0  0  0  0  0  0  0  0  0
   -4.5498   -1.2452   -1.2837 H   0  0  0  0  0  0  0  0  0  0  0  0
   -1.3484   -1.6240    1.4154 H   0  0  0  0  0  0  0  0  0  0  0  0
   -1.3219   -0.8557   -1.4638 H   0  0  0  0  0  0  0  0  0  0  0  0
  1  2  1  0
  2  3  1  0
  3  4  1  0
  4  5  1  0
  5  6  1  0
  6  7  2  0
  1  8  1  0
  8  9  1  0
  9 10  1  0
 10 11  1  0
 11 12  1  0
 12 13  2  0
 12 14  1  0
 14 15  1  0
 15  1  1  0
 15 10  1  0
  1 16  1  6
  2 17  1  0
  2 18  1  0
  3 19  1  0
  3 20  1  0
  4 21  1  0
  4 22  1  0
  5 23  1  0
  5 24  1  0
  6 25  1  0
  9 26  1  0
  9 27  1  0
 10 28  1  6
 11 29  1  0
 14 30  1  0
 15 31  1  6
M  END
$$$$
