
     RDKit          3D

 65 68  0  0  0  0  0  0  0  0999 V2000
   -3.4539    3.1217    2.3973 C   0  0  0  0  0  0  0  0  0  0  0  0
   -4.6147    2.6997    1.6670 N   0  0  0  0  0  0  0  0  0  0  0  0
   -5.4714    1.7985    2.3832 C   0  0  0  0  0  0  0  0  0  0  0  0
   -4.3248    2.3086    0.3151 C   0  0  0  0  0  0  0  0  0  0  0  0
   -3.4987    1.0223    0.2387 C   0  0  0  0  0  0  0  0  0  0  0  0
   -3.2736    0.7340   -1.2095 C   0  0  0  0  0  0  0  0  0  0  0  0
   -2.4731   -0.5062   -1.4813 C   0  0  0  0  0  0  0  0  0  0  0  0
   -1.1558   -0.4140   -0.8824 N   0  0  0  0  0  0  0  0  0  0  0  0
    0.0193   -0.3706   -1.6547 C   0  0  0  0  0  0  0  0  0  0  0  0
   -0.0831   -0.4113   -2.9082 O   0  0  0  0  0  0  0  0  0  0  0  0
    1.3157   -0.2791   -0.9371 C   0  0  0  0  0  0  0  0  0  0  0  0
    2.3578   -0.2338   -1.9438 N   0  0  0  0  0  0  0  0  0  0  0  0
    1.4279    0.9835   -0.1031 C   0  0  0  0  0  0  0  0  0  0  0  0
    2.9060    1.1785    0.1381 C   0  0  0  0  0  0  0  0  0  0  0  0
    3.5359   -0.0501    0.5500 N   0  0  0  0  0  0  0  0  0  0  0  0
    4.9239    0.0795    0.9443 C   0  0  0  0  0  0  0  0  0  0  0  0
    5.2308   -0.0207    2.2471 N   0  0  0  0  0  0  0  0  0  0  0  0
    6.5233    0.1217    2.6577 C   0  0  0  0  0  0  0  0  0  0  0  0
    7.5067    0.3633    1.7707 N   0  0  0  0  0  0  0  0  0  0  0  0
    7.2510    0.4726    0.4486 C   0  0  0  0  0  0  0  0  0  0  0  0
    8.0515    0.6969   -0.6014 N   0  0  0  0  0  0  0  0  0  0  0  0
    7.2624    0.6952   -1.6822 C   0  0  0  0  0  0  0  0  0  0  0  0
    5.9468    0.4677   -1.3160 C   0  0  0  0  0  0  0  0  0  0  0  0
    5.9187    0.3238    0.0413 C   0  0  0  0  0  0  0  0  0  0  0  0
    2.9032   -1.3267    0.5914 C   0  0  0  0  0  0  0  0  0  0  0  0
    1.5343   -1.4256    0.0021 C   0  0  0  0  0  0  0  0  0  0  0  0
   -3.1680   -1.7516   -1.0987 C   0  0  0  0  0  0  0  0  0  0  0  0
   -3.8382   -2.4724   -2.0632 C   0  0  0  0  0  0  0  0  0  0  0  0
   -4.5114   -3.6409   -1.8161 C   0  0  0  0  0  0  0  0  0  0  0  0
   -4.5135   -4.1163   -0.5235 C   0  0  0  0  0  0  0  0  0  0  0  0
   -5.3667   -5.5994   -0.2116 Cl  0  0  0  0  0  0  0  0  0  0  0  0
   -3.8511   -3.4152    0.4616 C   0  0  0  0  0  0  0  0  0  0  0  0
   -3.1794   -2.2414    0.1932 C   0  0  0  0  0  0  0  0  0  0  0  0
   -3.5410    4.1907    2.7290 H   0  0  0  0  0  0  0  0  0  0  0  0
   -3.3867    2.5046    3.3196 H   0  0  0  0  0  0  0  0  0  0  0  0
   -2.5213    2.9541    1.8223 H   0  0  0  0  0  0  0  0  0  0  0  0
   -5.7199    0.9523    1.7098 H   0  0  0  0  0  0  0  0  0  0  0  0
   -6.4211    2.2683    2.7117 H   0  0  0  0  0  0  0  0  0  0  0  0
   -4.9074    1.3916    3.2612 H   0  0  0  0  0  0  0  0  0  0  0  0
   -5.2326    2.2480   -0.3190 H   0  0  0  0  0  0  0  0  0  0  0  0
   -3.7300    3.1596   -0.1268 H   0  0  0  0  0  0  0  0  0  0  0  0
   -2.5790    1.1810    0.8128 H   0  0  0  0  0  0  0  0  0  0  0  0
   -4.0792    0.2276    0.7488 H   0  0  0  0  0  0  0  0  0  0  0  0
   -2.7111    1.5929   -1.6342 H   0  0  0  0  0  0  0  0  0  0  0  0
   -4.2542    0.7206   -1.7190 H   0  0  0  0  0  0  0  0  0  0  0  0
   -2.3197   -0.5298   -2.5971 H   0  0  0  0  0  0  0  0  0  0  0  0
   -1.1173   -0.3804    0.1632 H   0  0  0  0  0  0  0  0  0  0  0  0
    2.2429   -0.9868   -2.6559 H   0  0  0  0  0  0  0  0  0  0  0  0
    2.3083    0.7021   -2.4346 H   0  0  0  0  0  0  0  0  0  0  0  0
    0.9994    1.8611   -0.6319 H   0  0  0  0  0  0  0  0  0  0  0  0
    0.9061    0.7894    0.8575 H   0  0  0  0  0  0  0  0  0  0  0  0
    3.3815    1.4938   -0.8212 H   0  0  0  0  0  0  0  0  0  0  0  0
    3.0789    1.9802    0.9015 H   0  0  0  0  0  0  0  0  0  0  0  0
    6.8034    0.0469    3.6986 H   0  0  0  0  0  0  0  0  0  0  0  0
    9.0864    0.8471   -0.6044 H   0  0  0  0  0  0  0  0  0  0  0  0
    7.6134    0.8499   -2.6895 H   0  0  0  0  0  0  0  0  0  0  0  0
    5.0836    0.4031   -1.9623 H   0  0  0  0  0  0  0  0  0  0  0  0
    2.8071   -1.5895    1.6840 H   0  0  0  0  0  0  0  0  0  0  0  0
    3.5687   -2.1342    0.1455 H   0  0  0  0  0  0  0  0  0  0  0  0
    1.4391   -2.4094   -0.5163 H   0  0  0  0  0  0  0  0  0  0  0  0
    0.7549   -1.3592    0.8192 H   0  0  0  0  0  0  0  0  0  0  0  0
   -3.8394   -2.0987   -3.0929 H   0  0  0  0  0  0  0  0  0  0  0  0
   -5.0150   -4.1519   -2.6264 H   0  0  0  0  0  0  0  0  0  0  0  0
   -3.8768   -3.8257    1.4739 H   0  0  0  0  0  0  0  0  0  0  0  0
   -2.6597   -1.6909    0.9581 H   0  0  0  0  0  0  0  0  0  0  0  0
  1  2  1  0
  2  3  1  0
  2  4  1  0
  4  5  1  0
  5  6  1  0
  6  7  1  0
  7  8  1  0
  8  9  1  0
  9 10  2  0
  9 11  1  0
 11 12  1  0
 11 13  1  0
 13 14  1  0
 14 15  1  0
 15 16  1  0
 16 17  2  0
 17 18  1  0
 18 19  2  0
 19 20  1  0
 20 21  1  0
 21 22  1  0
 22 23  2  0
 23 24  1  0
 15 25  1  0
 25 26  1  0
  7 27  1  0
 27 28  2  0
 28 29  1  0
 29 30  2  0
 30 31  1  0
 30 32  1  0
 32 33  2  0
 26 11  1  0
 33 27  1  0
 24 16  1  0
 24 20  2  0
  1 34  1  0
  1 35  1  0
  1 36  1  0
  3 37  1  0
  3 38  1  0
  3 39  1  0
  4 40  1  0
  4 41  1  0
  5 42  1  0
  5 43  1  0
  6 44  1  0
  6 45  1  0
  7 46  1  0
  8 47  1  0
 12 48  1  0
 12 49  1  0
 13 50  1  0
 13 51  1  0
 14 52  1  0
 14 53  1  0
 18 54  1  0
 21 55  1  0
 22 56  1  0
 23 57  1  0
 25 58  1  0
 25 59  1  0
 26 60  1  0
 26 61  1  0
 28 62  1  0
 29 63  1  0
 32 64  1  0
 33 65  1  0
M  END
$$$$
