
     RDKit          3D

 24 25  0  0  0  0  0  0  0  0999 V2000
   -2.0512   -2.2466   -1.8430 O   0  0  0  0  0  0  0  0  0  0  0  0
   -2.2373   -1.1643   -1.0103 C   0  0  0  0  0  0  0  0  0  0  0  0
   -3.4811   -0.6885   -0.7086 C   0  0  0  0  0  0  0  0  0  0  0  0
   -3.5858    0.3952    0.1297 C   0  0  0  0  0  0  0  0  0  0  0  0
   -5.1281    1.0867    0.5824 Cl  0  0  0  0  0  0  0  0  0  0  0  0
   -2.4517    1.0024    0.6659 C   0  0  0  0  0  0  0  0  0  0  0  0
   -1.1970    0.5009    0.3452 C   0  0  0  0  0  0  0  0  0  0  0  0
   -1.0736   -0.5752   -0.4870 C   0  0  0  0  0  0  0  0  0  0  0  0
    0.1756   -1.0795   -0.8143 O   0  0  0  0  0  0  0  0  0  0  0  0
    1.3207   -0.4572   -0.3587 C   0  0  0  0  0  0  0  0  0  0  0  0
    2.1861   -1.1148    0.5105 C   0  0  0  0  0  0  0  0  0  0  0  0
    3.3349   -0.5065    0.9730 C   0  0  0  0  0  0  0  0  0  0  0  0
    3.6387    0.7805    0.5697 C   0  0  0  0  0  0  0  0  0  0  0  0
    5.0977    1.5617    1.1539 Cl  0  0  0  0  0  0  0  0  0  0  0  0
    2.7703    1.4153   -0.2914 C   0  0  0  0  0  0  0  0  0  0  0  0
    1.6079    0.8258   -0.7722 C   0  0  0  0  0  0  0  0  0  0  0  0
    0.5534    1.6712   -1.8957 Cl  0  0  0  0  0  0  0  0  0  0  0  0
   -1.2051   -2.3584   -2.3819 H   0  0  0  0  0  0  0  0  0  0  0  0
   -4.3522   -1.1481   -1.1148 H   0  0  0  0  0  0  0  0  0  0  0  0
   -2.5068    1.8505    1.3235 H   0  0  0  0  0  0  0  0  0  0  0  0
   -0.3314    0.9975    0.8000 H   0  0  0  0  0  0  0  0  0  0  0  0
    1.9167   -2.1271    0.8079 H   0  0  0  0  0  0  0  0  0  0  0  0
    4.0004   -1.0397    1.6542 H   0  0  0  0  0  0  0  0  0  0  0  0
    2.9986    2.4182   -0.6112 H   0  0  0  0  0  0  0  0  0  0  0  0
  1  2  1  0
  2  3  2  0
  3  4  1  0
  4  5  1  0
  4  6  2  0
  6  7  1  0
  7  8  2  0
  8  9  1  0
  9 10  1  0
 10 11  2  0
 11 12  1  0
 12 13  2  0
 13 14  1  0
 13 15  1  0
 15 16  2  0
 16 17  1  0
  8  2  1  0
 16 10  1  0
  1 18  1  0
  3 19  1  0
  6 20  1  0
  7 21  1  0
 11 22  1  0
 12 23  1  0
 15 24  1  0
M  END
$$$$
