
     RDKit          3D

 53 57  0  0  0  0  0  0  0  0999 V2000
   -5.4104   -1.4668    1.6688 C   0  0  0  0  0  0  0  0  0  0  0  0
   -5.0576   -0.5683    0.6161 N   0  0  0  0  0  0  0  0  0  0  0  0
   -4.5712   -1.1332   -0.6052 C   0  0  0  0  0  0  0  0  0  0  0  0
   -3.1374   -0.8067   -0.1353 C   0  0  0  0  0  0  0  0  0  0  0  0
   -2.4187   -0.3051   -1.2595 N   0  0  0  0  0  0  0  0  0  0  0  0
   -2.3548   -0.9551   -2.4084 N   0  0  0  0  0  0  0  0  0  0  0  0
   -1.6512   -0.2569   -3.3092 C   0  0  0  0  0  0  0  0  0  0  0  0
   -1.2570    0.8921   -2.6786 C   0  0  0  0  0  0  0  0  0  0  0  0
   -1.7423    0.8441   -1.4059 C   0  0  0  0  0  0  0  0  0  0  0  0
   -1.6149    1.8448   -0.4051 C   0  0  0  0  0  0  0  0  0  0  0  0
   -2.0324    3.1243   -0.6558 C   0  0  0  0  0  0  0  0  0  0  0  0
   -1.9349    4.1193    0.2849 C   0  0  0  0  0  0  0  0  0  0  0  0
   -2.4791    5.7291   -0.0823 Cl  0  0  0  0  0  0  0  0  0  0  0  0
   -1.3977    3.8348    1.5360 C   0  0  0  0  0  0  0  0  0  0  0  0
   -0.9727    2.5568    1.8036 C   0  0  0  0  0  0  0  0  0  0  0  0
   -1.0848    1.5622    0.8193 C   0  0  0  0  0  0  0  0  0  0  0  0
   -0.6055    0.3051    1.2221 O   0  0  0  0  0  0  0  0  0  0  0  0
    0.4830   -0.2743    0.5779 C   0  0  0  0  0  0  0  0  0  0  0  0
    0.3777   -1.4907   -0.0352 C   0  0  0  0  0  0  0  0  0  0  0  0
    1.5000   -2.0116   -0.6592 C   0  0  0  0  0  0  0  0  0  0  0  0
    1.4170   -3.2148   -1.2722 F   0  0  0  0  0  0  0  0  0  0  0  0
    2.7089   -1.3409   -0.6774 C   0  0  0  0  0  0  0  0  0  0  0  0
    4.0643   -2.0752   -1.5054 S   0  0  0  0  0  6  0  0  0  0  0  0
    3.6809   -2.3292   -2.9273 O   0  0  0  0  0  0  0  0  0  0  0  0
    4.2991   -3.4345   -0.8778 O   0  0  0  0  0  0  0  0  0  0  0  0
    5.5046   -1.1780   -1.3823 N   0  0  0  0  0  0  0  0  0  0  0  0
    6.1441   -0.9142   -0.1143 C   0  0  0  0  0  0  0  0  0  0  0  0
    5.5601   -1.4472    1.0626 C   0  0  0  0  0  0  0  0  0  0  0  0
    6.7494   -0.8425    2.3066 S   0  0  0  0  0  0  0  0  0  0  0  0
    7.8382    0.0294    1.0348 C   0  0  0  0  0  0  0  0  0  0  0  0
    7.2083   -0.2483    0.0542 N   0  0  0  0  0  0  0  0  0  0  0  0
    2.7966   -0.1183   -0.0559 C   0  0  0  0  0  0  0  0  0  0  0  0
    1.6947    0.4272    0.5750 C   0  0  0  0  0  0  0  0  0  0  0  0
    1.7687    1.6334    1.1925 F   0  0  0  0  0  0  0  0  0  0  0  0
   -3.8030    0.1391    0.7803 C   0  0  0  0  0  0  0  0  0  0  0  0
   -4.7292   -2.3283    1.7915 H   0  0  0  0  0  0  0  0  0  0  0  0
   -5.4828   -0.9075    2.6236 H   0  0  0  0  0  0  0  0  0  0  0  0
   -6.4450   -1.8352    1.4577 H   0  0  0  0  0  0  0  0  0  0  0  0
   -4.8933   -0.5112   -1.4734 H   0  0  0  0  0  0  0  0  0  0  0  0
   -4.7507   -2.1999   -0.7830 H   0  0  0  0  0  0  0  0  0  0  0  0
   -2.7749   -1.7111    0.3795 H   0  0  0  0  0  0  0  0  0  0  0  0
   -1.4316   -0.5493   -4.3548 H   0  0  0  0  0  0  0  0  0  0  0  0
   -0.6586    1.6931   -3.1355 H   0  0  0  0  0  0  0  0  0  0  0  0
   -2.4485    3.3579   -1.6161 H   0  0  0  0  0  0  0  0  0  0  0  0
   -1.3446    4.6454    2.2348 H   0  0  0  0  0  0  0  0  0  0  0  0
   -0.5585    2.3533    2.7794 H   0  0  0  0  0  0  0  0  0  0  0  0
   -0.5194   -2.0780   -0.0665 H   0  0  0  0  0  0  0  0  0  0  0  0
    5.9394   -0.8074   -2.2465 H   0  0  0  0  0  0  0  0  0  0  0  0
    4.7024   -2.0237    1.2282 H   0  0  0  0  0  0  0  0  0  0  0  0
    8.7134    0.5442    1.4207 H   0  0  0  0  0  0  0  0  0  0  0  0
    3.7471    0.4398   -0.0642 H   0  0  0  0  0  0  0  0  0  0  0  0
   -3.3991    0.1036    1.8113 H   0  0  0  0  0  0  0  0  0  0  0  0
   -3.9361    1.1843    0.4686 H   0  0  0  0  0  0  0  0  0  0  0  0
  1  2  1  0
  2  3  1  0
  3  4  1  0
  4  5  1  0
  5  6  1  0
  6  7  2  0
  7  8  1  0
  8  9  2  0
  9 10  1  0
 10 11  2  0
 11 12  1  0
 12 13  1  0
 12 14  2  0
 14 15  1  0
 15 16  2  0
 16 17  1  0
 17 18  1  0
 18 19  2  0
 19 20  1  0
 20 21  1  0
 20 22  2  0
 22 23  1  0
 23 24  2  0
 23 25  2  0
 23 26  1  0
 26 27  1  0
 27 28  2  0
 28 29  1  0
 29 30  1  0
 30 31  2  0
 22 32  1  0
 32 33  2  0
 33 34  1  0
  4 35  1  0
 35  2  1  0
  9  5  1  0
 16 10  1  0
 33 18  1  0
 31 27  1  0
  1 36  1  0
  1 37  1  0
  1 38  1  0
  3 39  1  0
  3 40  1  0
  4 41  1  0
  7 42  1  0
  8 43  1  0
 11 44  1  0
 14 45  1  0
 15 46  1  0
 19 47  1  0
 26 48  1  0
 28 49  1  0
 30 50  1  0
 32 51  1  0
 35 52  1  0
 35 53  1  0
M  END
$$$$
