
     RDKit          3D

 51 54  0  0  0  0  0  0  0  0999 V2000
   -5.7802    2.4806   -1.8729 C   0  0  0  0  0  0  0  0  0  0  0  0
   -5.0525    1.3588   -1.2440 N   0  0  0  0  0  0  0  0  0  0  0  0
   -5.0969    0.1117   -1.9502 C   0  0  0  0  0  0  0  0  0  0  0  0
   -4.4089    1.6016   -0.0299 C   0  0  0  0  0  0  0  0  0  0  0  0
   -4.4821    2.7551    0.5049 O   0  0  0  0  0  0  0  0  0  0  0  0
   -3.6374    0.5747    0.6782 C   0  0  2  0  0  0  0  0  0  0  0  0
   -3.1456    0.9007    2.0475 C   0  0  0  0  0  0  0  0  0  0  0  0
   -2.1879    0.7047    0.9480 C   0  0  1  0  0  0  0  0  0  0  0  0
   -1.3486   -0.5079    0.8062 C   0  0  1  0  0  0  0  0  0  0  0  0
   -1.1804   -0.7767   -0.7013 C   0  0  0  0  0  0  0  0  0  0  0  0
    0.0197   -0.2548    1.3047 C   0  0  0  0  0  0  0  0  0  0  0  0
    1.0940   -0.1851    0.4547 C   0  0  0  0  0  0  0  0  0  0  0  0
    2.3857    0.0722    0.9333 C   0  0  0  0  0  0  0  0  0  0  0  0
    3.5065    0.1485    0.0050 C   0  0  0  0  0  0  0  0  0  0  0  0
    4.7138   -0.3188    0.2638 C   0  0  0  0  0  0  0  0  0  0  0  0
    4.9121   -0.9044    1.4687 F   0  0  0  0  0  0  0  0  0  0  0  0
    5.8130   -0.2120   -0.6994 C   0  0  0  0  0  0  0  0  0  0  0  0
    7.0547   -0.7219   -0.3968 C   0  0  0  0  0  0  0  0  0  0  0  0
    8.1205   -0.6297   -1.2923 C   0  0  0  0  0  0  0  0  0  0  0  0
    7.9271   -0.0187   -2.4972 C   0  0  0  0  0  0  0  0  0  0  0  0
    9.2306    0.1292   -3.6672 Cl  0  0  0  0  0  0  0  0  0  0  0  0
    6.6738    0.4867   -2.7822 C   0  0  0  0  0  0  0  0  0  0  0  0
    5.6581    0.3819   -1.8928 N   0  0  0  0  0  0  0  0  0  0  0  0
    2.5255    0.2510    2.2926 C   0  0  0  0  0  0  0  0  0  0  0  0
    1.4853    0.1861    3.1396 N   0  0  0  0  0  0  0  0  0  0  0  0
    0.2616   -0.0633    2.6354 C   0  0  0  0  0  0  0  0  0  0  0  0
   -0.7538   -0.1259    3.5114 F   0  0  0  0  0  0  0  0  0  0  0  0
   -1.8207   -1.6942    1.4646 N   0  0  0  0  0  0  0  0  0  0  0  0
   -3.0277   -2.1325    1.4267 C   0  0  0  0  0  0  0  0  0  0  0  0
   -3.4835   -3.3027    2.0781 N   0  0  0  0  0  0  0  0  0  0  0  0
   -4.1809   -1.1289    0.4553 S   0  0  0  0  0  0  0  0  0  0  0  0
   -6.7654    2.1736   -2.2417 H   0  0  0  0  0  0  0  0  0  0  0  0
   -5.8778    3.3329   -1.1815 H   0  0  0  0  0  0  0  0  0  0  0  0
   -5.1893    2.7867   -2.7798 H   0  0  0  0  0  0  0  0  0  0  0  0
   -5.5282    0.2261   -2.9813 H   0  0  0  0  0  0  0  0  0  0  0  0
   -4.1150   -0.3626   -2.1178 H   0  0  0  0  0  0  0  0  0  0  0  0
   -5.8099   -0.5571   -1.3916 H   0  0  0  0  0  0  0  0  0  0  0  0
   -3.3143    1.9745    2.3606 H   0  0  0  0  0  0  0  0  0  0  0  0
   -3.2925    0.2192    2.8810 H   0  0  0  0  0  0  0  0  0  0  0  0
   -1.7228    1.6164    0.4881 H   0  0  0  0  0  0  0  0  0  0  0  0
   -0.9031    0.1693   -1.1635 H   0  0  0  0  0  0  0  0  0  0  0  0
   -2.1731   -1.0794   -1.0769 H   0  0  0  0  0  0  0  0  0  0  0  0
   -0.4675   -1.6163   -0.8603 H   0  0  0  0  0  0  0  0  0  0  0  0
    1.0221   -0.3147   -0.6156 H   0  0  0  0  0  0  0  0  0  0  0  0
    3.4010    0.6123   -0.9851 H   0  0  0  0  0  0  0  0  0  0  0  0
    7.1740   -1.2012    0.5681 H   0  0  0  0  0  0  0  0  0  0  0  0
    9.0636   -1.0374   -1.0196 H   0  0  0  0  0  0  0  0  0  0  0  0
    6.5351    0.9720   -3.7482 H   0  0  0  0  0  0  0  0  0  0  0  0
    3.5099    0.4502    2.6887 H   0  0  0  0  0  0  0  0  0  0  0  0
   -3.9522   -4.0353    1.4990 H   0  0  0  0  0  0  0  0  0  0  0  0
   -3.3896   -3.4956    3.0954 H   0  0  0  0  0  0  0  0  0  0  0  0
  1  2  1  0
  2  3  1  0
  2  4  1  0
  4  5  2  0
  6  4  1  6
  6  7  1  0
  7  8  1  0
  8  9  1  0
  9 10  1  6
  9 11  1  0
 11 12  2  0
 12 13  1  0
 13 14  1  0
 14 15  2  0
 15 16  1  0
 15 17  1  0
 17 18  2  0
 18 19  1  0
 19 20  2  0
 20 21  1  0
 20 22  1  0
 22 23  2  0
 13 24  2  0
 24 25  1  0
 25 26  2  0
 26 27  1  0
  9 28  1  0
 28 29  2  0
 29 30  1  0
 29 31  1  0
  8  6  1  0
 26 11  1  0
 31  6  1  0
 23 17  1  0
  1 32  1  0
  1 33  1  0
  1 34  1  0
  3 35  1  0
  3 36  1  0
  3 37  1  0
  7 38  1  0
  7 39  1  0
  8 40  1  6
 10 41  1  0
 10 42  1  0
 10 43  1  0
 12 44  1  0
 14 45  1  0
 18 46  1  0
 19 47  1  0
 22 48  1  0
 24 49  1  0
 30 50  1  0
 30 51  1  0
M  END
$$$$
