
     RDKit          3D

 37 39  0  0  0  0  0  0  0  0999 V2000
   -1.0655   -2.8597   -1.2170 C   0  0  0  0  0  0  0  0  0  0  0  0
   -0.8823   -1.5154   -0.6471 C   0  0  0  0  0  0  0  0  0  0  0  0
   -1.9775   -0.7093   -0.3532 C   0  0  0  0  0  0  0  0  0  0  0  0
   -1.8214    0.5511    0.1804 C   0  0  0  0  0  0  0  0  0  0  0  0
   -2.9061    1.3593    0.4756 O   0  0  0  0  0  0  0  0  0  0  0  0
   -4.2153    0.9833    0.2663 C   0  0  0  0  0  0  0  0  0  0  0  0
   -4.8081    1.2635   -0.9418 C   0  0  0  0  0  0  0  0  0  0  0  0
   -6.0939    0.9180   -1.2059 N   0  0  0  0  0  0  0  0  0  0  0  0
   -6.8335    0.2872   -0.2896 C   0  0  0  0  0  0  0  0  0  0  0  0
   -6.2738   -0.0102    0.9324 C   0  0  0  0  0  0  0  0  0  0  0  0
   -7.0656   -0.6520    1.8303 F   0  0  0  0  0  0  0  0  0  0  0  0
   -4.9682    0.3335    1.2180 C   0  0  0  0  0  0  0  0  0  0  0  0
   -0.5238    0.9645    0.4049 C   0  0  0  0  0  0  0  0  0  0  0  0
    0.5654    0.1867    0.1226 C   0  0  0  0  0  0  0  0  0  0  0  0
    1.9549    0.6532    0.3729 C   0  0  0  0  0  0  0  0  0  0  0  0
    2.1498    1.7912    0.8569 O   0  0  0  0  0  0  0  0  0  0  0  0
    3.0491   -0.1759    0.0694 N   0  0  0  0  0  0  0  0  0  0  0  0
    4.4044    0.1501    0.2596 C   0  0  0  0  0  0  0  0  0  0  0  0
    4.9234    1.3066    0.7641 C   0  0  0  0  0  0  0  0  0  0  0  0
    6.3100    1.4732    0.8888 C   0  0  0  0  0  0  0  0  0  0  0  0
    7.1780    0.4829    0.5089 C   0  0  0  0  0  0  0  0  0  0  0  0
    8.9205    0.6663    0.6549 Cl  0  0  0  0  0  0  0  0  0  0  0  0
    6.6252   -0.6775    0.0015 C   0  0  0  0  0  0  0  0  0  0  0  0
    5.3139   -0.8088   -0.1055 N   0  0  0  0  0  0  0  0  0  0  0  0
    0.3654   -1.0325   -0.3955 N   0  0  0  0  0  0  0  0  0  0  0  0
   -0.7766   -2.8539   -2.2691 H   0  0  0  0  0  0  0  0  0  0  0  0
   -2.1389   -3.1256   -1.1533 H   0  0  0  0  0  0  0  0  0  0  0  0
   -0.4590   -3.6033   -0.6341 H   0  0  0  0  0  0  0  0  0  0  0  0
   -2.9478   -1.1128   -0.5606 H   0  0  0  0  0  0  0  0  0  0  0  0
   -4.2749    1.7694   -1.7287 H   0  0  0  0  0  0  0  0  0  0  0  0
   -7.8528    0.0260   -0.5305 H   0  0  0  0  0  0  0  0  0  0  0  0
   -4.5615    0.0789    2.2012 H   0  0  0  0  0  0  0  0  0  0  0  0
   -0.3852    1.9565    0.8255 H   0  0  0  0  0  0  0  0  0  0  0  0
    2.7775   -1.1317   -0.3414 H   0  0  0  0  0  0  0  0  0  0  0  0
    4.2692    2.1077    1.0733 H   0  0  0  0  0  0  0  0  0  0  0  0
    6.6873    2.4019    1.2924 H   0  0  0  0  0  0  0  0  0  0  0  0
    7.3378   -1.4422   -0.2902 H   0  0  0  0  0  0  0  0  0  0  0  0
  1  2  1  0
  2  3  2  0
  3  4  1  0
  4  5  1  0
  5  6  1  0
  6  7  2  0
  7  8  1  0
  8  9  2  0
  9 10  1  0
 10 11  1  0
 10 12  2  0
  4 13  2  0
 13 14  1  0
 14 15  1  0
 15 16  2  0
 15 17  1  0
 17 18  1  0
 18 19  2  0
 19 20  1  0
 20 21  2  0
 21 22  1  0
 21 23  1  0
 23 24  2  0
 14 25  2  0
 25  2  1  0
 12  6  1  0
 24 18  1  0
  1 26  1  0
  1 27  1  0
  1 28  1  0
  3 29  1  0
  7 30  1  0
  9 31  1  0
 12 32  1  0
 13 33  1  0
 17 34  1  0
 19 35  1  0
 20 36  1  0
 23 37  1  0
M  END
$$$$
