
     RDKit          3D

 53 55  0  0  0  0  0  0  0  0999 V2000
    7.8736    2.0324    1.2709 C   0  0  0  0  0  0  0  0  0  0  0  0
    8.0521    1.7892    0.0046 C   0  0  0  0  0  0  0  0  0  0  0  0
    7.3876    0.7258   -0.7056 C   0  0  0  0  0  0  0  0  0  0  0  0
    7.6020    0.5352   -1.9440 O   0  0  0  0  0  0  0  0  0  0  0  0
    6.4599   -0.1814   -0.1096 N   0  0  0  0  0  0  0  0  0  0  0  0
    5.8334   -1.2175   -0.8703 C   0  0  1  0  0  0  0  0  0  0  0  0
    5.9638   -2.6003   -0.2819 C   0  0  0  0  0  0  0  0  0  0  0  0
    5.0012   -3.3124   -0.9655 O   0  0  0  0  0  0  0  0  0  0  0  0
    3.9281   -2.5028   -1.2382 C   0  0  0  0  0  0  0  0  0  0  0  0
    4.3292   -1.0733   -0.9072 C   0  0  1  0  0  0  0  0  0  0  0  0
    3.7430   -0.6128    0.3035 N   0  0  0  0  0  0  0  0  0  0  0  0
    2.3272   -0.4209    0.3328 C   0  0  0  0  0  0  0  0  0  0  0  0
    1.5574   -0.6648   -0.7432 N   0  0  0  0  0  0  0  0  0  0  0  0
    0.2228   -0.4898   -0.7403 C   0  0  0  0  0  0  0  0  0  0  0  0
   -0.4142   -0.0429    0.3963 C   0  0  0  0  0  0  0  0  0  0  0  0
   -1.8004    0.1502    0.4345 O   0  0  0  0  0  0  0  0  0  0  0  0
   -2.6235   -0.0985   -0.6763 C   0  0  0  0  0  0  0  0  0  0  0  0
   -4.0257    0.2088   -0.2924 C   0  0  0  0  0  0  0  0  0  0  0  0
   -4.4577    1.5043   -0.2000 C   0  0  0  0  0  0  0  0  0  0  0  0
   -3.5979    2.5044   -0.4619 F   0  0  0  0  0  0  0  0  0  0  0  0
   -5.7654    1.8302    0.1579 C   0  0  0  0  0  0  0  0  0  0  0  0
   -6.1626    3.1586    0.2398 O   0  0  0  0  0  0  0  0  0  0  0  0
   -7.5069    3.4083    0.6094 C   0  0  0  0  0  0  0  0  0  0  0  0
   -6.6135    0.7741    0.4176 C   0  0  0  0  0  0  0  0  0  0  0  0
   -6.2233   -0.5512    0.3376 C   0  0  0  0  0  0  0  0  0  0  0  0
   -7.0825   -1.6095    0.6004 O   0  0  0  0  0  0  0  0  0  0  0  0
   -8.4288   -1.2954    0.9695 C   0  0  0  0  0  0  0  0  0  0  0  0
   -4.9046   -0.8201   -0.0247 C   0  0  0  0  0  0  0  0  0  0  0  0
   -4.5058   -2.1127   -0.1078 F   0  0  0  0  0  0  0  0  0  0  0  0
    0.3662    0.2096    1.5033 C   0  0  0  0  0  0  0  0  0  0  0  0
    1.6998    0.0156    1.4408 N   0  0  0  0  0  0  0  0  0  0  0  0
    7.2035    1.4429    1.8845 H   0  0  0  0  0  0  0  0  0  0  0  0
    8.3821    2.8360    1.7866 H   0  0  0  0  0  0  0  0  0  0  0  0
    8.7391    2.4243   -0.5411 H   0  0  0  0  0  0  0  0  0  0  0  0
    6.2640   -0.0615    0.9001 H   0  0  0  0  0  0  0  0  0  0  0  0
    6.2129   -1.2616   -1.9207 H   0  0  0  0  0  0  0  0  0  0  0  0
    6.9861   -2.9609   -0.5643 H   0  0  0  0  0  0  0  0  0  0  0  0
    5.8068   -2.6371    0.7965 H   0  0  0  0  0  0  0  0  0  0  0  0
    3.0579   -2.8100   -0.6436 H   0  0  0  0  0  0  0  0  0  0  0  0
    3.6553   -2.5069   -2.3327 H   0  0  0  0  0  0  0  0  0  0  0  0
    4.0493   -0.3667   -1.7381 H   0  0  0  0  0  0  0  0  0  0  0  0
    4.3285   -0.4277    1.1337 H   0  0  0  0  0  0  0  0  0  0  0  0
   -0.3925   -0.6898   -1.6165 H   0  0  0  0  0  0  0  0  0  0  0  0
   -2.2752    0.5738   -1.4922 H   0  0  0  0  0  0  0  0  0  0  0  0
   -2.5650   -1.1470   -1.0319 H   0  0  0  0  0  0  0  0  0  0  0  0
   -7.7719    2.9614    1.5867 H   0  0  0  0  0  0  0  0  0  0  0  0
   -7.7695    4.4802    0.5405 H   0  0  0  0  0  0  0  0  0  0  0  0
   -8.1275    2.8626   -0.1601 H   0  0  0  0  0  0  0  0  0  0  0  0
   -7.6450    0.9666    0.7012 H   0  0  0  0  0  0  0  0  0  0  0  0
   -8.4000   -0.6410    1.8657 H   0  0  0  0  0  0  0  0  0  0  0  0
   -9.0379   -2.1949    1.0982 H   0  0  0  0  0  0  0  0  0  0  0  0
   -8.8136   -0.6464    0.1406 H   0  0  0  0  0  0  0  0  0  0  0  0
   -0.1220    0.5632    2.4091 H   0  0  0  0  0  0  0  0  0  0  0  0
  1  2  2  3
  2  3  1  0
  3  4  2  0
  3  5  1  0
  5  6  1  0
  6  7  1  0
  7  8  1  0
  8  9  1  0
  9 10  1  0
 10 11  1  0
 11 12  1  0
 12 13  2  0
 13 14  1  0
 14 15  2  0
 15 16  1  0
 16 17  1  0
 17 18  1  0
 18 19  2  0
 19 20  1  0
 19 21  1  0
 21 22  1  0
 22 23  1  0
 21 24  2  0
 24 25  1  0
 25 26  1  0
 26 27  1  0
 25 28  2  0
 28 29  1  0
 15 30  1  0
 30 31  2  0
 10  6  1  0
 31 12  1  0
 28 18  1  0
  1 32  1  0
  1 33  1  0
  2 34  1  0
  5 35  1  0
  6 36  1  6
  7 37  1  0
  7 38  1  0
  9 39  1  0
  9 40  1  0
 10 41  1  6
 11 42  1  0
 14 43  1  0
 17 44  1  0
 17 45  1  0
 23 46  1  0
 23 47  1  0
 23 48  1  0
 24 49  1  0
 27 50  1  0
 27 51  1  0
 27 52  1  0
 30 53  1  0
M  END
$$$$
