
     RDKit          3D

 76 80  0  0  0  0  0  0  0  0999 V2000
   -9.0643    3.3302   -2.3727 C   0  0  0  0  0  0  0  0  0  0  0  0
   -9.3016    2.4311   -1.1983 C   0  0  0  0  0  0  0  0  0  0  0  0
   -8.1307    1.6391   -0.9564 O   0  0  0  0  0  0  0  0  0  0  0  0
   -8.1615    0.7378    0.1002 C   0  0  0  0  0  0  0  0  0  0  0  0
   -9.2174    0.5259    0.9399 N   0  0  0  0  0  0  0  0  0  0  0  0
   -8.8815   -0.3990    1.8158 N   0  0  0  0  0  0  0  0  0  0  0  0
   -9.7358   -0.8887    2.8706 C   0  0  0  0  0  0  0  0  0  0  0  0
   -7.6088   -0.7935    1.5522 C   0  0  0  0  0  0  0  0  0  0  0  0
   -7.1262   -0.0895    0.4695 C   0  0  0  0  0  0  0  0  0  0  0  0
   -5.8557   -0.1582   -0.1436 N   0  0  0  0  0  0  0  0  0  0  0  0
   -4.8121   -1.0165    0.2807 C   0  0  0  0  0  0  0  0  0  0  0  0
   -4.9752   -1.9196    1.2536 N   0  0  0  0  0  0  0  0  0  0  0  0
   -3.9929   -2.7221    1.6956 C   0  0  0  0  0  0  0  0  0  0  0  0
   -2.7217   -2.6317    1.1284 C   0  0  0  0  0  0  0  0  0  0  0  0
   -1.6233   -3.5253    1.6192 C   0  0  0  0  0  0  0  0  0  0  0  0
   -2.5467   -1.7051    0.1276 C   0  0  0  0  0  0  0  0  0  0  0  0
   -1.2160   -1.5797   -0.4616 C   0  0  0  0  0  0  0  0  0  0  0  0
   -0.3605   -2.5366   -0.9638 C   0  0  0  0  0  0  0  0  0  0  0  0
    0.7794   -1.9565   -1.3868 N   0  0  0  0  0  0  0  0  0  0  0  0
    0.7243   -0.6160   -1.1856 C   0  0  0  0  0  0  0  0  0  0  0  0
    1.5926    0.4181   -1.4396 C   0  0  0  0  0  0  0  0  0  0  0  0
    2.8630    0.1720   -2.0109 N   0  0  0  0  0  0  0  0  0  0  0  0
    4.0344    0.0030   -1.1866 C   0  0  0  0  0  0  0  0  0  0  0  0
    3.9125    0.0788    0.0610 O   0  0  0  0  0  0  0  0  0  0  0  0
    5.3290   -0.2507   -1.8606 C   0  0  1  0  0  0  0  0  0  0  0  0
    5.5516    0.7240   -3.0080 C   0  0  0  0  0  0  0  0  0  0  0  0
    6.4692   -0.2492   -1.0240 N   0  0  0  0  0  0  0  0  0  0  0  0
    6.5295   -1.2049    0.0186 C   0  0  0  0  0  0  0  0  0  0  0  0
    7.8417   -1.0447    0.7779 C   0  0  0  0  0  0  0  0  0  0  0  0
    8.0552    0.2668    1.2968 N   0  0  0  0  0  0  0  0  0  0  0  0
    8.1278    0.3203    2.7415 C   0  0  0  0  0  0  0  0  0  0  0  0
    7.1470    1.2135    0.7371 C   0  0  1  0  0  0  0  0  0  0  0  0
    7.6140    2.6490    0.9432 C   0  0  0  0  0  0  0  0  0  0  0  0
    7.0840    1.0043   -0.7558 C   0  0  0  0  0  0  0  0  0  0  0  0
    1.2022    1.7018   -1.1094 C   0  0  0  0  0  0  0  0  0  0  0  0
   -0.0345    1.9542   -0.5335 C   0  0  0  0  0  0  0  0  0  0  0  0
   -0.8976    0.9124   -0.2822 C   0  0  0  0  0  0  0  0  0  0  0  0
   -0.5106   -0.3713   -0.6116 C   0  0  0  0  0  0  0  0  0  0  0  0
   -3.5830   -0.9369   -0.2609 N   0  0  0  0  0  0  0  0  0  0  0  0
  -10.0354    3.3757   -2.9386 H   0  0  0  0  0  0  0  0  0  0  0  0
   -8.8530    4.3886   -2.0574 H   0  0  0  0  0  0  0  0  0  0  0  0
   -8.3005    2.9695   -3.0757 H   0  0  0  0  0  0  0  0  0  0  0  0
   -9.4652    3.0567   -0.2741 H   0  0  0  0  0  0  0  0  0  0  0  0
  -10.1613    1.7550   -1.3269 H   0  0  0  0  0  0  0  0  0  0  0  0
  -10.0317   -1.9286    2.6996 H   0  0  0  0  0  0  0  0  0  0  0  0
  -10.6384   -0.2332    2.9610 H   0  0  0  0  0  0  0  0  0  0  0  0
   -9.1796   -0.8418    3.8522 H   0  0  0  0  0  0  0  0  0  0  0  0
   -7.1052   -1.5408    2.1284 H   0  0  0  0  0  0  0  0  0  0  0  0
   -5.6701    0.4746   -0.9787 H   0  0  0  0  0  0  0  0  0  0  0  0
   -4.1312   -3.4387    2.4691 H   0  0  0  0  0  0  0  0  0  0  0  0
   -0.6476   -2.9927    1.6560 H   0  0  0  0  0  0  0  0  0  0  0  0
   -1.5084   -4.4317    1.0104 H   0  0  0  0  0  0  0  0  0  0  0  0
   -1.8824   -3.7823    2.6701 H   0  0  0  0  0  0  0  0  0  0  0  0
   -0.5798   -3.6017   -1.0129 H   0  0  0  0  0  0  0  0  0  0  0  0
    1.6280   -2.4257   -1.8224 H   0  0  0  0  0  0  0  0  0  0  0  0
    3.0128    0.1027   -3.0412 H   0  0  0  0  0  0  0  0  0  0  0  0
    5.2815   -1.2781   -2.3372 H   0  0  0  0  0  0  0  0  0  0  0  0
    5.0679    0.2914   -3.9052 H   0  0  0  0  0  0  0  0  0  0  0  0
    6.6330    0.8996   -3.1085 H   0  0  0  0  0  0  0  0  0  0  0  0
    4.9919    1.6844   -2.8099 H   0  0  0  0  0  0  0  0  0  0  0  0
    5.7006   -1.2243    0.7242 H   0  0  0  0  0  0  0  0  0  0  0  0
    6.6085   -2.2238   -0.4677 H   0  0  0  0  0  0  0  0  0  0  0  0
    8.6868   -1.3085    0.1086 H   0  0  0  0  0  0  0  0  0  0  0  0
    7.8368   -1.7620    1.6271 H   0  0  0  0  0  0  0  0  0  0  0  0
    8.1474    1.3791    3.0409 H   0  0  0  0  0  0  0  0  0  0  0  0
    9.1409   -0.0886    3.0276 H   0  0  0  0  0  0  0  0  0  0  0  0
    7.3663   -0.2813    3.2505 H   0  0  0  0  0  0  0  0  0  0  0  0
    6.1708    1.1024    1.2394 H   0  0  0  0  0  0  0  0  0  0  0  0
    8.6088    2.7905    0.5044 H   0  0  0  0  0  0  0  0  0  0  0  0
    7.5249    2.9972    1.9708 H   0  0  0  0  0  0  0  0  0  0  0  0
    6.9114    3.2685    0.3096 H   0  0  0  0  0  0  0  0  0  0  0  0
    8.1511    0.9456   -1.1115 H   0  0  0  0  0  0  0  0  0  0  0  0
    6.6091    1.8652   -1.2687 H   0  0  0  0  0  0  0  0  0  0  0  0
    1.8400    2.5469   -1.2854 H   0  0  0  0  0  0  0  0  0  0  0  0
   -0.3536    2.9452   -0.2723 H   0  0  0  0  0  0  0  0  0  0  0  0
   -1.8752    1.0584    0.1669 H   0  0  0  0  0  0  0  0  0  0  0  0
  1  2  1  0
  2  3  1  0
  3  4  1  0
  4  5  2  0
  5  6  1  0
  6  7  1  0
  6  8  1  0
  8  9  2  0
  9 10  1  0
 10 11  1  0
 11 12  2  0
 12 13  1  0
 13 14  2  0
 14 15  1  0
 14 16  1  0
 16 17  1  0
 17 18  2  0
 18 19  1  0
 19 20  1  0
 20 21  2  0
 21 22  1  0
 22 23  1  0
 23 24  2  0
 23 25  1  0
 25 26  1  0
 25 27  1  0
 27 28  1  0
 28 29  1  0
 29 30  1  0
 30 31  1  0
 30 32  1  0
 32 33  1  0
 32 34  1  0
 21 35  1  0
 35 36  2  0
 36 37  1  0
 37 38  2  0
 16 39  2  0
  9  4  1  0
 39 11  1  0
 38 17  1  0
 38 20  1  0
 34 27  1  0
  1 40  1  0
  1 41  1  0
  1 42  1  0
  2 43  1  0
  2 44  1  0
  7 45  1  0
  7 46  1  0
  7 47  1  0
  8 48  1  0
 10 49  1  0
 13 50  1  0
 15 51  1  0
 15 52  1  0
 15 53  1  0
 18 54  1  0
 19 55  1  0
 22 56  1  0
 25 57  1  6
 26 58  1  0
 26 59  1  0
 26 60  1  0
 28 61  1  0
 28 62  1  0
 29 63  1  0
 29 64  1  0
 31 65  1  0
 31 66  1  0
 31 67  1  0
 32 68  1  1
 33 69  1  0
 33 70  1  0
 33 71  1  0
 34 72  1  0
 34 73  1  0
 35 74  1  0
 36 75  1  0
 37 76  1  0
M  END
$$$$
