
     RDKit          3D

 33 35  0  0  0  0  0  0  0  0999 V2000
    6.1639   -0.4844   -0.9124 C   0  0  0  0  0  0  0  0  0  0  0  0
    5.2702   -1.2919   -0.1668 O   0  0  0  0  0  0  0  0  0  0  0  0
    3.9406   -0.8844   -0.0887 C   0  0  0  0  0  0  0  0  0  0  0  0
    3.4891    0.2730   -0.7153 C   0  0  0  0  0  0  0  0  0  0  0  0
    2.1635    0.6457   -0.6160 C   0  0  0  0  0  0  0  0  0  0  0  0
    1.2396   -0.1102    0.1043 C   0  0  0  0  0  0  0  0  0  0  0  0
   -0.1226    0.2935    0.1931 C   0  0  0  0  0  0  0  0  0  0  0  0
   -0.3854    1.6447    0.4611 C   0  0  0  0  0  0  0  0  0  0  0  0
   -1.6151    2.0919    0.5576 O   0  0  0  0  0  0  0  0  0  0  0  0
   -2.6541    1.3098    0.4108 C   0  0  0  0  0  0  0  0  0  0  0  0
   -3.9554    1.7835    0.5130 C   0  0  0  0  0  0  0  0  0  0  0  0
   -5.0539    0.9682    0.3600 C   0  0  0  0  0  0  0  0  0  0  0  0
   -6.3218    1.5072    0.4749 O   0  0  0  0  0  0  0  0  0  0  0  0
   -4.8643   -0.3782    0.0936 C   0  0  0  0  0  0  0  0  0  0  0  0
   -3.5869   -0.8781   -0.0137 C   0  0  0  0  0  0  0  0  0  0  0  0
   -3.3684   -2.2201   -0.2795 O   0  0  0  0  0  0  0  0  0  0  0  0
   -2.4855   -0.0330    0.1452 C   0  0  0  0  0  0  0  0  0  0  0  0
   -1.1992   -0.5187    0.0406 C   0  0  0  0  0  0  0  0  0  0  0  0
   -1.0257   -1.7141   -0.1960 O   0  0  0  0  0  0  0  0  0  0  0  0
    1.7370   -1.2465    0.7057 C   0  0  0  0  0  0  0  0  0  0  0  0
    3.0416   -1.6420    0.6262 C   0  0  0  0  0  0  0  0  0  0  0  0
    5.7244   -0.4217   -1.9496 H   0  0  0  0  0  0  0  0  0  0  0  0
    6.1396    0.5555   -0.5183 H   0  0  0  0  0  0  0  0  0  0  0  0
    7.1633   -0.9164   -0.9481 H   0  0  0  0  0  0  0  0  0  0  0  0
    4.2317    0.8346   -1.2648 H   0  0  0  0  0  0  0  0  0  0  0  0
    1.8993    1.5586   -1.1337 H   0  0  0  0  0  0  0  0  0  0  0  0
    0.4303    2.3517    0.5947 H   0  0  0  0  0  0  0  0  0  0  0  0
   -4.0621    2.8436    0.7225 H   0  0  0  0  0  0  0  0  0  0  0  0
   -6.4790    2.2405    1.1472 H   0  0  0  0  0  0  0  0  0  0  0  0
   -5.7236   -1.0190   -0.0267 H   0  0  0  0  0  0  0  0  0  0  0  0
   -4.1257   -2.7487   -0.7162 H   0  0  0  0  0  0  0  0  0  0  0  0
    1.0508   -1.8376    1.2596 H   0  0  0  0  0  0  0  0  0  0  0  0
    3.3441   -2.5573    1.1358 H   0  0  0  0  0  0  0  0  0  0  0  0
  1  2  1  0
  2  3  1  0
  3  4  2  0
  4  5  1  0
  5  6  2  0
  6  7  1  0
  7  8  2  0
  8  9  1  0
  9 10  1  0
 10 11  2  0
 11 12  1  0
 12 13  1  0
 12 14  2  0
 14 15  1  0
 15 16  1  0
 15 17  2  0
 17 18  1  0
 18 19  2  0
  6 20  1  0
 20 21  2  0
 21  3  1  0
 18  7  1  0
 17 10  1  0
  1 22  1  0
  1 23  1  0
  1 24  1  0
  4 25  1  0
  5 26  1  0
  8 27  1  0
 11 28  1  0
 13 29  1  0
 14 30  1  0
 16 31  1  0
 20 32  1  0
 21 33  1  0
M  END
$$$$
