
     RDKit          3D

 64 68  0  0  0  0  0  0  0  0999 V2000
    7.9772   -0.8814   -0.5082 O   0  0  0  0  0  0  0  0  0  0  0  0
    7.1197   -1.3340   -1.3016 C   0  0  0  0  0  0  0  0  0  0  0  0
    7.4985   -2.2169   -2.2739 O   0  0  0  0  0  0  0  0  0  0  0  0
    5.7349   -0.9053   -1.1662 C   0  0  0  0  0  0  0  0  0  0  0  0
    4.7575   -1.3935   -2.0367 C   0  0  0  0  0  0  0  0  0  0  0  0
    3.4623   -1.0021   -1.9226 C   0  0  0  0  0  0  0  0  0  0  0  0
    3.0630   -0.0956   -0.9282 C   0  0  0  0  0  0  0  0  0  0  0  0
    1.6885    0.2697   -0.9092 N   0  0  0  0  0  0  0  0  0  0  0  0
    0.7141   -0.4296   -0.1517 C   0  0  0  0  0  0  0  0  0  0  0  0
    1.1476   -1.3848    0.5354 O   0  0  0  0  0  0  0  0  0  0  0  0
   -0.6951   -0.1063   -0.1458 C   0  0  2  0  0  0  0  0  0  0  0  0
   -0.9707    1.3495    0.0600 C   0  0  0  0  0  0  0  0  0  0  0  0
   -2.4725    1.6362    0.0647 C   0  0  0  0  0  0  0  0  0  0  0  0
   -2.8165    2.8586    0.8884 C   0  0  0  0  0  0  0  0  0  0  0  0
   -1.8185    3.9468    0.6813 C   0  0  0  0  0  0  0  0  0  0  0  0
   -0.3979    3.5512    0.9183 C   0  0  0  0  0  0  0  0  0  0  0  0
   -0.3910    2.0382    1.2223 C   0  0  0  0  0  0  0  0  0  0  0  0
   -1.5818   -0.9413    0.5952 N   0  0  0  0  0  0  0  0  0  0  0  0
   -2.6715   -1.5608    0.0342 C   0  0  0  0  0  0  0  0  0  0  0  0
   -3.1190   -1.4871   -1.3708 C   0  0  0  0  0  0  0  0  0  0  0  0
   -2.4666   -2.2332   -2.3309 C   0  0  0  0  0  0  0  0  0  0  0  0
   -2.8076   -2.2321   -3.6606 C   0  0  0  0  0  0  0  0  0  0  0  0
   -3.8738   -1.4254   -4.0347 C   0  0  0  0  0  0  0  0  0  0  0  0
   -4.3308   -1.4076   -5.7409 Cl  0  0  0  0  0  0  0  0  0  0  0  0
   -4.5471   -0.6672   -3.0988 C   0  0  0  0  0  0  0  0  0  0  0  0
   -4.1697   -0.6949   -1.7518 C   0  0  0  0  0  0  0  0  0  0  0  0
   -3.2831   -2.2627    0.9933 N   0  0  0  0  0  0  0  0  0  0  0  0
   -2.5882   -2.0887    2.1464 C   0  0  0  0  0  0  0  0  0  0  0  0
   -2.7647   -2.5703    3.4255 C   0  0  0  0  0  0  0  0  0  0  0  0
   -1.8905   -2.2288    4.4323 C   0  0  0  0  0  0  0  0  0  0  0  0
   -0.8284   -1.3979    4.1617 C   0  0  0  0  0  0  0  0  0  0  0  0
   -0.6174   -0.8892    2.8736 C   0  0  0  0  0  0  0  0  0  0  0  0
   -1.5071   -1.2509    1.9002 C   0  0  0  0  0  0  0  0  0  0  0  0
    4.0070    0.3945   -0.0632 C   0  0  0  0  0  0  0  0  0  0  0  0
    3.6347    1.3435    1.0429 C   0  0  0  0  0  0  0  0  0  0  0  0
    3.0303    2.4728    0.5911 F   0  0  0  0  0  0  0  0  0  0  0  0
    2.9196    0.6274    1.9739 F   0  0  0  0  0  0  0  0  0  0  0  0
    4.8404    1.6614    1.7075 F   0  0  0  0  0  0  0  0  0  0  0  0
    5.3321   -0.0172   -0.1944 C   0  0  0  0  0  0  0  0  0  0  0  0
    8.4234   -2.6686   -2.3201 H   0  0  0  0  0  0  0  0  0  0  0  0
    5.0263   -2.0986   -2.8219 H   0  0  0  0  0  0  0  0  0  0  0  0
    2.7201   -1.4081   -2.6268 H   0  0  0  0  0  0  0  0  0  0  0  0
    1.4151    1.1147   -1.5051 H   0  0  0  0  0  0  0  0  0  0  0  0
   -1.0425   -0.2450   -1.2662 H   0  0  0  0  0  0  0  0  0  0  0  0
   -0.6181    1.9455   -0.8590 H   0  0  0  0  0  0  0  0  0  0  0  0
   -2.8794    1.7725   -0.9466 H   0  0  0  0  0  0  0  0  0  0  0  0
   -2.9931    0.7884    0.5450 H   0  0  0  0  0  0  0  0  0  0  0  0
   -3.8007    3.2286    0.5255 H   0  0  0  0  0  0  0  0  0  0  0  0
   -2.9687    2.6005    1.9619 H   0  0  0  0  0  0  0  0  0  0  0  0
   -1.9024    4.2695   -0.3962 H   0  0  0  0  0  0  0  0  0  0  0  0
   -2.1344    4.8297    1.2731 H   0  0  0  0  0  0  0  0  0  0  0  0
    0.2667    3.7126    0.0465 H   0  0  0  0  0  0  0  0  0  0  0  0
   -0.0034    4.0573    1.8402 H   0  0  0  0  0  0  0  0  0  0  0  0
    0.6194    1.7087    1.4615 H   0  0  0  0  0  0  0  0  0  0  0  0
   -1.0262    1.9658    2.1560 H   0  0  0  0  0  0  0  0  0  0  0  0
   -1.6383   -2.8560   -2.0223 H   0  0  0  0  0  0  0  0  0  0  0  0
   -2.2812   -2.8294   -4.4138 H   0  0  0  0  0  0  0  0  0  0  0  0
   -5.3673   -0.0515   -3.4091 H   0  0  0  0  0  0  0  0  0  0  0  0
   -4.6973   -0.0997   -1.0133 H   0  0  0  0  0  0  0  0  0  0  0  0
   -3.6166   -3.2239    3.5964 H   0  0  0  0  0  0  0  0  0  0  0  0
   -2.0070   -2.5920    5.4394 H   0  0  0  0  0  0  0  0  0  0  0  0
   -0.1088   -1.0969    4.9187 H   0  0  0  0  0  0  0  0  0  0  0  0
    0.2260   -0.2399    2.6915 H   0  0  0  0  0  0  0  0  0  0  0  0
    6.0703    0.3708    0.4866 H   0  0  0  0  0  0  0  0  0  0  0  0
  1  2  2  0
  2  3  1  0
  2  4  1  0
  4  5  2  0
  5  6  1  0
  6  7  2  0
  7  8  1  0
  8  9  1  0
  9 10  2  0
  9 11  1  0
 11 12  1  0
 12 13  1  0
 13 14  1  0
 14 15  1  0
 15 16  1  0
 16 17  1  0
 11 18  1  0
 18 19  1  0
 19 20  1  0
 20 21  2  0
 21 22  1  0
 22 23  2  0
 23 24  1  0
 23 25  1  0
 25 26  2  0
 19 27  2  0
 27 28  1  0
 28 29  2  0
 29 30  1  0
 30 31  2  0
 31 32  1  0
 32 33  2  0
  7 34  1  0
 34 35  1  0
 35 36  1  0
 35 37  1  0
 35 38  1  0
 34 39  2  0
 39  4  1  0
 17 12  1  0
 33 18  1  0
 26 20  1  0
 33 28  1  0
  3 40  1  0
  5 41  1  0
  6 42  1  0
  8 43  1  0
 11 44  1  6
 12 45  1  0
 13 46  1  0
 13 47  1  0
 14 48  1  0
 14 49  1  0
 15 50  1  0
 15 51  1  0
 16 52  1  0
 16 53  1  0
 17 54  1  0
 17 55  1  0
 21 56  1  0
 22 57  1  0
 25 58  1  0
 26 59  1  0
 29 60  1  0
 30 61  1  0
 31 62  1  0
 32 63  1  0
 39 64  1  0
M  END
$$$$
