
     RDKit          3D

 41 44  0  0  0  0  0  0  0  0999 V2000
    6.6462    0.2728   -1.7028 C   0  0  0  0  0  0  0  0  0  0  0  0
    5.9190    1.1746   -0.3553 S   0  0  0  0  0  6  0  0  0  0  0  0
    5.9155    2.6335   -0.7386 O   0  0  0  0  0  0  0  0  0  0  0  0
    6.6511    0.9910    0.9228 O   0  0  0  0  0  0  0  0  0  0  0  0
    4.2600    0.6713   -0.1139 C   0  0  0  0  0  0  0  0  0  0  0  0
    3.2607    1.3279   -0.7885 C   0  0  0  0  0  0  0  0  0  0  0  0
    1.9341    0.9793   -0.6415 C   0  0  0  0  0  0  0  0  0  0  0  0
    1.5682   -0.0608    0.2057 C   0  0  0  0  0  0  0  0  0  0  0  0
    0.1741   -0.4175    0.3520 C   0  0  0  0  0  0  0  0  0  0  0  0
   -0.7489    0.6114    0.5156 C   0  0  0  0  0  0  0  0  0  0  0  0
   -2.0265    0.2627    0.6486 N   0  0  0  0  0  0  0  0  0  0  0  0
   -2.4560   -1.0049    0.6326 C   0  0  0  0  0  0  0  0  0  0  0  0
   -3.8356   -1.2859    0.7812 N   0  0  0  0  0  0  0  0  0  0  0  0
   -4.7877   -0.2304    0.9498 C   0  0  0  0  0  0  0  0  0  0  0  0
   -4.7878    0.7127   -0.2158 C   0  0  0  0  0  0  0  0  0  0  0  0
   -5.5899    0.5452   -1.3192 C   0  0  0  0  0  0  0  0  0  0  0  0
   -5.3247    1.5916   -2.1790 C   0  0  0  0  0  0  0  0  0  0  0  0
   -4.3581    2.3545   -1.5426 C   0  0  0  0  0  0  0  0  0  0  0  0
   -4.0800    1.7918   -0.3930 O   0  0  0  0  0  0  0  0  0  0  0  0
   -1.5438   -1.9702    0.4736 N   0  0  0  0  0  0  0  0  0  0  0  0
   -1.7131   -3.3128    0.4227 C   0  0  0  0  0  0  0  0  0  0  0  0
   -0.4893   -3.8455    0.2496 N   0  0  0  0  0  0  0  0  0  0  0  0
    0.4302   -2.9063    0.1903 N   0  0  0  0  0  0  0  0  0  0  0  0
   -0.2220   -1.7324    0.3295 C   0  0  0  0  0  0  0  0  0  0  0  0
    2.5860   -0.7105    0.8765 C   0  0  0  0  0  0  0  0  0  0  0  0
    3.9126   -0.3567    0.7251 C   0  0  0  0  0  0  0  0  0  0  0  0
    7.5476    0.8453   -2.0190 H   0  0  0  0  0  0  0  0  0  0  0  0
    6.8924   -0.7698   -1.4154 H   0  0  0  0  0  0  0  0  0  0  0  0
    5.9324    0.3230   -2.5519 H   0  0  0  0  0  0  0  0  0  0  0  0
    3.4773    2.1597   -1.4748 H   0  0  0  0  0  0  0  0  0  0  0  0
    1.1612    1.5296   -1.1996 H   0  0  0  0  0  0  0  0  0  0  0  0
   -0.4235    1.6399    0.5314 H   0  0  0  0  0  0  0  0  0  0  0  0
   -4.1580   -2.2675    0.7676 H   0  0  0  0  0  0  0  0  0  0  0  0
   -4.4287    0.3906    1.8193 H   0  0  0  0  0  0  0  0  0  0  0  0
   -5.7876   -0.5737    1.2169 H   0  0  0  0  0  0  0  0  0  0  0  0
   -6.2984   -0.2269   -1.5224 H   0  0  0  0  0  0  0  0  0  0  0  0
   -5.7307    1.8275   -3.1337 H   0  0  0  0  0  0  0  0  0  0  0  0
   -3.8984    3.2611   -1.9120 H   0  0  0  0  0  0  0  0  0  0  0  0
   -2.6603   -3.8419    0.5070 H   0  0  0  0  0  0  0  0  0  0  0  0
    2.3578   -1.5257    1.5472 H   0  0  0  0  0  0  0  0  0  0  0  0
    4.7223   -0.8578    1.2454 H   0  0  0  0  0  0  0  0  0  0  0  0
  1  2  1  0
  2  3  2  0
  2  4  2  0
  2  5  1  0
  5  6  2  0
  6  7  1  0
  7  8  2  0
  8  9  1  0
  9 10  2  0
 10 11  1  0
 11 12  2  0
 12 13  1  0
 13 14  1  0
 14 15  1  0
 15 16  2  0
 16 17  1  0
 17 18  2  0
 18 19  1  0
 12 20  1  0
 20 21  1  0
 21 22  2  0
 22 23  1  0
 23 24  2  0
  8 25  1  0
 25 26  2  0
 26  5  1  0
 24  9  1  0
 19 15  1  0
 24 20  1  0
  1 27  1  0
  1 28  1  0
  1 29  1  0
  6 30  1  0
  7 31  1  0
 10 32  1  0
 13 33  1  0
 14 34  1  0
 14 35  1  0
 16 36  1  0
 17 37  1  0
 18 38  1  0
 21 39  1  0
 25 40  1  0
 26 41  1  0
M  END
$$$$
