
     RDKit          3D

 95 98  0  0  0  0  0  0  0  0999 V2000
    0.0863   -2.1869   -2.1831 C   0  0  0  0  0  0  0  0  0  0  0  0
   -0.6534   -1.8929   -0.9361 C   0  0  0  0  0  0  0  0  0  0  0  0
   -1.9780   -2.3065   -0.7482 C   0  0  0  0  0  0  0  0  0  0  0  0
   -2.6416   -2.0271    0.4155 C   0  0  0  0  0  0  0  0  0  0  0  0
   -4.0012   -2.4529    0.6058 N   0  0  0  0  0  0  0  0  0  0  0  0
   -4.7411   -3.1221   -0.4207 C   0  0  0  0  0  0  0  0  0  0  0  0
   -5.9708   -3.7495    0.1593 C   0  0  0  0  0  0  0  0  0  0  0  0
   -6.9579   -2.7743    0.6951 C   0  0  0  0  0  0  0  0  0  0  0  0
   -7.1836   -1.6587   -0.2138 N   0  0  0  0  0  0  0  0  0  0  0  0
   -8.5065   -1.2694   -0.5472 C   0  0  0  0  0  0  0  0  0  0  0  0
   -9.4981   -1.9236   -0.0725 O   0  0  0  0  0  0  0  0  0  0  0  0
   -8.7869   -0.1284   -1.4235 C   0  0  0  0  0  0  0  0  0  0  0  0
  -10.2057   -0.0642   -1.8889 C   0  0  0  0  0  0  0  0  0  0  0  0
  -11.2039    0.0286   -0.9010 N   0  0  0  0  0  0  0  0  0  0  0  0
  -11.2391    1.2478   -0.1865 C   0  0  0  0  0  0  0  0  0  0  0  0
  -12.3445    1.2375    0.8196 C   0  0  0  0  0  0  0  0  0  0  0  0
  -13.0744    0.2449    0.9240 O   0  0  0  0  0  0  0  0  0  0  0  0
  -12.5192    2.3558    1.6145 O   0  0  0  0  0  0  0  0  0  0  0  0
   -5.9897   -1.0247   -0.7466 C   0  0  0  0  0  0  0  0  0  0  0  0
   -5.2023   -2.1268   -1.4733 C   0  0  0  0  0  0  0  0  0  0  0  0
   -1.9963   -1.3386    1.3929 N   0  0  0  0  0  0  0  0  0  0  0  0
   -0.7259   -0.9331    1.2335 C   0  0  0  0  0  0  0  0  0  0  0  0
   -0.0719   -0.2079    2.2714 N   0  0  0  0  0  0  0  0  0  0  0  0
    1.3034    0.1254    2.1034 C   0  0  0  0  0  0  0  0  0  0  0  0
    1.5892    0.9789    0.9264 C   0  0  0  0  0  0  0  0  0  0  0  0
    1.6577    2.3561    0.8827 C   0  0  0  0  0  0  0  0  0  0  0  0
    1.9472    2.7780   -0.3620 N   0  0  0  0  0  0  0  0  0  0  0  0
    2.1182    4.1628   -0.7933 C   0  0  0  0  0  0  0  0  0  0  0  0
    3.5981    4.5286   -0.6536 C   0  0  0  0  0  0  0  0  0  0  0  0
    4.0096    4.3693    0.7739 C   0  0  0  0  0  0  0  0  0  0  0  0
    5.3973    4.6801    1.0364 N   0  0  0  0  0  0  0  0  0  0  0  0
    6.2363    3.7172    0.4144 C   0  0  0  0  0  0  0  0  0  0  0  0
    6.1797    2.3273    0.9713 C   0  0  0  0  0  0  0  0  0  0  0  0
    7.1736    1.4816    0.1544 C   0  0  0  0  0  0  0  0  0  0  0  0
    7.1571    0.1098    0.6291 N   0  0  0  0  0  0  0  0  0  0  0  0
    8.1244   -0.6521   -0.1571 C   0  0  0  0  0  0  0  0  0  0  0  0
    8.0942   -2.1134    0.2402 C   0  0  0  0  0  0  0  0  0  0  0  0
    9.0606   -2.9088   -0.5842 C   0  0  0  0  0  0  0  0  0  0  0  0
   10.4594   -2.3188   -0.5288 C   0  0  0  0  0  0  0  0  0  0  0  0
   10.4817   -1.2356    0.5304 C   0  0  0  0  0  0  0  0  0  0  0  0
    9.5308   -0.1496    0.0838 C   0  0  0  0  0  0  0  0  0  0  0  0
    2.0579    1.6781   -1.0924 N   0  0  0  0  0  0  0  0  0  0  0  0
    1.8496    0.6012   -0.3486 N   0  0  0  0  0  0  0  0  0  0  0  0
   -0.1082   -1.2226    0.0867 N   0  0  0  0  0  0  0  0  0  0  0  0
   -0.6708   -2.3869   -2.9938 H   0  0  0  0  0  0  0  0  0  0  0  0
    0.7917   -3.0422   -2.0614 H   0  0  0  0  0  0  0  0  0  0  0  0
    0.6264   -1.2467   -2.4642 H   0  0  0  0  0  0  0  0  0  0  0  0
   -2.4346   -2.8533   -1.5424 H   0  0  0  0  0  0  0  0  0  0  0  0
   -4.4481   -2.2577    1.5357 H   0  0  0  0  0  0  0  0  0  0  0  0
   -4.0996   -3.9012   -0.8598 H   0  0  0  0  0  0  0  0  0  0  0  0
   -5.6568   -4.4016    1.0126 H   0  0  0  0  0  0  0  0  0  0  0  0
   -6.4172   -4.4607   -0.5819 H   0  0  0  0  0  0  0  0  0  0  0  0
   -6.6801   -2.4132    1.7178 H   0  0  0  0  0  0  0  0  0  0  0  0
   -7.9411   -3.3057    0.8306 H   0  0  0  0  0  0  0  0  0  0  0  0
   -8.5829    0.8331   -0.8764 H   0  0  0  0  0  0  0  0  0  0  0  0
   -8.1014   -0.1056   -2.3093 H   0  0  0  0  0  0  0  0  0  0  0  0
  -10.3416    0.8243   -2.5800 H   0  0  0  0  0  0  0  0  0  0  0  0
  -10.4533   -0.9400   -2.5708 H   0  0  0  0  0  0  0  0  0  0  0  0
  -11.5038   -0.8025   -0.4035 H   0  0  0  0  0  0  0  0  0  0  0  0
  -10.2661    1.4392    0.2989 H   0  0  0  0  0  0  0  0  0  0  0  0
  -11.4192    2.1379   -0.8517 H   0  0  0  0  0  0  0  0  0  0  0  0
  -13.1114    2.2954    2.4497 H   0  0  0  0  0  0  0  0  0  0  0  0
   -5.3737   -0.5453    0.0291 H   0  0  0  0  0  0  0  0  0  0  0  0
   -6.2368   -0.2687   -1.5182 H   0  0  0  0  0  0  0  0  0  0  0  0
   -5.9322   -2.6580   -2.1121 H   0  0  0  0  0  0  0  0  0  0  0  0
   -4.4017   -1.6903   -2.0649 H   0  0  0  0  0  0  0  0  0  0  0  0
   -0.5895    0.0641    3.1137 H   0  0  0  0  0  0  0  0  0  0  0  0
    1.6504    0.6297    3.0544 H   0  0  0  0  0  0  0  0  0  0  0  0
    1.9357   -0.8100    2.0690 H   0  0  0  0  0  0  0  0  0  0  0  0
    1.4924    2.9692    1.7708 H   0  0  0  0  0  0  0  0  0  0  0  0
    1.4954    4.8172   -0.1750 H   0  0  0  0  0  0  0  0  0  0  0  0
    1.8664    4.2946   -1.8590 H   0  0  0  0  0  0  0  0  0  0  0  0
    4.2267    4.0172   -1.3727 H   0  0  0  0  0  0  0  0  0  0  0  0
    3.6283    5.6318   -0.8966 H   0  0  0  0  0  0  0  0  0  0  0  0
    3.4312    5.0795    1.4484 H   0  0  0  0  0  0  0  0  0  0  0  0
    3.8638    3.3255    1.1169 H   0  0  0  0  0  0  0  0  0  0  0  0
    5.6007    5.6086    0.6409 H   0  0  0  0  0  0  0  0  0  0  0  0
    7.2940    4.0627    0.5307 H   0  0  0  0  0  0  0  0  0  0  0  0
    6.0882    3.6289   -0.6824 H   0  0  0  0  0  0  0  0  0  0  0  0
    6.5259    2.3822    2.0365 H   0  0  0  0  0  0  0  0  0  0  0  0
    5.1952    1.8589    0.9864 H   0  0  0  0  0  0  0  0  0  0  0  0
    6.7869    1.4678   -0.8827 H   0  0  0  0  0  0  0  0  0  0  0  0
    8.1467    1.9518    0.2785 H   0  0  0  0  0  0  0  0  0  0  0  0
    7.4707    0.0450    1.6288 H   0  0  0  0  0  0  0  0  0  0  0  0
    7.8960   -0.5585   -1.2310 H   0  0  0  0  0  0  0  0  0  0  0  0
    7.0737   -2.4829   -0.0242 H   0  0  0  0  0  0  0  0  0  0  0  0
    8.2396   -2.2104    1.3227 H   0  0  0  0  0  0  0  0  0  0  0  0
    8.6908   -2.9202   -1.6356 H   0  0  0  0  0  0  0  0  0  0  0  0
    9.0609   -3.9559   -0.2174 H   0  0  0  0  0  0  0  0  0  0  0  0
   10.6835   -1.8533   -1.4999 H   0  0  0  0  0  0  0  0  0  0  0  0
   11.2352   -3.0715   -0.3119 H   0  0  0  0  0  0  0  0  0  0  0  0
   10.1758   -1.6134    1.5169 H   0  0  0  0  0  0  0  0  0  0  0  0
   11.4894   -0.7763    0.5826 H   0  0  0  0  0  0  0  0  0  0  0  0
    9.5617    0.6242    0.8820 H   0  0  0  0  0  0  0  0  0  0  0  0
    9.9267    0.3230   -0.8370 H   0  0  0  0  0  0  0  0  0  0  0  0
  1  2  1  0
  2  3  2  0
  3  4  1  0
  4  5  1  0
  5  6  1  0
  6  7  1  0
  7  8  1  0
  8  9  1  0
  9 10  1  0
 10 11  2  0
 10 12  1  0
 12 13  1  0
 13 14  1  0
 14 15  1  0
 15 16  1  0
 16 17  2  0
 16 18  1  0
  9 19  1  0
 19 20  1  0
  4 21  2  0
 21 22  1  0
 22 23  1  0
 23 24  1  0
 24 25  1  0
 25 26  2  0
 26 27  1  0
 27 28  1  0
 28 29  1  0
 29 30  1  0
 30 31  1  0
 31 32  1  0
 32 33  1  0
 33 34  1  0
 34 35  1  0
 35 36  1  0
 36 37  1  0
 37 38  1  0
 38 39  1  0
 39 40  1  0
 40 41  1  0
 27 42  1  0
 42 43  2  0
 22 44  2  0
 44  2  1  0
 20  6  1  0
 43 25  1  0
 41 36  1  0
  1 45  1  0
  1 46  1  0
  1 47  1  0
  3 48  1  0
  5 49  1  0
  6 50  1  0
  7 51  1  0
  7 52  1  0
  8 53  1  0
  8 54  1  0
 12 55  1  0
 12 56  1  0
 13 57  1  0
 13 58  1  0
 14 59  1  0
 15 60  1  0
 15 61  1  0
 18 62  1  0
 19 63  1  0
 19 64  1  0
 20 65  1  0
 20 66  1  0
 23 67  1  0
 24 68  1  0
 24 69  1  0
 26 70  1  0
 28 71  1  0
 28 72  1  0
 29 73  1  0
 29 74  1  0
 30 75  1  0
 30 76  1  0
 31 77  1  0
 32 78  1  0
 32 79  1  0
 33 80  1  0
 33 81  1  0
 34 82  1  0
 34 83  1  0
 35 84  1  0
 36 85  1  0
 37 86  1  0
 37 87  1  0
 38 88  1  0
 38 89  1  0
 39 90  1  0
 39 91  1  0
 40 92  1  0
 40 93  1  0
 41 94  1  0
 41 95  1  0
M  END
$$$$
