
     RDKit          3D

 29 28  0  0  0  0  0  0  0  0999 V2000
   -3.9150   -1.4583    0.9813 O   0  0  0  0  0  0  0  0  0  0  0  0
   -3.0470   -1.6566   -0.1064 C   0  0  0  0  0  0  0  0  0  0  0  0
   -2.5693   -0.3292   -0.5110 C   0  0  0  0  0  0  0  0  0  0  0  0
   -3.3102   -0.0685    0.4296 O   0  0  0  0  0  0  0  0  0  0  0  0
   -1.8166    0.6538   -1.2982 C   0  0  1  0  0  0  0  0  0  0  0  0
   -2.1075    1.9118   -0.7734 O   0  0  0  0  0  0  0  0  0  0  0  0
   -0.3355    0.3168   -1.1027 C   0  0  2  0  0  0  0  0  0  0  0  0
   -0.0475   -0.9383   -1.6269 O   0  0  0  0  0  0  0  0  0  0  0  0
   -0.0757    0.2914    0.3856 C   0  0  2  0  0  0  0  0  0  0  0  0
   -0.3677    1.5508    0.8942 O   0  0  0  0  0  0  0  0  0  0  0  0
    1.3659   -0.0876    0.6626 C   0  0  0  0  0  0  0  0  0  0  0  0
    2.2171    0.8217    0.0782 O   0  0  0  0  0  0  0  0  0  0  0  0
    3.8434    0.4559    0.3503 P   0  0  0  0  0  0  0  0  0  0  0  0
    4.3025   -0.6942   -0.8048 O   0  0  0  0  0  0  0  0  0  0  0  0
    4.0954   -0.2012    1.8819 O   0  0  0  0  0  0  0  0  0  0  0  0
    4.7235    1.6585    0.1559 O   0  0  0  0  0  0  0  0  0  0  0  0
   -4.8429   -1.4736    0.6327 H   0  0  0  0  0  0  0  0  0  0  0  0
   -2.1976   -2.2663    0.2618 H   0  0  0  0  0  0  0  0  0  0  0  0
   -3.5784   -2.1971   -0.9180 H   0  0  0  0  0  0  0  0  0  0  0  0
   -2.0348    0.6518   -2.3851 H   0  0  0  0  0  0  0  0  0  0  0  0
   -3.0112    1.9476   -0.3792 H   0  0  0  0  0  0  0  0  0  0  0  0
    0.2871    1.0948   -1.5829 H   0  0  0  0  0  0  0  0  0  0  0  0
   -0.1122   -1.6474   -0.9337 H   0  0  0  0  0  0  0  0  0  0  0  0
   -0.7583   -0.4430    0.8651 H   0  0  0  0  0  0  0  0  0  0  0  0
    0.4880    2.0429    0.9760 H   0  0  0  0  0  0  0  0  0  0  0  0
    1.5096   -0.1513    1.7612 H   0  0  0  0  0  0  0  0  0  0  0  0
    1.5693   -1.0764    0.2290 H   0  0  0  0  0  0  0  0  0  0  0  0
    5.2225   -0.9549   -0.5745 H   0  0  0  0  0  0  0  0  0  0  0  0
    4.5033    0.5043    2.4518 H   0  0  0  0  0  0  0  0  0  0  0  0
  1  2  1  0
  2  3  1  0
  3  4  2  0
  3  5  1  0
  5  6  1  0
  5  7  1  0
  7  8  1  0
  7  9  1  0
  9 10  1  0
  9 11  1  0
 11 12  1  0
 12 13  1  0
 13 14  1  0
 13 15  1  0
 13 16  2  0
  1 17  1  0
  2 18  1  0
  2 19  1  0
  5 20  1  6
  6 21  1  0
  7 22  1  6
  8 23  1  0
  9 24  1  1
 10 25  1  0
 11 26  1  0
 11 27  1  0
 14 28  1  0
 15 29  1  0
M  END
$$$$
