
     RDKit          3D

 54 56  0  0  0  0  0  0  0  0999 V2000
   -6.2129    0.2235    2.0455 C   0  0  0  0  0  0  0  0  0  0  0  0
   -5.9353   -0.4487    0.7454 C   0  0  0  0  0  0  0  0  0  0  0  0
   -5.6712    0.4842   -0.3151 N   0  0  0  0  0  0  0  0  0  0  0  0
   -5.5544   -0.1834   -1.6054 C   0  0  0  0  0  0  0  0  0  0  0  0
   -5.4657    0.8640   -2.6850 C   0  0  0  0  0  0  0  0  0  0  0  0
   -4.5096    1.3266   -0.0710 C   0  0  0  0  0  0  0  0  0  0  0  0
   -3.2725    0.6051    0.2275 C   0  0  0  0  0  0  0  0  0  0  0  0
   -2.4462    0.1433   -0.7669 C   0  0  0  0  0  0  0  0  0  0  0  0
   -1.2551   -0.5323   -0.4720 C   0  0  0  0  0  0  0  0  0  0  0  0
   -0.8659   -0.7595    0.8025 C   0  0  0  0  0  0  0  0  0  0  0  0
    0.3299   -1.4161    1.2658 C   0  0  0  0  0  0  0  0  0  0  0  0
    1.5301   -1.1519    0.7849 C   0  0  0  0  0  0  0  0  0  0  0  0
    1.8520   -0.1871   -0.2590 C   0  0  0  0  0  0  0  0  0  0  0  0
    3.3491   -0.0985   -0.2480 C   0  0  0  0  0  0  0  0  0  0  0  0
    4.2336    0.7369   -0.9409 C   0  0  0  0  0  0  0  0  0  0  0  0
    5.5999    0.6148   -0.8289 C   0  0  0  0  0  0  0  0  0  0  0  0
    6.4910    1.4249   -1.4992 O   0  0  0  0  0  0  0  0  0  0  0  0
    6.1917    2.4613   -2.3795 C   0  0  0  0  0  0  0  0  0  0  0  0
    6.1514   -0.3715   -0.0000 C   0  0  0  0  0  0  0  0  0  0  0  0
    7.5310   -0.4942    0.1090 O   0  0  0  0  0  0  0  0  0  0  0  0
    8.1006   -1.4873    0.9397 C   0  0  0  0  0  0  0  0  0  0  0  0
    5.2653   -1.1757    0.6685 C   0  0  0  0  0  0  0  0  0  0  0  0
    3.8922   -1.0637    0.5673 C   0  0  0  0  0  0  0  0  0  0  0  0
    2.8001   -1.7567    1.2328 C   0  0  0  0  0  0  0  0  0  0  0  0
    2.8930   -2.7061    2.0495 O   0  0  0  0  0  0  0  0  0  0  0  0
   -1.7172   -0.2839    1.8102 C   0  0  0  0  0  0  0  0  0  0  0  0
   -2.8956    0.3848    1.5307 C   0  0  0  0  0  0  0  0  0  0  0  0
   -7.2699    0.0338    2.3821 H   0  0  0  0  0  0  0  0  0  0  0  0
   -5.5923   -0.3006    2.8196 H   0  0  0  0  0  0  0  0  0  0  0  0
   -6.0842    1.3056    2.0638 H   0  0  0  0  0  0  0  0  0  0  0  0
   -6.8716   -0.9975    0.4326 H   0  0  0  0  0  0  0  0  0  0  0  0
   -5.1639   -1.2440    0.8206 H   0  0  0  0  0  0  0  0  0  0  0  0
   -4.7530   -0.9168   -1.6583 H   0  0  0  0  0  0  0  0  0  0  0  0
   -6.5412   -0.7083   -1.7761 H   0  0  0  0  0  0  0  0  0  0  0  0
   -4.4615    1.2287   -2.9040 H   0  0  0  0  0  0  0  0  0  0  0  0
   -5.9738    0.5124   -3.6295 H   0  0  0  0  0  0  0  0  0  0  0  0
   -6.0631    1.7672   -2.3864 H   0  0  0  0  0  0  0  0  0  0  0  0
   -4.7912    2.0557    0.7116 H   0  0  0  0  0  0  0  0  0  0  0  0
   -4.4130    1.9568   -1.0075 H   0  0  0  0  0  0  0  0  0  0  0  0
   -2.6494    0.2658   -1.8171 H   0  0  0  0  0  0  0  0  0  0  0  0
   -0.6685   -0.8717   -1.2907 H   0  0  0  0  0  0  0  0  0  0  0  0
    0.2979   -2.1890    2.0617 H   0  0  0  0  0  0  0  0  0  0  0  0
    1.3804    0.8021   -0.1448 H   0  0  0  0  0  0  0  0  0  0  0  0
    1.6304   -0.5680   -1.3033 H   0  0  0  0  0  0  0  0  0  0  0  0
    3.8396    1.5069   -1.5894 H   0  0  0  0  0  0  0  0  0  0  0  0
    6.2740    2.0505   -3.4234 H   0  0  0  0  0  0  0  0  0  0  0  0
    6.9173    3.3029   -2.3276 H   0  0  0  0  0  0  0  0  0  0  0  0
    5.1732    2.8874   -2.2793 H   0  0  0  0  0  0  0  0  0  0  0  0
    9.1634   -1.6560    0.7400 H   0  0  0  0  0  0  0  0  0  0  0  0
    7.5780   -2.4462    0.7077 H   0  0  0  0  0  0  0  0  0  0  0  0
    7.8931   -1.2792    2.0122 H   0  0  0  0  0  0  0  0  0  0  0  0
    5.6848   -1.9454    1.3145 H   0  0  0  0  0  0  0  0  0  0  0  0
   -1.4698   -0.4310    2.8544 H   0  0  0  0  0  0  0  0  0  0  0  0
   -3.4747    0.7250    2.3949 H   0  0  0  0  0  0  0  0  0  0  0  0
  1  2  1  0
  2  3  1  0
  3  4  1  0
  4  5  1  0
  3  6  1  0
  6  7  1  0
  7  8  2  0
  8  9  1  0
  9 10  2  0
 10 11  1  0
 11 12  2  0
 12 13  1  0
 13 14  1  0
 14 15  2  0
 15 16  1  0
 16 17  1  0
 17 18  1  0
 16 19  2  0
 19 20  1  0
 20 21  1  0
 19 22  1  0
 22 23  2  0
 23 24  1  0
 24 25  2  0
 10 26  1  0
 26 27  2  0
 27  7  1  0
 24 12  1  0
 23 14  1  0
  1 28  1  0
  1 29  1  0
  1 30  1  0
  2 31  1  0
  2 32  1  0
  4 33  1  0
  4 34  1  0
  5 35  1  0
  5 36  1  0
  5 37  1  0
  6 38  1  0
  6 39  1  0
  8 40  1  0
  9 41  1  0
 11 42  1  0
 13 43  1  0
 13 44  1  0
 15 45  1  0
 18 46  1  0
 18 47  1  0
 18 48  1  0
 21 49  1  0
 21 50  1  0
 21 51  1  0
 22 52  1  0
 26 53  1  0
 27 54  1  0
M  END
$$$$
