
     RDKit          3D

 43 46  0  0  0  0  0  0  0  0999 V2000
    3.3056   -1.8507   -1.1765 C   0  0  0  0  0  0  0  0  0  0  0  0
    4.0439   -0.9702   -0.2399 C   0  0  0  0  0  0  0  0  0  0  0  0
    5.4083   -1.2374   -0.0191 C   0  0  0  0  0  0  0  0  0  0  0  0
    6.1436   -0.4394    0.8162 C   0  0  0  0  0  0  0  0  0  0  0  0
    5.5273    0.6198    1.4301 C   0  0  0  0  0  0  0  0  0  0  0  0
    4.2421    0.8365    1.1961 N   0  0  0  0  0  0  0  0  0  0  0  0
    3.4485    0.0987    0.3891 C   0  0  0  0  0  0  0  0  0  0  0  0
    1.9715    0.4198    0.2193 C   0  0  2  0  0  0  0  0  0  0  0  0
    1.1420   -0.4618    1.0785 C   0  0  0  0  0  0  0  0  0  0  0  0
   -0.2768   -0.3115    1.0062 N   0  0  0  0  0  0  0  0  0  0  0  0
   -1.0575   -0.5810   -0.1432 C   0  0  0  0  0  0  0  0  0  0  0  0
   -0.4846   -0.9961   -1.1795 O   0  0  0  0  0  0  0  0  0  0  0  0
   -2.5043   -0.3944   -0.1687 C   0  0  0  0  0  0  0  0  0  0  0  0
   -3.3182    0.0450    0.8426 C   0  0  0  0  0  0  0  0  0  0  0  0
   -4.6038    0.0554    0.3430 C   0  0  0  0  0  0  0  0  0  0  0  0
   -5.8309    0.3871    0.8535 C   0  0  0  0  0  0  0  0  0  0  0  0
   -6.9996    0.3010    0.1061 C   0  0  0  0  0  0  0  0  0  0  0  0
   -8.5656    0.7251    0.7599 Cl  0  0  0  0  0  0  0  0  0  0  0  0
   -6.9180   -0.1354   -1.1989 C   0  0  0  0  0  0  0  0  0  0  0  0
   -5.6896   -0.4725   -1.7253 C   0  0  0  0  0  0  0  0  0  0  0  0
   -4.5227   -0.3810   -0.9621 C   0  0  0  0  0  0  0  0  0  0  0  0
   -3.2739   -0.6260   -1.1975 O   0  0  0  0  0  0  0  0  0  0  0  0
    1.6259    0.6478   -1.1208 N   0  0  0  0  0  0  0  0  0  0  0  0
    0.8473    1.8418   -1.2083 C   0  0  0  0  0  0  0  0  0  0  0  0
    0.1351    2.1946   -2.1769 O   0  0  0  0  0  0  0  0  0  0  0  0
    1.0146    2.5676   -0.0091 N   0  0  0  0  0  0  0  0  0  0  0  0
    1.8872    1.8331    0.8133 C   0  0  0  0  0  0  0  0  0  0  0  0
    2.4905    2.2076    1.8250 O   0  0  0  0  0  0  0  0  0  0  0  0
    3.5403   -1.5866   -2.2460 H   0  0  0  0  0  0  0  0  0  0  0  0
    3.7651   -2.8849   -1.0800 H   0  0  0  0  0  0  0  0  0  0  0  0
    2.2540   -1.9888   -0.9925 H   0  0  0  0  0  0  0  0  0  0  0  0
    5.8643   -2.0847   -0.5216 H   0  0  0  0  0  0  0  0  0  0  0  0
    7.2004   -0.6105    1.0146 H   0  0  0  0  0  0  0  0  0  0  0  0
    6.1084    1.2602    2.0971 H   0  0  0  0  0  0  0  0  0  0  0  0
    1.4619   -1.5344    1.0954 H   0  0  0  0  0  0  0  0  0  0  0  0
    1.4147   -0.1429    2.1547 H   0  0  0  0  0  0  0  0  0  0  0  0
   -0.8599    0.0250    1.8424 H   0  0  0  0  0  0  0  0  0  0  0  0
   -3.0286    0.3364    1.8564 H   0  0  0  0  0  0  0  0  0  0  0  0
   -5.8820    0.7330    1.8934 H   0  0  0  0  0  0  0  0  0  0  0  0
   -7.8291   -0.2091   -1.8016 H   0  0  0  0  0  0  0  0  0  0  0  0
   -5.5965   -0.8190   -2.7497 H   0  0  0  0  0  0  0  0  0  0  0  0
    1.8569    0.0958   -2.0103 H   0  0  0  0  0  0  0  0  0  0  0  0
    0.5421    3.4871    0.1722 H   0  0  0  0  0  0  0  0  0  0  0  0
  1  2  1  0
  2  3  2  0
  3  4  1  0
  4  5  2  0
  5  6  1  0
  6  7  2  0
  7  8  1  0
  8  9  1  1
  9 10  1  0
 10 11  1  0
 11 12  2  0
 11 13  1  0
 13 14  2  0
 14 15  1  0
 15 16  2  0
 16 17  1  0
 17 18  1  0
 17 19  2  0
 19 20  1  0
 20 21  2  0
 21 22  1  0
  8 23  1  0
 23 24  1  0
 24 25  2  0
 24 26  1  0
 26 27  1  0
 27 28  2  0
  7  2  1  0
 27  8  1  0
 22 13  1  0
 21 15  1  0
  1 29  1  0
  1 30  1  0
  1 31  1  0
  3 32  1  0
  4 33  1  0
  5 34  1  0
  9 35  1  0
  9 36  1  0
 10 37  1  0
 14 38  1  0
 16 39  1  0
 19 40  1  0
 20 41  1  0
 23 42  1  0
 26 43  1  0
M  END
$$$$
