
     RDKit          3D

 60 62  0  0  0  0  0  0  0  0999 V2000
   -0.1765   -3.0618    0.9157 O   0  0  0  0  0  0  0  0  0  0  0  0
   -1.1774   -2.8693    1.6801 C   0  0  0  0  0  0  0  0  0  0  0  0
   -1.6360   -1.4778    1.8324 C   0  0  0  0  0  0  0  0  0  0  0  0
   -0.8197   -0.5031    1.0368 C   0  0  1  0  0  0  0  0  0  0  0  0
   -1.2816    0.9123    1.1880 C   0  0  0  0  0  0  0  0  0  0  0  0
   -2.6942    1.1451    0.7535 C   0  0  0  0  0  0  0  0  0  0  0  0
   -2.8438    0.7866   -0.7075 C   0  0  0  0  0  0  0  0  0  0  0  0
   -4.2529    1.0031   -1.1998 C   0  0  0  0  0  0  0  0  0  0  0  0
   -4.7120    2.4259   -1.0682 C   0  0  0  0  0  0  0  0  0  0  0  0
   -5.9392    2.5993   -1.9385 C   0  0  0  0  0  0  0  0  0  0  0  0
   -6.5653    1.2847   -2.2709 C   0  0  0  0  0  0  0  0  0  0  0  0
   -6.5960    0.3207   -1.1164 C   0  0  0  0  0  0  0  0  0  0  0  0
   -5.2502    0.1261   -0.4840 C   0  0  0  0  0  0  0  0  0  0  0  0
    0.5851   -0.5649    1.5580 C   0  0  0  0  0  0  0  0  0  0  0  0
    1.7151   -0.8599    0.8660 N   0  0  0  0  0  0  0  0  0  0  0  0
    2.7671   -0.8132    1.6776 C   0  0  0  0  0  0  0  0  0  0  0  0
    4.1783   -1.0495    1.4118 C   0  0  0  0  0  0  0  0  0  0  0  0
    5.0409   -0.9575    2.3197 O   0  0  0  0  0  0  0  0  0  0  0  0
    4.6581   -1.3974    0.1099 N   0  0  0  0  0  0  0  0  0  0  0  0
    6.3217   -1.6791   -0.2179 S   0  0  0  0  0  6  0  0  0  0  0  0
    7.0306   -2.2529    0.9961 O   0  0  0  0  0  0  0  0  0  0  0  0
    6.4031   -2.7363   -1.2878 O   0  0  0  0  0  0  0  0  0  0  0  0
    7.1555   -0.2187   -0.6899 C   0  0  0  0  0  0  0  0  0  0  0  0
    7.2182    0.1346   -2.0365 C   0  0  0  0  0  0  0  0  0  0  0  0
    7.8771    1.2940   -2.4376 C   0  0  0  0  0  0  0  0  0  0  0  0
    8.4806    2.1147   -1.5062 C   0  0  0  0  0  0  0  0  0  0  0  0
    8.4172    1.7665   -0.1931 C   0  0  0  0  0  0  0  0  0  0  0  0
    7.7625    0.6101    0.2295 C   0  0  0  0  0  0  0  0  0  0  0  0
    2.2815   -0.4852    2.8865 N   0  0  0  0  0  0  0  0  0  0  0  0
    0.9813   -0.3434    2.7873 O   0  0  0  0  0  0  0  0  0  0  0  0
   -1.7848   -3.9718    2.3292 N   0  0  0  0  0  0  0  0  0  0  0  0
   -1.2772   -5.2071    2.1144 O   0  0  0  0  0  0  0  0  0  0  0  0
   -1.5351   -1.2007    2.9019 H   0  0  0  0  0  0  0  0  0  0  0  0
   -2.7117   -1.4485    1.5994 H   0  0  0  0  0  0  0  0  0  0  0  0
   -0.8030   -0.7441   -0.0460 H   0  0  0  0  0  0  0  0  0  0  0  0
   -1.1301    1.2177    2.2428 H   0  0  0  0  0  0  0  0  0  0  0  0
   -0.6311    1.5746    0.5813 H   0  0  0  0  0  0  0  0  0  0  0  0
   -2.8910    2.2359    0.8318 H   0  0  0  0  0  0  0  0  0  0  0  0
   -3.4419    0.6468    1.3891 H   0  0  0  0  0  0  0  0  0  0  0  0
   -2.5666   -0.2458   -0.9405 H   0  0  0  0  0  0  0  0  0  0  0  0
   -2.1848    1.4550   -1.2995 H   0  0  0  0  0  0  0  0  0  0  0  0
   -4.2680    0.7185   -2.2730 H   0  0  0  0  0  0  0  0  0  0  0  0
   -3.9193    3.1581   -1.3129 H   0  0  0  0  0  0  0  0  0  0  0  0
   -5.0365    2.5618    0.0050 H   0  0  0  0  0  0  0  0  0  0  0  0
   -6.6691    3.3031   -1.4921 H   0  0  0  0  0  0  0  0  0  0  0  0
   -5.5617    3.0341   -2.9087 H   0  0  0  0  0  0  0  0  0  0  0  0
   -7.6292    1.4806   -2.5525 H   0  0  0  0  0  0  0  0  0  0  0  0
   -6.1096    0.7881   -3.1476 H   0  0  0  0  0  0  0  0  0  0  0  0
   -6.9140   -0.6675   -1.5242 H   0  0  0  0  0  0  0  0  0  0  0  0
   -7.3765    0.6219   -0.3821 H   0  0  0  0  0  0  0  0  0  0  0  0
   -5.3268    0.5149    0.5737 H   0  0  0  0  0  0  0  0  0  0  0  0
   -4.9446   -0.9270   -0.4226 H   0  0  0  0  0  0  0  0  0  0  0  0
    3.9229   -1.4692   -0.6345 H   0  0  0  0  0  0  0  0  0  0  0  0
    6.7437   -0.5120   -2.7617 H   0  0  0  0  0  0  0  0  0  0  0  0
    7.9272    1.5715   -3.4885 H   0  0  0  0  0  0  0  0  0  0  0  0
    8.9848    3.0143   -1.8798 H   0  0  0  0  0  0  0  0  0  0  0  0
    8.8782    2.3893    0.5414 H   0  0  0  0  0  0  0  0  0  0  0  0
    7.7193    0.3421    1.2898 H   0  0  0  0  0  0  0  0  0  0  0  0
   -2.6032   -3.7852    2.9498 H   0  0  0  0  0  0  0  0  0  0  0  0
   -1.7899   -5.7029    1.4374 H   0  0  0  0  0  0  0  0  0  0  0  0
  1  2  2  0
  2  3  1  0
  3  4  1  0
  4  5  1  0
  5  6  1  0
  6  7  1  0
  7  8  1  0
  8  9  1  0
  9 10  1  0
 10 11  1  0
 11 12  1  0
 12 13  1  0
  4 14  1  0
 14 15  2  0
 15 16  1  0
 16 17  1  0
 17 18  2  0
 17 19  1  0
 19 20  1  0
 20 21  2  0
 20 22  2  0
 20 23  1  0
 23 24  2  0
 24 25  1  0
 25 26  2  0
 26 27  1  0
 27 28  2  0
 16 29  2  0
 29 30  1  0
  2 31  1  0
 31 32  1  0
 13  8  1  0
 30 14  1  0
 28 23  1  0
  3 33  1  0
  3 34  1  0
  4 35  1  6
  5 36  1  0
  5 37  1  0
  6 38  1  0
  6 39  1  0
  7 40  1  0
  7 41  1  0
  8 42  1  0
  9 43  1  0
  9 44  1  0
 10 45  1  0
 10 46  1  0
 11 47  1  0
 11 48  1  0
 12 49  1  0
 12 50  1  0
 13 51  1  0
 13 52  1  0
 19 53  1  0
 24 54  1  0
 25 55  1  0
 26 56  1  0
 27 57  1  0
 28 58  1  0
 31 59  1  0
 32 60  1  0
M  END
$$$$
