
     RDKit          3D

 34 36  0  0  0  0  0  0  0  0999 V2000
   -2.3901   -2.9925    1.6038 C   0  0  0  0  0  0  0  0  0  0  0  0
   -2.1621   -1.7559    1.0140 O   0  0  0  0  0  0  0  0  0  0  0  0
   -0.9649   -1.3684    0.3747 C   0  0  0  0  0  0  0  0  0  0  0  0
   -0.0814   -2.2188    0.3575 O   0  0  0  0  0  0  0  0  0  0  0  0
   -0.9177   -0.0262   -0.1820 C   0  0  0  0  0  0  0  0  0  0  0  0
    0.1830    0.3760   -0.7761 C   0  0  0  0  0  0  0  0  0  0  0  0
    1.4609   -0.2506   -0.4895 C   0  0  0  0  0  0  0  0  0  0  0  0
    1.8198   -0.3962    0.8326 C   0  0  0  0  0  0  0  0  0  0  0  0
    3.0026   -1.0023    1.1653 C   0  0  0  0  0  0  0  0  0  0  0  0
    3.8662   -1.4820    0.2050 C   0  0  0  0  0  0  0  0  0  0  0  0
    5.5345   -2.3315    0.6673 Br  0  0  0  0  0  0  0  0  0  0  0  0
    3.4776   -1.3208   -1.1227 C   0  0  0  0  0  0  0  0  0  0  0  0
    2.2993   -0.7179   -1.4749 C   0  0  0  0  0  0  0  0  0  0  0  0
    0.0494    1.5270   -1.7312 C   0  0  0  0  0  0  0  0  0  0  0  0
   -1.2325    2.3004   -1.4179 C   0  0  0  0  0  0  0  0  0  0  0  0
   -1.1243    2.9551   -0.0475 C   0  0  0  0  0  0  0  0  0  0  0  0
   -1.9334    2.0038    0.8354 C   0  0  0  0  0  0  0  0  0  0  0  0
   -2.1309    0.8431   -0.0866 C   0  0  0  0  0  0  0  0  0  0  0  0
   -2.3163    1.4228   -1.3489 O   0  0  0  0  0  0  0  0  0  0  0  0
   -2.2510   -3.8588    0.9628 H   0  0  0  0  0  0  0  0  0  0  0  0
   -3.4604   -2.9816    1.9370 H   0  0  0  0  0  0  0  0  0  0  0  0
   -1.8140   -3.0653    2.5505 H   0  0  0  0  0  0  0  0  0  0  0  0
    1.1583   -0.0277    1.6439 H   0  0  0  0  0  0  0  0  0  0  0  0
    3.2843   -1.1141    2.2219 H   0  0  0  0  0  0  0  0  0  0  0  0
    4.1502   -1.6990   -1.8812 H   0  0  0  0  0  0  0  0  0  0  0  0
    2.0012   -0.5968   -2.5251 H   0  0  0  0  0  0  0  0  0  0  0  0
    0.8748    2.2614   -1.5881 H   0  0  0  0  0  0  0  0  0  0  0  0
   -0.0369    1.1968   -2.7842 H   0  0  0  0  0  0  0  0  0  0  0  0
   -1.4289    3.0123   -2.2328 H   0  0  0  0  0  0  0  0  0  0  0  0
   -1.6373    3.9363   -0.0105 H   0  0  0  0  0  0  0  0  0  0  0  0
   -0.0707    3.0090    0.2928 H   0  0  0  0  0  0  0  0  0  0  0  0
   -1.3320    1.6743    1.6984 H   0  0  0  0  0  0  0  0  0  0  0  0
   -2.8874    2.4744    1.1442 H   0  0  0  0  0  0  0  0  0  0  0  0
   -2.9898    0.2135    0.1921 H   0  0  0  0  0  0  0  0  0  0  0  0
  1  2  1  0
  2  3  1  0
  3  4  2  0
  3  5  1  0
  5  6  2  0
  6  7  1  0
  7  8  2  0
  8  9  1  0
  9 10  2  0
 10 11  1  0
 10 12  1  0
 12 13  2  0
  6 14  1  0
 14 15  1  0
 15 16  1  0
 16 17  1  0
 17 18  1  0
 18 19  1  0
 18  5  1  0
 13  7  1  0
 19 15  1  0
  1 20  1  0
  1 21  1  0
  1 22  1  0
  8 23  1  0
  9 24  1  0
 12 25  1  0
 13 26  1  0
 14 27  1  0
 14 28  1  0
 15 29  1  0
 16 30  1  0
 16 31  1  0
 17 32  1  0
 17 33  1  0
 18 34  1  0
M  END
$$$$
