
     RDKit          3D

 78 81  0  0  0  0  0  0  0  0999 V2000
   -1.9096    0.7569   -0.3870 C   0  0  1  0  0  0  0  0  0  0  0  0
   -1.7142    2.2665   -0.2070 C   0  0  0  0  0  0  0  0  0  0  0  0
   -0.2357    2.4902   -0.5467 C   0  0  0  0  0  0  0  0  0  0  0  0
    0.3135    1.1160   -0.6099 C   0  0  1  0  0  0  0  0  0  0  0  0
    1.7143    0.9734   -0.1726 C   0  0  2  0  0  0  0  0  0  0  0  0
    2.6055    1.6351   -1.2409 C   0  0  0  0  0  0  0  0  0  0  0  0
    3.9426    1.7263   -0.5893 C   0  0  0  0  0  0  0  0  0  0  0  0
    4.2939    0.6651    0.1707 C   0  0  0  0  0  0  0  0  0  0  0  0
    5.6304    0.7093    0.8474 C   0  0  0  0  0  0  0  0  0  0  0  0
    6.4417   -0.3730    0.1427 C   0  0  2  0  0  0  0  0  0  0  0  0
    5.7105   -1.6672    0.3000 C   0  0  0  0  0  0  0  0  0  0  0  0
    4.3193   -1.6863   -0.2328 C   0  0  0  0  0  0  0  0  0  0  0  0
    3.4912   -0.5666    0.4156 C   0  0  1  0  0  0  0  0  0  0  0  0
    3.4002   -0.9098    1.8982 C   0  0  0  0  0  0  0  0  0  0  0  0
    2.1400   -0.4602   -0.1902 C   0  0  1  0  0  0  0  0  0  0  0  0
    1.1400   -1.3998    0.3856 C   0  0  0  0  0  0  0  0  0  0  0  0
   -0.2617   -1.1695   -0.1421 C   0  0  0  0  0  0  0  0  0  0  0  0
   -0.6665    0.2396    0.1886 C   0  0  2  0  0  0  0  0  0  0  0  0
   -0.4872    0.4055    1.6574 C   0  0  0  0  0  0  0  0  0  0  0  0
    7.6775   -0.4558    0.7292 O   0  0  0  0  0  0  0  0  0  0  0  0
    8.9088   -0.0452   -0.3342 S   0  0  0  0  0  0  0  0  0  0  0  0
    8.7808    1.5509   -0.8439 O   0  0  0  0  0  0  0  0  0  0  0  0
    8.9324   -0.9122   -1.5528 O   0  0  0  0  0  0  0  0  0  0  0  0
   10.2295   -0.1442    0.3865 O   0  0  0  0  0  0  0  0  0  0  0  0
   -3.2452    0.3766    0.1051 C   0  0  2  0  0  0  0  0  0  0  0  0
   -3.5201    0.6376    1.5423 C   0  0  0  0  0  0  0  0  0  0  0  0
   -3.7536   -0.9487   -0.3144 C   0  0  0  0  0  0  0  0  0  0  0  0
   -5.1533   -1.2395    0.2233 C   0  0  0  0  0  0  0  0  0  0  0  0
   -6.1896   -0.2740   -0.2480 C   0  0  0  0  0  0  0  0  0  0  0  0
   -7.5698   -0.5796    0.3107 C   0  0  0  0  0  0  0  0  0  0  0  0
   -8.5663    0.4582   -0.2232 C   0  0  0  0  0  0  0  0  0  0  0  0
   -8.0815   -1.9082   -0.2049 C   0  0  0  0  0  0  0  0  0  0  0  0
   -1.8937    0.5923   -1.4832 H   0  0  0  0  0  0  0  0  0  0  0  0
   -1.8288    2.6069    0.8174 H   0  0  0  0  0  0  0  0  0  0  0  0
   -2.3516    2.8519   -0.8873 H   0  0  0  0  0  0  0  0  0  0  0  0
    0.2641    3.1618    0.1590 H   0  0  0  0  0  0  0  0  0  0  0  0
   -0.1947    2.9531   -1.5669 H   0  0  0  0  0  0  0  0  0  0  0  0
    0.2449    0.7423   -1.6553 H   0  0  0  0  0  0  0  0  0  0  0  0
    1.9660    1.5246    0.7573 H   0  0  0  0  0  0  0  0  0  0  0  0
    2.7062    0.9629   -2.1069 H   0  0  0  0  0  0  0  0  0  0  0  0
    2.1912    2.6288   -1.4895 H   0  0  0  0  0  0  0  0  0  0  0  0
    4.6319    2.5528   -0.6764 H   0  0  0  0  0  0  0  0  0  0  0  0
    5.5885    0.5981    1.9298 H   0  0  0  0  0  0  0  0  0  0  0  0
    6.0982    1.7176    0.6737 H   0  0  0  0  0  0  0  0  0  0  0  0
    6.5482   -0.0530   -0.9035 H   0  0  0  0  0  0  0  0  0  0  0  0
    6.2886   -2.4447   -0.2816 H   0  0  0  0  0  0  0  0  0  0  0  0
    5.7978   -2.0038    1.3527 H   0  0  0  0  0  0  0  0  0  0  0  0
    4.3430   -1.5445   -1.3182 H   0  0  0  0  0  0  0  0  0  0  0  0
    3.8720   -2.6555    0.0199 H   0  0  0  0  0  0  0  0  0  0  0  0
    4.3814   -0.9675    2.3726 H   0  0  0  0  0  0  0  0  0  0  0  0
    2.9614   -1.9256    1.9750 H   0  0  0  0  0  0  0  0  0  0  0  0
    2.8370   -0.1285    2.4465 H   0  0  0  0  0  0  0  0  0  0  0  0
    2.2540   -0.7574   -1.2746 H   0  0  0  0  0  0  0  0  0  0  0  0
    1.4137   -2.4330    0.0852 H   0  0  0  0  0  0  0  0  0  0  0  0
    1.0614   -1.3998    1.4881 H   0  0  0  0  0  0  0  0  0  0  0  0
   -0.3861   -1.4196   -1.2038 H   0  0  0  0  0  0  0  0  0  0  0  0
   -0.8951   -1.8692    0.4857 H   0  0  0  0  0  0  0  0  0  0  0  0
   -0.9637    1.2874    2.1091 H   0  0  0  0  0  0  0  0  0  0  0  0
    0.6065    0.5399    1.9069 H   0  0  0  0  0  0  0  0  0  0  0  0
   -0.7250   -0.5602    2.1510 H   0  0  0  0  0  0  0  0  0  0  0  0
    8.4083    2.1301   -0.1114 H   0  0  0  0  0  0  0  0  0  0  0  0
   -3.9331    1.1237   -0.4264 H   0  0  0  0  0  0  0  0  0  0  0  0
   -4.6084    0.5514    1.7197 H   0  0  0  0  0  0  0  0  0  0  0  0
   -3.0765   -0.1028    2.2440 H   0  0  0  0  0  0  0  0  0  0  0  0
   -3.3037    1.6974    1.8592 H   0  0  0  0  0  0  0  0  0  0  0  0
   -3.8910   -0.9698   -1.4329 H   0  0  0  0  0  0  0  0  0  0  0  0
   -3.1471   -1.8240   -0.0160 H   0  0  0  0  0  0  0  0  0  0  0  0
   -5.3847   -2.2816   -0.1650 H   0  0  0  0  0  0  0  0  0  0  0  0
   -5.1908   -1.3161    1.3205 H   0  0  0  0  0  0  0  0  0  0  0  0
   -5.9204    0.7914   -0.2056 H   0  0  0  0  0  0  0  0  0  0  0  0
   -6.3044   -0.4712   -1.3626 H   0  0  0  0  0  0  0  0  0  0  0  0
   -7.5878   -0.6365    1.4183 H   0  0  0  0  0  0  0  0  0  0  0  0
   -9.5509    0.0074   -0.4389 H   0  0  0  0  0  0  0  0  0  0  0  0
   -8.2026    0.9263   -1.1478 H   0  0  0  0  0  0  0  0  0  0  0  0
   -8.7607    1.2545    0.5261 H   0  0  0  0  0  0  0  0  0  0  0  0
   -8.1953   -1.9411   -1.2905 H   0  0  0  0  0  0  0  0  0  0  0  0
   -7.4157   -2.6941    0.2007 H   0  0  0  0  0  0  0  0  0  0  0  0
   -9.0705   -2.0704    0.2972 H   0  0  0  0  0  0  0  0  0  0  0  0
  1  2  1  0
  2  3  1  0
  3  4  1  0
  4  5  1  0
  5  6  1  0
  6  7  1  0
  7  8  2  0
  8  9  1  0
  9 10  1  0
 10 11  1  0
 11 12  1  0
 12 13  1  0
 13 14  1  1
 13 15  1  0
 15 16  1  0
 16 17  1  0
 17 18  1  0
 18 19  1  1
 10 20  1  0
 20 21  1  0
 21 22  1  0
 21 23  2  0
 21 24  2  0
  1 25  1  0
 25 26  1  0
 25 27  1  0
 27 28  1  0
 28 29  1  0
 29 30  1  0
 30 31  1  0
 30 32  1  0
 18  1  1  0
 18  4  1  0
 15  5  1  0
 13  8  1  0
  1 33  1  6
  2 34  1  0
  2 35  1  0
  3 36  1  0
  3 37  1  0
  4 38  1  6
  5 39  1  1
  6 40  1  0
  6 41  1  0
  7 42  1  0
  9 43  1  0
  9 44  1  0
 10 45  1  6
 11 46  1  0
 11 47  1  0
 12 48  1  0
 12 49  1  0
 14 50  1  0
 14 51  1  0
 14 52  1  0
 15 53  1  6
 16 54  1  0
 16 55  1  0
 17 56  1  0
 17 57  1  0
 19 58  1  0
 19 59  1  0
 19 60  1  0
 22 61  1  0
 25 62  1  6
 26 63  1  0
 26 64  1  0
 26 65  1  0
 27 66  1  0
 27 67  1  0
 28 68  1  0
 28 69  1  0
 29 70  1  0
 29 71  1  0
 30 72  1  0
 31 73  1  0
 31 74  1  0
 31 75  1  0
 32 76  1  0
 32 77  1  0
 32 78  1  0
M  END
$$$$
