
     RDKit          3D

 52 56  0  0  0  0  0  0  0  0999 V2000
    0.3637   -1.2235    2.9550 C   0  0  0  0  0  0  0  0  0  0  0  0
    1.4700   -0.8414    2.0383 C   0  0  0  0  0  0  0  0  0  0  0  0
    2.7847   -0.7766    2.4505 C   0  0  0  0  0  0  0  0  0  0  0  0
    3.7909   -0.4112    1.5477 C   0  0  0  0  0  0  0  0  0  0  0  0
    3.5183   -0.1056    0.2318 C   0  0  0  0  0  0  0  0  0  0  0  0
    4.5595    0.2776   -0.7218 C   0  0  0  0  0  0  0  0  0  0  0  0
    4.2155    0.5393   -1.9049 O   0  0  0  0  0  0  0  0  0  0  0  0
    5.9284    0.3771   -0.4160 N   0  0  0  0  0  0  0  0  0  0  0  0
    6.9456    0.7584   -1.3742 C   0  0  0  0  0  0  0  0  0  0  0  0
    7.9336    1.8409   -0.8465 C   0  0  0  0  0  0  0  0  0  0  0  0
    8.3637    0.4505   -1.1002 C   0  0  0  0  0  0  0  0  0  0  0  0
    2.1858   -0.1774   -0.1624 C   0  0  0  0  0  0  0  0  0  0  0  0
    1.1884   -0.5369    0.7218 C   0  0  0  0  0  0  0  0  0  0  0  0
   -0.2098   -0.6088    0.2950 C   0  0  0  0  0  0  0  0  0  0  0  0
   -0.7403   -1.7778   -0.2063 C   0  0  0  0  0  0  0  0  0  0  0  0
   -2.0577   -1.8362   -0.6057 C   0  0  0  0  0  0  0  0  0  0  0  0
   -2.8468   -2.8479   -1.1352 C   0  0  0  0  0  0  0  0  0  0  0  0
   -4.0512   -2.3502   -1.3366 N   0  0  0  0  0  0  0  0  0  0  0  0
   -4.1085   -1.0544   -0.9681 N   0  0  0  0  0  0  0  0  0  0  0  0
   -5.2757   -0.2600   -1.0711 C   0  0  0  0  0  0  0  0  0  0  0  0
   -5.7413    0.2472   -2.2623 C   0  0  0  0  0  0  0  0  0  0  0  0
   -5.0702    0.0085   -3.4027 F   0  0  0  0  0  0  0  0  0  0  0  0
   -6.9005    1.0118   -2.3352 C   0  0  0  0  0  0  0  0  0  0  0  0
   -7.6000    1.2692   -1.1953 C   0  0  0  0  0  0  0  0  0  0  0  0
   -7.1631    0.7785    0.0073 C   0  0  0  0  0  0  0  0  0  0  0  0
   -5.9943    0.0098    0.0678 C   0  0  0  0  0  0  0  0  0  0  0  0
   -5.5852   -0.4604    1.2517 F   0  0  0  0  0  0  0  0  0  0  0  0
   -2.8915   -0.7275   -0.5179 C   0  0  0  0  0  0  0  0  0  0  0  0
   -2.3693    0.4026   -0.0307 N   0  0  0  0  0  0  0  0  0  0  0  0
   -3.2119    1.5802    0.0757 C   0  0  0  0  0  0  0  0  0  0  0  0
   -1.0624    0.4634    0.3664 C   0  0  0  0  0  0  0  0  0  0  0  0
   -0.6291    1.5444    0.8133 O   0  0  0  0  0  0  0  0  0  0  0  0
    0.3462   -2.3118    3.1058 H   0  0  0  0  0  0  0  0  0  0  0  0
    0.5191   -0.7625    3.9623 H   0  0  0  0  0  0  0  0  0  0  0  0
   -0.5966   -0.8301    2.5549 H   0  0  0  0  0  0  0  0  0  0  0  0
    3.0434   -1.0079    3.4728 H   0  0  0  0  0  0  0  0  0  0  0  0
    4.8194   -0.3650    1.8876 H   0  0  0  0  0  0  0  0  0  0  0  0
    6.2446    0.1671    0.5533 H   0  0  0  0  0  0  0  0  0  0  0  0
    6.5611    0.9706   -2.3867 H   0  0  0  0  0  0  0  0  0  0  0  0
    7.7388    2.2269    0.1716 H   0  0  0  0  0  0  0  0  0  0  0  0
    8.2315    2.6243   -1.5751 H   0  0  0  0  0  0  0  0  0  0  0  0
    8.5735   -0.1617   -0.2022 H   0  0  0  0  0  0  0  0  0  0  0  0
    9.0906    0.2936   -1.9105 H   0  0  0  0  0  0  0  0  0  0  0  0
    1.9364    0.0568   -1.1915 H   0  0  0  0  0  0  0  0  0  0  0  0
   -0.1289   -2.6661   -0.2930 H   0  0  0  0  0  0  0  0  0  0  0  0
   -2.4413   -3.8378   -1.3118 H   0  0  0  0  0  0  0  0  0  0  0  0
   -7.2718    1.4126   -3.2632 H   0  0  0  0  0  0  0  0  0  0  0  0
   -8.5124    1.8630   -1.2064 H   0  0  0  0  0  0  0  0  0  0  0  0
   -7.6954    0.9659    0.9237 H   0  0  0  0  0  0  0  0  0  0  0  0
   -3.7770    1.5309    1.0426 H   0  0  0  0  0  0  0  0  0  0  0  0
   -3.8612    1.7661   -0.7724 H   0  0  0  0  0  0  0  0  0  0  0  0
   -2.5591    2.5018    0.2292 H   0  0  0  0  0  0  0  0  0  0  0  0
  1  2  1  0
  2  3  2  0
  3  4  1  0
  4  5  2  0
  5  6  1  0
  6  7  2  0
  6  8  1  0
  8  9  1  0
  9 10  1  0
 10 11  1  0
  5 12  1  0
 12 13  2  0
 13 14  1  0
 14 15  2  0
 15 16  1  0
 16 17  1  0
 17 18  2  0
 18 19  1  0
 19 20  1  0
 20 21  2  0
 21 22  1  0
 21 23  1  0
 23 24  2  0
 24 25  1  0
 25 26  2  0
 26 27  1  0
 19 28  1  0
 28 29  1  0
 29 30  1  0
 29 31  1  0
 31 32  2  0
 13  2  1  0
 31 14  1  0
 11  9  1  0
 28 16  2  0
 26 20  1  0
  1 33  1  0
  1 34  1  0
  1 35  1  0
  3 36  1  0
  4 37  1  0
  8 38  1  0
  9 39  1  0
 10 40  1  0
 10 41  1  0
 11 42  1  0
 11 43  1  0
 12 44  1  0
 15 45  1  0
 17 46  1  0
 23 47  1  0
 24 48  1  0
 25 49  1  0
 30 50  1  0
 30 51  1  0
 30 52  1  0
M  END
$$$$
