
     RDKit          3D

 34 35  0  0  0  0  0  0  0  0999 V2000
    0.4602   -2.4346   -1.3594 S   0  0  0  0  0  0  0  0  0  0  0  0
    1.3054   -1.1992   -0.7128 C   0  0  0  0  0  0  0  0  0  0  0  0
    0.6955   -0.3231    0.2030 N   0  0  0  0  0  0  0  0  0  0  0  0
   -0.6896   -0.4660    0.5719 C   0  0  0  0  0  0  0  0  0  0  0  0
   -1.5490   -0.1028   -0.6177 C   0  0  0  0  0  0  0  0  0  0  0  0
   -3.0051   -0.2322   -0.2729 C   0  0  0  0  0  0  0  0  0  0  0  0
   -3.6364   -1.4245   -0.5080 C   0  0  0  0  0  0  0  0  0  0  0  0
   -4.9722   -1.5593   -0.1925 C   0  0  0  0  0  0  0  0  0  0  0  0
   -5.6281   -0.5015    0.3455 C   0  0  0  0  0  0  0  0  0  0  0  0
   -5.0144    0.7268    0.5984 C   0  0  0  0  0  0  0  0  0  0  0  0
   -3.6831    0.8449    0.2781 C   0  0  0  0  0  0  0  0  0  0  0  0
    2.6598   -1.0699   -1.0924 N   0  0  0  0  0  0  0  0  0  0  0  0
    3.4283   -0.0302   -0.5139 C   0  0  0  0  0  0  0  0  0  0  0  0
    3.3284    1.2539   -0.9953 C   0  0  0  0  0  0  0  0  0  0  0  0
    2.2167    1.5825   -2.2996 Cl  0  0  0  0  0  0  0  0  0  0  0  0
    4.0970    2.2868   -0.4571 C   0  0  0  0  0  0  0  0  0  0  0  0
    4.9639    1.9906    0.5744 C   0  0  0  0  0  0  0  0  0  0  0  0
    5.0815    0.7136    1.0741 C   0  0  0  0  0  0  0  0  0  0  0  0
    4.3197   -0.3038    0.5388 C   0  0  0  0  0  0  0  0  0  0  0  0
    4.4102   -1.9569    1.1123 Cl  0  0  0  0  0  0  0  0  0  0  0  0
    1.2264    0.4676    0.6520 H   0  0  0  0  0  0  0  0  0  0  0  0
   -0.8539   -1.5252    0.8762 H   0  0  0  0  0  0  0  0  0  0  0  0
   -0.9454    0.2013    1.4475 H   0  0  0  0  0  0  0  0  0  0  0  0
   -1.3702    0.9751   -0.8622 H   0  0  0  0  0  0  0  0  0  0  0  0
   -1.2987   -0.6973   -1.4917 H   0  0  0  0  0  0  0  0  0  0  0  0
   -3.1344   -2.2590   -0.9311 H   0  0  0  0  0  0  0  0  0  0  0  0
   -5.4922   -2.5048   -0.3760 H   0  0  0  0  0  0  0  0  0  0  0  0
   -6.6705   -0.5775    0.6024 H   0  0  0  0  0  0  0  0  0  0  0  0
   -5.5441    1.5592    1.0255 H   0  0  0  0  0  0  0  0  0  0  0  0
   -3.1365    1.7710    0.4454 H   0  0  0  0  0  0  0  0  0  0  0  0
    3.1149   -1.7117   -1.7808 H   0  0  0  0  0  0  0  0  0  0  0  0
    3.9830    3.2943   -0.8723 H   0  0  0  0  0  0  0  0  0  0  0  0
    5.5790    2.7693    1.0152 H   0  0  0  0  0  0  0  0  0  0  0  0
    5.7538    0.4426    1.8851 H   0  0  0  0  0  0  0  0  0  0  0  0
  1  2  2  0
  2  3  1  0
  3  4  1  0
  4  5  1  0
  5  6  1  0
  6  7  2  0
  7  8  1  0
  8  9  2  0
  9 10  1  0
 10 11  2  0
  2 12  1  0
 12 13  1  0
 13 14  2  0
 14 15  1  0
 14 16  1  0
 16 17  2  0
 17 18  1  0
 18 19  2  0
 19 20  1  0
 11  6  1  0
 19 13  1  0
  3 21  1  0
  4 22  1  0
  4 23  1  0
  5 24  1  0
  5 25  1  0
  7 26  1  0
  8 27  1  0
  9 28  1  0
 10 29  1  0
 11 30  1  0
 12 31  1  0
 16 32  1  0
 17 33  1  0
 18 34  1  0
M  END
$$$$
