
     RDKit          3D

 74 77  0  0  0  0  0  0  0  0999 V2000
   -5.1334   -1.6082   -2.3509 C   0  0  0  0  0  0  0  0  0  0  0  0
   -4.1237   -0.5160   -2.2790 C   0  0  0  0  0  0  0  0  0  0  0  0
   -2.7037   -0.9174   -2.2741 C   0  0  0  0  0  0  0  0  0  0  0  0
   -2.3063   -1.7126   -1.0829 C   0  0  0  0  0  0  0  0  0  0  0  0
   -2.3833   -1.0693    0.1989 N   0  0  0  0  0  0  0  0  0  0  0  0
   -3.5340   -1.1908    1.0197 C   0  0  0  0  0  0  0  0  0  0  0  0
   -4.4640   -1.9425    0.6455 O   0  0  0  0  0  0  0  0  0  0  0  0
   -3.7085   -0.5028    2.2784 C   0  0  0  0  0  0  0  0  0  0  0  0
   -4.3441    0.7930    2.4138 C   0  0  0  0  0  0  0  0  0  0  0  0
   -5.7260    1.0716    2.0469 C   0  0  0  0  0  0  0  0  0  0  0  0
   -6.2047    0.9063    0.6613 C   0  0  0  0  0  0  0  0  0  0  0  0
   -6.1020    2.5208    2.4410 C   0  0  0  0  0  0  0  0  0  0  0  0
   -2.3817   -0.4092    2.9331 N   0  0  0  0  0  0  0  0  0  0  0  0
   -1.1870   -0.3922    2.1755 C   0  0  0  0  0  0  0  0  0  0  0  0
   -0.1069   -0.4855    2.7818 O   0  0  0  0  0  0  0  0  0  0  0  0
   -1.2284   -0.2669    0.7008 C   0  0  0  0  0  0  0  0  0  0  0  0
   -1.3656    1.1771    0.3669 C   0  0  0  0  0  0  0  0  0  0  0  0
   -0.3482    1.7662   -0.5270 C   0  0  0  0  0  0  0  0  0  0  0  0
    1.0024    1.3471   -0.3577 N   0  0  0  0  0  0  0  0  0  0  0  0
    1.6708    1.4946   -1.6200 C   0  0  0  0  0  0  0  0  0  0  0  0
    3.0757    1.1152   -1.6732 C   0  0  0  0  0  0  0  0  0  0  0  0
    3.5501   -0.1018   -2.0912 C   0  0  0  0  0  0  0  0  0  0  0  0
    4.9137   -0.3924   -2.1008 C   0  0  0  0  0  0  0  0  0  0  0  0
    5.8381    0.5348   -1.6900 C   0  0  0  0  0  0  0  0  0  0  0  0
    7.2122    0.2840   -1.6840 O   0  0  0  0  0  0  0  0  0  0  0  0
    7.7732   -0.2620   -0.5275 C   0  0  0  0  0  0  0  0  0  0  0  0
    8.2279    0.6203    0.4315 C   0  0  0  0  0  0  0  0  0  0  0  0
    8.7955    0.1610    1.6030 C   0  0  0  0  0  0  0  0  0  0  0  0
    8.8939   -1.2085    1.7848 C   0  0  0  0  0  0  0  0  0  0  0  0
    8.4383   -2.1041    0.8236 C   0  0  0  0  0  0  0  0  0  0  0  0
    7.8723   -1.6375   -0.3444 C   0  0  0  0  0  0  0  0  0  0  0  0
    5.3832    1.7705   -1.2642 C   0  0  0  0  0  0  0  0  0  0  0  0
    4.0333    2.0492   -1.2578 C   0  0  0  0  0  0  0  0  0  0  0  0
    1.2341    0.0927    0.2416 C   0  0  0  0  0  0  0  0  0  0  0  0
   -0.0034   -0.7825    0.0062 C   0  0  0  0  0  0  0  0  0  0  0  0
   -4.8191   -2.5911   -1.9966 H   0  0  0  0  0  0  0  0  0  0  0  0
   -5.4945   -1.7408   -3.3953 H   0  0  0  0  0  0  0  0  0  0  0  0
   -6.0027   -1.3178   -1.6977 H   0  0  0  0  0  0  0  0  0  0  0  0
   -4.3647    0.1841   -1.4367 H   0  0  0  0  0  0  0  0  0  0  0  0
   -4.2795    0.1252   -3.2029 H   0  0  0  0  0  0  0  0  0  0  0  0
   -2.0399   -0.0358   -2.4562 H   0  0  0  0  0  0  0  0  0  0  0  0
   -2.5251   -1.5736   -3.1717 H   0  0  0  0  0  0  0  0  0  0  0  0
   -1.3216   -2.2391   -1.2269 H   0  0  0  0  0  0  0  0  0  0  0  0
   -3.0101   -2.6177   -1.1048 H   0  0  0  0  0  0  0  0  0  0  0  0
   -4.2562   -1.1887    3.0339 H   0  0  0  0  0  0  0  0  0  0  0  0
   -4.2548    1.0569    3.5280 H   0  0  0  0  0  0  0  0  0  0  0  0
   -3.7154    1.6538    1.9840 H   0  0  0  0  0  0  0  0  0  0  0  0
   -6.4600    0.4751    2.6885 H   0  0  0  0  0  0  0  0  0  0  0  0
   -6.3835   -0.1094    0.3284 H   0  0  0  0  0  0  0  0  0  0  0  0
   -5.6810    1.5703   -0.0767 H   0  0  0  0  0  0  0  0  0  0  0  0
   -7.2533    1.3713    0.6559 H   0  0  0  0  0  0  0  0  0  0  0  0
   -5.3969    3.2166    1.9678 H   0  0  0  0  0  0  0  0  0  0  0  0
   -7.1566    2.7024    2.2128 H   0  0  0  0  0  0  0  0  0  0  0  0
   -5.9157    2.5531    3.5425 H   0  0  0  0  0  0  0  0  0  0  0  0
   -2.2963   -0.3521    3.9781 H   0  0  0  0  0  0  0  0  0  0  0  0
   -1.4306    1.8261    1.2918 H   0  0  0  0  0  0  0  0  0  0  0  0
   -2.3657    1.3112   -0.1151 H   0  0  0  0  0  0  0  0  0  0  0  0
   -0.6641    1.7135   -1.6132 H   0  0  0  0  0  0  0  0  0  0  0  0
   -0.3407    2.8859   -0.3462 H   0  0  0  0  0  0  0  0  0  0  0  0
    1.1275    0.9019   -2.4029 H   0  0  0  0  0  0  0  0  0  0  0  0
    1.6074    2.5483   -2.0058 H   0  0  0  0  0  0  0  0  0  0  0  0
    2.8201   -0.8376   -2.4255 H   0  0  0  0  0  0  0  0  0  0  0  0
    5.2371   -1.3667   -2.4394 H   0  0  0  0  0  0  0  0  0  0  0  0
    8.1333    1.6876    0.2533 H   0  0  0  0  0  0  0  0  0  0  0  0
    9.1422    0.8758    2.3361 H   0  0  0  0  0  0  0  0  0  0  0  0
    9.3332   -1.5838    2.6908 H   0  0  0  0  0  0  0  0  0  0  0  0
    8.5312   -3.1625    0.9989 H   0  0  0  0  0  0  0  0  0  0  0  0
    7.5062   -2.3140   -1.1163 H   0  0  0  0  0  0  0  0  0  0  0  0
    6.1314    2.4921   -0.9430 H   0  0  0  0  0  0  0  0  0  0  0  0
    3.6913    3.0170   -0.9231 H   0  0  0  0  0  0  0  0  0  0  0  0
    1.5227    0.1382    1.3138 H   0  0  0  0  0  0  0  0  0  0  0  0
    2.0566   -0.4881   -0.2253 H   0  0  0  0  0  0  0  0  0  0  0  0
    0.2054   -1.8391    0.1842 H   0  0  0  0  0  0  0  0  0  0  0  0
   -0.1772   -0.5957   -1.0973 H   0  0  0  0  0  0  0  0  0  0  0  0
  1  2  1  0
  2  3  1  0
  3  4  1  0
  4  5  1  0
  5  6  1  0
  6  7  2  0
  6  8  1  0
  8  9  1  0
  9 10  1  0
 10 11  1  0
 10 12  1  0
  8 13  1  0
 13 14  1  0
 14 15  2  0
 14 16  1  0
 16 17  1  0
 17 18  1  0
 18 19  1  0
 19 20  1  0
 20 21  1  0
 21 22  2  0
 22 23  1  0
 23 24  2  0
 24 25  1  0
 25 26  1  0
 26 27  2  0
 27 28  1  0
 28 29  2  0
 29 30  1  0
 30 31  2  0
 24 32  1  0
 32 33  2  0
 19 34  1  0
 34 35  1  0
 16  5  1  0
 33 21  1  0
 35 16  1  0
 31 26  1  0
  1 36  1  0
  1 37  1  0
  1 38  1  0
  2 39  1  0
  2 40  1  0
  3 41  1  0
  3 42  1  0
  4 43  1  0
  4 44  1  0
  8 45  1  0
  9 46  1  0
  9 47  1  0
 10 48  1  0
 11 49  1  0
 11 50  1  0
 11 51  1  0
 12 52  1  0
 12 53  1  0
 12 54  1  0
 13 55  1  0
 17 56  1  0
 17 57  1  0
 18 58  1  0
 18 59  1  0
 20 60  1  0
 20 61  1  0
 22 62  1  0
 23 63  1  0
 27 64  1  0
 28 65  1  0
 29 66  1  0
 30 67  1  0
 31 68  1  0
 32 69  1  0
 33 70  1  0
 34 71  1  0
 34 72  1  0
 35 73  1  0
 35 74  1  0
M  END
$$$$
