
     RDKit          3D

 53 56  0  0  0  0  0  0  0  0999 V2000
   -8.4487    1.0443   -0.0371 O   0  0  0  0  0  0  0  0  0  0  0  0
   -7.7227    1.9451   -0.5350 C   0  0  0  0  0  0  0  0  0  0  0  0
   -7.3419    3.0319    0.2722 O   0  0  0  0  0  0  0  0  0  0  0  0
   -7.2631    1.8783   -1.9498 C   0  0  0  0  0  0  0  0  0  0  0  0
   -6.5336    0.5894   -2.2156 C   0  0  0  0  0  0  0  0  0  0  0  0
   -5.3439    0.5604   -1.2877 C   0  0  0  0  0  0  0  0  0  0  0  0
   -5.1807    1.4825   -0.4671 O   0  0  0  0  0  0  0  0  0  0  0  0
   -4.4377   -0.5120   -1.3683 N   0  0  0  0  0  0  0  0  0  0  0  0
   -3.2683   -0.6883   -0.5675 C   0  0  0  0  0  0  0  0  0  0  0  0
   -2.4530   -1.7845   -0.8504 C   0  0  0  0  0  0  0  0  0  0  0  0
   -1.3185   -2.0215   -0.1221 C   0  0  0  0  0  0  0  0  0  0  0  0
   -0.9130   -1.2183    0.9123 C   0  0  0  0  0  0  0  0  0  0  0  0
    0.3041   -1.5190    1.6429 C   0  0  0  0  0  0  0  0  0  0  0  0
    0.2956   -2.3296    2.7585 C   0  0  0  0  0  0  0  0  0  0  0  0
   -0.9224   -2.8458    3.1749 O   0  0  0  0  0  0  0  0  0  0  0  0
    1.4244   -2.6474    3.4734 C   0  0  0  0  0  0  0  0  0  0  0  0
    2.6285   -2.1318    3.0561 C   0  0  0  0  0  0  0  0  0  0  0  0
    2.6682   -1.3181    1.9441 C   0  0  0  0  0  0  0  0  0  0  0  0
    3.8573   -0.7712    1.4815 C   0  0  0  0  0  0  0  0  0  0  0  0
    3.9450    0.0453    0.3787 C   0  0  0  0  0  0  0  0  0  0  0  0
    5.2317    0.5900   -0.0801 C   0  0  0  0  0  0  0  0  0  0  0  0
    6.2740    0.8874    0.7767 C   0  0  0  0  0  0  0  0  0  0  0  0
    7.4803    1.3973    0.3714 C   0  0  0  0  0  0  0  0  0  0  0  0
    7.6947    1.6382   -0.9680 C   0  0  0  0  0  0  0  0  0  0  0  0
    6.6735    1.3527   -1.8512 C   0  0  0  0  0  0  0  0  0  0  0  0
    6.8796    1.5954   -3.2158 O   0  0  0  0  0  0  0  0  0  0  0  0
    5.4678    0.8404   -1.4255 C   0  0  0  0  0  0  0  0  0  0  0  0
    2.7885    0.3373   -0.3048 C   0  0  0  0  0  0  0  0  0  0  0  0
    1.5639   -0.1837    0.1139 C   0  0  0  0  0  0  0  0  0  0  0  0
    1.5392   -0.9964    1.2256 C   0  0  0  0  0  0  0  0  0  0  0  0
   -1.7049   -0.1373    1.2026 C   0  0  0  0  0  0  0  0  0  0  0  0
   -2.8721    0.1095    0.4544 C   0  0  0  0  0  0  0  0  0  0  0  0
   -7.1633    2.8383    1.2593 H   0  0  0  0  0  0  0  0  0  0  0  0
   -8.1571    1.9964   -2.5720 H   0  0  0  0  0  0  0  0  0  0  0  0
   -6.5986    2.7437   -2.1911 H   0  0  0  0  0  0  0  0  0  0  0  0
   -7.1483   -0.2977   -2.0598 H   0  0  0  0  0  0  0  0  0  0  0  0
   -6.1462    0.6204   -3.2542 H   0  0  0  0  0  0  0  0  0  0  0  0
   -4.6762   -1.2465   -2.1047 H   0  0  0  0  0  0  0  0  0  0  0  0
   -2.7240   -2.4352   -1.6429 H   0  0  0  0  0  0  0  0  0  0  0  0
   -0.6757   -2.8810   -0.3432 H   0  0  0  0  0  0  0  0  0  0  0  0
   -1.3980   -2.4096    3.9847 H   0  0  0  0  0  0  0  0  0  0  0  0
    1.3475   -3.2992    4.3574 H   0  0  0  0  0  0  0  0  0  0  0  0
    3.5108   -2.3785    3.6106 H   0  0  0  0  0  0  0  0  0  0  0  0
    4.7559   -1.0136    2.0340 H   0  0  0  0  0  0  0  0  0  0  0  0
    6.1228    0.7018    1.8347 H   0  0  0  0  0  0  0  0  0  0  0  0
    8.3024    1.6298    1.0471 H   0  0  0  0  0  0  0  0  0  0  0  0
    8.6323    2.0414   -1.3337 H   0  0  0  0  0  0  0  0  0  0  0  0
    7.7457    1.9999   -3.5422 H   0  0  0  0  0  0  0  0  0  0  0  0
    4.6832    0.6270   -2.1138 H   0  0  0  0  0  0  0  0  0  0  0  0
    2.8254    0.9782   -1.1770 H   0  0  0  0  0  0  0  0  0  0  0  0
    0.6653    0.0581   -0.4378 H   0  0  0  0  0  0  0  0  0  0  0  0
   -1.4508    0.5441    2.0052 H   0  0  0  0  0  0  0  0  0  0  0  0
   -3.4450    0.9618    0.7340 H   0  0  0  0  0  0  0  0  0  0  0  0
  1  2  2  0
  2  3  1  0
  2  4  1  0
  4  5  1  0
  5  6  1  0
  6  7  2  0
  6  8  1  0
  8  9  1  0
  9 10  2  0
 10 11  1  0
 11 12  2  0
 12 13  1  0
 13 14  2  0
 14 15  1  0
 14 16  1  0
 16 17  2  0
 17 18  1  0
 18 19  2  0
 19 20  1  0
 20 21  1  0
 21 22  2  0
 22 23  1  0
 23 24  2  0
 24 25  1  0
 25 26  1  0
 25 27  2  0
 20 28  2  0
 28 29  1  0
 29 30  2  0
 12 31  1  0
 31 32  2  0
 32  9  1  0
 30 13  1  0
 30 18  1  0
 27 21  1  0
  3 33  1  0
  4 34  1  0
  4 35  1  0
  5 36  1  0
  5 37  1  0
  8 38  1  0
 10 39  1  0
 11 40  1  0
 15 41  1  0
 16 42  1  0
 17 43  1  0
 19 44  1  0
 22 45  1  0
 23 46  1  0
 24 47  1  0
 26 48  1  0
 27 49  1  0
 28 50  1  0
 29 51  1  0
 31 52  1  0
 32 53  1  0
M  END
$$$$
