
     RDKit          3D

 26 26  0  0  0  0  0  0  0  0999 V2000
   -0.6078    0.5719   -0.5528 C   0  0  2  0  0  0  0  0  0  0  0  0
   -1.1412    1.5513    0.4491 C   0  0  0  0  0  0  0  0  0  0  0  0
   -2.2493    2.3291   -0.0668 N   0  0  0  0  0  0  0  0  0  0  0  0
   -1.5858   -0.4274   -1.0238 C   0  0  0  0  0  0  0  0  0  0  0  0
   -2.1975   -1.3183   -0.0536 C   0  0  0  0  0  0  0  0  0  0  0  0
   -2.4564   -1.8700    1.1865 O   0  0  0  0  0  0  0  0  0  0  0  0
   -3.0167   -2.1186   -0.6184 O   0  0  0  0  0  0  0  0  0  0  0  0
    0.7211    0.0715   -0.1545 C   0  0  0  0  0  0  0  0  0  0  0  0
    1.8684    0.4158   -0.8858 C   0  0  0  0  0  0  0  0  0  0  0  0
    3.1371   -0.0187   -0.5655 C   0  0  0  0  0  0  0  0  0  0  0  0
    3.2952   -0.8376    0.5336 C   0  0  0  0  0  0  0  0  0  0  0  0
    4.9395   -1.3571    0.8885 Cl  0  0  0  0  0  0  0  0  0  0  0  0
    2.2159   -1.2074    1.2852 C   0  0  0  0  0  0  0  0  0  0  0  0
    0.9839   -0.7497    0.9245 C   0  0  0  0  0  0  0  0  0  0  0  0
   -0.3979    1.2019   -1.4710 H   0  0  0  0  0  0  0  0  0  0  0  0
   -0.3330    2.2563    0.7201 H   0  0  0  0  0  0  0  0  0  0  0  0
   -1.4935    1.0881    1.3821 H   0  0  0  0  0  0  0  0  0  0  0  0
   -2.2612    2.1915   -1.1164 H   0  0  0  0  0  0  0  0  0  0  0  0
   -2.1881    3.3339    0.1780 H   0  0  0  0  0  0  0  0  0  0  0  0
   -2.4045    0.1505   -1.5260 H   0  0  0  0  0  0  0  0  0  0  0  0
   -1.1201   -1.0293   -1.8273 H   0  0  0  0  0  0  0  0  0  0  0  0
   -1.9853   -2.6626    1.5648 H   0  0  0  0  0  0  0  0  0  0  0  0
    1.7838    1.0604   -1.7598 H   0  0  0  0  0  0  0  0  0  0  0  0
    3.9819    0.2837   -1.1716 H   0  0  0  0  0  0  0  0  0  0  0  0
    2.3648   -1.8571    2.1519 H   0  0  0  0  0  0  0  0  0  0  0  0
    0.1466   -1.0521    1.5291 H   0  0  0  0  0  0  0  0  0  0  0  0
  1  2  1  0
  2  3  1  0
  1  4  1  0
  4  5  1  0
  5  6  1  0
  5  7  2  0
  1  8  1  0
  8  9  2  0
  9 10  1  0
 10 11  2  0
 11 12  1  0
 11 13  1  0
 13 14  2  0
 14  8  1  0
  1 15  1  6
  2 16  1  0
  2 17  1  0
  3 18  1  0
  3 19  1  0
  4 20  1  0
  4 21  1  0
  6 22  1  0
  9 23  1  0
 10 24  1  0
 13 25  1  0
 14 26  1  0
M  END
$$$$
