
     RDKit          3D

 35 36  0  0  0  0  0  0  0  0999 V2000
    5.0616    1.9615    0.9802 C   0  0  0  0  0  0  0  0  0  0  0  0
    4.4440    0.7788    0.3163 C   0  0  0  0  0  0  0  0  0  0  0  0
    5.2626   -0.1667   -0.2583 C   0  0  0  0  0  0  0  0  0  0  0  0
    4.6855   -1.2555   -0.8691 C   0  0  0  0  0  0  0  0  0  0  0  0
    5.8949   -2.7260   -1.7605 I   0  0  0  0  0  0  0  0  0  0  0  0
    3.3166   -1.3728   -0.8912 C   0  0  0  0  0  0  0  0  0  0  0  0
    2.7711   -2.5016   -1.5263 O   0  0  0  0  0  0  0  0  0  0  0  0
    2.4434   -0.4597   -0.3336 C   0  0  0  0  0  0  0  0  0  0  0  0
    3.0821    0.6051    0.2613 C   0  0  0  0  0  0  0  0  0  0  0  0
    1.0030   -0.6463   -0.3934 C   0  0  0  0  0  0  0  0  0  0  0  0
    0.5865   -1.6676   -0.9704 O   0  0  0  0  0  0  0  0  0  0  0  0
    0.0617    0.2418    0.1518 N   0  0  0  0  0  0  0  0  0  0  0  0
   -1.3508    0.1774    0.1617 C   0  0  0  0  0  0  0  0  0  0  0  0
   -2.0650    1.1876    0.7680 C   0  0  0  0  0  0  0  0  0  0  0  0
   -3.4406    1.1987    0.8197 C   0  0  0  0  0  0  0  0  0  0  0  0
   -4.2404    2.5324    1.6178 Cl  0  0  0  0  0  0  0  0  0  0  0  0
   -4.1819    0.1819    0.2574 C   0  0  0  0  0  0  0  0  0  0  0  0
   -3.5054   -0.8504   -0.3603 C   0  0  0  0  0  0  0  0  0  0  0  0
   -2.1277   -0.8165   -0.3860 C   0  0  0  0  0  0  0  0  0  0  0  0
   -5.6385    0.1541    0.2852 C   0  0  0  0  0  0  0  0  0  0  0  0
   -6.2807   -1.1307    0.3396 N   0  0  0  0  0  0  0  0  0  0  0  0
   -6.5143    1.0839    0.2706 N   0  0  0  0  0  0  0  0  0  0  0  0
    5.1715    2.7646    0.2245 H   0  0  0  0  0  0  0  0  0  0  0  0
    6.0538    1.7136    1.4127 H   0  0  0  0  0  0  0  0  0  0  0  0
    4.3799    2.3645    1.7718 H   0  0  0  0  0  0  0  0  0  0  0  0
    6.3338   -0.0699   -0.2380 H   0  0  0  0  0  0  0  0  0  0  0  0
    2.4736   -3.2792   -0.9722 H   0  0  0  0  0  0  0  0  0  0  0  0
    2.5036    1.3793    0.7287 H   0  0  0  0  0  0  0  0  0  0  0  0
    0.5175    1.0614    0.6109 H   0  0  0  0  0  0  0  0  0  0  0  0
   -1.5262    2.0200    1.2305 H   0  0  0  0  0  0  0  0  0  0  0  0
   -4.0689   -1.6553   -0.8061 H   0  0  0  0  0  0  0  0  0  0  0  0
   -1.6723   -1.6394   -0.8756 H   0  0  0  0  0  0  0  0  0  0  0  0
   -6.8668   -1.4501   -0.4872 H   0  0  0  0  0  0  0  0  0  0  0  0
   -6.2396   -1.8209    1.1291 H   0  0  0  0  0  0  0  0  0  0  0  0
   -6.3275    2.1019    0.2333 H   0  0  0  0  0  0  0  0  0  0  0  0
  1  2  1  0
  2  3  2  0
  3  4  1  0
  4  5  1  0
  4  6  2  0
  6  7  1  0
  6  8  1  0
  8  9  2  0
  8 10  1  0
 10 11  2  0
 10 12  1  0
 12 13  1  0
 13 14  2  0
 14 15  1  0
 15 16  1  0
 15 17  2  0
 17 18  1  0
 18 19  2  0
 17 20  1  0
 20 21  1  0
 20 22  2  3
  9  2  1  0
 19 13  1  0
  1 23  1  0
  1 24  1  0
  1 25  1  0
  3 26  1  0
  7 27  1  0
  9 28  1  0
 12 29  1  0
 14 30  1  0
 18 31  1  0
 19 32  1  0
 21 33  1  0
 21 34  1  0
 22 35  1  0
M  END
$$$$
