
     RDKit          3D

 51 56  0  0  0  0  0  0  0  0999 V2000
    8.9501    1.1095    0.3737 N   0  0  0  0  0  0  0  0  0  0  0  0
    7.8732    0.7128    0.2300 C   0  0  0  0  0  0  0  0  0  0  0  0
    6.5216    0.1997    0.0685 C   0  0  0  0  0  0  0  0  0  0  0  0
    5.6549    0.1059    1.1361 C   0  0  0  0  0  0  0  0  0  0  0  0
    4.3980   -0.3907    0.8656 C   0  0  0  0  0  0  0  0  0  0  0  0
    3.9840   -0.7872   -0.3999 C   0  0  0  0  0  0  0  0  0  0  0  0
    4.8751   -0.6807   -1.4457 C   0  0  0  0  0  0  0  0  0  0  0  0
    6.1509   -0.1825   -1.2000 C   0  0  0  0  0  0  0  0  0  0  0  0
    4.2635   -1.1189   -2.5483 N   0  0  0  0  0  0  0  0  0  0  0  0
    3.0132   -1.4889   -2.1842 C   0  0  0  0  0  0  0  0  0  0  0  0
    2.1540   -1.9546   -2.9807 O   0  0  0  0  0  0  0  0  0  0  0  0
    2.8136   -1.2994   -0.8881 N   0  0  0  0  0  0  0  0  0  0  0  0
    1.6926   -1.5265   -0.0409 C   0  0  1  0  0  0  0  0  0  0  0  0
    1.1742   -0.1897    0.5217 C   0  0  0  0  0  0  0  0  0  0  0  0
    0.4264   -0.0980   -0.8252 C   0  0  2  0  0  0  0  0  0  0  0  0
   -0.7245    0.7819   -0.8688 C   0  0  0  0  0  0  0  0  0  0  0  0
   -0.6726    1.9490   -1.5721 N   0  0  0  0  0  0  0  0  0  0  0  0
   -1.8011    2.5918   -1.4928 N   0  0  0  0  0  0  0  0  0  0  0  0
   -2.6344    1.8740   -0.7367 C   0  0  0  0  0  0  0  0  0  0  0  0
   -4.0057    2.1678   -0.3546 C   0  0  0  0  0  0  0  0  0  0  0  0
   -4.6492    3.3064   -0.7684 C   0  0  0  0  0  0  0  0  0  0  0  0
   -5.9485    3.5782   -0.4052 C   0  0  0  0  0  0  0  0  0  0  0  0
   -6.5890    2.6958    0.3753 N   0  0  0  0  0  0  0  0  0  0  0  0
   -5.9771    1.5834    0.7870 C   0  0  0  0  0  0  0  0  0  0  0  0
   -4.7062    1.3277    0.4255 N   0  0  0  0  0  0  0  0  0  0  0  0
   -1.9504    0.7476   -0.3545 N   0  0  0  0  0  0  0  0  0  0  0  0
   -2.4846   -0.2625    0.4389 C   0  0  0  0  0  0  0  0  0  0  0  0
   -3.0911   -1.3506   -0.1145 C   0  0  0  0  0  0  0  0  0  0  0  0
   -3.6363   -2.3603    0.6420 C   0  0  0  0  0  0  0  0  0  0  0  0
   -3.5803   -2.2933    2.0141 C   0  0  0  0  0  0  0  0  0  0  0  0
   -2.9744   -1.2064    2.6010 C   0  0  0  0  0  0  0  0  0  0  0  0
   -2.4267   -0.1906    1.8063 C   0  0  0  0  0  0  0  0  0  0  0  0
   -1.6958    1.1467    2.6642 Cl  0  0  0  0  0  0  0  0  0  0  0  0
    0.3162   -1.5582   -0.7318 C   0  0  0  0  0  0  0  0  0  0  0  0
    5.9560    0.4105    2.1382 H   0  0  0  0  0  0  0  0  0  0  0  0
    3.7081   -0.4734    1.6989 H   0  0  0  0  0  0  0  0  0  0  0  0
    6.8235   -0.1151   -2.0574 H   0  0  0  0  0  0  0  0  0  0  0  0
    4.7081   -1.1476   -3.4790 H   0  0  0  0  0  0  0  0  0  0  0  0
    1.8238   -2.3023    0.7278 H   0  0  0  0  0  0  0  0  0  0  0  0
    0.5185   -0.3505    1.3768 H   0  0  0  0  0  0  0  0  0  0  0  0
    1.9064    0.6072    0.6051 H   0  0  0  0  0  0  0  0  0  0  0  0
    1.2166    0.1693   -1.5853 H   0  0  0  0  0  0  0  0  0  0  0  0
   -4.1432    4.0225   -1.3972 H   0  0  0  0  0  0  0  0  0  0  0  0
   -6.4102    4.4735   -0.7486 H   0  0  0  0  0  0  0  0  0  0  0  0
   -6.4966    0.8890    1.4083 H   0  0  0  0  0  0  0  0  0  0  0  0
   -3.1491   -1.4301   -1.1851 H   0  0  0  0  0  0  0  0  0  0  0  0
   -4.1217   -3.2303    0.1572 H   0  0  0  0  0  0  0  0  0  0  0  0
   -4.0167   -3.1018    2.5951 H   0  0  0  0  0  0  0  0  0  0  0  0
   -2.9445   -1.1809    3.6812 H   0  0  0  0  0  0  0  0  0  0  0  0
    0.2696   -2.1660   -1.6408 H   0  0  0  0  0  0  0  0  0  0  0  0
   -0.3625   -2.0136    0.0219 H   0  0  0  0  0  0  0  0  0  0  0  0
  1  2  3  0
  2  3  1  0
  3  4  2  0
  4  5  1  0
  5  6  2  0
  6  7  1  0
  7  8  2  0
  7  9  1  0
  9 10  1  0
 10 11  2  0
 10 12  1  0
 12 13  1  0
 13 14  1  0
 14 15  1  0
 15 16  1  0
 16 17  2  0
 17 18  1  0
 18 19  2  0
 19 20  1  0
 20 21  2  0
 21 22  1  0
 22 23  2  0
 23 24  1  0
 24 25  2  0
 19 26  1  0
 26 27  1  0
 27 28  2  0
 28 29  1  0
 29 30  2  0
 30 31  1  0
 31 32  2  0
 32 33  1  0
 15 34  1  0
  8  3  1  0
 34 13  1  0
 12  6  1  0
 26 16  1  0
 32 27  1  0
 25 20  1  0
  4 35  1  0
  5 36  1  0
  8 37  1  0
  9 38  1  0
 13 39  1  1
 14 40  1  0
 14 41  1  0
 15 42  1  6
 21 43  1  0
 22 44  1  0
 24 45  1  0
 28 46  1  0
 29 47  1  0
 30 48  1  0
 31 49  1  0
 34 50  1  0
 34 51  1  0
M  END
$$$$
