
     RDKit          3D

 65 66  0  0  0  0  0  0  0  0999 V2000
    2.5892   -0.2279   -0.9367 C   0  0  2  0  0  0  0  0  0  0  0  0
    3.3114   -1.2331   -1.7898 C   0  0  0  0  0  0  0  0  0  0  0  0
    3.3850    0.1011    0.3228 C   0  0  0  0  0  0  0  0  0  0  0  0
    4.6713    0.6505   -0.0012 N   0  0  0  0  0  0  0  0  0  0  0  0
    4.9677    1.9634   -0.1760 C   0  0  0  0  0  0  0  0  0  0  0  0
    6.2742    2.1015   -0.4696 N   0  0  0  0  0  0  0  0  0  0  0  0
    6.8146    0.8703   -0.4824 C   0  0  0  0  0  0  0  0  0  0  0  0
    8.0958    0.3625   -0.7160 C   0  0  0  0  0  0  0  0  0  0  0  0
    9.1632    1.2698   -1.0230 N   0  0  0  0  0  0  0  0  0  0  0  0
    8.3138   -0.9830   -0.6495 N   0  0  0  0  0  0  0  0  0  0  0  0
    7.2913   -1.8311   -0.3572 C   0  0  0  0  0  0  0  0  0  0  0  0
    6.0261   -1.3808   -0.1221 N   0  0  0  0  0  0  0  0  0  0  0  0
    5.8178   -0.0376   -0.1906 C   0  0  0  0  0  0  0  0  0  0  0  0
    1.4149   -0.8586   -0.4978 O   0  0  0  0  0  0  0  0  0  0  0  0
    0.3071   -0.0810   -0.8900 C   0  0  0  0  0  0  0  0  0  0  0  0
   -1.1621   -0.9282   -0.3068 P   0  0  0  0  0  0  0  0  0  0  0  0
   -1.5427   -2.0205   -1.3033 O   0  0  0  0  0  0  0  0  0  0  0  0
   -0.8812   -1.6092    1.2197 O   0  0  0  0  0  0  0  0  0  0  0  0
   -2.0623   -1.5762    1.9912 C   0  0  0  0  0  0  0  0  0  0  0  0
   -3.0071   -2.3428    1.2412 O   0  0  0  0  0  0  0  0  0  0  0  0
   -2.7971   -3.6628    0.9321 C   0  0  0  0  0  0  0  0  0  0  0  0
   -1.7012   -4.0348    1.3994 O   0  0  0  0  0  0  0  0  0  0  0  0
   -3.8401   -4.2102    0.1995 O   0  0  0  0  0  0  0  0  0  0  0  0
   -3.8207   -5.5718   -0.2248 C   0  0  0  0  0  0  0  0  0  0  0  0
   -4.9446   -6.3517    0.4119 C   0  0  0  0  0  0  0  0  0  0  0  0
   -3.8272   -5.7046   -1.7152 C   0  0  0  0  0  0  0  0  0  0  0  0
   -2.4613    0.1482   -0.2067 O   0  0  0  0  0  0  0  0  0  0  0  0
   -1.9606    1.4211    0.0544 C   0  0  0  0  0  0  0  0  0  0  0  0
   -3.0636    2.3132    0.1359 O   0  0  0  0  0  0  0  0  0  0  0  0
   -2.8588    3.6613    0.3897 C   0  0  0  0  0  0  0  0  0  0  0  0
   -1.7143    4.1532    0.5570 O   0  0  0  0  0  0  0  0  0  0  0  0
   -3.9964    4.4363    0.4479 O   0  0  0  0  0  0  0  0  0  0  0  0
   -4.0229    5.8175    0.6915 C   0  0  0  0  0  0  0  0  0  0  0  0
   -4.7862    6.0161    1.9862 C   0  0  0  0  0  0  0  0  0  0  0  0
   -4.7049    6.6164   -0.3788 C   0  0  0  0  0  0  0  0  0  0  0  0
    2.3482    0.6989   -1.4672 H   0  0  0  0  0  0  0  0  0  0  0  0
    3.4676   -2.1381   -1.1526 H   0  0  0  0  0  0  0  0  0  0  0  0
    4.2487   -0.8597   -2.2431 H   0  0  0  0  0  0  0  0  0  0  0  0
    2.6447   -1.5014   -2.6268 H   0  0  0  0  0  0  0  0  0  0  0  0
    2.7522    0.8446    0.8901 H   0  0  0  0  0  0  0  0  0  0  0  0
    3.4279   -0.8200    0.9366 H   0  0  0  0  0  0  0  0  0  0  0  0
    4.2224    2.7419   -0.0808 H   0  0  0  0  0  0  0  0  0  0  0  0
    9.1859    2.0572   -0.3470 H   0  0  0  0  0  0  0  0  0  0  0  0
    9.8903    1.2669   -1.7841 H   0  0  0  0  0  0  0  0  0  0  0  0
    7.4321   -2.9007   -0.2973 H   0  0  0  0  0  0  0  0  0  0  0  0
    0.3179    0.0847   -1.9754 H   0  0  0  0  0  0  0  0  0  0  0  0
    0.4242    0.8669   -0.2947 H   0  0  0  0  0  0  0  0  0  0  0  0
   -2.4162   -0.5495    2.1558 H   0  0  0  0  0  0  0  0  0  0  0  0
   -1.8825   -2.0658    2.9480 H   0  0  0  0  0  0  0  0  0  0  0  0
   -2.8668   -5.9860    0.1532 H   0  0  0  0  0  0  0  0  0  0  0  0
   -5.8509   -5.7204    0.5215 H   0  0  0  0  0  0  0  0  0  0  0  0
   -4.6041   -6.7143    1.4146 H   0  0  0  0  0  0  0  0  0  0  0  0
   -5.1419   -7.2689   -0.1927 H   0  0  0  0  0  0  0  0  0  0  0  0
   -2.8184   -5.4910   -2.1442 H   0  0  0  0  0  0  0  0  0  0  0  0
   -4.6022   -5.1030   -2.2164 H   0  0  0  0  0  0  0  0  0  0  0  0
   -4.0509   -6.7671   -1.9535 H   0  0  0  0  0  0  0  0  0  0  0  0
   -1.3401    1.7455   -0.8203 H   0  0  0  0  0  0  0  0  0  0  0  0
   -1.3952    1.4275    0.9951 H   0  0  0  0  0  0  0  0  0  0  0  0
   -3.0171    6.2610    0.8405 H   0  0  0  0  0  0  0  0  0  0  0  0
   -5.7615    5.4720    1.8549 H   0  0  0  0  0  0  0  0  0  0  0  0
   -4.9594    7.0703    2.2193 H   0  0  0  0  0  0  0  0  0  0  0  0
   -4.2614    5.4710    2.8063 H   0  0  0  0  0  0  0  0  0  0  0  0
   -3.9912    7.0279   -1.1307 H   0  0  0  0  0  0  0  0  0  0  0  0
   -5.1403    7.5264    0.1150 H   0  0  0  0  0  0  0  0  0  0  0  0
   -5.5499    6.0666   -0.8298 H   0  0  0  0  0  0  0  0  0  0  0  0
  1  2  1  0
  1  3  1  0
  3  4  1  0
  4  5  1  0
  5  6  2  0
  6  7  1  0
  7  8  2  0
  8  9  1  0
  8 10  1  0
 10 11  2  0
 11 12  1  0
 12 13  2  0
  1 14  1  0
 14 15  1  0
 15 16  1  0
 16 17  2  0
 16 18  1  0
 18 19  1  0
 19 20  1  0
 20 21  1  0
 21 22  2  0
 21 23  1  0
 23 24  1  0
 24 25  1  0
 24 26  1  0
 16 27  1  0
 27 28  1  0
 28 29  1  0
 29 30  1  0
 30 31  2  0
 30 32  1  0
 32 33  1  0
 33 34  1  0
 33 35  1  0
 13  4  1  0
 13  7  1  0
  1 36  1  6
  2 37  1  0
  2 38  1  0
  2 39  1  0
  3 40  1  0
  3 41  1  0
  5 42  1  0
  9 43  1  0
  9 44  1  0
 11 45  1  0
 15 46  1  0
 15 47  1  0
 19 48  1  0
 19 49  1  0
 24 50  1  0
 25 51  1  0
 25 52  1  0
 25 53  1  0
 26 54  1  0
 26 55  1  0
 26 56  1  0
 28 57  1  0
 28 58  1  0
 33 59  1  0
 34 60  1  0
 34 61  1  0
 34 62  1  0
 35 63  1  0
 35 64  1  0
 35 65  1  0
M  END
$$$$
