
     RDKit          3D

 40 42  0  0  0  0  0  0  0  0999 V2000
   -3.9322   -3.1467   -0.9373 C   0  0  0  0  0  0  0  0  0  0  0  0
   -3.1819   -1.8925   -0.6421 C   0  0  0  0  0  0  0  0  0  0  0  0
   -3.4924   -0.7057   -1.2764 C   0  0  0  0  0  0  0  0  0  0  0  0
   -2.7977    0.4275   -0.9948 C   0  0  0  0  0  0  0  0  0  0  0  0
   -1.7510    0.4673   -0.0696 C   0  0  0  0  0  0  0  0  0  0  0  0
   -1.0511    1.7201    0.1808 C   0  0  0  0  0  0  0  0  0  0  0  0
   -1.6173    2.9625    0.3719 C   0  0  0  0  0  0  0  0  0  0  0  0
   -0.5916    3.8620    0.5754 C   0  0  0  0  0  0  0  0  0  0  0  0
   -0.7083    5.3373    0.8275 C   0  0  0  0  0  0  0  0  0  0  0  0
    0.2316    6.0358    0.0936 F   0  0  0  0  0  0  0  0  0  0  0  0
   -1.9492    5.7439    0.3800 F   0  0  0  0  0  0  0  0  0  0  0  0
   -0.5085    5.6009    2.1528 F   0  0  0  0  0  0  0  0  0  0  0  0
    0.5417    3.1456    0.5018 N   0  0  0  0  0  0  0  0  0  0  0  0
    0.2851    1.8606    0.2659 N   0  0  0  0  0  0  0  0  0  0  0  0
    1.2976    0.8827    0.1413 C   0  0  0  0  0  0  0  0  0  0  0  0
    1.9895    0.4898    1.2604 C   0  0  0  0  0  0  0  0  0  0  0  0
    2.9933   -0.4613    1.2175 C   0  0  0  0  0  0  0  0  0  0  0  0
    3.3266   -1.0480    0.0187 C   0  0  0  0  0  0  0  0  0  0  0  0
    4.6026   -2.2441    0.0211 S   0  0  0  0  0  6  0  0  0  0  0  0
    3.8747   -3.7868    0.2929 N   0  0  0  0  0  0  0  0  0  0  0  0
    5.5487   -1.9424    1.1475 O   0  0  0  0  0  0  0  0  0  0  0  0
    5.3793   -2.2271   -1.2639 O   0  0  0  0  0  0  0  0  0  0  0  0
    2.6533   -0.6743   -1.1082 C   0  0  0  0  0  0  0  0  0  0  0  0
    1.6433    0.2865   -1.0483 C   0  0  0  0  0  0  0  0  0  0  0  0
   -1.4404   -0.7165    0.5639 C   0  0  0  0  0  0  0  0  0  0  0  0
   -2.1559   -1.8813    0.2730 C   0  0  0  0  0  0  0  0  0  0  0  0
   -4.3251   -3.5638    0.0108 H   0  0  0  0  0  0  0  0  0  0  0  0
   -3.3509   -3.8661   -1.5127 H   0  0  0  0  0  0  0  0  0  0  0  0
   -4.8244   -2.8642   -1.5474 H   0  0  0  0  0  0  0  0  0  0  0  0
   -4.2983   -0.7064   -1.9977 H   0  0  0  0  0  0  0  0  0  0  0  0
   -3.0569    1.3466   -1.5027 H   0  0  0  0  0  0  0  0  0  0  0  0
   -2.6763    3.2294    0.3704 H   0  0  0  0  0  0  0  0  0  0  0  0
    1.7378    0.9416    2.2038 H   0  0  0  0  0  0  0  0  0  0  0  0
    3.4981   -0.7192    2.1598 H   0  0  0  0  0  0  0  0  0  0  0  0
    3.6089   -4.1619   -0.6578 H   0  0  0  0  0  0  0  0  0  0  0  0
    3.0196   -3.6378    0.8630 H   0  0  0  0  0  0  0  0  0  0  0  0
    2.9145   -1.1334   -2.0448 H   0  0  0  0  0  0  0  0  0  0  0  0
    1.1058    0.5858   -1.9439 H   0  0  0  0  0  0  0  0  0  0  0  0
   -0.6384   -0.7375    1.2882 H   0  0  0  0  0  0  0  0  0  0  0  0
   -1.9041   -2.8086    0.7769 H   0  0  0  0  0  0  0  0  0  0  0  0
  1  2  1  0
  2  3  2  0
  3  4  1  0
  4  5  2  0
  5  6  1  0
  6  7  2  0
  7  8  1  0
  8  9  1  0
  9 10  1  0
  9 11  1  0
  9 12  1  0
  8 13  2  0
 13 14  1  0
 14 15  1  0
 15 16  2  0
 16 17  1  0
 17 18  2  0
 18 19  1  0
 19 20  1  0
 19 21  2  0
 19 22  2  0
 18 23  1  0
 23 24  2  0
  5 25  1  0
 25 26  2  0
 26  2  1  0
 14  6  1  0
 24 15  1  0
  1 27  1  0
  1 28  1  0
  1 29  1  0
  3 30  1  0
  4 31  1  0
  7 32  1  0
 16 33  1  0
 17 34  1  0
 20 35  1  0
 20 36  1  0
 23 37  1  0
 24 38  1  0
 25 39  1  0
 26 40  1  0
M  END
$$$$
