
     RDKit          3D

 60 63  0  0  0  0  0  0  0  0999 V2000
   10.5062   -0.9346   -0.7851 C   0  0  0  0  0  0  0  0  0  0  0  0
   10.5167   -0.7233    0.6947 C   0  0  0  0  0  0  0  0  0  0  0  0
    9.7997    0.6081    0.9883 C   0  0  0  0  0  0  0  0  0  0  0  0
    8.4452    0.4105    0.6441 C   0  0  0  0  0  0  0  0  0  0  0  0
    7.2394    0.2545    0.3404 C   0  0  0  0  0  0  0  0  0  0  0  0
    5.8506    0.1002   -0.0118 C   0  0  0  0  0  0  0  0  0  0  0  0
    5.0293   -0.6762    0.8613 C   0  0  0  0  0  0  0  0  0  0  0  0
    3.6761   -0.6641    0.6720 C   0  0  0  0  0  0  0  0  0  0  0  0
    3.0717    0.0544   -0.3098 C   0  0  0  0  0  0  0  0  0  0  0  0
    1.6327    0.3651   -0.3521 C   0  0  0  0  0  0  0  0  0  0  0  0
    1.1142    0.7879   -1.5140 F   0  0  0  0  0  0  0  0  0  0  0  0
    0.8768    0.2032    0.7061 C   0  0  0  0  0  0  0  0  0  0  0  0
   -0.5373    0.4909    0.7912 C   0  0  0  0  0  0  0  0  0  0  0  0
   -0.8514    1.3213    1.9355 C   0  0  0  0  0  0  0  0  0  0  0  0
   -2.1468    1.7285    2.1050 C   0  0  0  0  0  0  0  0  0  0  0  0
   -3.1344    1.3706    1.2168 C   0  0  0  0  0  0  0  0  0  0  0  0
   -4.3864    1.8846    1.4741 F   0  0  0  0  0  0  0  0  0  0  0  0
   -2.8808    0.5869    0.1276 C   0  0  0  0  0  0  0  0  0  0  0  0
   -3.9488    0.2718   -0.8502 C   0  0  1  0  0  0  0  0  0  0  0  0
   -4.1721    1.6790   -1.5222 C   0  0  0  0  0  0  0  0  0  0  0  0
   -3.4263   -0.5969   -1.8553 N   0  0  0  0  0  0  0  0  0  0  0  0
   -3.9967   -1.4361   -2.6138 C   0  0  0  0  0  0  0  0  0  0  0  0
   -3.2084   -2.1632   -3.5271 N   0  0  0  0  0  0  0  0  0  0  0  0
   -5.7514   -1.6486   -2.4755 S   0  0  0  0  0  0  0  0  0  0  0  0
   -6.2180   -0.9306   -0.8723 C   0  0  1  0  0  0  0  0  0  0  0  0
   -7.6787   -0.6888   -0.6733 C   0  0  0  0  0  0  0  0  0  0  0  0
   -8.5208   -1.0749   -1.5447 O   0  0  0  0  0  0  0  0  0  0  0  0
   -8.1505   -0.0302    0.4696 N   0  0  0  0  0  0  0  0  0  0  0  0
   -9.5362    0.2806    0.7828 C   0  0  0  0  0  0  0  0  0  0  0  0
   -5.4056   -1.4998    0.3030 C   0  0  0  0  0  0  0  0  0  0  0  0
   -5.2436   -0.0951   -0.2114 C   0  0  1  0  0  0  0  0  0  0  0  0
   -1.5528    0.1779   -0.0285 C   0  0  0  0  0  0  0  0  0  0  0  0
    3.8866    0.7942   -1.1656 N   0  0  0  0  0  0  0  0  0  0  0  0
    5.2364    0.7934   -0.9805 C   0  0  0  0  0  0  0  0  0  0  0  0
   11.2376   -0.2056   -1.2808 H   0  0  0  0  0  0  0  0  0  0  0  0
    9.5734   -0.8056   -1.3084 H   0  0  0  0  0  0  0  0  0  0  0  0
   10.9758   -1.9570   -0.9977 H   0  0  0  0  0  0  0  0  0  0  0  0
    9.8807   -1.4737    1.2048 H   0  0  0  0  0  0  0  0  0  0  0  0
   11.5342   -0.7425    1.1641 H   0  0  0  0  0  0  0  0  0  0  0  0
   10.3125    1.3377    0.2680 H   0  0  0  0  0  0  0  0  0  0  0  0
   10.0023    0.9534    2.0166 H   0  0  0  0  0  0  0  0  0  0  0  0
    5.5508   -1.2173    1.6186 H   0  0  0  0  0  0  0  0  0  0  0  0
    3.0289   -1.2762    1.3255 H   0  0  0  0  0  0  0  0  0  0  0  0
    1.4206   -0.1834    1.5959 H   0  0  0  0  0  0  0  0  0  0  0  0
   -0.0525    1.5624    2.5619 H   0  0  0  0  0  0  0  0  0  0  0  0
   -2.3839    2.3526    2.9764 H   0  0  0  0  0  0  0  0  0  0  0  0
   -3.2792    1.9043   -2.1720 H   0  0  0  0  0  0  0  0  0  0  0  0
   -4.2081    2.4617   -0.7404 H   0  0  0  0  0  0  0  0  0  0  0  0
   -5.0872    1.6907   -2.1041 H   0  0  0  0  0  0  0  0  0  0  0  0
   -3.7377   -2.7140   -4.2591 H   0  0  0  0  0  0  0  0  0  0  0  0
   -2.1819   -2.1953   -3.5449 H   0  0  0  0  0  0  0  0  0  0  0  0
   -7.4145    0.2932    1.1575 H   0  0  0  0  0  0  0  0  0  0  0  0
  -10.1421   -0.5844    1.0168 H   0  0  0  0  0  0  0  0  0  0  0  0
   -9.4988    0.9034    1.7532 H   0  0  0  0  0  0  0  0  0  0  0  0
  -10.0080    0.9965    0.0741 H   0  0  0  0  0  0  0  0  0  0  0  0
   -4.5859   -2.1987    0.1458 H   0  0  0  0  0  0  0  0  0  0  0  0
   -5.9313   -1.5794    1.2835 H   0  0  0  0  0  0  0  0  0  0  0  0
   -5.6894    0.7156    0.4229 H   0  0  0  0  0  0  0  0  0  0  0  0
   -1.3450   -0.4629   -0.9178 H   0  0  0  0  0  0  0  0  0  0  0  0
    5.8939    1.4231   -1.6550 H   0  0  0  0  0  0  0  0  0  0  0  0
  1  2  1  0
  2  3  1  0
  3  4  1  0
  4  5  3  0
  5  6  1  0
  6  7  2  0
  7  8  1  0
  8  9  2  0
  9 10  1  0
 10 11  1  0
 10 12  2  0
 12 13  1  0
 13 14  2  0
 14 15  1  0
 15 16  2  0
 16 17  1  0
 16 18  1  0
 18 19  1  0
 19 20  1  6
 19 21  1  0
 21 22  2  0
 22 23  1  0
 22 24  1  0
 24 25  1  0
 25 26  1  1
 26 27  2  0
 26 28  1  0
 28 29  1  0
 25 30  1  0
 30 31  1  0
 18 32  2  0
  9 33  1  0
 33 34  2  0
 34  6  1  0
 32 13  1  0
 31 19  1  0
 31 25  1  0
  1 35  1  0
  1 36  1  0
  1 37  1  0
  2 38  1  0
  2 39  1  0
  3 40  1  0
  3 41  1  0
  7 42  1  0
  8 43  1  0
 12 44  1  0
 14 45  1  0
 15 46  1  0
 20 47  1  0
 20 48  1  0
 20 49  1  0
 23 50  1  0
 23 51  1  0
 28 52  1  0
 29 53  1  0
 29 54  1  0
 29 55  1  0
 30 56  1  0
 30 57  1  0
 31 58  1  1
 32 59  1  0
 34 60  1  0
M  END
$$$$
