
     RDKit          3D

 48 51  0  0  0  0  0  0  0  0999 V2000
    4.9811    0.1339    1.1703 C   0  0  0  0  0  0  0  0  0  0  0  0
    4.6797   -1.1888    0.6177 C   0  0  0  0  0  0  0  0  0  0  0  0
    4.4100   -2.4276    0.1097 C   0  0  0  0  0  0  0  0  0  0  0  0
    4.0076   -2.3885   -1.2178 N   0  0  0  0  0  0  0  0  0  0  0  0
    3.3955   -3.3956   -1.8800 C   0  0  0  0  0  0  0  0  0  0  0  0
    1.9009   -3.1085   -2.1097 C   0  0  0  0  0  0  0  0  0  0  0  0
    1.5470   -1.7433   -1.6404 C   0  0  0  0  0  0  0  0  0  0  0  0
    0.2668   -1.5618   -1.2693 N   0  0  0  0  0  0  0  0  0  0  0  0
   -0.0371   -0.3144   -0.7622 C   0  0  0  0  0  0  0  0  0  0  0  0
   -1.2766   -0.2198   -0.1984 N   0  0  0  0  0  0  0  0  0  0  0  0
   -1.6693    0.8565    0.5340 C   0  0  0  0  0  0  0  0  0  0  0  0
   -2.9933    1.0100    0.9952 N   0  0  0  0  0  0  0  0  0  0  0  0
   -3.7315    2.2107    0.6546 C   0  0  0  0  0  0  0  0  0  0  0  0
   -4.7557    2.4825    1.6730 C   0  0  0  0  0  0  0  0  0  0  0  0
   -5.7791    1.3568    1.6652 C   0  0  0  0  0  0  0  0  0  0  0  0
   -5.1833    0.0782    1.2749 C   0  0  0  0  0  0  0  0  0  0  0  0
   -3.7066   -0.0281    1.7161 C   0  0  0  0  0  0  0  0  0  0  0  0
   -0.7642    1.9224    0.7532 C   0  0  0  0  0  0  0  0  0  0  0  0
   -0.7712    2.7696    1.6647 C   0  0  0  0  0  0  0  0  0  0  0  0
   -0.7578    3.7923    2.7882 N   0  0  0  0  0  0  0  0  0  0  0  0
    0.5298    1.7581    0.0918 C   0  0  0  0  0  0  0  0  0  0  0  0
    0.8535    0.6670   -0.6529 C   0  0  0  0  0  0  0  0  0  0  0  0
    2.2044    0.5162   -1.0450 C   0  0  0  0  0  0  0  0  0  0  0  0
    3.0591    1.6100   -1.0164 N   0  0  0  0  0  0  0  0  0  0  0  0
    2.4517   -0.7323   -1.5219 C   0  0  0  0  0  0  0  0  0  0  0  0
    3.8994   -1.0753   -1.8108 C   0  0  0  0  0  0  0  0  0  0  0  0
    5.1379    0.8509    1.4561 H   0  0  0  0  0  0  0  0  0  0  0  0
    5.3921   -3.0418    0.1405 H   0  0  0  0  0  0  0  0  0  0  0  0
    3.6649   -2.9843    0.7786 H   0  0  0  0  0  0  0  0  0  0  0  0
    3.8724   -3.5698   -2.9110 H   0  0  0  0  0  0  0  0  0  0  0  0
    3.4889   -4.3531   -1.3029 H   0  0  0  0  0  0  0  0  0  0  0  0
    1.3492   -3.8245   -1.4102 H   0  0  0  0  0  0  0  0  0  0  0  0
    1.6631   -3.3546   -3.1554 H   0  0  0  0  0  0  0  0  0  0  0  0
   -4.2925    1.8920   -0.3035 H   0  0  0  0  0  0  0  0  0  0  0  0
   -3.0928    3.0117    0.3535 H   0  0  0  0  0  0  0  0  0  0  0  0
   -5.2979    3.4515    1.4718 H   0  0  0  0  0  0  0  0  0  0  0  0
   -4.3522    2.4972    2.6984 H   0  0  0  0  0  0  0  0  0  0  0  0
   -6.6429    1.5575    0.9458 H   0  0  0  0  0  0  0  0  0  0  0  0
   -6.3209    1.2341    2.6502 H   0  0  0  0  0  0  0  0  0  0  0  0
   -5.7417   -0.7335    1.7204 H   0  0  0  0  0  0  0  0  0  0  0  0
   -5.1803   -0.0424    0.1609 H   0  0  0  0  0  0  0  0  0  0  0  0
   -3.3014   -1.0021    1.3358 H   0  0  0  0  0  0  0  0  0  0  0  0
   -3.6125    0.1653    2.7712 H   0  0  0  0  0  0  0  0  0  0  0  0
    1.2438    2.5806    0.2092 H   0  0  0  0  0  0  0  0  0  0  0  0
    3.9273    1.7003   -0.5326 H   0  0  0  0  0  0  0  0  0  0  0  0
    2.7097    2.4734   -1.6162 H   0  0  0  0  0  0  0  0  0  0  0  0
    4.0556   -1.1572   -2.8887 H   0  0  0  0  0  0  0  0  0  0  0  0
    4.5692   -0.3315   -1.3838 H   0  0  0  0  0  0  0  0  0  0  0  0
  1  2  3  0
  2  3  1  0
  3  4  1  0
  4  5  1  0
  5  6  1  0
  6  7  1  0
  7  8  2  0
  8  9  1  0
  9 10  2  0
 10 11  1  0
 11 12  1  0
 12 13  1  0
 13 14  1  0
 14 15  1  0
 15 16  1  0
 16 17  1  0
 11 18  2  0
 18 19  1  0
 19 20  3  0
 18 21  1  0
 21 22  2  0
 22 23  1  0
 23 24  1  0
 23 25  2  0
 25 26  1  0
 26  4  1  0
 25  7  1  0
 22  9  1  0
 17 12  1  0
  1 27  1  0
  3 28  1  0
  3 29  1  0
  5 30  1  0
  5 31  1  0
  6 32  1  0
  6 33  1  0
 13 34  1  0
 13 35  1  0
 14 36  1  0
 14 37  1  0
 15 38  1  0
 15 39  1  0
 16 40  1  0
 16 41  1  0
 17 42  1  0
 17 43  1  0
 21 44  1  0
 24 45  1  0
 24 46  1  0
 26 47  1  0
 26 48  1  0
M  END
$$$$
