
     RDKit          3D

258257  0  0  0  0  0  0  0  0999 V2000
   -1.5171    0.8544   11.3859 C   0  0  0  0  0  0  0  0  0  0  0  0
   -0.5476    1.0391   10.2454 C   0  0  0  0  0  0  0  0  0  0  0  0
   -0.1930   -0.3579    9.7313 C   0  0  0  0  0  0  0  0  0  0  0  0
    0.7863   -0.2283    8.5736 C   0  0  0  0  0  0  0  0  0  0  0  0
    1.1426   -1.6073    8.0662 C   0  0  0  0  0  0  0  0  0  0  0  0
    2.1381   -1.4617    6.8909 C   0  0  0  0  0  0  0  0  0  0  0  0
    2.4616   -2.8341    6.4139 C   0  0  0  0  0  0  0  0  0  0  0  0
    3.3754   -2.9792    5.2751 C   0  0  0  0  0  0  0  0  0  0  0  0
    4.7853   -2.5635    5.3326 C   0  0  0  0  0  0  0  0  0  0  0  0
    5.1037   -1.1281    5.6079 C   0  0  0  0  0  0  0  0  0  0  0  0
    4.4533   -0.1898    4.6112 C   0  0  0  0  0  0  0  0  0  0  0  0
    4.7666    1.2473    4.8775 C   0  0  0  0  0  0  0  0  0  0  0  0
    4.0249    2.1538    3.8477 C   0  0  0  0  0  0  0  0  0  0  0  0
    4.3769    3.5444    4.1719 C   0  0  0  0  0  0  0  0  0  0  0  0
    3.8628    4.6808    3.4090 C   0  0  0  0  0  0  0  0  0  0  0  0
    2.4164    4.9786    3.3657 C   0  0  0  0  0  0  0  0  0  0  0  0
    1.4792    4.0048    2.7426 C   0  0  0  0  0  0  0  0  0  0  0  0
    1.7784    3.7530    1.3085 C   0  0  0  0  0  0  0  0  0  0  0  0
    2.6287    4.2183    0.5252 O   0  0  0  0  0  0  0  0  0  0  0  0
    1.0217    2.8369    0.5900 O   0  0  0  0  0  0  0  0  0  0  0  0
    1.2531    2.5746   -0.7931 C   0  0  0  0  0  0  0  0  0  0  0  0
    0.2478    1.4751   -1.1725 C   0  0  2  0  0  0  0  0  0  0  0  0
    0.6756    0.3185   -0.2537 C   0  0  0  0  0  0  0  0  0  0  0  0
    1.9696   -0.0790   -0.5936 O   0  0  0  0  0  0  0  0  0  0  0  0
    2.5881   -1.0093    0.6638 P   0  0  1  0  0  5  0  0  0  0  0  0
    1.5909   -0.9271    2.0470 O   0  0  0  0  0  0  0  0  0  0  0  0
    2.7134   -2.4669    0.3190 O   0  0  0  0  0  0  0  0  0  0  0  0
    4.1336   -0.4095    1.0319 O   0  0  0  0  0  0  0  0  0  0  0  0
    4.9387   -0.4607   -0.0976 C   0  0  0  0  0  0  0  0  0  0  0  0
    6.3060    0.1621    0.1077 C   0  0  0  0  0  0  0  0  0  0  0  0
    6.2301    1.4918    0.4437 O   0  0  0  0  0  0  0  0  0  0  0  0
    7.2026   -0.1140   -1.0993 C   0  0  0  0  0  0  0  0  0  0  0  0
    6.6945    0.5687   -2.1725 O   0  0  0  0  0  0  0  0  0  0  0  0
    7.3849    0.0459   -3.6541 P   0  0  2  0  0  5  0  0  0  0  0  0
    8.2670   -1.3809   -3.4502 O   0  0  0  0  0  0  0  0  0  0  0  0
    8.2135    1.1040   -4.2956 O   0  0  0  0  0  0  0  0  0  0  0  0
    6.0124   -0.2779   -4.6422 O   0  0  0  0  0  0  0  0  0  0  0  0
    5.3695   -1.3234   -4.0331 C   0  0  0  0  0  0  0  0  0  0  0  0
    3.8165   -1.1483   -4.1301 C   0  0  1  0  0  0  0  0  0  0  0  0
    3.2786   -2.3304   -3.4316 C   0  0  0  0  0  0  0  0  0  0  0  0
    1.9497   -2.3126   -3.0329 O   0  0  0  0  0  0  0  0  0  0  0  0
    1.3826   -3.4707   -2.5019 C   0  0  0  0  0  0  0  0  0  0  0  0
    1.9541   -4.5890   -2.3545 O   0  0  0  0  0  0  0  0  0  0  0  0
   -0.0047   -3.2027   -2.1277 C   0  0  0  0  0  0  0  0  0  0  0  0
   -0.8796   -4.4593   -1.9862 C   0  0  0  0  0  0  0  0  0  0  0  0
   -2.2428   -3.8589   -1.5568 C   0  0  0  0  0  0  0  0  0  0  0  0
   -3.3162   -4.8722   -1.4326 C   0  0  0  0  0  0  0  0  0  0  0  0
   -4.6018   -4.2282   -0.9990 C   0  0  0  0  0  0  0  0  0  0  0  0
   -4.4511   -3.6373    0.3720 C   0  0  0  0  0  0  0  0  0  0  0  0
   -5.7294   -2.9546    0.8654 C   0  0  0  0  0  0  0  0  0  0  0  0
   -5.4376   -2.4696    2.2475 C   0  0  0  0  0  0  0  0  0  0  0  0
   -6.5594   -1.7494    2.9247 C   0  0  0  0  0  0  0  0  0  0  0  0
   -6.9694   -0.4981    2.2032 C   0  0  0  0  0  0  0  0  0  0  0  0
   -8.1179    0.1359    3.0042 C   0  0  0  0  0  0  0  0  0  0  0  0
   -8.5914    1.4149    2.3756 C   0  0  0  0  0  0  0  0  0  0  0  0
   -9.7134    1.9995    3.1622 C   0  0  0  0  0  0  0  0  0  0  0  0
   -9.2887    2.2953    4.5748 C   0  0  0  0  0  0  0  0  0  0  0  0
  -10.5187    2.9148    5.2639 C   0  0  0  0  0  0  0  0  0  0  0  0
  -10.1829    3.2316    6.6883 C   0  0  0  0  0  0  0  0  0  0  0  0
  -11.3851    3.8356    7.3752 C   0  0  0  0  0  0  0  0  0  0  0  0
    3.6371    0.1037   -3.4852 O   0  0  0  0  0  0  0  0  0  0  0  0
    3.2098    1.1318   -4.3142 C   0  0  0  0  0  0  0  0  0  0  0  0
    2.9589    1.1102   -5.5570 O   0  0  0  0  0  0  0  0  0  0  0  0
    2.8761    2.5604   -4.2033 C   0  0  0  0  0  0  0  0  0  0  0  0
    2.4336    3.1078   -5.5223 C   0  0  0  0  0  0  0  0  0  0  0  0
    2.0406    4.5582   -5.4563 C   0  0  0  0  0  0  0  0  0  0  0  0
    0.8906    4.8038   -4.5036 C   0  0  0  0  0  0  0  0  0  0  0  0
    0.4438    6.2262   -4.4173 C   0  0  0  0  0  0  0  0  0  0  0  0
   -0.7077    6.3732   -3.4163 C   0  0  0  0  0  0  0  0  0  0  0  0
   -1.9030    5.5484   -3.8116 C   0  0  0  0  0  0  0  0  0  0  0  0
   -3.0178    5.7076   -2.8235 C   0  0  0  0  0  0  0  0  0  0  0  0
   -2.6551    5.2680   -1.4229 C   0  0  0  0  0  0  0  0  0  0  0  0
   -3.8429    5.4603   -0.5009 C   0  0  0  0  0  0  0  0  0  0  0  0
   -3.5273    5.0297    0.8910 C   0  0  0  0  0  0  0  0  0  0  0  0
   -2.4070    5.7551    1.5605 C   0  0  0  0  0  0  0  0  0  0  0  0
   -2.6264    7.2423    1.6961 C   0  0  0  0  0  0  0  0  0  0  0  0
   -1.4808    7.9215    2.3980 C   0  0  0  0  0  0  0  0  0  0  0  0
   -0.1610    7.7890    1.7152 C   0  0  0  0  0  0  0  0  0  0  0  0
   -0.1246    8.3670    0.3184 C   0  0  0  0  0  0  0  0  0  0  0  0
    1.2665    8.1607   -0.2726 C   0  0  0  0  0  0  0  0  0  0  0  0
    0.2706    1.1105   -2.4951 O   0  0  0  0  0  0  0  0  0  0  0  0
   -0.7205    1.1899   -3.4378 C   0  0  0  0  0  0  0  0  0  0  0  0
   -1.5549    1.7107   -2.6168 O   0  0  0  0  0  0  0  0  0  0  0  0
   -1.5060    1.1187   -4.6566 C   0  0  0  0  0  0  0  0  0  0  0  0
   -0.8944    0.3422   -5.8049 C   0  0  0  0  0  0  0  0  0  0  0  0
   -0.6450   -1.0878   -5.4539 C   0  0  0  0  0  0  0  0  0  0  0  0
   -0.0758   -1.8055   -6.6744 C   0  0  0  0  0  0  0  0  0  0  0  0
    0.1558   -3.2548   -6.2694 C   0  0  0  0  0  0  0  0  0  0  0  0
    0.6818   -4.1151   -7.3681 C   0  0  0  0  0  0  0  0  0  0  0  0
    0.8879   -5.5598   -6.8861 C   0  0  0  0  0  0  0  0  0  0  0  0
    1.3904   -6.4658   -7.9538 C   0  0  0  0  0  0  0  0  0  0  0  0
    1.5947   -7.8874   -7.4671 C   0  0  0  0  0  0  0  0  0  0  0  0
    0.3647   -8.5334   -6.9376 C   0  0  0  0  0  0  0  0  0  0  0  0
    0.6339   -9.9485   -6.4776 C   0  0  0  0  0  0  0  0  0  0  0  0
    1.6688  -10.0410   -5.3878 C   0  0  0  0  0  0  0  0  0  0  0  0
    1.2944   -9.2885   -4.1565 C   0  0  0  0  0  0  0  0  0  0  0  0
    2.4030   -9.4555   -3.1255 C   0  0  0  0  0  0  0  0  0  0  0  0
    2.0179   -8.6791   -1.8881 C   0  0  0  0  0  0  0  0  0  0  0  0
    3.1015   -8.8214   -0.8370 C   0  0  0  0  0  0  0  0  0  0  0  0
    2.7177   -8.0300    0.4131 C   0  0  0  0  0  0  0  0  0  0  0  0
   -2.1291   -0.0442   11.2090 H   0  0  0  0  0  0  0  0  0  0  0  0
   -2.1556    1.7667   11.4432 H   0  0  0  0  0  0  0  0  0  0  0  0
   -0.9553    0.7159   12.3376 H   0  0  0  0  0  0  0  0  0  0  0  0
   -1.0533    1.5853    9.4167 H   0  0  0  0  0  0  0  0  0  0  0  0
    0.3413    1.5638   10.6056 H   0  0  0  0  0  0  0  0  0  0  0  0
   -1.1533   -0.7948    9.3939 H   0  0  0  0  0  0  0  0  0  0  0  0
    0.2360   -0.9281   10.5716 H   0  0  0  0  0  0  0  0  0  0  0  0
    0.2104    0.2656    7.7589 H   0  0  0  0  0  0  0  0  0  0  0  0
    1.6694    0.3427    8.8746 H   0  0  0  0  0  0  0  0  0  0  0  0
    1.6182   -2.2037    8.8645 H   0  0  0  0  0  0  0  0  0  0  0  0
    0.2297   -2.0684    7.6552 H   0  0  0  0  0  0  0  0  0  0  0  0
    2.9660   -0.8363    7.2183 H   0  0  0  0  0  0  0  0  0  0  0  0
    1.6264   -0.8737    6.0726 H   0  0  0  0  0  0  0  0  0  0  0  0
    1.4705   -3.3364    6.1593 H   0  0  0  0  0  0  0  0  0  0  0  0
    2.7930   -3.4653    7.3071 H   0  0  0  0  0  0  0  0  0  0  0  0
    2.9152   -2.3954    4.4065 H   0  0  0  0  0  0  0  0  0  0  0  0
    3.3539   -4.0531    4.9013 H   0  0  0  0  0  0  0  0  0  0  0  0
    5.2986   -3.2281    6.0931 H   0  0  0  0  0  0  0  0  0  0  0  0
    5.2682   -2.8923    4.3643 H   0  0  0  0  0  0  0  0  0  0  0  0
    5.0683   -0.8303    6.6438 H   0  0  0  0  0  0  0  0  0  0  0  0
    6.2528   -1.0775    5.3898 H   0  0  0  0  0  0  0  0  0  0  0  0
    4.9257   -0.4620    3.6162 H   0  0  0  0  0  0  0  0  0  0  0  0
    3.3888   -0.4201    4.5091 H   0  0  0  0  0  0  0  0  0  0  0  0
    5.8414    1.4508    4.6705 H   0  0  0  0  0  0  0  0  0  0  0  0
    4.4572    1.5150    5.9024 H   0  0  0  0  0  0  0  0  0  0  0  0
    4.3618    1.8112    2.8478 H   0  0  0  0  0  0  0  0  0  0  0  0
    2.9605    1.9012    3.9554 H   0  0  0  0  0  0  0  0  0  0  0  0
    4.0954    3.6761    5.2833 H   0  0  0  0  0  0  0  0  0  0  0  0
    5.5251    3.6078    4.2209 H   0  0  0  0  0  0  0  0  0  0  0  0
    4.3826    5.6488    3.6870 H   0  0  0  0  0  0  0  0  0  0  0  0
    4.1577    4.4948    2.3068 H   0  0  0  0  0  0  0  0  0  0  0  0
    2.2873    5.9363    2.7686 H   0  0  0  0  0  0  0  0  0  0  0  0
    2.0423    5.2047    4.4151 H   0  0  0  0  0  0  0  0  0  0  0  0
    0.4327    4.5177    2.7017 H   0  0  0  0  0  0  0  0  0  0  0  0
    1.3051    3.1460    3.3530 H   0  0  0  0  0  0  0  0  0  0  0  0
    2.2806    2.2275   -0.8710 H   0  0  0  0  0  0  0  0  0  0  0  0
    0.9891    3.4909   -1.3232 H   0  0  0  0  0  0  0  0  0  0  0  0
   -0.7100    1.8424   -0.8017 H   0  0  0  0  0  0  0  0  0  0  0  0
    0.0124   -0.5304   -0.2712 H   0  0  0  0  0  0  0  0  0  0  0  0
    0.7165    0.7407    0.7653 H   0  0  0  0  0  0  0  0  0  0  0  0
    1.8172   -0.1005    2.5393 H   0  0  0  0  0  0  0  0  0  0  0  0
    5.0100   -1.5047   -0.4170 H   0  0  0  0  0  0  0  0  0  0  0  0
    4.4081    0.1196   -0.8857 H   0  0  0  0  0  0  0  0  0  0  0  0
    6.7752   -0.3773    0.9658 H   0  0  0  0  0  0  0  0  0  0  0  0
    6.2283    2.0505   -0.3618 H   0  0  0  0  0  0  0  0  0  0  0  0
    7.2476   -1.1976   -1.2257 H   0  0  0  0  0  0  0  0  0  0  0  0
    8.1975    0.3399   -0.8692 H   0  0  0  0  0  0  0  0  0  0  0  0
    9.2486   -1.2045   -3.4029 H   0  0  0  0  0  0  0  0  0  0  0  0
    5.5892   -1.3108   -2.9534 H   0  0  0  0  0  0  0  0  0  0  0  0
    5.6231   -2.2769   -4.5409 H   0  0  0  0  0  0  0  0  0  0  0  0
    3.5832   -1.1179   -5.1976 H   0  0  0  0  0  0  0  0  0  0  0  0
    3.9415   -2.6260   -2.5907 H   0  0  0  0  0  0  0  0  0  0  0  0
    3.3708   -3.2000   -4.1524 H   0  0  0  0  0  0  0  0  0  0  0  0
   -0.5711   -2.5235   -2.7545 H   0  0  0  0  0  0  0  0  0  0  0  0
   -0.0727   -2.7523   -1.0815 H   0  0  0  0  0  0  0  0  0  0  0  0
   -1.0528   -4.9683   -2.9330 H   0  0  0  0  0  0  0  0  0  0  0  0
   -0.5555   -5.1143   -1.1734 H   0  0  0  0  0  0  0  0  0  0  0  0
   -2.0225   -3.2737   -0.6342 H   0  0  0  0  0  0  0  0  0  0  0  0
   -2.5044   -3.1387   -2.3612 H   0  0  0  0  0  0  0  0  0  0  0  0
   -3.0403   -5.7407   -0.8010 H   0  0  0  0  0  0  0  0  0  0  0  0
   -3.5113   -5.2745   -2.4655 H   0  0  0  0  0  0  0  0  0  0  0  0
   -5.4494   -4.9545   -0.9866 H   0  0  0  0  0  0  0  0  0  0  0  0
   -4.9347   -3.4331   -1.7100 H   0  0  0  0  0  0  0  0  0  0  0  0
   -4.2005   -4.4867    1.0537 H   0  0  0  0  0  0  0  0  0  0  0  0
   -3.6160   -2.9148    0.4103 H   0  0  0  0  0  0  0  0  0  0  0  0
   -6.0025   -2.1394    0.1698 H   0  0  0  0  0  0  0  0  0  0  0  0
   -6.5440   -3.6843    0.8650 H   0  0  0  0  0  0  0  0  0  0  0  0
   -5.1475   -3.3515    2.8701 H   0  0  0  0  0  0  0  0  0  0  0  0
   -4.5489   -1.7858    2.2425 H   0  0  0  0  0  0  0  0  0  0  0  0
   -6.1960   -1.4574    3.9400 H   0  0  0  0  0  0  0  0  0  0  0  0
   -7.4362   -2.4281    3.0958 H   0  0  0  0  0  0  0  0  0  0  0  0
   -6.0976    0.2015    2.2200 H   0  0  0  0  0  0  0  0  0  0  0  0
   -7.3588   -0.6732    1.1928 H   0  0  0  0  0  0  0  0  0  0  0  0
   -7.7419    0.3586    4.0318 H   0  0  0  0  0  0  0  0  0  0  0  0
   -8.9207   -0.6076    3.0394 H   0  0  0  0  0  0  0  0  0  0  0  0
   -8.9138    1.2458    1.3171 H   0  0  0  0  0  0  0  0  0  0  0  0
   -7.7299    2.1201    2.2882 H   0  0  0  0  0  0  0  0  0  0  0  0
  -10.1489    2.9070    2.6724 H   0  0  0  0  0  0  0  0  0  0  0  0
  -10.5849    1.2977    3.2387 H   0  0  0  0  0  0  0  0  0  0  0  0
   -9.0856    1.3377    5.1197 H   0  0  0  0  0  0  0  0  0  0  0  0
   -8.4376    2.9739    4.5568 H   0  0  0  0  0  0  0  0  0  0  0  0
  -11.3572    2.2123    5.2594 H   0  0  0  0  0  0  0  0  0  0  0  0
  -10.7723    3.8332    4.7223 H   0  0  0  0  0  0  0  0  0  0  0  0
   -9.9142    2.3077    7.2626 H   0  0  0  0  0  0  0  0  0  0  0  0
   -9.2914    3.8935    6.7987 H   0  0  0  0  0  0  0  0  0  0  0  0
  -11.0461    4.2366    8.3601 H   0  0  0  0  0  0  0  0  0  0  0  0
  -11.8236    4.6383    6.7545 H   0  0  0  0  0  0  0  0  0  0  0  0
  -12.1552    3.0697    7.6094 H   0  0  0  0  0  0  0  0  0  0  0  0
    2.2254    2.8115   -3.3784 H   0  0  0  0  0  0  0  0  0  0  0  0
    3.8558    3.0872   -3.9757 H   0  0  0  0  0  0  0  0  0  0  0  0
    3.2407    3.0403   -6.2791 H   0  0  0  0  0  0  0  0  0  0  0  0
    1.5470    2.5522   -5.8579 H   0  0  0  0  0  0  0  0  0  0  0  0
    2.8972    5.2238   -5.2332 H   0  0  0  0  0  0  0  0  0  0  0  0
    1.6855    4.8518   -6.4639 H   0  0  0  0  0  0  0  0  0  0  0  0
    0.0162    4.2237   -4.9003 H   0  0  0  0  0  0  0  0  0  0  0  0
    1.1891    4.5018   -3.4825 H   0  0  0  0  0  0  0  0  0  0  0  0
   -0.0011    6.5614   -5.3997 H   0  0  0  0  0  0  0  0  0  0  0  0
    1.2123    6.9625   -4.1870 H   0  0  0  0  0  0  0  0  0  0  0  0
   -1.0503    7.4285   -3.3933 H   0  0  0  0  0  0  0  0  0  0  0  0
   -0.3550    6.1059   -2.3927 H   0  0  0  0  0  0  0  0  0  0  0  0
   -1.6717    4.4545   -3.8384 H   0  0  0  0  0  0  0  0  0  0  0  0
   -2.2737    5.8760   -4.7964 H   0  0  0  0  0  0  0  0  0  0  0  0
   -3.4280    6.7393   -2.7554 H   0  0  0  0  0  0  0  0  0  0  0  0
   -3.8986    5.0687   -3.1145 H   0  0  0  0  0  0  0  0  0  0  0  0
   -1.8071    5.8185   -1.0235 H   0  0  0  0  0  0  0  0  0  0  0  0
   -2.3729    4.1917   -1.3917 H   0  0  0  0  0  0  0  0  0  0  0  0
   -4.6345    4.7459   -0.8723 H   0  0  0  0  0  0  0  0  0  0  0  0
   -4.3022    6.4496   -0.5702 H   0  0  0  0  0  0  0  0  0  0  0  0
   -3.2092    3.9519    0.8275 H   0  0  0  0  0  0  0  0  0  0  0  0
   -4.4070    5.0391    1.5617 H   0  0  0  0  0  0  0  0  0  0  0  0
   -1.4441    5.6425    1.0107 H   0  0  0  0  0  0  0  0  0  0  0  0
   -2.3400    5.3536    2.5984 H   0  0  0  0  0  0  0  0  0  0  0  0
   -3.5331    7.4705    2.3114 H   0  0  0  0  0  0  0  0  0  0  0  0
   -2.7548    7.7019    0.6863 H   0  0  0  0  0  0  0  0  0  0  0  0
   -1.7212    9.0011    2.5909 H   0  0  0  0  0  0  0  0  0  0  0  0
   -1.3653    7.4715    3.4229 H   0  0  0  0  0  0  0  0  0  0  0  0
    0.6657    8.2639    2.3107 H   0  0  0  0  0  0  0  0  0  0  0  0
    0.1165    6.7239    1.6679 H   0  0  0  0  0  0  0  0  0  0  0  0
   -0.2812    9.4545    0.3257 H   0  0  0  0  0  0  0  0  0  0  0  0
   -0.8657    7.9196   -0.3621 H   0  0  0  0  0  0  0  0  0  0  0  0
    1.3801    8.8452   -1.1251 H   0  0  0  0  0  0  0  0  0  0  0  0
    2.0537    8.3100    0.4915 H   0  0  0  0  0  0  0  0  0  0  0  0
    1.2625    7.1188   -0.6667 H   0  0  0  0  0  0  0  0  0  0  0  0
   -2.4848    0.6238   -4.4681 H   0  0  0  0  0  0  0  0  0  0  0  0
   -1.7545    2.1507   -5.0262 H   0  0  0  0  0  0  0  0  0  0  0  0
    0.0348    0.7563   -6.1879 H   0  0  0  0  0  0  0  0  0  0  0  0
   -1.6286    0.3711   -6.6343 H   0  0  0  0  0  0  0  0  0  0  0  0
    0.0240   -1.2064   -4.5807 H   0  0  0  0  0  0  0  0  0  0  0  0
   -1.5961   -1.6015   -5.2124 H   0  0  0  0  0  0  0  0  0  0  0  0
   -0.8137   -1.8266   -7.4895 H   0  0  0  0  0  0  0  0  0  0  0  0
    0.8591   -1.3734   -7.0386 H   0  0  0  0  0  0  0  0  0  0  0  0
    0.8530   -3.1940   -5.4002 H   0  0  0  0  0  0  0  0  0  0  0  0
   -0.7675   -3.7148   -5.8628 H   0  0  0  0  0  0  0  0  0  0  0  0
    1.5861   -3.7308   -7.8472 H   0  0  0  0  0  0  0  0  0  0  0  0
   -0.1073   -4.1920   -8.1570 H   0  0  0  0  0  0  0  0  0  0  0  0
    1.6287   -5.5204   -6.0643 H   0  0  0  0  0  0  0  0  0  0  0  0
   -0.0605   -5.9869   -6.5061 H   0  0  0  0  0  0  0  0  0  0  0  0
    0.6255   -6.5577   -8.7817 H   0  0  0  0  0  0  0  0  0  0  0  0
    2.3099   -6.1456   -8.4684 H   0  0  0  0  0  0  0  0  0  0  0  0
    2.4261   -7.9797   -6.7425 H   0  0  0  0  0  0  0  0  0  0  0  0
    1.9252   -8.5127   -8.3507 H   0  0  0  0  0  0  0  0  0  0  0  0
   -0.0395   -7.9913   -6.0439 H   0  0  0  0  0  0  0  0  0  0  0  0
   -0.4210   -8.5580   -7.7114 H   0  0  0  0  0  0  0  0  0  0  0  0
   -0.3313  -10.4194   -6.1419 H   0  0  0  0  0  0  0  0  0  0  0  0
    0.9471  -10.5406   -7.3589 H   0  0  0  0  0  0  0  0  0  0  0  0
    1.6967  -11.1359   -5.1009 H   0  0  0  0  0  0  0  0  0  0  0  0
    2.6569   -9.7228   -5.7215 H   0  0  0  0  0  0  0  0  0  0  0  0
    1.0481   -8.2321   -4.3060 H   0  0  0  0  0  0  0  0  0  0  0  0
    0.3832   -9.7305   -3.6582 H   0  0  0  0  0  0  0  0  0  0  0  0
    2.4419  -10.5420   -2.8438 H   0  0  0  0  0  0  0  0  0  0  0  0
    3.3797   -9.1409   -3.5017 H   0  0  0  0  0  0  0  0  0  0  0  0
    1.1028   -9.0986   -1.4372 H   0  0  0  0  0  0  0  0  0  0  0  0
    1.9384   -7.6145   -2.1528 H   0  0  0  0  0  0  0  0  0  0  0  0
    3.1948   -9.8826   -0.5014 H   0  0  0  0  0  0  0  0  0  0  0  0
    4.1005   -8.5211   -1.2057 H   0  0  0  0  0  0  0  0  0  0  0  0
    3.0823   -6.9818    0.3073 H   0  0  0  0  0  0  0  0  0  0  0  0
    1.6161   -8.0688    0.5392 H   0  0  0  0  0  0  0  0  0  0  0  0
    3.2089   -8.4241    1.3259 H   0  0  0  0  0  0  0  0  0  0  0  0
  1  2  1  0
  2  3  1  0
  3  4  1  0
  4  5  1  0
  5  6  1  0
  6  7  1  0
  7  8  1  0
  8  9  1  0
  9 10  1  0
 10 11  1  0
 11 12  1  0
 12 13  1  0
 13 14  1  0
 14 15  1  0
 15 16  1  0
 16 17  1  0
 17 18  1  0
 18 19  2  0
 18 20  1  0
 20 21  1  0
 21 22  1  0
 22 23  1  0
 23 24  1  0
 25 24  1  6
 25 26  1  0
 25 27  2  0
 25 28  1  0
 28 29  1  0
 29 30  1  0
 30 31  1  0
 30 32  1  0
 32 33  1  0
 34 33  1  1
 34 35  1  0
 34 36  2  0
 34 37  1  0
 37 38  1  0
 38 39  1  0
 39 40  1  0
 40 41  1  0
 41 42  1  0
 42 43  2  0
 42 44  1  0
 44 45  1  0
 45 46  1  0
 46 47  1  0
 47 48  1  0
 48 49  1  0
 49 50  1  0
 50 51  1  0
 51 52  1  0
 52 53  1  0
 53 54  1  0
 54 55  1  0
 55 56  1  0
 56 57  1  0
 57 58  1  0
 58 59  1  0
 59 60  1  0
 39 61  1  0
 61 62  1  0
 62 63  2  0
 62 64  1  0
 64 65  1  0
 65 66  1  0
 66 67  1  0
 67 68  1  0
 68 69  1  0
 69 70  1  0
 70 71  1  0
 71 72  1  0
 72 73  1  0
 73 74  1  0
 74 75  1  0
 75 76  1  0
 76 77  1  0
 77 78  1  0
 78 79  1  0
 79 80  1  0
 22 81  1  0
 81 82  1  0
 82 83  2  0
 82 84  1  0
 84 85  1  0
 85 86  1  0
 86 87  1  0
 87 88  1  0
 88 89  1  0
 89 90  1  0
 90 91  1  0
 91 92  1  0
 92 93  1  0
 93 94  1  0
 94 95  1  0
 95 96  1  0
 96 97  1  0
 97 98  1  0
 98 99  1  0
 99100  1  0
  1101  1  0
  1102  1  0
  1103  1  0
  2104  1  0
  2105  1  0
  3106  1  0
  3107  1  0
  4108  1  0
  4109  1  0
  5110  1  0
  5111  1  0
  6112  1  0
  6113  1  0
  7114  1  0
  7115  1  0
  8116  1  0
  8117  1  0
  9118  1  0
  9119  1  0
 10120  1  0
 10121  1  0
 11122  1  0
 11123  1  0
 12124  1  0
 12125  1  0
 13126  1  0
 13127  1  0
 14128  1  0
 14129  1  0
 15130  1  0
 15131  1  0
 16132  1  0
 16133  1  0
 17134  1  0
 17135  1  0
 21136  1  0
 21137  1  0
 22138  1  1
 23139  1  0
 23140  1  0
 26141  1  0
 29142  1  0
 29143  1  0
 30144  1  0
 31145  1  0
 32146  1  0
 32147  1  0
 35148  1  0
 38149  1  0
 38150  1  0
 39151  1  6
 40152  1  0
 40153  1  0
 44154  1  0
 44155  1  0
 45156  1  0
 45157  1  0
 46158  1  0
 46159  1  0
 47160  1  0
 47161  1  0
 48162  1  0
 48163  1  0
 49164  1  0
 49165  1  0
 50166  1  0
 50167  1  0
 51168  1  0
 51169  1  0
 52170  1  0
 52171  1  0
 53172  1  0
 53173  1  0
 54174  1  0
 54175  1  0
 55176  1  0
 55177  1  0
 56178  1  0
 56179  1  0
 57180  1  0
 57181  1  0
 58182  1  0
 58183  1  0
 59184  1  0
 59185  1  0
 60186  1  0
 60187  1  0
 60188  1  0
 64189  1  0
 64190  1  0
 65191  1  0
 65192  1  0
 66193  1  0
 66194  1  0
 67195  1  0
 67196  1  0
 68197  1  0
 68198  1  0
 69199  1  0
 69200  1  0
 70201  1  0
 70202  1  0
 71203  1  0
 71204  1  0
 72205  1  0
 72206  1  0
 73207  1  0
 73208  1  0
 74209  1  0
 74210  1  0
 75211  1  0
 75212  1  0
 76213  1  0
 76214  1  0
 77215  1  0
 77216  1  0
 78217  1  0
 78218  1  0
 79219  1  0
 79220  1  0
 80221  1  0
 80222  1  0
 80223  1  0
 84224  1  0
 84225  1  0
 85226  1  0
 85227  1  0
 86228  1  0
 86229  1  0
 87230  1  0
 87231  1  0
 88232  1  0
 88233  1  0
 89234  1  0
 89235  1  0
 90236  1  0
 90237  1  0
 91238  1  0
 91239  1  0
 92240  1  0
 92241  1  0
 93242  1  0
 93243  1  0
 94244  1  0
 94245  1  0
 95246  1  0
 95247  1  0
 96248  1  0
 96249  1  0
 97250  1  0
 97251  1  0
 98252  1  0
 98253  1  0
 99254  1  0
 99255  1  0
100256  1  0
100257  1  0
100258  1  0
M  END
$$$$
