
     RDKit          3D

 39 42  0  0  0  0  0  0  0  0999 V2000
    7.1674    2.0324    0.9215 Br  0  0  0  0  0  0  0  0  0  0  0  0
    5.2827    2.0624    0.6708 C   0  0  0  0  0  0  0  0  0  0  0  0
    4.6416    3.2549    0.5863 C   0  0  0  0  0  0  0  0  0  0  0  0
    3.2529    3.4756    0.3953 C   0  0  0  0  0  0  0  0  0  0  0  0
    2.5865    2.2868    0.2999 C   0  0  0  0  0  0  0  0  0  0  0  0
    3.0380    1.0290    0.3557 C   0  0  0  0  0  0  0  0  0  0  0  0
    4.4291    0.9648    0.5478 C   0  0  0  0  0  0  0  0  0  0  0  0
    2.5600   -0.2804    0.2777 C   0  0  0  0  0  0  0  0  0  0  0  0
    2.1392   -1.4245    0.2091 N   0  0  0  0  0  0  0  0  0  0  0  0
    1.6993   -2.5538    0.1387 C   0  0  0  0  0  0  0  0  0  0  0  0
    0.3832   -2.2708    0.0020 N   0  0  0  0  0  4  0  0  0  0  0  0
   -0.3260   -3.4218   -0.0983 N   0  0  0  0  0  0  0  0  0  0  0  0
    0.5683   -4.4491   -0.0238 C   0  0  0  0  0  0  0  0  0  0  0  0
    1.8552   -3.8985    0.1273 C   0  0  0  0  0  0  0  0  0  0  0  0
    0.0338   -0.9318   -0.0087 C   0  0  0  0  0  0  0  0  0  0  0  0
   -1.3795   -0.6145   -0.1439 N   0  0  0  0  0  0  0  0  0  0  0  0
   -1.9778    0.7280   -0.2418 C   0  0  0  0  0  0  0  0  0  0  0  0
   -3.4459    0.5788   -0.2747 C   0  0  0  0  0  0  0  0  0  0  0  0
   -3.9914    0.3063   -1.5497 C   0  0  0  0  0  0  0  0  0  0  0  0
   -5.3706    0.1773   -1.5096 C   0  0  0  0  0  0  0  0  0  0  0  0
   -6.2468    0.2595   -0.5204 N   0  0  0  0  0  0  0  0  0  0  0  0
   -5.7329    0.5294    0.7442 C   0  0  0  0  0  0  0  0  0  0  0  0
   -4.3670    0.6595    0.7195 C   0  0  0  0  0  0  0  0  0  0  0  0
    1.1255   -0.0190    0.1269 C   0  0  0  0  0  0  0  0  0  0  0  0
    5.2320    4.1762    0.6647 H   0  0  0  0  0  0  0  0  0  0  0  0
    2.7835    4.4238    0.3376 H   0  0  0  0  0  0  0  0  0  0  0  0
    1.5306    2.4156    0.1630 H   0  0  0  0  0  0  0  0  0  0  0  0
    5.0432    0.0396    0.6325 H   0  0  0  0  0  0  0  0  0  0  0  0
   -1.3837   -3.4790   -0.2053 H   0  0  0  0  0  0  0  0  0  0  0  0
    0.3463   -5.5012   -0.0653 H   0  0  0  0  0  0  0  0  0  0  0  0
    2.8083   -4.3853    0.2195 H   0  0  0  0  0  0  0  0  0  0  0  0
   -1.9979   -1.4411   -0.1691 H   0  0  0  0  0  0  0  0  0  0  0  0
   -1.7045    1.3499    0.6672 H   0  0  0  0  0  0  0  0  0  0  0  0
   -1.6125    1.3152   -1.1073 H   0  0  0  0  0  0  0  0  0  0  0  0
   -3.4390    0.2088   -2.4495 H   0  0  0  0  0  0  0  0  0  0  0  0
   -5.8385   -0.0309   -2.4951 H   0  0  0  0  0  0  0  0  0  0  0  0
   -6.2901    0.6331    1.6546 H   0  0  0  0  0  0  0  0  0  0  0  0
   -3.9004    0.8709    1.6931 H   0  0  0  0  0  0  0  0  0  0  0  0
    0.4979    0.9242    0.0718 H   0  0  0  0  0  0  0  0  0  0  0  0
  1  2  1  0
  2  3  2  0
  3  4  1  0
  4  5  2  0
  5  6  1  0
  6  7  2  0
  6  8  1  0
  8  9  2  0
  9 10  1  0
 10 11  2  0
 11 12  1  0
 12 13  1  0
 13 14  2  0
 11 15  1  0
 15 16  1  0
 16 17  1  0
 17 18  1  0
 18 19  2  0
 19 20  1  0
 20 21  2  0
 21 22  1  0
 22 23  2  0
 15 24  2  0
  7  2  1  0
 24  8  1  0
 14 10  1  0
 23 18  1  0
  3 25  1  0
  4 26  1  0
  5 27  1  0
  7 28  1  0
 12 29  1  0
 13 30  1  0
 14 31  1  0
 16 32  1  0
 17 33  1  0
 17 34  1  0
 19 35  1  0
 20 36  1  0
 22 37  1  0
 23 38  1  0
 24 39  1  0
M  CHG  1  11   1
M  END
$$$$
