
     RDKit          3D

 72 77  0  0  0  0  0  0  0  0999 V2000
   -6.8944    3.2841    0.1808 C   0  0  0  0  0  0  0  0  0  0  0  0
   -6.2449    3.3315   -1.1176 N   0  0  0  0  0  0  0  0  0  0  0  0
   -4.9374    3.9728   -1.1007 C   0  0  1  0  0  0  0  0  0  0  0  0
   -4.9080    5.2034   -0.2888 C   0  0  0  0  0  0  0  0  0  0  0  0
   -3.9670    2.9252   -0.8382 C   0  0  0  0  0  0  0  0  0  0  0  0
   -2.6710    3.6876   -1.0184 O   0  0  0  0  0  0  0  0  0  0  0  0
   -3.6645    1.7320   -0.5477 N   0  0  0  0  0  0  0  0  0  0  0  0
   -2.7663    0.6722   -0.2773 C   0  0  0  0  0  0  0  0  0  0  0  0
   -3.3901   -0.5272    0.1830 C   0  0  0  0  0  0  0  0  0  0  0  0
   -2.5881   -1.6077    0.5212 C   0  0  0  0  0  0  0  0  0  0  0  0
   -1.2293   -1.5359    0.4366 C   0  0  0  0  0  0  0  0  0  0  0  0
   -0.3842   -2.6261    0.8445 C   0  0  0  0  0  0  0  0  0  0  0  0
   -0.3827   -3.9081    0.2498 C   0  0  0  0  0  0  0  0  0  0  0  0
   -1.4215   -4.3920   -0.6631 C   0  0  0  0  0  0  0  0  0  0  0  0
   -2.5349   -5.0538   -0.1444 C   0  0  0  0  0  0  0  0  0  0  0  0
   -3.5016   -5.5255   -0.9983 C   0  0  0  0  0  0  0  0  0  0  0  0
   -3.3987   -5.3638   -2.4142 C   0  0  0  0  0  0  0  0  0  0  0  0
   -2.2735   -4.7067   -2.8235 N   0  0  0  0  0  0  0  0  0  0  0  0
   -1.3435   -4.2509   -2.0091 C   0  0  0  0  0  0  0  0  0  0  0  0
   -0.2116   -3.5873   -2.4808 O   0  0  0  0  0  0  0  0  0  0  0  0
    0.0759   -3.3557   -3.8505 C   0  0  0  0  0  0  0  0  0  0  0  0
    0.6392   -4.5392    0.8343 N   0  0  0  0  0  0  0  0  0  0  0  0
    1.2261   -3.7013    1.7571 C   0  0  0  0  0  0  0  0  0  0  0  0
    2.2396   -3.8703    2.6559 C   0  0  0  0  0  0  0  0  0  0  0  0
    2.6240   -2.8778    3.5763 C   0  0  0  0  0  0  0  0  0  0  0  0
    3.8926   -3.1832    4.7306 Cl  0  0  0  0  0  0  0  0  0  0  0  0
    1.9207   -1.6987    3.5241 C   0  0  0  0  0  0  0  0  0  0  0  0
    0.9061   -1.5548    2.6107 C   0  0  0  0  0  0  0  0  0  0  0  0
    0.5794   -2.5396    1.7564 N   0  0  0  0  0  0  0  0  0  0  0  0
   -0.5977   -0.4288    0.0186 C   0  0  0  0  0  0  0  0  0  0  0  0
    0.7196    0.0541    0.1730 C   0  0  0  0  0  0  0  0  0  0  0  0
    1.8542    0.4897    0.2959 C   0  0  0  0  0  0  0  0  0  0  0  0
    3.2228    1.0290    0.4219 C   0  0  0  0  0  0  0  0  0  0  0  0
    4.3189    0.2521    0.0548 C   0  0  0  0  0  0  0  0  0  0  0  0
    5.5766    0.8528   -0.0326 C   0  0  0  0  0  0  0  0  0  0  0  0
    5.7585    2.2139    0.2440 C   0  0  0  0  0  0  0  0  0  0  0  0
    6.9675    2.7902    0.0721 C   0  0  0  0  0  0  0  0  0  0  0  0
    8.1949    2.1174   -0.3869 C   0  0  0  0  0  0  0  0  0  0  0  0
    7.0700    4.2056    0.2671 N   0  0  0  0  0  0  0  0  0  0  0  0
    5.9799    4.8746    0.6279 C   0  0  0  0  0  0  0  0  0  0  0  0
    4.7875    4.2428    0.8036 C   0  0  0  0  0  0  0  0  0  0  0  0
    4.6285    2.9023    0.6127 C   0  0  0  0  0  0  0  0  0  0  0  0
    3.3891    2.3252    0.7024 C   0  0  0  0  0  0  0  0  0  0  0  0
   -1.4969    0.6165   -0.3244 N   0  0  0  0  0  0  0  0  0  0  0  0
   -6.9323    2.1930    0.4988 H   0  0  0  0  0  0  0  0  0  0  0  0
   -6.2896    3.7553    0.9450 H   0  0  0  0  0  0  0  0  0  0  0  0
   -7.9229    3.6383    0.0385 H   0  0  0  0  0  0  0  0  0  0  0  0
   -6.1597    2.3477   -1.4980 H   0  0  0  0  0  0  0  0  0  0  0  0
   -4.7468    4.3056   -2.1878 H   0  0  0  0  0  0  0  0  0  0  0  0
   -4.2917    5.9864   -0.8486 H   0  0  0  0  0  0  0  0  0  0  0  0
   -5.9336    5.6889   -0.3064 H   0  0  0  0  0  0  0  0  0  0  0  0
   -4.4893    5.1681    0.7093 H   0  0  0  0  0  0  0  0  0  0  0  0
   -4.8130    1.1998   -0.5327 H   0  0  0  0  0  0  0  0  0  0  0  0
   -4.4470   -0.5543    0.3143 H   0  0  0  0  0  0  0  0  0  0  0  0
   -3.1288   -2.4635    0.8883 H   0  0  0  0  0  0  0  0  0  0  0  0
   -2.6539   -5.2058    0.9071 H   0  0  0  0  0  0  0  0  0  0  0  0
   -4.3825   -6.0443   -0.6712 H   0  0  0  0  0  0  0  0  0  0  0  0
   -4.1542   -5.7836   -3.0249 H   0  0  0  0  0  0  0  0  0  0  0  0
    1.1792   -3.0344   -3.8293 H   0  0  0  0  0  0  0  0  0  0  0  0
   -0.1006   -4.2640   -4.4525 H   0  0  0  0  0  0  0  0  0  0  0  0
   -0.5782   -2.5839   -4.2412 H   0  0  0  0  0  0  0  0  0  0  0  0
    2.7691   -4.8140    2.6386 H   0  0  0  0  0  0  0  0  0  0  0  0
    2.1850   -0.9266    4.2269 H   0  0  0  0  0  0  0  0  0  0  0  0
    0.3502   -0.6491    2.6472 H   0  0  0  0  0  0  0  0  0  0  0  0
    4.1982   -0.7994   -0.0818 H   0  0  0  0  0  0  0  0  0  0  0  0
    6.4674    0.2515   -0.2941 H   0  0  0  0  0  0  0  0  0  0  0  0
    7.9892    1.4733   -1.2750 H   0  0  0  0  0  0  0  0  0  0  0  0
    8.8866    2.9093   -0.8273 H   0  0  0  0  0  0  0  0  0  0  0  0
    8.7709    1.6170    0.4136 H   0  0  0  0  0  0  0  0  0  0  0  0
    6.0258    5.9488    0.7967 H   0  0  0  0  0  0  0  0  0  0  0  0
    3.9154    4.7995    1.1272 H   0  0  0  0  0  0  0  0  0  0  0  0
    2.5235    2.9000    1.0806 H   0  0  0  0  0  0  0  0  0  0  0  0
  1  2  1  0
  2  3  1  0
  3  4  1  0
  3  5  1  0
  5  6  2  0
  5  7  1  0
  7  8  1  0
  8  9  2  0
  9 10  1  0
 10 11  2  0
 11 12  1  0
 12 13  2  0
 13 14  1  0
 14 15  2  0
 15 16  1  0
 16 17  2  0
 17 18  1  0
 18 19  2  0
 19 20  1  0
 20 21  1  0
 13 22  1  0
 22 23  2  0
 23 24  1  0
 24 25  2  0
 25 26  1  0
 25 27  1  0
 27 28  2  0
 28 29  1  0
 11 30  1  0
 30 31  1  0
 31 32  3  0
 32 33  1  0
 33 34  2  0
 34 35  1  0
 35 36  2  0
 36 37  1  0
 37 38  1  0
 37 39  2  0
 39 40  1  0
 40 41  2  0
 41 42  1  0
 42 43  2  0
 30 44  2  0
 44  8  1  0
 29 12  1  0
 43 33  1  0
 19 14  1  0
 29 23  1  0
 42 36  1  0
  1 45  1  0
  1 46  1  0
  1 47  1  0
  2 48  1  0
  3 49  1  6
  4 50  1  0
  4 51  1  0
  4 52  1  0
  7 53  1  0
  9 54  1  0
 10 55  1  0
 15 56  1  0
 16 57  1  0
 17 58  1  0
 21 59  1  0
 21 60  1  0
 21 61  1  0
 24 62  1  0
 27 63  1  0
 28 64  1  0
 34 65  1  0
 35 66  1  0
 38 67  1  0
 38 68  1  0
 38 69  1  0
 40 70  1  0
 41 71  1  0
 43 72  1  0
M  END
$$$$
