
     RDKit          3D

  9  9  0  0  0  0  0  0  0  0999 V2000
    2.6607    1.2469   -0.7825 I   0  0  0  0  0  0  0  0  0  0  0  0
    0.8302    0.2789   -0.4030 C   0  0  0  0  0  0  0  0  0  0  0  0
   -0.4343    0.8286   -0.4436 C   0  0  0  0  0  0  0  0  0  0  0  0
   -1.3474   -0.1117   -0.1407 N   0  0  0  0  0  0  0  0  0  0  0  0
   -0.6979   -1.2432    0.0911 N   0  0  0  0  0  0  0  0  0  0  0  0
    0.6250   -1.0602   -0.0548 C   0  0  0  0  0  0  0  0  0  0  0  0
   -0.6412    1.8820   -0.6896 H   0  0  0  0  0  0  0  0  0  0  0  0
   -2.3898   -0.0150   -0.0856 H   0  0  0  0  0  0  0  0  0  0  0  0
    1.3947   -1.8062    0.0722 H   0  0  0  0  0  0  0  0  0  0  0  0
  1  2  1  0
  2  3  2  0
  3  4  1  0
  4  5  1  0
  5  6  2  0
  6  2  1  0
  3  7  1  0
  4  8  1  0
  6  9  1  0
M  END
$$$$
