
     RDKit          3D

 45 47  0  0  0  0  0  0  0  0999 V2000
   -5.5213   -0.7390    1.3799 C   0  0  0  0  0  0  0  0  0  0  0  0
   -4.4407   -1.4512    0.6119 C   0  0  0  0  0  0  0  0  0  0  0  0
   -3.7723   -0.4946   -0.3882 C   0  0  0  0  0  0  0  0  0  0  0  0
   -4.8783   -0.0170   -1.3346 C   0  0  0  0  0  0  0  0  0  0  0  0
   -3.2476    0.5858    0.3759 N   0  0  0  0  0  0  0  0  0  0  0  0
   -1.9351    0.9992    0.7172 C   0  0  0  0  0  0  0  0  0  0  0  0
   -1.8070    1.6045    1.8196 O   0  0  0  0  0  0  0  0  0  0  0  0
   -0.7420    0.7957   -0.0686 C   0  0  0  0  0  0  0  0  0  0  0  0
    0.2856    1.6291    0.3534 C   0  0  0  0  0  0  0  0  0  0  0  0
    1.5098    1.5778   -0.2808 C   0  0  0  0  0  0  0  0  0  0  0  0
    2.8444    2.6235    0.2270 S   0  0  0  0  0  6  0  0  0  0  0  0
    3.6582    2.9518   -0.9904 O   0  0  0  0  0  0  0  0  0  0  0  0
    2.2503    3.8566    0.8239 O   0  0  0  0  0  0  0  0  0  0  0  0
    3.7400    1.8006    1.4289 N   0  0  0  0  0  0  0  0  0  0  0  0
    4.4053    0.5724    1.2102 C   0  0  0  0  0  0  0  0  0  0  0  0
    5.1641    0.3547    0.0883 C   0  0  0  0  0  0  0  0  0  0  0  0
    5.8005   -0.8612   -0.0902 C   0  0  0  0  0  0  0  0  0  0  0  0
    5.7019   -1.8789    0.8274 C   0  0  0  0  0  0  0  0  0  0  0  0
    6.5089   -3.4051    0.5900 Cl  0  0  0  0  0  0  0  0  0  0  0  0
    4.9395   -1.6540    1.9499 C   0  0  0  0  0  0  0  0  0  0  0  0
    4.2907   -0.4287    2.1425 C   0  0  0  0  0  0  0  0  0  0  0  0
    1.6608    0.6836   -1.3259 C   0  0  0  0  0  0  0  0  0  0  0  0
    0.6472   -0.1488   -1.7533 C   0  0  0  0  0  0  0  0  0  0  0  0
   -0.5671   -0.0906   -1.1163 C   0  0  0  0  0  0  0  0  0  0  0  0
   -1.5275   -0.9963   -1.6486 N   0  0  0  0  0  0  0  0  0  0  0  0
   -2.8255   -1.2842   -1.1559 C   0  0  0  0  0  0  0  0  0  0  0  0
   -3.2232   -2.4531   -1.4465 O   0  0  0  0  0  0  0  0  0  0  0  0
   -6.0660   -0.0188    0.7385 H   0  0  0  0  0  0  0  0  0  0  0  0
   -6.2573   -1.4719    1.7776 H   0  0  0  0  0  0  0  0  0  0  0  0
   -5.1056   -0.2166    2.2895 H   0  0  0  0  0  0  0  0  0  0  0  0
   -3.6535   -1.8047    1.3104 H   0  0  0  0  0  0  0  0  0  0  0  0
   -4.8408   -2.3305    0.0794 H   0  0  0  0  0  0  0  0  0  0  0  0
   -5.7653   -0.6492   -1.2514 H   0  0  0  0  0  0  0  0  0  0  0  0
   -4.5013   -0.0734   -2.3754 H   0  0  0  0  0  0  0  0  0  0  0  0
   -5.0930    1.0612   -1.1505 H   0  0  0  0  0  0  0  0  0  0  0  0
   -4.0248    1.2021    0.7645 H   0  0  0  0  0  0  0  0  0  0  0  0
    0.1220    2.3127    1.1754 H   0  0  0  0  0  0  0  0  0  0  0  0
    3.8247    2.2000    2.4022 H   0  0  0  0  0  0  0  0  0  0  0  0
    5.2890    1.1204   -0.6878 H   0  0  0  0  0  0  0  0  0  0  0  0
    6.3941   -1.0134   -0.9812 H   0  0  0  0  0  0  0  0  0  0  0  0
    4.8454   -2.4286    2.6802 H   0  0  0  0  0  0  0  0  0  0  0  0
    3.7017   -0.3235    3.0602 H   0  0  0  0  0  0  0  0  0  0  0  0
    2.6352    0.6359   -1.8381 H   0  0  0  0  0  0  0  0  0  0  0  0
    0.7719   -0.8446   -2.5699 H   0  0  0  0  0  0  0  0  0  0  0  0
   -1.1960   -1.4897   -2.5085 H   0  0  0  0  0  0  0  0  0  0  0  0
  1  2  1  0
  2  3  1  0
  3  4  1  0
  3  5  1  0
  5  6  1  0
  6  7  2  0
  6  8  1  0
  8  9  2  0
  9 10  1  0
 10 11  1  0
 11 12  2  0
 11 13  2  0
 11 14  1  0
 14 15  1  0
 15 16  2  0
 16 17  1  0
 17 18  2  0
 18 19  1  0
 18 20  1  0
 20 21  2  0
 10 22  2  0
 22 23  1  0
 23 24  2  0
 24 25  1  0
 25 26  1  0
 26 27  2  0
 26  3  1  0
 24  8  1  0
 21 15  1  0
  1 28  1  0
  1 29  1  0
  1 30  1  0
  2 31  1  0
  2 32  1  0
  4 33  1  0
  4 34  1  0
  4 35  1  0
  5 36  1  0
  9 37  1  0
 14 38  1  0
 16 39  1  0
 17 40  1  0
 20 41  1  0
 21 42  1  0
 22 43  1  0
 23 44  1  0
 25 45  1  0
M  END
$$$$
