
     RDKit          3D

 45 48  0  0  0  0  0  0  0  0999 V2000
    5.8315    0.5150    2.4884 C   0  0  0  0  0  0  0  0  0  0  0  0
    4.6483   -0.0778    1.8068 C   0  0  0  0  0  0  0  0  0  0  0  0
    4.0464   -1.3029    2.0448 C   0  0  0  0  0  0  0  0  0  0  0  0
    3.0252   -1.4238    1.2090 O   0  0  0  0  0  0  0  0  0  0  0  0
    2.9338   -0.3681    0.4588 C   0  0  0  0  0  0  0  0  0  0  0  0
    1.9122   -0.1567   -0.5878 C   0  0  1  0  0  0  0  0  0  0  0  0
    0.8429   -1.2250   -0.5553 C   0  0  0  0  0  0  0  0  0  0  0  0
   -0.3745   -0.5654   -1.2405 C   0  0  1  0  0  0  0  0  0  0  0  0
   -1.3035   -1.6022   -1.7601 C   0  0  1  0  0  0  0  0  0  0  0  0
   -0.7612   -3.0167   -1.4839 C   0  0  0  0  0  0  0  0  0  0  0  0
   -2.8913   -1.5406   -0.8329 S   0  0  0  0  0  0  0  0  0  0  0  0
   -2.3531   -1.1701    0.8270 C   0  0  0  0  0  0  0  0  0  0  0  0
   -2.9274   -1.8589    1.9067 N   0  0  0  0  0  0  0  0  0  0  0  0
   -1.4597   -0.2834    0.9430 N   0  0  0  0  0  0  0  0  0  0  0  0
   -0.9169    0.3839   -0.2132 C   0  0  2  0  0  0  0  0  0  0  0  0
   -1.9340    1.3271   -0.6780 C   0  0  0  0  0  0  0  0  0  0  0  0
   -2.4798    1.3667   -1.9322 C   0  0  0  0  0  0  0  0  0  0  0  0
   -3.4031    2.3373   -2.2242 C   0  0  0  0  0  0  0  0  0  0  0  0
   -3.8026    3.2828   -1.2885 C   0  0  0  0  0  0  0  0  0  0  0  0
   -4.7143    4.2420   -1.5762 F   0  0  0  0  0  0  0  0  0  0  0  0
   -3.2569    3.2426   -0.0367 C   0  0  0  0  0  0  0  0  0  0  0  0
   -2.3233    2.2768    0.2922 C   0  0  0  0  0  0  0  0  0  0  0  0
   -1.8263    2.2732    1.5500 F   0  0  0  0  0  0  0  0  0  0  0  0
    0.2635    1.2260    0.3043 C   0  0  0  0  0  0  0  0  0  0  0  0
    1.3567    1.0965   -0.5570 O   0  0  0  0  0  0  0  0  0  0  0  0
    3.9062    0.4685    0.7978 N   0  0  0  0  0  0  0  0  0  0  0  0
    5.6759    0.6128    3.5772 H   0  0  0  0  0  0  0  0  0  0  0  0
    5.9618    1.5379    2.0791 H   0  0  0  0  0  0  0  0  0  0  0  0
    6.7286   -0.0901    2.2395 H   0  0  0  0  0  0  0  0  0  0  0  0
    4.3933   -1.9896    2.7895 H   0  0  0  0  0  0  0  0  0  0  0  0
    2.3682   -0.2517   -1.6222 H   0  0  0  0  0  0  0  0  0  0  0  0
    0.5822   -1.5430    0.4724 H   0  0  0  0  0  0  0  0  0  0  0  0
    1.1915   -2.1001   -1.1006 H   0  0  0  0  0  0  0  0  0  0  0  0
    0.0630   -0.0360   -2.1083 H   0  0  0  0  0  0  0  0  0  0  0  0
   -1.5226   -1.5665   -2.8211 H   0  0  0  0  0  0  0  0  0  0  0  0
   -0.0073   -3.3182   -2.2117 H   0  0  0  0  0  0  0  0  0  0  0  0
   -1.6318   -3.7015   -1.6078 H   0  0  0  0  0  0  0  0  0  0  0  0
   -0.4424   -3.1178   -0.4299 H   0  0  0  0  0  0  0  0  0  0  0  0
   -3.8534   -1.5692    2.2693 H   0  0  0  0  0  0  0  0  0  0  0  0
   -2.4423   -2.6585    2.3542 H   0  0  0  0  0  0  0  0  0  0  0  0
   -2.1852    0.6655   -2.6688 H   0  0  0  0  0  0  0  0  0  0  0  0
   -3.8647    2.4098   -3.2046 H   0  0  0  0  0  0  0  0  0  0  0  0
   -3.5393    3.9679    0.7391 H   0  0  0  0  0  0  0  0  0  0  0  0
    0.5046    1.0066    1.3514 H   0  0  0  0  0  0  0  0  0  0  0  0
   -0.0187    2.2951    0.2411 H   0  0  0  0  0  0  0  0  0  0  0  0
  1  2  1  0
  2  3  2  0
  3  4  1  0
  4  5  1  0
  5  6  1  0
  6  7  1  0
  7  8  1  0
  8  9  1  0
  9 10  1  0
  9 11  1  0
 11 12  1  0
 12 13  1  0
 12 14  2  0
 14 15  1  0
 15 16  1  6
 16 17  2  0
 17 18  1  0
 18 19  2  0
 19 20  1  0
 19 21  1  0
 21 22  2  0
 22 23  1  0
 15 24  1  0
 24 25  1  0
  5 26  2  0
 26  2  1  0
 25  6  1  0
 15  8  1  0
 22 16  1  0
  1 27  1  0
  1 28  1  0
  1 29  1  0
  3 30  1  0
  6 31  1  6
  7 32  1  0
  7 33  1  0
  8 34  1  6
  9 35  1  6
 10 36  1  0
 10 37  1  0
 10 38  1  0
 13 39  1  0
 13 40  1  0
 17 41  1  0
 18 42  1  0
 21 43  1  0
 24 44  1  0
 24 45  1  0
M  END
$$$$
