
     RDKit          3D

 43 45  0  0  0  0  0  0  0  0999 V2000
   -0.1416    0.6399    1.6982 C   0  0  0  0  0  0  0  0  0  0  0  0
   -0.4471   -0.2699    0.5533 C   0  0  2  0  0  0  0  0  0  0  0  0
    0.5357   -1.2972    0.4681 N   0  0  0  0  0  0  0  0  0  0  0  0
    1.9134   -1.0445    0.2333 C   0  0  0  0  0  0  0  0  0  0  0  0
    2.8297   -2.1028    0.1712 C   0  0  0  0  0  0  0  0  0  0  0  0
    4.1669   -1.8766   -0.0587 C   0  0  0  0  0  0  0  0  0  0  0  0
    4.6747   -0.5894   -0.2404 C   0  0  0  0  0  0  0  0  0  0  0  0
    6.0903   -0.3718   -0.4820 C   0  0  0  0  0  0  0  0  0  0  0  0
    6.8347   -1.3958   -0.5196 O   0  0  0  0  0  0  0  0  0  0  0  0
    6.6356    0.9182   -0.6700 N   0  0  0  0  0  0  0  0  0  0  0  0
    7.9732    1.0365   -0.8914 O   0  0  0  0  0  0  0  0  0  0  0  0
    3.7905    0.4545   -0.1823 C   0  0  0  0  0  0  0  0  0  0  0  0
    2.4494    0.2011    0.0503 C   0  0  0  0  0  0  0  0  0  0  0  0
   -0.4826    0.4466   -0.7781 C   0  0  0  0  0  0  0  0  0  0  0  0
   -1.7983    0.0430   -1.4097 C   0  0  0  0  0  0  0  0  0  0  0  0
   -2.6279   -0.1936   -0.2454 N   0  0  0  0  0  0  0  0  0  0  0  0
   -4.0109    0.1471   -0.2219 C   0  0  0  0  0  0  0  0  0  0  0  0
   -4.4204    1.3913    0.2044 C   0  0  0  0  0  0  0  0  0  0  0  0
   -5.7655    1.7493    0.2370 C   0  0  0  0  0  0  0  0  0  0  0  0
   -6.7377    0.8520   -0.1635 C   0  0  0  0  0  0  0  0  0  0  0  0
   -8.4349    1.3215   -0.1159 Cl  0  0  0  0  0  0  0  0  0  0  0  0
   -6.3366   -0.3923   -0.5905 C   0  0  0  0  0  0  0  0  0  0  0  0
   -4.9965   -0.7335   -0.6173 C   0  0  0  0  0  0  0  0  0  0  0  0
   -1.8182   -0.7756    0.7335 C   0  0  0  0  0  0  0  0  0  0  0  0
   -2.2097   -1.5833    1.6028 O   0  0  0  0  0  0  0  0  0  0  0  0
   -0.0584    1.7126    1.4287 H   0  0  0  0  0  0  0  0  0  0  0  0
    0.8337    0.3482    2.1346 H   0  0  0  0  0  0  0  0  0  0  0  0
   -0.8773    0.4911    2.5294 H   0  0  0  0  0  0  0  0  0  0  0  0
    0.2266   -2.2828    0.5840 H   0  0  0  0  0  0  0  0  0  0  0  0
    2.4884   -3.1018    0.3039 H   0  0  0  0  0  0  0  0  0  0  0  0
    4.8859   -2.6868   -0.1090 H   0  0  0  0  0  0  0  0  0  0  0  0
    6.0460    1.7659   -0.6431 H   0  0  0  0  0  0  0  0  0  0  0  0
    8.4808    1.0580   -0.0325 H   0  0  0  0  0  0  0  0  0  0  0  0
    4.1037    1.4923   -0.3136 H   0  0  0  0  0  0  0  0  0  0  0  0
    1.8041    1.0705    0.0818 H   0  0  0  0  0  0  0  0  0  0  0  0
    0.3049    0.0565   -1.4809 H   0  0  0  0  0  0  0  0  0  0  0  0
   -0.4204    1.5453   -0.6727 H   0  0  0  0  0  0  0  0  0  0  0  0
   -2.2123    0.8490   -2.0493 H   0  0  0  0  0  0  0  0  0  0  0  0
   -1.7187   -0.9213   -1.9542 H   0  0  0  0  0  0  0  0  0  0  0  0
   -3.6997    2.1064    0.5197 H   0  0  0  0  0  0  0  0  0  0  0  0
   -6.1010    2.7233    0.5697 H   0  0  0  0  0  0  0  0  0  0  0  0
   -7.0968   -1.0891   -0.9020 H   0  0  0  0  0  0  0  0  0  0  0  0
   -4.6556   -1.7119   -0.9512 H   0  0  0  0  0  0  0  0  0  0  0  0
  1  2  1  0
  2  3  1  6
  3  4  1  0
  4  5  2  0
  5  6  1  0
  6  7  2  0
  7  8  1  0
  8  9  2  0
  8 10  1  0
 10 11  1  0
  7 12  1  0
 12 13  2  0
  2 14  1  0
 14 15  1  0
 15 16  1  0
 16 17  1  0
 17 18  2  0
 18 19  1  0
 19 20  2  0
 20 21  1  0
 20 22  1  0
 22 23  2  0
 16 24  1  0
 24 25  2  0
 24  2  1  0
 13  4  1  0
 23 17  1  0
  1 26  1  0
  1 27  1  0
  1 28  1  0
  3 29  1  0
  5 30  1  0
  6 31  1  0
 10 32  1  0
 11 33  1  0
 12 34  1  0
 13 35  1  0
 14 36  1  0
 14 37  1  0
 15 38  1  0
 15 39  1  0
 18 40  1  0
 19 41  1  0
 22 42  1  0
 23 43  1  0
M  END
$$$$
