
     RDKit          3D

 56 60  0  0  0  0  0  0  0  0999 V2000
   -2.6300   -1.1031    1.5284 C   0  0  0  0  0  0  0  0  0  0  0  0
   -3.4213   -1.9130    0.1005 S   0  0  0  0  0  0  0  0  0  0  0  0
   -4.3385   -0.6566   -0.7798 C   0  0  0  0  0  0  0  0  0  0  0  0
   -5.6790   -0.4006   -0.4530 C   0  0  0  0  0  0  0  0  0  0  0  0
   -6.3826    0.5603   -1.1157 C   0  0  0  0  0  0  0  0  0  0  0  0
   -5.7614    1.2787   -2.1121 C   0  0  0  0  0  0  0  0  0  0  0  0
   -4.4276    1.0328   -2.4467 C   0  0  0  0  0  0  0  0  0  0  0  0
   -3.6996    0.0470   -1.7696 C   0  0  0  0  0  0  0  0  0  0  0  0
   -2.3701   -0.2104   -2.1082 N   0  0  0  0  0  0  0  0  0  0  0  0
   -1.2486   -0.0823   -1.2580 C   0  0  0  0  0  0  0  0  0  0  0  0
   -1.0133    1.0791   -0.6294 N   0  0  0  0  0  0  0  0  0  0  0  0
    0.0398    1.2617    0.2019 C   0  0  0  0  0  0  0  0  0  0  0  0
    0.2839    2.5081    0.8377 N   0  0  0  0  0  0  0  0  0  0  0  0
   -0.3487    3.6919    0.3067 C   0  0  0  0  0  0  0  0  0  0  0  0
    0.6436    4.8276    0.1531 C   0  0  0  0  0  0  0  0  0  0  0  0
    1.2801    5.0427    1.4177 N   0  0  0  0  0  0  0  0  0  0  0  0
    1.9939    3.8805    1.8590 C   0  0  0  0  0  0  0  0  0  0  0  0
    1.1288    2.6471    1.9870 C   0  0  0  0  0  0  0  0  0  0  0  0
    0.8570    0.1986    0.3714 N   0  0  0  0  0  0  0  0  0  0  0  0
    0.6480   -0.9743   -0.2435 C   0  0  0  0  0  0  0  0  0  0  0  0
    1.5199   -2.0382   -0.0383 C   0  0  0  0  0  0  0  0  0  0  0  0
    2.6280   -1.8283    0.8282 N   0  0  0  0  0  0  0  0  0  0  0  0
    3.5714   -2.8819    1.0973 C   0  0  0  0  0  0  0  0  0  0  0  0
    4.2325   -3.3412   -0.1621 C   0  0  0  0  0  0  0  0  0  0  0  0
    5.2466   -4.4468    0.0944 C   0  0  0  0  0  0  0  0  0  0  0  0
    5.6935   -3.1030   -0.4036 C   0  0  0  0  0  0  0  0  0  0  0  0
    1.3005   -3.1942   -0.6544 N   0  0  0  0  0  0  0  0  0  0  0  0
    0.2454   -3.3436   -1.4745 C   0  0  0  0  0  0  0  0  0  0  0  0
   -0.6303   -2.3494   -1.7113 N   0  0  0  0  0  0  0  0  0  0  0  0
   -0.4192   -1.1671   -1.0892 C   0  0  0  0  0  0  0  0  0  0  0  0
   -2.6872   -0.0006    1.4305 H   0  0  0  0  0  0  0  0  0  0  0  0
   -3.2052   -1.4674    2.4233 H   0  0  0  0  0  0  0  0  0  0  0  0
   -1.5629   -1.4253    1.6156 H   0  0  0  0  0  0  0  0  0  0  0  0
   -6.1350   -1.0022    0.3505 H   0  0  0  0  0  0  0  0  0  0  0  0
   -7.4150    0.7361   -0.8423 H   0  0  0  0  0  0  0  0  0  0  0  0
   -6.3541    2.0315   -2.6128 H   0  0  0  0  0  0  0  0  0  0  0  0
   -3.9560    1.6090   -3.2314 H   0  0  0  0  0  0  0  0  0  0  0  0
   -2.1566   -0.5320   -3.0879 H   0  0  0  0  0  0  0  0  0  0  0  0
   -0.8032    3.4929   -0.6804 H   0  0  0  0  0  0  0  0  0  0  0  0
   -1.1244    4.0163    1.0105 H   0  0  0  0  0  0  0  0  0  0  0  0
    0.0640    5.7237   -0.1464 H   0  0  0  0  0  0  0  0  0  0  0  0
    1.3771    4.5657   -0.6508 H   0  0  0  0  0  0  0  0  0  0  0  0
    0.5731    5.3755    2.0976 H   0  0  0  0  0  0  0  0  0  0  0  0
    2.8321    3.6951    1.1416 H   0  0  0  0  0  0  0  0  0  0  0  0
    2.4582    4.0970    2.8456 H   0  0  0  0  0  0  0  0  0  0  0  0
    1.7912    1.7566    2.0347 H   0  0  0  0  0  0  0  0  0  0  0  0
    0.5035    2.7548    2.8876 H   0  0  0  0  0  0  0  0  0  0  0  0
    2.7648   -0.8937    1.2784 H   0  0  0  0  0  0  0  0  0  0  0  0
    3.0673   -3.7667    1.5844 H   0  0  0  0  0  0  0  0  0  0  0  0
    4.3115   -2.5490    1.8573 H   0  0  0  0  0  0  0  0  0  0  0  0
    3.6066   -3.4784   -1.0575 H   0  0  0  0  0  0  0  0  0  0  0  0
    5.2653   -5.3214   -0.5721 H   0  0  0  0  0  0  0  0  0  0  0  0
    5.5498   -4.6710    1.1482 H   0  0  0  0  0  0  0  0  0  0  0  0
    6.1946   -2.3858    0.2851 H   0  0  0  0  0  0  0  0  0  0  0  0
    6.0610   -3.1045   -1.4502 H   0  0  0  0  0  0  0  0  0  0  0  0
    0.0371   -4.2779   -1.9930 H   0  0  0  0  0  0  0  0  0  0  0  0
  1  2  1  0
  2  3  1  0
  3  4  2  0
  4  5  1  0
  5  6  2  0
  6  7  1  0
  7  8  2  0
  8  9  1  0
  9 10  1  0
 10 11  2  0
 11 12  1  0
 12 13  1  0
 13 14  1  0
 14 15  1  0
 15 16  1  0
 16 17  1  0
 17 18  1  0
 12 19  2  0
 19 20  1  0
 20 21  2  0
 21 22  1  0
 22 23  1  0
 23 24  1  0
 24 25  1  0
 25 26  1  0
 21 27  1  0
 27 28  2  0
 28 29  1  0
 29 30  2  0
  8  3  1  0
 30 10  1  0
 18 13  1  0
 30 20  1  0
 26 24  1  0
  1 31  1  0
  1 32  1  0
  1 33  1  0
  4 34  1  0
  5 35  1  0
  6 36  1  0
  7 37  1  0
  9 38  1  0
 14 39  1  0
 14 40  1  0
 15 41  1  0
 15 42  1  0
 16 43  1  0
 17 44  1  0
 17 45  1  0
 18 46  1  0
 18 47  1  0
 22 48  1  0
 23 49  1  0
 23 50  1  0
 24 51  1  0
 25 52  1  0
 25 53  1  0
 26 54  1  0
 26 55  1  0
 28 56  1  0
M  END
$$$$
