
     RDKit          3D

 28 29  0  0  0  0  0  0  0  0999 V2000
    5.2227   -1.5642   -2.4819 N   0  0  0  0  0  0  0  0  0  0  0  0
    4.3788   -1.4118   -1.7127 C   0  0  0  0  0  0  0  0  0  0  0  0
    3.3231   -1.2462   -0.7489 C   0  0  0  0  0  0  0  0  0  0  0  0
    2.8681   -2.2580    0.0594 C   0  0  0  0  0  0  0  0  0  0  0  0
    1.8528   -2.0556    0.9706 C   0  0  0  0  0  0  0  0  0  0  0  0
    1.2426   -0.7897    1.1022 C   0  0  0  0  0  0  0  0  0  0  0  0
   -0.0185   -0.6060    2.3195 S   0  0  0  0  0  0  0  0  0  0  0  0
   -1.0163    0.8579    2.2317 C   0  0  0  0  0  0  0  0  0  0  0  0
   -1.9134    0.8100    1.0628 C   0  0  0  0  0  0  0  0  0  0  0  0
   -3.1360    0.1210    1.1265 C   0  0  0  0  0  0  0  0  0  0  0  0
   -4.0195    0.0388    0.0958 C   0  0  0  0  0  0  0  0  0  0  0  0
   -3.7195    0.6662   -1.1074 C   0  0  0  0  0  0  0  0  0  0  0  0
   -4.8872    0.5836   -2.5834 Br  0  0  0  0  0  0  0  0  0  0  0  0
   -2.5405    1.3448   -1.2017 C   0  0  0  0  0  0  0  0  0  0  0  0
   -1.6526    1.4160   -0.1340 C   0  0  0  0  0  0  0  0  0  0  0  0
    1.7222    0.1960    0.2809 C   0  0  0  0  0  0  0  0  0  0  0  0
    2.7481    0.0083   -0.6458 C   0  0  0  0  0  0  0  0  0  0  0  0
    3.1799    1.1241   -1.4562 C   0  0  0  0  0  0  0  0  0  0  0  0
    3.5383    2.0207   -2.1315 N   0  0  0  0  0  0  0  0  0  0  0  0
    3.3304   -3.2465   -0.0298 H   0  0  0  0  0  0  0  0  0  0  0  0
    1.5411   -2.8770    1.5714 H   0  0  0  0  0  0  0  0  0  0  0  0
   -1.6187    0.9403    3.1893 H   0  0  0  0  0  0  0  0  0  0  0  0
   -0.3662    1.7750    2.2225 H   0  0  0  0  0  0  0  0  0  0  0  0
   -3.3708   -0.3705    2.0715 H   0  0  0  0  0  0  0  0  0  0  0  0
   -4.9722   -0.4903    0.1298 H   0  0  0  0  0  0  0  0  0  0  0  0
   -2.2639    1.8473   -2.1158 H   0  0  0  0  0  0  0  0  0  0  0  0
   -0.7293    1.9924   -0.2642 H   0  0  0  0  0  0  0  0  0  0  0  0
    1.2765    1.1733    0.3909 H   0  0  0  0  0  0  0  0  0  0  0  0
  1  2  3  0
  2  3  1  0
  3  4  2  0
  4  5  1  0
  5  6  2  0
  6  7  1  0
  7  8  1  0
  8  9  1  0
  9 10  2  0
 10 11  1  0
 11 12  2  0
 12 13  1  0
 12 14  1  0
 14 15  2  0
  6 16  1  0
 16 17  2  0
 17 18  1  0
 18 19  3  0
 17  3  1  0
 15  9  1  0
  4 20  1  0
  5 21  1  0
  8 22  1  0
  8 23  1  0
 10 24  1  0
 11 25  1  0
 14 26  1  0
 15 27  1  0
 16 28  1  0
M  END
$$$$
