
     RDKit          3D

 55 58  0  0  0  0  0  0  0  0999 V2000
    4.2284   -2.4504   -0.6790 O   0  0  0  0  0  0  0  0  0  0  0  0
    4.7423   -1.3287   -0.4511 C   0  0  0  0  0  0  0  0  0  0  0  0
    4.0944   -0.1026   -0.7644 N   0  0  0  0  0  0  0  0  0  0  0  0
    2.8073   -0.0290   -1.3523 C   0  0  0  0  0  0  0  0  0  0  0  0
    1.6523   -0.5765   -0.5671 C   0  0  0  0  0  0  0  0  0  0  0  0
    1.8330   -1.9222   -0.3241 O   0  0  0  0  0  0  0  0  0  0  0  0
    1.5603    0.1117    0.7661 C   0  0  0  0  0  0  0  0  0  0  0  0
    0.4642    1.1340    0.8407 C   0  0  0  0  0  0  0  0  0  0  0  0
   -0.7935    0.6770    0.3710 N   0  0  0  0  0  0  0  0  0  0  0  0
   -1.9850    1.2936    0.8092 C   0  0  0  0  0  0  0  0  0  0  0  0
   -3.1878    0.8607    0.3638 N   0  0  0  0  0  0  0  0  0  0  0  0
   -4.3591    1.4003    0.7390 C   0  0  0  0  0  0  0  0  0  0  0  0
   -5.5870    0.9396    0.2685 O   0  0  0  0  0  0  0  0  0  0  0  0
   -5.5669   -0.1219   -0.6234 C   0  0  0  0  0  0  0  0  0  0  0  0
   -5.6177   -1.4424   -0.1916 C   0  0  0  0  0  0  0  0  0  0  0  0
   -5.5936   -2.4451   -1.1388 C   0  0  0  0  0  0  0  0  0  0  0  0
   -5.5210   -2.1404   -2.4789 C   0  0  0  0  0  0  0  0  0  0  0  0
   -5.4721   -0.8269   -2.8754 C   0  0  0  0  0  0  0  0  0  0  0  0
   -5.4002   -0.5583   -4.2139 F   0  0  0  0  0  0  0  0  0  0  0  0
   -5.4939    0.1948   -1.9651 C   0  0  0  0  0  0  0  0  0  0  0  0
   -4.2864    2.4605    1.6360 C   0  0  0  0  0  0  0  0  0  0  0  0
   -3.0733    2.9109    2.0969 C   0  0  0  0  0  0  0  0  0  0  0  0
   -2.9771    4.0515    3.0641 C   0  0  0  0  0  0  0  0  0  0  0  0
   -2.7163    5.2237    2.4189 F   0  0  0  0  0  0  0  0  0  0  0  0
   -4.2013    4.1079    3.7317 F   0  0  0  0  0  0  0  0  0  0  0  0
   -1.9425    3.8123    3.9528 F   0  0  0  0  0  0  0  0  0  0  0  0
   -1.9446    2.3253    1.6802 N   0  0  0  0  0  0  0  0  0  0  0  0
   -0.8547   -0.4183   -0.5543 C   0  0  0  0  0  0  0  0  0  0  0  0
    0.3862   -0.4611   -1.3791 C   0  0  0  0  0  0  0  0  0  0  0  0
    6.0723   -1.3211    0.1673 C   0  0  0  0  0  0  0  0  0  0  0  0
    6.6829   -2.5171    0.4628 C   0  0  0  0  0  0  0  0  0  0  0  0
    7.8959   -2.5979    1.0277 N   0  0  0  0  0  0  0  0  0  0  0  0
    8.5470   -1.4573    1.3194 C   0  0  0  0  0  0  0  0  0  0  0  0
    7.9565   -0.2483    1.0332 C   0  0  0  0  0  0  0  0  0  0  0  0
    6.7385   -0.2028    0.4664 N   0  0  0  0  0  0  0  0  0  0  0  0
    4.6655    0.7690   -0.5168 H   0  0  0  0  0  0  0  0  0  0  0  0
    2.7905   -0.5357   -2.3720 H   0  0  0  0  0  0  0  0  0  0  0  0
    2.6105    1.0604   -1.6063 H   0  0  0  0  0  0  0  0  0  0  0  0
    1.0026   -2.4489   -0.4381 H   0  0  0  0  0  0  0  0  0  0  0  0
    1.4435   -0.6177    1.5874 H   0  0  0  0  0  0  0  0  0  0  0  0
    2.5202    0.6379    0.9404 H   0  0  0  0  0  0  0  0  0  0  0  0
    0.3525    1.4459    1.8995 H   0  0  0  0  0  0  0  0  0  0  0  0
    0.7244    2.0750    0.2854 H   0  0  0  0  0  0  0  0  0  0  0  0
   -5.6736   -1.6170    0.8666 H   0  0  0  0  0  0  0  0  0  0  0  0
   -5.6336   -3.4656   -0.7902 H   0  0  0  0  0  0  0  0  0  0  0  0
   -5.5031   -2.9504   -3.2134 H   0  0  0  0  0  0  0  0  0  0  0  0
   -5.4533    1.2166   -2.3251 H   0  0  0  0  0  0  0  0  0  0  0  0
   -5.2093    2.9228    1.9629 H   0  0  0  0  0  0  0  0  0  0  0  0
   -0.9889   -1.3930   -0.0356 H   0  0  0  0  0  0  0  0  0  0  0  0
   -1.7073   -0.2409   -1.2586 H   0  0  0  0  0  0  0  0  0  0  0  0
    0.2822   -1.3049   -2.1000 H   0  0  0  0  0  0  0  0  0  0  0  0
    0.4314    0.4638   -1.9909 H   0  0  0  0  0  0  0  0  0  0  0  0
    6.1952   -3.4695    0.2452 H   0  0  0  0  0  0  0  0  0  0  0  0
    9.5402   -1.5213    1.7819 H   0  0  0  0  0  0  0  0  0  0  0  0
    8.5230    0.6377    1.2879 H   0  0  0  0  0  0  0  0  0  0  0  0
  1  2  2  0
  2  3  1  0
  3  4  1  0
  4  5  1  0
  5  6  1  0
  5  7  1  0
  7  8  1  0
  8  9  1  0
  9 10  1  0
 10 11  2  0
 11 12  1  0
 12 13  1  0
 13 14  1  0
 14 15  2  0
 15 16  1  0
 16 17  2  0
 17 18  1  0
 18 19  1  0
 18 20  2  0
 12 21  2  0
 21 22  1  0
 22 23  1  0
 23 24  1  0
 23 25  1  0
 23 26  1  0
 22 27  2  0
  9 28  1  0
 28 29  1  0
  2 30  1  0
 30 31  2  0
 31 32  1  0
 32 33  2  0
 33 34  1  0
 34 35  2  0
 29  5  1  0
 35 30  1  0
 27 10  1  0
 20 14  1  0
  3 36  1  0
  4 37  1  0
  4 38  1  0
  6 39  1  0
  7 40  1  0
  7 41  1  0
  8 42  1  0
  8 43  1  0
 15 44  1  0
 16 45  1  0
 17 46  1  0
 20 47  1  0
 21 48  1  0
 28 49  1  0
 28 50  1  0
 29 51  1  0
 29 52  1  0
 31 53  1  0
 33 54  1  0
 34 55  1  0
M  END
$$$$
