
     RDKit          3D

 50 53  0  0  0  0  0  0  0  0999 V2000
    3.4221    1.5581    1.4060 C   0  0  0  0  0  0  0  0  0  0  0  0
    2.5626    0.3078    1.2281 C   0  0  0  0  0  0  0  0  0  0  0  0
    2.7173   -0.4716    2.5331 C   0  0  0  0  0  0  0  0  0  0  0  0
    1.1725    0.7574    1.0340 C   0  0  0  0  0  0  0  0  0  0  0  0
    0.9064    1.9871    1.0395 O   0  0  0  0  0  0  0  0  0  0  0  0
    0.0835   -0.0738    0.8384 O   0  0  0  0  0  0  0  0  0  0  0  0
   -1.2400    0.2988    0.6563 C   0  0  0  0  0  0  0  0  0  0  0  0
   -1.7553    1.0660    1.8513 C   0  0  0  0  0  0  0  0  0  0  0  0
   -2.0636   -0.9636    0.5296 C   0  0  0  0  0  0  0  0  0  0  0  0
   -1.8273   -1.6881   -0.7824 C   0  0  0  0  0  0  0  0  0  0  0  0
   -2.2077   -0.7682   -1.9230 C   0  0  0  0  0  0  0  0  0  0  0  0
   -3.6711   -0.3854   -1.8334 C   0  0  0  0  0  0  0  0  0  0  0  0
   -3.8587    0.3358   -0.4899 C   0  0  0  0  0  0  0  0  0  0  0  0
   -3.5506   -0.6641    0.5699 C   0  0  0  0  0  0  0  0  0  0  0  0
   -2.9685    1.5338   -0.5267 C   0  0  0  0  0  0  0  0  0  0  0  0
   -1.4913    1.1465   -0.5540 C   0  0  0  0  0  0  0  0  0  0  0  0
   -1.2976    0.4201   -1.8635 C   0  0  0  0  0  0  0  0  0  0  0  0
    3.1245   -0.4625    0.1164 C   0  0  0  0  0  0  0  0  0  0  0  0
    4.3834   -0.1909   -0.3570 C   0  0  0  0  0  0  0  0  0  0  0  0
    4.9367   -0.9200   -1.4159 C   0  0  0  0  0  0  0  0  0  0  0  0
    4.1778   -1.9265   -1.9758 C   0  0  0  0  0  0  0  0  0  0  0  0
    2.9439   -2.1919   -1.5109 N   0  0  0  0  0  0  0  0  0  0  0  0
    2.4117   -1.4757   -0.4773 C   0  0  0  0  0  0  0  0  0  0  0  0
    3.6023    2.0431    0.4090 H   0  0  0  0  0  0  0  0  0  0  0  0
    4.3622    1.3132    1.9256 H   0  0  0  0  0  0  0  0  0  0  0  0
    2.8469    2.2706    2.0202 H   0  0  0  0  0  0  0  0  0  0  0  0
    2.9975    0.2099    3.3744 H   0  0  0  0  0  0  0  0  0  0  0  0
    3.5042   -1.2321    2.4383 H   0  0  0  0  0  0  0  0  0  0  0  0
    1.7494   -0.9371    2.8350 H   0  0  0  0  0  0  0  0  0  0  0  0
   -2.8526    1.1682    1.8769 H   0  0  0  0  0  0  0  0  0  0  0  0
   -1.2544    2.0575    1.8572 H   0  0  0  0  0  0  0  0  0  0  0  0
   -1.4237    0.5300    2.7590 H   0  0  0  0  0  0  0  0  0  0  0  0
   -1.7909   -1.6890    1.3379 H   0  0  0  0  0  0  0  0  0  0  0  0
   -2.5493   -2.5278   -0.8039 H   0  0  0  0  0  0  0  0  0  0  0  0
   -0.7909   -1.9906   -0.9233 H   0  0  0  0  0  0  0  0  0  0  0  0
   -2.0606   -1.3147   -2.8774 H   0  0  0  0  0  0  0  0  0  0  0  0
   -4.2558   -1.3198   -1.8721 H   0  0  0  0  0  0  0  0  0  0  0  0
   -3.9083    0.3385   -2.6144 H   0  0  0  0  0  0  0  0  0  0  0  0
   -4.9015    0.6973   -0.3859 H   0  0  0  0  0  0  0  0  0  0  0  0
   -4.0327   -1.6310    0.2258 H   0  0  0  0  0  0  0  0  0  0  0  0
   -3.9574   -0.4901    1.5590 H   0  0  0  0  0  0  0  0  0  0  0  0
   -3.1901    2.3038    0.2168 H   0  0  0  0  0  0  0  0  0  0  0  0
   -3.1400    2.0245   -1.5317 H   0  0  0  0  0  0  0  0  0  0  0  0
   -0.9269    2.0882   -0.5752 H   0  0  0  0  0  0  0  0  0  0  0  0
   -0.2635    0.0581   -1.9993 H   0  0  0  0  0  0  0  0  0  0  0  0
   -1.5892    1.1304   -2.6648 H   0  0  0  0  0  0  0  0  0  0  0  0
    5.0160    0.5939    0.0555 H   0  0  0  0  0  0  0  0  0  0  0  0
    5.9111   -0.7354   -1.8080 H   0  0  0  0  0  0  0  0  0  0  0  0
    4.5499   -2.5312   -2.8028 H   0  0  0  0  0  0  0  0  0  0  0  0
    1.4375   -1.7029   -0.1243 H   0  0  0  0  0  0  0  0  0  0  0  0
  1  2  1  0
  2  3  1  0
  2  4  1  0
  4  5  2  0
  4  6  1  0
  6  7  1  0
  7  8  1  0
  7  9  1  0
  9 10  1  0
 10 11  1  0
 11 12  1  0
 12 13  1  0
 13 14  1  0
 13 15  1  0
 15 16  1  0
 16 17  1  0
  2 18  1  0
 18 19  2  0
 19 20  1  0
 20 21  2  0
 21 22  1  0
 22 23  2  0
 16  7  1  0
 23 18  1  0
 14  9  1  0
 17 11  1  0
  1 24  1  0
  1 25  1  0
  1 26  1  0
  3 27  1  0
  3 28  1  0
  3 29  1  0
  8 30  1  0
  8 31  1  0
  8 32  1  0
  9 33  1  0
 10 34  1  0
 10 35  1  0
 11 36  1  0
 12 37  1  0
 12 38  1  0
 13 39  1  0
 14 40  1  0
 14 41  1  0
 15 42  1  0
 15 43  1  0
 16 44  1  0
 17 45  1  0
 17 46  1  0
 19 47  1  0
 20 48  1  0
 21 49  1  0
 23 50  1  0
M  END
$$$$
