
     RDKit          3D

 68 70  0  0  0  0  0  0  0  0999 V2000
   10.2807   -3.0735    3.2693 C   0  0  0  0  0  0  0  0  0  0  0  0
    9.7309   -1.8119    2.6093 O   0  0  0  0  0  0  0  0  0  0  0  0
    8.3849   -1.6170    3.0655 C   0  0  0  0  0  0  0  0  0  0  0  0
    7.9913   -2.5358    3.8596 O   0  0  0  0  0  0  0  0  0  0  0  0
    7.5648   -0.5060    2.6785 C   0  0  0  0  0  0  0  0  0  0  0  0
    6.1483   -0.5214    3.2097 C   0  0  0  0  0  0  0  0  0  0  0  0
    5.3577   -1.6460    2.6349 C   0  0  0  0  0  0  0  0  0  0  0  0
    3.9509   -1.8171    3.0114 C   0  0  0  0  0  0  0  0  0  0  0  0
    3.0527   -0.5973    2.7875 C   0  0  0  0  0  0  0  0  0  0  0  0
    3.2385   -0.2099    1.3810 C   0  0  0  0  0  0  0  0  0  0  0  0
    2.5938    0.9495    0.7695 C   0  0  0  0  0  0  0  0  0  0  0  0
    1.1586    0.8980    0.4823 C   0  0  0  0  0  0  0  0  0  0  0  0
    0.7728    0.7280   -0.8163 C   0  0  0  0  0  0  0  0  0  0  0  0
   -0.5302    0.7140   -1.0079 C   0  0  0  0  0  0  0  0  0  0  0  0
   -1.5905    0.8190   -0.1561 C   0  0  0  0  0  0  0  0  0  0  0  0
   -2.9106    0.6330   -0.6744 N   0  0  0  0  0  0  0  0  0  0  0  0
   -3.7648    1.4658   -1.4001 C   0  0  0  0  0  0  0  0  0  0  0  0
   -3.4695    2.9365   -2.0023 S   0  0  0  0  0  0  0  0  0  0  0  0
   -5.0064    0.7414   -1.5245 N   0  0  0  0  0  0  0  0  0  0  0  0
   -6.0787    1.2168   -2.3380 C   0  0  0  0  0  0  0  0  0  0  0  0
   -7.3818    1.1264   -2.1331 C   0  0  0  0  0  0  0  0  0  0  0  0
   -8.4111    1.5277   -2.9532 C   0  0  0  0  0  0  0  0  0  0  0  0
   -8.1810    2.0622   -4.0748 C   0  0  0  0  0  0  0  0  0  0  0  0
   -9.0771    2.6138   -5.0395 C   0  0  0  0  0  0  0  0  0  0  0  0
   -9.7715    3.0614   -5.7869 N   0  0  0  0  0  0  0  0  0  0  0  0
   -6.7498    2.2607   -4.5422 C   0  0  0  0  0  0  0  0  0  0  0  0
   -6.4915    2.8765   -5.7883 C   0  0  0  0  0  0  0  0  0  0  0  0
   -6.8791    4.2036   -5.8118 F   0  0  0  0  0  0  0  0  0  0  0  0
   -5.1236    2.8545   -6.0711 F   0  0  0  0  0  0  0  0  0  0  0  0
   -7.1731    2.2371   -6.8420 F   0  0  0  0  0  0  0  0  0  0  0  0
   -5.7893    1.8237   -3.6378 C   0  0  0  0  0  0  0  0  0  0  0  0
   -4.9477   -0.5209   -0.8538 C   0  0  0  0  0  0  0  0  0  0  0  0
   -6.0065   -1.1488   -0.6489 O   0  0  0  0  0  0  0  0  0  0  0  0
   -3.5228   -0.7103   -0.5906 C   0  0  0  0  0  0  0  0  0  0  0  0
   -2.9650   -1.5974   -1.6689 C   0  0  0  0  0  0  0  0  0  0  0  0
   -3.2582   -1.2907    0.7952 C   0  0  0  0  0  0  0  0  0  0  0  0
   -1.1753    0.9899    1.1421 C   0  0  0  0  0  0  0  0  0  0  0  0
    0.2079    1.0444    1.5376 C   0  0  0  0  0  0  0  0  0  0  0  0
    0.5436    1.2543    2.8024 F   0  0  0  0  0  0  0  0  0  0  0  0
    9.7037   -3.8985    2.9214 H   0  0  0  0  0  0  0  0  0  0  0  0
   11.3035   -3.0836    2.8465 H   0  0  0  0  0  0  0  0  0  0  0  0
   10.2723   -2.8531    4.3211 H   0  0  0  0  0  0  0  0  0  0  0  0
    8.0144    0.4692    3.0334 H   0  0  0  0  0  0  0  0  0  0  0  0
    7.5559   -0.4614    1.5559 H   0  0  0  0  0  0  0  0  0  0  0  0
    5.6640    0.4777    3.1346 H   0  0  0  0  0  0  0  0  0  0  0  0
    6.2796   -0.6620    4.3338 H   0  0  0  0  0  0  0  0  0  0  0  0
    5.8906   -2.5961    2.9688 H   0  0  0  0  0  0  0  0  0  0  0  0
    5.5254   -1.6727    1.5061 H   0  0  0  0  0  0  0  0  0  0  0  0
    3.5504   -2.7088    2.4603 H   0  0  0  0  0  0  0  0  0  0  0  0
    3.8853   -2.1225    4.0937 H   0  0  0  0  0  0  0  0  0  0  0  0
    2.0460   -0.9121    3.0971 H   0  0  0  0  0  0  0  0  0  0  0  0
    3.3539    0.2362    3.4452 H   0  0  0  0  0  0  0  0  0  0  0  0
    4.3704   -0.0589    1.2469 H   0  0  0  0  0  0  0  0  0  0  0  0
    3.1063   -1.1471    0.6988 H   0  0  0  0  0  0  0  0  0  0  0  0
    2.7856    1.8907    1.3927 H   0  0  0  0  0  0  0  0  0  0  0  0
    3.1206    1.2450   -0.2011 H   0  0  0  0  0  0  0  0  0  0  0  0
    1.4356    0.5893   -1.6810 H   0  0  0  0  0  0  0  0  0  0  0  0
   -0.8426    0.7166   -2.0971 H   0  0  0  0  0  0  0  0  0  0  0  0
   -7.6858    0.6660   -1.1377 H   0  0  0  0  0  0  0  0  0  0  0  0
   -9.4581    1.4047   -2.5503 H   0  0  0  0  0  0  0  0  0  0  0  0
   -4.7447    1.9138   -3.8865 H   0  0  0  0  0  0  0  0  0  0  0  0
   -2.7446   -2.6096   -1.2517 H   0  0  0  0  0  0  0  0  0  0  0  0
   -2.0385   -1.2458   -2.1099 H   0  0  0  0  0  0  0  0  0  0  0  0
   -3.7395   -1.7588   -2.4632 H   0  0  0  0  0  0  0  0  0  0  0  0
   -2.1597   -1.3980    0.8728 H   0  0  0  0  0  0  0  0  0  0  0  0
   -3.5814   -0.6200    1.6076 H   0  0  0  0  0  0  0  0  0  0  0  0
   -3.6896   -2.3050    0.8976 H   0  0  0  0  0  0  0  0  0  0  0  0
   -1.9014    1.0713    1.9114 H   0  0  0  0  0  0  0  0  0  0  0  0
  1  2  1  0
  2  3  1  0
  3  4  2  0
  3  5  1  0
  5  6  1  0
  6  7  1  0
  7  8  1  0
  8  9  1  0
  9 10  1  0
 10 11  1  0
 11 12  1  0
 12 13  2  0
 13 14  1  0
 14 15  2  0
 15 16  1  0
 16 17  1  0
 17 18  2  0
 17 19  1  0
 19 20  1  0
 20 21  2  0
 21 22  1  0
 22 23  2  0
 23 24  1  0
 24 25  3  0
 23 26  1  0
 26 27  1  0
 27 28  1  0
 27 29  1  0
 27 30  1  0
 26 31  2  0
 19 32  1  0
 32 33  2  0
 32 34  1  0
 34 35  1  0
 34 36  1  0
 15 37  1  0
 37 38  2  0
 38 39  1  0
 38 12  1  0
 34 16  1  0
 31 20  1  0
  1 40  1  0
  1 41  1  0
  1 42  1  0
  5 43  1  0
  5 44  1  0
  6 45  1  0
  6 46  1  0
  7 47  1  0
  7 48  1  0
  8 49  1  0
  8 50  1  0
  9 51  1  0
  9 52  1  0
 10 53  1  0
 10 54  1  0
 11 55  1  0
 11 56  1  0
 13 57  1  0
 14 58  1  0
 21 59  1  0
 22 60  1  0
 31 61  1  0
 35 62  1  0
 35 63  1  0
 35 64  1  0
 36 65  1  0
 36 66  1  0
 36 67  1  0
 37 68  1  0
M  END
$$$$
