
     RDKit          3D

 55 58  0  0  0  0  0  0  0  0999 V2000
    2.7200   -2.1253    1.5342 O   0  0  0  0  0  0  0  0  0  0  0  0
    3.0738   -1.0495    1.1102 C   0  0  0  0  0  0  0  0  0  0  0  0
    4.0727   -0.9004   -0.0019 C   0  0  0  0  0  0  0  0  0  0  0  0
    5.1846   -0.0214    0.5307 C   0  0  1  0  0  0  0  0  0  0  0  0
    6.3463    0.0267   -0.3896 C   0  0  0  0  0  0  0  0  0  0  0  0
    6.3410    0.7413   -1.5644 C   0  0  0  0  0  0  0  0  0  0  0  0
    7.4632    0.7329   -2.3629 C   0  0  0  0  0  0  0  0  0  0  0  0
    8.6114    0.0303   -2.0351 C   0  0  0  0  0  0  0  0  0  0  0  0
    8.5975   -0.6781   -0.8566 C   0  0  0  0  0  0  0  0  0  0  0  0
    7.4733   -0.6808   -0.0385 C   0  0  0  0  0  0  0  0  0  0  0  0
    4.6126    1.3019    0.7349 N   0  0  0  0  0  0  0  0  0  0  0  0
    3.2581    1.3837    1.1660 C   0  0  0  0  0  0  0  0  0  0  0  0
    2.6829    2.5057    1.0941 O   0  0  0  0  0  0  0  0  0  0  0  0
    2.5195    0.2056    1.6879 C   0  0  0  0  0  0  0  0  0  0  0  0
    1.1045    0.3285    1.2543 C   0  0  0  0  0  0  0  0  0  0  0  0
    0.7160    1.3042    0.5848 O   0  0  0  0  0  0  0  0  0  0  0  0
    0.1230   -0.6527    1.5769 N   0  0  0  0  0  0  0  0  0  0  0  0
   -1.2221   -0.4960    1.1415 C   0  0  0  0  0  0  0  0  0  0  0  0
   -1.6448   -0.9978   -0.0715 C   0  0  0  0  0  0  0  0  0  0  0  0
   -2.9653   -0.8412   -0.4936 C   0  0  0  0  0  0  0  0  0  0  0  0
   -3.8722   -0.1773    0.3032 C   0  0  0  0  0  0  0  0  0  0  0  0
   -5.2706    0.0232   -0.0761 C   0  0  0  0  0  0  0  0  0  0  0  0
   -5.2746    0.7953   -1.3983 C   0  0  0  0  0  0  0  0  0  0  0  0
   -6.6332    1.4637   -1.4880 C   0  0  0  0  0  0  0  0  0  0  0  0
   -7.6368    0.5830   -0.7991 C   0  0  0  0  0  0  0  0  0  0  0  0
   -7.3402   -0.8920   -0.9722 C   0  0  0  0  0  0  0  0  0  0  0  0
   -6.0155   -1.2634   -0.3342 C   0  0  0  0  0  0  0  0  0  0  0  0
   -3.4238    0.3139    1.5098 C   0  0  0  0  0  0  0  0  0  0  0  0
   -2.1249    0.1698    1.9443 C   0  0  0  0  0  0  0  0  0  0  0  0
    4.4397   -1.8698   -0.3668 H   0  0  0  0  0  0  0  0  0  0  0  0
    3.5705   -0.3036   -0.8098 H   0  0  0  0  0  0  0  0  0  0  0  0
    5.4741   -0.3963    1.5172 H   0  0  0  0  0  0  0  0  0  0  0  0
    5.4381    1.2885   -1.8134 H   0  0  0  0  0  0  0  0  0  0  0  0
    7.4620    1.2897   -3.2804 H   0  0  0  0  0  0  0  0  0  0  0  0
    9.4754    0.0382   -2.6736 H   0  0  0  0  0  0  0  0  0  0  0  0
    9.4725   -1.2573   -0.5346 H   0  0  0  0  0  0  0  0  0  0  0  0
    7.4797   -1.2473    0.8913 H   0  0  0  0  0  0  0  0  0  0  0  0
    5.1267    2.1868    0.5871 H   0  0  0  0  0  0  0  0  0  0  0  0
    2.6217    0.2285    2.7964 H   0  0  0  0  0  0  0  0  0  0  0  0
    0.4218   -1.4793    2.1363 H   0  0  0  0  0  0  0  0  0  0  0  0
   -0.9585   -1.5207   -0.7145 H   0  0  0  0  0  0  0  0  0  0  0  0
   -3.3051   -1.2283   -1.4369 H   0  0  0  0  0  0  0  0  0  0  0  0
   -5.8150    0.5723    0.6964 H   0  0  0  0  0  0  0  0  0  0  0  0
   -5.0857    0.1324   -2.2438 H   0  0  0  0  0  0  0  0  0  0  0  0
   -4.4854    1.5664   -1.3500 H   0  0  0  0  0  0  0  0  0  0  0  0
   -6.5457    2.4145   -0.8851 H   0  0  0  0  0  0  0  0  0  0  0  0
   -6.9018    1.6835   -2.5387 H   0  0  0  0  0  0  0  0  0  0  0  0
   -8.6191    0.7581   -1.3106 H   0  0  0  0  0  0  0  0  0  0  0  0
   -7.7908    0.8509    0.2717 H   0  0  0  0  0  0  0  0  0  0  0  0
   -8.1869   -1.4444   -0.5244 H   0  0  0  0  0  0  0  0  0  0  0  0
   -7.2423   -1.0703   -2.0576 H   0  0  0  0  0  0  0  0  0  0  0  0
   -5.4416   -1.9744   -0.9570 H   0  0  0  0  0  0  0  0  0  0  0  0
   -6.2178   -1.7438    0.6239 H   0  0  0  0  0  0  0  0  0  0  0  0
   -4.1075    0.8432    2.1666 H   0  0  0  0  0  0  0  0  0  0  0  0
   -1.7555    0.5487    2.8878 H   0  0  0  0  0  0  0  0  0  0  0  0
  1  2  2  0
  2  3  1  0
  3  4  1  0
  4  5  1  0
  5  6  2  0
  6  7  1  0
  7  8  2  0
  8  9  1  0
  9 10  2  0
  4 11  1  0
 11 12  1  0
 12 13  2  0
 12 14  1  0
 14 15  1  0
 15 16  2  0
 15 17  1  0
 17 18  1  0
 18 19  2  0
 19 20  1  0
 20 21  2  0
 21 22  1  0
 22 23  1  0
 23 24  1  0
 24 25  1  0
 25 26  1  0
 26 27  1  0
 21 28  1  0
 28 29  2  0
 14  2  1  0
 29 18  1  0
 10  5  1  0
 27 22  1  0
  3 30  1  0
  3 31  1  0
  4 32  1  1
  6 33  1  0
  7 34  1  0
  8 35  1  0
  9 36  1  0
 10 37  1  0
 11 38  1  0
 14 39  1  0
 17 40  1  0
 19 41  1  0
 20 42  1  0
 22 43  1  0
 23 44  1  0
 23 45  1  0
 24 46  1  0
 24 47  1  0
 25 48  1  0
 25 49  1  0
 26 50  1  0
 26 51  1  0
 27 52  1  0
 27 53  1  0
 28 54  1  0
 29 55  1  0
M  END
$$$$
