
     RDKit          3D

 45 48  0  0  0  0  0  0  0  0999 V2000
    6.6911    1.5331    1.6903 C   0  0  0  0  0  0  0  0  0  0  0  0
    5.9546    1.8156    0.4737 N   0  0  0  0  0  0  0  0  0  0  0  0
    6.4063    2.7262   -0.4040 C   0  0  0  0  0  0  0  0  0  0  0  0
    5.5032    2.7446   -1.4044 N   0  0  0  0  0  0  0  0  0  0  0  0
    4.5455    1.8791   -1.1395 N   0  0  0  0  0  0  0  0  0  0  0  0
    4.8109    1.2916    0.0267 C   0  0  0  0  0  0  0  0  0  0  0  0
    3.9040    0.0427    0.9208 S   0  0  0  0  0  0  0  0  0  0  0  0
    2.4229   -0.4300    0.0336 C   0  0  0  0  0  0  0  0  0  0  0  0
    1.2503    0.1994    0.2278 N   0  0  0  0  0  0  0  0  0  0  0  0
    0.2065   -0.2198   -0.4742 C   0  0  0  0  0  0  0  0  0  0  0  0
   -1.0858    0.4115   -0.3159 C   0  0  0  0  0  0  0  0  0  0  0  0
   -2.1207    0.0616   -0.9533 O   0  0  0  0  0  0  0  0  0  0  0  0
   -1.2536    1.4941    0.5986 N   0  0  0  0  0  0  0  0  0  0  0  0
   -2.4440    2.1975    0.8535 C   0  0  0  0  0  0  0  0  0  0  0  0
   -3.0453    3.1508    0.4653 N   0  0  0  0  0  0  0  0  0  0  0  0
   -4.2091    3.5545    0.9600 C   0  0  0  0  0  0  0  0  0  0  0  0
   -4.8226    4.7843    0.3416 C   0  0  0  0  0  0  0  0  0  0  0  0
   -4.8337    2.8389    2.0316 C   0  0  0  0  0  0  0  0  0  0  0  0
   -3.5186    1.4845    2.2491 S   0  0  0  0  0  0  0  0  0  0  0  0
    0.2951   -1.2559   -1.3719 C   0  0  0  0  0  0  0  0  0  0  0  0
   -1.0739   -1.8708   -2.3508 S   0  0  0  0  0  0  0  0  0  0  0  0
   -1.8965   -3.1673   -1.4300 C   0  0  0  0  0  0  0  0  0  0  0  0
   -2.9852   -3.7917   -1.9879 C   0  0  0  0  0  0  0  0  0  0  0  0
   -3.6370   -4.8025   -1.2850 C   0  0  0  0  0  0  0  0  0  0  0  0
   -3.2187   -5.1992   -0.0342 C   0  0  0  0  0  0  0  0  0  0  0  0
   -3.8490   -6.1922    0.6706 F   0  0  0  0  0  0  0  0  0  0  0  0
   -2.1289   -4.5721    0.5209 C   0  0  0  0  0  0  0  0  0  0  0  0
   -1.4856   -3.5703   -0.1796 C   0  0  0  0  0  0  0  0  0  0  0  0
    1.4963   -1.9040   -1.5738 C   0  0  0  0  0  0  0  0  0  0  0  0
    2.5919   -1.4821   -0.8530 C   0  0  0  0  0  0  0  0  0  0  0  0
    7.7005    1.1136    1.4617 H   0  0  0  0  0  0  0  0  0  0  0  0
    6.7511    2.4036    2.3725 H   0  0  0  0  0  0  0  0  0  0  0  0
    6.1012    0.7556    2.2556 H   0  0  0  0  0  0  0  0  0  0  0  0
    7.2919    3.3595   -0.3989 H   0  0  0  0  0  0  0  0  0  0  0  0
   -0.4644    1.8622    1.1752 H   0  0  0  0  0  0  0  0  0  0  0  0
   -4.1215    5.6506    0.3731 H   0  0  0  0  0  0  0  0  0  0  0  0
   -5.7531    5.0500    0.8597 H   0  0  0  0  0  0  0  0  0  0  0  0
   -5.1192    4.5102   -0.7035 H   0  0  0  0  0  0  0  0  0  0  0  0
   -5.7055    3.0895    2.4469 H   0  0  0  0  0  0  0  0  0  0  0  0
   -3.3542   -3.5221   -2.9604 H   0  0  0  0  0  0  0  0  0  0  0  0
   -4.5036   -5.3242   -1.6891 H   0  0  0  0  0  0  0  0  0  0  0  0
   -1.8032   -4.8828    1.4976 H   0  0  0  0  0  0  0  0  0  0  0  0
   -0.6442   -3.1053    0.2801 H   0  0  0  0  0  0  0  0  0  0  0  0
    1.6165   -2.7289   -2.2729 H   0  0  0  0  0  0  0  0  0  0  0  0
    3.5377   -1.9837   -1.0043 H   0  0  0  0  0  0  0  0  0  0  0  0
  1  2  1  0
  2  3  1  0
  3  4  2  0
  4  5  1  0
  5  6  2  0
  6  7  1  0
  7  8  1  0
  8  9  2  0
  9 10  1  0
 10 11  1  0
 11 12  2  0
 11 13  1  0
 13 14  1  0
 14 15  2  0
 15 16  1  0
 16 17  1  0
 16 18  2  0
 18 19  1  0
 10 20  2  0
 20 21  1  0
 21 22  1  0
 22 23  2  0
 23 24  1  0
 24 25  2  0
 25 26  1  0
 25 27  1  0
 27 28  2  0
 20 29  1  0
 29 30  2  0
  6  2  1  0
 30  8  1  0
 19 14  1  0
 28 22  1  0
  1 31  1  0
  1 32  1  0
  1 33  1  0
  3 34  1  0
 13 35  1  0
 17 36  1  0
 17 37  1  0
 17 38  1  0
 18 39  1  0
 23 40  1  0
 24 41  1  0
 27 42  1  0
 28 43  1  0
 29 44  1  0
 30 45  1  0
M  END
$$$$
