
     RDKit          3D

 55 59  0  0  0  0  0  0  0  0999 V2000
    7.7761    0.2056    3.0889 C   0  0  0  0  0  0  0  0  0  0  0  0
    6.6514   -0.4294    2.4450 N   0  0  0  0  0  0  0  0  0  0  0  0
    5.6484    0.2858    1.7097 C   0  0  0  0  0  0  0  0  0  0  0  0
    4.6463    0.1302    1.0845 N   0  0  0  0  0  0  0  0  0  0  0  0
    3.9029    1.0144    0.4949 C   0  0  0  0  0  0  0  0  0  0  0  0
    2.6701    0.7379   -0.2636 C   0  0  0  0  0  0  0  0  0  0  0  0
    2.2066   -0.5527   -0.3996 C   0  0  0  0  0  0  0  0  0  0  0  0
    1.0559   -0.8683   -1.1000 C   0  0  0  0  0  0  0  0  0  0  0  0
    0.3255    0.1260   -1.6948 C   0  0  0  0  0  0  0  0  0  0  0  0
    0.7686    1.4246   -1.5732 C   0  0  0  0  0  0  0  0  0  0  0  0
    1.9204    1.7193   -0.8693 C   0  0  0  0  0  0  0  0  0  0  0  0
   -0.2058    2.2508   -2.3091 C   0  0  0  0  0  0  0  0  0  0  0  0
   -0.8774    1.2857   -3.2895 C   0  0  0  0  0  0  0  0  0  0  0  0
   -0.8885    0.0672   -2.4594 N   0  0  0  0  0  0  0  0  0  0  0  0
   -1.9140   -0.9069   -2.4732 C   0  0  0  0  0  0  0  0  0  0  0  0
   -2.9158   -0.6669   -3.2388 O   0  0  0  0  0  0  0  0  0  0  0  0
   -1.9351   -2.1378   -1.7079 C   0  0  0  0  0  0  0  0  0  0  0  0
   -1.4610   -3.2861   -2.3056 C   0  0  0  0  0  0  0  0  0  0  0  0
   -1.4728   -4.5060   -1.6415 C   0  0  0  0  0  0  0  0  0  0  0  0
   -1.9782   -4.5329   -0.3536 C   0  0  0  0  0  0  0  0  0  0  0  0
   -2.4622   -3.4080    0.2812 C   0  0  0  0  0  0  0  0  0  0  0  0
   -2.4255   -2.2242   -0.4268 C   0  0  0  0  0  0  0  0  0  0  0  0
   -2.9016   -1.0804    0.1783 O   0  0  0  0  0  0  0  0  0  0  0  0
   -3.4281   -1.0295    1.4790 C   0  0  0  0  0  0  0  0  0  0  0  0
   -3.8223    0.3989    1.7297 C   0  0  0  0  0  0  0  0  0  0  0  0
   -2.8660    1.2198    2.2773 C   0  0  0  0  0  0  0  0  0  0  0  0
   -3.2130    2.5438    2.5159 C   0  0  0  0  0  0  0  0  0  0  0  0
   -4.4739    3.0395    2.2193 C   0  0  0  0  0  0  0  0  0  0  0  0
   -4.9138    4.7101    2.5197 Cl  0  0  0  0  0  0  0  0  0  0  0  0
   -5.4011    2.1585    1.6654 C   0  0  0  0  0  0  0  0  0  0  0  0
   -5.0817    0.8332    1.4171 C   0  0  0  0  0  0  0  0  0  0  0  0
    4.3509    2.3357    0.6170 C   0  0  0  0  0  0  0  0  0  0  0  0
    5.8232    2.1601    1.5865 S   0  0  0  0  0  0  0  0  0  0  0  0
    7.4923    1.2755    3.2795 H   0  0  0  0  0  0  0  0  0  0  0  0
    8.6531    0.2469    2.4165 H   0  0  0  0  0  0  0  0  0  0  0  0
    8.0103   -0.2233    4.0811 H   0  0  0  0  0  0  0  0  0  0  0  0
    6.5486   -1.4471    2.5069 H   0  0  0  0  0  0  0  0  0  0  0  0
    2.7854   -1.3471    0.0726 H   0  0  0  0  0  0  0  0  0  0  0  0
    0.7179   -1.8906   -1.1880 H   0  0  0  0  0  0  0  0  0  0  0  0
    2.2639    2.7456   -0.7774 H   0  0  0  0  0  0  0  0  0  0  0  0
    0.2753    3.0935   -2.8474 H   0  0  0  0  0  0  0  0  0  0  0  0
   -0.9855    2.5928   -1.6060 H   0  0  0  0  0  0  0  0  0  0  0  0
   -0.2463    1.0644   -4.1536 H   0  0  0  0  0  0  0  0  0  0  0  0
   -1.8984    1.5895   -3.5377 H   0  0  0  0  0  0  0  0  0  0  0  0
   -1.0681   -3.2605   -3.3093 H   0  0  0  0  0  0  0  0  0  0  0  0
   -1.1135   -5.4047   -2.0796 H   0  0  0  0  0  0  0  0  0  0  0  0
   -1.9983   -5.4671    0.1828 H   0  0  0  0  0  0  0  0  0  0  0  0
   -2.8478   -3.4808    1.2912 H   0  0  0  0  0  0  0  0  0  0  0  0
   -4.3092   -1.7044    1.5504 H   0  0  0  0  0  0  0  0  0  0  0  0
   -2.7195   -1.3638    2.2572 H   0  0  0  0  0  0  0  0  0  0  0  0
   -1.8789    0.8368    2.5108 H   0  0  0  0  0  0  0  0  0  0  0  0
   -2.4866    3.2059    2.9423 H   0  0  0  0  0  0  0  0  0  0  0  0
   -6.4110    2.5002    1.4130 H   0  0  0  0  0  0  0  0  0  0  0  0
   -5.8253    0.1806    0.9874 H   0  0  0  0  0  0  0  0  0  0  0  0
    3.9332    3.2399    0.2345 H   0  0  0  0  0  0  0  0  0  0  0  0
  1  2  1  0
  2  3  1  0
  3  4  2  0
  4  5  1  0
  5  6  1  0
  6  7  2  0
  7  8  1  0
  8  9  2  0
  9 10  1  0
 10 11  2  0
 10 12  1  0
 12 13  1  0
 13 14  1  0
 14 15  1  0
 15 16  2  0
 15 17  1  0
 17 18  2  0
 18 19  1  0
 19 20  2  0
 20 21  1  0
 21 22  2  0
 22 23  1  0
 23 24  1  0
 24 25  1  0
 25 26  2  0
 26 27  1  0
 27 28  2  0
 28 29  1  0
 28 30  1  0
 30 31  2  0
  5 32  2  0
 32 33  1  0
 33  3  1  0
 11  6  1  0
 22 17  1  0
 31 25  1  0
 14  9  1  0
  1 34  1  0
  1 35  1  0
  1 36  1  0
  2 37  1  0
  7 38  1  0
  8 39  1  0
 11 40  1  0
 12 41  1  0
 12 42  1  0
 13 43  1  0
 13 44  1  0
 18 45  1  0
 19 46  1  0
 20 47  1  0
 21 48  1  0
 24 49  1  0
 24 50  1  0
 26 51  1  0
 27 52  1  0
 30 53  1  0
 31 54  1  0
 32 55  1  0
M  END
$$$$
