
     RDKit          3D

 52 55  0  0  0  0  0  0  0  0999 V2000
    0.6571   -0.0807    2.5000 C   0  0  0  0  0  0  0  0  0  0  0  0
    1.2422   -1.0886    1.5672 C   0  0  0  0  0  0  0  0  0  0  0  0
    2.5494   -1.0492    1.0954 C   0  0  0  0  0  0  0  0  0  0  0  0
    3.4926   -0.0830    1.4149 O   0  0  0  0  0  0  0  0  0  0  0  0
    3.6751    1.1015    0.7202 C   0  0  0  0  0  0  0  0  0  0  0  0
    2.9884    2.2411    1.0377 C   0  0  0  0  0  0  0  0  0  0  0  0
    3.1920    3.3953    0.3315 C   0  0  0  0  0  0  0  0  0  0  0  0
    4.0972    3.4231   -0.7147 C   0  0  0  0  0  0  0  0  0  0  0  0
    4.3915    4.8605   -1.6408 Cl  0  0  0  0  0  0  0  0  0  0  0  0
    4.7865    2.2696   -1.0295 C   0  0  0  0  0  0  0  0  0  0  0  0
    4.5716    1.1186   -0.3117 C   0  0  0  0  0  0  0  0  0  0  0  0
    2.6644   -2.1527    0.2753 C   0  0  0  0  0  0  0  0  0  0  0  0
    3.7131   -2.6488   -0.4730 C   0  0  0  0  0  0  0  0  0  0  0  0
    3.5072   -3.8109   -1.2107 C   0  0  0  0  0  0  0  0  0  0  0  0
    2.2837   -4.4430   -1.1882 C   0  0  0  0  0  0  0  0  0  0  0  0
    2.0920   -5.5902   -1.9209 F   0  0  0  0  0  0  0  0  0  0  0  0
    1.2997   -3.9212   -0.4463 N   0  0  0  0  0  0  0  0  0  0  0  0
    1.4505   -2.8032    0.2815 C   0  0  0  0  0  0  0  0  0  0  0  0
    0.5791   -2.1403    1.0807 N   0  0  0  0  0  0  0  0  0  0  0  0
   -0.8121   -2.5025    1.3574 C   0  0  0  0  0  0  0  0  0  0  0  0
   -1.7359   -1.8791    0.3834 C   0  0  0  0  0  0  0  0  0  0  0  0
   -2.0731   -2.5247   -0.7882 C   0  0  0  0  0  0  0  0  0  0  0  0
   -2.9295   -1.9697   -1.7124 C   0  0  0  0  0  0  0  0  0  0  0  0
   -3.5038   -0.7150   -1.5074 C   0  0  0  0  0  0  0  0  0  0  0  0
   -4.3508   -0.2083   -2.4610 F   0  0  0  0  0  0  0  0  0  0  0  0
   -3.1832   -0.0557   -0.3510 C   0  0  0  0  0  0  0  0  0  0  0  0
   -3.6898    1.1618   -0.0669 O   0  0  0  0  0  0  0  0  0  0  0  0
   -4.5413    2.0240   -0.6958 C   0  0  1  0  0  0  0  0  0  0  0  0
   -5.7063    2.4525    0.2154 C   0  0  0  0  0  0  0  0  0  0  0  0
   -3.7763    3.3103   -0.9223 C   0  0  0  0  0  0  0  0  0  0  0  0
   -4.3700    4.2547   -1.4926 O   0  0  0  0  0  0  0  0  0  0  0  0
   -2.4735    3.4754   -0.5301 O   0  0  0  0  0  0  0  0  0  0  0  0
   -2.3051   -0.6448    0.5779 C   0  0  0  0  0  0  0  0  0  0  0  0
    1.4314    0.3116    3.2014 H   0  0  0  0  0  0  0  0  0  0  0  0
    0.2346    0.7798    1.9242 H   0  0  0  0  0  0  0  0  0  0  0  0
   -0.1891   -0.5002    3.0820 H   0  0  0  0  0  0  0  0  0  0  0  0
    2.2619    2.2491    1.8651 H   0  0  0  0  0  0  0  0  0  0  0  0
    2.6626    4.3228    0.5564 H   0  0  0  0  0  0  0  0  0  0  0  0
    5.5107    2.2271   -1.8400 H   0  0  0  0  0  0  0  0  0  0  0  0
    5.1265    0.2009   -0.5679 H   0  0  0  0  0  0  0  0  0  0  0  0
    4.6649   -2.1377   -0.4750 H   0  0  0  0  0  0  0  0  0  0  0  0
    4.3379   -4.2056   -1.8047 H   0  0  0  0  0  0  0  0  0  0  0  0
   -0.8792   -3.6118    1.3522 H   0  0  0  0  0  0  0  0  0  0  0  0
   -1.0917   -2.2025    2.4083 H   0  0  0  0  0  0  0  0  0  0  0  0
   -1.6325   -3.5118   -0.9683 H   0  0  0  0  0  0  0  0  0  0  0  0
   -3.1934   -2.4753   -2.6296 H   0  0  0  0  0  0  0  0  0  0  0  0
   -4.9658    1.7593   -1.6585 H   0  0  0  0  0  0  0  0  0  0  0  0
   -6.0720    3.4102   -0.2058 H   0  0  0  0  0  0  0  0  0  0  0  0
   -5.3491    2.5986    1.2364 H   0  0  0  0  0  0  0  0  0  0  0  0
   -6.5451    1.7250    0.1254 H   0  0  0  0  0  0  0  0  0  0  0  0
   -2.0234    4.3828   -0.4038 H   0  0  0  0  0  0  0  0  0  0  0  0
   -2.0718   -0.0991    1.4811 H   0  0  0  0  0  0  0  0  0  0  0  0
  1  2  1  0
  2  3  2  0
  3  4  1  0
  4  5  1  0
  5  6  2  0
  6  7  1  0
  7  8  2  0
  8  9  1  0
  8 10  1  0
 10 11  2  0
  3 12  1  0
 12 13  2  0
 13 14  1  0
 14 15  2  0
 15 16  1  0
 15 17  1  0
 17 18  2  0
 18 19  1  0
 19 20  1  0
 20 21  1  0
 21 22  2  0
 22 23  1  0
 23 24  2  0
 24 25  1  0
 24 26  1  0
 26 27  1  0
 27 28  1  0
 28 29  1  0
 28 30  1  0
 30 31  2  0
 30 32  1  0
 26 33  2  0
 19  2  1  0
 33 21  1  0
 11  5  1  0
 18 12  1  0
  1 34  1  0
  1 35  1  0
  1 36  1  0
  6 37  1  0
  7 38  1  0
 10 39  1  0
 11 40  1  0
 13 41  1  0
 14 42  1  0
 20 43  1  0
 20 44  1  0
 22 45  1  0
 23 46  1  0
 28 47  1  6
 29 48  1  0
 29 49  1  0
 29 50  1  0
 32 51  1  0
 33 52  1  0
M  END
$$$$
