
     RDKit          3D

 55 59  0  0  0  0  0  0  0  0999 V2000
   -5.3195   -2.0076    2.3632 O   0  0  0  0  0  0  0  0  0  0  0  0
   -5.0174   -1.5604    1.2271 C   0  0  0  0  0  0  0  0  0  0  0  0
   -3.9031   -2.0708    0.4147 C   0  0  0  0  0  0  0  0  0  0  0  0
   -3.1860   -0.9304   -0.3202 C   0  0  0  0  0  0  0  0  0  0  0  0
   -2.3202   -0.1370    0.6004 C   0  0  0  0  0  0  0  0  0  0  0  0
   -0.8544   -0.3196    0.3750 C   0  0  0  0  0  0  0  0  0  0  0  0
   -0.4705   -0.3052   -1.0037 N   0  0  0  0  0  0  0  0  0  0  0  0
    0.8605   -0.0956   -1.4429 C   0  0  0  0  0  0  0  0  0  0  0  0
    1.1634   -0.0892   -2.6640 O   0  0  0  0  0  0  0  0  0  0  0  0
    1.9396    0.1209   -0.5326 N   0  0  0  0  0  0  0  0  0  0  0  0
    3.3130    0.3382   -0.9503 C   0  0  0  0  0  0  0  0  0  0  0  0
    3.6746    1.7481   -0.5523 C   0  0  0  0  0  0  0  0  0  0  0  0
    4.3132    1.8345    0.8195 C   0  0  0  0  0  0  0  0  0  0  0  0
    5.5768    1.0169    0.6997 C   0  0  0  0  0  0  0  0  0  0  0  0
    6.7894    1.4527    1.1837 C   0  0  0  0  0  0  0  0  0  0  0  0
    7.9478    0.7138    1.0744 C   0  0  0  0  0  0  0  0  0  0  0  0
    7.9003   -0.5240    0.4513 C   0  0  0  0  0  0  0  0  0  0  0  0
    6.6964   -0.9784   -0.0399 C   0  0  0  0  0  0  0  0  0  0  0  0
    5.5312   -0.2124    0.0815 C   0  0  0  0  0  0  0  0  0  0  0  0
    4.2411   -0.7128   -0.4456 C   0  0  0  0  0  0  0  0  0  0  0  0
   -1.4875   -0.5146   -2.0095 C   0  0  0  0  0  0  0  0  0  0  0  0
   -2.4249   -1.5820   -1.4536 C   0  0  0  0  0  0  0  0  0  0  0  0
   -4.1309   -0.0521   -0.9006 O   0  0  0  0  0  0  0  0  0  0  0  0
   -5.3609    0.2556   -0.3525 C   0  0  0  0  0  0  0  0  0  0  0  0
   -6.1475    1.2962   -0.8472 C   0  0  0  0  0  0  0  0  0  0  0  0
   -7.3684    1.6172   -0.3189 C   0  0  0  0  0  0  0  0  0  0  0  0
   -7.8371    0.8789    0.7467 C   0  0  0  0  0  0  0  0  0  0  0  0
   -7.0702   -0.1559    1.2491 C   0  0  0  0  0  0  0  0  0  0  0  0
   -5.8321   -0.4752    0.7072 C   0  0  0  0  0  0  0  0  0  0  0  0
   -4.2524   -2.7582   -0.3854 H   0  0  0  0  0  0  0  0  0  0  0  0
   -3.1480   -2.5314    1.0817 H   0  0  0  0  0  0  0  0  0  0  0  0
   -2.5499   -0.4521    1.6453 H   0  0  0  0  0  0  0  0  0  0  0  0
   -2.5698    0.9621    0.5767 H   0  0  0  0  0  0  0  0  0  0  0  0
   -0.4314   -1.2080    0.8878 H   0  0  0  0  0  0  0  0  0  0  0  0
   -0.3403    0.5618    0.8596 H   0  0  0  0  0  0  0  0  0  0  0  0
    1.7059    0.1188    0.4813 H   0  0  0  0  0  0  0  0  0  0  0  0
    3.3896    0.3090   -2.0779 H   0  0  0  0  0  0  0  0  0  0  0  0
    2.7639    2.3552   -0.5220 H   0  0  0  0  0  0  0  0  0  0  0  0
    4.4296    2.1308   -1.2745 H   0  0  0  0  0  0  0  0  0  0  0  0
    4.6363    2.8764    0.9559 H   0  0  0  0  0  0  0  0  0  0  0  0
    3.6688    1.4767    1.6251 H   0  0  0  0  0  0  0  0  0  0  0  0
    6.8072    2.4342    1.6734 H   0  0  0  0  0  0  0  0  0  0  0  0
    8.8993    1.0790    1.4657 H   0  0  0  0  0  0  0  0  0  0  0  0
    8.8217   -1.0887    0.3756 H   0  0  0  0  0  0  0  0  0  0  0  0
    6.6461   -1.9464   -0.5301 H   0  0  0  0  0  0  0  0  0  0  0  0
    4.5077   -1.4655   -1.2460 H   0  0  0  0  0  0  0  0  0  0  0  0
    3.7917   -1.3322    0.3638 H   0  0  0  0  0  0  0  0  0  0  0  0
   -2.0649    0.4462   -2.0713 H   0  0  0  0  0  0  0  0  0  0  0  0
   -1.0635   -0.8051   -2.9890 H   0  0  0  0  0  0  0  0  0  0  0  0
   -1.8191   -2.4072   -0.9840 H   0  0  0  0  0  0  0  0  0  0  0  0
   -3.1103   -1.9683   -2.2049 H   0  0  0  0  0  0  0  0  0  0  0  0
   -5.7779    1.8626   -1.6717 H   0  0  0  0  0  0  0  0  0  0  0  0
   -7.9447    2.4446   -0.7463 H   0  0  0  0  0  0  0  0  0  0  0  0
   -8.8049    1.1212    1.1777 H   0  0  0  0  0  0  0  0  0  0  0  0
   -7.4078   -0.7658    2.0949 H   0  0  0  0  0  0  0  0  0  0  0  0
  1  2  2  0
  2  3  1  0
  3  4  1  0
  4  5  1  0
  5  6  1  0
  6  7  1  0
  7  8  1  0
  8  9  2  0
  8 10  1  0
 10 11  1  0
 11 12  1  0
 12 13  1  0
 13 14  1  0
 14 15  2  0
 15 16  1  0
 16 17  2  0
 17 18  1  0
 18 19  2  0
 19 20  1  0
  7 21  1  0
 21 22  1  0
  4 23  1  0
 23 24  1  0
 24 25  2  0
 25 26  1  0
 26 27  2  0
 27 28  1  0
 28 29  2  0
 29  2  1  0
 22  4  1  0
 29 24  1  0
 20 11  1  0
 19 14  1  0
  3 30  1  0
  3 31  1  0
  5 32  1  0
  5 33  1  0
  6 34  1  0
  6 35  1  0
 10 36  1  0
 11 37  1  0
 12 38  1  0
 12 39  1  0
 13 40  1  0
 13 41  1  0
 15 42  1  0
 16 43  1  0
 17 44  1  0
 18 45  1  0
 20 46  1  0
 20 47  1  0
 21 48  1  0
 21 49  1  0
 22 50  1  0
 22 51  1  0
 25 52  1  0
 26 53  1  0
 27 54  1  0
 28 55  1  0
M  END
$$$$
