
     RDKit          3D

 61 64  0  0  0  0  0  0  0  0999 V2000
   -7.5825    4.0735    0.6876 F   0  0  0  0  0  0  0  0  0  0  0  0
   -6.6685    3.1363    0.3607 C   0  0  0  0  0  0  0  0  0  0  0  0
   -6.7828    2.4183   -0.8048 C   0  0  0  0  0  0  0  0  0  0  0  0
   -5.8257    1.4647   -1.1069 C   0  0  0  0  0  0  0  0  0  0  0  0
   -4.7596    1.2093   -0.2782 C   0  0  0  0  0  0  0  0  0  0  0  0
   -3.7370    0.1604   -0.6364 C   0  0  0  0  0  0  0  0  0  0  0  0
   -2.4626    0.7063   -0.4573 N   0  0  0  0  0  0  0  0  0  0  0  0
   -1.2951   -0.0374   -0.6937 C   0  0  0  0  0  0  0  0  0  0  0  0
   -0.1104    0.9075   -0.4838 C   0  0  0  0  0  0  0  0  0  0  0  0
    1.2170    0.2186   -0.7086 C   0  0  0  0  0  0  0  0  0  0  0  0
    2.2796    1.2595   -0.4805 C   0  0  0  0  0  0  0  0  0  0  0  0
    3.4501    0.7894    0.3060 C   0  0  0  0  0  0  0  0  0  0  0  0
    3.7299   -0.5873    0.2446 N   0  0  0  0  0  0  0  0  0  0  0  0
    4.6786   -1.0609   -0.6823 C   0  0  0  0  0  0  0  0  0  0  0  0
    5.9933   -0.4177   -0.4533 C   0  0  0  0  0  0  0  0  0  0  0  0
    6.8587   -0.9837    0.4775 C   0  0  0  0  0  0  0  0  0  0  0  0
    8.1151   -0.4140    0.7196 C   0  0  0  0  0  0  0  0  0  0  0  0
    8.5021    0.6998    0.0457 C   0  0  0  0  0  0  0  0  0  0  0  0
    7.6621    1.2828   -0.8846 C   0  0  0  0  0  0  0  0  0  0  0  0
    6.4276    0.7036   -1.1069 C   0  0  0  0  0  0  0  0  0  0  0  0
    2.6402   -1.4661    0.5268 C   0  0  0  0  0  0  0  0  0  0  0  0
    1.2814   -0.9439    0.2233 C   0  0  0  0  0  0  0  0  0  0  0  0
   -4.0673   -1.1204   -0.0330 C   0  0  0  0  0  0  0  0  0  0  0  0
   -5.1315   -1.1994    0.8385 C   0  0  0  0  0  0  0  0  0  0  0  0
   -5.5170   -2.3903    1.4262 C   0  0  0  0  0  0  0  0  0  0  0  0
   -4.8034   -3.5481    1.1254 C   0  0  0  0  0  0  0  0  0  0  0  0
   -5.1675   -4.7369    1.6939 F   0  0  0  0  0  0  0  0  0  0  0  0
   -3.7496   -3.4725    0.2626 C   0  0  0  0  0  0  0  0  0  0  0  0
   -3.3718   -2.2573   -0.3250 C   0  0  0  0  0  0  0  0  0  0  0  0
   -4.6842    1.9483    0.8739 C   0  0  0  0  0  0  0  0  0  0  0  0
   -5.6159    2.8985    1.2000 C   0  0  0  0  0  0  0  0  0  0  0  0
   -7.6015    2.5761   -1.4976 H   0  0  0  0  0  0  0  0  0  0  0  0
   -5.8833    0.8778   -2.0213 H   0  0  0  0  0  0  0  0  0  0  0  0
   -3.8697    0.0050   -1.7674 H   0  0  0  0  0  0  0  0  0  0  0  0
   -2.3685    1.7209   -0.3612 H   0  0  0  0  0  0  0  0  0  0  0  0
   -1.1828   -0.7884    0.1365 H   0  0  0  0  0  0  0  0  0  0  0  0
   -1.2305   -0.4774   -1.6950 H   0  0  0  0  0  0  0  0  0  0  0  0
   -0.1534    1.7605   -1.2140 H   0  0  0  0  0  0  0  0  0  0  0  0
   -0.1071    1.3418    0.5215 H   0  0  0  0  0  0  0  0  0  0  0  0
    1.2158   -0.1418   -1.7696 H   0  0  0  0  0  0  0  0  0  0  0  0
    2.5811    1.6260   -1.5057 H   0  0  0  0  0  0  0  0  0  0  0  0
    1.8739    2.1686    0.0249 H   0  0  0  0  0  0  0  0  0  0  0  0
    3.3008    1.0504    1.3990 H   0  0  0  0  0  0  0  0  0  0  0  0
    4.3403    1.3751    0.0149 H   0  0  0  0  0  0  0  0  0  0  0  0
    4.3755   -0.9951   -1.7452 H   0  0  0  0  0  0  0  0  0  0  0  0
    4.8210   -2.1604   -0.4875 H   0  0  0  0  0  0  0  0  0  0  0  0
    6.5798   -1.8641    1.0242 H   0  0  0  0  0  0  0  0  0  0  0  0
    8.7914   -0.8666    1.4554 H   0  0  0  0  0  0  0  0  0  0  0  0
    9.4838    1.1388    0.2411 H   0  0  0  0  0  0  0  0  0  0  0  0
    7.9953    2.1676   -1.4051 H   0  0  0  0  0  0  0  0  0  0  0  0
    5.7913    1.1639   -1.8377 H   0  0  0  0  0  0  0  0  0  0  0  0
    2.8427   -2.4326   -0.0171 H   0  0  0  0  0  0  0  0  0  0  0  0
    2.6821   -1.7224    1.6062 H   0  0  0  0  0  0  0  0  0  0  0  0
    0.6992   -1.7813   -0.2640 H   0  0  0  0  0  0  0  0  0  0  0  0
    0.6895   -0.7027    1.1416 H   0  0  0  0  0  0  0  0  0  0  0  0
   -5.7232   -0.3238    1.1088 H   0  0  0  0  0  0  0  0  0  0  0  0
   -6.3474   -2.4885    2.1145 H   0  0  0  0  0  0  0  0  0  0  0  0
   -3.1932   -4.3619    0.0238 H   0  0  0  0  0  0  0  0  0  0  0  0
   -2.5378   -2.3083   -1.0000 H   0  0  0  0  0  0  0  0  0  0  0  0
   -3.8466    1.7484    1.5275 H   0  0  0  0  0  0  0  0  0  0  0  0
   -5.5218    3.4538    2.1087 H   0  0  0  0  0  0  0  0  0  0  0  0
  1  2  1  0
  2  3  2  0
  3  4  1  0
  4  5  2  0
  5  6  1  0
  6  7  1  0
  7  8  1  0
  8  9  1  0
  9 10  1  0
 10 11  1  0
 11 12  1  0
 12 13  1  0
 13 14  1  0
 14 15  1  0
 15 16  2  0
 16 17  1  0
 17 18  2  0
 18 19  1  0
 19 20  2  0
 13 21  1  0
 21 22  1  0
  6 23  1  0
 23 24  2  0
 24 25  1  0
 25 26  2  0
 26 27  1  0
 26 28  1  0
 28 29  2  0
  5 30  1  0
 30 31  2  0
 31  2  1  0
 22 10  1  0
 29 23  1  0
 20 15  1  0
  3 32  1  0
  4 33  1  0
  6 34  1  0
  7 35  1  0
  8 36  1  0
  8 37  1  0
  9 38  1  0
  9 39  1  0
 10 40  1  0
 11 41  1  0
 11 42  1  0
 12 43  1  0
 12 44  1  0
 14 45  1  0
 14 46  1  0
 16 47  1  0
 17 48  1  0
 18 49  1  0
 19 50  1  0
 20 51  1  0
 21 52  1  0
 21 53  1  0
 22 54  1  0
 22 55  1  0
 24 56  1  0
 25 57  1  0
 28 58  1  0
 29 59  1  0
 30 60  1  0
 31 61  1  0
M  END
$$$$
