
     RDKit          3D

 74 76  0  0  0  0  0  0  0  0999 V2000
    3.5159    2.9870   -0.1817 C   0  0  0  0  0  0  0  0  0  0  0  0
    3.1049    1.8055    0.6400 C   0  0  2  0  0  0  0  0  0  0  0  0
    2.8775    0.6360   -0.1322 N   0  0  0  0  0  0  0  0  0  0  0  0
    4.0821    0.2876   -0.9192 C   0  0  1  0  0  0  0  0  0  0  0  0
    4.1198   -1.2149   -1.0695 C   0  0  0  0  0  0  0  0  0  0  0  0
    5.3108   -1.7521   -1.7854 C   0  0  0  0  0  0  0  0  0  0  0  0
    6.5724   -1.4776   -1.0666 C   0  0  0  0  0  0  0  0  0  0  0  0
    7.3181   -0.3669   -1.3099 C   0  0  0  0  0  0  0  0  0  0  0  0
    8.4925   -0.1753   -0.5858 C   0  0  0  0  0  0  0  0  0  0  0  0
    8.9110   -1.0778    0.3622 C   0  0  0  0  0  0  0  0  0  0  0  0
    8.1338   -2.1968    0.5874 C   0  0  0  0  0  0  0  0  0  0  0  0
    6.9699   -2.4034   -0.1181 C   0  0  0  0  0  0  0  0  0  0  0  0
    3.8551    0.8851   -2.3002 C   0  0  0  0  0  0  0  0  0  0  0  0
    4.7373    0.8287   -3.1746 O   0  0  0  0  0  0  0  0  0  0  0  0
    2.6559    1.5095   -2.6315 O   0  0  0  0  0  0  0  0  0  0  0  0
    2.0076    2.1522    1.5845 C   0  0  0  0  0  0  0  0  0  0  0  0
    2.2350    3.1429    2.3748 O   0  0  0  0  0  0  0  0  0  0  0  0
    0.7650    1.5111    1.6961 N   0  0  0  0  0  0  0  0  0  0  0  0
    0.2561    0.4235    0.8882 C   0  0  0  0  0  0  0  0  0  0  0  0
   -1.2437    0.5589    1.0670 C   0  0  1  0  0  0  0  0  0  0  0  0
   -1.9566   -0.6054    0.6538 N   0  0  0  0  0  0  0  0  0  0  0  0
   -3.1891   -0.5720   -0.0548 C   0  0  0  0  0  0  0  0  0  0  0  0
   -3.6515    0.5801   -0.3097 O   0  0  0  0  0  0  0  0  0  0  0  0
   -3.8909   -1.8127   -0.4690 C   0  0  0  0  0  0  0  0  0  0  0  0
   -5.2429   -1.5295   -1.0728 C   0  0  2  0  0  0  0  0  0  0  0  0
   -5.2057   -0.7053   -2.2356 N   0  0  0  0  0  0  0  0  0  0  0  0
   -6.1475   -1.0562    0.0233 C   0  0  0  0  0  0  0  0  0  0  0  0
   -7.5142   -0.7416   -0.4126 C   0  0  0  0  0  0  0  0  0  0  0  0
   -7.8781    0.5921   -0.5409 C   0  0  0  0  0  0  0  0  0  0  0  0
   -9.1576    0.9324   -0.9440 C   0  0  0  0  0  0  0  0  0  0  0  0
   -9.5314    2.2384   -1.0791 F   0  0  0  0  0  0  0  0  0  0  0  0
  -10.0495   -0.0893   -1.2108 C   0  0  0  0  0  0  0  0  0  0  0  0
  -11.2970    0.2703   -1.6050 F   0  0  0  0  0  0  0  0  0  0  0  0
   -9.7050   -1.4113   -1.0891 C   0  0  0  0  0  0  0  0  0  0  0  0
   -8.4344   -1.7406   -0.6892 C   0  0  0  0  0  0  0  0  0  0  0  0
   -8.0831   -3.0324   -0.5681 F   0  0  0  0  0  0  0  0  0  0  0  0
   -1.3012    0.7794    2.5672 C   0  0  0  0  0  0  0  0  0  0  0  0
   -0.2328    1.8603    2.7156 C   0  0  1  0  0  0  0  0  0  0  0  0
    0.3625    1.8193    4.0772 C   0  0  0  0  0  0  0  0  0  0  0  0
   -0.2791    2.1457    5.0983 O   0  0  0  0  0  0  0  0  0  0  0  0
    1.6703    1.4052    4.2234 O   0  0  0  0  0  0  0  0  0  0  0  0
    2.6574    3.4228   -0.7533 H   0  0  0  0  0  0  0  0  0  0  0  0
    3.9577    3.7960    0.4823 H   0  0  0  0  0  0  0  0  0  0  0  0
    4.3205    2.7879   -0.9073 H   0  0  0  0  0  0  0  0  0  0  0  0
    3.9951    1.6151    1.3322 H   0  0  0  0  0  0  0  0  0  0  0  0
    2.7168   -0.2172    0.4861 H   0  0  0  0  0  0  0  0  0  0  0  0
    4.9428    0.7232   -0.4802 H   0  0  0  0  0  0  0  0  0  0  0  0
    4.1359   -1.6707   -0.0401 H   0  0  0  0  0  0  0  0  0  0  0  0
    3.2009   -1.5626   -1.5836 H   0  0  0  0  0  0  0  0  0  0  0  0
    5.3817   -1.3494   -2.8335 H   0  0  0  0  0  0  0  0  0  0  0  0
    5.1943   -2.8789   -1.8499 H   0  0  0  0  0  0  0  0  0  0  0  0
    7.0820    0.3884   -2.0283 H   0  0  0  0  0  0  0  0  0  0  0  0
    9.0766    0.7140   -0.7905 H   0  0  0  0  0  0  0  0  0  0  0  0
    9.8347   -0.9307    0.9287 H   0  0  0  0  0  0  0  0  0  0  0  0
    8.4666   -2.9146    1.3398 H   0  0  0  0  0  0  0  0  0  0  0  0
    6.3770   -3.2847    0.0727 H   0  0  0  0  0  0  0  0  0  0  0  0
    2.5383    1.9543   -3.5466 H   0  0  0  0  0  0  0  0  0  0  0  0
    0.5420    0.4776   -0.1794 H   0  0  0  0  0  0  0  0  0  0  0  0
    0.5285   -0.5662    1.2881 H   0  0  0  0  0  0  0  0  0  0  0  0
   -1.6671    1.4771    0.6249 H   0  0  0  0  0  0  0  0  0  0  0  0
   -1.5590   -1.5385    0.8798 H   0  0  0  0  0  0  0  0  0  0  0  0
   -3.2794   -2.3519   -1.2390 H   0  0  0  0  0  0  0  0  0  0  0  0
   -4.0055   -2.4966    0.3908 H   0  0  0  0  0  0  0  0  0  0  0  0
   -5.6402   -2.5348   -1.3958 H   0  0  0  0  0  0  0  0  0  0  0  0
   -6.0433   -0.9703   -2.8343 H   0  0  0  0  0  0  0  0  0  0  0  0
   -5.4484    0.2862   -1.9355 H   0  0  0  0  0  0  0  0  0  0  0  0
   -6.1702   -1.9072    0.7744 H   0  0  0  0  0  0  0  0  0  0  0  0
   -5.7523   -0.1931    0.5905 H   0  0  0  0  0  0  0  0  0  0  0  0
   -7.1824    1.3940   -0.3325 H   0  0  0  0  0  0  0  0  0  0  0  0
  -10.4402   -2.1936   -1.3112 H   0  0  0  0  0  0  0  0  0  0  0  0
   -0.8878   -0.1292    3.0304 H   0  0  0  0  0  0  0  0  0  0  0  0
   -2.2701    1.1129    2.9284 H   0  0  0  0  0  0  0  0  0  0  0  0
   -0.7182    2.8199    2.4790 H   0  0  0  0  0  0  0  0  0  0  0  0
    2.1528    1.3302    5.1096 H   0  0  0  0  0  0  0  0  0  0  0  0
  1  2  1  0
  2  3  1  0
  3  4  1  0
  4  5  1  0
  5  6  1  0
  6  7  1  0
  7  8  2  0
  8  9  1  0
  9 10  2  0
 10 11  1  0
 11 12  2  0
  4 13  1  0
 13 14  2  0
 13 15  1  0
  2 16  1  0
 16 17  2  0
 16 18  1  0
 18 19  1  0
 19 20  1  0
 20 21  1  0
 21 22  1  0
 22 23  2  0
 22 24  1  0
 24 25  1  0
 25 26  1  0
 25 27  1  0
 27 28  1  0
 28 29  2  0
 29 30  1  0
 30 31  1  0
 30 32  2  0
 32 33  1  0
 32 34  1  0
 34 35  2  0
 35 36  1  0
 20 37  1  0
 37 38  1  0
 38 39  1  0
 39 40  2  0
 39 41  1  0
 12  7  1  0
 38 18  1  0
 35 28  1  0
  1 42  1  0
  1 43  1  0
  1 44  1  0
  2 45  1  1
  3 46  1  0
  4 47  1  1
  5 48  1  0
  5 49  1  0
  6 50  1  0
  6 51  1  0
  8 52  1  0
  9 53  1  0
 10 54  1  0
 11 55  1  0
 12 56  1  0
 15 57  1  0
 19 58  1  0
 19 59  1  0
 20 60  1  6
 21 61  1  0
 24 62  1  0
 24 63  1  0
 25 64  1  6
 26 65  1  0
 26 66  1  0
 27 67  1  0
 27 68  1  0
 29 69  1  0
 34 70  1  0
 37 71  1  0
 37 72  1  0
 38 73  1  6
 41 74  1  0
M  END
$$$$
