
     RDKit          3D

 61 65  0  0  0  0  0  0  0  0999 V2000
   -5.8333   -0.9533    1.5228 O   0  0  0  0  0  0  0  0  0  0  0  0
   -5.0167   -1.3771    0.4726 C   0  0  0  0  0  0  0  0  0  0  0  0
   -3.7301   -0.6097    0.5279 C   0  0  0  0  0  0  0  0  0  0  0  0
   -3.5956    0.7439    0.4900 N   0  0  0  0  0  0  0  0  0  0  0  0
   -2.2940    1.0745    0.5613 C   0  0  0  0  0  0  0  0  0  0  0  0
   -1.6912    2.3855    0.5545 C   0  0  0  0  0  0  0  0  0  0  0  0
   -0.9753    2.8207    1.6405 C   0  0  0  0  0  0  0  0  0  0  0  0
   -0.3871    4.0626    1.6700 C   0  0  0  0  0  0  0  0  0  0  0  0
   -0.5410    4.8599    0.5679 C   0  0  0  0  0  0  0  0  0  0  0  0
    0.0146    6.1042    0.5263 F   0  0  0  0  0  0  0  0  0  0  0  0
   -1.2545    4.4418   -0.5296 C   0  0  0  0  0  0  0  0  0  0  0  0
   -1.8284    3.1999   -0.5291 C   0  0  0  0  0  0  0  0  0  0  0  0
   -1.6173   -0.1349    0.6456 C   0  0  0  0  0  0  0  0  0  0  0  0
   -0.1708   -0.2787    0.7423 C   0  0  0  0  0  0  0  0  0  0  0  0
    0.3858   -0.8869    1.8462 C   0  0  0  0  0  0  0  0  0  0  0  0
    1.7588   -1.0470    1.9837 C   0  0  0  0  0  0  0  0  0  0  0  0
    2.5601   -0.6024    1.0259 N   0  0  0  0  0  0  0  0  0  0  0  0
    2.0633   -0.0026   -0.0692 C   0  0  0  0  0  0  0  0  0  0  0  0
    2.9792    0.4478   -1.0531 N   0  0  0  0  0  0  0  0  0  0  0  0
    4.4059    0.2946   -0.9211 C   0  0  0  0  0  0  0  0  0  0  0  0
    4.9233    1.0418    0.2722 C   0  0  0  0  0  0  0  0  0  0  0  0
    6.4149    0.8354    0.4253 C   0  0  0  0  0  0  0  0  0  0  0  0
    6.9930    0.0721   -0.7465 C   0  0  0  0  0  0  0  0  0  0  0  0
    6.3006   -1.2242   -1.0121 C   0  0  0  0  0  0  0  0  0  0  0  0
    4.8009   -1.1587   -0.7419 C   0  0  0  0  0  0  0  0  0  0  0  0
    0.7012    0.1684   -0.2288 C   0  0  0  0  0  0  0  0  0  0  0  0
   -2.5284   -1.0788    0.6201 O   0  0  0  0  0  0  0  0  0  0  0  0
   -4.6811   -2.8330    0.5452 C   0  0  0  0  0  0  0  0  0  0  0  0
   -5.2178   -3.6403   -0.5909 C   0  0  0  0  0  0  0  0  0  0  0  0
   -5.0567   -3.0717   -1.8771 N   0  0  0  0  0  0  0  0  0  0  0  0
   -4.9408   -1.6579   -1.9390 C   0  0  0  0  0  0  0  0  0  0  0  0
   -5.7207   -1.0144   -0.8154 C   0  0  0  0  0  0  0  0  0  0  0  0
   -6.5382   -1.6276    1.7363 H   0  0  0  0  0  0  0  0  0  0  0  0
   -0.8381    2.1977    2.5375 H   0  0  0  0  0  0  0  0  0  0  0  0
    0.1582    4.3858    2.5053 H   0  0  0  0  0  0  0  0  0  0  0  0
   -1.3638    5.0789   -1.3819 H   0  0  0  0  0  0  0  0  0  0  0  0
   -2.3838    2.8811   -1.3901 H   0  0  0  0  0  0  0  0  0  0  0  0
   -0.2273   -1.2640    2.6503 H   0  0  0  0  0  0  0  0  0  0  0  0
    2.1932   -1.5253    2.8530 H   0  0  0  0  0  0  0  0  0  0  0  0
    2.5910    0.9075   -1.9032 H   0  0  0  0  0  0  0  0  0  0  0  0
    4.8931    0.7414   -1.8138 H   0  0  0  0  0  0  0  0  0  0  0  0
    4.6706    2.1261    0.1036 H   0  0  0  0  0  0  0  0  0  0  0  0
    4.4666    0.7647    1.2295 H   0  0  0  0  0  0  0  0  0  0  0  0
    6.6783    0.3639    1.4003 H   0  0  0  0  0  0  0  0  0  0  0  0
    6.8847    1.8399    0.4349 H   0  0  0  0  0  0  0  0  0  0  0  0
    6.9496    0.7538   -1.6194 H   0  0  0  0  0  0  0  0  0  0  0  0
    8.0670   -0.1042   -0.5234 H   0  0  0  0  0  0  0  0  0  0  0  0
    6.4642   -1.5049   -2.0892 H   0  0  0  0  0  0  0  0  0  0  0  0
    6.7037   -2.0707   -0.4266 H   0  0  0  0  0  0  0  0  0  0  0  0
    4.6786   -1.4262    0.3255 H   0  0  0  0  0  0  0  0  0  0  0  0
    4.2687   -1.8196   -1.4360 H   0  0  0  0  0  0  0  0  0  0  0  0
    0.3287    0.6502   -1.1121 H   0  0  0  0  0  0  0  0  0  0  0  0
   -5.1652   -3.2291    1.4841 H   0  0  0  0  0  0  0  0  0  0  0  0
   -3.5941   -3.0198    0.6935 H   0  0  0  0  0  0  0  0  0  0  0  0
   -4.6808   -4.6271   -0.5773 H   0  0  0  0  0  0  0  0  0  0  0  0
   -6.2804   -3.8860   -0.3621 H   0  0  0  0  0  0  0  0  0  0  0  0
   -4.3494   -3.5681   -2.4665 H   0  0  0  0  0  0  0  0  0  0  0  0
   -5.3886   -1.2890   -2.8862 H   0  0  0  0  0  0  0  0  0  0  0  0
   -3.8972   -1.2902   -1.8771 H   0  0  0  0  0  0  0  0  0  0  0  0
   -5.7866    0.0802   -0.9051 H   0  0  0  0  0  0  0  0  0  0  0  0
   -6.7232   -1.5012   -0.7701 H   0  0  0  0  0  0  0  0  0  0  0  0
  1  2  1  0
  2  3  1  0
  3  4  2  0
  4  5  1  0
  5  6  1  0
  6  7  2  0
  7  8  1  0
  8  9  2  0
  9 10  1  0
  9 11  1  0
 11 12  2  0
  5 13  2  0
 13 14  1  0
 14 15  2  0
 15 16  1  0
 16 17  2  0
 17 18  1  0
 18 19  1  0
 19 20  1  0
 20 21  1  0
 21 22  1  0
 22 23  1  0
 23 24  1  0
 24 25  1  0
 18 26  2  0
 13 27  1  0
  2 28  1  0
 28 29  1  0
 29 30  1  0
 30 31  1  0
 31 32  1  0
 32  2  1  0
 27  3  1  0
 12  6  1  0
 26 14  1  0
 25 20  1  0
  1 33  1  0
  7 34  1  0
  8 35  1  0
 11 36  1  0
 12 37  1  0
 15 38  1  0
 16 39  1  0
 19 40  1  0
 20 41  1  0
 21 42  1  0
 21 43  1  0
 22 44  1  0
 22 45  1  0
 23 46  1  0
 23 47  1  0
 24 48  1  0
 24 49  1  0
 25 50  1  0
 25 51  1  0
 26 52  1  0
 28 53  1  0
 28 54  1  0
 29 55  1  0
 29 56  1  0
 30 57  1  0
 31 58  1  0
 31 59  1  0
 32 60  1  0
 32 61  1  0
M  END
$$$$
