
     RDKit          3D

 51 55  0  0  0  0  0  0  0  0999 V2000
   -3.6216   -4.4186    0.1451 C   0  0  0  0  0  0  0  0  0  0  0  0
   -3.7303   -3.1676    0.9857 C   0  0  0  0  0  0  0  0  0  0  0  0
   -3.3876   -2.0213    0.1536 N   0  0  0  0  0  0  0  0  0  0  0  0
   -4.2142   -1.3034   -0.5743 N   0  0  0  0  0  0  0  0  0  0  0  0
   -3.5525   -0.3267   -1.2101 C   0  0  0  0  0  0  0  0  0  0  0  0
   -4.1103    0.7069   -2.1426 C   0  0  0  0  0  0  0  0  0  0  0  0
   -2.2147   -0.4716   -0.8302 C   0  0  0  0  0  0  0  0  0  0  0  0
   -2.1256   -1.5438    0.0293 C   0  0  0  0  0  0  0  0  0  0  0  0
   -0.7468   -1.7345    0.4524 C   0  0  0  0  0  0  0  0  0  0  0  0
   -0.2412   -2.5841    1.2185 O   0  0  0  0  0  0  0  0  0  0  0  0
    0.0302   -0.7053   -0.2001 N   0  0  0  0  0  0  0  0  0  0  0  0
    1.4349   -0.5178   -0.0680 C   0  0  0  0  0  0  0  0  0  0  0  0
    2.3453   -1.0675   -0.9331 C   0  0  0  0  0  0  0  0  0  0  0  0
    3.6952   -0.8926   -0.7797 C   0  0  0  0  0  0  0  0  0  0  0  0
    4.6697   -1.5027   -1.7371 C   0  0  0  0  0  0  0  0  0  0  0  0
    4.1434   -0.1384    0.2808 C   0  0  0  0  0  0  0  0  0  0  0  0
    5.3827    0.2069    0.6894 N   0  0  0  0  0  0  0  0  0  0  0  0
    5.2752    0.9490    1.7738 N   0  0  0  0  0  0  0  0  0  0  0  0
    3.9643    1.0863    2.0704 C   0  0  0  0  0  0  0  0  0  0  0  0
    3.4064    1.8376    3.2015 C   0  0  0  0  0  0  0  0  0  0  0  0
    3.2755    0.4051    1.1337 N   0  0  0  0  0  0  0  0  0  0  0  0
    1.9574    0.2325    0.9813 C   0  0  0  0  0  0  0  0  0  0  0  0
   -0.8712    0.0813   -1.0054 C   0  0  0  0  0  0  0  0  0  0  0  0
   -0.7448    1.5164   -0.6226 C   0  0  0  0  0  0  0  0  0  0  0  0
    0.4200    2.2219   -0.8311 C   0  0  0  0  0  0  0  0  0  0  0  0
    0.5503    3.5482   -0.4544 C   0  0  0  0  0  0  0  0  0  0  0  0
   -0.4923    4.2083    0.1459 C   0  0  0  0  0  0  0  0  0  0  0  0
   -0.2702    5.8761    0.5977 Cl  0  0  0  0  0  0  0  0  0  0  0  0
   -1.6650    3.5279    0.3648 C   0  0  0  0  0  0  0  0  0  0  0  0
   -1.7931    2.1925   -0.0152 C   0  0  0  0  0  0  0  0  0  0  0  0
   -2.8880   -5.1525    0.5812 H   0  0  0  0  0  0  0  0  0  0  0  0
   -4.5922   -4.9618    0.0710 H   0  0  0  0  0  0  0  0  0  0  0  0
   -3.3223   -4.1713   -0.8937 H   0  0  0  0  0  0  0  0  0  0  0  0
   -3.1008   -3.2061    1.8923 H   0  0  0  0  0  0  0  0  0  0  0  0
   -4.7844   -3.0953    1.3272 H   0  0  0  0  0  0  0  0  0  0  0  0
   -4.3522    1.6135   -1.5888 H   0  0  0  0  0  0  0  0  0  0  0  0
   -3.3979    0.9169   -2.9694 H   0  0  0  0  0  0  0  0  0  0  0  0
   -5.0106    0.2282   -2.6020 H   0  0  0  0  0  0  0  0  0  0  0  0
    2.0060   -1.6595   -1.7665 H   0  0  0  0  0  0  0  0  0  0  0  0
    4.1165   -1.6235   -2.7075 H   0  0  0  0  0  0  0  0  0  0  0  0
    5.5610   -0.8557   -1.8577 H   0  0  0  0  0  0  0  0  0  0  0  0
    4.9870   -2.5215   -1.4039 H   0  0  0  0  0  0  0  0  0  0  0  0
    4.1137    1.7945    4.0749 H   0  0  0  0  0  0  0  0  0  0  0  0
    3.2833    2.9112    2.8797 H   0  0  0  0  0  0  0  0  0  0  0  0
    2.4130    1.4586    3.5182 H   0  0  0  0  0  0  0  0  0  0  0  0
    1.2732    0.6822    1.6845 H   0  0  0  0  0  0  0  0  0  0  0  0
   -0.6265   -0.0456   -2.0985 H   0  0  0  0  0  0  0  0  0  0  0  0
    1.2667    1.7351   -1.3183 H   0  0  0  0  0  0  0  0  0  0  0  0
    1.5112    4.0383   -0.6553 H   0  0  0  0  0  0  0  0  0  0  0  0
   -2.5048    4.0398    0.8417 H   0  0  0  0  0  0  0  0  0  0  0  0
   -2.7210    1.6736    0.1705 H   0  0  0  0  0  0  0  0  0  0  0  0
  1  2  1  0
  2  3  1  0
  3  4  1  0
  4  5  2  0
  5  6  1  0
  5  7  1  0
  7  8  2  0
  8  9  1  0
  9 10  2  0
  9 11  1  0
 11 12  1  0
 12 13  1  0
 13 14  2  0
 14 15  1  0
 14 16  1  0
 16 17  2  0
 17 18  1  0
 18 19  2  0
 19 20  1  0
 19 21  1  0
 21 22  1  0
 11 23  1  0
 23 24  1  0
 24 25  2  0
 25 26  1  0
 26 27  2  0
 27 28  1  0
 27 29  1  0
 29 30  2  0
  8  3  1  0
 22 12  2  0
 30 24  1  0
 23  7  1  0
 21 16  1  0
  1 31  1  0
  1 32  1  0
  1 33  1  0
  2 34  1  0
  2 35  1  0
  6 36  1  0
  6 37  1  0
  6 38  1  0
 13 39  1  0
 15 40  1  0
 15 41  1  0
 15 42  1  0
 20 43  1  0
 20 44  1  0
 20 45  1  0
 22 46  1  0
 23 47  1  0
 25 48  1  0
 26 49  1  0
 29 50  1  0
 30 51  1  0
M  END
$$$$
