
     RDKit          3D

 54 56  0  0  0  0  0  0  0  0999 V2000
   -3.0506    2.3065   -0.9958 C   0  0  0  0  0  0  0  0  0  0  0  0
   -1.7664    1.8160   -0.3460 C   0  0  0  0  0  0  0  0  0  0  0  0
   -2.1275    0.9453    0.8147 C   0  0  1  0  0  0  0  0  0  0  0  0
   -1.0264    0.3958    1.5283 N   0  0  0  0  0  0  0  0  0  0  0  0
    0.0009   -0.3916    0.8761 C   0  0  0  0  0  0  0  0  0  0  0  0
    1.2413    0.0675    0.7568 N   0  0  0  0  0  0  0  0  0  0  0  0
    2.2039   -0.6070    0.1340 C   0  0  0  0  0  0  0  0  0  0  0  0
    3.5233   -0.1561   -0.0382 N   0  0  0  0  0  0  0  0  0  0  0  0
    3.9976    1.0964    0.4919 C   0  0  0  0  0  0  0  0  0  0  0  0
    3.1386    2.2112    0.0891 C   0  0  0  0  0  0  0  0  0  0  0  0
    3.2576    2.7917   -1.1529 C   0  0  0  0  0  0  0  0  0  0  0  0
    2.4730    3.8664   -1.5132 C   0  0  0  0  0  0  0  0  0  0  0  0
    1.5501    4.3706   -0.6122 C   0  0  0  0  0  0  0  0  0  0  0  0
    1.4624    3.7857    0.5789 N   0  0  0  0  0  0  0  0  0  0  0  0
    2.2110    2.7396    0.9587 C   0  0  0  0  0  0  0  0  0  0  0  0
    1.8923   -1.8602   -0.4214 C   0  0  0  0  0  0  0  0  0  0  0  0
    2.5370   -2.8054   -1.0960 N   0  0  0  0  0  0  0  0  0  0  0  0
    1.7029   -3.8269   -1.3829 C   0  0  0  0  0  0  0  0  0  0  0  0
    0.4999   -3.5131   -0.8729 N   0  0  0  0  0  0  0  0  0  0  0  0
   -0.7078   -4.2981   -0.9290 C   0  0  0  0  0  0  0  0  0  0  0  0
   -0.8341   -4.9157   -2.2821 C   0  0  0  0  0  0  0  0  0  0  0  0
   -0.7220   -5.3102    0.1889 C   0  0  0  0  0  0  0  0  0  0  0  0
    0.6032   -2.2958   -0.2738 C   0  0  0  0  0  0  0  0  0  0  0  0
   -0.3118   -1.5824    0.3556 N   0  0  0  0  0  0  0  0  0  0  0  0
   -3.0320    1.7108    1.7601 C   0  0  2  0  0  0  0  0  0  0  0  0
   -2.3799    2.9266    2.3563 C   0  0  0  0  0  0  0  0  0  0  0  0
   -3.5382    0.8754    2.7610 O   0  0  0  0  0  0  0  0  0  0  0  0
   -3.7931    1.4542   -0.9827 H   0  0  0  0  0  0  0  0  0  0  0  0
   -2.8056    2.5642   -2.0499 H   0  0  0  0  0  0  0  0  0  0  0  0
   -3.4695    3.1612   -0.4665 H   0  0  0  0  0  0  0  0  0  0  0  0
   -1.2029    1.2766   -1.1362 H   0  0  0  0  0  0  0  0  0  0  0  0
   -1.1768    2.6846   -0.0260 H   0  0  0  0  0  0  0  0  0  0  0  0
   -2.7464    0.0835    0.4524 H   0  0  0  0  0  0  0  0  0  0  0  0
   -0.9327    0.5500    2.5392 H   0  0  0  0  0  0  0  0  0  0  0  0
    4.1945   -0.7798   -0.5918 H   0  0  0  0  0  0  0  0  0  0  0  0
    4.0515    1.0775    1.6054 H   0  0  0  0  0  0  0  0  0  0  0  0
    5.0202    1.2842    0.0729 H   0  0  0  0  0  0  0  0  0  0  0  0
    3.9946    2.3779   -1.8495 H   0  0  0  0  0  0  0  0  0  0  0  0
    2.5476    4.3378   -2.4823 H   0  0  0  0  0  0  0  0  0  0  0  0
    0.9285    5.2262   -0.9016 H   0  0  0  0  0  0  0  0  0  0  0  0
    2.0955    2.3234    1.9642 H   0  0  0  0  0  0  0  0  0  0  0  0
    1.9339   -4.7341   -1.9192 H   0  0  0  0  0  0  0  0  0  0  0  0
   -1.5960   -3.6317   -0.7614 H   0  0  0  0  0  0  0  0  0  0  0  0
   -1.3515   -5.8984   -2.2568 H   0  0  0  0  0  0  0  0  0  0  0  0
   -1.4660   -4.2519   -2.9185 H   0  0  0  0  0  0  0  0  0  0  0  0
    0.1308   -5.0440   -2.8152 H   0  0  0  0  0  0  0  0  0  0  0  0
   -0.1794   -4.8690    1.0596 H   0  0  0  0  0  0  0  0  0  0  0  0
   -0.1717   -6.2438   -0.0547 H   0  0  0  0  0  0  0  0  0  0  0  0
   -1.7551   -5.5301    0.5383 H   0  0  0  0  0  0  0  0  0  0  0  0
   -3.9299    2.0585    1.1699 H   0  0  0  0  0  0  0  0  0  0  0  0
   -2.3301    2.7862    3.4645 H   0  0  0  0  0  0  0  0  0  0  0  0
   -1.3709    3.1020    1.9451 H   0  0  0  0  0  0  0  0  0  0  0  0
   -3.0113    3.8378    2.1949 H   0  0  0  0  0  0  0  0  0  0  0  0
   -4.4068    0.4542    2.4719 H   0  0  0  0  0  0  0  0  0  0  0  0
  1  2  1  0
  2  3  1  0
  3  4  1  0
  4  5  1  0
  5  6  2  0
  6  7  1  0
  7  8  1  0
  8  9  1  0
  9 10  1  0
 10 11  2  0
 11 12  1  0
 12 13  2  0
 13 14  1  0
 14 15  2  0
  7 16  2  0
 16 17  1  0
 17 18  2  0
 18 19  1  0
 19 20  1  0
 20 21  1  0
 20 22  1  0
 19 23  1  0
 23 24  2  0
  3 25  1  0
 25 26  1  0
 25 27  1  0
 24  5  1  0
 15 10  1  0
 23 16  1  0
  1 28  1  0
  1 29  1  0
  1 30  1  0
  2 31  1  0
  2 32  1  0
  3 33  1  6
  4 34  1  0
  8 35  1  0
  9 36  1  0
  9 37  1  0
 11 38  1  0
 12 39  1  0
 13 40  1  0
 15 41  1  0
 18 42  1  0
 20 43  1  0
 21 44  1  0
 21 45  1  0
 21 46  1  0
 22 47  1  0
 22 48  1  0
 22 49  1  0
 25 50  1  6
 26 51  1  0
 26 52  1  0
 26 53  1  0
 27 54  1  0
M  END
$$$$
