
     RDKit          3D

 61 64  0  0  0  0  0  0  0  0999 V2000
    3.9046   -2.7459   -0.3647 C   0  0  2  0  0  0  0  0  0  0  0  0
    5.1519   -3.3398    0.3121 C   0  0  0  0  0  0  0  0  0  0  0  0
    5.4869   -4.6209   -0.4048 C   0  0  0  0  0  0  0  0  0  0  0  0
    4.2540   -2.4862   -1.7912 C   0  0  0  0  0  0  0  0  0  0  0  0
    5.2549   -1.5406   -1.9498 O   0  0  0  0  0  0  0  0  0  0  0  0
    3.4533   -1.6331    0.3973 N   0  0  0  0  0  0  0  0  0  0  0  0
    2.6301   -0.5164    0.6348 C   0  0  0  0  0  0  0  0  0  0  0  0
    3.0105    0.7250    0.3360 N   0  0  0  0  0  0  0  0  0  0  0  0
    2.2958    1.8336    0.5382 C   0  0  0  0  0  0  0  0  0  0  0  0
    1.0698    1.5865    1.1097 C   0  0  0  0  0  0  0  0  0  0  0  0
    0.5154    2.8006    1.2351 N   0  0  0  0  0  0  0  0  0  0  0  0
    1.3645    3.7156    0.7655 C   0  0  0  0  0  0  0  0  0  0  0  0
    2.4730    3.1346    0.3294 N   0  0  0  0  0  0  0  0  0  0  0  0
    3.6575    3.7723   -0.2699 C   0  0  0  0  0  0  0  0  0  0  0  0
    3.2330    4.7120   -1.3585 C   0  0  0  0  0  0  0  0  0  0  0  0
    4.3002    4.5619    0.8722 C   0  0  0  0  0  0  0  0  0  0  0  0
    0.5949    0.3081    1.4538 C   0  0  0  0  0  0  0  0  0  0  0  0
   -0.6981    0.3412    2.0617 N   0  0  0  0  0  0  0  0  0  0  0  0
   -1.9459    0.3670    2.6486 C   0  0  0  0  0  0  0  0  0  0  0  0
   -3.1009   -0.0867    1.8192 C   0  0  0  0  0  0  0  0  0  0  0  0
   -3.5285   -1.3831    1.5761 C   0  0  0  0  0  0  0  0  0  0  0  0
   -4.6467   -1.6151    0.7901 C   0  0  0  0  0  0  0  0  0  0  0  0
   -5.3878   -0.6100    0.2154 C   0  0  0  0  0  0  0  0  0  0  0  0
   -5.0017    0.7121    0.4265 C   0  0  0  0  0  0  0  0  0  0  0  0
   -3.8872    0.9066    1.2108 C   0  0  0  0  0  0  0  0  0  0  0  0
   -6.5639   -0.8351   -0.6149 C   0  0  0  0  0  0  0  0  0  0  0  0
   -7.0534   -2.0792   -0.9298 C   0  0  0  0  0  0  0  0  0  0  0  0
   -8.2024   -2.1893   -1.7467 C   0  0  0  0  0  0  0  0  0  0  0  0
   -8.8407   -1.0640   -2.2303 C   0  0  0  0  0  0  0  0  0  0  0  0
   -8.3178    0.1620   -1.8897 C   0  0  0  0  0  0  0  0  0  0  0  0
   -7.2329    0.2010   -1.1188 N   0  0  0  0  0  0  0  0  0  0  0  0
    1.4305   -0.6885    1.1860 N   0  0  0  0  0  0  0  0  0  0  0  0
    3.0945   -3.5256   -0.3580 H   0  0  0  0  0  0  0  0  0  0  0  0
    5.0584   -3.4165    1.3934 H   0  0  0  0  0  0  0  0  0  0  0  0
    6.0090   -2.6131    0.1236 H   0  0  0  0  0  0  0  0  0  0  0  0
    6.1358   -4.4686   -1.2922 H   0  0  0  0  0  0  0  0  0  0  0  0
    4.5714   -5.2039   -0.6659 H   0  0  0  0  0  0  0  0  0  0  0  0
    6.0135   -5.2564    0.3636 H   0  0  0  0  0  0  0  0  0  0  0  0
    3.3931   -2.2342   -2.4462 H   0  0  0  0  0  0  0  0  0  0  0  0
    4.6413   -3.4560   -2.2080 H   0  0  0  0  0  0  0  0  0  0  0  0
    4.8714   -0.7592   -2.3969 H   0  0  0  0  0  0  0  0  0  0  0  0
    3.9646   -1.5088    1.3155 H   0  0  0  0  0  0  0  0  0  0  0  0
    1.1491    4.7680    0.7585 H   0  0  0  0  0  0  0  0  0  0  0  0
    4.3385    3.0134   -0.6422 H   0  0  0  0  0  0  0  0  0  0  0  0
    3.0413    4.2099   -2.3222 H   0  0  0  0  0  0  0  0  0  0  0  0
    4.0511    5.4451   -1.5625 H   0  0  0  0  0  0  0  0  0  0  0  0
    2.3280    5.2957   -1.0643 H   0  0  0  0  0  0  0  0  0  0  0  0
    4.9773    5.3592    0.5058 H   0  0  0  0  0  0  0  0  0  0  0  0
    3.4955    5.0024    1.5401 H   0  0  0  0  0  0  0  0  0  0  0  0
    4.8458    3.8549    1.5277 H   0  0  0  0  0  0  0  0  0  0  0  0
   -0.8012   -0.7145    2.0966 H   0  0  0  0  0  0  0  0  0  0  0  0
   -2.2503    1.4156    2.9944 H   0  0  0  0  0  0  0  0  0  0  0  0
   -1.9521   -0.1603    3.6645 H   0  0  0  0  0  0  0  0  0  0  0  0
   -2.9235   -2.1435    2.0392 H   0  0  0  0  0  0  0  0  0  0  0  0
   -4.9357   -2.6450    0.6314 H   0  0  0  0  0  0  0  0  0  0  0  0
   -5.5452    1.5420   -0.0006 H   0  0  0  0  0  0  0  0  0  0  0  0
   -3.6120    1.9441    1.3583 H   0  0  0  0  0  0  0  0  0  0  0  0
   -6.5534   -2.9694   -0.5534 H   0  0  0  0  0  0  0  0  0  0  0  0
   -8.5928   -3.1689   -1.9968 H   0  0  0  0  0  0  0  0  0  0  0  0
   -9.7363   -1.1281   -2.8667 H   0  0  0  0  0  0  0  0  0  0  0  0
   -8.7501    1.1158   -2.2209 H   0  0  0  0  0  0  0  0  0  0  0  0
  1  2  1  0
  2  3  1  0
  1  4  1  0
  4  5  1  0
  1  6  1  0
  6  7  1  0
  7  8  2  0
  8  9  1  0
  9 10  2  0
 10 11  1  0
 11 12  2  0
 12 13  1  0
 13 14  1  0
 14 15  1  0
 14 16  1  0
 10 17  1  0
 17 18  1  0
 18 19  1  0
 19 20  1  0
 20 21  2  0
 21 22  1  0
 22 23  2  0
 23 24  1  0
 24 25  2  0
 23 26  1  0
 26 27  2  0
 27 28  1  0
 28 29  2  0
 29 30  1  0
 30 31  2  0
 17 32  2  0
 32  7  1  0
 13  9  1  0
 25 20  1  0
 31 26  1  0
  1 33  1  6
  2 34  1  0
  2 35  1  0
  3 36  1  0
  3 37  1  0
  3 38  1  0
  4 39  1  0
  4 40  1  0
  5 41  1  0
  6 42  1  0
 12 43  1  0
 14 44  1  0
 15 45  1  0
 15 46  1  0
 15 47  1  0
 16 48  1  0
 16 49  1  0
 16 50  1  0
 18 51  1  0
 19 52  1  0
 19 53  1  0
 21 54  1  0
 22 55  1  0
 24 56  1  0
 25 57  1  0
 27 58  1  0
 28 59  1  0
 29 60  1  0
 30 61  1  0
M  END
$$$$
