
     RDKit          3D

 43 46  0  0  0  0  0  0  0  0999 V2000
    1.9275   -1.4456    1.0548 C   0  0  2  0  0  0  0  0  0  0  0  0
    0.4349   -1.4576    1.2042 C   0  0  0  0  0  0  0  0  0  0  0  0
   -0.2195   -2.1013    2.0618 O   0  0  0  0  0  0  0  0  0  0  0  0
   -0.2825   -0.6467    0.2629 N   0  0  0  0  0  0  0  0  0  0  0  0
   -1.6717   -0.3934    0.0738 C   0  0  0  0  0  0  0  0  0  0  0  0
   -2.3211   -1.2586   -0.7876 C   0  0  0  0  0  0  0  0  0  0  0  0
   -3.6621   -1.1023   -1.0394 C   0  0  0  0  0  0  0  0  0  0  0  0
   -4.4098   -0.0933   -0.4554 C   0  0  0  0  0  0  0  0  0  0  0  0
   -5.7671    0.0206   -0.7453 C   0  0  0  0  0  0  0  0  0  0  0  0
   -6.4268    1.0557   -0.1162 C   0  0  0  0  0  0  0  0  0  0  0  0
   -5.7968    1.9349    0.7507 C   0  0  0  0  0  0  0  0  0  0  0  0
   -4.4372    1.7804    1.0092 C   0  0  0  0  0  0  0  0  0  0  0  0
   -3.7488    0.7626    0.4018 C   0  0  0  0  0  0  0  0  0  0  0  0
   -2.4092    0.6120    0.6577 C   0  0  0  0  0  0  0  0  0  0  0  0
    2.5108   -0.1241    1.1956 C   0  0  0  0  0  0  0  0  0  0  0  0
    1.9040    0.4521    2.3809 C   0  0  0  0  0  0  0  0  0  0  0  0
    2.6199    2.0846    2.5837 S   0  0  0  0  0  0  0  0  0  0  0  0
    3.6997    1.9404    1.0842 C   0  0  0  0  0  0  0  0  0  0  0  0
    3.4008    0.6882    0.6042 C   0  0  0  0  0  0  0  0  0  0  0  0
    4.1190    0.4160   -0.5239 C   0  0  0  0  0  0  0  0  0  0  0  0
    5.0038    1.2694   -1.0860 C   0  0  0  0  0  0  0  0  0  0  0  0
    5.9131    0.8634   -2.5564 Cl  0  0  0  0  0  0  0  0  0  0  0  0
    5.2794    2.5174   -0.5775 C   0  0  0  0  0  0  0  0  0  0  0  0
    4.6003    2.8585    0.5467 C   0  0  0  0  0  0  0  0  0  0  0  0
    2.4938   -2.5096   -0.2438 P   0  0  0  0  0  0  0  0  0  0  0  0
    1.6896   -4.0590   -0.1034 O   0  0  0  0  0  0  0  0  0  0  0  0
    2.0840   -2.0386   -1.8075 O   0  0  0  0  0  0  0  0  0  0  0  0
    3.9424   -2.9188   -0.1604 O   0  0  0  0  0  0  0  0  0  0  0  0
    2.2402   -2.0373    1.9979 H   0  0  0  0  0  0  0  0  0  0  0  0
    0.1905   -0.0801   -0.4828 H   0  0  0  0  0  0  0  0  0  0  0  0
   -1.8165   -2.0838   -1.2949 H   0  0  0  0  0  0  0  0  0  0  0  0
   -4.1908   -1.7660   -1.7087 H   0  0  0  0  0  0  0  0  0  0  0  0
   -6.2748   -0.6639   -1.4250 H   0  0  0  0  0  0  0  0  0  0  0  0
   -7.4754    1.1504   -0.3348 H   0  0  0  0  0  0  0  0  0  0  0  0
   -6.4217    2.7035    1.1800 H   0  0  0  0  0  0  0  0  0  0  0  0
   -3.9827    2.4755    1.6824 H   0  0  0  0  0  0  0  0  0  0  0  0
   -1.8693    1.2717    1.3270 H   0  0  0  0  0  0  0  0  0  0  0  0
    1.1972    0.2446    3.1530 H   0  0  0  0  0  0  0  0  0  0  0  0
    4.0424   -0.4924   -1.0646 H   0  0  0  0  0  0  0  0  0  0  0  0
    5.9529    3.2659   -0.9362 H   0  0  0  0  0  0  0  0  0  0  0  0
    4.6876    3.7780    1.0723 H   0  0  0  0  0  0  0  0  0  0  0  0
    1.9896   -4.4631    0.7645 H   0  0  0  0  0  0  0  0  0  0  0  0
    1.2604   -2.4100   -2.1576 H   0  0  0  0  0  0  0  0  0  0  0  0
  1  2  1  0
  2  3  2  0
  2  4  1  0
  4  5  1  0
  5  6  2  0
  6  7  1  0
  7  8  2  0
  8  9  1  0
  9 10  2  0
 10 11  1  0
 11 12  2  0
 12 13  1  0
 13 14  2  0
  1 15  1  0
 15 16  2  0
 16 17  1  0
 17 18  1  0
 18 19  2  0
 19 20  1  0
 20 21  2  0
 21 22  1  0
 21 23  1  0
 23 24  2  0
  1 25  1  0
 25 26  1  0
 25 27  1  0
 25 28  2  0
 14  5  1  0
 19 15  1  0
 13  8  1  0
 24 18  1  0
  1 29  1  1
  4 30  1  0
  6 31  1  0
  7 32  1  0
  9 33  1  0
 10 34  1  0
 11 35  1  0
 12 36  1  0
 14 37  1  0
 16 38  1  0
 20 39  1  0
 23 40  1  0
 24 41  1  0
 26 42  1  0
 27 43  1  0
M  END
$$$$
