
     RDKit          3D

 41 44  0  0  0  0  0  0  0  0999 V2000
    7.6154   -0.0188   -1.2991 N   0  0  0  0  0  0  0  0  0  0  0  0
    6.5636    0.7707   -1.1900 C   0  0  0  0  0  0  0  0  0  0  0  0
    5.4365    1.6365   -1.0913 C   0  0  0  0  0  0  0  0  0  0  0  0
    4.7560    1.4175    0.1905 N   0  0  0  0  0  0  0  0  0  0  0  0
    3.3195    1.5862    0.2696 C   0  0  0  0  0  0  0  0  0  0  0  0
    2.8932    2.6689    1.0108 N   0  0  0  0  0  0  0  0  0  0  0  0
    1.4439    2.6733    1.4252 C   0  0  0  0  0  0  0  0  0  0  0  0
    1.1047    1.6110    0.9279 N   0  0  0  0  0  0  0  0  0  0  0  0
    1.1440    0.6061    0.3496 C   0  0  0  0  0  0  0  0  0  0  0  0
    0.2907   -0.5146    0.0171 N   0  0  0  0  0  0  0  0  0  0  0  0
   -1.0590   -0.5260    0.3991 C   0  0  0  0  0  0  0  0  0  0  0  0
   -1.7472    0.7169    0.4218 N   0  0  0  0  0  0  0  0  0  0  0  0
   -3.1215    0.8018    0.2252 C   0  0  0  0  0  0  0  0  0  0  0  0
   -3.7971    0.4655   -0.9693 C   0  0  0  0  0  0  0  0  0  0  0  0
   -5.0847    0.5752   -1.1274 C   0  0  0  0  0  0  0  0  0  0  0  0
   -5.9043    1.0037   -0.1372 C   0  0  0  0  0  0  0  0  0  0  0  0
   -5.3483    1.3776    1.1417 C   0  0  0  0  0  0  0  0  0  0  0  0
   -6.0556    1.8534    2.1765 O   0  0  0  0  0  0  0  0  0  0  0  0
   -3.9882    1.2648    1.2333 C   0  0  0  0  0  0  0  0  0  0  0  0
   -1.3243   -1.7268    0.4017 N   0  0  0  0  0  0  0  0  0  0  0  0
   -0.4750   -2.6227    0.0920 C   0  0  0  0  0  0  0  0  0  0  0  0
   -0.3421   -3.9839   -0.0374 C   0  0  0  0  0  0  0  0  0  0  0  0
    0.8286   -4.5556   -0.4181 C   0  0  0  0  0  0  0  0  0  0  0  0
    1.9850   -3.7588   -0.7029 C   0  0  0  0  0  0  0  0  0  0  0  0
    1.8244   -2.3912   -0.5755 C   0  0  0  0  0  0  0  0  0  0  0  0
    0.6756   -1.7280   -0.1944 C   0  0  0  0  0  0  0  0  0  0  0  0
    2.5274    0.5359   -0.1042 N   0  0  0  0  0  0  0  0  0  0  0  0
    5.6953    2.7268   -1.1817 H   0  0  0  0  0  0  0  0  0  0  0  0
    4.6962    1.4798   -1.9057 H   0  0  0  0  0  0  0  0  0  0  0  0
    5.2989    1.1844    1.0238 H   0  0  0  0  0  0  0  0  0  0  0  0
    1.1896    3.5183    1.9579 H   0  0  0  0  0  0  0  0  0  0  0  0
   -1.2499    1.6334    0.5865 H   0  0  0  0  0  0  0  0  0  0  0  0
   -3.1589    0.0714   -1.8016 H   0  0  0  0  0  0  0  0  0  0  0  0
   -5.6191    0.4474   -2.1426 H   0  0  0  0  0  0  0  0  0  0  0  0
   -6.9688    1.0561   -0.2323 H   0  0  0  0  0  0  0  0  0  0  0  0
   -5.9654    2.7953    2.5686 H   0  0  0  0  0  0  0  0  0  0  0  0
   -3.5224    1.6320    2.1215 H   0  0  0  0  0  0  0  0  0  0  0  0
   -1.1499   -4.6563    0.1985 H   0  0  0  0  0  0  0  0  0  0  0  0
    1.0030   -5.6072   -0.5549 H   0  0  0  0  0  0  0  0  0  0  0  0
    2.8470   -4.2716   -1.0423 H   0  0  0  0  0  0  0  0  0  0  0  0
    2.7429   -1.7485   -0.7690 H   0  0  0  0  0  0  0  0  0  0  0  0
  1  2  3  0
  2  3  1  0
  3  4  1  0
  4  5  1  0
  5  6  2  0
  6  7  1  0
  7  8  2  0
  8  9  1  0
  9 10  1  0
 10 11  1  0
 11 12  1  0
 12 13  1  0
 13 14  2  0
 14 15  1  0
 15 16  2  0
 16 17  1  0
 17 18  1  0
 17 19  2  0
 11 20  2  0
 20 21  1  0
 21 22  2  0
 22 23  1  0
 23 24  2  0
 24 25  1  0
 25 26  2  0
  9 27  2  0
 27  5  1  0
 26 10  1  0
 19 13  1  0
 26 21  1  0
  3 28  1  0
  3 29  1  0
  4 30  1  0
  7 31  1  0
 12 32  1  0
 14 33  1  0
 15 34  1  0
 16 35  1  0
 18 36  1  0
 19 37  1  0
 22 38  1  0
 23 39  1  0
 24 40  1  0
 25 41  1  0
M  END
$$$$
