
     RDKit          3D

 33 35  0  0  0  0  0  0  0  0999 V2000
    5.0065    2.9590    2.0547 C   0  0  0  0  0  0  0  0  0  0  0  0
    5.0733    1.8347    2.1863 C   0  0  0  0  0  0  0  0  0  0  0  0
    5.1843    0.3900    2.3614 C   0  0  0  0  0  0  0  0  0  0  0  0
    4.5918   -0.2661    1.2918 O   0  0  0  0  0  0  0  0  0  0  0  0
    3.2908   -0.2708    0.8840 C   0  0  0  0  0  0  0  0  0  0  0  0
    2.2629    0.3938    1.5096 C   0  0  0  0  0  0  0  0  0  0  0  0
    0.9819    0.3076    0.9915 C   0  0  0  0  0  0  0  0  0  0  0  0
    0.6727   -0.4138   -0.1261 C   0  0  0  0  0  0  0  0  0  0  0  0
   -0.7175   -0.5008   -0.6236 C   0  0  0  0  0  0  0  0  0  0  0  0
   -1.6941    0.0672    0.1551 N   0  0  0  0  0  0  0  0  0  0  0  0
   -3.0047    0.0101   -0.2171 C   0  0  0  0  0  0  0  0  0  0  0  0
   -3.9869    0.5947    0.5975 C   0  0  0  0  0  0  0  0  0  0  0  0
   -5.3037    0.5092    0.1769 C   0  0  0  0  0  0  0  0  0  0  0  0
   -5.5911   -0.1344   -0.9999 C   0  0  0  0  0  0  0  0  0  0  0  0
   -4.6214   -0.7057   -1.7930 C   0  0  0  0  0  0  0  0  0  0  0  0
   -3.2961   -0.6283   -1.3834 C   0  0  0  0  0  0  0  0  0  0  0  0
   -2.2893   -1.2020   -2.1672 C   0  0  0  0  0  0  0  0  0  0  0  0
   -2.5667   -1.7813   -3.2314 O   0  0  0  0  0  0  0  0  0  0  0  0
   -0.9875   -1.1260   -1.7633 N   0  0  0  0  0  0  0  0  0  0  0  0
    1.6987   -1.0759   -0.7530 C   0  0  0  0  0  0  0  0  0  0  0  0
    2.9961   -1.0017   -0.2458 C   0  0  0  0  0  0  0  0  0  0  0  0
    4.9574    4.1245    1.9166 H   0  0  0  0  0  0  0  0  0  0  0  0
    6.2637    0.1130    2.4061 H   0  0  0  0  0  0  0  0  0  0  0  0
    4.6390    0.0999    3.2968 H   0  0  0  0  0  0  0  0  0  0  0  0
    2.4845    0.9688    2.3924 H   0  0  0  0  0  0  0  0  0  0  0  0
    0.1893    0.8517    1.5249 H   0  0  0  0  0  0  0  0  0  0  0  0
   -3.7467    1.0840    1.5136 H   0  0  0  0  0  0  0  0  0  0  0  0
   -6.0924    0.9470    0.7819 H   0  0  0  0  0  0  0  0  0  0  0  0
   -6.6414   -0.1814   -1.3091 H   0  0  0  0  0  0  0  0  0  0  0  0
   -4.8410   -1.2064   -2.7083 H   0  0  0  0  0  0  0  0  0  0  0  0
   -0.2597   -1.5568   -2.3602 H   0  0  0  0  0  0  0  0  0  0  0  0
    1.5566   -1.6682   -1.6368 H   0  0  0  0  0  0  0  0  0  0  0  0
    3.7908   -1.5356   -0.7661 H   0  0  0  0  0  0  0  0  0  0  0  0
  1  2  3  0
  2  3  1  0
  3  4  1  0
  4  5  1  0
  5  6  2  0
  6  7  1  0
  7  8  2  0
  8  9  1  0
  9 10  2  0
 10 11  1  0
 11 12  2  0
 12 13  1  0
 13 14  2  0
 14 15  1  0
 15 16  2  0
 16 17  1  0
 17 18  2  0
 17 19  1  0
  8 20  1  0
 20 21  2  0
 21  5  1  0
 19  9  1  0
 16 11  1  0
  1 22  1  0
  3 23  1  0
  3 24  1  0
  6 25  1  0
  7 26  1  0
 12 27  1  0
 13 28  1  0
 14 29  1  0
 15 30  1  0
 19 31  1  0
 20 32  1  0
 21 33  1  0
M  END
$$$$
