
     RDKit          3D

 45 48  0  0  0  0  0  0  0  0999 V2000
    7.3778    2.6188    0.8974 C   0  0  0  0  0  0  0  0  0  0  0  0
    7.4146    1.2019    0.9454 O   0  0  0  0  0  0  0  0  0  0  0  0
    6.1990    0.5261    0.8229 C   0  0  0  0  0  0  0  0  0  0  0  0
    6.1968   -0.8336    0.8645 C   0  0  0  0  0  0  0  0  0  0  0  0
    5.0522   -1.5443    0.7514 N   0  0  0  0  0  0  0  0  0  0  0  0
    3.9185   -0.8449    0.5961 C   0  0  0  0  0  0  0  0  0  0  0  0
    2.6434   -1.6057    0.4691 C   0  0  0  0  0  0  0  0  0  0  0  0
    2.6792   -2.8515    0.5118 O   0  0  0  0  0  0  0  0  0  0  0  0
    1.4248   -0.9452    0.3049 N   0  0  0  0  0  0  0  0  0  0  0  0
    0.1511   -1.5112    0.1722 C   0  0  0  0  0  0  0  0  0  0  0  0
   -0.0509   -2.8627    0.1928 C   0  0  0  0  0  0  0  0  0  0  0  0
   -1.3285   -3.3726    0.0585 C   0  0  0  0  0  0  0  0  0  0  0  0
   -2.4077   -2.5092   -0.0972 C   0  0  0  0  0  0  0  0  0  0  0  0
   -4.0139   -3.1957   -0.1832 Cl  0  0  0  0  0  0  0  0  0  0  0  0
   -2.2475   -1.1533   -0.1248 C   0  0  0  0  0  0  0  0  0  0  0  0
   -3.3825   -0.2331   -0.3865 C   0  0  1  0  0  0  0  0  0  0  0  0
   -3.8260   -0.3192   -1.7887 C   0  0  0  0  0  0  0  0  0  0  0  0
   -4.2663   -1.5490   -2.1833 F   0  0  0  0  0  0  0  0  0  0  0  0
   -2.7155   -0.0688   -2.6360 F   0  0  0  0  0  0  0  0  0  0  0  0
   -4.4695   -0.4494    0.5347 N   0  0  0  0  0  0  0  0  0  0  0  0
   -5.3714    0.4555    0.6466 C   0  0  0  0  0  0  0  0  0  0  0  0
   -6.4886    0.3108    1.5390 N   0  0  0  0  0  0  0  0  0  0  0  0
   -5.1685    1.5799   -0.1663 O   0  0  0  0  0  0  0  0  0  0  0  0
   -3.9432    2.2283   -0.0727 C   0  0  2  0  0  0  0  0  0  0  0  0
   -2.8496    2.2187   -1.0422 C   0  0  0  0  0  0  0  0  0  0  0  0
   -2.8532    1.1623   -0.0439 C   0  0  2  0  0  0  0  0  0  0  0  0
   -0.9713   -0.6703    0.0106 C   0  0  0  0  0  0  0  0  0  0  0  0
    3.8509    0.4809    0.5472 N   0  0  0  0  0  0  0  0  0  0  0  0
    4.9995    1.1883    0.6609 C   0  0  0  0  0  0  0  0  0  0  0  0
    6.9765    2.9015   -0.1144 H   0  0  0  0  0  0  0  0  0  0  0  0
    8.3716    3.0669    0.9911 H   0  0  0  0  0  0  0  0  0  0  0  0
    6.6361    2.9986    1.6228 H   0  0  0  0  0  0  0  0  0  0  0  0
    7.1080   -1.3934    0.9893 H   0  0  0  0  0  0  0  0  0  0  0  0
    1.4880    0.1205    0.2795 H   0  0  0  0  0  0  0  0  0  0  0  0
    0.7366   -3.5938    0.3101 H   0  0  0  0  0  0  0  0  0  0  0  0
   -1.4612   -4.4378    0.0776 H   0  0  0  0  0  0  0  0  0  0  0  0
   -4.6339    0.3950   -2.0643 H   0  0  0  0  0  0  0  0  0  0  0  0
   -7.4591    0.4077    1.2273 H   0  0  0  0  0  0  0  0  0  0  0  0
   -6.2539    0.0988    2.5358 H   0  0  0  0  0  0  0  0  0  0  0  0
   -3.9185    3.0253    0.7374 H   0  0  0  0  0  0  0  0  0  0  0  0
   -2.0611    3.0169   -0.8741 H   0  0  0  0  0  0  0  0  0  0  0  0
   -3.0232    2.1040   -2.1214 H   0  0  0  0  0  0  0  0  0  0  0  0
   -2.2529    1.1912    0.8728 H   0  0  0  0  0  0  0  0  0  0  0  0
   -0.7779    0.3910   -0.0187 H   0  0  0  0  0  0  0  0  0  0  0  0
    4.9711    2.2555    0.6247 H   0  0  0  0  0  0  0  0  0  0  0  0
  1  2  1  0
  2  3  1  0
  3  4  2  0
  4  5  1  0
  5  6  2  0
  6  7  1  0
  7  8  2  0
  7  9  1  0
  9 10  1  0
 10 11  2  0
 11 12  1  0
 12 13  2  0
 13 14  1  0
 13 15  1  0
 15 16  1  0
 16 17  1  6
 17 18  1  0
 17 19  1  0
 16 20  1  0
 20 21  2  0
 21 22  1  0
 21 23  1  0
 23 24  1  0
 24 25  1  0
 25 26  1  0
 15 27  2  0
  6 28  1  0
 28 29  2  0
 29  3  1  0
 27 10  1  0
 26 16  1  0
 26 24  1  0
  1 30  1  0
  1 31  1  0
  1 32  1  0
  4 33  1  0
  9 34  1  0
 11 35  1  0
 12 36  1  0
 17 37  1  0
 22 38  1  0
 22 39  1  0
 24 40  1  1
 25 41  1  0
 25 42  1  0
 26 43  1  1
 27 44  1  0
 29 45  1  0
M  END
$$$$
