
     RDKit          3D

 55 58  0  0  0  0  0  0  0  0999 V2000
    8.2522   -0.1578    1.3694 C   0  0  0  0  0  0  0  0  0  0  0  0
    6.6893   -0.1956    0.5224 S   0  0  0  0  0  4  0  0  0  0  0  0
    6.1092   -1.5650    0.3999 O   0  0  0  0  0  0  0  0  0  0  0  0
    5.5374    0.9531    1.2136 C   0  0  0  0  0  0  0  0  0  0  0  0
    4.2127    0.9751    0.5678 C   0  0  0  0  0  0  0  0  0  0  0  0
    3.8888    1.8929   -0.4095 C   0  0  0  0  0  0  0  0  0  0  0  0
    2.6849    1.8893   -1.0376 C   0  0  0  0  0  0  0  0  0  0  0  0
    1.6894    0.9342   -0.7181 C   0  0  0  0  0  0  0  0  0  0  0  0
    0.4724    1.0790   -1.4770 C   0  0  0  0  0  0  0  0  0  0  0  0
    0.0190    2.2953   -1.5483 O   0  0  0  0  0  0  0  0  0  0  0  0
   -0.3049    0.1518   -2.1591 N   0  0  0  0  0  0  0  0  0  0  0  0
   -1.4663    0.4477   -2.9149 C   0  0  0  0  0  0  0  0  0  0  0  0
   -1.3330    0.5499   -4.2908 N   0  0  0  0  0  0  0  0  0  0  0  0
   -2.3541    0.8306   -5.0914 C   0  0  0  0  0  0  0  0  0  0  0  0
   -3.5983    1.0304   -4.5554 C   0  0  0  0  0  0  0  0  0  0  0  0
   -3.7334    0.9339   -3.2295 N   0  0  0  0  0  0  0  0  0  0  0  0
   -2.6879    0.6452   -2.3838 C   0  0  0  0  0  0  0  0  0  0  0  0
   -2.9132    0.6067   -0.9514 C   0  0  0  0  0  0  0  0  0  0  0  0
   -2.0208    0.4377   -0.0948 O   0  0  0  0  0  0  0  0  0  0  0  0
   -4.2716    0.7772   -0.4960 N   0  0  0  0  0  0  0  0  0  0  0  0
   -4.5921    0.7506    0.9144 C   0  0  0  0  0  0  0  0  0  0  0  0
   -4.2348   -0.5704    1.5558 C   0  0  0  0  0  0  0  0  0  0  0  0
   -4.9314   -1.7616    0.9810 C   0  0  0  0  0  0  0  0  0  0  0  0
   -5.8419   -1.7812    2.1891 C   0  0  0  0  0  0  0  0  0  0  0  0
   -4.8723   -0.8530    2.8862 C   0  0  0  0  0  0  0  0  0  0  0  0
    2.0023    0.0263    0.2455 C   0  0  0  0  0  0  0  0  0  0  0  0
    1.0537   -0.9119    0.5909 C   0  0  0  0  0  0  0  0  0  0  0  0
    1.3554   -1.8264    1.5746 C   0  0  0  0  0  0  0  0  0  0  0  0
    2.5716   -1.8131    2.2042 C   0  0  0  0  0  0  0  0  0  0  0  0
    3.5358   -0.8891    1.8784 C   0  0  0  0  0  0  0  0  0  0  0  0
    3.2524    0.0376    0.8913 C   0  0  0  0  0  0  0  0  0  0  0  0
    8.4708   -1.1607    1.8099 H   0  0  0  0  0  0  0  0  0  0  0  0
    8.2105    0.5997    2.2057 H   0  0  0  0  0  0  0  0  0  0  0  0
    9.1095    0.0834    0.7139 H   0  0  0  0  0  0  0  0  0  0  0  0
    5.4749    0.9134    2.3242 H   0  0  0  0  0  0  0  0  0  0  0  0
    5.9715    1.9876    1.0227 H   0  0  0  0  0  0  0  0  0  0  0  0
    4.6698    2.6286   -0.6440 H   0  0  0  0  0  0  0  0  0  0  0  0
    2.5010    2.6510   -1.8065 H   0  0  0  0  0  0  0  0  0  0  0  0
    0.0096   -0.8603   -2.1342 H   0  0  0  0  0  0  0  0  0  0  0  0
   -2.2145    0.9028   -6.1483 H   0  0  0  0  0  0  0  0  0  0  0  0
   -4.4538    1.2635   -5.2086 H   0  0  0  0  0  0  0  0  0  0  0  0
   -5.0056    0.9196   -1.2126 H   0  0  0  0  0  0  0  0  0  0  0  0
   -5.6859    0.8847    1.0231 H   0  0  0  0  0  0  0  0  0  0  0  0
   -4.0827    1.5834    1.4672 H   0  0  0  0  0  0  0  0  0  0  0  0
   -3.1341   -0.7317    1.5609 H   0  0  0  0  0  0  0  0  0  0  0  0
   -4.3339   -2.6851    0.9119 H   0  0  0  0  0  0  0  0  0  0  0  0
   -5.5080   -1.5681    0.0483 H   0  0  0  0  0  0  0  0  0  0  0  0
   -6.8429   -1.3526    1.9711 H   0  0  0  0  0  0  0  0  0  0  0  0
   -5.8839   -2.7826    2.6570 H   0  0  0  0  0  0  0  0  0  0  0  0
   -5.3472    0.0286    3.3570 H   0  0  0  0  0  0  0  0  0  0  0  0
   -4.1835   -1.3693    3.5992 H   0  0  0  0  0  0  0  0  0  0  0  0
    0.1190   -0.9149    0.0963 H   0  0  0  0  0  0  0  0  0  0  0  0
    0.6298   -2.5763    1.8687 H   0  0  0  0  0  0  0  0  0  0  0  0
    2.8475   -2.5236    2.9930 H   0  0  0  0  0  0  0  0  0  0  0  0
    4.4915   -0.8406    2.3613 H   0  0  0  0  0  0  0  0  0  0  0  0
  1  2  1  0
  2  3  2  0
  2  4  1  0
  4  5  1  0
  5  6  2  0
  6  7  1  0
  7  8  2  0
  8  9  1  0
  9 10  2  0
  9 11  1  0
 11 12  1  0
 12 13  2  0
 13 14  1  0
 14 15  2  0
 15 16  1  0
 16 17  2  0
 17 18  1  0
 18 19  2  0
 18 20  1  0
 20 21  1  0
 21 22  1  0
 22 23  1  0
 23 24  1  0
 24 25  1  0
  8 26  1  0
 26 27  2  0
 27 28  1  0
 28 29  2  0
 29 30  1  0
 30 31  2  0
 31  5  1  0
 17 12  1  0
 25 22  1  0
 31 26  1  0
  1 32  1  0
  1 33  1  0
  1 34  1  0
  4 35  1  0
  4 36  1  0
  6 37  1  0
  7 38  1  0
 11 39  1  0
 14 40  1  0
 15 41  1  0
 20 42  1  0
 21 43  1  0
 21 44  1  0
 22 45  1  0
 23 46  1  0
 23 47  1  0
 24 48  1  0
 24 49  1  0
 25 50  1  0
 25 51  1  0
 27 52  1  0
 28 53  1  0
 29 54  1  0
 30 55  1  0
M  END
$$$$
