
     RDKit          3D

 62 68  0  0  0  0  0  0  0  0999 V2000
    8.5065   -1.1207   -0.7332 C   0  0  0  0  0  0  0  0  0  0  0  0
    7.0780   -1.2539   -0.4112 N   0  0  0  0  0  0  0  0  0  0  0  0
    6.3467   -0.5005   -1.4390 C   0  0  0  0  0  0  0  0  0  0  0  0
    5.8178    0.7297   -0.7377 C   0  0  2  0  0  0  0  0  0  0  0  0
    6.9505    0.9212    0.2931 C   0  0  0  0  0  0  0  0  0  0  0  0
    6.8567   -0.5295    0.8070 C   0  0  1  0  0  0  0  0  0  0  0  0
    5.3721   -0.5763    1.1149 C   0  0  0  0  0  0  0  0  0  0  0  0
    4.7704    0.3044    0.1339 N   0  0  0  0  0  0  0  0  0  0  0  0
    3.4102    0.6757    0.0504 C   0  0  0  0  0  0  0  0  0  0  0  0
    2.4546    0.2190    0.9492 C   0  0  0  0  0  0  0  0  0  0  0  0
    1.1243    0.5763    0.8751 C   0  0  0  0  0  0  0  0  0  0  0  0
    0.6867    1.4084   -0.1028 C   0  0  0  0  0  0  0  0  0  0  0  0
   -0.6887    1.8295   -0.2483 C   0  0  0  0  0  0  0  0  0  0  0  0
   -0.9627    3.1690   -0.5000 C   0  0  0  0  0  0  0  0  0  0  0  0
   -2.2673    3.6010   -0.6437 C   0  0  0  0  0  0  0  0  0  0  0  0
   -3.2694    2.7358   -0.5418 N   0  0  0  0  0  0  0  0  0  0  0  0
   -3.0149    1.4296   -0.2970 C   0  0  0  0  0  0  0  0  0  0  0  0
   -3.8890    0.3594   -0.1518 C   0  0  0  0  0  0  0  0  0  0  0  0
   -5.3467    0.3643   -0.2277 C   0  0  0  0  0  0  0  0  0  0  0  0
   -5.9945   -0.3630   -1.2142 C   0  0  0  0  0  0  0  0  0  0  0  0
   -7.3699   -0.3804   -1.3142 C   0  0  0  0  0  0  0  0  0  0  0  0
   -8.1577    0.3295   -0.4309 C   0  0  0  0  0  0  0  0  0  0  0  0
   -7.5294    1.0574    0.5554 C   0  0  0  0  0  0  0  0  0  0  0  0
   -8.3452    1.7625    1.4310 O   0  0  0  0  0  0  0  0  0  0  0  0
   -6.1531    1.0662    0.6441 C   0  0  0  0  0  0  0  0  0  0  0  0
   -3.0668   -0.7270    0.0834 C   0  0  0  0  0  0  0  0  0  0  0  0
   -3.5844   -2.0739    0.2958 C   0  0  0  0  0  0  0  0  0  0  0  0
   -3.2405   -3.0984   -0.5616 C   0  0  0  0  0  0  0  0  0  0  0  0
   -3.7212   -4.3944   -0.3820 C   0  0  0  0  0  0  0  0  0  0  0  0
   -4.5398   -4.6623    0.6480 N   0  0  0  0  0  0  0  0  0  0  0  0
   -4.8878   -3.6766    1.4966 C   0  0  0  0  0  0  0  0  0  0  0  0
   -4.4283   -2.3857    1.3444 C   0  0  0  0  0  0  0  0  0  0  0  0
   -1.7976   -0.2821    0.0696 N   0  0  0  0  0  0  0  0  0  0  0  0
   -1.7424    1.0107   -0.1572 N   0  0  0  0  0  0  0  0  0  0  0  0
    1.6238    1.8791   -1.0146 C   0  0  0  0  0  0  0  0  0  0  0  0
    2.9447    1.5201   -0.9355 C   0  0  0  0  0  0  0  0  0  0  0  0
    8.8870   -2.0586   -1.1387 H   0  0  0  0  0  0  0  0  0  0  0  0
    8.6665   -0.3330   -1.5148 H   0  0  0  0  0  0  0  0  0  0  0  0
    9.0806   -0.7506    0.1560 H   0  0  0  0  0  0  0  0  0  0  0  0
    5.5005   -1.1241   -1.7307 H   0  0  0  0  0  0  0  0  0  0  0  0
    7.0081   -0.1866   -2.2588 H   0  0  0  0  0  0  0  0  0  0  0  0
    5.6525    1.5869   -1.3498 H   0  0  0  0  0  0  0  0  0  0  0  0
    6.6697    1.6419    1.0628 H   0  0  0  0  0  0  0  0  0  0  0  0
    7.9126    1.0963   -0.1935 H   0  0  0  0  0  0  0  0  0  0  0  0
    7.5089   -0.7383    1.6247 H   0  0  0  0  0  0  0  0  0  0  0  0
    5.0441   -1.6200    0.8350 H   0  0  0  0  0  0  0  0  0  0  0  0
    5.1293   -0.3265    2.1468 H   0  0  0  0  0  0  0  0  0  0  0  0
    2.7995   -0.4459    1.7320 H   0  0  0  0  0  0  0  0  0  0  0  0
    0.3845    0.2059    1.5937 H   0  0  0  0  0  0  0  0  0  0  0  0
   -0.1260    3.8798   -0.5831 H   0  0  0  0  0  0  0  0  0  0  0  0
   -2.4619    4.6475   -0.8397 H   0  0  0  0  0  0  0  0  0  0  0  0
   -5.4080   -0.9334   -1.9271 H   0  0  0  0  0  0  0  0  0  0  0  0
   -7.8999   -0.9481   -2.0856 H   0  0  0  0  0  0  0  0  0  0  0  0
   -9.2438    0.3121   -0.5150 H   0  0  0  0  0  0  0  0  0  0  0  0
   -8.0841    2.7160    1.6486 H   0  0  0  0  0  0  0  0  0  0  0  0
   -5.6622    1.6383    1.4189 H   0  0  0  0  0  0  0  0  0  0  0  0
   -2.5926   -2.9316   -1.3933 H   0  0  0  0  0  0  0  0  0  0  0  0
   -3.4529   -5.2046   -1.0552 H   0  0  0  0  0  0  0  0  0  0  0  0
   -5.5429   -3.8937    2.3196 H   0  0  0  0  0  0  0  0  0  0  0  0
   -4.7105   -1.5959    2.0284 H   0  0  0  0  0  0  0  0  0  0  0  0
    1.3329    2.5479   -1.8195 H   0  0  0  0  0  0  0  0  0  0  0  0
    3.6625    1.8940   -1.6518 H   0  0  0  0  0  0  0  0  0  0  0  0
  1  2  1  0
  2  3  1  0
  3  4  1  0
  4  5  1  0
  5  6  1  0
  6  7  1  0
  7  8  1  0
  8  9  1  0
  9 10  2  0
 10 11  1  0
 11 12  2  0
 12 13  1  0
 13 14  2  0
 14 15  1  0
 15 16  2  0
 16 17  1  0
 17 18  2  0
 18 19  1  0
 19 20  2  0
 20 21  1  0
 21 22  2  0
 22 23  1  0
 23 24  1  0
 23 25  2  0
 18 26  1  0
 26 27  1  0
 27 28  2  0
 28 29  1  0
 29 30  2  0
 30 31  1  0
 31 32  2  0
 26 33  2  0
 33 34  1  0
 12 35  1  0
 35 36  2  0
  6  2  1  0
 36  9  1  0
  8  4  1  0
 34 13  1  0
 34 17  1  0
 25 19  1  0
 32 27  1  0
  1 37  1  0
  1 38  1  0
  1 39  1  0
  3 40  1  0
  3 41  1  0
  4 42  1  6
  5 43  1  0
  5 44  1  0
  6 45  1  1
  7 46  1  0
  7 47  1  0
 10 48  1  0
 11 49  1  0
 14 50  1  0
 15 51  1  0
 20 52  1  0
 21 53  1  0
 22 54  1  0
 24 55  1  0
 25 56  1  0
 28 57  1  0
 29 58  1  0
 31 59  1  0
 32 60  1  0
 35 61  1  0
 36 62  1  0
M  END
$$$$
