
     RDKit          3D

 65 68  0  0  0  0  0  0  0  0999 V2000
   -5.2886    4.0574    0.3996 C   0  0  0  0  0  0  0  0  0  0  0  0
   -3.9860    3.6789   -0.2605 C   0  0  0  0  0  0  0  0  0  0  0  0
   -2.8427    3.7825    0.7256 C   0  0  0  0  0  0  0  0  0  0  0  0
   -3.0034    2.8875    1.9045 C   0  0  0  0  0  0  0  0  0  0  0  0
   -3.0735    1.5223    1.4931 N   0  0  0  0  0  0  0  0  0  0  0  0
   -1.9300    0.9073    0.8915 C   0  0  0  0  0  0  0  0  0  0  0  0
   -0.7710    1.5662    0.7425 N   0  0  0  0  0  0  0  0  0  0  0  0
    0.3202    1.0615    0.1984 C   0  0  0  0  0  0  0  0  0  0  0  0
    0.3168   -0.2626   -0.2759 C   0  0  0  0  0  0  0  0  0  0  0  0
    1.5113   -0.8090   -0.8916 C   0  0  0  0  0  0  0  0  0  0  0  0
    2.6869   -0.0532   -0.9894 C   0  0  0  0  0  0  0  0  0  0  0  0
    3.8327   -0.5700   -1.5692 C   0  0  0  0  0  0  0  0  0  0  0  0
    5.0329    0.1796   -1.6813 N   0  0  0  0  0  0  0  0  0  0  0  0
    5.0907    1.5340   -1.3175 C   0  0  0  0  0  0  0  0  0  0  0  0
    4.2112    2.4927   -1.7308 C   0  0  0  0  0  0  0  0  0  0  0  0
    4.3254    3.8081   -1.3060 C   0  0  0  0  0  0  0  0  0  0  0  0
    5.3495    4.1637   -0.4462 C   0  0  0  0  0  0  0  0  0  0  0  0
    6.2519    3.2091   -0.0158 C   0  0  0  0  0  0  0  0  0  0  0  0
    7.2960    3.5939    0.8669 N   0  0  0  0  0  4  0  0  0  0  0  0
    8.1108    2.7108    1.2520 O   0  0  0  0  0  0  0  0  0  0  0  0
    7.4242    4.8805    1.2950 O   0  0  0  0  0  1  0  0  0  0  0  0
    6.1200    1.9163   -0.4477 C   0  0  0  0  0  0  0  0  0  0  0  0
    3.7791   -1.8327   -2.0381 N   0  0  0  0  0  0  0  0  0  0  0  0
    2.6741   -2.5792   -1.9592 C   0  0  0  0  0  0  0  0  0  0  0  0
    1.5965   -2.0264   -1.3890 N   0  0  0  0  0  0  0  0  0  0  0  0
   -0.8722   -0.9226   -0.1168 C   0  0  0  0  0  0  0  0  0  0  0  0
   -0.9909   -2.2804   -0.5472 N   0  0  0  0  0  0  0  0  0  0  0  0
   -2.2728   -2.9654   -0.3639 C   0  0  1  0  0  0  0  0  0  0  0  0
   -2.1287   -4.3779   -0.8744 C   0  0  0  0  0  0  0  0  0  0  0  0
   -1.3722   -5.1952    0.1515 C   0  0  0  0  0  0  0  0  0  0  0  0
   -2.2642   -5.3733    1.3551 C   0  0  2  0  0  0  0  0  0  0  0  0
   -2.7897   -6.6532    1.3135 O   0  0  0  0  0  0  0  0  0  0  0  0
   -3.3434   -4.3050    1.3844 C   0  0  0  0  0  0  0  0  0  0  0  0
   -2.6983   -2.9745    1.0668 C   0  0  0  0  0  0  0  0  0  0  0  0
   -1.9620   -0.3475    0.4517 N   0  0  0  0  0  0  0  0  0  0  0  0
   -5.2100    5.0960    0.7585 H   0  0  0  0  0  0  0  0  0  0  0  0
   -6.0812    3.9616   -0.3977 H   0  0  0  0  0  0  0  0  0  0  0  0
   -5.5817    3.3442    1.1808 H   0  0  0  0  0  0  0  0  0  0  0  0
   -3.7850    4.4155   -1.0684 H   0  0  0  0  0  0  0  0  0  0  0  0
   -4.0940    2.6400   -0.6310 H   0  0  0  0  0  0  0  0  0  0  0  0
   -1.9237    3.5084    0.1808 H   0  0  0  0  0  0  0  0  0  0  0  0
   -2.7465    4.8499    1.0287 H   0  0  0  0  0  0  0  0  0  0  0  0
   -3.8290    3.1856    2.5828 H   0  0  0  0  0  0  0  0  0  0  0  0
   -2.0519    2.9806    2.5078 H   0  0  0  0  0  0  0  0  0  0  0  0
   -3.9360    0.9664    1.6204 H   0  0  0  0  0  0  0  0  0  0  0  0
    1.2052    1.6723    0.1230 H   0  0  0  0  0  0  0  0  0  0  0  0
    2.7371    0.9381   -0.6051 H   0  0  0  0  0  0  0  0  0  0  0  0
    5.8954   -0.3034   -2.0501 H   0  0  0  0  0  0  0  0  0  0  0  0
    3.4068    2.2446   -2.4156 H   0  0  0  0  0  0  0  0  0  0  0  0
    3.6089    4.5287   -1.6585 H   0  0  0  0  0  0  0  0  0  0  0  0
    5.4285    5.1936   -0.1213 H   0  0  0  0  0  0  0  0  0  0  0  0
    6.8281    1.1955   -0.1023 H   0  0  0  0  0  0  0  0  0  0  0  0
    2.7012   -3.5806   -2.3534 H   0  0  0  0  0  0  0  0  0  0  0  0
   -0.2182   -2.7762   -0.9681 H   0  0  0  0  0  0  0  0  0  0  0  0
   -3.0292   -2.3893   -0.9616 H   0  0  0  0  0  0  0  0  0  0  0  0
   -1.5396   -4.3120   -1.8344 H   0  0  0  0  0  0  0  0  0  0  0  0
   -3.1317   -4.7968   -1.0821 H   0  0  0  0  0  0  0  0  0  0  0  0
   -0.4376   -4.6423    0.4065 H   0  0  0  0  0  0  0  0  0  0  0  0
   -1.0232   -6.1625   -0.2849 H   0  0  0  0  0  0  0  0  0  0  0  0
   -1.6527   -5.2649    2.2864 H   0  0  0  0  0  0  0  0  0  0  0  0
   -2.6683   -7.0984    0.4440 H   0  0  0  0  0  0  0  0  0  0  0  0
   -3.8086   -4.2992    2.3991 H   0  0  0  0  0  0  0  0  0  0  0  0
   -4.1375   -4.5190    0.6441 H   0  0  0  0  0  0  0  0  0  0  0  0
   -1.8533   -2.8601    1.7828 H   0  0  0  0  0  0  0  0  0  0  0  0
   -3.4130   -2.1410    1.3176 H   0  0  0  0  0  0  0  0  0  0  0  0
  1  2  1  0
  2  3  1  0
  3  4  1  0
  4  5  1  0
  5  6  1  0
  6  7  2  0
  7  8  1  0
  8  9  2  0
  9 10  1  0
 10 11  2  0
 11 12  1  0
 12 13  1  0
 13 14  1  0
 14 15  2  0
 15 16  1  0
 16 17  2  0
 17 18  1  0
 18 19  1  0
 19 20  2  0
 19 21  1  0
 18 22  2  0
 12 23  2  0
 23 24  1  0
 24 25  2  0
  9 26  1  0
 26 27  1  0
 27 28  1  0
 28 29  1  0
 29 30  1  0
 30 31  1  0
 31 32  1  0
 31 33  1  0
 33 34  1  0
 26 35  2  0
 35  6  1  0
 25 10  1  0
 34 28  1  0
 22 14  1  0
  1 36  1  0
  1 37  1  0
  1 38  1  0
  2 39  1  0
  2 40  1  0
  3 41  1  0
  3 42  1  0
  4 43  1  0
  4 44  1  0
  5 45  1  0
  8 46  1  0
 11 47  1  0
 13 48  1  0
 15 49  1  0
 16 50  1  0
 17 51  1  0
 22 52  1  0
 24 53  1  0
 27 54  1  0
 28 55  1  6
 29 56  1  0
 29 57  1  0
 30 58  1  0
 30 59  1  0
 31 60  1  1
 32 61  1  0
 33 62  1  0
 33 63  1  0
 34 64  1  0
 34 65  1  0
M  CHG  2  19   1  21  -1
M  END
$$$$
