
     RDKit          3D

 62 66  0  0  0  0  0  0  0  0999 V2000
    0.0761   -3.5844   -1.0040 O   0  0  0  0  0  0  0  0  0  0  0  0
    0.7098   -2.5389   -0.6896 C   0  0  0  0  0  0  0  0  0  0  0  0
    2.0783   -2.5940   -0.9119 O   0  0  0  0  0  0  0  0  0  0  0  0
    0.0135   -1.3770   -0.1376 C   0  0  2  0  0  0  0  0  0  0  0  0
    0.6849   -0.7012    1.0165 C   0  0  0  0  0  0  0  0  0  0  0  0
    2.0400   -0.1699    0.7136 C   0  0  0  0  0  0  0  0  0  0  0  0
    3.1303   -0.9433    1.0167 C   0  0  0  0  0  0  0  0  0  0  0  0
    4.3914   -0.4239    0.7067 C   0  0  0  0  0  0  0  0  0  0  0  0
    4.5101    0.8180    0.1209 C   0  0  0  0  0  0  0  0  0  0  0  0
    3.4146    1.5947   -0.1828 C   0  0  0  0  0  0  0  0  0  0  0  0
    2.1611    1.0678    0.1298 C   0  0  0  0  0  0  0  0  0  0  0  0
    3.8276    2.7056   -0.7227 O   0  0  0  0  0  0  0  0  0  0  0  0
    5.1450    2.7535   -0.8153 C   0  0  0  0  0  0  0  0  0  0  0  0
    6.0319    3.6940   -1.3012 C   0  0  0  0  0  0  0  0  0  0  0  0
    7.3790    3.4403   -1.2549 C   0  0  0  0  0  0  0  0  0  0  0  0
    7.8553    2.2601   -0.7300 C   0  0  0  0  0  0  0  0  0  0  0  0
    6.9681    1.3200   -0.2443 C   0  0  0  0  0  0  0  0  0  0  0  0
    5.6013    1.5576   -0.2820 C   0  0  0  0  0  0  0  0  0  0  0  0
   -1.3864   -1.4486   -0.0175 N   0  0  0  0  0  0  0  0  0  0  0  0
   -2.0586   -2.4632    0.6467 C   0  0  0  0  0  0  0  0  0  0  0  0
   -3.5627   -2.2404    0.5440 C   0  0  0  0  0  0  0  0  0  0  0  0
   -4.0781   -0.9717    1.0855 C   0  0  0  0  0  0  0  0  0  0  0  0
   -3.6230    0.2704    0.4262 C   0  0  0  0  0  0  0  0  0  0  0  0
   -2.6270    1.0731    0.9349 C   0  0  0  0  0  0  0  0  0  0  0  0
   -2.1764    2.2213    0.3317 C   0  0  0  0  0  0  0  0  0  0  0  0
   -2.7380    2.6167   -0.8543 C   0  0  0  0  0  0  0  0  0  0  0  0
   -3.7385    1.8505   -1.4053 C   0  0  0  0  0  0  0  0  0  0  0  0
   -4.3104    2.2608   -2.5979 C   0  0  0  0  0  0  0  0  0  0  0  0
   -5.3240    1.5561   -3.2069 C   0  0  0  0  0  0  0  0  0  0  0  0
   -5.7609    0.4082   -2.5819 C   0  0  0  0  0  0  0  0  0  0  0  0
   -5.1927   -0.0194   -1.3770 C   0  0  0  0  0  0  0  0  0  0  0  0
   -4.1828    0.6844   -0.7742 C   0  0  0  0  0  0  0  0  0  0  0  0
   -1.5592   -3.0053    2.2591 P   0  0  0  0  0  5  0  0  0  0  0  0
   -0.2441   -3.7920    2.1925 O   0  0  0  0  0  0  0  0  0  0  0  0
   -1.4301   -1.8583    3.4435 O   0  0  0  0  0  0  0  0  0  0  0  0
   -2.7048   -4.2057    2.7500 O   0  0  0  0  0  0  0  0  0  0  0  0
    2.5346   -3.4712   -1.0958 H   0  0  0  0  0  0  0  0  0  0  0  0
    0.1694   -0.5789   -0.9952 H   0  0  0  0  0  0  0  0  0  0  0  0
    0.7401   -1.3388    1.9070 H   0  0  0  0  0  0  0  0  0  0  0  0
    0.0911    0.2018    1.3363 H   0  0  0  0  0  0  0  0  0  0  0  0
    3.0563   -1.9221    1.4918 H   0  0  0  0  0  0  0  0  0  0  0  0
    5.2486   -1.0345    0.9455 H   0  0  0  0  0  0  0  0  0  0  0  0
    1.2872    1.6798   -0.1086 H   0  0  0  0  0  0  0  0  0  0  0  0
    5.6805    4.6201   -1.7138 H   0  0  0  0  0  0  0  0  0  0  0  0
    8.1199    4.1631   -1.6318 H   0  0  0  0  0  0  0  0  0  0  0  0
    8.9347    2.0929   -0.7097 H   0  0  0  0  0  0  0  0  0  0  0  0
    7.3352    0.3911    0.1690 H   0  0  0  0  0  0  0  0  0  0  0  0
   -1.8911   -1.0546   -0.8547 H   0  0  0  0  0  0  0  0  0  0  0  0
   -1.9421   -3.4181   -0.0178 H   0  0  0  0  0  0  0  0  0  0  0  0
   -3.8422   -2.3562   -0.5201 H   0  0  0  0  0  0  0  0  0  0  0  0
   -4.0779   -3.1084    1.0550 H   0  0  0  0  0  0  0  0  0  0  0  0
   -5.2078   -0.9940    1.0503 H   0  0  0  0  0  0  0  0  0  0  0  0
   -3.8702   -0.8394    2.1798 H   0  0  0  0  0  0  0  0  0  0  0  0
   -2.1756    0.7742    1.8824 H   0  0  0  0  0  0  0  0  0  0  0  0
   -1.3744    2.7985    0.8136 H   0  0  0  0  0  0  0  0  0  0  0  0
   -2.3724    3.5293   -1.3246 H   0  0  0  0  0  0  0  0  0  0  0  0
   -3.9669    3.1601   -3.0847 H   0  0  0  0  0  0  0  0  0  0  0  0
   -5.7795    1.8667   -4.1398 H   0  0  0  0  0  0  0  0  0  0  0  0
   -6.5545   -0.1669   -3.0332 H   0  0  0  0  0  0  0  0  0  0  0  0
   -5.5862   -0.9140   -0.9330 H   0  0  0  0  0  0  0  0  0  0  0  0
   -1.2667   -0.9751    3.1139 H   0  0  0  0  0  0  0  0  0  0  0  0
   -2.6114   -4.9213    2.0440 H   0  0  0  0  0  0  0  0  0  0  0  0
  1  2  2  0
  2  3  1  0
  2  4  1  0
  4  5  1  0
  5  6  1  0
  6  7  2  0
  7  8  1  0
  8  9  2  0
  9 10  1  0
 10 11  2  0
 10 12  1  0
 12 13  1  0
 13 14  2  0
 14 15  1  0
 15 16  2  0
 16 17  1  0
 17 18  2  0
  4 19  1  0
 19 20  1  0
 20 21  1  0
 21 22  1  0
 22 23  1  0
 23 24  2  0
 24 25  1  0
 25 26  2  0
 26 27  1  0
 27 28  2  0
 28 29  1  0
 29 30  2  0
 30 31  1  0
 31 32  2  0
 20 33  1  0
 33 34  2  0
 33 35  1  0
 33 36  1  0
 11  6  1  0
 18 13  1  0
 32 23  1  0
 18  9  1  0
 32 27  1  0
  3 37  1  0
  4 38  1  6
  5 39  1  0
  5 40  1  0
  7 41  1  0
  8 42  1  0
 11 43  1  0
 14 44  1  0
 15 45  1  0
 16 46  1  0
 17 47  1  0
 19 48  1  0
 20 49  1  0
 21 50  1  0
 21 51  1  0
 22 52  1  0
 22 53  1  0
 24 54  1  0
 25 55  1  0
 26 56  1  0
 28 57  1  0
 29 58  1  0
 30 59  1  0
 31 60  1  0
 35 61  1  0
 36 62  1  0
M  END
$$$$
