
     RDKit          3D

 74 77  0  0  0  0  0  0  0  0999 V2000
   -6.4070   -3.5155   -1.8675 C   0  0  0  0  0  0  0  0  0  0  0  0
   -4.8944   -2.8148   -1.2525 S   0  0  0  0  0  6  0  0  0  0  0  0
   -4.3320   -3.6205   -0.1220 O   0  0  0  0  0  0  0  0  0  0  0  0
   -3.8877   -2.8716   -2.3615 O   0  0  0  0  0  0  0  0  0  0  0  0
   -5.1758   -1.1874   -0.8373 N   0  0  0  0  0  0  0  0  0  0  0  0
   -6.0943   -0.7588    0.1545 C   0  0  0  0  0  0  0  0  0  0  0  0
   -7.4284   -0.4754   -0.1592 C   0  0  0  0  0  0  0  0  0  0  0  0
   -8.3287   -0.0608    0.7850 C   0  0  0  0  0  0  0  0  0  0  0  0
   -7.9300    0.0818    2.0536 N   0  0  0  0  0  0  0  0  0  0  0  0
   -6.6534   -0.1806    2.3990 C   0  0  0  0  0  0  0  0  0  0  0  0
   -5.7280   -0.5986    1.4703 C   0  0  0  0  0  0  0  0  0  0  0  0
   -4.4544   -0.1845   -1.5290 C   0  0  0  0  0  0  0  0  0  0  0  0
   -5.0399    0.3256   -2.6736 C   0  0  0  0  0  0  0  0  0  0  0  0
   -4.4173    1.3124   -3.4162 C   0  0  0  0  0  0  0  0  0  0  0  0
   -3.2075    1.8006   -3.0270 C   0  0  0  0  0  0  0  0  0  0  0  0
   -2.5940    1.3207   -1.8979 C   0  0  0  0  0  0  0  0  0  0  0  0
   -1.3051    1.8375   -1.4803 C   0  0  0  0  0  0  0  0  0  0  0  0
   -0.7967    2.7701   -2.1699 O   0  0  0  0  0  0  0  0  0  0  0  0
   -0.5832    1.3790   -0.3706 N   0  0  0  0  0  0  0  0  0  0  0  0
    0.6919    1.9618   -0.0420 C   0  0  1  0  0  0  0  0  0  0  0  0
    0.7029    2.6140    1.3223 C   0  0  0  0  0  0  0  0  0  0  0  0
    2.0292    3.2083    1.6279 C   0  0  0  0  0  0  0  0  0  0  0  0
    3.0305    2.5265    2.2657 C   0  0  0  0  0  0  0  0  0  0  0  0
    4.2380    3.1388    2.5180 C   0  0  0  0  0  0  0  0  0  0  0  0
    4.4730    4.4397    2.1417 C   0  0  0  0  0  0  0  0  0  0  0  0
    3.4651    5.1298    1.4985 C   0  0  0  0  0  0  0  0  0  0  0  0
    2.2556    4.5281    1.2412 C   0  0  0  0  0  0  0  0  0  0  0  0
    1.8211    0.9548   -0.1889 C   0  0  2  0  0  0  0  0  0  0  0  0
    1.8565    0.5147   -1.5317 O   0  0  0  0  0  0  0  0  0  0  0  0
    1.5711   -0.2816    0.6407 C   0  0  0  0  0  0  0  0  0  0  0  0
    2.5795   -1.2757    0.4894 N   0  0  0  0  0  0  0  0  0  0  0  0
    3.8402   -0.8514    1.0488 C   0  0  0  0  0  0  0  0  0  0  0  0
    4.8879   -1.8724    0.8657 C   0  0  0  0  0  0  0  0  0  0  0  0
    5.1691   -2.8610    1.7625 C   0  0  0  0  0  0  0  0  0  0  0  0
    6.1701   -3.7819    1.5062 C   0  0  0  0  0  0  0  0  0  0  0  0
    6.9098   -3.7245    0.3383 C   0  0  0  0  0  0  0  0  0  0  0  0
    6.6432   -2.7440   -0.5688 C   0  0  0  0  0  0  0  0  0  0  0  0
    7.4235   -2.6684   -1.8276 C   0  0  0  0  0  0  0  0  0  0  0  0
    7.1837   -1.4077   -2.3762 F   0  0  0  0  0  0  0  0  0  0  0  0
    8.7640   -2.8496   -1.6513 F   0  0  0  0  0  0  0  0  0  0  0  0
    6.9243   -3.5695   -2.7731 F   0  0  0  0  0  0  0  0  0  0  0  0
    5.6350   -1.8311   -0.2915 C   0  0  0  0  0  0  0  0  0  0  0  0
   -3.2368    0.3223   -1.1570 C   0  0  0  0  0  0  0  0  0  0  0  0
   -6.2329   -4.4844   -2.3791 H   0  0  0  0  0  0  0  0  0  0  0  0
   -7.1286   -3.6717   -1.0549 H   0  0  0  0  0  0  0  0  0  0  0  0
   -6.8457   -2.8356   -2.6246 H   0  0  0  0  0  0  0  0  0  0  0  0
   -7.7242   -0.6030   -1.2126 H   0  0  0  0  0  0  0  0  0  0  0  0
   -9.3558    0.1577    0.5433 H   0  0  0  0  0  0  0  0  0  0  0  0
   -6.3148   -0.0669    3.4398 H   0  0  0  0  0  0  0  0  0  0  0  0
   -4.7072   -0.8116    1.7260 H   0  0  0  0  0  0  0  0  0  0  0  0
   -5.9977   -0.0117   -3.0454 H   0  0  0  0  0  0  0  0  0  0  0  0
   -4.8629    1.7235   -4.3162 H   0  0  0  0  0  0  0  0  0  0  0  0
   -2.6911    2.5869   -3.6017 H   0  0  0  0  0  0  0  0  0  0  0  0
   -0.9539    0.6193    0.2238 H   0  0  0  0  0  0  0  0  0  0  0  0
    0.9282    2.8003   -0.7677 H   0  0  0  0  0  0  0  0  0  0  0  0
    0.4651    1.8904    2.1307 H   0  0  0  0  0  0  0  0  0  0  0  0
   -0.0373    3.4403    1.3576 H   0  0  0  0  0  0  0  0  0  0  0  0
    2.8885    1.5146    2.5757 H   0  0  0  0  0  0  0  0  0  0  0  0
    5.0284    2.5983    3.0223 H   0  0  0  0  0  0  0  0  0  0  0  0
    5.4270    4.9362    2.3385 H   0  0  0  0  0  0  0  0  0  0  0  0
    3.6200    6.1590    1.1896 H   0  0  0  0  0  0  0  0  0  0  0  0
    1.4471    5.0556    0.7344 H   0  0  0  0  0  0  0  0  0  0  0  0
    2.7531    1.4735    0.0123 H   0  0  0  0  0  0  0  0  0  0  0  0
    0.9813    0.0738   -1.7536 H   0  0  0  0  0  0  0  0  0  0  0  0
    1.3324   -0.0692    1.6988 H   0  0  0  0  0  0  0  0  0  0  0  0
    0.6178   -0.7268    0.2251 H   0  0  0  0  0  0  0  0  0  0  0  0
    2.2309   -2.1763    0.8442 H   0  0  0  0  0  0  0  0  0  0  0  0
    3.7712   -0.6708    2.1477 H   0  0  0  0  0  0  0  0  0  0  0  0
    4.1589    0.0570    0.5013 H   0  0  0  0  0  0  0  0  0  0  0  0
    4.6247   -2.9392    2.6665 H   0  0  0  0  0  0  0  0  0  0  0  0
    6.4290   -4.5852    2.1871 H   0  0  0  0  0  0  0  0  0  0  0  0
    7.7001   -4.4551    0.1384 H   0  0  0  0  0  0  0  0  0  0  0  0
    5.4700   -1.0746   -1.0498 H   0  0  0  0  0  0  0  0  0  0  0  0
   -2.7922   -0.0835   -0.2634 H   0  0  0  0  0  0  0  0  0  0  0  0
  1  2  1  0
  2  3  2  0
  2  4  2  0
  2  5  1  0
  5  6  1  0
  6  7  2  0
  7  8  1  0
  8  9  2  0
  9 10  1  0
 10 11  2  0
  5 12  1  0
 12 13  2  0
 13 14  1  0
 14 15  2  0
 15 16  1  0
 16 17  1  0
 17 18  2  0
 17 19  1  0
 19 20  1  0
 20 21  1  0
 21 22  1  0
 22 23  2  0
 23 24  1  0
 24 25  2  0
 25 26  1  0
 26 27  2  0
 20 28  1  0
 28 29  1  0
 28 30  1  0
 30 31  1  0
 31 32  1  0
 32 33  1  0
 33 34  2  0
 34 35  1  0
 35 36  2  0
 36 37  1  0
 37 38  1  0
 38 39  1  0
 38 40  1  0
 38 41  1  0
 37 42  2  0
 16 43  2  0
 11  6  1  0
 43 12  1  0
 27 22  1  0
 42 33  1  0
  1 44  1  0
  1 45  1  0
  1 46  1  0
  7 47  1  0
  8 48  1  0
 10 49  1  0
 11 50  1  0
 13 51  1  0
 14 52  1  0
 15 53  1  0
 19 54  1  0
 20 55  1  6
 21 56  1  0
 21 57  1  0
 23 58  1  0
 24 59  1  0
 25 60  1  0
 26 61  1  0
 27 62  1  0
 28 63  1  1
 29 64  1  0
 30 65  1  0
 30 66  1  0
 31 67  1  0
 32 68  1  0
 32 69  1  0
 34 70  1  0
 35 71  1  0
 36 72  1  0
 42 73  1  0
 43 74  1  0
M  END
$$$$
