
     RDKit          3D

 54 57  0  0  0  0  0  0  0  0999 V2000
    6.7621    2.7627    0.3469 O   0  0  0  0  0  0  0  0  0  0  0  0
    7.6637    1.7086    0.2577 C   0  0  0  0  0  0  0  0  0  0  0  0
    7.1043    0.4213    0.8283 C   0  0  2  0  0  0  0  0  0  0  0  0
    8.0460   -0.6187    0.7199 O   0  0  0  0  0  0  0  0  0  0  0  0
    5.9532    0.0116    0.0103 C   0  0  0  0  0  0  0  0  0  0  0  0
    6.2218   -1.0981   -0.4879 O   0  0  0  0  0  0  0  0  0  0  0  0
    4.6625    0.3930   -0.4263 N   0  0  0  0  0  0  0  0  0  0  0  0
    4.0165   -0.5556   -1.2994 C   0  0  0  0  0  0  0  0  0  0  0  0
    2.9091   -1.2329   -0.4703 C   0  0  0  0  0  0  0  0  0  0  0  0
    1.8954   -0.2033   -0.1725 C   0  0  0  0  0  0  0  0  0  0  0  0
    2.3841    1.0186   -0.0818 C   0  0  0  0  0  0  0  0  0  0  0  0
    3.7639    1.5408   -0.2243 C   0  0  0  0  0  0  0  0  0  0  0  0
    0.4804   -0.4617   -0.0043 C   0  0  0  0  0  0  0  0  0  0  0  0
    0.0288   -1.7602    0.0192 C   0  0  0  0  0  0  0  0  0  0  0  0
    0.7846   -2.8766   -0.0599 F   0  0  0  0  0  0  0  0  0  0  0  0
   -1.2977   -2.1166    0.1501 C   0  0  0  0  0  0  0  0  0  0  0  0
   -2.2865   -1.1354    0.2704 C   0  0  0  0  0  0  0  0  0  0  0  0
   -1.8647    0.1831    0.2507 C   0  0  0  0  0  0  0  0  0  0  0  0
   -0.5272    0.4564    0.1168 C   0  0  0  0  0  0  0  0  0  0  0  0
   -0.2646    1.7746    0.1047 F   0  0  0  0  0  0  0  0  0  0  0  0
   -3.6642   -1.4485    0.4076 N   0  0  0  0  0  0  0  0  0  0  0  0
   -4.4363   -1.5712   -0.8342 C   0  0  0  0  0  0  0  0  0  0  0  0
   -5.8373   -1.8719   -0.3409 C   0  0  2  0  0  0  0  0  0  0  0  0
   -6.7873   -1.0664   -1.1769 C   0  0  0  0  0  0  0  0  0  0  0  0
   -6.4510    0.2869   -1.1237 O   0  0  0  0  0  0  0  0  0  0  0  0
   -6.4585    0.9732    0.0773 C   0  0  0  0  0  0  0  0  0  0  0  0
   -6.6550    0.9885    1.3904 N   0  0  0  0  0  0  0  0  0  0  0  0
   -6.4405    2.1388    1.9114 O   0  0  0  0  0  0  0  0  0  0  0  0
   -6.0755    3.0178    0.9922 C   0  0  0  0  0  0  0  0  0  0  0  0
   -6.0787    2.2920   -0.2018 C   0  0  0  0  0  0  0  0  0  0  0  0
   -5.8567   -1.4939    1.0147 O   0  0  0  0  0  0  0  0  0  0  0  0
   -4.5509   -1.6907    1.5014 C   0  0  0  0  0  0  0  0  0  0  0  0
   -4.0501   -2.0097    2.6113 O   0  0  0  0  0  0  0  0  0  0  0  0
    6.9870    3.3738    1.0933 H   0  0  0  0  0  0  0  0  0  0  0  0
    8.6056    1.9932    0.7957 H   0  0  0  0  0  0  0  0  0  0  0  0
    7.8914    1.5297   -0.8230 H   0  0  0  0  0  0  0  0  0  0  0  0
    6.8780    0.5656    1.8962 H   0  0  0  0  0  0  0  0  0  0  0  0
    7.5748   -1.4519    0.9838 H   0  0  0  0  0  0  0  0  0  0  0  0
    4.6826   -1.3674   -1.6633 H   0  0  0  0  0  0  0  0  0  0  0  0
    3.4818   -0.0636   -2.1499 H   0  0  0  0  0  0  0  0  0  0  0  0
    3.3955   -1.5111    0.4932 H   0  0  0  0  0  0  0  0  0  0  0  0
    2.5279   -2.1089   -1.0411 H   0  0  0  0  0  0  0  0  0  0  0  0
    1.8383    1.9087    0.1277 H   0  0  0  0  0  0  0  0  0  0  0  0
    4.1135    2.1086    0.6687 H   0  0  0  0  0  0  0  0  0  0  0  0
    3.8305    2.1117   -1.1719 H   0  0  0  0  0  0  0  0  0  0  0  0
   -1.6938   -3.1091    0.1732 H   0  0  0  0  0  0  0  0  0  0  0  0
   -2.6263    0.9412    0.3435 H   0  0  0  0  0  0  0  0  0  0  0  0
   -4.3605   -0.6088   -1.3590 H   0  0  0  0  0  0  0  0  0  0  0  0
   -4.0094   -2.3891   -1.4356 H   0  0  0  0  0  0  0  0  0  0  0  0
   -6.0186   -2.9734   -0.4588 H   0  0  0  0  0  0  0  0  0  0  0  0
   -6.6619   -1.4421   -2.2284 H   0  0  0  0  0  0  0  0  0  0  0  0
   -7.8559   -1.2159   -0.8517 H   0  0  0  0  0  0  0  0  0  0  0  0
   -5.8926    3.9894    1.4215 H   0  0  0  0  0  0  0  0  0  0  0  0
   -5.7819    2.9632   -1.0215 H   0  0  0  0  0  0  0  0  0  0  0  0
  1  2  1  0
  2  3  1  0
  3  4  1  0
  3  5  1  0
  5  6  2  0
  5  7  1  0
  7  8  1  0
  8  9  1  0
  9 10  1  0
 10 11  2  0
 11 12  1  0
 10 13  1  0
 13 14  2  0
 14 15  1  0
 14 16  1  0
 16 17  2  0
 17 18  1  0
 18 19  2  0
 19 20  1  0
 17 21  1  0
 21 22  1  0
 22 23  1  0
 23 24  1  0
 24 25  1  0
 25 26  1  0
 26 27  2  0
 27 28  1  0
 28 29  1  0
 29 30  2  0
 23 31  1  0
 31 32  1  0
 32 33  2  0
 12  7  1  0
 19 13  1  0
 32 21  1  0
 30 26  1  0
  1 34  1  0
  2 35  1  0
  2 36  1  0
  3 37  1  1
  4 38  1  0
  8 39  1  0
  8 40  1  0
  9 41  1  0
  9 42  1  0
 11 43  1  0
 12 44  1  0
 12 45  1  0
 16 46  1  0
 18 47  1  0
 22 48  1  0
 22 49  1  0
 23 50  1  1
 24 51  1  0
 24 52  1  0
 29 53  1  0
 30 54  1  0
M  END
$$$$
