
     RDKit          3D

178179  0  0  0  0  0  0  0  0999 V2000
  -16.5176    5.2384   -1.4041 C   0  0  0  0  0  0  0  0  0  0  0  0
  -16.7355    3.8603   -1.5366 O   0  0  0  0  0  0  0  0  0  0  0  0
  -15.7389    2.9562   -1.2480 C   0  0  0  0  0  0  0  0  0  0  0  0
  -14.6234    3.3733   -0.8594 O   0  0  0  0  0  0  0  0  0  0  0  0
  -15.9164    1.4736   -1.3736 C   0  0  2  0  0  0  0  0  0  0  0  0
  -16.9929    1.0859   -0.4173 C   0  0  0  0  0  0  0  0  0  0  0  0
  -16.4030    0.0038    0.4517 C   0  0  0  0  0  0  0  0  0  0  0  0
  -14.9002    0.1835    0.3095 C   0  0  0  0  0  0  0  0  0  0  0  0
  -14.7423    0.7527   -0.9848 N   0  0  0  0  0  0  0  0  0  0  0  0
  -13.5835    0.6385   -1.8185 C   0  0  0  0  0  0  0  0  0  0  0  0
  -13.4936    1.2145   -2.9120 O   0  0  0  0  0  0  0  0  0  0  0  0
  -12.4387   -0.2112   -1.3358 C   0  0  1  0  0  0  0  0  0  0  0  0
  -12.7585   -1.6554   -1.7583 C   0  0  0  0  0  0  0  0  0  0  0  0
  -11.7573   -2.6273   -1.3205 C   0  0  0  0  0  0  0  0  0  0  0  0
  -11.9528   -3.2457   -0.0794 C   0  0  0  0  0  0  0  0  0  0  0  0
  -11.1030   -4.1853    0.4327 C   0  0  0  0  0  0  0  0  0  0  0  0
   -9.9949   -4.5528   -0.2945 C   0  0  0  0  0  0  0  0  0  0  0  0
   -9.7632   -3.9653   -1.5266 C   0  0  0  0  0  0  0  0  0  0  0  0
  -10.6347   -3.0164   -2.0285 C   0  0  0  0  0  0  0  0  0  0  0  0
  -11.2698    0.2869   -2.0150 N   0  0  0  0  0  0  0  0  0  0  0  0
  -11.2843    0.3170   -3.4806 C   0  0  0  0  0  0  0  0  0  0  0  0
  -10.0850    0.7545   -1.4030 C   0  0  0  0  0  0  0  0  0  0  0  0
   -9.1745    1.2233   -2.1694 O   0  0  0  0  0  0  0  0  0  0  0  0
   -9.8094    0.7429    0.0767 C   0  0  2  0  0  0  0  0  0  0  0  0
  -10.8983    1.3413    0.9002 C   0  0  0  0  0  0  0  0  0  0  0  0
   -8.5848    1.4379    0.3513 N   0  0  0  0  0  0  0  0  0  0  0  0
   -7.2705    0.9313    0.3653 C   0  0  0  0  0  0  0  0  0  0  0  0
   -7.1003   -0.2757    0.0949 O   0  0  0  0  0  0  0  0  0  0  0  0
   -6.1114    1.7891    0.6863 C   0  0  1  0  0  0  0  0  0  0  0  0
   -4.8620    1.1189    0.4488 N   0  0  0  0  0  0  0  0  0  0  0  0
   -4.0465    0.5196    1.4506 C   0  0  0  0  0  0  0  0  0  0  0  0
   -4.4289    0.5383    2.6483 O   0  0  0  0  0  0  0  0  0  0  0  0
   -2.7537   -0.1060    1.0249 C   0  0  0  0  0  0  0  0  0  0  0  0
   -2.2101   -0.8337    2.1991 C   0  0  2  0  0  0  0  0  0  0  0  0
   -2.0128    0.0161    3.3064 O   0  0  0  0  0  0  0  0  0  0  0  0
   -0.8312   -1.4546    1.9699 C   0  0  2  0  0  0  0  0  0  0  0  0
   -0.5424   -2.1655    3.3141 C   0  0  0  0  0  0  0  0  0  0  0  0
    0.7920   -2.8381    3.2876 C   0  0  0  0  0  0  0  0  0  0  0  0
    0.9510   -3.8835    2.2291 C   0  0  0  0  0  0  0  0  0  0  0  0
    0.9688   -3.5246    4.6393 C   0  0  0  0  0  0  0  0  0  0  0  0
    0.1376   -0.4295    1.7520 N   0  0  0  0  0  0  0  0  0  0  0  0
    1.1332   -0.3772    0.7416 C   0  0  0  0  0  0  0  0  0  0  0  0
    1.2067   -1.2915   -0.0790 O   0  0  0  0  0  0  0  0  0  0  0  0
    2.0869    0.7595    0.6680 C   0  0  2  0  0  0  0  0  0  0  0  0
    1.2695    1.9957    0.2573 C   0  0  0  0  0  0  0  0  0  0  0  0
    0.6491    1.7388   -1.0881 C   0  0  0  0  0  0  0  0  0  0  0  0
    0.9093    2.5642   -2.2031 N   0  0  0  0  0  0  0  0  0  0  0  0
   -0.1226    0.7379   -1.1782 O   0  0  0  0  0  0  0  0  0  0  0  0
    3.1137    0.6335   -0.3144 N   0  0  0  0  0  0  0  0  0  0  0  0
    4.4606    0.3714    0.1121 C   0  0  0  0  0  0  0  0  0  0  0  0
    4.6740    0.2275    1.3709 O   0  0  0  0  0  0  0  0  0  0  0  0
    5.5323    0.2826   -0.9068 C   0  0  2  0  0  0  0  0  0  0  0  0
    5.0746   -0.0808   -2.2424 C   0  0  0  0  0  0  0  0  0  0  0  0
    6.1619   -0.1620   -3.3157 C   0  0  0  0  0  0  0  0  0  0  0  0
    6.8931    1.1335   -3.4856 C   0  0  0  0  0  0  0  0  0  0  0  0
    7.0308   -1.3592   -3.1671 C   0  0  0  0  0  0  0  0  0  0  0  0
    6.7344   -0.3657   -0.4924 N   0  0  0  0  0  0  0  0  0  0  0  0
    6.8554   -1.3834    0.4690 C   0  0  0  0  0  0  0  0  0  0  0  0
    5.8512   -1.8329    1.0541 O   0  0  0  0  0  0  0  0  0  0  0  0
    8.2106   -1.9568    0.8228 C   0  0  2  0  0  0  0  0  0  0  0  0
    9.1861   -1.3935    0.0040 O   0  0  0  0  0  0  0  0  0  0  0  0
   10.2770   -0.7007    0.5117 C   0  0  0  0  0  0  0  0  0  0  0  0
   10.3666   -0.6029    1.7389 O   0  0  0  0  0  0  0  0  0  0  0  0
   11.2366   -0.1395   -0.4682 C   0  0  1  0  0  0  0  0  0  0  0  0
   12.2859    0.4506    0.1883 O   0  0  0  0  0  0  0  0  0  0  0  0
   12.6003    1.7707    0.2556 C   0  0  0  0  0  0  0  0  0  0  0  0
   11.8150    2.5173   -0.3741 O   0  0  0  0  0  0  0  0  0  0  0  0
   13.7902    2.2853    1.0195 C   0  0  2  0  0  0  0  0  0  0  0  0
   14.6380    3.0023    0.0177 C   0  0  0  0  0  0  0  0  0  0  0  0
   15.8854    3.6409    0.4888 C   0  0  0  0  0  0  0  0  0  0  0  0
   14.8924    2.1306   -1.2158 C   0  0  0  0  0  0  0  0  0  0  0  0
   14.4746    1.1678    1.6335 N   0  0  0  0  0  0  0  0  0  0  0  0
   13.5190    0.3372    2.3787 C   0  0  0  0  0  0  0  0  0  0  0  0
   15.4379    1.6332    2.6324 C   0  0  0  0  0  0  0  0  0  0  0  0
   11.4732   -1.1127   -1.5383 C   0  0  0  0  0  0  0  0  0  0  0  0
   12.0473   -2.4390   -1.1411 C   0  0  0  0  0  0  0  0  0  0  0  0
   12.1717   -0.5289   -2.7607 C   0  0  0  0  0  0  0  0  0  0  0  0
    8.1984   -3.4453    0.6724 C   0  0  0  0  0  0  0  0  0  0  0  0
    7.8917   -3.9210   -0.7076 C   0  0  0  0  0  0  0  0  0  0  0  0
    9.5305   -4.0087    1.1377 C   0  0  0  0  0  0  0  0  0  0  0  0
   -6.1663    3.1434    0.0332 C   0  0  1  0  0  0  0  0  0  0  0  0
   -5.0210    3.9665    0.5775 C   0  0  0  0  0  0  0  0  0  0  0  0
   -6.0092    2.9373   -1.3538 O   0  0  0  0  0  0  0  0  0  0  0  0
  -15.6945    5.4791   -0.7266 H   0  0  0  0  0  0  0  0  0  0  0  0
  -17.4493    5.6721   -0.9546 H   0  0  0  0  0  0  0  0  0  0  0  0
  -16.4139    5.7351   -2.4089 H   0  0  0  0  0  0  0  0  0  0  0  0
  -16.2236    1.2239   -2.4235 H   0  0  0  0  0  0  0  0  0  0  0  0
  -17.3058    1.9304    0.2566 H   0  0  0  0  0  0  0  0  0  0  0  0
  -17.8779    0.7316   -0.9911 H   0  0  0  0  0  0  0  0  0  0  0  0
  -16.6977    0.1361    1.5202 H   0  0  0  0  0  0  0  0  0  0  0  0
  -16.7139   -0.9701    0.0613 H   0  0  0  0  0  0  0  0  0  0  0  0
  -14.3621   -0.7658    0.4870 H   0  0  0  0  0  0  0  0  0  0  0  0
  -14.5407    0.9486    1.0586 H   0  0  0  0  0  0  0  0  0  0  0  0
  -12.3954   -0.2266   -0.2502 H   0  0  0  0  0  0  0  0  0  0  0  0
  -12.8415   -1.6772   -2.8661 H   0  0  0  0  0  0  0  0  0  0  0  0
  -13.7497   -1.9829   -1.3675 H   0  0  0  0  0  0  0  0  0  0  0  0
  -12.8329   -2.9609    0.5111 H   0  0  0  0  0  0  0  0  0  0  0  0
  -11.2912   -4.6383    1.3912 H   0  0  0  0  0  0  0  0  0  0  0  0
   -9.2950   -5.2995    0.0753 H   0  0  0  0  0  0  0  0  0  0  0  0
   -8.8787   -4.2760   -2.0809 H   0  0  0  0  0  0  0  0  0  0  0  0
  -10.4372   -2.5769   -2.9810 H   0  0  0  0  0  0  0  0  0  0  0  0
  -10.3444   -0.1369   -3.8823 H   0  0  0  0  0  0  0  0  0  0  0  0
  -11.3731    1.3807   -3.8129 H   0  0  0  0  0  0  0  0  0  0  0  0
  -12.1123   -0.2431   -3.9128 H   0  0  0  0  0  0  0  0  0  0  0  0
   -9.7137   -0.3445    0.3127 H   0  0  0  0  0  0  0  0  0  0  0  0
  -11.6597    1.9087    0.3100 H   0  0  0  0  0  0  0  0  0  0  0  0
  -10.4269    2.1488    1.5582 H   0  0  0  0  0  0  0  0  0  0  0  0
  -11.3473    0.6487    1.6469 H   0  0  0  0  0  0  0  0  0  0  0  0
   -8.6623    2.4774    0.5791 H   0  0  0  0  0  0  0  0  0  0  0  0
   -6.1742    1.9182    1.8175 H   0  0  0  0  0  0  0  0  0  0  0  0
   -4.5140    1.0630   -0.5576 H   0  0  0  0  0  0  0  0  0  0  0  0
   -2.9639   -0.7532    0.1756 H   0  0  0  0  0  0  0  0  0  0  0  0
   -2.0599    0.7391    0.7572 H   0  0  0  0  0  0  0  0  0  0  0  0
   -2.8803   -1.6925    2.4510 H   0  0  0  0  0  0  0  0  0  0  0  0
   -2.3936   -0.4305    4.1003 H   0  0  0  0  0  0  0  0  0  0  0  0
   -0.9283   -2.1962    1.1735 H   0  0  0  0  0  0  0  0  0  0  0  0
   -1.3221   -2.9322    3.4792 H   0  0  0  0  0  0  0  0  0  0  0  0
   -0.5442   -1.4193    4.1115 H   0  0  0  0  0  0  0  0  0  0  0  0
    1.5806   -2.0529    3.2299 H   0  0  0  0  0  0  0  0  0  0  0  0
    0.1764   -3.8883    1.4624 H   0  0  0  0  0  0  0  0  0  0  0  0
    1.0490   -4.9137    2.6737 H   0  0  0  0  0  0  0  0  0  0  0  0
    1.9236   -3.6839    1.7059 H   0  0  0  0  0  0  0  0  0  0  0  0
    1.1883   -2.7351    5.4104 H   0  0  0  0  0  0  0  0  0  0  0  0
   -0.0041   -3.9566    4.9288 H   0  0  0  0  0  0  0  0  0  0  0  0
    1.7382   -4.3187    4.6181 H   0  0  0  0  0  0  0  0  0  0  0  0
    0.1299    0.3959    2.4104 H   0  0  0  0  0  0  0  0  0  0  0  0
    2.5424    0.9142    1.6729 H   0  0  0  0  0  0  0  0  0  0  0  0
    1.9465    2.8577    0.1328 H   0  0  0  0  0  0  0  0  0  0  0  0
    0.4907    2.2481    0.9772 H   0  0  0  0  0  0  0  0  0  0  0  0
    0.8501    2.1853   -3.1587 H   0  0  0  0  0  0  0  0  0  0  0  0
    1.1634    3.5590   -2.0654 H   0  0  0  0  0  0  0  0  0  0  0  0
    2.9128    0.7240   -1.3163 H   0  0  0  0  0  0  0  0  0  0  0  0
    5.8806    1.4207   -1.0206 H   0  0  0  0  0  0  0  0  0  0  0  0
    4.3487    0.6844   -2.6148 H   0  0  0  0  0  0  0  0  0  0  0  0
    4.5823   -1.0874   -2.2266 H   0  0  0  0  0  0  0  0  0  0  0  0
    5.5675   -0.3057   -4.2723 H   0  0  0  0  0  0  0  0  0  0  0  0
    7.8902    1.1166   -2.9875 H   0  0  0  0  0  0  0  0  0  0  0  0
    7.1073    1.2972   -4.5623 H   0  0  0  0  0  0  0  0  0  0  0  0
    6.2690    1.9866   -3.1355 H   0  0  0  0  0  0  0  0  0  0  0  0
    8.1050   -1.1383   -2.9517 H   0  0  0  0  0  0  0  0  0  0  0  0
    6.9603   -1.9809   -4.1018 H   0  0  0  0  0  0  0  0  0  0  0  0
    6.6259   -1.9939   -2.3500 H   0  0  0  0  0  0  0  0  0  0  0  0
    7.6571   -0.0569   -0.9350 H   0  0  0  0  0  0  0  0  0  0  0  0
    8.4380   -1.7388    1.8990 H   0  0  0  0  0  0  0  0  0  0  0  0
   10.6642    0.7156   -0.9496 H   0  0  0  0  0  0  0  0  0  0  0  0
   13.4592    2.9851    1.7969 H   0  0  0  0  0  0  0  0  0  0  0  0
   13.9908    3.8446   -0.3905 H   0  0  0  0  0  0  0  0  0  0  0  0
   15.8327    3.9747    1.5279 H   0  0  0  0  0  0  0  0  0  0  0  0
   16.8148    3.0424    0.2850 H   0  0  0  0  0  0  0  0  0  0  0  0
   16.1030    4.6041   -0.0916 H   0  0  0  0  0  0  0  0  0  0  0  0
   13.9033    2.0460   -1.7314 H   0  0  0  0  0  0  0  0  0  0  0  0
   15.6267    2.6312   -1.8505 H   0  0  0  0  0  0  0  0  0  0  0  0
   15.1879    1.1134   -0.9110 H   0  0  0  0  0  0  0  0  0  0  0  0
   12.5523    0.8299    2.5064 H   0  0  0  0  0  0  0  0  0  0  0  0
   13.4759   -0.6389    1.8418 H   0  0  0  0  0  0  0  0  0  0  0  0
   13.9325    0.1112    3.3791 H   0  0  0  0  0  0  0  0  0  0  0  0
   16.4413    1.8044    2.2358 H   0  0  0  0  0  0  0  0  0  0  0  0
   15.1001    2.5101    3.1932 H   0  0  0  0  0  0  0  0  0  0  0  0
   15.5547    0.7509    3.3444 H   0  0  0  0  0  0  0  0  0  0  0  0
   10.4282   -1.3633   -1.9244 H   0  0  0  0  0  0  0  0  0  0  0  0
   11.9697   -2.6642   -0.0604 H   0  0  0  0  0  0  0  0  0  0  0  0
   11.5317   -3.3006   -1.6529 H   0  0  0  0  0  0  0  0  0  0  0  0
   13.1112   -2.5516   -1.5050 H   0  0  0  0  0  0  0  0  0  0  0  0
   12.1060    0.5790   -2.7682 H   0  0  0  0  0  0  0  0  0  0  0  0
   11.6935   -0.8590   -3.7141 H   0  0  0  0  0  0  0  0  0  0  0  0
   13.2176   -0.8877   -2.8351 H   0  0  0  0  0  0  0  0  0  0  0  0
    7.3960   -3.8273    1.3462 H   0  0  0  0  0  0  0  0  0  0  0  0
    8.1570   -5.0025   -0.8220 H   0  0  0  0  0  0  0  0  0  0  0  0
    6.7885   -3.8943   -0.9323 H   0  0  0  0  0  0  0  0  0  0  0  0
    8.4265   -3.3320   -1.4574 H   0  0  0  0  0  0  0  0  0  0  0  0
    9.3021   -4.9520    1.7008 H   0  0  0  0  0  0  0  0  0  0  0  0
   10.0252   -3.3177    1.8149 H   0  0  0  0  0  0  0  0  0  0  0  0
   10.1657   -4.1944    0.2697 H   0  0  0  0  0  0  0  0  0  0  0  0
   -7.0964    3.6872    0.1900 H   0  0  0  0  0  0  0  0  0  0  0  0
   -5.4071    4.7479    1.2571 H   0  0  0  0  0  0  0  0  0  0  0  0
   -4.3270    3.3366    1.1949 H   0  0  0  0  0  0  0  0  0  0  0  0
   -4.4143    4.3908   -0.2435 H   0  0  0  0  0  0  0  0  0  0  0  0
   -6.1816    3.7695   -1.8562 H   0  0  0  0  0  0  0  0  0  0  0  0
  1  2  1  0
  2  3  1  0
  3  4  2  0
  3  5  1  0
  5  6  1  0
  6  7  1  0
  7  8  1  0
  8  9  1  0
  9 10  1  0
 10 11  2  0
 10 12  1  0
 12 13  1  0
 13 14  1  0
 14 15  2  0
 15 16  1  0
 16 17  2  0
 17 18  1  0
 18 19  2  0
 12 20  1  0
 20 21  1  0
 20 22  1  0
 22 23  2  0
 22 24  1  0
 24 25  1  0
 24 26  1  0
 26 27  1  0
 27 28  2  0
 27 29  1  0
 29 30  1  0
 30 31  1  0
 31 32  2  0
 31 33  1  0
 33 34  1  0
 34 35  1  0
 34 36  1  0
 36 37  1  0
 37 38  1  0
 38 39  1  0
 38 40  1  0
 36 41  1  0
 41 42  1  0
 42 43  2  0
 42 44  1  0
 44 45  1  0
 45 46  1  0
 46 47  1  0
 46 48  2  0
 44 49  1  0
 49 50  1  0
 50 51  2  0
 50 52  1  0
 52 53  1  0
 53 54  1  0
 54 55  1  0
 54 56  1  0
 52 57  1  0
 57 58  1  0
 58 59  2  0
 58 60  1  0
 60 61  1  0
 61 62  1  0
 62 63  2  0
 62 64  1  0
 64 65  1  0
 65 66  1  0
 66 67  2  0
 66 68  1  0
 68 69  1  0
 69 70  1  0
 69 71  1  0
 68 72  1  0
 72 73  1  0
 72 74  1  0
 64 75  1  0
 75 76  1  0
 75 77  1  0
 60 78  1  0
 78 79  1  0
 78 80  1  0
 29 81  1  0
 81 82  1  0
 81 83  1  0
  9  5  1  0
 19 14  1  0
  1 84  1  0
  1 85  1  0
  1 86  1  0
  5 87  1  6
  6 88  1  0
  6 89  1  0
  7 90  1  0
  7 91  1  0
  8 92  1  0
  8 93  1  0
 12 94  1  1
 13 95  1  0
 13 96  1  0
 15 97  1  0
 16 98  1  0
 17 99  1  0
 18100  1  0
 19101  1  0
 21102  1  0
 21103  1  0
 21104  1  0
 24105  1  1
 25106  1  0
 25107  1  0
 25108  1  0
 26109  1  0
 29110  1  1
 30111  1  0
 33112  1  0
 33113  1  0
 34114  1  1
 35115  1  0
 36116  1  6
 37117  1  0
 37118  1  0
 38119  1  0
 39120  1  0
 39121  1  0
 39122  1  0
 40123  1  0
 40124  1  0
 40125  1  0
 41126  1  0
 44127  1  1
 45128  1  0
 45129  1  0
 47130  1  0
 47131  1  0
 49132  1  0
 52133  1  6
 53134  1  0
 53135  1  0
 54136  1  0
 55137  1  0
 55138  1  0
 55139  1  0
 56140  1  0
 56141  1  0
 56142  1  0
 57143  1  0
 60144  1  1
 64145  1  6
 68146  1  1
 69147  1  0
 70148  1  0
 70149  1  0
 70150  1  0
 71151  1  0
 71152  1  0
 71153  1  0
 73154  1  0
 73155  1  0
 73156  1  0
 74157  1  0
 74158  1  0
 74159  1  0
 75160  1  0
 76161  1  0
 76162  1  0
 76163  1  0
 77164  1  0
 77165  1  0
 77166  1  0
 78167  1  0
 79168  1  0
 79169  1  0
 79170  1  0
 80171  1  0
 80172  1  0
 80173  1  0
 81174  1  6
 82175  1  0
 82176  1  0
 82177  1  0
 83178  1  0
M  END
$$$$
