
     RDKit          3D

 47 50  0  0  0  0  0  0  0  0999 V2000
    6.7161    1.7103   -2.9267 Br  0  0  0  0  0  0  0  0  0  0  0  0
    6.1183    1.1210   -1.2056 C   0  0  0  0  0  0  0  0  0  0  0  0
    6.8695    1.4571   -0.0782 C   0  0  0  0  0  0  0  0  0  0  0  0
    6.4565    1.0426    1.1705 C   0  0  0  0  0  0  0  0  0  0  0  0
    5.3014    0.2916    1.3421 C   0  0  0  0  0  0  0  0  0  0  0  0
    4.8831   -0.1359    2.6706 C   0  0  0  0  0  0  0  0  0  0  0  0
    5.6144    0.2057    3.6508 O   0  0  0  0  0  0  0  0  0  0  0  0
    3.7164   -0.9021    2.9064 N   0  0  0  0  0  0  0  0  0  0  0  0
    2.9745   -1.2260    1.7286 C   0  0  0  0  0  0  0  0  0  0  0  0
    1.9140   -1.9169    1.8981 O   0  0  0  0  0  0  0  0  0  0  0  0
    3.3811   -0.8052    0.3949 C   0  0  0  0  0  0  0  0  0  0  0  0
    2.6413   -1.1455   -0.6399 C   0  0  0  0  0  0  0  0  0  0  0  0
    1.4465   -1.9122   -0.5440 N   0  0  0  0  0  0  0  0  0  0  0  0
    0.1748   -1.3173   -0.7618 C   0  0  0  0  0  0  0  0  0  0  0  0
    0.1001    0.0204   -1.0697 C   0  0  0  0  0  0  0  0  0  0  0  0
   -1.1591    0.5460   -1.2710 C   0  0  0  0  0  0  0  0  0  0  0  0
   -2.3571   -0.1746   -1.1858 C   0  0  0  0  0  0  0  0  0  0  0  0
   -3.6074    0.5407   -1.4352 C   0  0  0  0  0  0  0  0  0  0  0  0
   -4.2116    1.1717   -0.3077 N   0  0  0  0  0  0  0  0  0  0  0  0
   -4.5786    0.3209    0.7753 C   0  0  0  0  0  0  0  0  0  0  0  0
   -6.1141    0.2541    0.7599 C   0  0  0  0  0  0  0  0  0  0  0  0
   -6.3861    1.7219    0.4019 C   0  0  0  0  0  0  0  0  0  0  0  0
   -5.3751    1.9161   -0.7076 C   0  0  0  0  0  0  0  0  0  0  0  0
   -2.1885   -1.5004   -0.8746 C   0  0  0  0  0  0  0  0  0  0  0  0
   -0.9535   -2.0819   -0.6622 C   0  0  0  0  0  0  0  0  0  0  0  0
    4.5814   -0.0240    0.2093 C   0  0  0  0  0  0  0  0  0  0  0  0
    4.9675    0.3747   -1.0495 C   0  0  0  0  0  0  0  0  0  0  0  0
    7.7680    2.0424   -0.2221 H   0  0  0  0  0  0  0  0  0  0  0  0
    7.0562    1.3184    2.0096 H   0  0  0  0  0  0  0  0  0  0  0  0
    3.3992   -1.2173    3.8410 H   0  0  0  0  0  0  0  0  0  0  0  0
    2.8361   -0.8960   -1.6680 H   0  0  0  0  0  0  0  0  0  0  0  0
    1.5310   -2.9309   -0.3076 H   0  0  0  0  0  0  0  0  0  0  0  0
    0.9720    0.6453   -1.1544 H   0  0  0  0  0  0  0  0  0  0  0  0
   -1.1936    1.6171   -1.5159 H   0  0  0  0  0  0  0  0  0  0  0  0
   -3.3932    1.3581   -2.1824 H   0  0  0  0  0  0  0  0  0  0  0  0
   -4.3637   -0.1000   -1.9695 H   0  0  0  0  0  0  0  0  0  0  0  0
   -4.1520   -0.6844    0.7804 H   0  0  0  0  0  0  0  0  0  0  0  0
   -4.3601    0.8568    1.7477 H   0  0  0  0  0  0  0  0  0  0  0  0
   -6.5093    0.0201    1.7605 H   0  0  0  0  0  0  0  0  0  0  0  0
   -6.4778   -0.4238   -0.0211 H   0  0  0  0  0  0  0  0  0  0  0  0
   -7.4334    1.8690    0.0805 H   0  0  0  0  0  0  0  0  0  0  0  0
   -6.0908    2.3268    1.2662 H   0  0  0  0  0  0  0  0  0  0  0  0
   -5.1906    3.0012   -0.7962 H   0  0  0  0  0  0  0  0  0  0  0  0
   -5.8187    1.5327   -1.6620 H   0  0  0  0  0  0  0  0  0  0  0  0
   -3.0776   -2.0970   -0.8015 H   0  0  0  0  0  0  0  0  0  0  0  0
   -0.8844   -3.1315   -0.4199 H   0  0  0  0  0  0  0  0  0  0  0  0
    4.4568    0.1632   -1.9542 H   0  0  0  0  0  0  0  0  0  0  0  0
  1  2  1  0
  2  3  2  0
  3  4  1  0
  4  5  2  0
  5  6  1  0
  6  7  2  0
  6  8  1  0
  8  9  1  0
  9 10  2  0
  9 11  1  0
 11 12  2  0
 12 13  1  0
 13 14  1  0
 14 15  2  0
 15 16  1  0
 16 17  2  0
 17 18  1  0
 18 19  1  0
 19 20  1  0
 20 21  1  0
 21 22  1  0
 22 23  1  0
 17 24  1  0
 24 25  2  0
 11 26  1  0
 26 27  2  0
 27  2  1  0
 26  5  1  0
 25 14  1  0
 23 19  1  0
  3 28  1  0
  4 29  1  0
  8 30  1  0
 12 31  1  0
 13 32  1  0
 15 33  1  0
 16 34  1  0
 18 35  1  0
 18 36  1  0
 20 37  1  0
 20 38  1  0
 21 39  1  0
 21 40  1  0
 22 41  1  0
 22 42  1  0
 23 43  1  0
 23 44  1  0
 24 45  1  0
 25 46  1  0
 27 47  1  0
M  END
$$$$
