
     RDKit          3D

 59 61  0  0  0  0  0  0  0  0999 V2000
   -7.5987    2.1114    1.1098 C   0  0  0  0  0  0  0  0  0  0  0  0
   -7.3020    0.8866    0.7116 C   0  0  0  0  0  0  0  0  0  0  0  0
   -6.6575   -0.0656    1.6606 C   0  0  0  0  0  0  0  0  0  0  0  0
   -5.3899   -0.4439    1.0843 N   0  0  0  0  0  0  0  0  0  0  0  0
   -5.1970   -1.4973    0.2525 C   0  0  0  0  0  0  0  0  0  0  0  0
   -3.8734   -1.5645   -0.1048 C   0  0  0  0  0  0  0  0  0  0  0  0
   -3.2959   -2.4907   -0.9311 O   0  0  0  0  0  0  0  0  0  0  0  0
   -3.2549   -0.5523    0.5080 N   0  0  0  0  0  0  0  0  0  0  0  0
   -1.8800   -0.1293    0.5040 C   0  0  1  0  0  0  0  0  0  0  0  0
   -0.9977   -0.8350   -0.4422 C   0  0  0  0  0  0  0  0  0  0  0  0
   -1.1474    0.0071   -1.7085 C   0  0  2  0  0  0  0  0  0  0  0  0
   -0.3732   -0.4256   -2.8240 C   0  0  0  0  0  0  0  0  0  0  0  0
    0.3376    0.3037   -3.5264 O   0  0  0  0  0  0  0  0  0  0  0  0
   -0.3962   -1.8211   -3.1929 N   0  0  0  0  0  0  0  0  0  0  0  0
    0.3238   -2.2730   -4.2445 O   0  0  0  0  0  0  0  0  0  0  0  0
   -1.1067    1.3118   -1.2107 N   0  0  0  0  0  0  0  0  0  0  0  0
    0.2929    2.2059   -1.1473 S   0  0  0  0  0  6  0  0  0  0  0  0
   -0.0705    3.5656   -0.5101 O   0  0  0  0  0  0  0  0  0  0  0  0
    0.7958    2.5675   -2.5067 O   0  0  0  0  0  0  0  0  0  0  0  0
    1.5712    1.5773   -0.1759 C   0  0  0  0  0  0  0  0  0  0  0  0
    2.5054    0.7590   -0.7698 C   0  0  0  0  0  0  0  0  0  0  0  0
    3.5648    0.2104   -0.0583 C   0  0  0  0  0  0  0  0  0  0  0  0
    3.7335    0.4558    1.2658 C   0  0  0  0  0  0  0  0  0  0  0  0
    4.7600   -0.0561    2.0122 O   0  0  0  0  0  0  0  0  0  0  0  0
    5.8251   -0.8530    1.7236 C   0  0  0  0  0  0  0  0  0  0  0  0
    6.8568   -0.3448    0.7716 C   0  0  0  0  0  0  0  0  0  0  0  0
    7.8392   -1.3337    0.6371 O   0  0  0  0  0  0  0  0  0  0  0  0
    8.8435   -0.9338   -0.2397 C   0  0  0  0  0  0  0  0  0  0  0  0
    2.7792    1.2909    1.8708 C   0  0  0  0  0  0  0  0  0  0  0  0
    1.7384    1.8255    1.1578 C   0  0  0  0  0  0  0  0  0  0  0  0
   -1.8594    1.3064    0.0439 C   0  0  0  0  0  0  0  0  0  0  0  0
   -4.1867    0.1329    1.2362 C   0  0  0  0  0  0  0  0  0  0  0  0
   -4.0130    1.1505    1.9564 O   0  0  0  0  0  0  0  0  0  0  0  0
   -7.3710    2.4238    2.1338 H   0  0  0  0  0  0  0  0  0  0  0  0
   -8.0668    2.7843    0.4004 H   0  0  0  0  0  0  0  0  0  0  0  0
   -7.5196    0.5646   -0.2916 H   0  0  0  0  0  0  0  0  0  0  0  0
   -6.5080    0.4268    2.6522 H   0  0  0  0  0  0  0  0  0  0  0  0
   -7.2740   -0.9806    1.7640 H   0  0  0  0  0  0  0  0  0  0  0  0
   -5.9851   -2.1765   -0.0722 H   0  0  0  0  0  0  0  0  0  0  0  0
   -3.6755   -3.4086   -1.1383 H   0  0  0  0  0  0  0  0  0  0  0  0
   -1.5158   -0.1751    1.5681 H   0  0  0  0  0  0  0  0  0  0  0  0
   -1.1031   -1.8947   -0.5840 H   0  0  0  0  0  0  0  0  0  0  0  0
    0.0633   -0.6605   -0.1160 H   0  0  0  0  0  0  0  0  0  0  0  0
   -2.2491   -0.1861   -1.9912 H   0  0  0  0  0  0  0  0  0  0  0  0
   -0.9699   -2.5044   -2.6530 H   0  0  0  0  0  0  0  0  0  0  0  0
   -0.2645   -2.9254   -4.7342 H   0  0  0  0  0  0  0  0  0  0  0  0
    2.4576    0.5056   -1.8257 H   0  0  0  0  0  0  0  0  0  0  0  0
    4.2415   -0.4374   -0.6115 H   0  0  0  0  0  0  0  0  0  0  0  0
    6.3169   -1.1281    2.7117 H   0  0  0  0  0  0  0  0  0  0  0  0
    5.4361   -1.8457    1.3651 H   0  0  0  0  0  0  0  0  0  0  0  0
    6.4483   -0.0731   -0.2013 H   0  0  0  0  0  0  0  0  0  0  0  0
    7.3706    0.5698    1.1666 H   0  0  0  0  0  0  0  0  0  0  0  0
    9.5839   -1.7410   -0.3090 H   0  0  0  0  0  0  0  0  0  0  0  0
    8.3985   -0.7748   -1.2343 H   0  0  0  0  0  0  0  0  0  0  0  0
    9.3737   -0.0178    0.1455 H   0  0  0  0  0  0  0  0  0  0  0  0
    2.9218    1.4793    2.9229 H   0  0  0  0  0  0  0  0  0  0  0  0
    1.0116    2.4709    1.6528 H   0  0  0  0  0  0  0  0  0  0  0  0
   -2.8732    1.6716   -0.2130 H   0  0  0  0  0  0  0  0  0  0  0  0
   -1.4155    1.9845    0.7982 H   0  0  0  0  0  0  0  0  0  0  0  0
  1  2  2  3
  2  3  1  0
  3  4  1  0
  4  5  1  0
  5  6  2  0
  6  7  1  0
  6  8  1  0
  8  9  1  0
  9 10  1  0
 10 11  1  0
 11 12  1  0
 12 13  2  0
 12 14  1  0
 14 15  1  0
 11 16  1  0
 16 17  1  0
 17 18  2  0
 17 19  2  0
 17 20  1  0
 20 21  2  0
 21 22  1  0
 22 23  2  0
 23 24  1  0
 24 25  1  0
 25 26  1  0
 26 27  1  0
 27 28  1  0
 23 29  1  0
 29 30  2  0
 16 31  1  0
  8 32  1  0
 32 33  2  0
 32  4  1  0
 31  9  1  0
 30 20  1  0
  1 34  1  0
  1 35  1  0
  2 36  1  0
  3 37  1  0
  3 38  1  0
  5 39  1  0
  7 40  1  0
  9 41  1  1
 10 42  1  0
 10 43  1  0
 11 44  1  6
 14 45  1  0
 15 46  1  0
 21 47  1  0
 22 48  1  0
 25 49  1  0
 25 50  1  0
 26 51  1  0
 26 52  1  0
 28 53  1  0
 28 54  1  0
 28 55  1  0
 29 56  1  0
 30 57  1  0
 31 58  1  0
 31 59  1  0
M  END
$$$$
