
     RDKit          3D

160163  0  0  0  0  0  0  0  0999 V2000
   11.2401    0.4330   -2.2547 O   0  0  0  0  0  0  0  0  0  0  0  0
   11.2109    1.2762   -1.1531 C   0  0  0  0  0  0  0  0  0  0  0  0
   11.3123    0.4737    0.1316 C   0  0  0  0  0  0  0  0  0  0  0  0
   12.6032   -0.2937    0.1316 C   0  0  0  0  0  0  0  0  0  0  0  0
   11.2779    1.4231    1.3166 C   0  0  0  0  0  0  0  0  0  0  0  0
   12.3223    2.3232    1.2762 O   0  0  0  0  0  0  0  0  0  0  0  0
   10.1126   -0.4112    0.1656 C   0  0  0  0  0  0  0  0  0  0  0  0
   10.2595   -1.6711    0.2132 O   0  0  0  0  0  0  0  0  0  0  0  0
    8.9590    0.3449    0.1376 O   0  0  0  0  0  0  0  0  0  0  0  0
    7.6616   -0.2605    0.1617 C   0  0  2  0  0  0  0  0  0  0  0  0
    6.9556    0.0923   -1.1030 C   0  0  0  0  0  0  0  0  0  0  0  0
    5.4739   -0.3108   -1.0584 C   0  0  0  0  0  0  0  0  0  0  0  0
    4.7738    0.2622    0.1049 C   0  0  1  0  0  0  0  0  0  0  0  0
    3.3830   -0.2358    0.2694 C   0  0  0  0  0  0  0  0  0  0  0  0
    2.3582   -0.0388   -0.7395 C   0  0  1  0  0  0  0  0  0  0  0  0
    2.6338   -0.6898   -2.0708 C   0  0  0  0  0  0  0  0  0  0  0  0
    0.9570   -0.4419   -0.2943 C   0  0  2  0  0  0  0  0  0  0  0  0
    0.4586    0.2943    0.8967 C   0  0  0  0  0  0  0  0  0  0  0  0
    0.3243    1.7588    0.7773 C   0  0  0  0  0  0  0  0  0  0  0  0
   -0.2933    2.1017    1.8135 O   0  0  0  0  0  0  0  0  0  0  0  0
    0.5566    2.9923    0.0468 C   0  0  2  0  0  0  0  0  0  0  0  0
    1.9115    3.6210    0.1536 C   0  0  0  0  0  0  0  0  0  0  0  0
   -0.5318    3.9673    0.2419 C   0  0  0  0  0  0  0  0  0  0  0  0
   -0.7791    5.2766    0.4742 C   0  0  0  0  0  0  0  0  0  0  0  0
    0.3019    6.3100    0.6253 C   0  0  0  0  0  0  0  0  0  0  0  0
   -2.2267    5.7471    0.5583 C   0  0  1  0  0  0  0  0  0  0  0  0
   -2.3310    6.4493    1.7633 O   0  0  0  0  0  0  0  0  0  0  0  0
   -2.5635    6.5865   -0.6379 C   0  0  1  0  0  0  0  0  0  0  0  0
   -2.4797    5.8320   -1.8164 O   0  0  0  0  0  0  0  0  0  0  0  0
   -1.4999    6.3574   -2.6340 C   0  0  0  0  0  0  0  0  0  0  0  0
   -3.8589    7.2999   -0.4835 C   0  0  0  0  0  0  0  0  0  0  0  0
   -3.7924    7.9992    0.5060 O   0  0  0  0  0  0  0  0  0  0  0  0
   -4.7886    6.9212   -1.5898 C   0  0  2  0  0  0  0  0  0  0  0  0
   -5.9124    7.9450   -1.5425 C   0  0  0  0  0  0  0  0  0  0  0  0
   -5.3351    5.5358   -1.3646 C   0  0  0  0  0  0  0  0  0  0  0  0
   -6.3558    5.3871   -0.3136 C   0  0  2  0  0  0  0  0  0  0  0  0
   -5.9958    5.9102    1.0370 C   0  0  0  0  0  0  0  0  0  0  0  0
   -6.6891    3.9181   -0.1275 C   0  0  0  0  0  0  0  0  0  0  0  0
   -7.6219    3.0023   -0.2851 C   0  0  0  0  0  0  0  0  0  0  0  0
   -7.5182    1.5916    0.0593 C   0  0  0  0  0  0  0  0  0  0  0  0
   -6.5217    0.9523    0.5896 C   0  0  0  0  0  0  0  0  0  0  0  0
   -6.2995   -0.4290    0.9728 C   0  0  0  0  0  0  0  0  0  0  0  0
   -7.0148   -1.5386    0.9186 C   0  0  0  0  0  0  0  0  0  0  0  0
   -8.3901   -1.5395    0.3611 C   0  0  0  0  0  0  0  0  0  0  0  0
   -6.4409   -2.8930    1.4221 C   0  0  1  0  0  0  0  0  0  0  0  0
   -7.3085   -3.2451    2.4229 O   0  0  0  0  0  0  0  0  0  0  0  0
   -6.7442   -3.0349    3.6662 C   0  0  0  0  0  0  0  0  0  0  0  0
   -6.3864   -3.7600    0.2270 C   0  0  0  0  0  0  0  0  0  0  0  0
   -5.7704   -5.1016    0.3223 C   0  0  2  0  0  0  0  0  0  0  0  0
   -5.4723   -5.5749    1.7210 C   0  0  0  0  0  0  0  0  0  0  0  0
   -4.7695   -6.9026    1.7316 C   0  0  0  0  0  0  0  0  0  0  0  0
   -4.0075   -7.2460    0.5083 C   0  0  1  0  0  0  0  0  0  0  0  0
   -4.2495   -8.7178    0.1199 C   0  0  0  0  0  0  0  0  0  0  0  0
   -4.2002   -6.3813   -0.6913 C   0  0  1  0  0  0  0  0  0  0  0  0
   -5.2091   -6.9606   -1.4682 O   0  0  0  0  0  0  0  0  0  0  0  0
   -4.5749   -5.0953   -0.4369 O   0  0  0  0  0  0  0  0  0  0  0  0
   -2.9804   -6.4334   -1.5630 C   0  0  0  0  0  0  0  0  0  0  0  0
   -2.8233   -7.1246   -2.6012 O   0  0  0  0  0  0  0  0  0  0  0  0
   -2.0368   -5.5145   -0.9433 C   0  0  0  0  0  0  0  0  0  0  0  0
   -2.0448   -4.8096    0.0792 O   0  0  0  0  0  0  0  0  0  0  0  0
   -0.7265   -4.9827   -1.1644 N   0  0  0  0  0  0  0  0  0  0  0  0
   -0.4409   -5.6225   -2.4190 C   0  0  0  0  0  0  0  0  0  0  0  0
    0.9638   -5.3261   -2.9266 C   0  0  0  0  0  0  0  0  0  0  0  0
    1.8693   -5.6063   -1.7415 C   0  0  0  0  0  0  0  0  0  0  0  0
    1.6492   -4.5121   -0.7279 C   0  0  0  0  0  0  0  0  0  0  0  0
    0.2539   -4.0695   -0.5415 C   0  0  1  0  0  0  0  0  0  0  0  0
    0.0744   -2.6677   -1.0116 C   0  0  0  0  0  0  0  0  0  0  0  0
   -0.6910   -2.5035   -1.9966 O   0  0  0  0  0  0  0  0  0  0  0  0
    0.8078   -1.8303   -0.2423 O   0  0  0  0  0  0  0  0  0  0  0  0
    5.5005   -0.0434    1.4177 C   0  0  0  0  0  0  0  0  0  0  0  0
    6.9586    0.2205    1.3921 C   0  0  1  0  0  0  0  0  0  0  0  0
    7.5234   -0.5122    2.4620 O   0  0  0  0  0  0  0  0  0  0  0  0
    8.1545    0.2787    3.3901 C   0  0  0  0  0  0  0  0  0  0  0  0
   11.0116   -0.4803   -1.9439 H   0  0  0  0  0  0  0  0  0  0  0  0
   10.2102    1.7957   -1.1592 H   0  0  0  0  0  0  0  0  0  0  0  0
   11.9559    2.0878   -1.2096 H   0  0  0  0  0  0  0  0  0  0  0  0
   13.3977    0.3199   -0.3769 H   0  0  0  0  0  0  0  0  0  0  0  0
   12.5506   -1.2429   -0.4374 H   0  0  0  0  0  0  0  0  0  0  0  0
   12.9008   -0.5495    1.1646 H   0  0  0  0  0  0  0  0  0  0  0  0
   11.3321    0.8451    2.2634 H   0  0  0  0  0  0  0  0  0  0  0  0
   10.3203    1.9863    1.2403 H   0  0  0  0  0  0  0  0  0  0  0  0
   12.4925    2.6970    2.1863 H   0  0  0  0  0  0  0  0  0  0  0  0
    7.8668   -1.3559    0.2107 H   0  0  0  0  0  0  0  0  0  0  0  0
    6.9338    1.1905   -1.2464 H   0  0  0  0  0  0  0  0  0  0  0  0
    7.4683   -0.3551   -1.9525 H   0  0  0  0  0  0  0  0  0  0  0  0
    5.0881    0.0516   -2.0263 H   0  0  0  0  0  0  0  0  0  0  0  0
    5.4939   -1.4087   -1.0394 H   0  0  0  0  0  0  0  0  0  0  0  0
    4.8003    1.3883   -0.0046 H   0  0  0  0  0  0  0  0  0  0  0  0
    3.0730    0.0783    1.3099 H   0  0  0  0  0  0  0  0  0  0  0  0
    3.5177   -1.3683    0.4470 H   0  0  0  0  0  0  0  0  0  0  0  0
    2.3056    1.0569   -0.9803 H   0  0  0  0  0  0  0  0  0  0  0  0
    3.3540   -1.5090   -1.9397 H   0  0  0  0  0  0  0  0  0  0  0  0
    2.9740   -0.0104   -2.8592 H   0  0  0  0  0  0  0  0  0  0  0  0
    1.6976   -1.2274   -2.4363 H   0  0  0  0  0  0  0  0  0  0  0  0
    0.3127   -0.1169   -1.1458 H   0  0  0  0  0  0  0  0  0  0  0  0
   -0.5734   -0.0846    1.1947 H   0  0  0  0  0  0  0  0  0  0  0  0
    1.0893   -0.0091    1.7614 H   0  0  0  0  0  0  0  0  0  0  0  0
    0.4257    2.6809   -1.0676 H   0  0  0  0  0  0  0  0  0  0  0  0
    2.7523    2.9406    0.3143 H   0  0  0  0  0  0  0  0  0  0  0  0
    2.0990    4.2052   -0.7678 H   0  0  0  0  0  0  0  0  0  0  0  0
    1.8730    4.3827    0.9905 H   0  0  0  0  0  0  0  0  0  0  0  0
   -1.4665    3.3709    0.1574 H   0  0  0  0  0  0  0  0  0  0  0  0
    1.0541    6.2733   -0.1729 H   0  0  0  0  0  0  0  0  0  0  0  0
   -0.1928    7.3130    0.4979 H   0  0  0  0  0  0  0  0  0  0  0  0
    0.7187    6.3390    1.6553 H   0  0  0  0  0  0  0  0  0  0  0  0
   -2.8905    4.8697    0.6299 H   0  0  0  0  0  0  0  0  0  0  0  0
   -1.8744    7.3155    1.6365 H   0  0  0  0  0  0  0  0  0  0  0  0
   -1.7847    7.3913   -0.7226 H   0  0  0  0  0  0  0  0  0  0  0  0
   -0.5365    6.3345   -2.1305 H   0  0  0  0  0  0  0  0  0  0  0  0
   -1.4703    5.8378   -3.6147 H   0  0  0  0  0  0  0  0  0  0  0  0
   -1.7415    7.4249   -2.8740 H   0  0  0  0  0  0  0  0  0  0  0  0
   -4.3014    6.9779   -2.5609 H   0  0  0  0  0  0  0  0  0  0  0  0
   -6.9147    7.4949   -1.6581 H   0  0  0  0  0  0  0  0  0  0  0  0
   -5.7862    8.6075   -2.4226 H   0  0  0  0  0  0  0  0  0  0  0  0
   -5.8332    8.6007   -0.6629 H   0  0  0  0  0  0  0  0  0  0  0  0
   -4.4959    4.8263   -1.1355 H   0  0  0  0  0  0  0  0  0  0  0  0
   -5.7584    5.1272   -2.3285 H   0  0  0  0  0  0  0  0  0  0  0  0
   -7.3500    5.8288   -0.5890 H   0  0  0  0  0  0  0  0  0  0  0  0
   -6.2288    7.0108    1.1314 H   0  0  0  0  0  0  0  0  0  0  0  0
   -6.6537    5.4370    1.8392 H   0  0  0  0  0  0  0  0  0  0  0  0
   -4.9792    5.7155    1.3808 H   0  0  0  0  0  0  0  0  0  0  0  0
   -5.7417    3.5398    0.2925 H   0  0  0  0  0  0  0  0  0  0  0  0
   -8.5136    3.4195   -0.7150 H   0  0  0  0  0  0  0  0  0  0  0  0
   -8.4301    1.0754   -0.1909 H   0  0  0  0  0  0  0  0  0  0  0  0
   -5.6831    1.6235    0.7774 H   0  0  0  0  0  0  0  0  0  0  0  0
   -5.3095   -0.6219    1.4157 H   0  0  0  0  0  0  0  0  0  0  0  0
   -8.4317   -1.2644   -0.6917 H   0  0  0  0  0  0  0  0  0  0  0  0
   -8.8646   -2.5456    0.4395 H   0  0  0  0  0  0  0  0  0  0  0  0
   -9.0110   -0.8929    1.0227 H   0  0  0  0  0  0  0  0  0  0  0  0
   -5.4412   -2.6014    1.7667 H   0  0  0  0  0  0  0  0  0  0  0  0
   -7.4275   -3.3127    4.4989 H   0  0  0  0  0  0  0  0  0  0  0  0
   -5.8571   -3.6670    3.7859 H   0  0  0  0  0  0  0  0  0  0  0  0
   -6.3720   -1.9846    3.7853 H   0  0  0  0  0  0  0  0  0  0  0  0
   -5.9320   -3.2225   -0.6532 H   0  0  0  0  0  0  0  0  0  0  0  0
   -7.4627   -3.9063   -0.1111 H   0  0  0  0  0  0  0  0  0  0  0  0
   -6.4425   -5.8476   -0.1520 H   0  0  0  0  0  0  0  0  0  0  0  0
   -4.7048   -4.8430    2.1126 H   0  0  0  0  0  0  0  0  0  0  0  0
   -6.3770   -5.6135    2.3407 H   0  0  0  0  0  0  0  0  0  0  0  0
   -4.1387   -6.9773    2.6686 H   0  0  0  0  0  0  0  0  0  0  0  0
   -5.5467   -7.7048    1.8975 H   0  0  0  0  0  0  0  0  0  0  0  0
   -2.9173   -7.2398    0.8012 H   0  0  0  0  0  0  0  0  0  0  0  0
   -3.5757   -9.4042    0.6663 H   0  0  0  0  0  0  0  0  0  0  0  0
   -5.2897   -9.0280    0.4159 H   0  0  0  0  0  0  0  0  0  0  0  0
   -4.0579   -8.8915   -0.9594 H   0  0  0  0  0  0  0  0  0  0  0  0
   -5.7709   -7.6046   -0.9777 H   0  0  0  0  0  0  0  0  0  0  0  0
   -0.4319   -6.7391   -2.2535 H   0  0  0  0  0  0  0  0  0  0  0  0
   -1.1852   -5.4384   -3.2212 H   0  0  0  0  0  0  0  0  0  0  0  0
    1.0856   -4.3363   -3.3564 H   0  0  0  0  0  0  0  0  0  0  0  0
    1.1664   -6.0877   -3.6815 H   0  0  0  0  0  0  0  0  0  0  0  0
    1.6323   -6.5809   -1.3208 H   0  0  0  0  0  0  0  0  0  0  0  0
    2.9129   -5.4994   -2.1123 H   0  0  0  0  0  0  0  0  0  0  0  0
    2.0579   -4.8915    0.2286 H   0  0  0  0  0  0  0  0  0  0  0  0
    2.3069   -3.6407   -0.9873 H   0  0  0  0  0  0  0  0  0  0  0  0
   -0.0058   -4.1141    0.5412 H   0  0  0  0  0  0  0  0  0  0  0  0
    5.2937   -1.0780    1.7682 H   0  0  0  0  0  0  0  0  0  0  0  0
    5.0563    0.6390    2.1874 H   0  0  0  0  0  0  0  0  0  0  0  0
    7.2145    1.2831    1.6300 H   0  0  0  0  0  0  0  0  0  0  0  0
    7.3852    0.9905    3.8073 H   0  0  0  0  0  0  0  0  0  0  0  0
    9.0750    0.7672    3.0760 H   0  0  0  0  0  0  0  0  0  0  0  0
    8.3715   -0.3964    4.2688 H   0  0  0  0  0  0  0  0  0  0  0  0
  1  2  1  0
  2  3  1  0
  3  4  1  0
  3  5  1  0
  5  6  1  0
  3  7  1  0
  7  8  2  0
  7  9  1  0
  9 10  1  0
 10 11  1  0
 11 12  1  0
 12 13  1  0
 13 14  1  0
 14 15  1  0
 15 16  1  0
 15 17  1  0
 17 18  1  0
 18 19  1  0
 19 20  2  0
 19 21  1  0
 21 22  1  0
 21 23  1  0
 23 24  2  0
 24 25  1  0
 24 26  1  0
 26 27  1  0
 26 28  1  0
 28 29  1  0
 29 30  1  0
 28 31  1  0
 31 32  2  0
 31 33  1  0
 33 34  1  0
 33 35  1  0
 35 36  1  0
 36 37  1  0
 36 38  1  0
 38 39  2  0
 39 40  1  0
 40 41  2  0
 41 42  1  0
 42 43  2  0
 43 44  1  0
 43 45  1  0
 45 46  1  0
 46 47  1  0
 45 48  1  0
 48 49  1  0
 49 50  1  0
 50 51  1  0
 51 52  1  0
 52 53  1  0
 52 54  1  0
 54 55  1  6
 54 56  1  0
 54 57  1  0
 57 58  2  0
 57 59  1  0
 59 60  2  0
 59 61  1  0
 61 62  1  0
 62 63  1  0
 63 64  1  0
 64 65  1  0
 65 66  1  0
 66 67  1  0
 67 68  2  0
 67 69  1  0
 13 70  1  0
 70 71  1  0
 71 72  1  0
 72 73  1  0
 71 10  1  0
 69 17  1  0
 56 49  1  0
 66 61  1  0
  1 74  1  0
  2 75  1  0
  2 76  1  0
  4 77  1  0
  4 78  1  0
  4 79  1  0
  5 80  1  0
  5 81  1  0
  6 82  1  0
 10 83  1  1
 11 84  1  0
 11 85  1  0
 12 86  1  0
 12 87  1  0
 13 88  1  6
 14 89  1  0
 14 90  1  0
 15 91  1  6
 16 92  1  0
 16 93  1  0
 16 94  1  0
 17 95  1  6
 18 96  1  0
 18 97  1  0
 21 98  1  6
 22 99  1  0
 22100  1  0
 22101  1  0
 23102  1  0
 25103  1  0
 25104  1  0
 25105  1  0
 26106  1  1
 27107  1  0
 28108  1  6
 30109  1  0
 30110  1  0
 30111  1  0
 33112  1  6
 34113  1  0
 34114  1  0
 34115  1  0
 35116  1  0
 35117  1  0
 36118  1  6
 37119  1  0
 37120  1  0
 37121  1  0
 38122  1  0
 39123  1  0
 40124  1  0
 41125  1  0
 42126  1  0
 44127  1  0
 44128  1  0
 44129  1  0
 45130  1  1
 47131  1  0
 47132  1  0
 47133  1  0
 48134  1  0
 48135  1  0
 49136  1  6
 50137  1  0
 50138  1  0
 51139  1  0
 51140  1  0
 52141  1  1
 53142  1  0
 53143  1  0
 53144  1  0
 55145  1  0
 62146  1  0
 62147  1  0
 63148  1  0
 63149  1  0
 64150  1  0
 64151  1  0
 65152  1  0
 65153  1  0
 66154  1  1
 70155  1  0
 70156  1  0
 71157  1  1
 73158  1  0
 73159  1  0
 73160  1  0
M  END
$$$$
