
     RDKit          3D

 34 37  0  0  0  0  0  0  0  0999 V2000
    5.0974    0.5548    0.2861 C   0  0  0  0  0  0  0  0  0  0  0  0
    3.9104    1.2908    0.2757 O   0  0  0  0  0  0  0  0  0  0  0  0
    2.6417    0.7331    0.2186 C   0  0  0  0  0  0  0  0  0  0  0  0
    2.4380   -0.6476    0.1653 C   0  0  0  0  0  0  0  0  0  0  0  0
    1.1724   -1.1987    0.1085 C   0  0  0  0  0  0  0  0  0  0  0  0
    0.0897   -0.3469    0.1052 C   0  0  0  0  0  0  0  0  0  0  0  0
    0.2841    1.0366    0.1584 C   0  0  0  0  0  0  0  0  0  0  0  0
    1.5525    1.5749    0.2148 C   0  0  0  0  0  0  0  0  0  0  0  0
    1.7406    2.9426    0.2672 O   0  0  0  0  0  0  0  0  0  0  0  0
   -0.9060    1.8868    0.1518 C   0  0  0  0  0  0  0  0  0  0  0  0
   -0.7688    3.1373    0.1987 O   0  0  0  0  0  0  0  0  0  0  0  0
   -2.2508    1.3442    0.0930 C   0  0  0  0  0  0  0  0  0  0  0  0
   -3.3673    2.1810    0.0881 C   0  0  0  0  0  0  0  0  0  0  0  0
   -4.6308    1.6295    0.0314 C   0  0  0  0  0  0  0  0  0  0  0  0
   -4.7738    0.2582   -0.0198 C   0  0  0  0  0  0  0  0  0  0  0  0
   -3.6500   -0.5631   -0.0142 C   0  0  0  0  0  0  0  0  0  0  0  0
   -2.3831   -0.0275    0.0421 C   0  0  0  0  0  0  0  0  0  0  0  0
   -1.2368   -0.9392    0.0452 C   0  0  0  0  0  0  0  0  0  0  0  0
   -1.3686   -2.2129   -0.0023 N   0  0  0  0  0  0  0  0  0  0  0  0
   -0.3256   -3.1773   -0.0040 C   0  0  0  0  0  0  0  0  0  0  0  0
    1.0653   -2.6608    0.0553 C   0  0  0  0  0  0  0  0  0  0  0  0
    5.4035    0.3053    1.3343 H   0  0  0  0  0  0  0  0  0  0  0  0
    5.9215    1.1916   -0.1384 H   0  0  0  0  0  0  0  0  0  0  0  0
    5.0858   -0.3620   -0.3053 H   0  0  0  0  0  0  0  0  0  0  0  0
    3.3204   -1.2667    0.1705 H   0  0  0  0  0  0  0  0  0  0  0  0
    1.9565    3.4162    1.1460 H   0  0  0  0  0  0  0  0  0  0  0  0
   -3.2303    3.2511    0.1289 H   0  0  0  0  0  0  0  0  0  0  0  0
   -5.5158    2.2848    0.0273 H   0  0  0  0  0  0  0  0  0  0  0  0
   -5.7693   -0.1698   -0.0642 H   0  0  0  0  0  0  0  0  0  0  0  0
   -3.7523   -1.6392   -0.0541 H   0  0  0  0  0  0  0  0  0  0  0  0
   -0.4716   -3.8152   -0.9260 H   0  0  0  0  0  0  0  0  0  0  0  0
   -0.5143   -3.8811    0.8607 H   0  0  0  0  0  0  0  0  0  0  0  0
    1.5825   -3.0592    0.9703 H   0  0  0  0  0  0  0  0  0  0  0  0
    1.6526   -3.0514   -0.8261 H   0  0  0  0  0  0  0  0  0  0  0  0
  1  2  1  0
  2  3  1  0
  3  4  2  0
  4  5  1  0
  5  6  2  0
  6  7  1  0
  7  8  2  0
  8  9  1  0
  7 10  1  0
 10 11  2  0
 10 12  1  0
 12 13  2  0
 13 14  1  0
 14 15  2  0
 15 16  1  0
 16 17  2  0
 17 18  1  0
 18 19  2  0
 19 20  1  0
 20 21  1  0
  8  3  1  0
 17 12  1  0
 21  5  1  0
 18  6  1  0
  1 22  1  0
  1 23  1  0
  1 24  1  0
  4 25  1  0
  9 26  1  0
 13 27  1  0
 14 28  1  0
 15 29  1  0
 16 30  1  0
 20 31  1  0
 20 32  1  0
 21 33  1  0
 21 34  1  0
M  END
$$$$
