
     RDKit          3D

 35 37  0  0  0  0  0  0  0  0999 V2000
    5.0159    1.7623   -0.4208 C   0  0  0  0  0  0  0  0  0  0  0  0
    4.0008    0.7279   -0.1023 C   0  0  0  0  0  0  0  0  0  0  0  0
    2.8960    0.8787    0.6963 C   0  0  0  0  0  0  0  0  0  0  0  0
    2.2229   -0.3199    0.7213 C   0  0  0  0  0  0  0  0  0  0  0  0
    1.0142   -0.5136    1.4485 N   0  0  0  0  0  0  0  0  0  0  0  0
   -0.2004   -0.3176    0.7005 C   0  0  0  0  0  0  0  0  0  0  0  0
   -0.6954    0.9230    0.5698 N   0  0  0  0  0  0  0  0  0  0  0  0
   -1.8105    1.1725   -0.1187 N   0  0  0  0  0  0  0  0  0  0  0  0
   -2.3154    2.5139   -0.2488 C   0  0  0  0  0  0  0  0  0  0  0  0
   -3.2806    2.9269    0.8203 C   0  0  0  0  0  0  0  0  0  0  0  0
   -3.6421    4.2470    0.5092 F   0  0  0  0  0  0  0  0  0  0  0  0
   -4.4903    2.2203    0.7189 F   0  0  0  0  0  0  0  0  0  0  0  0
   -2.7715    2.9342    2.0797 F   0  0  0  0  0  0  0  0  0  0  0  0
   -2.4224    0.1164   -0.6813 C   0  0  0  0  0  0  0  0  0  0  0  0
   -3.4607    0.3324   -1.3255 O   0  0  0  0  0  0  0  0  0  0  0  0
   -1.9684   -1.1700   -0.5843 C   0  0  0  0  0  0  0  0  0  0  0  0
   -2.5853   -2.2632   -1.1533 C   0  0  0  0  0  0  0  0  0  0  0  0
   -2.1277   -3.5461   -1.0514 C   0  0  0  0  0  0  0  0  0  0  0  0
   -0.9618   -3.7388   -0.3209 C   0  0  0  0  0  0  0  0  0  0  0  0
   -0.3056   -2.6789    0.2690 C   0  0  0  0  0  0  0  0  0  0  0  0
   -0.8109   -1.4083    0.1339 C   0  0  0  0  0  0  0  0  0  0  0  0
    2.9261   -1.1579   -0.0519 N   0  0  0  0  0  0  0  0  0  0  0  0
    3.9879   -0.5412   -0.5468 N   0  0  0  0  0  0  0  0  0  0  0  0
    4.8175    2.6806    0.1534 H   0  0  0  0  0  0  0  0  0  0  0  0
    4.9714    2.0568   -1.4940 H   0  0  0  0  0  0  0  0  0  0  0  0
    6.0324    1.4384   -0.1630 H   0  0  0  0  0  0  0  0  0  0  0  0
    2.6044    1.7887    1.2176 H   0  0  0  0  0  0  0  0  0  0  0  0
    0.9310   -0.7711    2.4293 H   0  0  0  0  0  0  0  0  0  0  0  0
   -1.4221    3.1978   -0.1455 H   0  0  0  0  0  0  0  0  0  0  0  0
   -2.7235    2.6906   -1.2518 H   0  0  0  0  0  0  0  0  0  0  0  0
   -3.5008   -2.0750   -1.7188 H   0  0  0  0  0  0  0  0  0  0  0  0
   -2.6331   -4.3902   -1.5086 H   0  0  0  0  0  0  0  0  0  0  0  0
   -0.5475   -4.7494   -0.2068 H   0  0  0  0  0  0  0  0  0  0  0  0
    0.6106   -2.8190    0.8456 H   0  0  0  0  0  0  0  0  0  0  0  0
    2.6449   -2.1482   -0.2188 H   0  0  0  0  0  0  0  0  0  0  0  0
  1  2  1  0
  2  3  1  0
  3  4  2  0
  4  5  1  0
  5  6  1  0
  6  7  2  0
  7  8  1  0
  8  9  1  0
  9 10  1  0
 10 11  1  0
 10 12  1  0
 10 13  1  0
  8 14  1  0
 14 15  2  0
 14 16  1  0
 16 17  2  0
 17 18  1  0
 18 19  2  0
 19 20  1  0
 20 21  2  0
  4 22  1  0
 22 23  1  0
 23  2  2  0
 21  6  1  0
 21 16  1  0
  1 24  1  0
  1 25  1  0
  1 26  1  0
  3 27  1  0
  5 28  1  0
  9 29  1  0
  9 30  1  0
 17 31  1  0
 18 32  1  0
 19 33  1  0
 20 34  1  0
 22 35  1  0
M  END
$$$$
