
     RDKit          3D

 70 74  0  0  0  0  0  0  0  0999 V2000
   -0.4182   -2.6890    0.0156 C   0  0  0  0  0  0  0  0  0  0  0  0
   -0.1539   -1.3511    0.6839 C   0  0  0  0  0  0  0  0  0  0  0  0
    1.1595   -0.8598    0.1140 C   0  0  0  0  0  0  0  0  0  0  0  0
    1.4017    0.5103    0.3559 N   0  0  0  0  0  0  0  0  0  0  0  0
    2.6518    1.1209    0.2263 C   0  0  0  0  0  0  0  0  0  0  0  0
    2.6658    2.3992    0.4849 O   0  0  0  0  0  0  0  0  0  0  0  0
    3.8859    0.5833   -0.1370 N   0  0  0  0  0  0  0  0  0  0  0  0
    5.0071    1.5037   -0.2216 C   0  0  0  0  0  0  0  0  0  0  0  0
    5.7773    1.7303    0.8916 C   0  0  0  0  0  0  0  0  0  0  0  0
    6.8661    2.6111    0.8439 C   0  0  0  0  0  0  0  0  0  0  0  0
    7.1873    3.2687   -0.3203 C   0  0  0  0  0  0  0  0  0  0  0  0
    6.4113    3.0377   -1.4335 C   0  0  0  0  0  0  0  0  0  0  0  0
    5.3301    2.1611   -1.3810 C   0  0  0  0  0  0  0  0  0  0  0  0
    4.1457   -0.7880   -0.4037 C   0  0  0  0  0  0  0  0  0  0  0  0
    3.9009   -1.3091   -1.6444 C   0  0  0  0  0  0  0  0  0  0  0  0
    4.1816   -2.6473   -1.9505 C   0  0  0  0  0  0  0  0  0  0  0  0
    4.7188   -3.4765   -0.9895 C   0  0  0  0  0  0  0  0  0  0  0  0
    4.9657   -2.9538    0.2593 C   0  0  0  0  0  0  0  0  0  0  0  0
    4.6874   -1.6289    0.5609 C   0  0  0  0  0  0  0  0  0  0  0  0
    0.2408    1.3213    0.7602 C   0  0  0  0  0  0  0  0  0  0  0  0
   -0.1132    1.1018    2.2052 C   0  0  0  0  0  0  0  0  0  0  0  0
   -0.8928    0.8308   -0.1617 C   0  0  0  0  0  0  0  0  0  0  0  0
   -1.2694   -0.4736    0.3178 N   0  0  0  0  0  0  0  0  0  0  0  0
   -2.5705   -0.9603    0.4531 C   0  0  0  0  0  0  0  0  0  0  0  0
   -2.6585   -2.1777    0.9168 O   0  0  0  0  0  0  0  0  0  0  0  0
   -3.8040   -0.3710    0.1769 N   0  0  0  0  0  0  0  0  0  0  0  0
   -4.9984   -1.1607    0.4152 C   0  0  0  0  0  0  0  0  0  0  0  0
   -5.5357   -1.9580   -0.5679 C   0  0  0  0  0  0  0  0  0  0  0  0
   -6.6702   -2.7010   -0.3196 C   0  0  0  0  0  0  0  0  0  0  0  0
   -7.2462   -2.6269    0.9214 C   0  0  0  0  0  0  0  0  0  0  0  0
   -6.7003   -1.8197    1.9127 C   0  0  0  0  0  0  0  0  0  0  0  0
   -5.5557   -1.0698    1.6630 C   0  0  0  0  0  0  0  0  0  0  0  0
   -4.0567    0.9288   -0.3078 C   0  0  0  0  0  0  0  0  0  0  0  0
   -4.0763    1.1527   -1.6862 C   0  0  0  0  0  0  0  0  0  0  0  0
   -4.3476    2.3903   -2.2278 C   0  0  0  0  0  0  0  0  0  0  0  0
   -4.6111    3.4538   -1.3786 C   0  0  0  0  0  0  0  0  0  0  0  0
   -4.6045    3.2860    0.0084 C   0  0  0  0  0  0  0  0  0  0  0  0
   -4.3271    2.0282    0.4933 C   0  0  0  0  0  0  0  0  0  0  0  0
   -0.7351   -3.4721    0.7521 H   0  0  0  0  0  0  0  0  0  0  0  0
   -1.1617   -2.6115   -0.8126 H   0  0  0  0  0  0  0  0  0  0  0  0
    0.4969   -3.1101   -0.4586 H   0  0  0  0  0  0  0  0  0  0  0  0
   -0.1227   -1.5143    1.7711 H   0  0  0  0  0  0  0  0  0  0  0  0
    1.1058   -1.0004   -1.0027 H   0  0  0  0  0  0  0  0  0  0  0  0
    1.9296   -1.5479    0.4724 H   0  0  0  0  0  0  0  0  0  0  0  0
    5.5289    1.2158    1.8105 H   0  0  0  0  0  0  0  0  0  0  0  0
    7.4679    2.7811    1.7333 H   0  0  0  0  0  0  0  0  0  0  0  0
    8.0366    3.9630   -0.3786 H   0  0  0  0  0  0  0  0  0  0  0  0
    6.6452    3.5452   -2.3642 H   0  0  0  0  0  0  0  0  0  0  0  0
    4.7092    1.9703   -2.2550 H   0  0  0  0  0  0  0  0  0  0  0  0
    3.4800   -0.6453   -2.3863 H   0  0  0  0  0  0  0  0  0  0  0  0
    3.9693   -3.0130   -2.9496 H   0  0  0  0  0  0  0  0  0  0  0  0
    4.9258   -4.5119   -1.2579 H   0  0  0  0  0  0  0  0  0  0  0  0
    5.3860   -3.6067    1.0076 H   0  0  0  0  0  0  0  0  0  0  0  0
    4.8717   -1.1962    1.5313 H   0  0  0  0  0  0  0  0  0  0  0  0
    0.3902    2.3819    0.5203 H   0  0  0  0  0  0  0  0  0  0  0  0
    0.6743    0.5325    2.7308 H   0  0  0  0  0  0  0  0  0  0  0  0
   -1.0926    0.5977    2.3499 H   0  0  0  0  0  0  0  0  0  0  0  0
   -0.2144    2.0852    2.7489 H   0  0  0  0  0  0  0  0  0  0  0  0
   -1.6836    1.5615   -0.2261 H   0  0  0  0  0  0  0  0  0  0  0  0
   -0.4057    0.6443   -1.1676 H   0  0  0  0  0  0  0  0  0  0  0  0
   -5.0691   -2.0037   -1.5374 H   0  0  0  0  0  0  0  0  0  0  0  0
   -7.0982   -3.3251   -1.0756 H   0  0  0  0  0  0  0  0  0  0  0  0
   -8.1481   -3.1994    1.1632 H   0  0  0  0  0  0  0  0  0  0  0  0
   -7.1377   -1.7461    2.8975 H   0  0  0  0  0  0  0  0  0  0  0  0
   -5.1442   -0.4514    2.4353 H   0  0  0  0  0  0  0  0  0  0  0  0
   -3.8694    0.3178   -2.3575 H   0  0  0  0  0  0  0  0  0  0  0  0
   -4.3501    2.5099   -3.3056 H   0  0  0  0  0  0  0  0  0  0  0  0
   -4.8281    4.4372   -1.7537 H   0  0  0  0  0  0  0  0  0  0  0  0
   -4.8137    4.1326    0.6610 H   0  0  0  0  0  0  0  0  0  0  0  0
   -4.3175    1.8813    1.5531 H   0  0  0  0  0  0  0  0  0  0  0  0
  1  2  1  0
  2  3  1  0
  3  4  1  0
  4  5  1  0
  5  6  2  0
  5  7  1  0
  7  8  1  0
  8  9  2  0
  9 10  1  0
 10 11  2  0
 11 12  1  0
 12 13  2  0
  7 14  1  0
 14 15  2  0
 15 16  1  0
 16 17  2  0
 17 18  1  0
 18 19  2  0
  4 20  1  0
 20 21  1  0
 20 22  1  0
 22 23  1  0
 23 24  1  0
 24 25  2  0
 24 26  1  0
 26 27  1  0
 27 28  2  0
 28 29  1  0
 29 30  2  0
 30 31  1  0
 31 32  2  0
 26 33  1  0
 33 34  2  0
 34 35  1  0
 35 36  2  0
 36 37  1  0
 37 38  2  0
 23  2  1  0
 32 27  1  0
 38 33  1  0
 13  8  1  0
 19 14  1  0
  1 39  1  0
  1 40  1  0
  1 41  1  0
  2 42  1  0
  3 43  1  0
  3 44  1  0
  9 45  1  0
 10 46  1  0
 11 47  1  0
 12 48  1  0
 13 49  1  0
 15 50  1  0
 16 51  1  0
 17 52  1  0
 18 53  1  0
 19 54  1  0
 20 55  1  0
 21 56  1  0
 21 57  1  0
 21 58  1  0
 22 59  1  0
 22 60  1  0
 28 61  1  0
 29 62  1  0
 30 63  1  0
 31 64  1  0
 32 65  1  0
 34 66  1  0
 35 67  1  0
 36 68  1  0
 37 69  1  0
 38 70  1  0
M  END
$$$$
