
     RDKit          3D

 47 51  0  0  0  0  0  0  0  0999 V2000
    1.8386   -0.9440    0.0765 O   0  0  0  0  0  0  0  0  0  0  0  0
    1.7003    0.1555    0.6627 C   0  0  0  0  0  0  0  0  0  0  0  0
    0.5566    0.3367    1.5993 C   0  0  0  0  0  0  0  0  0  0  0  0
   -0.4621   -1.1434    1.7087 S   0  0  0  0  0  0  0  0  0  0  0  0
   -1.2428   -1.3766    0.1016 C   0  0  0  0  0  0  0  0  0  0  0  0
   -0.7868   -2.0601   -0.9554 N   0  0  0  0  0  0  0  0  0  0  0  0
   -1.6646   -1.9852   -1.9380 N   0  0  0  0  0  0  0  0  0  0  0  0
   -2.6718   -1.2594   -1.5089 N   0  0  0  0  0  0  0  0  0  0  0  0
   -2.4327   -0.8815   -0.2728 N   0  0  0  0  0  0  0  0  0  0  0  0
   -3.3360   -0.0696    0.5057 C   0  0  0  0  0  0  0  0  0  0  0  0
   -4.1102    0.9332   -0.3272 C   0  0  0  0  0  0  0  0  0  0  0  0
   -5.5595    0.7910    0.0569 C   0  0  0  0  0  0  0  0  0  0  0  0
   -6.0768   -0.4618   -0.6056 C   0  0  0  0  0  0  0  0  0  0  0  0
   -5.2701   -1.5704    0.0895 C   0  0  0  0  0  0  0  0  0  0  0  0
   -4.4529   -0.8703    1.1393 C   0  0  0  0  0  0  0  0  0  0  0  0
   -5.4099    0.2810    1.5012 C   0  0  0  0  0  0  0  0  0  0  0  0
    2.6487    1.1669    0.3959 N   0  0  0  0  0  0  0  0  0  0  0  0
    3.7420    0.9955   -0.4982 C   0  0  0  0  0  0  0  0  0  0  0  0
    3.6280    1.2943   -1.8403 C   0  0  0  0  0  0  0  0  0  0  0  0
    4.6784    1.1339   -2.7236 C   0  0  0  0  0  0  0  0  0  0  0  0
    5.8539    0.6710   -2.2639 N   0  0  0  0  0  0  0  0  0  0  0  0
    6.0169    0.3623   -0.9505 C   0  0  0  0  0  0  0  0  0  0  0  0
    7.2463   -0.1074   -0.5419 C   0  0  0  0  0  0  0  0  0  0  0  0
    7.3932   -0.4152    0.7952 C   0  0  0  0  0  0  0  0  0  0  0  0
    6.3483   -0.2588    1.6898 C   0  0  0  0  0  0  0  0  0  0  0  0
    5.1281    0.2122    1.2596 C   0  0  0  0  0  0  0  0  0  0  0  0
    4.9649    0.5212   -0.0569 C   0  0  0  0  0  0  0  0  0  0  0  0
   -0.0559    1.1763    1.1554 H   0  0  0  0  0  0  0  0  0  0  0  0
    0.8503    0.6623    2.5973 H   0  0  0  0  0  0  0  0  0  0  0  0
   -2.8253    0.4601    1.3452 H   0  0  0  0  0  0  0  0  0  0  0  0
   -3.7630    1.9704   -0.1554 H   0  0  0  0  0  0  0  0  0  0  0  0
   -4.0382    0.6623   -1.4132 H   0  0  0  0  0  0  0  0  0  0  0  0
   -6.1677    1.6657   -0.0356 H   0  0  0  0  0  0  0  0  0  0  0  0
   -7.1531   -0.5581   -0.3038 H   0  0  0  0  0  0  0  0  0  0  0  0
   -5.9560   -0.4798   -1.6893 H   0  0  0  0  0  0  0  0  0  0  0  0
   -5.9791   -2.2535    0.6261 H   0  0  0  0  0  0  0  0  0  0  0  0
   -4.6918   -2.1542   -0.6281 H   0  0  0  0  0  0  0  0  0  0  0  0
   -4.1675   -1.4641    1.9873 H   0  0  0  0  0  0  0  0  0  0  0  0
   -4.9079    1.0253    2.1355 H   0  0  0  0  0  0  0  0  0  0  0  0
   -6.3449   -0.1171    1.8974 H   0  0  0  0  0  0  0  0  0  0  0  0
    2.5259    2.0809    0.8890 H   0  0  0  0  0  0  0  0  0  0  0  0
    2.6930    1.6634   -2.2105 H   0  0  0  0  0  0  0  0  0  0  0  0
    4.5745    1.3759   -3.7925 H   0  0  0  0  0  0  0  0  0  0  0  0
    8.0703   -0.2324   -1.2393 H   0  0  0  0  0  0  0  0  0  0  0  0
    8.3481   -0.7919    1.1734 H   0  0  0  0  0  0  0  0  0  0  0  0
    6.4432   -0.4950    2.7458 H   0  0  0  0  0  0  0  0  0  0  0  0
    4.2773    0.3523    1.9236 H   0  0  0  0  0  0  0  0  0  0  0  0
  1  2  2  0
  2  3  1  0
  3  4  1  0
  4  5  1  0
  5  6  2  0
  6  7  1  0
  7  8  2  0
  8  9  1  0
  9 10  1  0
 10 11  1  0
 11 12  1  0
 12 13  1  0
 13 14  1  0
 14 15  1  0
 15 16  1  0
  2 17  1  0
 17 18  1  0
 18 19  2  0
 19 20  1  0
 20 21  2  0
 21 22  1  0
 22 23  2  0
 23 24  1  0
 24 25  2  0
 25 26  1  0
 26 27  2  0
  9  5  1  0
 15 10  1  0
 27 18  1  0
 16 12  1  0
 27 22  1  0
  3 28  1  0
  3 29  1  0
 10 30  1  0
 11 31  1  0
 11 32  1  0
 12 33  1  0
 13 34  1  0
 13 35  1  0
 14 36  1  0
 14 37  1  0
 15 38  1  0
 16 39  1  0
 16 40  1  0
 17 41  1  0
 19 42  1  0
 20 43  1  0
 23 44  1  0
 24 45  1  0
 25 46  1  0
 26 47  1  0
M  END
$$$$
