
     RDKit          3D

 65 67  0  0  0  0  0  0  0  0999 V2000
   -5.3691    0.8824    0.7553 C   0  0  1  0  0  0  0  0  0  0  0  0
   -5.4061    1.9043    1.8457 C   0  0  0  0  0  0  0  0  0  0  0  0
   -5.6800    1.2555    3.1684 C   0  0  0  0  0  0  0  0  0  0  0  0
   -5.1151    1.5258   -0.4499 O   0  0  0  0  0  0  0  0  0  0  0  0
   -4.1332    0.8091   -1.1286 C   0  0  2  0  0  0  0  0  0  0  0  0
   -4.2979    0.8645   -2.6255 C   0  0  0  0  0  0  0  0  0  0  0  0
   -4.0947   -0.5516   -0.5520 C   0  0  2  0  0  0  0  0  0  0  0  0
   -4.9409   -1.5024   -1.0485 O   0  0  0  0  0  0  0  0  0  0  0  0
   -4.6172   -2.7178   -1.5972 C   0  0  0  0  0  0  0  0  0  0  0  0
   -5.7685   -3.5307   -2.0484 C   0  0  0  0  0  0  0  0  0  0  0  0
   -3.4363   -3.1045   -1.7053 O   0  0  0  0  0  0  0  0  0  0  0  0
   -4.3244   -0.1822    0.9207 C   0  0  2  0  0  0  0  0  0  0  0  0
   -4.8112   -1.3824    1.6916 C   0  0  0  0  0  0  0  0  0  0  0  0
   -3.1480    0.2842    1.4138 O   0  0  0  0  0  0  0  0  0  0  0  0
   -2.3583    1.0630    0.6380 C   0  0  1  0  0  0  0  0  0  0  0  0
   -0.9555    0.5276    0.5213 C   0  0  0  0  0  0  0  0  0  0  0  0
    0.2341    1.1483    0.4170 C   0  0  0  0  0  0  0  0  0  0  0  0
    1.5711    0.4831    0.3068 C   0  0  0  0  0  0  0  0  0  0  0  0
    2.3869    1.6034    0.2296 C   0  0  0  0  0  0  0  0  0  0  0  0
    3.6715    0.7232    0.1253 C   0  0  0  0  0  0  0  0  0  0  0  0
    4.9552    1.1451    0.0119 C   0  0  0  0  0  0  0  0  0  0  0  0
    6.3821    0.8782   -0.1090 C   0  0  0  0  0  0  0  0  0  0  0  0
    6.9121   -0.3827   -0.1485 C   0  0  0  0  0  0  0  0  0  0  0  0
    6.1486   -1.6325   -0.0770 C   0  0  0  0  0  0  0  0  0  0  0  0
    8.2843   -0.3949   -0.2660 C   0  0  0  0  0  0  0  0  0  0  0  0
    8.9665   -1.6279   -0.3186 O   0  0  0  0  0  0  0  0  0  0  0  0
   10.3534   -1.7091   -0.4372 C   0  0  0  0  0  0  0  0  0  0  0  0
    8.9769    0.7856   -0.3308 C   0  0  0  0  0  0  0  0  0  0  0  0
    8.3700    2.0124   -0.2846 C   0  0  0  0  0  0  0  0  0  0  0  0
    9.0035    3.0955   -0.3441 O   0  0  0  0  0  0  0  0  0  0  0  0
    7.0931    1.9681   -0.1750 O   0  0  0  0  0  0  0  0  0  0  0  0
   -2.8186    1.4705   -0.7003 C   0  0  2  0  0  0  0  0  0  0  0  0
   -2.9046    2.8532   -0.8502 O   0  0  0  0  0  0  0  0  0  0  0  0
   -6.3696    0.4155    0.6736 H   0  0  0  0  0  0  0  0  0  0  0  0
   -6.2507    2.5944    1.6032 H   0  0  0  0  0  0  0  0  0  0  0  0
   -4.4565    2.4804    1.8769 H   0  0  0  0  0  0  0  0  0  0  0  0
   -6.6739    0.7486    3.1207 H   0  0  0  0  0  0  0  0  0  0  0  0
   -5.6704    2.0607    3.9328 H   0  0  0  0  0  0  0  0  0  0  0  0
   -4.9243    0.5139    3.4435 H   0  0  0  0  0  0  0  0  0  0  0  0
   -3.5891    1.6626   -2.9940 H   0  0  0  0  0  0  0  0  0  0  0  0
   -5.2903    1.2109   -2.9589 H   0  0  0  0  0  0  0  0  0  0  0  0
   -3.9638   -0.0682   -3.1391 H   0  0  0  0  0  0  0  0  0  0  0  0
   -3.0519   -0.9356   -0.6652 H   0  0  0  0  0  0  0  0  0  0  0  0
   -5.4898   -4.4198   -2.6274 H   0  0  0  0  0  0  0  0  0  0  0  0
   -6.3395   -2.8621   -2.7576 H   0  0  0  0  0  0  0  0  0  0  0  0
   -6.4779   -3.8115   -1.2737 H   0  0  0  0  0  0  0  0  0  0  0  0
   -5.8375   -1.2434    2.0922 H   0  0  0  0  0  0  0  0  0  0  0  0
   -4.7682   -2.3096    1.0508 H   0  0  0  0  0  0  0  0  0  0  0  0
   -4.1158   -1.5483    2.5395 H   0  0  0  0  0  0  0  0  0  0  0  0
   -2.1939    2.0101    1.2382 H   0  0  0  0  0  0  0  0  0  0  0  0
   -0.9561   -0.5630    0.5261 H   0  0  0  0  0  0  0  0  0  0  0  0
   -0.1003    2.2075    0.4396 H   0  0  0  0  0  0  0  0  0  0  0  0
    1.3176   -0.6498    0.3361 H   0  0  0  0  0  0  0  0  0  0  0  0
    2.6428    0.6729    0.2141 H   0  0  0  0  0  0  0  0  0  0  0  0
    4.1701   -0.3245    0.0900 H   0  0  0  0  0  0  0  0  0  0  0  0
    4.6753    2.2346    0.0276 H   0  0  0  0  0  0  0  0  0  0  0  0
    5.4979   -1.8547   -0.9320 H   0  0  0  0  0  0  0  0  0  0  0  0
    5.6736   -1.8245    0.9051 H   0  0  0  0  0  0  0  0  0  0  0  0
    6.9345   -2.4575   -0.1394 H   0  0  0  0  0  0  0  0  0  0  0  0
   10.6073   -2.7784   -0.6200 H   0  0  0  0  0  0  0  0  0  0  0  0
   10.7464   -1.0610   -1.2352 H   0  0  0  0  0  0  0  0  0  0  0  0
   10.7957   -1.4530    0.5613 H   0  0  0  0  0  0  0  0  0  0  0  0
   10.0382    0.6934   -0.4213 H   0  0  0  0  0  0  0  0  0  0  0  0
   -2.0913    1.1489   -1.5032 H   0  0  0  0  0  0  0  0  0  0  0  0
   -3.6185    3.1893   -0.2530 H   0  0  0  0  0  0  0  0  0  0  0  0
  1  2  1  0
  2  3  1  0
  1  4  1  0
  4  5  1  0
  5  6  1  6
  5  7  1  0
  7  8  1  0
  8  9  1  0
  9 10  1  0
  9 11  2  0
  7 12  1  0
 12 13  1  1
 12 14  1  0
 14 15  1  0
 15 16  1  0
 16 17  2  0
 17 18  1  0
 18 19  2  0
 19 20  1  0
 20 21  2  0
 21 22  1  0
 22 23  2  0
 23 24  1  0
 23 25  1  0
 25 26  1  0
 26 27  1  0
 25 28  2  0
 28 29  1  0
 29 30  2  0
 29 31  1  0
 15 32  1  0
 32 33  1  0
 12  1  1  0
 31 22  1  0
 32  5  1  0
  1 34  1  6
  2 35  1  0
  2 36  1  0
  3 37  1  0
  3 38  1  0
  3 39  1  0
  6 40  1  0
  6 41  1  0
  6 42  1  0
  7 43  1  1
 10 44  1  0
 10 45  1  0
 10 46  1  0
 13 47  1  0
 13 48  1  0
 13 49  1  0
 15 50  1  1
 16 51  1  0
 17 52  1  0
 18 53  1  0
 19 54  1  0
 20 55  1  0
 21 56  1  0
 24 57  1  0
 24 58  1  0
 24 59  1  0
 27 60  1  0
 27 61  1  0
 27 62  1  0
 28 63  1  0
 32 64  1  6
 33 65  1  0
M  END
$$$$
