
     RDKit          3D

 48 50  0  0  0  0  0  0  0  0999 V2000
    9.1014   -2.0840    1.3099 C   0  0  0  0  0  0  0  0  0  0  0  0
    7.6491   -1.9311    1.1594 N   0  0  0  0  0  0  0  0  0  0  0  0
    7.1116   -0.7856    0.5093 C   0  0  0  0  0  0  0  0  0  0  0  0
    7.8572    0.1021    0.0592 O   0  0  0  0  0  0  0  0  0  0  0  0
    5.6651   -0.6767    0.3831 C   0  0  0  0  0  0  0  0  0  0  0  0
    5.1196    0.4365   -0.2498 C   0  0  0  0  0  0  0  0  0  0  0  0
    3.7607    0.5756   -0.3885 C   0  0  0  0  0  0  0  0  0  0  0  0
    3.2218    1.6881   -1.0207 O   0  0  0  0  0  0  0  0  0  0  0  0
    1.8524    1.8232   -1.1577 C   0  0  0  0  0  0  0  0  0  0  0  0
    1.1799    2.4728   -0.1422 C   0  0  0  0  0  0  0  0  0  0  0  0
   -0.1911    2.6284   -0.2415 C   0  0  0  0  0  0  0  0  0  0  0  0
   -0.9207    2.1670   -1.3045 C   0  0  0  0  0  0  0  0  0  0  0  0
   -2.3226    2.3676   -1.3291 N   0  0  0  0  0  0  0  0  0  0  0  0
   -3.1901    1.3742   -0.7523 C   0  0  0  0  0  0  0  0  0  0  0  0
   -2.6363    0.3849   -0.2604 O   0  0  0  0  0  0  0  0  0  0  0  0
   -4.5819    1.5245   -0.7508 N   0  0  0  0  0  0  0  0  0  0  0  0
   -5.4941    0.6187   -0.2178 C   0  0  0  0  0  0  0  0  0  0  0  0
   -6.8721    0.8974   -0.2851 C   0  0  0  0  0  0  0  0  0  0  0  0
   -7.8378    0.0692    0.2100 C   0  0  0  0  0  0  0  0  0  0  0  0
   -7.4955   -1.1180    0.8190 C   0  0  0  0  0  0  0  0  0  0  0  0
   -8.7264   -2.1854    1.4562 Cl  0  0  0  0  0  0  0  0  0  0  0  0
   -6.1602   -1.4307    0.9068 C   0  0  0  0  0  0  0  0  0  0  0  0
   -5.7987   -2.7109    1.5640 C   0  0  0  0  0  0  0  0  0  0  0  0
   -6.3694   -3.7639    0.8841 F   0  0  0  0  0  0  0  0  0  0  0  0
   -6.3029   -2.6953    2.8574 F   0  0  0  0  0  0  0  0  0  0  0  0
   -4.4425   -2.9050    1.6392 F   0  0  0  0  0  0  0  0  0  0  0  0
   -5.1788   -0.5670    0.3920 C   0  0  0  0  0  0  0  0  0  0  0  0
   -0.2394    1.5186   -2.3152 C   0  0  0  0  0  0  0  0  0  0  0  0
    1.1426    1.3509   -2.2353 C   0  0  0  0  0  0  0  0  0  0  0  0
    2.9216   -0.4145    0.1133 C   0  0  0  0  0  0  0  0  0  0  0  0
    3.5192   -1.5033    0.7352 C   0  0  0  0  0  0  0  0  0  0  0  0
    4.8385   -1.6282    0.8643 N   0  0  0  0  0  0  0  0  0  0  0  0
    9.5310   -1.0771    1.2472 H   0  0  0  0  0  0  0  0  0  0  0  0
    9.5142   -2.7766    0.5593 H   0  0  0  0  0  0  0  0  0  0  0  0
    9.2764   -2.4983    2.3447 H   0  0  0  0  0  0  0  0  0  0  0  0
    7.0611   -2.6993    1.5516 H   0  0  0  0  0  0  0  0  0  0  0  0
    5.7472    1.2257   -0.6516 H   0  0  0  0  0  0  0  0  0  0  0  0
    1.7134    2.8571    0.7221 H   0  0  0  0  0  0  0  0  0  0  0  0
   -0.6988    3.1372    0.5591 H   0  0  0  0  0  0  0  0  0  0  0  0
   -2.7781    3.2039   -1.7456 H   0  0  0  0  0  0  0  0  0  0  0  0
   -4.9597    2.4129   -1.1995 H   0  0  0  0  0  0  0  0  0  0  0  0
   -7.1543    1.8255   -0.7604 H   0  0  0  0  0  0  0  0  0  0  0  0
   -8.8812    0.3398    0.1274 H   0  0  0  0  0  0  0  0  0  0  0  0
   -4.1740   -0.8926    0.5060 H   0  0  0  0  0  0  0  0  0  0  0  0
   -0.7794    1.1398   -3.1711 H   0  0  0  0  0  0  0  0  0  0  0  0
    1.6685    0.8420   -3.0310 H   0  0  0  0  0  0  0  0  0  0  0  0
    1.8611   -0.3486    0.0283 H   0  0  0  0  0  0  0  0  0  0  0  0
    2.8726   -2.2915    1.1356 H   0  0  0  0  0  0  0  0  0  0  0  0
  1  2  1  0
  2  3  1  0
  3  4  2  0
  3  5  1  0
  5  6  2  0
  6  7  1  0
  7  8  1  0
  8  9  1  0
  9 10  2  0
 10 11  1  0
 11 12  2  0
 12 13  1  0
 13 14  1  0
 14 15  2  0
 14 16  1  0
 16 17  1  0
 17 18  2  0
 18 19  1  0
 19 20  2  0
 20 21  1  0
 20 22  1  0
 22 23  1  0
 23 24  1  0
 23 25  1  0
 23 26  1  0
 22 27  2  0
 12 28  1  0
 28 29  2  0
  7 30  2  0
 30 31  1  0
 31 32  2  0
 32  5  1  0
 29  9  1  0
 27 17  1  0
  1 33  1  0
  1 34  1  0
  1 35  1  0
  2 36  1  0
  6 37  1  0
 10 38  1  0
 11 39  1  0
 13 40  1  0
 16 41  1  0
 18 42  1  0
 19 43  1  0
 27 44  1  0
 28 45  1  0
 29 46  1  0
 30 47  1  0
 31 48  1  0
M  END
$$$$
