
     RDKit          3D

 70 72  0  0  0  0  0  0  0  0999 V2000
   -5.5474   -3.6090    0.8451 C   0  0  0  0  0  0  0  0  0  0  0  0
   -6.2361   -2.4188    1.3968 C   0  0  0  0  0  0  0  0  0  0  0  0
   -7.4297   -2.6362    2.0957 C   0  0  0  0  0  0  0  0  0  0  0  0
   -8.1615   -1.6061    2.6206 C   0  0  0  0  0  0  0  0  0  0  0  0
   -9.3879   -1.7823    3.3453 C   0  0  0  0  0  0  0  0  0  0  0  0
  -10.3695   -1.9368    3.9317 N   0  0  0  0  0  0  0  0  0  0  0  0
   -7.7204   -0.3049    2.4622 C   0  0  0  0  0  0  0  0  0  0  0  0
   -6.5613   -0.0541    1.7875 C   0  0  0  0  0  0  0  0  0  0  0  0
   -5.8116   -1.1262    1.2505 C   0  0  0  0  0  0  0  0  0  0  0  0
   -4.5876   -0.8390    0.6083 N   0  0  0  0  0  0  0  0  0  0  0  0
   -4.4418    0.4947    0.0057 C   0  0  0  0  0  0  0  0  0  0  0  0
   -3.1538    0.5731   -0.7963 C   0  0  0  0  0  0  0  0  0  0  0  0
   -2.0059    0.2783    0.0399 N   0  0  0  0  0  0  0  0  0  0  0  0
   -1.4826    1.6550    0.9257 S   0  0  0  0  0  6  0  0  0  0  0  0
   -2.5126    2.1254    1.9099 O   0  0  0  0  0  0  0  0  0  0  0  0
   -0.2748    1.2539    1.7311 O   0  0  0  0  0  0  0  0  0  0  0  0
   -0.9715    2.9516   -0.1077 N   0  0  0  0  0  0  0  0  0  0  0  0
    0.1870    2.4670   -0.9082 C   0  0  2  0  0  0  0  0  0  0  0  0
    1.3459    3.3092   -0.4825 C   0  0  0  0  0  0  0  0  0  0  0  0
    2.6585    3.0349   -1.1044 C   0  0  0  0  0  0  0  0  0  0  0  0
    3.1514    1.6232   -0.8540 C   0  0  0  0  0  0  0  0  0  0  0  0
    4.4343    1.4800   -1.5042 N   0  0  0  0  0  0  0  0  0  0  0  0
    5.1184    0.2126   -1.4220 C   0  0  0  0  0  0  0  0  0  0  0  0
    4.5565   -0.6920   -0.7924 O   0  0  0  0  0  0  0  0  0  0  0  0
    6.3327    0.0730   -2.0307 O   0  0  0  0  0  0  0  0  0  0  0  0
    7.0964   -1.0813   -2.0348 C   0  0  0  0  0  0  0  0  0  0  0  0
    7.4737   -1.5360   -0.6826 C   0  0  0  0  0  0  0  0  0  0  0  0
    8.5792   -0.9696   -0.0630 C   0  0  0  0  0  0  0  0  0  0  0  0
    8.9333   -1.4121    1.1846 C   0  0  0  0  0  0  0  0  0  0  0  0
    8.2236   -2.3919    1.8225 C   0  0  0  0  0  0  0  0  0  0  0  0
    7.1276   -2.9585    1.2142 C   0  0  0  0  0  0  0  0  0  0  0  0
    6.7526   -2.5275   -0.0436 C   0  0  0  0  0  0  0  0  0  0  0  0
   -0.1352    2.5880   -2.3393 C   0  0  0  0  0  0  0  0  0  0  0  0
   -1.2072    3.1919   -2.6550 O   0  0  0  0  0  0  0  0  0  0  0  0
    0.6309    2.0944   -3.4096 N   0  0  0  0  0  0  0  0  0  0  0  0
    0.2007    2.2891   -4.6957 O   0  0  0  0  0  0  0  0  0  0  0  0
   -2.2351   -0.7995    0.9438 C   0  0  0  0  0  0  0  0  0  0  0  0
   -3.4360   -1.6844    0.5117 C   0  0  0  0  0  0  0  0  0  0  0  0
   -6.3952   -4.3349    0.5824 H   0  0  0  0  0  0  0  0  0  0  0  0
   -5.0372   -3.4534   -0.1034 H   0  0  0  0  0  0  0  0  0  0  0  0
   -4.9871   -4.1652    1.6166 H   0  0  0  0  0  0  0  0  0  0  0  0
   -7.7706   -3.6554    2.2159 H   0  0  0  0  0  0  0  0  0  0  0  0
   -8.2646    0.5450    2.8573 H   0  0  0  0  0  0  0  0  0  0  0  0
   -6.1744    0.9666    1.6385 H   0  0  0  0  0  0  0  0  0  0  0  0
   -4.3726    1.2892    0.7671 H   0  0  0  0  0  0  0  0  0  0  0  0
   -5.2844    0.6028   -0.7003 H   0  0  0  0  0  0  0  0  0  0  0  0
   -3.0579    1.6264   -1.1317 H   0  0  0  0  0  0  0  0  0  0  0  0
   -3.1931   -0.0559   -1.7090 H   0  0  0  0  0  0  0  0  0  0  0  0
   -0.6466    3.7061    0.5152 H   0  0  0  0  0  0  0  0  0  0  0  0
    0.3873    1.4253   -0.6352 H   0  0  0  0  0  0  0  0  0  0  0  0
    1.4138    3.2391    0.6404 H   0  0  0  0  0  0  0  0  0  0  0  0
    1.0742    4.3652   -0.7022 H   0  0  0  0  0  0  0  0  0  0  0  0
    2.6631    3.2998   -2.1662 H   0  0  0  0  0  0  0  0  0  0  0  0
    3.4018    3.7228   -0.6090 H   0  0  0  0  0  0  0  0  0  0  0  0
    2.4716    0.8380   -1.1714 H   0  0  0  0  0  0  0  0  0  0  0  0
    3.2535    1.4889    0.2632 H   0  0  0  0  0  0  0  0  0  0  0  0
    4.9027    2.2525   -2.0391 H   0  0  0  0  0  0  0  0  0  0  0  0
    6.5013   -1.8674   -2.5749 H   0  0  0  0  0  0  0  0  0  0  0  0
    8.0353   -0.9509   -2.6166 H   0  0  0  0  0  0  0  0  0  0  0  0
    9.1264   -0.1994   -0.5789 H   0  0  0  0  0  0  0  0  0  0  0  0
    9.8013   -0.9921    1.7113 H   0  0  0  0  0  0  0  0  0  0  0  0
    8.5208   -2.7359    2.8255 H   0  0  0  0  0  0  0  0  0  0  0  0
    6.5595   -3.7416    1.7210 H   0  0  0  0  0  0  0  0  0  0  0  0
    5.9008   -2.9861   -0.5140 H   0  0  0  0  0  0  0  0  0  0  0  0
    1.5071    1.5772   -3.2084 H   0  0  0  0  0  0  0  0  0  0  0  0
    0.8780    1.8862   -5.2882 H   0  0  0  0  0  0  0  0  0  0  0  0
   -1.3547   -1.4704    0.9344 H   0  0  0  0  0  0  0  0  0  0  0  0
   -2.3975   -0.4752    1.9894 H   0  0  0  0  0  0  0  0  0  0  0  0
   -3.3953   -2.5040    1.2699 H   0  0  0  0  0  0  0  0  0  0  0  0
   -3.2006   -2.0348   -0.5063 H   0  0  0  0  0  0  0  0  0  0  0  0
  1  2  1  0
  2  3  2  0
  3  4  1  0
  4  5  1  0
  5  6  3  0
  4  7  2  0
  7  8  1  0
  8  9  2  0
  9 10  1  0
 10 11  1  0
 11 12  1  0
 12 13  1  0
 13 14  1  0
 14 15  2  0
 14 16  2  0
 14 17  1  0
 17 18  1  0
 18 19  1  0
 19 20  1  0
 20 21  1  0
 21 22  1  0
 22 23  1  0
 23 24  2  0
 23 25  1  0
 25 26  1  0
 26 27  1  0
 27 28  2  0
 28 29  1  0
 29 30  2  0
 30 31  1  0
 31 32  2  0
 18 33  1  0
 33 34  2  0
 33 35  1  0
 35 36  1  0
 13 37  1  0
 37 38  1  0
  9  2  1  0
 38 10  1  0
 32 27  1  0
  1 39  1  0
  1 40  1  0
  1 41  1  0
  3 42  1  0
  7 43  1  0
  8 44  1  0
 11 45  1  0
 11 46  1  0
 12 47  1  0
 12 48  1  0
 17 49  1  0
 18 50  1  1
 19 51  1  0
 19 52  1  0
 20 53  1  0
 20 54  1  0
 21 55  1  0
 21 56  1  0
 22 57  1  0
 26 58  1  0
 26 59  1  0
 28 60  1  0
 29 61  1  0
 30 62  1  0
 31 63  1  0
 32 64  1  0
 35 65  1  0
 36 66  1  0
 37 67  1  0
 37 68  1  0
 38 69  1  0
 38 70  1  0
M  END
$$$$
