
     RDKit          3D

 50 52  0  0  0  0  0  0  0  0999 V2000
    8.1655    0.9586   -0.7633 C   0  0  0  0  0  0  0  0  0  0  0  0
    7.2039    0.2973    0.1875 C   0  0  0  0  0  0  0  0  0  0  0  0
    7.2504    0.5000    1.5557 C   0  0  0  0  0  0  0  0  0  0  0  0
    8.1922    1.3171    2.0521 F   0  0  0  0  0  0  0  0  0  0  0  0
    6.3122   -0.1613    2.3177 C   0  0  0  0  0  0  0  0  0  0  0  0
    5.3468   -0.9994    1.8019 C   0  0  0  0  0  0  0  0  0  0  0  0
    5.2738   -1.2221    0.4467 C   0  0  0  0  0  0  0  0  0  0  0  0
    4.3267   -2.0647   -0.3187 C   0  0  0  0  0  0  0  0  0  0  0  0
    3.1819   -1.3173   -0.7696 N   0  0  0  0  0  0  0  0  0  0  0  0
    2.0357   -0.8986   -0.0467 C   0  0  0  0  0  0  0  0  0  0  0  0
    2.0689   -1.2641    1.1679 O   0  0  0  0  0  0  0  0  0  0  0  0
    0.9924   -0.1312   -0.7427 C   0  0  0  0  0  0  0  0  0  0  0  0
   -0.1333    0.2480   -0.0397 C   0  0  0  0  0  0  0  0  0  0  0  0
   -1.1386    0.9670   -0.6463 C   0  0  0  0  0  0  0  0  0  0  0  0
   -0.9375    1.2614   -1.9466 N   0  0  0  0  0  0  0  0  0  0  0  0
    0.1581    0.8917   -2.6281 C   0  0  0  0  0  0  0  0  0  0  0  0
    1.1472    0.1900   -2.0508 N   0  0  0  0  0  0  0  0  0  0  0  0
   -2.3514    1.3960    0.0391 C   0  0  0  0  0  0  0  0  0  0  0  0
   -2.4603    1.0496    1.2652 O   0  0  0  0  0  0  0  0  0  0  0  0
   -3.3159    2.1531   -0.6723 N   0  0  0  0  0  0  0  0  0  0  0  0
   -4.5633    2.6211   -0.0660 C   0  0  0  0  0  0  0  0  0  0  0  0
   -5.5484    1.4975    0.0160 C   0  0  0  0  0  0  0  0  0  0  0  0
   -5.7837    0.5848    1.0171 C   0  0  0  0  0  0  0  0  0  0  0  0
   -6.7388   -0.3683    0.8727 C   0  0  0  0  0  0  0  0  0  0  0  0
   -6.9377   -1.3208    2.0043 C   0  0  0  0  0  0  0  0  0  0  0  0
   -7.5280   -0.5031   -0.2463 C   0  0  0  0  0  0  0  0  0  0  0  0
   -8.4728   -1.4719   -0.3495 F   0  0  0  0  0  0  0  0  0  0  0  0
   -7.3234    0.3871   -1.2649 C   0  0  0  0  0  0  0  0  0  0  0  0
   -6.3499    1.3623   -1.1227 C   0  0  0  0  0  0  0  0  0  0  0  0
    6.2245   -0.5533   -0.3411 C   0  0  0  0  0  0  0  0  0  0  0  0
    8.3792    1.9636   -0.4021 H   0  0  0  0  0  0  0  0  0  0  0  0
    7.6662    1.0717   -1.7636 H   0  0  0  0  0  0  0  0  0  0  0  0
    9.0513    0.3204   -0.9403 H   0  0  0  0  0  0  0  0  0  0  0  0
    6.3434   -0.0087    3.3875 H   0  0  0  0  0  0  0  0  0  0  0  0
    4.6092   -1.5245    2.3674 H   0  0  0  0  0  0  0  0  0  0  0  0
    3.9840   -2.9166    0.3070 H   0  0  0  0  0  0  0  0  0  0  0  0
    4.8796   -2.5284   -1.1542 H   0  0  0  0  0  0  0  0  0  0  0  0
    3.2162   -1.0459   -1.7971 H   0  0  0  0  0  0  0  0  0  0  0  0
   -0.2446   -0.0109    0.9869 H   0  0  0  0  0  0  0  0  0  0  0  0
    0.3459    1.1142   -3.6712 H   0  0  0  0  0  0  0  0  0  0  0  0
   -3.1121    2.3794   -1.6713 H   0  0  0  0  0  0  0  0  0  0  0  0
   -4.3275    2.9055    0.9984 H   0  0  0  0  0  0  0  0  0  0  0  0
   -4.9886    3.4412   -0.6361 H   0  0  0  0  0  0  0  0  0  0  0  0
   -5.1286    0.7409    1.8771 H   0  0  0  0  0  0  0  0  0  0  0  0
   -6.8647   -0.7605    2.9558 H   0  0  0  0  0  0  0  0  0  0  0  0
   -6.1900   -2.1425    2.0104 H   0  0  0  0  0  0  0  0  0  0  0  0
   -7.9651   -1.7245    1.9629 H   0  0  0  0  0  0  0  0  0  0  0  0
   -7.9343    0.2884   -2.1409 H   0  0  0  0  0  0  0  0  0  0  0  0
   -6.2544    2.0293   -1.9829 H   0  0  0  0  0  0  0  0  0  0  0  0
    6.2371   -0.6736   -1.4219 H   0  0  0  0  0  0  0  0  0  0  0  0
  1  2  1  0
  2  3  2  0
  3  4  1  0
  3  5  1  0
  5  6  2  0
  6  7  1  0
  7  8  1  0
  8  9  1  0
  9 10  1  0
 10 11  2  0
 10 12  1  0
 12 13  2  0
 13 14  1  0
 14 15  2  0
 15 16  1  0
 16 17  2  0
 14 18  1  0
 18 19  2  0
 18 20  1  0
 20 21  1  0
 21 22  1  0
 22 23  2  0
 23 24  1  0
 24 25  1  0
 24 26  2  0
 26 27  1  0
 26 28  1  0
 28 29  2  0
  7 30  2  0
 30  2  1  0
 17 12  1  0
 29 22  1  0
  1 31  1  0
  1 32  1  0
  1 33  1  0
  5 34  1  0
  6 35  1  0
  8 36  1  0
  8 37  1  0
  9 38  1  0
 13 39  1  0
 16 40  1  0
 20 41  1  0
 21 42  1  0
 21 43  1  0
 23 44  1  0
 25 45  1  0
 25 46  1  0
 25 47  1  0
 28 48  1  0
 29 49  1  0
 30 50  1  0
M  END
$$$$
