
     RDKit          3D

 68 70  0  0  0  0  0  0  0  0999 V2000
   -6.7801    0.5413   -1.8174 C   0  0  0  0  0  0  0  0  0  0  0  0
   -5.9268   -0.6210   -1.4107 C   0  0  0  0  0  0  0  0  0  0  0  0
   -5.7272   -1.5316   -2.5877 C   0  0  0  0  0  0  0  0  0  0  0  0
   -4.7058   -0.1574   -0.8974 O   0  0  0  0  0  0  0  0  0  0  0  0
   -4.5203   -0.5463    0.3569 N   0  0  0  0  0  0  0  0  0  0  0  0
   -4.1933    0.4898    1.2939 C   0  0  1  0  0  0  0  0  0  0  0  0
   -3.7562    1.7447    0.6372 C   0  0  0  0  0  0  0  0  0  0  0  0
   -3.7146    1.9064   -0.5966 O   0  0  0  0  0  0  0  0  0  0  0  0
   -3.3634    2.8192    1.4797 N   0  0  0  0  0  0  0  0  0  0  0  0
   -2.9476    4.0103    0.9903 O   0  0  0  0  0  0  0  0  0  0  0  0
   -5.3344    0.8251    2.2189 C   0  0  0  0  0  0  0  0  0  0  0  0
   -5.7564   -0.3832    3.0308 C   0  0  0  0  0  0  0  0  0  0  0  0
   -6.5028    1.4526    1.5164 C   0  0  0  0  0  0  0  0  0  0  0  0
   -3.5166   -1.9310    0.5139 S   0  0  0  0  0  6  0  0  0  0  0  0
   -3.9226   -3.0279   -0.4186 O   0  0  0  0  0  0  0  0  0  0  0  0
   -3.6805   -2.4626    1.9127 O   0  0  0  0  0  0  0  0  0  0  0  0
   -1.8232   -1.5662    0.2147 C   0  0  0  0  0  0  0  0  0  0  0  0
   -1.2895   -1.6326   -1.0694 C   0  0  0  0  0  0  0  0  0  0  0  0
    0.0589   -1.3437   -1.3052 C   0  0  0  0  0  0  0  0  0  0  0  0
    0.8944   -0.9855   -0.2699 C   0  0  0  0  0  0  0  0  0  0  0  0
    2.3149   -0.6719   -0.4623 C   0  0  0  0  0  0  0  0  0  0  0  0
    3.2190   -0.9541    0.5618 C   0  0  0  0  0  0  0  0  0  0  0  0
    4.5565   -0.6758    0.4248 C   0  0  0  0  0  0  0  0  0  0  0  0
    5.0636   -0.1075   -0.7258 C   0  0  0  0  0  0  0  0  0  0  0  0
    6.4023    0.1585   -0.8326 O   0  0  0  0  0  0  0  0  0  0  0  0
    7.2699   -0.1445    0.2270 C   0  0  0  0  0  0  0  0  0  0  0  0
    8.6532    0.2427   -0.1485 C   0  0  0  0  0  0  0  0  0  0  0  0
    9.4487   -0.6904   -0.7786 C   0  0  0  0  0  0  0  0  0  0  0  0
   10.7463   -0.3614   -1.1424 C   0  0  0  0  0  0  0  0  0  0  0  0
   11.2195    0.8969   -0.8668 C   0  0  0  0  0  0  0  0  0  0  0  0
   12.8499    1.3568   -1.3068 Cl  0  0  0  0  0  0  0  0  0  0  0  0
   10.4062    1.8047   -0.2391 C   0  0  0  0  0  0  0  0  0  0  0  0
    9.1298    1.5036    0.1268 C   0  0  0  0  0  0  0  0  0  0  0  0
    4.1490    0.1651   -1.7311 C   0  0  0  0  0  0  0  0  0  0  0  0
    2.8016   -0.1093   -1.6074 C   0  0  0  0  0  0  0  0  0  0  0  0
    0.3517   -0.9241    0.9957 C   0  0  0  0  0  0  0  0  0  0  0  0
   -0.9876   -1.2078    1.2511 C   0  0  0  0  0  0  0  0  0  0  0  0
   -7.7678    0.4637   -1.3360 H   0  0  0  0  0  0  0  0  0  0  0  0
   -6.2635    1.4892   -1.5507 H   0  0  0  0  0  0  0  0  0  0  0  0
   -6.9613    0.4960   -2.9211 H   0  0  0  0  0  0  0  0  0  0  0  0
   -6.4758   -1.2104   -0.6473 H   0  0  0  0  0  0  0  0  0  0  0  0
   -5.9303   -2.6117   -2.3274 H   0  0  0  0  0  0  0  0  0  0  0  0
   -4.7322   -1.4233   -3.0647 H   0  0  0  0  0  0  0  0  0  0  0  0
   -6.4749   -1.2853   -3.3691 H   0  0  0  0  0  0  0  0  0  0  0  0
   -3.3464    0.1411    1.9164 H   0  0  0  0  0  0  0  0  0  0  0  0
   -3.3743    2.7421    2.5241 H   0  0  0  0  0  0  0  0  0  0  0  0
   -3.4926    4.2015    0.1934 H   0  0  0  0  0  0  0  0  0  0  0  0
   -4.9616    1.5655    2.9552 H   0  0  0  0  0  0  0  0  0  0  0  0
   -4.9110   -0.7266    3.6504 H   0  0  0  0  0  0  0  0  0  0  0  0
   -6.0773   -1.2063    2.3862 H   0  0  0  0  0  0  0  0  0  0  0  0
   -6.5863   -0.1375    3.7164 H   0  0  0  0  0  0  0  0  0  0  0  0
   -7.0508    2.0736    2.2779 H   0  0  0  0  0  0  0  0  0  0  0  0
   -6.1287    2.1381    0.7541 H   0  0  0  0  0  0  0  0  0  0  0  0
   -7.2235    0.6942    1.1406 H   0  0  0  0  0  0  0  0  0  0  0  0
   -1.9587   -1.9139   -1.8610 H   0  0  0  0  0  0  0  0  0  0  0  0
    0.4526   -1.3991   -2.2953 H   0  0  0  0  0  0  0  0  0  0  0  0
    2.8574   -1.4043    1.4878 H   0  0  0  0  0  0  0  0  0  0  0  0
    5.2690   -0.8986    1.2331 H   0  0  0  0  0  0  0  0  0  0  0  0
    6.9190    0.4183    1.1241 H   0  0  0  0  0  0  0  0  0  0  0  0
    7.2188   -1.2216    0.5293 H   0  0  0  0  0  0  0  0  0  0  0  0
    9.0816   -1.6824   -0.9980 H   0  0  0  0  0  0  0  0  0  0  0  0
   11.3719   -1.0991   -1.6392 H   0  0  0  0  0  0  0  0  0  0  0  0
   10.7738    2.8107   -0.0148 H   0  0  0  0  0  0  0  0  0  0  0  0
    8.4563    2.1821    0.6201 H   0  0  0  0  0  0  0  0  0  0  0  0
    4.4996    0.6046   -2.6372 H   0  0  0  0  0  0  0  0  0  0  0  0
    2.0924    0.1059   -2.3960 H   0  0  0  0  0  0  0  0  0  0  0  0
    0.9995   -0.6427    1.8179 H   0  0  0  0  0  0  0  0  0  0  0  0
   -1.3614   -1.1451    2.2674 H   0  0  0  0  0  0  0  0  0  0  0  0
  1  2  1  0
  2  3  1  0
  2  4  1  0
  4  5  1  0
  5  6  1  0
  6  7  1  0
  7  8  2  0
  7  9  1  0
  9 10  1  0
  6 11  1  0
 11 12  1  0
 11 13  1  0
  5 14  1  0
 14 15  2  0
 14 16  2  0
 14 17  1  0
 17 18  2  0
 18 19  1  0
 19 20  2  0
 20 21  1  0
 21 22  2  0
 22 23  1  0
 23 24  2  0
 24 25  1  0
 25 26  1  0
 26 27  1  0
 27 28  2  0
 28 29  1  0
 29 30  2  0
 30 31  1  0
 30 32  1  0
 32 33  2  0
 24 34  1  0
 34 35  2  0
 20 36  1  0
 36 37  2  0
 37 17  1  0
 35 21  1  0
 33 27  1  0
  1 38  1  0
  1 39  1  0
  1 40  1  0
  2 41  1  0
  3 42  1  0
  3 43  1  0
  3 44  1  0
  6 45  1  1
  9 46  1  0
 10 47  1  0
 11 48  1  0
 12 49  1  0
 12 50  1  0
 12 51  1  0
 13 52  1  0
 13 53  1  0
 13 54  1  0
 18 55  1  0
 19 56  1  0
 22 57  1  0
 23 58  1  0
 26 59  1  0
 26 60  1  0
 28 61  1  0
 29 62  1  0
 32 63  1  0
 33 64  1  0
 34 65  1  0
 35 66  1  0
 36 67  1  0
 37 68  1  0
M  END
$$$$
