
     RDKit          3D

 57 61  0  0  0  0  0  0  0  0999 V2000
    4.7812   -3.9984    4.1745 C   0  0  0  0  0  0  0  0  0  0  0  0
    3.9531   -3.1638    3.2463 C   0  0  0  0  0  0  0  0  0  0  0  0
    2.6117   -2.9725    3.2041 C   0  0  0  0  0  0  0  0  0  0  0  0
    2.3324   -2.0966    2.1425 C   0  0  0  0  0  0  0  0  0  0  0  0
    0.9841   -1.6825    1.8207 C   0  0  0  0  0  0  0  0  0  0  0  0
    0.0312   -2.1448    2.5439 O   0  0  0  0  0  0  0  0  0  0  0  0
    0.5733   -0.8196    0.7951 N   0  0  0  0  0  0  0  0  0  0  0  0
   -0.7887   -0.4688    0.5551 C   0  0  0  0  0  0  0  0  0  0  0  0
   -1.6085   -1.1797   -0.2815 C   0  0  0  0  0  0  0  0  0  0  0  0
   -2.9366   -0.8214   -0.5034 C   0  0  0  0  0  0  0  0  0  0  0  0
   -3.4718    0.2787    0.1232 C   0  0  0  0  0  0  0  0  0  0  0  0
   -4.8465    0.6959   -0.1102 C   0  0  0  0  0  0  0  0  0  0  0  0
   -5.8198    0.5090    0.8847 C   0  0  0  0  0  0  0  0  0  0  0  0
   -7.1283    0.8722    0.6528 C   0  0  0  0  0  0  0  0  0  0  0  0
   -7.4772    1.4208   -0.5630 C   0  0  0  0  0  0  0  0  0  0  0  0
   -6.5462    1.6154   -1.5532 C   0  0  0  0  0  0  0  0  0  0  0  0
   -5.2193    1.2437   -1.3077 C   0  0  0  0  0  0  0  0  0  0  0  0
   -4.0643    1.5481   -2.5706 S   0  0  0  0  0  6  0  0  0  0  0  0
   -4.8687    2.3021   -3.9333 N   0  0  0  0  0  0  0  0  0  0  0  0
   -3.0206    2.5464   -2.1385 O   0  0  0  0  0  0  0  0  0  0  0  0
   -3.4059    0.3330   -3.1066 O   0  0  0  0  0  0  0  0  0  0  0  0
   -2.6484    1.0162    0.9819 C   0  0  0  0  0  0  0  0  0  0  0  0
   -1.3427    0.6294    1.1747 C   0  0  0  0  0  0  0  0  0  0  0  0
    3.4894   -1.7956    1.5922 N   0  0  0  0  0  0  0  0  0  0  0  0
    3.7123   -0.9349    0.4756 C   0  0  0  0  0  0  0  0  0  0  0  0
    3.9471    0.4212    0.6292 C   0  0  0  0  0  0  0  0  0  0  0  0
    4.1852    1.2688   -0.4321 C   0  0  0  0  0  0  0  0  0  0  0  0
    4.4183    2.6231   -0.2619 C   0  0  0  0  0  0  0  0  0  0  0  0
    4.6542    3.4517   -1.3409 C   0  0  0  0  0  0  0  0  0  0  0  0
    4.6673    2.9642   -2.6317 C   0  0  0  0  0  0  0  0  0  0  0  0
    4.4351    1.6135   -2.8046 C   0  0  0  0  0  0  0  0  0  0  0  0
    4.1981    0.7810   -1.7222 C   0  0  0  0  0  0  0  0  0  0  0  0
    3.9658   -0.5683   -1.8917 C   0  0  0  0  0  0  0  0  0  0  0  0
    3.7278   -1.4157   -0.8303 C   0  0  0  0  0  0  0  0  0  0  0  0
    3.5046   -2.7242   -1.0210 F   0  0  0  0  0  0  0  0  0  0  0  0
    4.4687   -2.4435    2.2630 N   0  0  0  0  0  0  0  0  0  0  0  0
    4.1888   -4.7972    4.6504 H   0  0  0  0  0  0  0  0  0  0  0  0
    5.6599   -4.3918    3.6079 H   0  0  0  0  0  0  0  0  0  0  0  0
    5.1992   -3.2966    4.9393 H   0  0  0  0  0  0  0  0  0  0  0  0
    1.9151   -3.4335    3.8876 H   0  0  0  0  0  0  0  0  0  0  0  0
    1.2858   -0.4081    0.1715 H   0  0  0  0  0  0  0  0  0  0  0  0
   -1.1675   -2.0522   -0.7734 H   0  0  0  0  0  0  0  0  0  0  0  0
   -3.5395   -1.4453   -1.1649 H   0  0  0  0  0  0  0  0  0  0  0  0
   -5.5090    0.0799    1.8155 H   0  0  0  0  0  0  0  0  0  0  0  0
   -7.8887    0.7264    1.4295 H   0  0  0  0  0  0  0  0  0  0  0  0
   -8.5263    1.6917   -0.6985 H   0  0  0  0  0  0  0  0  0  0  0  0
   -6.8100    2.0432   -2.5061 H   0  0  0  0  0  0  0  0  0  0  0  0
   -5.3756    3.1560   -3.5746 H   0  0  0  0  0  0  0  0  0  0  0  0
   -5.4879    1.5988   -4.3551 H   0  0  0  0  0  0  0  0  0  0  0  0
   -3.0918    1.8877    1.4722 H   0  0  0  0  0  0  0  0  0  0  0  0
   -0.7523    1.2469    1.8569 H   0  0  0  0  0  0  0  0  0  0  0  0
    3.9366    0.8057    1.6488 H   0  0  0  0  0  0  0  0  0  0  0  0
    4.4048    2.9899    0.7557 H   0  0  0  0  0  0  0  0  0  0  0  0
    4.8363    4.5121   -1.2018 H   0  0  0  0  0  0  0  0  0  0  0  0
    4.8525    3.6133   -3.4807 H   0  0  0  0  0  0  0  0  0  0  0  0
    4.4410    1.2091   -3.8122 H   0  0  0  0  0  0  0  0  0  0  0  0
    3.9810   -0.9318   -2.9229 H   0  0  0  0  0  0  0  0  0  0  0  0
  1  2  1  0
  2  3  1  0
  3  4  2  0
  4  5  1  0
  5  6  2  0
  5  7  1  0
  7  8  1  0
  8  9  2  0
  9 10  1  0
 10 11  2  0
 11 12  1  0
 12 13  2  0
 13 14  1  0
 14 15  2  0
 15 16  1  0
 16 17  2  0
 17 18  1  0
 18 19  1  0
 18 20  2  0
 18 21  2  0
 11 22  1  0
 22 23  2  0
  4 24  1  0
 24 25  1  0
 25 26  2  0
 26 27  1  0
 27 28  2  0
 28 29  1  0
 29 30  2  0
 30 31  1  0
 31 32  2  0
 32 33  1  0
 33 34  2  0
 34 35  1  0
 24 36  1  0
 36  2  2  0
 23  8  1  0
 34 25  1  0
 17 12  1  0
 32 27  1  0
  1 37  1  0
  1 38  1  0
  1 39  1  0
  3 40  1  0
  7 41  1  0
  9 42  1  0
 10 43  1  0
 13 44  1  0
 14 45  1  0
 15 46  1  0
 16 47  1  0
 19 48  1  0
 19 49  1  0
 22 50  1  0
 23 51  1  0
 26 52  1  0
 28 53  1  0
 29 54  1  0
 30 55  1  0
 31 56  1  0
 33 57  1  0
M  END
$$$$
