
     RDKit          3D

 52 55  0  0  0  0  0  0  0  0999 V2000
    4.4092   -2.3424    0.2723 C   0  0  0  0  0  0  0  0  0  0  0  0
    3.9081   -0.9214    0.0743 C   0  0  1  0  0  0  0  0  0  0  0  0
    3.3563   -0.3938    1.2413 O   0  0  0  0  0  0  0  0  0  0  0  0
    2.0569   -0.0040    1.4662 C   0  0  0  0  0  0  0  0  0  0  0  0
    1.0592   -0.0782    0.5213 C   0  0  0  0  0  0  0  0  0  0  0  0
   -0.2487    0.3332    0.8053 C   0  0  0  0  0  0  0  0  0  0  0  0
   -1.2922    0.2494   -0.2040 C   0  0  0  0  0  0  0  0  0  0  0  0
   -1.1090    0.3925   -1.5616 C   0  0  0  0  0  0  0  0  0  0  0  0
   -2.2888    0.2551   -2.1990 N   0  0  0  0  0  0  0  0  0  0  0  0
   -3.2022    0.0303   -1.2755 N   0  0  0  0  0  0  0  0  0  0  0  0
   -4.5942   -0.1748   -1.5172 C   0  0  0  0  0  0  0  0  0  0  0  0
   -5.4021    1.0793   -1.2599 C   0  0  0  0  0  0  0  0  0  0  0  0
   -6.3454    0.9317   -0.0934 C   0  0  0  0  0  0  0  0  0  0  0  0
   -7.2842   -0.1540   -0.2817 N   0  0  0  0  0  0  0  0  0  0  0  0
   -6.6770   -1.2969   -0.9280 C   0  0  0  0  0  0  0  0  0  0  0  0
   -5.1680   -1.3205   -0.7095 C   0  0  0  0  0  0  0  0  0  0  0  0
   -2.6388    0.0176   -0.0334 C   0  0  0  0  0  0  0  0  0  0  0  0
   -0.4692    0.8115    2.0779 C   0  0  0  0  0  0  0  0  0  0  0  0
    0.5209    0.8744    2.9834 N   0  0  0  0  0  0  0  0  0  0  0  0
    1.7854    0.4898    2.7481 C   0  0  0  0  0  0  0  0  0  0  0  0
    2.7839    0.5835    3.7552 N   0  0  0  0  0  0  0  0  0  0  0  0
    4.9696   -0.0637   -0.5280 C   0  0  0  0  0  0  0  0  0  0  0  0
    5.8493    0.5656    0.3140 C   0  0  0  0  0  0  0  0  0  0  0  0
    5.6943    0.3326    2.0374 Cl  0  0  0  0  0  0  0  0  0  0  0  0
    6.8634    1.3842   -0.1862 C   0  0  0  0  0  0  0  0  0  0  0  0
    6.9457    1.5358   -1.5716 C   0  0  0  0  0  0  0  0  0  0  0  0
    6.0769    0.9165   -2.4374 C   0  0  0  0  0  0  0  0  0  0  0  0
    6.1642    1.0681   -3.7658 F   0  0  0  0  0  0  0  0  0  0  0  0
    5.0797    0.1081   -1.8921 C   0  0  0  0  0  0  0  0  0  0  0  0
    3.9573   -0.6950   -2.9625 Cl  0  0  0  0  0  0  0  0  0  0  0  0
    4.4562   -2.5034    1.3746 H   0  0  0  0  0  0  0  0  0  0  0  0
    5.3674   -2.5228   -0.2256 H   0  0  0  0  0  0  0  0  0  0  0  0
    3.6721   -3.0787   -0.1029 H   0  0  0  0  0  0  0  0  0  0  0  0
    3.1165   -0.9952   -0.6977 H   0  0  0  0  0  0  0  0  0  0  0  0
    1.2248   -0.4483   -0.4683 H   0  0  0  0  0  0  0  0  0  0  0  0
   -0.1843    0.5860   -2.0876 H   0  0  0  0  0  0  0  0  0  0  0  0
   -4.7486   -0.4377   -2.5794 H   0  0  0  0  0  0  0  0  0  0  0  0
   -5.9651    1.4109   -2.1501 H   0  0  0  0  0  0  0  0  0  0  0  0
   -4.6841    1.8850   -1.0028 H   0  0  0  0  0  0  0  0  0  0  0  0
   -6.9441    1.8672   -0.0491 H   0  0  0  0  0  0  0  0  0  0  0  0
   -5.7968    0.8572    0.8636 H   0  0  0  0  0  0  0  0  0  0  0  0
   -7.5895   -0.4690    0.6702 H   0  0  0  0  0  0  0  0  0  0  0  0
   -6.8219   -1.2068   -2.0287 H   0  0  0  0  0  0  0  0  0  0  0  0
   -7.0709   -2.2606   -0.6013 H   0  0  0  0  0  0  0  0  0  0  0  0
   -4.9538   -1.2312    0.3626 H   0  0  0  0  0  0  0  0  0  0  0  0
   -4.8156   -2.2817   -1.1456 H   0  0  0  0  0  0  0  0  0  0  0  0
   -3.1480   -0.1446    0.9214 H   0  0  0  0  0  0  0  0  0  0  0  0
   -1.4894    1.1384    2.3201 H   0  0  0  0  0  0  0  0  0  0  0  0
    2.9527    1.4909    4.2324 H   0  0  0  0  0  0  0  0  0  0  0  0
    3.3706   -0.2261    4.0490 H   0  0  0  0  0  0  0  0  0  0  0  0
    7.5636    1.8879    0.4449 H   0  0  0  0  0  0  0  0  0  0  0  0
    7.7275    2.1681   -1.9802 H   0  0  0  0  0  0  0  0  0  0  0  0
  1  2  1  0
  2  3  1  0
  3  4  1  0
  4  5  2  0
  5  6  1  0
  6  7  1  0
  7  8  1  0
  8  9  2  0
  9 10  1  0
 10 11  1  0
 11 12  1  0
 12 13  1  0
 13 14  1  0
 14 15  1  0
 15 16  1  0
 10 17  1  0
  6 18  2  0
 18 19  1  0
 19 20  2  0
 20 21  1  0
  2 22  1  0
 22 23  2  0
 23 24  1  0
 23 25  1  0
 25 26  2  0
 26 27  1  0
 27 28  1  0
 27 29  2  0
 29 30  1  0
 20  4  1  0
 29 22  1  0
 17  7  2  0
 16 11  1  0
  1 31  1  0
  1 32  1  0
  1 33  1  0
  2 34  1  6
  5 35  1  0
  8 36  1  0
 11 37  1  0
 12 38  1  0
 12 39  1  0
 13 40  1  0
 13 41  1  0
 14 42  1  0
 15 43  1  0
 15 44  1  0
 16 45  1  0
 16 46  1  0
 17 47  1  0
 18 48  1  0
 21 49  1  0
 21 50  1  0
 25 51  1  0
 26 52  1  0
M  END
$$$$
