
     RDKit          3D

 22 22  0  0  0  0  0  0  0  0999 V2000
    3.8076    0.0099   -0.0425 N   0  0  0  0  0  0  0  0  0  0  0  0
    2.4387    0.4788    0.1764 C   0  0  0  0  0  0  0  0  0  0  0  0
    1.5185   -0.6671   -0.1272 C   0  0  0  0  0  0  0  0  0  0  0  0
    0.0981   -0.3599    0.0446 C   0  0  0  0  0  0  0  0  0  0  0  0
   -0.6311    0.1362   -1.0151 C   0  0  0  0  0  0  0  0  0  0  0  0
   -1.9705    0.4203   -0.8344 C   0  0  0  0  0  0  0  0  0  0  0  0
   -2.7924    0.9247   -1.8432 O   0  0  0  0  0  0  0  0  0  0  0  0
   -2.5946    0.2194    0.3800 C   0  0  0  0  0  0  0  0  0  0  0  0
   -3.9363    0.4811    0.6387 O   0  0  0  0  0  0  0  0  0  0  0  0
   -1.8916   -0.2809    1.4763 C   0  0  0  0  0  0  0  0  0  0  0  0
   -0.5370   -0.5555    1.2505 C   0  0  0  0  0  0  0  0  0  0  0  0
    3.9411   -0.9558    0.3298 H   0  0  0  0  0  0  0  0  0  0  0  0
    3.8625   -0.0955   -1.0958 H   0  0  0  0  0  0  0  0  0  0  0  0
    2.3831    0.7637    1.2501 H   0  0  0  0  0  0  0  0  0  0  0  0
    2.2711    1.3650   -0.4224 H   0  0  0  0  0  0  0  0  0  0  0  0
    1.6859   -0.9631   -1.1888 H   0  0  0  0  0  0  0  0  0  0  0  0
    1.7984   -1.5300    0.5077 H   0  0  0  0  0  0  0  0  0  0  0  0
   -0.2209    0.3197   -1.9878 H   0  0  0  0  0  0  0  0  0  0  0  0
   -2.3025    1.4181   -2.5860 H   0  0  0  0  0  0  0  0  0  0  0  0
   -4.6638    0.2719   -0.0161 H   0  0  0  0  0  0  0  0  0  0  0  0
   -2.3276   -0.4541    2.4361 H   0  0  0  0  0  0  0  0  0  0  0  0
    0.0632   -0.9469    2.0652 H   0  0  0  0  0  0  0  0  0  0  0  0
  1  2  1  0
  2  3  1  0
  3  4  1  0
  4  5  2  0
  5  6  1  0
  6  7  1  0
  6  8  2  0
  8  9  1  0
  8 10  1  0
 10 11  2  0
 11  4  1  0
  1 12  1  0
  1 13  1  0
  2 14  1  0
  2 15  1  0
  3 16  1  0
  3 17  1  0
  5 18  1  0
  7 19  1  0
  9 20  1  0
 10 21  1  0
 11 22  1  0
M  END
$$$$
