
     RDKit          3D

 30 32  0  0  0  0  0  0  0  0999 V2000
    2.8023   -1.9027    0.0170 O   0  0  0  0  0  0  0  0  0  0  0  0
    2.3488   -0.7759   -0.2952 C   0  0  0  0  0  0  0  0  0  0  0  0
    0.9684   -0.4561    0.0838 C   0  0  0  0  0  0  0  0  0  0  0  0
    0.2392   -1.3436    0.7356 C   0  0  0  0  0  0  0  0  0  0  0  0
   -1.1289   -1.0822    1.1350 C   0  0  0  0  0  0  0  0  0  0  0  0
   -1.8170   -2.0872    1.8217 C   0  0  0  0  0  0  0  0  0  0  0  0
   -3.1193   -1.9085    2.2319 C   0  0  0  0  0  0  0  0  0  0  0  0
   -3.7963   -0.7343    1.9829 C   0  0  0  0  0  0  0  0  0  0  0  0
   -3.1150    0.2624    1.3022 C   0  0  0  0  0  0  0  0  0  0  0  0
   -1.7940    0.0857    0.8842 C   0  0  0  0  0  0  0  0  0  0  0  0
   -3.9944    1.3213    1.1781 O   0  0  0  0  0  0  0  0  0  0  0  0
   -5.3207    0.8322    1.3928 C   0  0  0  0  0  0  0  0  0  0  0  0
   -5.0765   -0.2673    2.2616 O   0  0  0  0  0  0  0  0  0  0  0  0
    3.1754    0.1569   -1.0028 C   0  0  0  0  0  0  0  0  0  0  0  0
    2.7572    1.4100   -1.3823 C   0  0  0  0  0  0  0  0  0  0  0  0
    3.5758    2.2848   -2.0621 C   0  0  0  0  0  0  0  0  0  0  0  0
    4.8512    1.8855   -2.3679 C   0  0  0  0  0  0  0  0  0  0  0  0
    5.2921    0.6462   -2.0028 N   0  0  0  0  0  0  0  0  0  0  0  0
    4.4838   -0.1949   -1.3413 C   0  0  0  0  0  0  0  0  0  0  0  0
    0.5161    0.4915   -0.1523 H   0  0  0  0  0  0  0  0  0  0  0  0
    0.7123   -2.3186    0.9757 H   0  0  0  0  0  0  0  0  0  0  0  0
   -1.3313   -3.0257    2.0415 H   0  0  0  0  0  0  0  0  0  0  0  0
   -3.5949   -2.7161    2.7549 H   0  0  0  0  0  0  0  0  0  0  0  0
   -1.3289    0.9002    0.3623 H   0  0  0  0  0  0  0  0  0  0  0  0
   -5.7237    0.5166    0.4207 H   0  0  0  0  0  0  0  0  0  0  0  0
   -5.8900    1.6365    1.8823 H   0  0  0  0  0  0  0  0  0  0  0  0
    1.7561    1.7313   -1.1456 H   0  0  0  0  0  0  0  0  0  0  0  0
    3.2201    3.2597   -2.3460 H   0  0  0  0  0  0  0  0  0  0  0  0
    5.4837    2.5843   -2.9029 H   0  0  0  0  0  0  0  0  0  0  0  0
    4.8483   -1.1922   -1.0511 H   0  0  0  0  0  0  0  0  0  0  0  0
  1  2  2  0
  2  3  1  0
  3  4  2  0
  4  5  1  0
  5  6  2  0
  6  7  1  0
  7  8  2  0
  8  9  1  0
  9 10  2  0
  9 11  1  0
 11 12  1  0
 12 13  1  0
  2 14  1  0
 14 15  2  0
 15 16  1  0
 16 17  2  0
 17 18  1  0
 18 19  2  0
 10  5  1  0
 19 14  1  0
 13  8  1  0
  3 20  1  0
  4 21  1  0
  6 22  1  0
  7 23  1  0
 10 24  1  0
 12 25  1  0
 12 26  1  0
 15 27  1  0
 16 28  1  0
 17 29  1  0
 19 30  1  0
M  END
$$$$
