
     RDKit          3D

 37 38  0  0  0  0  0  0  0  0999 V2000
   -4.6995   -2.1268    0.1735 C   0  0  0  0  0  0  0  0  0  0  0  0
   -4.3469   -0.8511    0.8647 C   0  0  0  0  0  0  0  0  0  0  0  0
   -3.5810    0.1150   -0.0183 C   0  0  0  0  0  0  0  0  0  0  0  0
   -3.3058    1.3404    0.8246 C   0  0  0  0  0  0  0  0  0  0  0  0
   -2.5506    2.4110    0.0971 C   0  0  0  0  0  0  0  0  0  0  0  0
   -1.2181    1.8577   -0.3512 C   0  0  0  0  0  0  0  0  0  0  0  0
   -0.4591    1.4260    0.7599 O   0  0  0  0  0  0  0  0  0  0  0  0
    0.7998    0.8880    0.5155 C   0  0  0  0  0  0  0  0  0  0  0  0
    1.5650    0.4554    1.6041 C   0  0  0  0  0  0  0  0  0  0  0  0
    2.7955   -0.0697    1.3566 C   0  0  0  0  0  0  0  0  0  0  0  0
    3.2966   -0.1832    0.0797 C   0  0  0  0  0  0  0  0  0  0  0  0
    4.5806   -0.7326   -0.1620 N   0  0  0  0  0  0  0  0  0  0  0  0
    4.9772   -2.0001   -0.1215 C   0  0  0  0  0  0  0  0  0  0  0  0
    6.3216   -2.0755   -0.4271 C   0  0  0  0  0  0  0  0  0  0  0  0
    6.7280   -0.8170   -0.6538 N   0  0  0  0  0  0  0  0  0  0  0  0
    5.6708   -0.0038   -0.4927 C   0  0  0  0  0  0  0  0  0  0  0  0
    2.4903    0.2622   -0.9444 C   0  0  0  0  0  0  0  0  0  0  0  0
    1.2724    0.7845   -0.7298 N   0  0  0  0  0  0  0  0  0  0  0  0
   -4.4234   -2.1545   -0.8987 H   0  0  0  0  0  0  0  0  0  0  0  0
   -4.2161   -3.0101    0.6757 H   0  0  0  0  0  0  0  0  0  0  0  0
   -5.7976   -2.2951    0.3022 H   0  0  0  0  0  0  0  0  0  0  0  0
   -5.2544   -0.2802    1.2156 H   0  0  0  0  0  0  0  0  0  0  0  0
   -3.7633   -1.0880    1.7759 H   0  0  0  0  0  0  0  0  0  0  0  0
   -4.1479    0.3583   -0.9369 H   0  0  0  0  0  0  0  0  0  0  0  0
   -2.6084   -0.3116   -0.3425 H   0  0  0  0  0  0  0  0  0  0  0  0
   -4.3127    1.7141    1.1754 H   0  0  0  0  0  0  0  0  0  0  0  0
   -2.7890    0.9891    1.7348 H   0  0  0  0  0  0  0  0  0  0  0  0
   -2.3424    3.2197    0.8412 H   0  0  0  0  0  0  0  0  0  0  0  0
   -3.1255    2.8576   -0.7127 H   0  0  0  0  0  0  0  0  0  0  0  0
   -1.3167    1.0501   -1.1043 H   0  0  0  0  0  0  0  0  0  0  0  0
   -0.6892    2.6888   -0.8883 H   0  0  0  0  0  0  0  0  0  0  0  0
    1.1700    0.5436    2.6246 H   0  0  0  0  0  0  0  0  0  0  0  0
    3.3845   -0.4031    2.1997 H   0  0  0  0  0  0  0  0  0  0  0  0
    4.3571   -2.8643    0.1137 H   0  0  0  0  0  0  0  0  0  0  0  0
    6.9532   -2.9478   -0.4828 H   0  0  0  0  0  0  0  0  0  0  0  0
    5.7215    1.0710   -0.6172 H   0  0  0  0  0  0  0  0  0  0  0  0
    2.8638    0.1819   -1.9469 H   0  0  0  0  0  0  0  0  0  0  0  0
  1  2  1  0
  2  3  1  0
  3  4  1  0
  4  5  1  0
  5  6  1  0
  6  7  1  0
  7  8  1  0
  8  9  2  0
  9 10  1  0
 10 11  2  0
 11 12  1  0
 12 13  1  0
 13 14  2  0
 14 15  1  0
 15 16  2  0
 11 17  1  0
 17 18  2  0
 18  8  1  0
 16 12  1  0
  1 19  1  0
  1 20  1  0
  1 21  1  0
  2 22  1  0
  2 23  1  0
  3 24  1  0
  3 25  1  0
  4 26  1  0
  4 27  1  0
  5 28  1  0
  5 29  1  0
  6 30  1  0
  6 31  1  0
  9 32  1  0
 10 33  1  0
 13 34  1  0
 14 35  1  0
 16 36  1  0
 17 37  1  0
M  END
$$$$
