
     RDKit          3D

 52 53  0  0  0  0  0  0  0  0999 V2000
    9.7018    0.7113    0.8971 C   0  0  0  0  0  0  0  0  0  0  0  0
    8.8420    0.5344   -0.0726 C   0  0  0  0  0  0  0  0  0  0  0  0
    7.4932    0.0722    0.2327 C   0  0  0  0  0  0  0  0  0  0  0  0
    7.2256   -0.1353    1.4384 O   0  0  0  0  0  0  0  0  0  0  0  0
    6.5799   -0.1146   -0.8087 N   0  0  0  0  0  0  0  0  0  0  0  0
    5.2577   -0.5533   -0.6517 C   0  0  0  0  0  0  0  0  0  0  0  0
    4.4645   -0.6901   -1.8086 C   0  0  0  0  0  0  0  0  0  0  0  0
    3.1700   -1.1128   -1.7220 C   0  0  0  0  0  0  0  0  0  0  0  0
    2.5988   -1.4180   -0.5083 C   0  0  0  0  0  0  0  0  0  0  0  0
    0.9709   -1.9514   -0.3814 S   0  0  0  0  0  6  0  0  0  0  0  0
    0.3069   -2.0545   -1.7274 O   0  0  0  0  0  0  0  0  0  0  0  0
    0.8724   -3.3206    0.2788 O   0  0  0  0  0  0  0  0  0  0  0  0
    0.0033   -0.8910    0.5989 N   0  0  0  0  0  0  0  0  0  0  0  0
   -0.0500    0.4244    0.0221 C   0  0  0  0  0  0  0  0  0  0  0  0
   -1.2671    1.2075    0.4567 C   0  0  0  0  0  0  0  0  0  0  0  0
   -2.4428    0.4437    0.0987 N   0  0  0  0  0  0  0  0  0  0  0  0
   -3.7501    1.0128    0.1330 C   0  0  0  0  0  0  0  0  0  0  0  0
   -3.9414    2.2082    0.4770 O   0  0  0  0  0  0  0  0  0  0  0  0
   -4.8873    0.3001   -0.2053 O   0  0  0  0  0  0  0  0  0  0  0  0
   -6.1832    0.8420   -0.1781 C   0  0  0  0  0  0  0  0  0  0  0  0
   -6.3556    2.0223   -1.0915 C   0  0  0  0  0  0  0  0  0  0  0  0
   -7.1044   -0.2587   -0.7181 C   0  0  0  0  0  0  0  0  0  0  0  0
   -6.6461    1.1941    1.2057 C   0  0  0  0  0  0  0  0  0  0  0  0
   -2.2053   -0.9303   -0.2948 C   0  0  0  0  0  0  0  0  0  0  0  0
   -1.2769   -1.5094    0.7550 C   0  0  0  0  0  0  0  0  0  0  0  0
    3.3749   -1.2827    0.6095 C   0  0  0  0  0  0  0  0  0  0  0  0
    2.7070   -1.6567    2.1973 Cl  0  0  0  0  0  0  0  0  0  0  0  0
    4.7049   -0.8528    0.5642 C   0  0  0  0  0  0  0  0  0  0  0  0
    9.4149    0.5169    1.9122 H   0  0  0  0  0  0  0  0  0  0  0  0
   10.7057    1.0564    0.6597 H   0  0  0  0  0  0  0  0  0  0  0  0
    9.1202    0.7257   -1.0843 H   0  0  0  0  0  0  0  0  0  0  0  0
    6.9292    0.0954   -1.7801 H   0  0  0  0  0  0  0  0  0  0  0  0
    4.9166   -0.4470   -2.7836 H   0  0  0  0  0  0  0  0  0  0  0  0
    2.5726   -1.2105   -2.6458 H   0  0  0  0  0  0  0  0  0  0  0  0
    0.8516    0.9771    0.3724 H   0  0  0  0  0  0  0  0  0  0  0  0
    0.0237    0.3738   -1.0740 H   0  0  0  0  0  0  0  0  0  0  0  0
   -1.2735    2.1508   -0.1278 H   0  0  0  0  0  0  0  0  0  0  0  0
   -1.1978    1.4164    1.5396 H   0  0  0  0  0  0  0  0  0  0  0  0
   -7.4317    2.0573   -1.3749 H   0  0  0  0  0  0  0  0  0  0  0  0
   -5.7957    1.8982   -2.0507 H   0  0  0  0  0  0  0  0  0  0  0  0
   -6.1312    2.9872   -0.5988 H   0  0  0  0  0  0  0  0  0  0  0  0
   -6.8590   -0.3330   -1.8063 H   0  0  0  0  0  0  0  0  0  0  0  0
   -8.1634   -0.0112   -0.5503 H   0  0  0  0  0  0  0  0  0  0  0  0
   -6.8589   -1.2444   -0.2720 H   0  0  0  0  0  0  0  0  0  0  0  0
   -5.9788    1.8966    1.7125 H   0  0  0  0  0  0  0  0  0  0  0  0
   -7.6482    1.6730    1.1026 H   0  0  0  0  0  0  0  0  0  0  0  0
   -6.7808    0.2857    1.8463 H   0  0  0  0  0  0  0  0  0  0  0  0
   -1.7214   -0.9784   -1.2899 H   0  0  0  0  0  0  0  0  0  0  0  0
   -3.1956   -1.4564   -0.2941 H   0  0  0  0  0  0  0  0  0  0  0  0
   -1.2628   -2.6068    0.5976 H   0  0  0  0  0  0  0  0  0  0  0  0
   -1.6454   -1.2879    1.7689 H   0  0  0  0  0  0  0  0  0  0  0  0
    5.2460   -0.7757    1.5129 H   0  0  0  0  0  0  0  0  0  0  0  0
  1  2  2  3
  2  3  1  0
  3  4  2  0
  3  5  1  0
  5  6  1  0
  6  7  2  0
  7  8  1  0
  8  9  2  0
  9 10  1  0
 10 11  2  0
 10 12  2  0
 10 13  1  0
 13 14  1  0
 14 15  1  0
 15 16  1  0
 16 17  1  0
 17 18  2  0
 17 19  1  0
 19 20  1  0
 20 21  1  0
 20 22  1  0
 20 23  1  0
 16 24  1  0
 24 25  1  0
  9 26  1  0
 26 27  1  0
 26 28  2  0
 28  6  1  0
 25 13  1  0
  1 29  1  0
  1 30  1  0
  2 31  1  0
  5 32  1  0
  7 33  1  0
  8 34  1  0
 14 35  1  0
 14 36  1  0
 15 37  1  0
 15 38  1  0
 21 39  1  0
 21 40  1  0
 21 41  1  0
 22 42  1  0
 22 43  1  0
 22 44  1  0
 23 45  1  0
 23 46  1  0
 23 47  1  0
 24 48  1  0
 24 49  1  0
 25 50  1  0
 25 51  1  0
 28 52  1  0
M  END
$$$$
