
     RDKit          3D

 42 44  0  0  0  0  0  0  0  0999 V2000
    7.6316    2.3560   -1.1278 O   0  0  0  0  0  0  0  0  0  0  0  0
    6.3291    2.2345   -0.7263 C   0  0  0  0  0  0  0  0  0  0  0  0
    5.6935    3.3288   -0.6027 O   0  0  0  0  0  0  0  0  0  0  0  0
    5.7108    0.9278   -0.4574 C   0  0  0  0  0  0  0  0  0  0  0  0
    4.3905    0.9345   -0.0585 C   0  0  0  0  0  0  0  0  0  0  0  0
    3.7778   -0.2697    0.2022 C   0  0  0  0  0  0  0  0  0  0  0  0
    4.4801   -1.4440    0.0635 C   0  0  0  0  0  0  0  0  0  0  0  0
    5.8088   -1.4533   -0.3377 C   0  0  0  0  0  0  0  0  0  0  0  0
    6.4288   -0.2497   -0.6007 C   0  0  0  0  0  0  0  0  0  0  0  0
    7.7448   -0.2094   -1.0012 O   0  0  0  0  0  0  0  0  0  0  0  0
    2.4386   -0.5078    0.6222 N   0  0  0  0  0  0  0  0  0  0  0  0
    1.4971   -0.5555   -0.2390 N   0  0  0  0  0  0  0  0  0  0  0  0
    0.1969   -0.7985    0.2834 C   0  0  0  0  0  0  0  0  0  0  0  0
   -0.4738   -2.0029    0.2409 C   0  0  0  0  0  0  0  0  0  0  0  0
   -1.7339   -2.0755    0.7941 C   0  0  0  0  0  0  0  0  0  0  0  0
   -2.3996   -1.0047    1.4071 C   0  0  0  0  0  0  0  0  0  0  0  0
   -1.7042    0.1659    1.4289 C   0  0  0  0  0  0  0  0  0  0  0  0
   -0.4479    0.2622    0.8841 C   0  0  0  0  0  0  0  0  0  0  0  0
   -3.9813   -1.4059    2.0268 S   0  0  0  0  0  0  0  0  0  0  0  0
   -3.9129   -2.7527    2.6375 O   0  0  0  0  0  0  0  0  0  0  0  0
   -4.3487   -0.4324    3.1182 O   0  0  0  0  0  0  0  0  0  0  0  0
   -5.1128   -1.3288    0.7290 N   0  0  0  0  0  0  0  0  0  0  0  0
   -5.5340   -0.2747   -0.1171 C   0  0  0  0  0  0  0  0  0  0  0  0
   -6.4589   -0.4748   -1.0990 N   0  0  0  0  0  0  0  0  0  0  0  0
   -6.8003    0.5844   -1.8447 C   0  0  0  0  0  0  0  0  0  0  0  0
   -6.3243    1.8575   -1.7350 C   0  0  0  0  0  0  0  0  0  0  0  0
   -5.3901    2.0719   -0.7472 C   0  0  0  0  0  0  0  0  0  0  0  0
   -5.0286    0.9909    0.0287 C   0  0  0  0  0  0  0  0  0  0  0  0
    8.2130    3.0992   -0.7363 H   0  0  0  0  0  0  0  0  0  0  0  0
    3.7591    1.7928    0.0786 H   0  0  0  0  0  0  0  0  0  0  0  0
    4.1036   -2.4519    0.2405 H   0  0  0  0  0  0  0  0  0  0  0  0
    6.3997   -2.3502   -0.4602 H   0  0  0  0  0  0  0  0  0  0  0  0
    8.5226    0.0047   -0.3919 H   0  0  0  0  0  0  0  0  0  0  0  0
    0.0183   -2.8219   -0.2202 H   0  0  0  0  0  0  0  0  0  0  0  0
   -2.1788   -3.0794    0.7066 H   0  0  0  0  0  0  0  0  0  0  0  0
   -2.2466    0.9702    1.9160 H   0  0  0  0  0  0  0  0  0  0  0  0
    0.0012    1.2567    0.9670 H   0  0  0  0  0  0  0  0  0  0  0  0
   -5.5868   -2.2626    0.5271 H   0  0  0  0  0  0  0  0  0  0  0  0
   -7.5461    0.3783   -2.6213 H   0  0  0  0  0  0  0  0  0  0  0  0
   -6.6517    2.6602   -2.3781 H   0  0  0  0  0  0  0  0  0  0  0  0
   -4.9888    3.0726   -0.6303 H   0  0  0  0  0  0  0  0  0  0  0  0
   -4.2957    1.2569    0.7780 H   0  0  0  0  0  0  0  0  0  0  0  0
  1  2  1  0
  2  3  2  0
  2  4  1  0
  4  5  2  0
  5  6  1  0
  6  7  2  0
  7  8  1  0
  8  9  2  0
  9 10  1  0
  6 11  1  0
 11 12  2  0
 12 13  1  0
 13 14  2  0
 14 15  1  0
 15 16  2  0
 16 17  1  0
 17 18  2  0
 16 19  1  0
 19 20  2  0
 19 21  2  0
 19 22  1  0
 22 23  1  0
 23 24  2  0
 24 25  1  0
 25 26  2  0
 26 27  1  0
 27 28  2  0
  9  4  1  0
 18 13  1  0
 28 23  1  0
  1 29  1  0
  5 30  1  0
  7 31  1  0
  8 32  1  0
 10 33  1  0
 14 34  1  0
 15 35  1  0
 17 36  1  0
 18 37  1  0
 22 38  1  0
 25 39  1  0
 26 40  1  0
 27 41  1  0
 28 42  1  0
M  END
$$$$
