
     RDKit          3D

 75 78  0  0  0  0  0  0  0  0999 V2000
    8.8179    3.4163    1.5952 C   0  0  0  0  0  0  0  0  0  0  0  0
    8.0627    2.6117    0.9992 O   0  0  0  0  0  0  0  0  0  0  0  0
    7.2704    1.7731    0.3717 C   0  0  0  0  0  0  0  0  0  0  0  0
    6.5163    2.1344   -0.6887 C   0  0  0  0  0  0  0  0  0  0  0  0
    5.6707    1.2068   -1.3885 C   0  0  0  0  0  0  0  0  0  0  0  0
    5.6651   -0.0768   -0.8960 C   0  0  0  0  0  0  0  0  0  0  0  0
    4.8354   -1.0392   -1.6526 C   0  0  0  0  0  0  0  0  0  0  0  0
    3.8189   -1.7906   -0.8797 C   0  0  0  0  0  0  0  0  0  0  0  0
    2.8591   -1.3630   -0.1052 N   0  0  0  0  0  0  0  0  0  0  0  0
    1.6357   -0.7391    0.0028 C   0  0  0  0  0  0  0  0  0  0  0  0
    1.3458    0.5384    0.0267 N   0  0  0  0  0  0  0  0  0  0  0  0
    0.0626    0.9270    0.1826 C   0  0  0  0  0  0  0  0  0  0  0  0
   -1.0044    0.1729    0.3140 C   0  0  0  0  0  0  0  0  0  0  0  0
   -2.4350    0.5582    0.3529 C   0  0  0  0  0  0  0  0  0  0  0  0
   -3.3835    0.0541    0.0188 O   0  0  0  0  0  0  0  0  0  0  0  0
   -2.6413    1.8888    0.9875 N   0  0  0  0  0  0  0  0  0  0  0  0
   -3.4833    2.8257    1.3730 C   0  0  0  0  0  0  0  0  0  0  0  0
   -4.6071    3.4105    0.5282 C   0  0  0  0  0  0  0  0  0  0  0  0
   -5.7199    2.4667    0.5292 C   0  0  0  0  0  0  0  0  0  0  0  0
   -6.9360    2.7395   -0.2065 N   0  0  0  0  0  0  0  0  0  0  0  0
   -7.3167    2.3399   -1.5191 C   0  0  0  0  0  0  0  0  0  0  0  0
   -8.7967    2.2168   -1.5221 C   0  0  0  0  0  0  0  0  0  0  0  0
   -9.2916    2.7932   -0.2256 C   0  0  0  0  0  0  0  0  0  0  0  0
   -8.0589    3.4625    0.3425 C   0  0  0  0  0  0  0  0  0  0  0  0
   -8.0441    4.4114    1.1112 O   0  0  0  0  0  0  0  0  0  0  0  0
   -0.7067   -1.2329    0.2945 C   0  0  0  0  0  0  0  0  0  0  0  0
   -1.7944   -2.1270    0.4683 N   0  0  0  0  0  0  0  0  0  0  0  0
   -1.3594   -3.5715    0.4271 C   0  0  0  0  0  0  0  0  0  0  0  0
   -0.3180   -3.8111   -0.5942 C   0  0  0  0  0  0  0  0  0  0  0  0
   -0.5628   -5.2141   -1.1474 C   0  0  0  0  0  0  0  0  0  0  0  0
   -1.9897   -5.5489   -0.8171 C   0  0  0  0  0  0  0  0  0  0  0  0
   -2.5598   -4.3561   -0.1219 C   0  0  0  0  0  0  0  0  0  0  0  0
    0.5463   -1.6640    0.1451 N   0  0  0  0  0  0  0  0  0  0  0  0
    6.3867   -0.4519    0.1436 C   0  0  0  0  0  0  0  0  0  0  0  0
    7.2436    0.4602    0.8401 C   0  0  0  0  0  0  0  0  0  0  0  0
    7.9844    0.0059    1.8805 O   0  0  0  0  0  0  0  0  0  0  0  0
    7.9988   -1.3695    2.1845 C   0  0  0  0  0  0  0  0  0  0  0  0
    9.2355    3.0571    2.5983 H   0  0  0  0  0  0  0  0  0  0  0  0
    9.7674    3.7811    1.0396 H   0  0  0  0  0  0  0  0  0  0  0  0
    8.3895    4.4457    1.8830 H   0  0  0  0  0  0  0  0  0  0  0  0
    6.5365    3.1250   -1.0824 H   0  0  0  0  0  0  0  0  0  0  0  0
    5.1464    1.5682   -2.2354 H   0  0  0  0  0  0  0  0  0  0  0  0
    4.3506   -0.5574   -2.5571 H   0  0  0  0  0  0  0  0  0  0  0  0
    5.5249   -1.8102   -2.1416 H   0  0  0  0  0  0  0  0  0  0  0  0
    4.3558   -2.7279   -0.4174 H   0  0  0  0  0  0  0  0  0  0  0  0
    3.2750   -2.4067   -1.7815 H   0  0  0  0  0  0  0  0  0  0  0  0
    3.0800   -1.7108    1.0326 H   0  0  0  0  0  0  0  0  0  0  0  0
   -0.1208    2.0611    0.1204 H   0  0  0  0  0  0  0  0  0  0  0  0
   -1.5323    2.1609    1.3032 H   0  0  0  0  0  0  0  0  0  0  0  0
   -2.8790    3.7769    1.6857 H   0  0  0  0  0  0  0  0  0  0  0  0
   -4.0144    2.6338    2.3941 H   0  0  0  0  0  0  0  0  0  0  0  0
   -4.1504    3.7051   -0.4245 H   0  0  0  0  0  0  0  0  0  0  0  0
   -4.9276    4.3886    1.0161 H   0  0  0  0  0  0  0  0  0  0  0  0
   -5.4498    1.4051    0.2705 H   0  0  0  0  0  0  0  0  0  0  0  0
   -6.0277    2.3320    1.6396 H   0  0  0  0  0  0  0  0  0  0  0  0
   -6.9927    3.0100   -2.3405 H   0  0  0  0  0  0  0  0  0  0  0  0
   -6.8410    1.3140   -1.6725 H   0  0  0  0  0  0  0  0  0  0  0  0
   -9.2251    2.8295   -2.3452 H   0  0  0  0  0  0  0  0  0  0  0  0
   -9.1299    1.1469   -1.6379 H   0  0  0  0  0  0  0  0  0  0  0  0
  -10.1379    3.5115   -0.3439 H   0  0  0  0  0  0  0  0  0  0  0  0
   -9.5421    2.0012    0.5283 H   0  0  0  0  0  0  0  0  0  0  0  0
   -2.7490   -1.9727    0.5986 H   0  0  0  0  0  0  0  0  0  0  0  0
   -1.1675   -3.8520    1.4583 H   0  0  0  0  0  0  0  0  0  0  0  0
   -0.4677   -3.0952   -1.4344 H   0  0  0  0  0  0  0  0  0  0  0  0
    0.7342   -3.7740   -0.1941 H   0  0  0  0  0  0  0  0  0  0  0  0
   -0.2623   -5.2951   -2.1980 H   0  0  0  0  0  0  0  0  0  0  0  0
    0.1352   -5.9016   -0.5564 H   0  0  0  0  0  0  0  0  0  0  0  0
   -2.0382   -6.5025   -0.2052 H   0  0  0  0  0  0  0  0  0  0  0  0
   -2.5611   -5.7289   -1.7544 H   0  0  0  0  0  0  0  0  0  0  0  0
   -3.0900   -3.6780   -0.8398 H   0  0  0  0  0  0  0  0  0  0  0  0
   -3.2399   -4.6488    0.7172 H   0  0  0  0  0  0  0  0  0  0  0  0
    6.3669   -1.4574    0.5800 H   0  0  0  0  0  0  0  0  0  0  0  0
    8.2358   -1.9070    1.2354 H   0  0  0  0  0  0  0  0  0  0  0  0
    8.7124   -1.6007    2.9801 H   0  0  0  0  0  0  0  0  0  0  0  0
    6.9895   -1.6852    2.5262 H   0  0  0  0  0  0  0  0  0  0  0  0
  1  2  1  0
  2  3  1  0
  3  4  2  0
  4  5  1  0
  5  6  2  0
  6  7  1  0
  7  8  1  0
  8  9  1  0
  9 10  1  0
 10 11  2  0
 11 12  1  0
 12 13  2  0
 13 14  1  0
 14 15  2  0
 14 16  1  0
 16 17  1  0
 17 18  1  0
 18 19  1  0
 19 20  1  0
 20 21  1  0
 21 22  1  0
 22 23  1  0
 23 24  1  0
 24 25  2  0
 13 26  1  0
 26 27  1  0
 27 28  1  0
 28 29  1  0
 29 30  1  0
 30 31  1  0
 31 32  1  0
 26 33  2  0
  6 34  1  0
 34 35  2  0
 35 36  1  0
 36 37  1  0
 35  3  1  0
 33 10  1  0
 24 20  1  0
 32 28  1  0
  1 38  1  0
  1 39  1  0
  1 40  1  0
  4 41  1  0
  5 42  1  0
  7 43  1  0
  7 44  1  0
  8 45  1  0
  8 46  1  0
  9 47  1  0
 12 48  1  0
 16 49  1  0
 17 50  1  0
 17 51  1  0
 18 52  1  0
 18 53  1  0
 19 54  1  0
 19 55  1  0
 21 56  1  0
 21 57  1  0
 22 58  1  0
 22 59  1  0
 23 60  1  0
 23 61  1  0
 27 62  1  0
 28 63  1  0
 29 64  1  0
 29 65  1  0
 30 66  1  0
 30 67  1  0
 31 68  1  0
 31 69  1  0
 32 70  1  0
 32 71  1  0
 34 72  1  0
 37 73  1  0
 37 74  1  0
 37 75  1  0
M  END
$$$$
