
     RDKit          3D

 39 41  0  0  0  0  0  0  0  0999 V2000
    5.5404    0.0680    1.5350 C   0  0  0  0  0  0  0  0  0  0  0  0
    5.0978   -0.0698    0.0801 C   0  0  0  0  0  0  0  0  0  0  0  0
    4.4960    1.2360   -0.3309 C   0  0  0  0  0  0  0  0  0  0  0  0
    3.5392    1.1165   -1.4842 C   0  0  0  0  0  0  0  0  0  0  0  0
    2.4537    0.2090   -1.0518 C   0  0  0  0  0  0  0  0  0  0  0  0
    1.2059    0.4561   -1.2819 N   0  0  0  0  0  0  0  0  0  0  0  0
    0.1824   -0.3940   -0.8773 N   0  0  0  0  0  0  0  0  0  0  0  0
   -1.1451    0.1500   -0.7557 C   0  0  0  0  0  0  0  0  0  0  0  0
   -2.2512   -0.1640   -0.4665 N   0  0  0  0  0  0  0  0  0  0  0  0
   -3.3390    0.5441   -0.4311 C   0  0  0  0  0  0  0  0  0  0  0  0
   -4.6768    0.0418   -0.0513 C   0  0  0  0  0  0  0  0  0  0  0  0
   -5.7715    0.8578   -0.0410 C   0  0  0  0  0  0  0  0  0  0  0  0
   -7.0278    0.4085    0.3102 C   0  0  0  0  0  0  0  0  0  0  0  0
   -7.1766   -0.9062    0.6606 C   0  0  0  0  0  0  0  0  0  0  0  0
   -8.3938   -1.3832    1.0110 F   0  0  0  0  0  0  0  0  0  0  0  0
   -6.0959   -1.7521    0.6603 C   0  0  0  0  0  0  0  0  0  0  0  0
   -4.8596   -1.2712    0.3052 C   0  0  0  0  0  0  0  0  0  0  0  0
   -3.8082   -2.0990    0.3061 F   0  0  0  0  0  0  0  0  0  0  0  0
   -3.1754    1.8932   -0.7928 C   0  0  0  0  0  0  0  0  0  0  0  0
   -1.4311    1.9739   -1.1474 S   0  0  0  0  0  0  0  0  0  0  0  0
    2.7952   -1.0177   -0.3356 C   0  0  0  0  0  0  0  0  0  0  0  0
    4.2286   -1.2588   -0.1027 C   0  0  0  0  0  0  0  0  0  0  0  0
    6.0724    1.0514    1.5994 H   0  0  0  0  0  0  0  0  0  0  0  0
    6.2666   -0.7149    1.8200 H   0  0  0  0  0  0  0  0  0  0  0  0
    4.6328    0.0846    2.1492 H   0  0  0  0  0  0  0  0  0  0  0  0
    6.0324   -0.2119   -0.5027 H   0  0  0  0  0  0  0  0  0  0  0  0
    5.2985    1.9589   -0.6063 H   0  0  0  0  0  0  0  0  0  0  0  0
    3.9461    1.6887    0.5193 H   0  0  0  0  0  0  0  0  0  0  0  0
    3.1343    2.1279   -1.6924 H   0  0  0  0  0  0  0  0  0  0  0  0
    4.0243    0.6590   -2.3743 H   0  0  0  0  0  0  0  0  0  0  0  0
    0.3665   -1.3959   -0.6674 H   0  0  0  0  0  0  0  0  0  0  0  0
   -5.7007    1.9077   -0.3116 H   0  0  0  0  0  0  0  0  0  0  0  0
   -7.8854    1.0522    0.3172 H   0  0  0  0  0  0  0  0  0  0  0  0
   -6.1996   -2.8037    0.9376 H   0  0  0  0  0  0  0  0  0  0  0  0
   -3.8845    2.6635   -0.8453 H   0  0  0  0  0  0  0  0  0  0  0  0
    2.3456   -1.8723   -0.9219 H   0  0  0  0  0  0  0  0  0  0  0  0
    2.2138   -1.0220    0.6312 H   0  0  0  0  0  0  0  0  0  0  0  0
    4.3349   -1.9034    0.8088 H   0  0  0  0  0  0  0  0  0  0  0  0
    4.6147   -1.9087   -0.9427 H   0  0  0  0  0  0  0  0  0  0  0  0
  1  2  1  0
  2  3  1  0
  3  4  1  0
  4  5  1  0
  5  6  2  3
  6  7  1  0
  7  8  1  0
  8  9  2  0
  9 10  1  0
 10 11  1  0
 11 12  2  0
 12 13  1  0
 13 14  2  0
 14 15  1  0
 14 16  1  0
 16 17  2  0
 17 18  1  0
 10 19  2  0
 19 20  1  0
  5 21  1  0
 21 22  1  0
 22  2  1  0
 20  8  1  0
 17 11  1  0
  1 23  1  0
  1 24  1  0
  1 25  1  0
  2 26  1  0
  3 27  1  0
  3 28  1  0
  4 29  1  0
  4 30  1  0
  7 31  1  0
 12 32  1  0
 13 33  1  0
 16 34  1  0
 19 35  1  0
 21 36  1  0
 21 37  1  0
 22 38  1  0
 22 39  1  0
M  END
$$$$
