
     RDKit          3D

 24 26  0  0  0  0  0  0  0  0999 V2000
    1.8047   -0.8397   -1.9944 O   0  0  0  0  0  0  0  0  0  0  0  0
    2.1467   -0.6078   -0.8071 C   0  0  0  0  0  0  0  0  0  0  0  0
    3.3860   -0.8944   -0.3877 N   0  0  0  0  0  0  0  0  0  0  0  0
    3.9204   -0.7168    0.8309 C   0  0  0  0  0  0  0  0  0  0  0  0
    3.0777   -0.1781    1.7307 N   0  0  0  0  0  0  0  0  0  0  0  0
    1.8084    0.1485    1.4154 C   0  0  0  0  0  0  0  0  0  0  0  0
    1.2960   -0.0559    0.1294 C   0  0  0  0  0  0  0  0  0  0  0  0
   -0.0112    0.3228   -0.0494 C   0  0  0  0  0  0  0  0  0  0  0  0
   -0.7218    0.8536    0.9730 C   0  0  0  0  0  0  0  0  0  0  0  0
   -2.1227    1.2576    0.7750 C   0  0  0  0  0  0  0  0  0  0  0  0
   -2.8765    0.1016    0.2175 C   0  0  0  0  0  0  0  0  0  0  0  0
   -2.1188   -0.5758   -0.8694 C   0  0  0  0  0  0  0  0  0  0  0  0
   -0.9208    0.2830   -1.2244 C   0  0  0  0  0  0  0  0  0  0  0  0
    0.4560    0.8624    2.3406 S   0  0  0  0  0  0  0  0  0  0  0  0
    4.0332   -1.3184   -1.1141 H   0  0  0  0  0  0  0  0  0  0  0  0
    4.9282   -0.9659    1.1165 H   0  0  0  0  0  0  0  0  0  0  0  0
   -2.5311    1.6216    1.7436 H   0  0  0  0  0  0  0  0  0  0  0  0
   -2.2303    2.1109    0.0738 H   0  0  0  0  0  0  0  0  0  0  0  0
   -3.8985    0.4117   -0.1405 H   0  0  0  0  0  0  0  0  0  0  0  0
   -3.1111   -0.5924    1.0746 H   0  0  0  0  0  0  0  0  0  0  0  0
   -1.7939   -1.5720   -0.4702 H   0  0  0  0  0  0  0  0  0  0  0  0
   -2.7849   -0.7088   -1.7464 H   0  0  0  0  0  0  0  0  0  0  0  0
   -1.2759    1.2758   -1.5213 H   0  0  0  0  0  0  0  0  0  0  0  0
   -0.4598   -0.2236   -2.0961 H   0  0  0  0  0  0  0  0  0  0  0  0
  1  2  2  0
  2  3  1  0
  3  4  1  0
  4  5  2  0
  5  6  1  0
  6  7  2  0
  7  8  1  0
  8  9  2  0
  9 10  1  0
 10 11  1  0
 11 12  1  0
 12 13  1  0
  9 14  1  0
  7  2  1  0
 13  8  1  0
 14  6  1  0
  3 15  1  0
  4 16  1  0
 10 17  1  0
 10 18  1  0
 11 19  1  0
 11 20  1  0
 12 21  1  0
 12 22  1  0
 13 23  1  0
 13 24  1  0
M  END
$$$$
