
     RDKit          3D

 53 52  0  0  0  0  0  0  0  0999 V2000
    0.1090   -3.0299   -3.5212 C   0  0  0  0  0  0  0  0  0  0  0  0
   -0.6618   -2.5222   -2.3069 C   0  0  0  0  0  0  0  0  0  0  0  0
    0.1781   -1.5038   -1.5571 C   0  0  0  0  0  0  0  0  0  0  0  0
   -0.6128   -1.0311   -0.3747 C   0  0  0  0  0  0  0  0  0  0  0  0
    0.0805   -0.0277    0.4476 N   0  0  0  0  0  4  0  0  0  0  0  0
    0.4629    1.1010   -0.4177 C   0  0  0  0  0  0  0  0  0  0  0  0
   -0.7283    1.6040   -1.2262 C   0  0  0  0  0  0  0  0  0  0  0  0
   -0.2897    2.7784   -2.1128 C   0  0  0  0  0  0  0  0  0  0  0  0
   -1.4630    3.2895   -2.9227 C   0  0  0  0  0  0  0  0  0  0  0  0
    1.1516   -0.6056    1.1363 C   0  0  0  0  0  0  0  0  0  0  0  0
    2.5644   -0.3331    0.8816 C   0  0  0  0  0  0  0  0  0  0  0  0
    3.1205    1.0284    1.0896 C   0  0  0  0  0  0  0  0  0  0  0  0
    2.9324    1.5394    2.5048 C   0  0  0  0  0  0  0  0  0  0  0  0
   -0.9380    0.5586    1.2895 C   0  0  0  0  0  0  0  0  0  0  0  0
   -1.1198    0.0956    2.6639 C   0  0  0  0  0  0  0  0  0  0  0  0
   -1.4876   -1.3464    2.8832 C   0  0  0  0  0  0  0  0  0  0  0  0
   -2.8047   -1.6680    2.2332 C   0  0  0  0  0  0  0  0  0  0  0  0
   -0.1272   -2.4535   -4.4346 H   0  0  0  0  0  0  0  0  0  0  0  0
   -0.0028   -4.1109   -3.6509 H   0  0  0  0  0  0  0  0  0  0  0  0
    1.1964   -2.8600   -3.3116 H   0  0  0  0  0  0  0  0  0  0  0  0
   -1.5927   -2.0721   -2.6972 H   0  0  0  0  0  0  0  0  0  0  0  0
   -0.9017   -3.3996   -1.6717 H   0  0  0  0  0  0  0  0  0  0  0  0
    1.0718   -2.1160   -1.2220 H   0  0  0  0  0  0  0  0  0  0  0  0
    0.4861   -0.7527   -2.2760 H   0  0  0  0  0  0  0  0  0  0  0  0
   -0.7436   -1.9185    0.2771 H   0  0  0  0  0  0  0  0  0  0  0  0
   -1.6004   -0.6938   -0.7157 H   0  0  0  0  0  0  0  0  0  0  0  0
    0.6588    1.9217    0.3002 H   0  0  0  0  0  0  0  0  0  0  0  0
    1.3187    0.9355   -1.0392 H   0  0  0  0  0  0  0  0  0  0  0  0
   -1.1695    0.8824   -1.8983 H   0  0  0  0  0  0  0  0  0  0  0  0
   -1.5179    2.0360   -0.5796 H   0  0  0  0  0  0  0  0  0  0  0  0
    0.4288    2.3563   -2.8659 H   0  0  0  0  0  0  0  0  0  0  0  0
    0.1541    3.5988   -1.5274 H   0  0  0  0  0  0  0  0  0  0  0  0
   -2.1446    2.4685   -3.2235 H   0  0  0  0  0  0  0  0  0  0  0  0
   -1.0950    3.7585   -3.8531 H   0  0  0  0  0  0  0  0  0  0  0  0
   -2.0550    4.0274   -2.3216 H   0  0  0  0  0  0  0  0  0  0  0  0
    1.0336   -1.7444    1.0054 H   0  0  0  0  0  0  0  0  0  0  0  0
    0.9897   -0.3918    2.2385 H   0  0  0  0  0  0  0  0  0  0  0  0
    2.9225   -0.6574   -0.1351 H   0  0  0  0  0  0  0  0  0  0  0  0
    3.2030   -1.0079    1.5507 H   0  0  0  0  0  0  0  0  0  0  0  0
    2.9043    1.8165    0.3889 H   0  0  0  0  0  0  0  0  0  0  0  0
    4.2785    0.9420    1.0141 H   0  0  0  0  0  0  0  0  0  0  0  0
    3.2694    0.8358    3.2801 H   0  0  0  0  0  0  0  0  0  0  0  0
    3.6085    2.4342    2.5955 H   0  0  0  0  0  0  0  0  0  0  0  0
    1.9058    1.9328    2.6551 H   0  0  0  0  0  0  0  0  0  0  0  0
   -1.9451    0.4350    0.7767 H   0  0  0  0  0  0  0  0  0  0  0  0
   -0.8522    1.7003    1.3054 H   0  0  0  0  0  0  0  0  0  0  0  0
   -2.0469    0.6575    3.0600 H   0  0  0  0  0  0  0  0  0  0  0  0
   -0.3630    0.3759    3.4227 H   0  0  0  0  0  0  0  0  0  0  0  0
   -0.6754   -2.0561    2.6419 H   0  0  0  0  0  0  0  0  0  0  0  0
   -1.6209   -1.4549    3.9935 H   0  0  0  0  0  0  0  0  0  0  0  0
   -3.2481   -0.8236    1.6708 H   0  0  0  0  0  0  0  0  0  0  0  0
   -3.5549   -1.9894    3.0097 H   0  0  0  0  0  0  0  0  0  0  0  0
   -2.6669   -2.5395    1.5469 H   0  0  0  0  0  0  0  0  0  0  0  0
  1  2  1  0
  2  3  1  0
  3  4  1  0
  4  5  1  0
  5  6  1  0
  6  7  1  0
  7  8  1  0
  8  9  1  0
  5 10  1  0
 10 11  1  0
 11 12  1  0
 12 13  1  0
  5 14  1  0
 14 15  1  0
 15 16  1  0
 16 17  1  0
  1 18  1  0
  1 19  1  0
  1 20  1  0
  2 21  1  0
  2 22  1  0
  3 23  1  0
  3 24  1  0
  4 25  1  0
  4 26  1  0
  6 27  1  0
  6 28  1  0
  7 29  1  0
  7 30  1  0
  8 31  1  0
  8 32  1  0
  9 33  1  0
  9 34  1  0
  9 35  1  0
 10 36  1  0
 10 37  1  0
 11 38  1  0
 11 39  1  0
 12 40  1  0
 12 41  1  0
 13 42  1  0
 13 43  1  0
 13 44  1  0
 14 45  1  0
 14 46  1  0
 15 47  1  0
 15 48  1  0
 16 49  1  0
 16 50  1  0
 17 51  1  0
 17 52  1  0
 17 53  1  0
M  CHG  1   5   1
M  END
$$$$
