
     RDKit          3D

 51 53  0  0  0  0  0  0  0  0999 V2000
    7.1045   -0.0650    0.1995 C   0  0  0  0  0  0  0  0  0  0  0  0
    5.7152   -0.1350    0.3340 O   0  0  0  0  0  0  0  0  0  0  0  0
    5.0948    0.7257   -0.5915 C   0  0  0  0  0  0  0  0  0  0  0  0
    3.5882    0.5614   -0.3478 C   0  0  2  0  0  0  0  0  0  0  0  0
    3.3537    0.8751    1.1033 C   0  0  0  0  0  0  0  0  0  0  0  0
    2.9923   -0.4201    1.7523 C   0  0  0  0  0  0  0  0  0  0  0  0
    2.9596   -1.4443    0.6507 C   0  0  0  0  0  0  0  0  0  0  0  0
    3.2691   -0.8037   -0.5771 N   0  0  0  0  0  0  0  0  0  0  0  0
    2.1961   -1.1018   -1.8526 S   0  0  0  0  0  6  0  0  0  0  0  0
    2.7561   -0.4642   -3.1046 O   0  0  0  0  0  0  0  0  0  0  0  0
    2.1957   -2.5981   -2.1235 O   0  0  0  0  0  0  0  0  0  0  0  0
    0.5731   -0.5691   -1.5561 C   0  0  0  0  0  0  0  0  0  0  0  0
   -0.3398   -1.4334   -0.9622 C   0  0  0  0  0  0  0  0  0  0  0  0
   -1.6319   -1.0782   -0.7008 C   0  0  0  0  0  0  0  0  0  0  0  0
   -2.0266    0.2014   -1.0505 C   0  0  0  0  0  0  0  0  0  0  0  0
   -1.1551    1.0911   -1.6412 C   0  0  0  0  0  0  0  0  0  0  0  0
    0.1503    0.6925   -1.8907 C   0  0  0  0  0  0  0  0  0  0  0  0
   -1.8731    2.3460   -1.8838 C   0  0  0  0  0  0  0  0  0  0  0  0
   -1.3716    3.3722   -2.4123 O   0  0  0  0  0  0  0  0  0  0  0  0
   -3.2228    2.1482   -1.4020 C   0  0  0  0  0  0  0  0  0  0  0  0
   -4.1370    3.0227   -1.4455 O   0  0  0  0  0  0  0  0  0  0  0  0
   -3.2961    0.8185   -0.8920 N   0  0  0  0  0  0  0  0  0  0  0  0
   -4.4823    0.2362   -0.3186 C   0  0  0  0  0  0  0  0  0  0  0  0
   -4.5484    0.4824    1.1803 C   0  0  0  0  0  0  0  0  0  0  0  0
   -5.7860   -0.1239    1.7846 C   0  0  0  0  0  0  0  0  0  0  0  0
   -6.9507    0.3960    1.2400 O   0  0  0  0  0  0  0  0  0  0  0  0
   -5.8263   -1.6153    1.6187 C   0  0  0  0  0  0  0  0  0  0  0  0
   -4.6963   -2.1254    2.2619 F   0  0  0  0  0  0  0  0  0  0  0  0
    7.3415   -0.3749   -0.8377 H   0  0  0  0  0  0  0  0  0  0  0  0
    7.4124    0.9703    0.4306 H   0  0  0  0  0  0  0  0  0  0  0  0
    7.5198   -0.8042    0.9289 H   0  0  0  0  0  0  0  0  0  0  0  0
    5.2922    0.2999   -1.5858 H   0  0  0  0  0  0  0  0  0  0  0  0
    5.4142    1.7695   -0.4715 H   0  0  0  0  0  0  0  0  0  0  0  0
    3.0251    1.2827   -0.9869 H   0  0  0  0  0  0  0  0  0  0  0  0
    2.5493    1.6506    1.2397 H   0  0  0  0  0  0  0  0  0  0  0  0
    4.2491    1.2962    1.6122 H   0  0  0  0  0  0  0  0  0  0  0  0
    1.9885   -0.3810    2.2383 H   0  0  0  0  0  0  0  0  0  0  0  0
    3.7023   -0.7004    2.5746 H   0  0  0  0  0  0  0  0  0  0  0  0
    3.7785   -2.1797    0.8727 H   0  0  0  0  0  0  0  0  0  0  0  0
    2.0263   -2.0420    0.6468 H   0  0  0  0  0  0  0  0  0  0  0  0
    0.0125   -2.4225   -0.7062 H   0  0  0  0  0  0  0  0  0  0  0  0
   -2.3168   -1.7805   -0.2355 H   0  0  0  0  0  0  0  0  0  0  0  0
    0.8184    1.3924   -2.3500 H   0  0  0  0  0  0  0  0  0  0  0  0
   -5.3662    0.6675   -0.8251 H   0  0  0  0  0  0  0  0  0  0  0  0
   -4.4644   -0.8654   -0.5059 H   0  0  0  0  0  0  0  0  0  0  0  0
   -3.6625    0.0537    1.6520 H   0  0  0  0  0  0  0  0  0  0  0  0
   -4.5500    1.5820    1.3133 H   0  0  0  0  0  0  0  0  0  0  0  0
   -5.7882    0.1287    2.8606 H   0  0  0  0  0  0  0  0  0  0  0  0
   -7.0138    1.3732    1.3738 H   0  0  0  0  0  0  0  0  0  0  0  0
   -6.7059   -1.9980    2.1828 H   0  0  0  0  0  0  0  0  0  0  0  0
   -5.8671   -1.9101    0.5624 H   0  0  0  0  0  0  0  0  0  0  0  0
  1  2  1  0
  2  3  1  0
  3  4  1  0
  4  5  1  0
  5  6  1  0
  6  7  1  0
  7  8  1  0
  8  9  1  0
  9 10  2  0
  9 11  2  0
  9 12  1  0
 12 13  2  0
 13 14  1  0
 14 15  2  0
 15 16  1  0
 16 17  2  0
 16 18  1  0
 18 19  2  0
 18 20  1  0
 20 21  2  0
 20 22  1  0
 22 23  1  0
 23 24  1  0
 24 25  1  0
 25 26  1  0
 25 27  1  0
 27 28  1  0
  8  4  1  0
 17 12  1  0
 22 15  1  0
  1 29  1  0
  1 30  1  0
  1 31  1  0
  3 32  1  0
  3 33  1  0
  4 34  1  6
  5 35  1  0
  5 36  1  0
  6 37  1  0
  6 38  1  0
  7 39  1  0
  7 40  1  0
 13 41  1  0
 14 42  1  0
 17 43  1  0
 23 44  1  0
 23 45  1  0
 24 46  1  0
 24 47  1  0
 25 48  1  0
 26 49  1  0
 27 50  1  0
 27 51  1  0
M  END
$$$$
