
     RDKit          3D

 54 57  0  0  0  0  0  0  0  0999 V2000
   -5.5157    2.1014   -0.3098 C   0  0  0  0  0  0  0  0  0  0  0  0
   -4.8641    0.8392    0.1672 C   0  0  0  0  0  0  0  0  0  0  0  0
   -5.7751    0.0647    1.0456 C   0  0  0  0  0  0  0  0  0  0  0  0
   -3.5736    1.2236    0.8039 C   0  0  0  0  0  0  0  0  0  0  0  0
   -3.3796    2.5807    1.2538 N   0  0  0  0  0  0  0  0  0  0  0  0
   -2.6781    0.3751    0.9464 N   0  0  0  0  0  0  0  0  0  0  0  0
   -2.5525   -0.9877    0.6327 C   0  0  2  0  0  0  0  0  0  0  0  0
   -2.8633   -1.8330    1.8459 C   0  0  0  0  0  0  0  0  0  0  0  0
   -1.1418   -1.2550    0.2445 C   0  0  0  0  0  0  0  0  0  0  0  0
   -0.2253   -0.2293    0.1582 C   0  0  0  0  0  0  0  0  0  0  0  0
    1.0795   -0.4115   -0.2416 C   0  0  0  0  0  0  0  0  0  0  0  0
    1.9234    0.7259   -0.3188 N   0  0  0  0  0  0  0  0  0  0  0  0
    3.1220    0.6187   -1.0810 C   0  0  0  0  0  0  0  0  0  0  0  0
    3.0127    0.5397   -2.4228 N   0  0  0  0  0  0  0  0  0  0  0  0
    4.0970    0.4455   -3.2006 C   0  0  0  0  0  0  0  0  0  0  0  0
    5.3452    0.4302   -2.6080 C   0  0  0  0  0  0  0  0  0  0  0  0
    5.4776    0.5095   -1.2441 C   0  0  0  0  0  0  0  0  0  0  0  0
    6.6889    0.5001   -0.6831 N   0  0  0  0  0  0  0  0  0  0  0  0
    6.8705    0.5827    0.6532 C   0  0  0  0  0  0  0  0  0  0  0  0
    8.2550    0.5693    1.1746 C   0  0  0  0  0  0  0  0  0  0  0  0
    8.8711   -0.5737    0.7020 F   0  0  0  0  0  0  0  0  0  0  0  0
    8.1705    0.5673    2.5588 F   0  0  0  0  0  0  0  0  0  0  0  0
    8.9345    1.6832    0.7050 F   0  0  0  0  0  0  0  0  0  0  0  0
    5.7405    0.6778    1.4206 C   0  0  0  0  0  0  0  0  0  0  0  0
    4.5217    0.6876    0.8668 N   0  0  0  0  0  0  0  0  0  0  0  0
    4.3307    0.6068   -0.4506 C   0  0  0  0  0  0  0  0  0  0  0  0
    1.4970   -1.6755   -0.5703 C   0  0  0  0  0  0  0  0  0  0  0  0
    0.5979   -2.7366   -0.4946 C   0  0  0  0  0  0  0  0  0  0  0  0
   -0.7137   -2.5182   -0.0891 C   0  0  0  0  0  0  0  0  0  0  0  0
   -1.5572   -3.5942   -0.0317 F   0  0  0  0  0  0  0  0  0  0  0  0
   -3.3845   -1.4618   -0.5373 C   0  0  0  0  0  0  0  0  0  0  0  0
   -4.3731   -0.1777   -1.2353 S   0  0  0  0  0  6  0  0  0  0  0  0
   -3.4952    0.6522   -2.1493 O   0  0  0  0  0  0  0  0  0  0  0  0
   -5.5943   -0.6604   -1.9287 O   0  0  0  0  0  0  0  0  0  0  0  0
   -4.8971    2.6044   -1.0618 H   0  0  0  0  0  0  0  0  0  0  0  0
   -5.5098    2.8018    0.5770 H   0  0  0  0  0  0  0  0  0  0  0  0
   -6.5648    1.9409   -0.5907 H   0  0  0  0  0  0  0  0  0  0  0  0
   -6.7825    0.5002    1.0133 H   0  0  0  0  0  0  0  0  0  0  0  0
   -5.8938   -0.9900    0.6841 H   0  0  0  0  0  0  0  0  0  0  0  0
   -5.3804    0.1174    2.0751 H   0  0  0  0  0  0  0  0  0  0  0  0
   -3.3713    3.2914    0.4590 H   0  0  0  0  0  0  0  0  0  0  0  0
   -3.2631    2.8514    2.2399 H   0  0  0  0  0  0  0  0  0  0  0  0
   -3.0543   -1.1793    2.7479 H   0  0  0  0  0  0  0  0  0  0  0  0
   -2.0843   -2.5424    2.1302 H   0  0  0  0  0  0  0  0  0  0  0  0
   -3.8040   -2.4246    1.6728 H   0  0  0  0  0  0  0  0  0  0  0  0
   -0.5350    0.7950    0.4177 H   0  0  0  0  0  0  0  0  0  0  0  0
    1.6662    1.6057    0.1724 H   0  0  0  0  0  0  0  0  0  0  0  0
    3.9914    0.3800   -4.2812 H   0  0  0  0  0  0  0  0  0  0  0  0
    6.2101    0.3508   -3.2731 H   0  0  0  0  0  0  0  0  0  0  0  0
    5.8454    0.7439    2.4899 H   0  0  0  0  0  0  0  0  0  0  0  0
    2.5258   -1.8144   -0.8801 H   0  0  0  0  0  0  0  0  0  0  0  0
    0.9402   -3.7272   -0.7546 H   0  0  0  0  0  0  0  0  0  0  0  0
   -2.7939   -1.9124   -1.3520 H   0  0  0  0  0  0  0  0  0  0  0  0
   -4.0938   -2.2591   -0.1793 H   0  0  0  0  0  0  0  0  0  0  0  0
  1  2  1  0
  2  3  1  0
  2  4  1  0
  4  5  1  0
  4  6  2  0
  6  7  1  0
  7  8  1  1
  7  9  1  0
  9 10  2  0
 10 11  1  0
 11 12  1  0
 12 13  1  0
 13 14  2  0
 14 15  1  0
 15 16  2  0
 16 17  1  0
 17 18  2  0
 18 19  1  0
 19 20  1  0
 20 21  1  0
 20 22  1  0
 20 23  1  0
 19 24  2  0
 24 25  1  0
 25 26  2  0
 11 27  2  0
 27 28  1  0
 28 29  2  0
 29 30  1  0
  7 31  1  0
 31 32  1  0
 32 33  2  0
 32 34  2  0
 32  2  1  0
 29  9  1  0
 26 13  1  0
 26 17  1  0
  1 35  1  0
  1 36  1  0
  1 37  1  0
  3 38  1  0
  3 39  1  0
  3 40  1  0
  5 41  1  0
  5 42  1  0
  8 43  1  0
  8 44  1  0
  8 45  1  0
 10 46  1  0
 12 47  1  0
 15 48  1  0
 16 49  1  0
 24 50  1  0
 27 51  1  0
 28 52  1  0
 31 53  1  0
 31 54  1  0
M  END
$$$$
