
     RDKit          3D

123124  0  0  0  0  0  0  0  0999 V2000
   10.5473   -1.8973    0.5689 C   0  0  0  0  0  0  0  0  0  0  0  0
    9.5015   -2.9663    0.3255 C   0  0  0  0  0  0  0  0  0  0  0  0
    8.8175   -3.2896    1.5754 N   0  0  0  0  0  0  0  0  0  0  0  0
    9.7974   -3.9519    2.4096 C   0  0  0  0  0  0  0  0  0  0  0  0
    9.2148   -4.3284    3.7367 C   0  0  0  0  0  0  0  0  0  0  0  0
    7.7016   -4.1952    1.3180 C   0  0  0  0  0  0  0  0  0  0  0  0
    6.6196   -3.5357    0.5336 C   0  0  0  0  0  0  0  0  0  0  0  0
    6.0788   -2.3056    1.2591 C   0  0  0  0  0  0  0  0  0  0  0  0
    5.0617   -1.6362    0.4217 C   0  0  0  0  0  0  0  0  0  0  0  0
    4.4552   -0.3777    1.0369 C   0  0  2  0  0  0  0  0  0  0  0  0
    3.4830    0.1723    0.0867 N   0  0  0  0  0  0  0  0  0  0  0  0
    2.0995    0.3902    0.4359 C   0  0  0  0  0  0  0  0  0  0  0  0
    1.7798    0.0810    1.6238 O   0  0  0  0  0  0  0  0  0  0  0  0
    1.1924    0.9327   -0.5676 C   0  0  2  0  0  0  0  0  0  0  0  0
    1.7707    2.0955   -1.3664 C   0  0  0  0  0  0  0  0  0  0  0  0
    2.1671    3.2717   -0.5476 C   0  0  0  0  0  0  0  0  0  0  0  0
    2.7238    4.3088   -1.5476 C   0  0  0  0  0  0  0  0  0  0  0  0
    1.0784    3.9732    0.1894 C   0  0  0  0  0  0  0  0  0  0  0  0
   -0.1573    1.1996   -0.1843 N   0  0  0  0  0  0  0  0  0  0  0  0
   -1.2726    0.5085   -0.7277 C   0  0  0  0  0  0  0  0  0  0  0  0
   -1.1191   -0.4133   -1.5469 O   0  0  0  0  0  0  0  0  0  0  0  0
   -2.6720    0.8798   -0.3336 C   0  0  2  0  0  0  0  0  0  0  0  0
   -2.8601    1.1699    1.0975 C   0  0  0  0  0  0  0  0  0  0  0  0
   -3.6509    0.0199   -0.9072 N   0  0  0  0  0  0  0  0  0  0  0  0
   -3.8323   -0.2051   -2.3200 C   0  0  0  0  0  0  0  0  0  0  0  0
   -3.0520    0.3908   -3.1015 O   0  0  0  0  0  0  0  0  0  0  0  0
   -4.9010   -1.1120   -2.7438 C   0  0  2  0  0  0  0  0  0  0  0  0
   -5.4886   -0.9561   -4.0790 C   0  0  0  0  0  0  0  0  0  0  0  0
   -6.1615    0.2947   -4.4141 C   0  0  0  0  0  0  0  0  0  0  0  0
   -7.5046    0.4393   -4.0984 C   0  0  0  0  0  0  0  0  0  0  0  0
   -8.1615    1.5852   -4.4409 C   0  0  0  0  0  0  0  0  0  0  0  0
   -7.5431    2.6208   -5.0957 C   0  0  0  0  0  0  0  0  0  0  0  0
   -6.2006    2.4607   -5.4036 C   0  0  0  0  0  0  0  0  0  0  0  0
   -5.5229    1.3092   -5.0633 C   0  0  0  0  0  0  0  0  0  0  0  0
   -5.9431   -1.2338   -1.7632 N   0  0  0  0  0  0  0  0  0  0  0  0
   -6.3659   -2.2983   -0.9891 C   0  0  0  0  0  0  0  0  0  0  0  0
   -5.7833   -3.3954   -1.1114 O   0  0  0  0  0  0  0  0  0  0  0  0
   -7.5013   -2.1093   -0.0382 C   0  0  0  0  0  0  0  0  0  0  0  0
   -8.2109   -3.1857    0.4464 C   0  0  0  0  0  0  0  0  0  0  0  0
   -9.2711   -3.0207    1.3303 C   0  0  0  0  0  0  0  0  0  0  0  0
   -9.6578   -1.7698    1.7623 C   0  0  0  0  0  0  0  0  0  0  0  0
  -10.8120   -1.5732    2.6901 C   0  0  0  0  0  0  0  0  0  0  0  0
  -12.0715   -1.2892    1.8821 C   0  0  0  0  0  0  0  0  0  0  0  0
  -10.5578   -0.4243    3.5982 C   0  0  0  0  0  0  0  0  0  0  0  0
  -11.0710   -2.8285    3.4958 C   0  0  0  0  0  0  0  0  0  0  0  0
   -8.9462   -0.6925    1.2786 C   0  0  0  0  0  0  0  0  0  0  0  0
   -7.8736   -0.8545    0.3832 C   0  0  0  0  0  0  0  0  0  0  0  0
    5.5669    0.6074    1.2039 C   0  0  0  0  0  0  0  0  0  0  0  0
    6.4373    0.4403    2.1088 O   0  0  0  0  0  0  0  0  0  0  0  0
    5.7306    1.7573    0.3945 N   0  0  0  0  0  0  0  0  0  0  0  0
    6.7991    2.6960    0.5678 C   0  0  1  0  0  0  0  0  0  0  0  0
    7.8685    2.5079   -0.5173 C   0  0  0  0  0  0  0  0  0  0  0  0
    7.3193    2.6944   -1.7726 O   0  0  0  0  0  0  0  0  0  0  0  0
    6.3767    4.0949    0.6447 C   0  0  0  0  0  0  0  0  0  0  0  0
    5.2030    4.5254    0.5606 O   0  0  0  0  0  0  0  0  0  0  0  0
    7.3579    5.0836    0.8274 O   0  0  0  0  0  0  0  0  0  0  0  0
    7.0526    6.4599    0.8998 C   0  0  0  0  0  0  0  0  0  0  0  0
   11.5171   -2.3038    0.2291 H   0  0  0  0  0  0  0  0  0  0  0  0
   10.5956   -1.5583    1.6137 H   0  0  0  0  0  0  0  0  0  0  0  0
   10.3361   -0.9779   -0.0654 H   0  0  0  0  0  0  0  0  0  0  0  0
    8.7683   -2.5474   -0.4044 H   0  0  0  0  0  0  0  0  0  0  0  0
    9.9202   -3.8895   -0.1154 H   0  0  0  0  0  0  0  0  0  0  0  0
   10.1328   -4.8636    1.8568 H   0  0  0  0  0  0  0  0  0  0  0  0
   10.7169   -3.3576    2.5611 H   0  0  0  0  0  0  0  0  0  0  0  0
   10.0207   -4.3269    4.5157 H   0  0  0  0  0  0  0  0  0  0  0  0
    8.4431   -3.6204    4.0935 H   0  0  0  0  0  0  0  0  0  0  0  0
    8.8408   -5.3858    3.7280 H   0  0  0  0  0  0  0  0  0  0  0  0
    7.3220   -4.6193    2.2527 H   0  0  0  0  0  0  0  0  0  0  0  0
    8.1576   -5.0306    0.7068 H   0  0  0  0  0  0  0  0  0  0  0  0
    6.9042   -3.2377   -0.4833 H   0  0  0  0  0  0  0  0  0  0  0  0
    5.7874   -4.2769    0.4417 H   0  0  0  0  0  0  0  0  0  0  0  0
    5.5916   -2.6428    2.2046 H   0  0  0  0  0  0  0  0  0  0  0  0
    6.9568   -1.6876    1.5153 H   0  0  0  0  0  0  0  0  0  0  0  0
    5.5413   -1.3695   -0.5691 H   0  0  0  0  0  0  0  0  0  0  0  0
    4.2643   -2.3750    0.1611 H   0  0  0  0  0  0  0  0  0  0  0  0
    4.0063   -0.5931    2.0124 H   0  0  0  0  0  0  0  0  0  0  0  0
    3.7788    0.4288   -0.8818 H   0  0  0  0  0  0  0  0  0  0  0  0
    1.1085    0.1076   -1.3627 H   0  0  0  0  0  0  0  0  0  0  0  0
    0.9618    2.4094   -2.0565 H   0  0  0  0  0  0  0  0  0  0  0  0
    2.6209    1.7219   -1.9246 H   0  0  0  0  0  0  0  0  0  0  0  0
    3.0342    3.0336    0.1308 H   0  0  0  0  0  0  0  0  0  0  0  0
    3.5966    3.8917   -2.0842 H   0  0  0  0  0  0  0  0  0  0  0  0
    1.8916    4.4212   -2.2939 H   0  0  0  0  0  0  0  0  0  0  0  0
    2.9451    5.2586   -1.0169 H   0  0  0  0  0  0  0  0  0  0  0  0
    1.4127    5.0558    0.3089 H   0  0  0  0  0  0  0  0  0  0  0  0
    0.9404    3.6414    1.2428 H   0  0  0  0  0  0  0  0  0  0  0  0
    0.1780    4.0093   -0.4164 H   0  0  0  0  0  0  0  0  0  0  0  0
   -0.4289    1.9286    0.5454 H   0  0  0  0  0  0  0  0  0  0  0  0
   -2.7903    1.8675   -0.9237 H   0  0  0  0  0  0  0  0  0  0  0  0
   -2.8239    2.2554    1.3084 H   0  0  0  0  0  0  0  0  0  0  0  0
   -2.1597    0.5773    1.7495 H   0  0  0  0  0  0  0  0  0  0  0  0
   -3.9224    0.8788    1.3533 H   0  0  0  0  0  0  0  0  0  0  0  0
   -4.3197   -0.5036   -0.2721 H   0  0  0  0  0  0  0  0  0  0  0  0
   -4.4113   -2.1521   -2.7490 H   0  0  0  0  0  0  0  0  0  0  0  0
   -6.2648   -1.7712   -4.2007 H   0  0  0  0  0  0  0  0  0  0  0  0
   -4.7176   -1.2046   -4.8548 H   0  0  0  0  0  0  0  0  0  0  0  0
   -8.0071   -0.3678   -3.5820 H   0  0  0  0  0  0  0  0  0  0  0  0
   -9.2187    1.7382   -4.2100 H   0  0  0  0  0  0  0  0  0  0  0  0
   -8.0295    3.5388   -5.3861 H   0  0  0  0  0  0  0  0  0  0  0  0
   -5.6241    3.2312   -5.9291 H   0  0  0  0  0  0  0  0  0  0  0  0
   -4.4876    1.2200   -5.3149 H   0  0  0  0  0  0  0  0  0  0  0  0
   -6.4893   -0.3136   -1.6336 H   0  0  0  0  0  0  0  0  0  0  0  0
   -7.9282   -4.1787    0.1206 H   0  0  0  0  0  0  0  0  0  0  0  0
   -9.8450   -3.8486    1.7221 H   0  0  0  0  0  0  0  0  0  0  0  0
  -11.8268   -0.5239    1.1152 H   0  0  0  0  0  0  0  0  0  0  0  0
  -12.3101   -2.2243    1.3316 H   0  0  0  0  0  0  0  0  0  0  0  0
  -12.8767   -0.9755    2.5836 H   0  0  0  0  0  0  0  0  0  0  0  0
  -11.3689   -0.4245    4.3870 H   0  0  0  0  0  0  0  0  0  0  0  0
   -9.5712   -0.4802    4.1062 H   0  0  0  0  0  0  0  0  0  0  0  0
  -10.6168    0.5438    3.0915 H   0  0  0  0  0  0  0  0  0  0  0  0
  -11.6263   -3.5767    2.8724 H   0  0  0  0  0  0  0  0  0  0  0  0
  -10.1493   -3.2631    3.9269 H   0  0  0  0  0  0  0  0  0  0  0  0
  -11.7395   -2.5577    4.3304 H   0  0  0  0  0  0  0  0  0  0  0  0
   -9.2388    0.2995    1.6061 H   0  0  0  0  0  0  0  0  0  0  0  0
   -7.3627    0.0383    0.0496 H   0  0  0  0  0  0  0  0  0  0  0  0
    5.0529    1.9325   -0.3677 H   0  0  0  0  0  0  0  0  0  0  0  0
    7.3293    2.4073    1.5231 H   0  0  0  0  0  0  0  0  0  0  0  0
    8.6516    3.2721   -0.3637 H   0  0  0  0  0  0  0  0  0  0  0  0
    8.3091    1.4940   -0.3680 H   0  0  0  0  0  0  0  0  0  0  0  0
    7.9610    2.3114   -2.4303 H   0  0  0  0  0  0  0  0  0  0  0  0
    5.9863    6.5727    1.1997 H   0  0  0  0  0  0  0  0  0  0  0  0
    7.2184    6.8969   -0.1220 H   0  0  0  0  0  0  0  0  0  0  0  0
    7.7183    6.9205    1.6515 H   0  0  0  0  0  0  0  0  0  0  0  0
  1  2  1  0
  2  3  1  0
  3  4  1  0
  4  5  1  0
  3  6  1  0
  6  7  1  0
  7  8  1  0
  8  9  1  0
  9 10  1  0
 10 11  1  0
 11 12  1  0
 12 13  2  0
 12 14  1  0
 14 15  1  0
 15 16  1  0
 16 17  1  0
 16 18  1  0
 14 19  1  0
 19 20  1  0
 20 21  2  0
 20 22  1  0
 22 23  1  0
 22 24  1  0
 24 25  1  0
 25 26  2  0
 25 27  1  0
 27 28  1  0
 28 29  1  0
 29 30  2  0
 30 31  1  0
 31 32  2  0
 32 33  1  0
 33 34  2  0
 27 35  1  0
 35 36  1  0
 36 37  2  0
 36 38  1  0
 38 39  2  0
 39 40  1  0
 40 41  2  0
 41 42  1  0
 42 43  1  0
 42 44  1  0
 42 45  1  0
 41 46  1  0
 46 47  2  0
 10 48  1  0
 48 49  2  0
 48 50  1  0
 50 51  1  0
 51 52  1  0
 52 53  1  0
 51 54  1  0
 54 55  2  0
 54 56  1  0
 56 57  1  0
 34 29  1  0
 47 38  1  0
  1 58  1  0
  1 59  1  0
  1 60  1  0
  2 61  1  0
  2 62  1  0
  4 63  1  0
  4 64  1  0
  5 65  1  0
  5 66  1  0
  5 67  1  0
  6 68  1  0
  6 69  1  0
  7 70  1  0
  7 71  1  0
  8 72  1  0
  8 73  1  0
  9 74  1  0
  9 75  1  0
 10 76  1  1
 11 77  1  0
 14 78  1  6
 15 79  1  0
 15 80  1  0
 16 81  1  0
 17 82  1  0
 17 83  1  0
 17 84  1  0
 18 85  1  0
 18 86  1  0
 18 87  1  0
 19 88  1  0
 22 89  1  6
 23 90  1  0
 23 91  1  0
 23 92  1  0
 24 93  1  0
 27 94  1  6
 28 95  1  0
 28 96  1  0
 30 97  1  0
 31 98  1  0
 32 99  1  0
 33100  1  0
 34101  1  0
 35102  1  0
 39103  1  0
 40104  1  0
 43105  1  0
 43106  1  0
 43107  1  0
 44108  1  0
 44109  1  0
 44110  1  0
 45111  1  0
 45112  1  0
 45113  1  0
 46114  1  0
 47115  1  0
 50116  1  0
 51117  1  1
 52118  1  0
 52119  1  0
 53120  1  0
 57121  1  0
 57122  1  0
 57123  1  0
M  END
$$$$
