
     RDKit          3D

 54 57  0  0  0  0  0  0  0  0999 V2000
   -2.2224   -4.9698    1.4132 C   0  0  0  0  0  0  0  0  0  0  0  0
   -1.3718   -3.7546    1.2639 C   0  0  0  0  0  0  0  0  0  0  0  0
   -0.6957   -3.4221    2.3304 O   0  0  0  0  0  0  0  0  0  0  0  0
   -1.2368   -2.9712    0.1284 N   0  0  0  0  0  0  0  0  0  0  0  0
   -0.1878   -1.9340    0.0994 C   0  0  0  0  0  0  0  0  0  0  0  0
    0.9572   -2.1251    0.8358 C   0  0  0  0  0  0  0  0  0  0  0  0
    1.9477   -1.1302    0.8200 C   0  0  0  0  0  0  0  0  0  0  0  0
    1.7754    0.0060    0.0847 C   0  0  0  0  0  0  0  0  0  0  0  0
    2.8277    1.0292    0.0875 C   0  0  0  0  0  0  0  0  0  0  0  0
    4.1583    0.6879    0.2193 C   0  0  0  0  0  0  0  0  0  0  0  0
    5.1492    1.6347    0.2237 C   0  0  0  0  0  0  0  0  0  0  0  0
    4.8465    2.9613    0.0960 C   0  0  0  0  0  0  0  0  0  0  0  0
    5.9202    3.9759    0.1015 C   0  0  0  0  0  0  0  0  0  0  0  0
    5.5820    5.1809   -0.0196 O   0  0  0  0  0  0  0  0  0  0  0  0
    7.2419    3.6424    0.2320 O   0  0  0  0  0  0  0  0  0  0  0  0
    3.5301    3.3185   -0.0360 C   0  0  0  0  0  0  0  0  0  0  0  0
    2.5263    2.3578   -0.0402 C   0  0  0  0  0  0  0  0  0  0  0  0
    0.6229    0.1502   -0.6315 C   0  0  0  0  0  0  0  0  0  0  0  0
   -0.3896   -0.8007   -0.6528 C   0  0  0  0  0  0  0  0  0  0  0  0
   -1.5944   -0.6299   -1.4588 C   0  0  2  0  0  0  0  0  0  0  0  0
   -2.0147    0.7263   -1.6078 N   0  0  0  0  0  0  0  0  0  0  0  0
   -2.2813    1.6141   -0.5471 C   0  0  0  0  0  0  0  0  0  0  0  0
   -2.7116    2.9183   -0.7926 C   0  0  0  0  0  0  0  0  0  0  0  0
   -2.9753    3.8193    0.2026 C   0  0  0  0  0  0  0  0  0  0  0  0
   -2.8117    3.4315    1.5105 C   0  0  0  0  0  0  0  0  0  0  0  0
   -3.1452    4.5750    2.8158 Cl  0  0  0  0  0  0  0  0  0  0  0  0
   -2.3903    2.1590    1.7963 C   0  0  0  0  0  0  0  0  0  0  0  0
   -2.1264    1.2551    0.7712 C   0  0  0  0  0  0  0  0  0  0  0  0
   -2.6871   -1.5631   -1.0484 C   0  0  0  0  0  0  0  0  0  0  0  0
   -2.0540   -2.9920   -1.0296 C   0  0  2  0  0  0  0  0  0  0  0  0
   -3.0820   -4.0139   -1.2433 C   0  0  0  0  0  0  0  0  0  0  0  0
   -2.1517   -5.5869    0.5183 H   0  0  0  0  0  0  0  0  0  0  0  0
   -1.7806   -5.5713    2.2776 H   0  0  0  0  0  0  0  0  0  0  0  0
   -3.2298   -4.6523    1.7266 H   0  0  0  0  0  0  0  0  0  0  0  0
    1.1637   -3.0135    1.4207 H   0  0  0  0  0  0  0  0  0  0  0  0
    2.8632   -1.2527    1.3929 H   0  0  0  0  0  0  0  0  0  0  0  0
    4.3792   -0.3839    0.3205 H   0  0  0  0  0  0  0  0  0  0  0  0
    6.1738    1.3337    0.3282 H   0  0  0  0  0  0  0  0  0  0  0  0
    7.9714    4.2889   -0.0389 H   0  0  0  0  0  0  0  0  0  0  0  0
    3.2975    4.3673   -0.1364 H   0  0  0  0  0  0  0  0  0  0  0  0
    1.5260    2.6978   -0.1459 H   0  0  0  0  0  0  0  0  0  0  0  0
    0.4689    1.0329   -1.2143 H   0  0  0  0  0  0  0  0  0  0  0  0
   -1.3029   -0.9981   -2.5095 H   0  0  0  0  0  0  0  0  0  0  0  0
   -2.1426    1.1145   -2.5892 H   0  0  0  0  0  0  0  0  0  0  0  0
   -2.8477    3.2455   -1.8248 H   0  0  0  0  0  0  0  0  0  0  0  0
   -3.3074    4.8217   -0.0343 H   0  0  0  0  0  0  0  0  0  0  0  0
   -2.2614    1.8541    2.8269 H   0  0  0  0  0  0  0  0  0  0  0  0
   -1.7916    0.2668    1.0537 H   0  0  0  0  0  0  0  0  0  0  0  0
   -3.5296   -1.5668   -1.7725 H   0  0  0  0  0  0  0  0  0  0  0  0
   -3.0834   -1.3628   -0.0398 H   0  0  0  0  0  0  0  0  0  0  0  0
   -1.3965   -2.9657   -1.9544 H   0  0  0  0  0  0  0  0  0  0  0  0
   -3.7041   -3.6396   -2.1436 H   0  0  0  0  0  0  0  0  0  0  0  0
   -3.7779   -4.1972   -0.4362 H   0  0  0  0  0  0  0  0  0  0  0  0
   -2.6437   -4.9692   -1.6200 H   0  0  0  0  0  0  0  0  0  0  0  0
  1  2  1  0
  2  3  2  0
  2  4  1  0
  4  5  1  0
  5  6  2  0
  6  7  1  0
  7  8  2  0
  8  9  1  0
  9 10  2  0
 10 11  1  0
 11 12  2  0
 12 13  1  0
 13 14  2  0
 13 15  1  0
 12 16  1  0
 16 17  2  0
  8 18  1  0
 18 19  2  0
 19 20  1  0
 20 21  1  0
 21 22  1  0
 22 23  2  0
 23 24  1  0
 24 25  2  0
 25 26  1  0
 25 27  1  0
 27 28  2  0
 20 29  1  0
 29 30  1  0
 30 31  1  0
 30  4  1  0
 19  5  1  0
 28 22  1  0
 17  9  1  0
  1 32  1  0
  1 33  1  0
  1 34  1  0
  6 35  1  0
  7 36  1  0
 10 37  1  0
 11 38  1  0
 15 39  1  0
 16 40  1  0
 17 41  1  0
 18 42  1  0
 20 43  1  6
 21 44  1  0
 23 45  1  0
 24 46  1  0
 27 47  1  0
 28 48  1  0
 29 49  1  0
 29 50  1  0
 30 51  1  6
 31 52  1  0
 31 53  1  0
 31 54  1  0
M  END
$$$$
