
     RDKit          3D

 71 78  0  0  0  0  0  0  0  0999 V2000
    5.1379    2.8834    0.1171 O   0  0  0  0  0  0  0  0  0  0  0  0
    6.0839    2.0221    0.1277 C   0  0  0  0  0  0  0  0  0  0  0  0
    7.3498    2.3763    0.0806 N   0  0  0  0  0  0  0  0  0  0  0  0
    8.1210    1.2809    0.1052 C   0  0  0  0  0  0  0  0  0  0  0  0
    9.4805    1.0778    0.0775 C   0  0  0  0  0  0  0  0  0  0  0  0
    9.9362   -0.2210    0.1179 C   0  0  0  0  0  0  0  0  0  0  0  0
    9.0624   -1.2865    0.1839 C   0  0  0  0  0  0  0  0  0  0  0  0
    7.6962   -1.0894    0.2119 C   0  0  0  0  0  0  0  0  0  0  0  0
    7.2382    0.2073    0.1718 C   0  0  0  0  0  0  0  0  0  0  0  0
    5.9724    0.6701    0.1857 N   0  0  0  0  0  0  0  0  0  0  0  0
    4.7021    0.0590    0.2416 C   0  0  0  0  0  0  0  0  0  0  0  0
    4.0108    0.2201   -1.1178 C   0  0  0  0  0  0  0  0  0  0  0  0
    2.5080    0.1004   -0.8089 C   0  0  0  0  0  0  0  0  0  0  0  0
    2.2528   -1.1190   -0.1696 N   0  0  0  0  0  0  0  0  0  0  0  0
    1.2562   -1.9829   -0.6528 C   0  0  0  0  0  0  0  0  0  0  0  0
   -0.0912   -1.3571   -0.6260 C   0  0  0  0  0  0  0  0  0  0  0  0
   -0.6470   -0.6884   -1.7018 C   0  0  0  0  0  0  0  0  0  0  0  0
   -1.9126   -0.1175   -1.6091 C   0  0  0  0  0  0  0  0  0  0  0  0
   -2.6538   -0.1924   -0.4620 C   0  0  0  0  0  0  0  0  0  0  0  0
   -3.9791    0.3991   -0.3508 C   0  0  0  0  0  0  0  0  0  0  0  0
   -4.1793    1.7162   -0.5109 N   0  0  0  0  0  0  0  0  0  0  0  0
   -5.4033    2.2863   -0.4143 C   0  0  0  0  0  0  0  0  0  0  0  0
   -5.5778    3.6374   -0.5835 C   0  0  0  0  0  0  0  0  0  0  0  0
   -6.8337    4.1710   -0.4773 C   0  0  0  0  0  0  0  0  0  0  0  0
   -7.2919    5.4263   -0.5915 N   0  0  0  0  0  0  0  0  0  0  0  0
   -8.6079    5.4227   -0.3993 C   0  0  0  0  0  0  0  0  0  0  0  0
   -9.0114    4.1811   -0.1616 N   0  0  0  0  0  0  0  0  0  0  0  0
   -7.9459    3.3795   -0.2013 C   0  0  0  0  0  0  0  0  0  0  0  0
   -7.7486    2.0174   -0.0339 C   0  0  0  0  0  0  0  0  0  0  0  0
   -6.4950    1.4745   -0.1384 C   0  0  0  0  0  0  0  0  0  0  0  0
   -6.3243    0.1661    0.0248 N   0  0  0  0  0  0  0  0  0  0  0  0
   -5.0882   -0.3923   -0.0752 C   0  0  0  0  0  0  0  0  0  0  0  0
   -4.8686   -1.8059    0.0969 C   0  0  0  0  0  0  0  0  0  0  0  0
   -5.1787   -2.4080    1.2926 C   0  0  0  0  0  0  0  0  0  0  0  0
   -4.9942   -3.7469    1.5185 C   0  0  0  0  0  0  0  0  0  0  0  0
   -4.4781   -4.5279    0.5136 C   0  0  0  0  0  0  0  0  0  0  0  0
   -4.1531   -3.9490   -0.7105 C   0  0  0  0  0  0  0  0  0  0  0  0
   -4.3530   -2.5756   -0.9128 C   0  0  0  0  0  0  0  0  0  0  0  0
   -2.1089   -0.8549    0.6105 C   0  0  0  0  0  0  0  0  0  0  0  0
   -0.8525   -1.4332    0.5494 C   0  0  0  0  0  0  0  0  0  0  0  0
    3.0397   -1.5121    0.9301 C   0  0  0  0  0  0  0  0  0  0  0  0
    4.5564   -1.3318    0.6450 C   0  0  0  0  0  0  0  0  0  0  0  0
    7.7829    3.3375    0.0307 H   0  0  0  0  0  0  0  0  0  0  0  0
   10.1460    1.9308    0.0254 H   0  0  0  0  0  0  0  0  0  0  0  0
   11.0228   -0.3934    0.0958 H   0  0  0  0  0  0  0  0  0  0  0  0
    9.4077   -2.2987    0.2155 H   0  0  0  0  0  0  0  0  0  0  0  0
    6.9840   -1.8876    0.2625 H   0  0  0  0  0  0  0  0  0  0  0  0
    4.0585    0.6726    0.9461 H   0  0  0  0  0  0  0  0  0  0  0  0
    4.2373    1.2422   -1.4910 H   0  0  0  0  0  0  0  0  0  0  0  0
    4.2880   -0.5679   -1.8192 H   0  0  0  0  0  0  0  0  0  0  0  0
    1.9174    0.1977   -1.7273 H   0  0  0  0  0  0  0  0  0  0  0  0
    2.2691    0.9270   -0.0748 H   0  0  0  0  0  0  0  0  0  0  0  0
    1.4799   -2.1726   -1.7477 H   0  0  0  0  0  0  0  0  0  0  0  0
    1.2537   -2.9910   -0.1897 H   0  0  0  0  0  0  0  0  0  0  0  0
   -0.1056   -0.6115   -2.6204 H   0  0  0  0  0  0  0  0  0  0  0  0
   -2.2816    0.3879   -2.4861 H   0  0  0  0  0  0  0  0  0  0  0  0
   -4.7421    4.2643   -0.7958 H   0  0  0  0  0  0  0  0  0  0  0  0
   -6.6936    6.2716   -0.8004 H   0  0  0  0  0  0  0  0  0  0  0  0
   -9.3070    6.2717   -0.4199 H   0  0  0  0  0  0  0  0  0  0  0  0
   -8.6106    1.3792    0.1835 H   0  0  0  0  0  0  0  0  0  0  0  0
   -5.5921   -1.7982    2.1064 H   0  0  0  0  0  0  0  0  0  0  0  0
   -5.2394   -4.2064    2.4545 H   0  0  0  0  0  0  0  0  0  0  0  0
   -4.3154   -5.6070    0.6564 H   0  0  0  0  0  0  0  0  0  0  0  0
   -3.7497   -4.5921   -1.4775 H   0  0  0  0  0  0  0  0  0  0  0  0
   -4.0866   -2.1726   -1.8773 H   0  0  0  0  0  0  0  0  0  0  0  0
   -2.6987   -0.9130    1.5187 H   0  0  0  0  0  0  0  0  0  0  0  0
   -0.4174   -1.9578    1.3943 H   0  0  0  0  0  0  0  0  0  0  0  0
    2.7778   -0.9563    1.8339 H   0  0  0  0  0  0  0  0  0  0  0  0
    2.8846   -2.6066    1.1077 H   0  0  0  0  0  0  0  0  0  0  0  0
    5.0235   -1.6521    1.5885 H   0  0  0  0  0  0  0  0  0  0  0  0
    4.6805   -2.0810   -0.1952 H   0  0  0  0  0  0  0  0  0  0  0  0
  1  2  2  0
  2  3  1  0
  3  4  1  0
  4  5  2  0
  5  6  1  0
  6  7  2  0
  7  8  1  0
  8  9  2  0
  9 10  1  0
 10 11  1  0
 11 12  1  0
 12 13  1  0
 13 14  1  0
 14 15  1  0
 15 16  1  0
 16 17  2  0
 17 18  1  0
 18 19  2  0
 19 20  1  0
 20 21  2  0
 21 22  1  0
 22 23  2  0
 23 24  1  0
 24 25  1  0
 25 26  1  0
 26 27  2  0
 27 28  1  0
 28 29  1  0
 29 30  2  0
 30 31  1  0
 31 32  2  0
 32 33  1  0
 33 34  2  0
 34 35  1  0
 35 36  2  0
 36 37  1  0
 37 38  2  0
 19 39  1  0
 39 40  2  0
 14 41  1  0
 41 42  1  0
 10  2  1  0
 42 11  1  0
  9  4  1  0
 40 16  1  0
 32 20  1  0
 38 33  1  0
 30 22  1  0
 28 24  2  0
  3 43  1  0
  5 44  1  0
  6 45  1  0
  7 46  1  0
  8 47  1  0
 11 48  1  0
 12 49  1  0
 12 50  1  0
 13 51  1  0
 13 52  1  0
 15 53  1  0
 15 54  1  0
 17 55  1  0
 18 56  1  0
 23 57  1  0
 25 58  1  0
 26 59  1  0
 29 60  1  0
 34 61  1  0
 35 62  1  0
 36 63  1  0
 37 64  1  0
 38 65  1  0
 39 66  1  0
 40 67  1  0
 41 68  1  0
 41 69  1  0
 42 70  1  0
 42 71  1  0
M  END
$$$$
