
     RDKit          3D

 44 46  0  0  0  0  0  0  0  0999 V2000
   -3.0708    2.5713    0.0242 C   0  0  0  0  0  0  0  0  0  0  0  0
   -3.1117    1.4451   -0.9922 C   0  0  0  0  0  0  0  0  0  0  0  0
   -2.9034    0.1299   -0.3287 C   0  0  0  0  0  0  0  0  0  0  0  0
   -3.7657   -0.6302    0.4255 C   0  0  0  0  0  0  0  0  0  0  0  0
   -5.1644   -0.2227    0.7153 C   0  0  0  0  0  0  0  0  0  0  0  0
   -3.1368   -1.7424    0.8187 N   0  0  0  0  0  0  0  0  0  0  0  0
   -1.8874   -1.6930    0.3217 C   0  0  0  0  0  0  0  0  0  0  0  0
   -1.6969   -0.5389   -0.4043 C   0  0  0  0  0  0  0  0  0  0  0  0
   -0.3876   -0.3506   -1.0101 C   0  0  0  0  0  0  0  0  0  0  0  0
   -0.2791    0.5569   -1.8737 O   0  0  0  0  0  0  0  0  0  0  0  0
    0.7761   -1.1947   -0.6273 C   0  0  0  0  0  0  0  0  0  0  0  0
    1.7651   -0.4506    0.2207 C   0  0  0  0  0  0  0  0  0  0  0  0
    2.3593    0.7076   -0.3630 N   0  0  0  0  0  0  0  0  0  0  0  0
    3.1976    1.3014    0.6798 C   0  0  0  0  0  0  0  0  0  0  0  0
    4.3259    2.1363    0.1122 C   0  0  0  0  0  0  0  0  0  0  0  0
    5.2588    1.3209   -0.5340 O   0  0  0  0  0  0  0  0  0  0  0  0
    4.6615    0.1532   -1.0010 C   0  0  0  0  0  0  0  0  0  0  0  0
    3.2450    0.4102   -1.4775 C   0  0  0  0  0  0  0  0  0  0  0  0
    0.4405   -2.5287   -0.0755 C   0  0  0  0  0  0  0  0  0  0  0  0
   -0.8787   -2.7364    0.5418 C   0  0  0  0  0  0  0  0  0  0  0  0
   -2.5481    2.2638    0.9572 H   0  0  0  0  0  0  0  0  0  0  0  0
   -2.5753    3.4396   -0.4690 H   0  0  0  0  0  0  0  0  0  0  0  0
   -4.0820    2.9198    0.3278 H   0  0  0  0  0  0  0  0  0  0  0  0
   -4.1427    1.4308   -1.4173 H   0  0  0  0  0  0  0  0  0  0  0  0
   -2.4194    1.5967   -1.8393 H   0  0  0  0  0  0  0  0  0  0  0  0
   -5.1472    0.8387    1.0358 H   0  0  0  0  0  0  0  0  0  0  0  0
   -5.5814   -0.8612    1.4969 H   0  0  0  0  0  0  0  0  0  0  0  0
   -5.7939   -0.2505   -0.2185 H   0  0  0  0  0  0  0  0  0  0  0  0
   -3.6357   -2.4551    1.4127 H   0  0  0  0  0  0  0  0  0  0  0  0
    1.2773   -1.4013   -1.6192 H   0  0  0  0  0  0  0  0  0  0  0  0
    2.6151   -1.1665    0.4112 H   0  0  0  0  0  0  0  0  0  0  0  0
    1.3157   -0.1335    1.1967 H   0  0  0  0  0  0  0  0  0  0  0  0
    3.6826    0.4712    1.2286 H   0  0  0  0  0  0  0  0  0  0  0  0
    2.6449    1.9204    1.3897 H   0  0  0  0  0  0  0  0  0  0  0  0
    3.9662    2.9270   -0.5703 H   0  0  0  0  0  0  0  0  0  0  0  0
    4.8451    2.6058    0.9713 H   0  0  0  0  0  0  0  0  0  0  0  0
    5.2334   -0.2290   -1.8665 H   0  0  0  0  0  0  0  0  0  0  0  0
    4.6038   -0.6381   -0.2537 H   0  0  0  0  0  0  0  0  0  0  0  0
    2.9733   -0.4706   -2.0662 H   0  0  0  0  0  0  0  0  0  0  0  0
    3.2802    1.3110   -2.1170 H   0  0  0  0  0  0  0  0  0  0  0  0
    0.6817   -3.3761   -0.7930 H   0  0  0  0  0  0  0  0  0  0  0  0
    1.2004   -2.7250    0.7444 H   0  0  0  0  0  0  0  0  0  0  0  0
   -1.3154   -3.6979    0.1378 H   0  0  0  0  0  0  0  0  0  0  0  0
   -0.8261   -2.9645    1.6532 H   0  0  0  0  0  0  0  0  0  0  0  0
  1  2  1  0
  2  3  1  0
  3  4  2  0
  4  5  1  0
  4  6  1  0
  6  7  1  0
  7  8  2  0
  8  9  1  0
  9 10  2  0
  9 11  1  0
 11 12  1  0
 12 13  1  0
 13 14  1  0
 14 15  1  0
 15 16  1  0
 16 17  1  0
 17 18  1  0
 11 19  1  0
 19 20  1  0
  8  3  1  0
 18 13  1  0
 20  7  1  0
  1 21  1  0
  1 22  1  0
  1 23  1  0
  2 24  1  0
  2 25  1  0
  5 26  1  0
  5 27  1  0
  5 28  1  0
  6 29  1  0
 11 30  1  0
 12 31  1  0
 12 32  1  0
 14 33  1  0
 14 34  1  0
 15 35  1  0
 15 36  1  0
 17 37  1  0
 17 38  1  0
 18 39  1  0
 18 40  1  0
 19 41  1  0
 19 42  1  0
 20 43  1  0
 20 44  1  0
M  END
$$$$
