
     RDKit          3D

 31 33  0  0  0  0  0  0  0  0999 V2000
   -2.1158   -0.9048   -2.2542 Cl  0  0  0  0  0  0  0  0  0  0  0  0
   -2.4867    0.0868   -0.8315 C   0  0  0  0  0  0  0  0  0  0  0  0
   -3.3573    1.1452   -1.0006 C   0  0  0  0  0  0  0  0  0  0  0  0
   -3.6519    1.9269    0.1163 C   0  0  0  0  0  0  0  0  0  0  0  0
   -3.0602    1.6063    1.3375 C   0  0  0  0  0  0  0  0  0  0  0  0
   -2.1945    0.5434    1.4773 C   0  0  0  0  0  0  0  0  0  0  0  0
   -1.8868   -0.2477    0.3800 C   0  0  0  0  0  0  0  0  0  0  0  0
   -0.9563   -1.4071    0.4906 C   0  0  0  0  0  0  0  0  0  0  0  0
    0.3302   -1.0640   -0.0790 N   0  0  0  0  0  0  0  0  0  0  0  0
    1.1726   -2.2370    0.0522 C   0  0  0  0  0  0  0  0  0  0  0  0
    2.3725   -1.9456   -0.8372 C   0  0  0  0  0  0  0  0  0  0  0  0
    2.6925   -0.5369   -0.7462 C   0  0  0  0  0  0  0  0  0  0  0  0
    2.1076    0.5025   -0.1073 C   0  0  0  0  0  0  0  0  0  0  0  0
    0.8902    0.0612    0.6386 C   0  0  0  0  0  0  0  0  0  0  0  0
    2.6213    1.7632   -0.1848 C   0  0  0  0  0  0  0  0  0  0  0  0
    3.7977    1.8949   -0.9755 C   0  0  0  0  0  0  0  0  0  0  0  0
    4.1366    0.1329   -1.6031 S   0  0  0  0  0  0  0  0  0  0  0  0
   -3.7857    1.3424   -1.9776 H   0  0  0  0  0  0  0  0  0  0  0  0
   -4.3261    2.7649    0.0338 H   0  0  0  0  0  0  0  0  0  0  0  0
   -3.3313    2.2576    2.1758 H   0  0  0  0  0  0  0  0  0  0  0  0
   -1.7633    0.3378    2.4479 H   0  0  0  0  0  0  0  0  0  0  0  0
   -1.3966   -2.3109   -0.0053 H   0  0  0  0  0  0  0  0  0  0  0  0
   -0.7927   -1.6121    1.5724 H   0  0  0  0  0  0  0  0  0  0  0  0
    0.6208   -3.1210   -0.3267 H   0  0  0  0  0  0  0  0  0  0  0  0
    1.4264   -2.3579    1.1091 H   0  0  0  0  0  0  0  0  0  0  0  0
    3.1963   -2.6311   -0.5501 H   0  0  0  0  0  0  0  0  0  0  0  0
    2.0374   -2.2277   -1.8609 H   0  0  0  0  0  0  0  0  0  0  0  0
    0.0880    0.8526    0.6352 H   0  0  0  0  0  0  0  0  0  0  0  0
    1.0768   -0.1745    1.6918 H   0  0  0  0  0  0  0  0  0  0  0  0
    2.2145    2.6372    0.2944 H   0  0  0  0  0  0  0  0  0  0  0  0
    4.3240    2.9228   -1.1132 H   0  0  0  0  0  0  0  0  0  0  0  0
  1  2  1  0
  2  3  2  0
  3  4  1  0
  4  5  2  0
  5  6  1  0
  6  7  2  0
  7  8  1  0
  8  9  1  0
  9 10  1  0
 10 11  1  0
 11 12  1  0
 12 13  2  0
 13 14  1  0
 13 15  1  0
 15 16  2  0
 16 17  1  0
  7  2  1  0
 14  9  1  0
 17 12  1  0
  3 18  1  0
  4 19  1  0
  5 20  1  0
  6 21  1  0
  8 22  1  0
  8 23  1  0
 10 24  1  0
 10 25  1  0
 11 26  1  0
 11 27  1  0
 14 28  1  0
 14 29  1  0
 15 30  1  0
 16 31  1  0
M  END
$$$$
