
     RDKit          3D

 38 41  0  0  0  0  0  0  0  0999 V2000
    7.3762    0.1135    0.1103 Br  0  0  0  0  0  0  0  0  0  0  0  0
    5.6018   -0.6152    0.1184 C   0  0  0  0  0  0  0  0  0  0  0  0
    5.4463   -1.9848    0.1718 C   0  0  0  0  0  0  0  0  0  0  0  0
    4.1689   -2.5051    0.1774 C   0  0  0  0  0  0  0  0  0  0  0  0
    3.0727   -1.6692    0.1306 C   0  0  0  0  0  0  0  0  0  0  0  0
    3.1888   -0.2970    0.0766 C   0  0  0  0  0  0  0  0  0  0  0  0
    4.4807    0.1863    0.0726 C   0  0  0  0  0  0  0  0  0  0  0  0
    2.0755    0.6431    0.0254 C   0  0  0  0  0  0  0  0  0  0  0  0
    2.2977    1.9687   -0.0254 N   0  0  0  0  0  0  0  0  0  0  0  0
    1.2740    2.8373   -0.0727 C   0  0  0  0  0  0  0  0  0  0  0  0
   -0.0198    2.4487   -0.0726 N   0  0  0  0  0  4  0  0  0  0  0  0
   -0.7914    3.5260   -0.1253 N   0  0  0  0  0  0  0  0  0  0  0  0
    0.0428    4.6013   -0.1587 C   0  0  0  0  0  0  0  0  0  0  0  0
    1.3159    4.1886   -0.1268 N   0  0  0  0  0  0  0  0  0  0  0  0
   -0.3050    1.1279   -0.0227 C   0  0  0  0  0  0  0  0  0  0  0  0
   -1.6464    0.6504   -0.0195 N   0  0  0  0  0  0  0  0  0  0  0  0
   -1.8786   -0.7658    0.0349 C   0  0  0  0  0  0  0  0  0  0  0  0
   -3.3041   -1.1424    0.0331 C   0  0  0  0  0  0  0  0  0  0  0  0
   -4.0506   -1.3889   -1.0986 C   0  0  0  0  0  0  0  0  0  0  0  0
   -5.3890   -1.7348   -0.9253 C   0  0  0  0  0  0  0  0  0  0  0  0
   -5.9879   -1.8412    0.2603 N   0  0  0  0  0  0  0  0  0  0  0  0
   -5.3047   -1.6119    1.3796 C   0  0  0  0  0  0  0  0  0  0  0  0
   -3.9642   -1.2632    1.2574 C   0  0  0  0  0  0  0  0  0  0  0  0
    0.7722    0.2592    0.0252 C   0  0  0  0  0  0  0  0  0  0  0  0
    6.2639   -2.6920    0.2101 H   0  0  0  0  0  0  0  0  0  0  0  0
    3.9635   -3.5715    0.2180 H   0  0  0  0  0  0  0  0  0  0  0  0
    2.0754   -2.0846    0.1354 H   0  0  0  0  0  0  0  0  0  0  0  0
    4.6925    1.2469    0.0324 H   0  0  0  0  0  0  0  0  0  0  0  0
   -1.8346    3.5348   -0.1381 H   0  0  0  0  0  0  0  0  0  0  0  0
   -0.3003    5.6354   -0.2045 H   0  0  0  0  0  0  0  0  0  0  0  0
   -2.4105    1.3536   -0.0571 H   0  0  0  0  0  0  0  0  0  0  0  0
   -1.3440   -1.1635    0.9220 H   0  0  0  0  0  0  0  0  0  0  0  0
   -1.3873   -1.2090   -0.8703 H   0  0  0  0  0  0  0  0  0  0  0  0
   -3.5654   -1.3023   -2.0496 H   0  0  0  0  0  0  0  0  0  0  0  0
   -5.9128   -1.9140   -1.8616 H   0  0  0  0  0  0  0  0  0  0  0  0
   -5.7723   -1.6934    2.3419 H   0  0  0  0  0  0  0  0  0  0  0  0
   -3.4433   -1.0846    2.1987 H   0  0  0  0  0  0  0  0  0  0  0  0
    0.5035   -0.7875    0.0642 H   0  0  0  0  0  0  0  0  0  0  0  0
  1  2  1  0
  2  3  2  0
  3  4  1  0
  4  5  2  0
  5  6  1  0
  6  7  2  0
  6  8  1  0
  8  9  2  0
  9 10  1  0
 10 11  2  0
 11 12  1  0
 12 13  1  0
 13 14  2  0
 11 15  1  0
 15 16  1  0
 16 17  1  0
 17 18  1  0
 18 19  2  0
 19 20  1  0
 20 21  2  0
 21 22  1  0
 22 23  2  0
 15 24  2  0
  7  2  1  0
 24  8  1  0
 14 10  1  0
 23 18  1  0
  3 25  1  0
  4 26  1  0
  5 27  1  0
  7 28  1  0
 12 29  1  0
 13 30  1  0
 16 31  1  0
 17 32  1  0
 17 33  1  0
 19 34  1  0
 20 35  1  0
 22 36  1  0
 23 37  1  0
 24 38  1  0
M  CHG  1  11   1
M  END
$$$$
