
     RDKit          3D

 32 34  0  0  0  0  0  0  0  0999 V2000
   -4.1667   -2.3970    1.0232 C   0  0  0  0  0  0  0  0  0  0  0  0
   -4.5366   -1.0044    0.5935 C   0  0  0  0  0  0  0  0  0  0  0  0
   -3.4247   -0.1279    0.8876 N   0  0  0  0  0  0  0  0  0  0  0  0
   -2.1742   -0.3955    0.2750 C   0  0  0  0  0  0  0  0  0  0  0  0
   -1.9665   -1.4175   -0.5623 N   0  0  0  0  0  0  0  0  0  0  0  0
   -0.7761   -1.6729   -1.1459 C   0  0  0  0  0  0  0  0  0  0  0  0
   -0.6364   -2.7994   -2.0395 C   0  0  0  0  0  0  0  0  0  0  0  0
   -0.5217   -3.7134   -2.7561 N   0  0  0  0  0  0  0  0  0  0  0  0
    0.2418   -0.8516   -0.8624 N   0  0  0  0  0  0  0  0  0  0  0  0
    0.1451    0.2063   -0.0344 C   0  0  0  0  0  0  0  0  0  0  0  0
   -1.0898    0.4362    0.5445 C   0  0  0  0  0  0  0  0  0  0  0  0
   -0.9282    1.5261    1.3116 N   0  0  0  0  0  0  0  0  0  0  0  0
    0.3453    1.9544    1.2153 C   0  0  0  0  0  0  0  0  0  0  0  0
    1.0220    1.1399    0.3798 N   0  0  0  0  0  0  0  0  0  0  0  0
    2.3997    1.2592    0.0167 C   0  0  0  0  0  0  0  0  0  0  0  0
    3.3256    0.3329    0.4430 C   0  0  0  0  0  0  0  0  0  0  0  0
    4.6651    0.4460    0.0919 C   0  0  0  0  0  0  0  0  0  0  0  0
    5.5298   -0.4882    0.5361 F   0  0  0  0  0  0  0  0  0  0  0  0
    5.0444    1.5111   -0.6957 C   0  0  0  0  0  0  0  0  0  0  0  0
    4.1437    2.4396   -1.1286 C   0  0  0  0  0  0  0  0  0  0  0  0
    4.5755    3.4693   -1.9033 F   0  0  0  0  0  0  0  0  0  0  0  0
    2.8127    2.3313   -0.7824 C   0  0  0  0  0  0  0  0  0  0  0  0
   -5.0945   -2.9452    1.3395 H   0  0  0  0  0  0  0  0  0  0  0  0
   -3.4554   -2.3242    1.8709 H   0  0  0  0  0  0  0  0  0  0  0  0
   -3.7013   -2.9350    0.1517 H   0  0  0  0  0  0  0  0  0  0  0  0
   -4.6850   -0.9673   -0.5226 H   0  0  0  0  0  0  0  0  0  0  0  0
   -5.4646   -0.6600    1.1157 H   0  0  0  0  0  0  0  0  0  0  0  0
   -3.5723    0.6688    1.5358 H   0  0  0  0  0  0  0  0  0  0  0  0
    0.7859    2.8137    1.7171 H   0  0  0  0  0  0  0  0  0  0  0  0
    2.9752   -0.4828    1.0585 H   0  0  0  0  0  0  0  0  0  0  0  0
    6.0839    1.5897   -0.9620 H   0  0  0  0  0  0  0  0  0  0  0  0
    2.0982    3.0578   -1.1192 H   0  0  0  0  0  0  0  0  0  0  0  0
  1  2  1  0
  2  3  1  0
  3  4  1  0
  4  5  2  0
  5  6  1  0
  6  7  1  0
  7  8  3  0
  6  9  2  0
  9 10  1  0
 10 11  2  0
 11 12  1  0
 12 13  2  0
 13 14  1  0
 14 15  1  0
 15 16  2  0
 16 17  1  0
 17 18  1  0
 17 19  2  0
 19 20  1  0
 20 21  1  0
 20 22  2  0
 11  4  1  0
 22 15  1  0
 14 10  1  0
  1 23  1  0
  1 24  1  0
  1 25  1  0
  2 26  1  0
  2 27  1  0
  3 28  1  0
 13 29  1  0
 16 30  1  0
 19 31  1  0
 22 32  1  0
M  END
$$$$
