
     RDKit          3D

149153  0  0  0  0  0  0  0  0999 V2000
   10.7360    2.7098    1.1727 C   0  0  0  0  0  0  0  0  0  0  0  0
   10.8557    1.2801    0.6969 C   0  0  0  0  0  0  0  0  0  0  0  0
    9.7842    0.3659    1.0881 C   0  0  1  0  0  0  0  0  0  0  0  0
    9.6310    0.3268    2.5012 O   0  0  0  0  0  0  0  0  0  0  0  0
    8.5412    0.1529    0.3564 C   0  0  0  0  0  0  0  0  0  0  0  0
    7.6248    1.2613    0.0862 C   0  0  1  0  0  0  0  0  0  0  0  0
    8.0607    2.3777   -0.8037 C   0  0  0  0  0  0  0  0  0  0  0  0
    7.1602    3.5704   -0.4352 C   0  0  0  0  0  0  0  0  0  0  0  0
    5.9233    3.0890    0.2498 C   0  0  0  0  0  0  0  0  0  0  0  0
    5.3746    1.7856   -0.2463 C   0  0  2  0  0  0  0  0  0  0  0  0
    4.6128    2.0184   -1.5196 C   0  0  0  0  0  0  0  0  0  0  0  0
    3.6212    0.9457   -1.8342 C   0  0  2  0  0  0  0  0  0  0  0  0
    2.4633    1.4407   -2.3857 O   0  0  0  0  0  0  0  0  0  0  0  0
    2.0406    2.0409   -3.4856 C   0  0  0  0  0  0  0  0  0  0  0  0
    3.0165    2.2429   -4.3154 O   0  0  0  0  0  0  0  0  0  0  0  0
    0.6495    2.4869   -3.8715 C   0  0  0  0  0  0  0  0  0  0  0  0
   -0.4611    2.4277   -3.2723 C   0  0  0  0  0  0  0  0  0  0  0  0
   -1.9147    2.8226   -3.5276 C   0  0  1  0  0  0  0  0  0  0  0  0
   -2.1723    3.8550   -4.5474 C   0  0  0  0  0  0  0  0  0  0  0  0
   -2.6060    1.6421   -3.8612 O   0  0  0  0  0  0  0  0  0  0  0  0
   -2.5505    3.3121   -2.2338 C   0  0  1  0  0  0  0  0  0  0  0  0
   -2.3024    4.5945   -1.8808 O   0  0  0  0  0  0  0  0  0  0  0  0
   -3.8417    2.6558   -1.8490 C   0  0  2  0  0  0  0  0  0  0  0  0
   -4.3949    3.5324   -0.6953 C   0  0  0  0  0  0  0  0  0  0  0  0
   -3.4890    1.3264   -1.1597 C   0  0  1  0  0  0  0  0  0  0  0  0
   -2.8073    1.6135   -0.0044 O   0  0  0  0  0  0  0  0  0  0  0  0
   -4.5614    0.3034   -1.1094 C   0  0  2  0  0  0  0  0  0  0  0  0
   -5.5160    0.4448   -0.1398 O   0  0  0  0  0  0  0  0  0  0  0  0
   -6.7848    0.7898   -0.5610 C   0  0  0  0  0  0  0  0  0  0  0  0
   -7.7844   -0.3234   -0.2788 C   0  0  0  0  0  0  0  0  0  0  0  0
   -9.1983    0.1917   -0.1676 C   0  0  0  0  0  0  0  0  0  0  0  0
   -9.2865    1.4067    0.7275 C   0  0  0  0  0  0  0  0  0  0  0  0
  -10.0857    1.1435    1.9082 N   0  0  0  0  0  0  0  0  0  0  0  0
  -10.1710    2.2948    2.7610 C   0  0  0  0  0  0  0  0  0  0  0  0
  -11.4506    0.8644    1.4299 C   0  0  0  0  0  0  0  0  0  0  0  0
   -7.9108    1.9324    1.0849 C   0  0  0  0  0  0  0  0  0  0  0  0
   -7.2975    1.2176    2.2374 C   0  0  0  0  0  0  0  0  0  0  0  0
   -7.1616    1.9989   -0.0576 O   0  0  0  0  0  0  0  0  0  0  0  0
   -4.1846   -1.0867   -1.4572 C   0  0  1  0  0  0  0  0  0  0  0  0
   -3.2350   -1.1235   -2.4541 O   0  0  0  0  0  0  0  0  0  0  0  0
   -3.8511   -2.0665   -0.3510 C   0  0  2  0  0  0  0  0  0  0  0  0
   -4.1790   -3.4303   -0.9752 C   0  0  0  0  0  0  0  0  0  0  0  0
   -4.7563   -1.9398    0.7096 O   0  0  0  0  0  0  0  0  0  0  0  0
   -2.4689   -1.8981    0.0733 C   0  0  0  0  0  0  0  0  0  0  0  0
   -1.8446   -2.6669    1.1644 C   0  0  0  0  0  0  0  0  0  0  0  0
   -1.7286   -4.1080    0.8946 C   0  0  0  0  0  0  0  0  0  0  0  0
   -1.1236   -4.9911    1.9045 C   0  0  0  0  0  0  0  0  0  0  0  0
    0.3124   -4.8835    2.2770 C   0  0  0  0  0  0  0  0  0  0  0  0
    0.6959   -3.6302    2.8632 C   0  0  0  0  0  0  0  0  0  0  0  0
    1.6547   -2.8444    2.4681 C   0  0  0  0  0  0  0  0  0  0  0  0
    2.5594   -3.0518    1.3517 C   0  0  2  0  0  0  0  0  0  0  0  0
    3.1991   -4.4071    1.2145 C   0  0  0  0  0  0  0  0  0  0  0  0
    4.6621   -4.0735    0.9510 C   0  0  0  0  0  0  0  0  0  0  0  0
    5.1131   -4.8933   -0.2350 C   0  0  0  0  0  0  0  0  0  0  0  0
    5.4938   -4.4699    2.1372 C   0  0  0  0  0  0  0  0  0  0  0  0
    4.6886   -2.7095    0.6794 O   0  0  0  0  0  0  0  0  0  0  0  0
    3.8203   -2.2008    1.6131 C   0  0  2  0  0  0  0  0  0  0  0  0
    4.2056   -2.5626    2.9179 O   0  0  0  0  0  0  0  0  0  0  0  0
    3.5960   -0.7494    1.5932 C   0  0  0  0  0  0  0  0  0  0  0  0
    4.1965   -0.0168    0.3841 C   0  0  2  0  0  0  0  0  0  0  0  0
    4.5321    1.2830    0.7511 O   0  0  0  0  0  0  0  0  0  0  0  0
    3.2093    0.0449   -0.7228 C   0  0  1  0  0  0  0  0  0  0  0  0
    1.9083    0.5971   -0.1147 C   0  0  0  0  0  0  0  0  0  0  0  0
    6.3694    0.8388   -0.4141 O   0  0  0  0  0  0  0  0  0  0  0  0
   11.4625    2.9509    1.9848 H   0  0  0  0  0  0  0  0  0  0  0  0
    9.7109    2.9952    1.4797 H   0  0  0  0  0  0  0  0  0  0  0  0
   11.0063    3.3896    0.3204 H   0  0  0  0  0  0  0  0  0  0  0  0
   10.9766    1.2612   -0.4181 H   0  0  0  0  0  0  0  0  0  0  0  0
   11.8744    0.9440    1.0785 H   0  0  0  0  0  0  0  0  0  0  0  0
   10.3505   -0.7134    0.9647 H   0  0  0  0  0  0  0  0  0  0  0  0
    8.8398    0.8594    2.7735 H   0  0  0  0  0  0  0  0  0  0  0  0
    8.7938   -0.4094   -0.6257 H   0  0  0  0  0  0  0  0  0  0  0  0
    7.9520   -0.6269    0.9610 H   0  0  0  0  0  0  0  0  0  0  0  0
    7.3404    1.6743    1.1170 H   0  0  0  0  0  0  0  0  0  0  0  0
    9.0993    2.6187   -0.8841 H   0  0  0  0  0  0  0  0  0  0  0  0
    7.6539    2.0912   -1.8509 H   0  0  0  0  0  0  0  0  0  0  0  0
    7.7399    4.1852    0.2815 H   0  0  0  0  0  0  0  0  0  0  0  0
    6.8807    4.1380   -1.3332 H   0  0  0  0  0  0  0  0  0  0  0  0
    5.1322    3.8770    0.0292 H   0  0  0  0  0  0  0  0  0  0  0  0
    5.9905    3.1367    1.3679 H   0  0  0  0  0  0  0  0  0  0  0  0
    5.3401    2.0823   -2.3495 H   0  0  0  0  0  0  0  0  0  0  0  0
    4.0764    2.9913   -1.4943 H   0  0  0  0  0  0  0  0  0  0  0  0
    4.0701    0.2569   -2.6252 H   0  0  0  0  0  0  0  0  0  0  0  0
    0.8565    2.9021   -4.9200 H   0  0  0  0  0  0  0  0  0  0  0  0
   -0.6568    1.9518   -2.2243 H   0  0  0  0  0  0  0  0  0  0  0  0
   -1.1987    4.3797   -4.7718 H   0  0  0  0  0  0  0  0  0  0  0  0
   -2.9209    4.6139   -4.2186 H   0  0  0  0  0  0  0  0  0  0  0  0
   -2.4993    3.4239   -5.5211 H   0  0  0  0  0  0  0  0  0  0  0  0
   -2.1516    1.2728   -4.6601 H   0  0  0  0  0  0  0  0  0  0  0  0
   -1.7748    2.7739   -1.4499 H   0  0  0  0  0  0  0  0  0  0  0  0
   -2.9492    5.2630   -2.2231 H   0  0  0  0  0  0  0  0  0  0  0  0
   -4.5697    2.5517   -2.6446 H   0  0  0  0  0  0  0  0  0  0  0  0
   -3.7417    4.3691   -0.4684 H   0  0  0  0  0  0  0  0  0  0  0  0
   -5.4133    3.8844   -1.0312 H   0  0  0  0  0  0  0  0  0  0  0  0
   -4.5893    2.8643    0.1539 H   0  0  0  0  0  0  0  0  0  0  0  0
   -2.7022    0.8804   -1.8953 H   0  0  0  0  0  0  0  0  0  0  0  0
   -3.3589    1.3411    0.7572 H   0  0  0  0  0  0  0  0  0  0  0  0
   -5.1935    0.6064   -2.0838 H   0  0  0  0  0  0  0  0  0  0  0  0
   -6.7392    0.9042   -1.6862 H   0  0  0  0  0  0  0  0  0  0  0  0
   -7.4406   -0.8555    0.6210 H   0  0  0  0  0  0  0  0  0  0  0  0
   -7.7621   -1.0469   -1.1213 H   0  0  0  0  0  0  0  0  0  0  0  0
   -9.6256    0.3549   -1.1780 H   0  0  0  0  0  0  0  0  0  0  0  0
   -9.8015   -0.6208    0.3009 H   0  0  0  0  0  0  0  0  0  0  0  0
   -9.8018    2.2023    0.1523 H   0  0  0  0  0  0  0  0  0  0  0  0
   -9.5290    2.1313    3.6515 H   0  0  0  0  0  0  0  0  0  0  0  0
   -9.8924    3.2401    2.2955 H   0  0  0  0  0  0  0  0  0  0  0  0
  -11.2143    2.4147    3.1450 H   0  0  0  0  0  0  0  0  0  0  0  0
  -11.5890    1.2560    0.4000 H   0  0  0  0  0  0  0  0  0  0  0  0
  -12.2032    1.4291    2.0487 H   0  0  0  0  0  0  0  0  0  0  0  0
  -11.7022   -0.1909    1.5385 H   0  0  0  0  0  0  0  0  0  0  0  0
   -8.0782    3.0097    1.3983 H   0  0  0  0  0  0  0  0  0  0  0  0
   -7.9153    0.3781    2.6216 H   0  0  0  0  0  0  0  0  0  0  0  0
   -7.2101    1.9200    3.1025 H   0  0  0  0  0  0  0  0  0  0  0  0
   -6.2734    0.9212    1.9916 H   0  0  0  0  0  0  0  0  0  0  0  0
   -5.1285   -1.5411   -1.9871 H   0  0  0  0  0  0  0  0  0  0  0  0
   -3.3679   -1.8298   -3.1165 H   0  0  0  0  0  0  0  0  0  0  0  0
   -3.3137   -3.8186   -1.5269 H   0  0  0  0  0  0  0  0  0  0  0  0
   -4.7156   -4.1029   -0.3193 H   0  0  0  0  0  0  0  0  0  0  0  0
   -4.9330   -3.2005   -1.7986 H   0  0  0  0  0  0  0  0  0  0  0  0
   -5.6085   -2.4203    0.5165 H   0  0  0  0  0  0  0  0  0  0  0  0
   -2.2970   -0.8097    0.3324 H   0  0  0  0  0  0  0  0  0  0  0  0
   -1.7604   -2.0190   -0.8249 H   0  0  0  0  0  0  0  0  0  0  0  0
   -0.7809   -2.2701    1.2421 H   0  0  0  0  0  0  0  0  0  0  0  0
   -2.2536   -2.4266    2.1800 H   0  0  0  0  0  0  0  0  0  0  0  0
   -2.6885   -4.5845    0.5571 H   0  0  0  0  0  0  0  0  0  0  0  0
   -1.0836   -4.2003   -0.0434 H   0  0  0  0  0  0  0  0  0  0  0  0
   -1.7766   -4.9090    2.8369 H   0  0  0  0  0  0  0  0  0  0  0  0
   -1.2878   -6.0767    1.5603 H   0  0  0  0  0  0  0  0  0  0  0  0
    0.8695   -5.1477    1.3389 H   0  0  0  0  0  0  0  0  0  0  0  0
    0.5202   -5.7266    3.0027 H   0  0  0  0  0  0  0  0  0  0  0  0
    0.1339   -3.2486    3.7596 H   0  0  0  0  0  0  0  0  0  0  0  0
    1.8271   -1.8724    3.0350 H   0  0  0  0  0  0  0  0  0  0  0  0
    2.1301   -2.8064    0.3584 H   0  0  0  0  0  0  0  0  0  0  0  0
    2.8130   -4.9959    0.3366 H   0  0  0  0  0  0  0  0  0  0  0  0
    3.0886   -5.0281    2.1222 H   0  0  0  0  0  0  0  0  0  0  0  0
    4.5121   -5.8247   -0.3527 H   0  0  0  0  0  0  0  0  0  0  0  0
    6.1701   -5.2286   -0.1060 H   0  0  0  0  0  0  0  0  0  0  0  0
    4.9837   -4.3346   -1.1942 H   0  0  0  0  0  0  0  0  0  0  0  0
    6.1472   -5.3597    1.8879 H   0  0  0  0  0  0  0  0  0  0  0  0
    4.8737   -4.8036    2.9836 H   0  0  0  0  0  0  0  0  0  0  0  0
    6.1969   -3.6791    2.4801 H   0  0  0  0  0  0  0  0  0  0  0  0
    3.4891   -2.9240    3.4610 H   0  0  0  0  0  0  0  0  0  0  0  0
    4.0735   -0.2741    2.4680 H   0  0  0  0  0  0  0  0  0  0  0  0
    2.5181   -0.5446    1.6884 H   0  0  0  0  0  0  0  0  0  0  0  0
    5.1248   -0.5470    0.0553 H   0  0  0  0  0  0  0  0  0  0  0  0
    2.9723   -0.9708   -1.1427 H   0  0  0  0  0  0  0  0  0  0  0  0
    1.3810    1.2628   -0.8382 H   0  0  0  0  0  0  0  0  0  0  0  0
    2.0740    1.1982    0.7789 H   0  0  0  0  0  0  0  0  0  0  0  0
    1.2554   -0.2657    0.1300 H   0  0  0  0  0  0  0  0  0  0  0  0
  1  2  1  0
  2  3  1  0
  3  4  1  0
  3  5  1  0
  5  6  1  0
  6  7  1  0
  7  8  1  0
  8  9  1  0
  9 10  1  0
 10 11  1  0
 11 12  1  0
 12 13  1  0
 13 14  1  0
 14 15  2  0
 14 16  1  0
 16 17  2  0
 17 18  1  0
 18 19  1  0
 18 20  1  6
 18 21  1  0
 21 22  1  0
 21 23  1  0
 23 24  1  0
 23 25  1  0
 25 26  1  0
 25 27  1  0
 27 28  1  0
 28 29  1  0
 29 30  1  0
 30 31  1  0
 31 32  1  0
 32 33  1  0
 33 34  1  0
 33 35  1  0
 32 36  1  0
 36 37  1  0
 36 38  1  0
 27 39  1  0
 39 40  1  0
 39 41  1  0
 41 42  1  0
 41 43  1  1
 41 44  1  0
 44 45  1  0
 45 46  1  0
 46 47  1  0
 47 48  1  0
 48 49  1  0
 49 50  2  0
 50 51  1  0
 51 52  1  0
 52 53  1  0
 53 54  1  0
 53 55  1  0
 53 56  1  0
 56 57  1  0
 57 58  1  1
 57 59  1  0
 59 60  1  0
 60 61  1  0
 60 62  1  0
 62 63  1  0
 10 64  1  6
 64  6  1  0
 61 10  1  0
 62 12  1  0
 38 29  1  0
 57 51  1  0
  1 65  1  0
  1 66  1  0
  1 67  1  0
  2 68  1  0
  2 69  1  0
  3 70  1  6
  4 71  1  0
  5 72  1  0
  5 73  1  0
  6 74  1  1
  7 75  1  0
  7 76  1  0
  8 77  1  0
  8 78  1  0
  9 79  1  0
  9 80  1  0
 11 81  1  0
 11 82  1  0
 12 83  1  6
 16 84  1  0
 17 85  1  0
 19 86  1  0
 19 87  1  0
 19 88  1  0
 20 89  1  0
 21 90  1  1
 22 91  1  0
 23 92  1  6
 24 93  1  0
 24 94  1  0
 24 95  1  0
 25 96  1  6
 26 97  1  0
 27 98  1  6
 29 99  1  0
 30100  1  0
 30101  1  0
 31102  1  0
 31103  1  0
 32104  1  0
 34105  1  0
 34106  1  0
 34107  1  0
 35108  1  0
 35109  1  0
 35110  1  0
 36111  1  0
 37112  1  0
 37113  1  0
 37114  1  0
 39115  1  6
 40116  1  0
 42117  1  0
 42118  1  0
 42119  1  0
 43120  1  0
 44121  1  0
 44122  1  0
 45123  1  0
 45124  1  0
 46125  1  0
 46126  1  0
 47127  1  0
 47128  1  0
 48129  1  0
 48130  1  0
 49131  1  0
 50132  1  0
 51133  1  6
 52134  1  0
 52135  1  0
 54136  1  0
 54137  1  0
 54138  1  0
 55139  1  0
 55140  1  0
 55141  1  0
 58142  1  0
 59143  1  0
 59144  1  0
 60145  1  6
 62146  1  6
 63147  1  0
 63148  1  0
 63149  1  0
M  END
$$$$
