
     RDKit          3D

 26 27  0  0  0  0  0  0  0  0999 V2000
   -2.4489    0.3473    0.0496 C   0  0  1  0  0  0  0  0  0  0  0  0
   -3.6325   -0.2851    0.7455 C   0  0  0  0  0  0  0  0  0  0  0  0
   -3.9542   -1.4520    0.0959 O   0  0  0  0  0  0  0  0  0  0  0  0
   -2.0524    1.5470    0.6502 O   0  0  0  0  0  0  0  0  0  0  0  0
   -0.6981    1.6971    0.3415 C   0  0  0  0  0  0  0  0  0  0  0  0
   -0.3680    0.4459   -0.4299 C   0  0  2  0  0  0  0  0  0  0  0  0
   -1.3035   -0.4449    0.1141 O   0  0  0  0  0  0  0  0  0  0  0  0
    0.9855    0.0126   -0.3214 N   0  0  0  0  0  0  0  0  0  0  0  0
    1.7813    0.0762   -1.4166 C   0  0  0  0  0  0  0  0  0  0  0  0
    3.1003   -0.3139   -1.4278 C   0  0  0  0  0  0  0  0  0  0  0  0
    3.6454   -0.7983   -0.2559 C   0  0  0  0  0  0  0  0  0  0  0  0
    4.8588   -1.2089   -0.0780 N   0  0  0  0  0  0  0  0  0  0  0  0
    2.8426   -0.8578    0.8318 N   0  0  0  0  0  0  0  0  0  0  0  0
    1.5483   -0.4597    0.7868 C   0  0  0  0  0  0  0  0  0  0  0  0
    0.7369   -0.5277    1.9151 O   0  0  0  0  0  0  0  0  0  0  0  0
   -2.6619    0.5443   -1.0198 H   0  0  0  0  0  0  0  0  0  0  0  0
   -3.5121   -0.3448    1.8249 H   0  0  0  0  0  0  0  0  0  0  0  0
   -4.4869    0.4264    0.5690 H   0  0  0  0  0  0  0  0  0  0  0  0
   -4.8950   -1.7072    0.3173 H   0  0  0  0  0  0  0  0  0  0  0  0
   -0.5320    2.5651   -0.3299 H   0  0  0  0  0  0  0  0  0  0  0  0
   -0.0729    1.8233    1.2475 H   0  0  0  0  0  0  0  0  0  0  0  0
   -0.6611    0.5859   -1.4758 H   0  0  0  0  0  0  0  0  0  0  0  0
    1.3513    0.4608   -2.3498 H   0  0  0  0  0  0  0  0  0  0  0  0
    3.7486   -0.2755   -2.2710 H   0  0  0  0  0  0  0  0  0  0  0  0
    5.5068   -1.1727   -0.9133 H   0  0  0  0  0  0  0  0  0  0  0  0
    1.1738   -0.2767    2.7998 H   0  0  0  0  0  0  0  0  0  0  0  0
  1  2  1  0
  2  3  1  0
  1  4  1  0
  4  5  1  0
  5  6  1  0
  6  7  1  0
  6  8  1  0
  8  9  1  0
  9 10  2  0
 10 11  1  0
 11 12  2  3
 11 13  1  0
 13 14  2  0
 14 15  1  0
  7  1  1  0
 14  8  1  0
  1 16  1  6
  2 17  1  0
  2 18  1  0
  3 19  1  0
  5 20  1  0
  5 21  1  0
  6 22  1  6
  9 23  1  0
 10 24  1  0
 12 25  1  0
 15 26  1  0
M  END
$$$$
