
     RDKit          3D

 47 50  0  0  0  0  0  0  0  0999 V2000
   -2.5761    3.2879    0.5412 O   0  0  0  0  0  0  0  0  0  0  0  0
   -2.5347    2.0324    0.5191 C   0  0  0  0  0  0  0  0  0  0  0  0
   -1.3844    1.3302    0.5798 N   0  0  0  0  0  0  0  0  0  0  0  0
   -1.3286   -0.0108    0.5568 C   0  0  0  0  0  0  0  0  0  0  0  0
   -0.0840   -0.6996    0.6234 N   0  0  0  0  0  0  0  0  0  0  0  0
    0.5175   -1.0968    1.8785 C   0  0  0  0  0  0  0  0  0  0  0  0
    1.9052   -1.6339    1.6374 C   0  0  0  0  0  0  0  0  0  0  0  0
    2.6657   -0.8567    0.7209 N   0  0  0  0  0  0  0  0  0  0  0  0
    4.0538   -1.1497    0.7469 C   0  0  0  0  0  0  0  0  0  0  0  0
    4.8220   -0.3446   -0.2329 C   0  0  0  0  0  0  0  0  0  0  0  0
    5.0822   -0.8884   -1.4705 C   0  0  0  0  0  0  0  0  0  0  0  0
    5.7900   -0.1460   -2.4017 C   0  0  0  0  0  0  0  0  0  0  0  0
    6.2219    1.0993   -2.1007 N   0  0  0  0  0  0  0  0  0  0  0  0
    5.9651    1.6311   -0.8835 C   0  0  0  0  0  0  0  0  0  0  0  0
    5.2701    0.9278    0.0590 C   0  0  0  0  0  0  0  0  0  0  0  0
    2.0811   -0.5622   -0.5306 C   0  0  0  0  0  0  0  0  0  0  0  0
    0.6157   -1.0219   -0.5973 C   0  0  0  0  0  0  0  0  0  0  0  0
   -2.5044   -0.6842    0.4671 N   0  0  0  0  0  0  0  0  0  0  0  0
   -3.6776   -0.0178    0.4040 C   0  0  0  0  0  0  0  0  0  0  0  0
   -3.7333    1.3586    0.4278 C   0  0  0  0  0  0  0  0  0  0  0  0
   -5.0588    1.9826    0.3551 C   0  0  0  0  0  0  0  0  0  0  0  0
   -5.9242    1.3220   -0.6724 C   0  0  0  0  0  0  0  0  0  0  0  0
   -5.9485   -0.1693   -0.5998 C   0  0  0  0  0  0  0  0  0  0  0  0
   -4.9208   -0.7731    0.3057 C   0  0  0  0  0  0  0  0  0  0  0  0
   -0.4794    1.8683    0.6493 H   0  0  0  0  0  0  0  0  0  0  0  0
   -0.0555   -1.9280    2.3684 H   0  0  0  0  0  0  0  0  0  0  0  0
    0.6140   -0.2450    2.5847 H   0  0  0  0  0  0  0  0  0  0  0  0
    2.4593   -1.6271    2.6141 H   0  0  0  0  0  0  0  0  0  0  0  0
    1.9038   -2.6846    1.2948 H   0  0  0  0  0  0  0  0  0  0  0  0
    4.1986   -2.2362    0.5124 H   0  0  0  0  0  0  0  0  0  0  0  0
    4.4679   -0.9946    1.7646 H   0  0  0  0  0  0  0  0  0  0  0  0
    4.7561   -1.9015   -1.7496 H   0  0  0  0  0  0  0  0  0  0  0  0
    5.9979   -0.5811   -3.3913 H   0  0  0  0  0  0  0  0  0  0  0  0
    6.3072    2.6210   -0.6410 H   0  0  0  0  0  0  0  0  0  0  0  0
    5.0506    1.3391    1.0509 H   0  0  0  0  0  0  0  0  0  0  0  0
    2.6067   -1.0528   -1.3458 H   0  0  0  0  0  0  0  0  0  0  0  0
    2.0698    0.5444   -0.6929 H   0  0  0  0  0  0  0  0  0  0  0  0
    0.1715   -0.4649   -1.4379 H   0  0  0  0  0  0  0  0  0  0  0  0
    0.5753   -2.1098   -0.7910 H   0  0  0  0  0  0  0  0  0  0  0  0
   -5.5767    1.8915    1.3425 H   0  0  0  0  0  0  0  0  0  0  0  0
   -5.0329    3.0669    0.1263 H   0  0  0  0  0  0  0  0  0  0  0  0
   -6.9686    1.6814   -0.5020 H   0  0  0  0  0  0  0  0  0  0  0  0
   -5.6432    1.6870   -1.6807 H   0  0  0  0  0  0  0  0  0  0  0  0
   -6.9496   -0.5668   -0.3334 H   0  0  0  0  0  0  0  0  0  0  0  0
   -5.7403   -0.5552   -1.6255 H   0  0  0  0  0  0  0  0  0  0  0  0
   -4.6875   -1.8153    0.0041 H   0  0  0  0  0  0  0  0  0  0  0  0
   -5.3596   -0.8537    1.3335 H   0  0  0  0  0  0  0  0  0  0  0  0
  1  2  2  0
  2  3  1  0
  3  4  1  0
  4  5  1  0
  5  6  1  0
  6  7  1  0
  7  8  1  0
  8  9  1  0
  9 10  1  0
 10 11  2  0
 11 12  1  0
 12 13  2  0
 13 14  1  0
 14 15  2  0
  8 16  1  0
 16 17  1  0
  4 18  2  0
 18 19  1  0
 19 20  2  0
 20 21  1  0
 21 22  1  0
 22 23  1  0
 23 24  1  0
 20  2  1  0
 17  5  1  0
 24 19  1  0
 15 10  1  0
  3 25  1  0
  6 26  1  0
  6 27  1  0
  7 28  1  0
  7 29  1  0
  9 30  1  0
  9 31  1  0
 11 32  1  0
 12 33  1  0
 14 34  1  0
 15 35  1  0
 16 36  1  0
 16 37  1  0
 17 38  1  0
 17 39  1  0
 21 40  1  0
 21 41  1  0
 22 42  1  0
 22 43  1  0
 23 44  1  0
 23 45  1  0
 24 46  1  0
 24 47  1  0
M  END
$$$$
