
     RDKit          3D

 67 70  0  0  0  0  0  0  0  0999 V2000
   -4.4422   -2.6078    2.4330 C   0  0  0  0  0  0  0  0  0  0  0  0
   -3.0964   -2.7154    1.8015 C   0  0  0  0  0  0  0  0  0  0  0  0
   -2.8225   -1.7345    0.8245 O   0  0  0  0  0  0  0  0  0  0  0  0
   -1.5639   -1.8180    0.2207 C   0  0  0  0  0  0  0  0  0  0  0  0
   -0.6552   -2.7956    0.5602 C   0  0  0  0  0  0  0  0  0  0  0  0
    0.5864   -2.8418   -0.0657 C   0  0  0  0  0  0  0  0  0  0  0  0
    0.9349   -1.9220   -1.0296 C   0  0  0  0  0  0  0  0  0  0  0  0
    2.2351   -1.9866   -1.6845 C   0  0  0  0  0  0  0  0  0  0  0  0
    3.3502   -1.2412   -1.0583 C   0  0  0  0  0  0  0  0  0  0  0  0
    3.1646    0.2390   -0.9258 C   0  0  0  0  0  0  0  0  0  0  0  0
    4.5673    0.8538   -0.8709 C   0  0  0  0  0  0  0  0  0  0  0  0
    5.5280   -0.0396   -0.1540 C   0  0  0  0  0  0  0  0  0  0  0  0
    6.6968    0.6649    0.4320 C   0  0  0  0  0  0  0  0  0  0  0  0
    6.4319    1.6902    1.4250 C   0  0  0  0  0  0  0  0  0  0  0  0
    5.2719    1.9663    1.7892 O   0  0  0  0  0  0  0  0  0  0  0  0
    7.5087    2.4064    2.0066 N   0  0  0  0  0  0  0  0  0  0  0  0
    7.2353    3.3662    2.9386 O   0  0  0  0  0  0  0  0  0  0  0  0
    4.7174   -0.7660    0.9210 C   0  0  0  0  0  0  0  0  0  0  0  0
    3.7965   -1.7840    0.2760 C   0  0  0  0  0  0  0  0  0  0  0  0
   -0.0118   -0.9540   -1.3403 C   0  0  0  0  0  0  0  0  0  0  0  0
   -1.2503   -0.8787   -0.7407 C   0  0  0  0  0  0  0  0  0  0  0  0
   -2.2525    0.1395   -1.0778 C   0  0  0  0  0  0  0  0  0  0  0  0
   -3.4628    0.1358   -0.4921 N   0  0  0  0  0  0  0  0  0  0  0  0
   -4.4449    1.0161   -0.7384 C   0  0  0  0  0  0  0  0  0  0  0  0
   -5.7318    1.2102   -0.2809 C   0  0  0  0  0  0  0  0  0  0  0  0
   -6.3768    0.3438    0.7325 C   0  0  0  0  0  0  0  0  0  0  0  0
   -5.9067    0.6023    2.1373 C   0  0  0  0  0  0  0  0  0  0  0  0
   -6.2138    2.2808   -0.9248 N   0  0  0  0  0  0  0  0  0  0  0  0
   -5.2909    2.7493   -1.7495 N   0  0  0  0  0  0  0  0  0  0  0  0
   -5.4938    3.9086   -2.5986 C   0  0  0  0  0  0  0  0  0  0  0  0
   -4.1802    2.0099   -1.6775 C   0  0  0  0  0  0  0  0  0  0  0  0
   -2.9516    2.0211   -2.2779 C   0  0  0  0  0  0  0  0  0  0  0  0
   -2.7165    2.9148   -3.1207 O   0  0  0  0  0  0  0  0  0  0  0  0
   -1.9975    1.0955   -1.9813 N   0  0  0  0  0  0  0  0  0  0  0  0
   -4.5329   -1.8114    3.1774 H   0  0  0  0  0  0  0  0  0  0  0  0
   -5.2433   -2.4967    1.6744 H   0  0  0  0  0  0  0  0  0  0  0  0
   -4.7125   -3.5563    2.9828 H   0  0  0  0  0  0  0  0  0  0  0  0
   -3.0129   -3.7355    1.3423 H   0  0  0  0  0  0  0  0  0  0  0  0
   -2.2957   -2.6246    2.5673 H   0  0  0  0  0  0  0  0  0  0  0  0
   -0.9453   -3.4981    1.3090 H   0  0  0  0  0  0  0  0  0  0  0  0
    1.2491   -3.6419    0.2561 H   0  0  0  0  0  0  0  0  0  0  0  0
    2.1905   -1.6591   -2.7658 H   0  0  0  0  0  0  0  0  0  0  0  0
    2.5654   -3.0641   -1.7654 H   0  0  0  0  0  0  0  0  0  0  0  0
    4.2380   -1.3822   -1.7443 H   0  0  0  0  0  0  0  0  0  0  0  0
    2.5740    0.5287   -0.0162 H   0  0  0  0  0  0  0  0  0  0  0  0
    2.6409    0.6143   -1.8193 H   0  0  0  0  0  0  0  0  0  0  0  0
    4.8821    1.0403   -1.9242 H   0  0  0  0  0  0  0  0  0  0  0  0
    4.5262    1.8415   -0.3867 H   0  0  0  0  0  0  0  0  0  0  0  0
    5.9743   -0.8139   -0.8552 H   0  0  0  0  0  0  0  0  0  0  0  0
    7.3954   -0.1413    0.8126 H   0  0  0  0  0  0  0  0  0  0  0  0
    7.2806    1.0822   -0.4471 H   0  0  0  0  0  0  0  0  0  0  0  0
    8.5028    2.2520    1.7720 H   0  0  0  0  0  0  0  0  0  0  0  0
    7.3967    4.2335    2.4590 H   0  0  0  0  0  0  0  0  0  0  0  0
    4.0902    0.0098    1.4107 H   0  0  0  0  0  0  0  0  0  0  0  0
    5.3868   -1.2229    1.6663 H   0  0  0  0  0  0  0  0  0  0  0  0
    4.3482   -2.7361    0.1940 H   0  0  0  0  0  0  0  0  0  0  0  0
    2.9507   -1.9229    0.9874 H   0  0  0  0  0  0  0  0  0  0  0  0
    0.2450   -0.2370   -2.0837 H   0  0  0  0  0  0  0  0  0  0  0  0
   -7.4866    0.5197    0.6306 H   0  0  0  0  0  0  0  0  0  0  0  0
   -6.2432   -0.7178    0.4397 H   0  0  0  0  0  0  0  0  0  0  0  0
   -4.8030    0.5041    2.1531 H   0  0  0  0  0  0  0  0  0  0  0  0
   -6.2997   -0.2526    2.7541 H   0  0  0  0  0  0  0  0  0  0  0  0
   -6.2720    1.5711    2.5129 H   0  0  0  0  0  0  0  0  0  0  0  0
   -5.0741    4.8128   -2.1413 H   0  0  0  0  0  0  0  0  0  0  0  0
   -5.0091    3.7803   -3.5872 H   0  0  0  0  0  0  0  0  0  0  0  0
   -6.5836    4.0386   -2.8059 H   0  0  0  0  0  0  0  0  0  0  0  0
   -1.0864    1.1561   -2.4683 H   0  0  0  0  0  0  0  0  0  0  0  0
  1  2  1  0
  2  3  1  0
  3  4  1  0
  4  5  2  0
  5  6  1  0
  6  7  2  0
  7  8  1  0
  8  9  1  0
  9 10  1  0
 10 11  1  0
 11 12  1  0
 12 13  1  0
 13 14  1  0
 14 15  2  0
 14 16  1  0
 16 17  1  0
 12 18  1  0
 18 19  1  0
  7 20  1  0
 20 21  2  0
 21 22  1  0
 22 23  2  0
 23 24  1  0
 24 25  1  0
 25 26  1  0
 26 27  1  0
 25 28  2  0
 28 29  1  0
 29 30  1  0
 29 31  1  0
 31 32  1  0
 32 33  2  0
 32 34  1  0
 21  4  1  0
 34 22  1  0
 19  9  1  0
 31 24  2  0
  1 35  1  0
  1 36  1  0
  1 37  1  0
  2 38  1  0
  2 39  1  0
  5 40  1  0
  6 41  1  0
  8 42  1  0
  8 43  1  0
  9 44  1  0
 10 45  1  0
 10 46  1  0
 11 47  1  0
 11 48  1  0
 12 49  1  0
 13 50  1  0
 13 51  1  0
 16 52  1  0
 17 53  1  0
 18 54  1  0
 18 55  1  0
 19 56  1  0
 19 57  1  0
 20 58  1  0
 26 59  1  0
 26 60  1  0
 27 61  1  0
 27 62  1  0
 27 63  1  0
 30 64  1  0
 30 65  1  0
 30 66  1  0
 34 67  1  0
M  END
$$$$
