
     RDKit          3D

 41 43  0  0  0  0  0  0  0  0999 V2000
   -3.3297    0.0144    1.6768 C   0  0  0  0  0  0  0  0  0  0  0  0
   -3.4285    0.6973    0.3712 C   0  0  0  0  0  0  0  0  0  0  0  0
   -4.3782    1.6406    0.0474 C   0  0  0  0  0  0  0  0  0  0  0  0
   -5.2822    1.9205    1.0856 O   0  0  0  0  0  0  0  0  0  0  0  0
   -4.4204    2.2454   -1.1959 C   0  0  0  0  0  0  0  0  0  0  0  0
   -3.4637    1.8589   -2.1002 C   0  0  0  0  0  0  0  0  0  0  0  0
   -2.4894    0.9042   -1.7957 C   0  0  0  0  0  0  0  0  0  0  0  0
   -2.4681    0.3070   -0.5312 C   0  0  0  0  0  0  0  0  0  0  0  0
   -1.3879   -0.6476   -0.4210 C   0  0  0  0  0  0  0  0  0  0  0  0
   -1.1024   -1.4689   -1.3595 O   0  0  0  0  0  0  0  0  0  0  0  0
   -0.5501   -0.7774    0.7055 N   0  0  0  0  0  0  0  0  0  0  0  0
    0.5230   -1.7020    0.8499 C   0  0  0  0  0  0  0  0  0  0  0  0
    1.7628   -1.2178    0.4276 C   0  0  0  0  0  0  0  0  0  0  0  0
    1.9075    0.0729   -0.0874 C   0  0  0  0  0  0  0  0  0  0  0  0
    3.1117    0.5913   -0.5147 C   0  0  0  0  0  0  0  0  0  0  0  0
    4.2299   -0.1974   -0.4317 C   0  0  0  0  0  0  0  0  0  0  0  0
    4.0941   -1.4744    0.0768 C   0  0  0  0  0  0  0  0  0  0  0  0
    2.8890   -2.0075    0.5098 C   0  0  0  0  0  0  0  0  0  0  0  0
    2.7992   -3.3002    1.0155 C   0  0  0  0  0  0  0  0  0  0  0  0
    1.5603   -3.7780    1.4353 C   0  0  0  0  0  0  0  0  0  0  0  0
    0.4342   -2.9846    1.3523 C   0  0  0  0  0  0  0  0  0  0  0  0
    3.1247    1.9560   -1.0300 C   0  0  0  0  0  0  0  0  0  0  0  0
    4.3441    2.6974   -0.8445 N   0  0  0  0  0  0  0  0  0  0  0  0
    2.1602    2.5306   -1.6211 N   0  0  0  0  0  0  0  0  0  0  0  0
   -4.3605    0.0333    2.1443 H   0  0  0  0  0  0  0  0  0  0  0  0
   -2.7473    0.7045    2.3490 H   0  0  0  0  0  0  0  0  0  0  0  0
   -2.9253   -0.9956    1.6195 H   0  0  0  0  0  0  0  0  0  0  0  0
   -6.1382    1.3949    1.1901 H   0  0  0  0  0  0  0  0  0  0  0  0
   -5.1954    2.9761   -1.3756 H   0  0  0  0  0  0  0  0  0  0  0  0
   -3.5093    2.3430   -3.0722 H   0  0  0  0  0  0  0  0  0  0  0  0
   -1.8045    0.7117   -2.6269 H   0  0  0  0  0  0  0  0  0  0  0  0
   -0.6793   -0.1743    1.5259 H   0  0  0  0  0  0  0  0  0  0  0  0
    1.0278    0.6907   -0.1527 H   0  0  0  0  0  0  0  0  0  0  0  0
    5.1826    0.1945   -0.7638 H   0  0  0  0  0  0  0  0  0  0  0  0
    4.9692   -2.1381    0.1608 H   0  0  0  0  0  0  0  0  0  0  0  0
    3.7116   -3.8760    1.0556 H   0  0  0  0  0  0  0  0  0  0  0  0
    1.4948   -4.7835    1.8285 H   0  0  0  0  0  0  0  0  0  0  0  0
   -0.5376   -3.3104    1.6628 H   0  0  0  0  0  0  0  0  0  0  0  0
    5.0195    3.2064   -0.2127 H   0  0  0  0  0  0  0  0  0  0  0  0
    4.6063    3.0314    0.1171 H   0  0  0  0  0  0  0  0  0  0  0  0
    1.2455    2.1106   -1.8133 H   0  0  0  0  0  0  0  0  0  0  0  0
  1  2  1  0
  2  3  2  0
  3  4  1  0
  3  5  1  0
  5  6  2  0
  6  7  1  0
  7  8  2  0
  8  9  1  0
  9 10  2  0
  9 11  1  0
 11 12  1  0
 12 13  1  0
 13 14  2  0
 14 15  1  0
 15 16  2  0
 16 17  1  0
 17 18  2  0
 18 19  1  0
 19 20  2  0
 20 21  1  0
 15 22  1  0
 22 23  1  0
 22 24  2  3
  8  2  1  0
 21 12  2  0
 18 13  1  0
  1 25  1  0
  1 26  1  0
  1 27  1  0
  4 28  1  0
  5 29  1  0
  6 30  1  0
  7 31  1  0
 11 32  1  0
 14 33  1  0
 16 34  1  0
 17 35  1  0
 19 36  1  0
 20 37  1  0
 21 38  1  0
 23 39  1  0
 23 40  1  0
 24 41  1  0
M  END
$$$$
