
     RDKit          3D

 51 54  0  0  0  0  0  0  0  0999 V2000
   -6.2404    3.4340   -1.5190 C   0  0  0  0  0  0  0  0  0  0  0  0
   -6.4715    2.0769   -0.9719 C   0  0  0  0  0  0  0  0  0  0  0  0
   -7.7425    1.6107   -0.7270 C   0  0  0  0  0  0  0  0  0  0  0  0
   -7.8741    0.3744   -0.2324 N   0  0  0  0  0  0  0  0  0  0  0  0
   -6.7980   -0.4388    0.0375 C   0  0  0  0  0  0  0  0  0  0  0  0
   -5.5321   -0.0192   -0.1888 C   0  0  0  0  0  0  0  0  0  0  0  0
   -4.3822   -0.7943    0.0624 N   0  0  0  0  0  0  0  0  0  0  0  0
   -4.3775   -2.0952    0.5761 C   0  0  0  0  0  0  0  0  0  0  0  0
   -5.4541   -2.6981    0.8658 O   0  0  0  0  0  0  0  0  0  0  0  0
   -3.0944   -2.7932    0.7905 C   0  0  0  0  0  0  0  0  0  0  0  0
   -3.1435   -4.1006    1.3095 C   0  0  0  0  0  0  0  0  0  0  0  0
   -1.9759   -4.7666    1.5168 C   0  0  0  0  0  0  0  0  0  0  0  0
   -0.7548   -4.1776    1.2255 C   0  0  0  0  0  0  0  0  0  0  0  0
   -0.6919   -2.9097    0.7215 C   0  0  0  0  0  0  0  0  0  0  0  0
    0.5448   -2.2850    0.4153 N   0  0  0  0  0  0  0  0  0  0  0  0
    0.9678   -1.0799    0.8207 C   0  0  0  0  0  0  0  0  0  0  0  0
    2.2298   -0.8756    0.2854 C   0  0  0  0  0  0  0  0  0  0  0  0
    3.0015    0.2963    0.4967 N   0  0  0  0  0  0  0  0  0  0  0  0
    4.2996    0.4799   -0.0674 C   0  0  0  0  0  0  0  0  0  0  0  0
    4.7922   -0.4209   -0.7808 O   0  0  0  0  0  0  0  0  0  0  0  0
    5.0569    1.6582    0.1544 N   0  0  0  0  0  0  0  0  0  0  0  0
    6.3376    1.9544   -0.3430 C   0  0  0  0  0  0  0  0  0  0  0  0
    7.0944    1.1527   -1.1395 C   0  0  0  0  0  0  0  0  0  0  0  0
    8.3565    1.5651   -1.5677 C   0  0  0  0  0  0  0  0  0  0  0  0
    8.8788    2.7799   -1.2077 C   0  0  0  0  0  0  0  0  0  0  0  0
    8.1324    3.5899   -0.4123 C   0  0  0  0  0  0  0  0  0  0  0  0
    6.8855    3.1855    0.0123 C   0  0  0  0  0  0  0  0  0  0  0  0
    6.0017    4.2990    1.0335 Cl  0  0  0  0  0  0  0  0  0  0  0  0
    2.5199   -2.0066   -0.4436 C   0  0  0  0  0  0  0  0  0  0  0  0
    1.4884   -2.8443   -0.3511 N   0  0  0  0  0  0  0  0  0  0  0  0
   -1.8924   -2.2266    0.5090 C   0  0  0  0  0  0  0  0  0  0  0  0
   -5.3951    1.2772   -0.7074 C   0  0  0  0  0  0  0  0  0  0  0  0
   -5.3301    3.9098   -1.1126 H   0  0  0  0  0  0  0  0  0  0  0  0
   -6.1982    3.4593   -2.6193 H   0  0  0  0  0  0  0  0  0  0  0  0
   -7.1090    4.0581   -1.2028 H   0  0  0  0  0  0  0  0  0  0  0  0
   -8.6017    2.2287   -0.9300 H   0  0  0  0  0  0  0  0  0  0  0  0
   -7.0537   -1.4092    0.4330 H   0  0  0  0  0  0  0  0  0  0  0  0
   -3.4389   -0.3271   -0.1672 H   0  0  0  0  0  0  0  0  0  0  0  0
   -4.0876   -4.5460    1.5307 H   0  0  0  0  0  0  0  0  0  0  0  0
   -1.9583   -5.7744    1.9141 H   0  0  0  0  0  0  0  0  0  0  0  0
    0.1600   -4.7468    1.4066 H   0  0  0  0  0  0  0  0  0  0  0  0
    0.3922   -0.4103    1.4571 H   0  0  0  0  0  0  0  0  0  0  0  0
    2.6153    1.0583    1.0846 H   0  0  0  0  0  0  0  0  0  0  0  0
    4.5443    2.3703    0.7808 H   0  0  0  0  0  0  0  0  0  0  0  0
    6.7427    0.1628   -1.4702 H   0  0  0  0  0  0  0  0  0  0  0  0
    8.9056    0.8979   -2.1896 H   0  0  0  0  0  0  0  0  0  0  0  0
    9.8720    3.1144   -1.5396 H   0  0  0  0  0  0  0  0  0  0  0  0
    8.5613    4.5504   -0.1359 H   0  0  0  0  0  0  0  0  0  0  0  0
    3.4298   -2.2156   -1.0128 H   0  0  0  0  0  0  0  0  0  0  0  0
   -1.8210   -1.2281    0.1110 H   0  0  0  0  0  0  0  0  0  0  0  0
   -4.3920    1.6455   -0.9009 H   0  0  0  0  0  0  0  0  0  0  0  0
  1  2  1  0
  2  3  2  0
  3  4  1  0
  4  5  2  0
  5  6  1  0
  6  7  1  0
  7  8  1  0
  8  9  2  0
  8 10  1  0
 10 11  2  0
 11 12  1  0
 12 13  2  0
 13 14  1  0
 14 15  1  0
 15 16  1  0
 16 17  2  0
 17 18  1  0
 18 19  1  0
 19 20  2  0
 19 21  1  0
 21 22  1  0
 22 23  2  0
 23 24  1  0
 24 25  2  0
 25 26  1  0
 26 27  2  0
 27 28  1  0
 17 29  1  0
 29 30  2  0
 14 31  2  0
  6 32  2  0
 32  2  1  0
 31 10  1  0
 30 15  1  0
 27 22  1  0
  1 33  1  0
  1 34  1  0
  1 35  1  0
  3 36  1  0
  5 37  1  0
  7 38  1  0
 11 39  1  0
 12 40  1  0
 13 41  1  0
 16 42  1  0
 18 43  1  0
 21 44  1  0
 23 45  1  0
 24 46  1  0
 25 47  1  0
 26 48  1  0
 29 49  1  0
 31 50  1  0
 32 51  1  0
M  END
$$$$
