
     RDKit          3D

 68 72  0  0  0  0  0  0  0  0999 V2000
    3.2474   -3.1941   -0.2457 O   0  0  0  0  0  0  0  0  0  0  0  0
    3.5461   -1.9436   -0.4344 C   0  0  0  0  0  0  0  0  0  0  0  0
    4.5858   -1.4427    0.4033 C   0  0  0  0  0  0  0  0  0  0  0  0
    5.1320   -0.2601    0.4711 C   0  0  0  0  0  0  0  0  0  0  0  0
    6.2037    0.0927    1.4002 C   0  0  0  0  0  0  0  0  0  0  0  0
    6.7390   -0.7911    2.2973 C   0  0  0  0  0  0  0  0  0  0  0  0
    7.7681   -0.4028    3.1691 C   0  0  0  0  0  0  0  0  0  0  0  0
    8.2745   -1.2872    4.0369 F   0  0  0  0  0  0  0  0  0  0  0  0
    8.2682    0.8688    3.1492 C   0  0  0  0  0  0  0  0  0  0  0  0
    7.7363    1.7700    2.2481 C   0  0  0  0  0  0  0  0  0  0  0  0
    8.2201    3.0501    2.2087 F   0  0  0  0  0  0  0  0  0  0  0  0
    6.7329    1.3846    1.4012 C   0  0  0  0  0  0  0  0  0  0  0  0
    2.8041   -1.3137   -1.4172 N   0  0  0  0  0  0  0  0  0  0  0  0
    1.7947   -2.0766   -2.1667 C   0  0  0  0  0  0  0  0  0  0  0  0
    0.4468   -1.4524   -2.1745 C   0  0  0  0  0  0  0  0  0  0  0  0
    0.5080    0.0547   -2.4099 C   0  0  0  0  0  0  0  0  0  0  0  0
    0.0812    0.6985   -1.1363 C   0  0  1  0  0  0  0  0  0  0  0  0
    0.0913    2.2076   -1.1972 C   0  0  0  0  0  0  0  0  0  0  0  0
   -0.2067    2.6609    0.1023 O   0  0  0  0  0  0  0  0  0  0  0  0
   -1.1675    0.1543   -0.7324 N   0  0  0  0  0  0  0  0  0  0  0  0
   -2.2784    0.2882   -1.5707 C   0  0  0  0  0  0  0  0  0  0  0  0
   -3.5855    0.5619   -0.8354 C   0  0  0  0  0  0  0  0  0  0  0  0
   -3.8050   -0.4450    0.2448 C   0  0  0  0  0  0  0  0  0  0  0  0
   -4.8644    0.0548    1.1767 C   0  0  0  0  0  0  0  0  0  0  0  0
   -4.5848    0.8188    2.2928 C   0  0  0  0  0  0  0  0  0  0  0  0
   -5.7500    1.0923    2.9020 N   0  0  0  0  0  0  0  0  0  0  0  0
   -6.7805    0.5397    2.2327 C   0  0  0  0  0  0  0  0  0  0  0  0
   -8.1135    0.4986    2.3937 N   0  0  0  0  0  0  0  0  0  0  0  0
   -8.9313   -0.1567    1.5338 C   0  0  0  0  0  0  0  0  0  0  0  0
   -8.3836   -0.8027    0.4602 C   0  0  0  0  0  0  0  0  0  0  0  0
   -7.0175   -0.7786    0.2682 C   0  0  0  0  0  0  0  0  0  0  0  0
   -6.2166   -0.1100    1.1504 C   0  0  0  0  0  0  0  0  0  0  0  0
   -2.5697   -0.8581    0.9816 C   0  0  0  0  0  0  0  0  0  0  0  0
   -1.3668   -0.0186    0.6560 C   0  0  0  0  0  0  0  0  0  0  0  0
    1.8897    0.3503   -2.8723 C   0  0  0  0  0  0  0  0  0  0  0  0
    2.9396    0.0742   -1.7735 C   0  0  0  0  0  0  0  0  0  0  0  0
    5.0374   -2.1631    1.1451 H   0  0  0  0  0  0  0  0  0  0  0  0
    4.8107    0.5441   -0.1837 H   0  0  0  0  0  0  0  0  0  0  0  0
    6.4076   -1.8152    2.3850 H   0  0  0  0  0  0  0  0  0  0  0  0
    9.0549    1.2093    3.7984 H   0  0  0  0  0  0  0  0  0  0  0  0
    6.3090    2.0832    0.6902 H   0  0  0  0  0  0  0  0  0  0  0  0
    2.1716   -2.2891   -3.1891 H   0  0  0  0  0  0  0  0  0  0  0  0
    1.7012   -3.0555   -1.6510 H   0  0  0  0  0  0  0  0  0  0  0  0
   -0.1194   -1.9218   -3.0287 H   0  0  0  0  0  0  0  0  0  0  0  0
   -0.1055   -1.7232   -1.2627 H   0  0  0  0  0  0  0  0  0  0  0  0
   -0.1733    0.3109   -3.2576 H   0  0  0  0  0  0  0  0  0  0  0  0
    0.8142    0.4125   -0.3497 H   0  0  0  0  0  0  0  0  0  0  0  0
    1.0740    2.5820   -1.4472 H   0  0  0  0  0  0  0  0  0  0  0  0
   -0.6581    2.6253   -1.8680 H   0  0  0  0  0  0  0  0  0  0  0  0
    0.5619    2.5376    0.7094 H   0  0  0  0  0  0  0  0  0  0  0  0
   -2.4463   -0.6833   -2.1136 H   0  0  0  0  0  0  0  0  0  0  0  0
   -2.1852    1.0686   -2.3461 H   0  0  0  0  0  0  0  0  0  0  0  0
   -4.4042    0.4594   -1.5907 H   0  0  0  0  0  0  0  0  0  0  0  0
   -3.6416    1.5909   -0.4603 H   0  0  0  0  0  0  0  0  0  0  0  0
   -4.2506   -1.3660   -0.2287 H   0  0  0  0  0  0  0  0  0  0  0  0
   -3.6214    1.1418    2.6239 H   0  0  0  0  0  0  0  0  0  0  0  0
   -5.8685    1.6461    3.7672 H   0  0  0  0  0  0  0  0  0  0  0  0
  -10.0153   -0.1627    1.7052 H   0  0  0  0  0  0  0  0  0  0  0  0
   -9.0220   -1.3342   -0.2389 H   0  0  0  0  0  0  0  0  0  0  0  0
   -6.5748   -1.2885   -0.5817 H   0  0  0  0  0  0  0  0  0  0  0  0
   -2.3429   -1.9492    0.8379 H   0  0  0  0  0  0  0  0  0  0  0  0
   -2.7702   -0.7390    2.0656 H   0  0  0  0  0  0  0  0  0  0  0  0
   -0.4725   -0.5714    1.0702 H   0  0  0  0  0  0  0  0  0  0  0  0
   -1.4470    0.9245    1.2475 H   0  0  0  0  0  0  0  0  0  0  0  0
    2.1444   -0.3413   -3.6977 H   0  0  0  0  0  0  0  0  0  0  0  0
    2.0227    1.3666   -3.2862 H   0  0  0  0  0  0  0  0  0  0  0  0
    3.9086    0.2775   -2.2617 H   0  0  0  0  0  0  0  0  0  0  0  0
    2.7134    0.7358   -0.9086 H   0  0  0  0  0  0  0  0  0  0  0  0
  1  2  2  0
  2  3  1  0
  3  4  2  3
  4  5  1  0
  5  6  2  0
  6  7  1  0
  7  8  1  0
  7  9  2  0
  9 10  1  0
 10 11  1  0
 10 12  2  0
  2 13  1  0
 13 14  1  0
 14 15  1  0
 15 16  1  0
 16 17  1  0
 17 18  1  0
 18 19  1  0
 17 20  1  0
 20 21  1  0
 21 22  1  0
 22 23  1  0
 23 24  1  0
 24 25  2  0
 25 26  1  0
 26 27  1  0
 27 28  2  0
 28 29  1  0
 29 30  2  0
 30 31  1  0
 31 32  2  0
 23 33  1  0
 33 34  1  0
 16 35  1  0
 35 36  1  0
 12  5  1  0
 36 13  1  0
 34 20  1  0
 32 24  1  0
 32 27  1  0
  3 37  1  0
  4 38  1  0
  6 39  1  0
  9 40  1  0
 12 41  1  0
 14 42  1  0
 14 43  1  0
 15 44  1  0
 15 45  1  0
 16 46  1  0
 17 47  1  1
 18 48  1  0
 18 49  1  0
 19 50  1  0
 21 51  1  0
 21 52  1  0
 22 53  1  0
 22 54  1  0
 23 55  1  0
 25 56  1  0
 26 57  1  0
 29 58  1  0
 30 59  1  0
 31 60  1  0
 33 61  1  0
 33 62  1  0
 34 63  1  0
 34 64  1  0
 35 65  1  0
 35 66  1  0
 36 67  1  0
 36 68  1  0
M  END
$$$$
