
     RDKit          3D

 49 51  0  0  0  0  0  0  0  0999 V2000
   -3.5282   -2.9543    1.2269 C   0  0  0  0  0  0  0  0  0  0  0  0
   -3.5836   -1.5625    1.4041 O   0  0  0  0  0  0  0  0  0  0  0  0
   -2.7176   -0.7736    0.6220 C   0  0  0  0  0  0  0  0  0  0  0  0
   -1.8529   -1.3586   -0.2799 C   0  0  0  0  0  0  0  0  0  0  0  0
   -0.9877   -0.6371   -1.0670 C   0  0  0  0  0  0  0  0  0  0  0  0
   -0.0448   -1.2355   -2.0474 C   0  0  0  0  0  0  0  0  0  0  0  0
   -0.4122   -0.7622   -3.4535 C   0  0  0  0  0  0  0  0  0  0  0  0
    1.3444   -0.9208   -1.7360 C   0  0  0  0  0  0  0  0  0  0  0  0
    2.5011   -0.6503   -1.4895 C   0  0  0  0  0  0  0  0  0  0  0  0
    3.8673   -0.3115   -1.2144 C   0  0  0  0  0  0  0  0  0  0  0  0
    4.8757   -0.5156   -2.1508 C   0  0  0  0  0  0  0  0  0  0  0  0
    4.4749   -1.1066   -3.4653 C   0  0  0  0  0  0  0  0  0  0  0  0
    6.1494   -0.1913   -1.8729 N   0  0  0  0  0  0  0  0  0  0  0  0
    6.4116    0.3361   -0.6599 C   0  0  0  0  0  0  0  0  0  0  0  0
    7.7584    0.6913   -0.3364 N   0  0  0  0  0  0  0  0  0  0  0  0
    5.4716    0.5514    0.2758 N   0  0  0  0  0  0  0  0  0  0  0  0
    4.1854    0.2307    0.0121 C   0  0  0  0  0  0  0  0  0  0  0  0
    3.1422    0.4280    0.9454 N   0  0  0  0  0  0  0  0  0  0  0  0
   -0.9894    0.7337   -0.9441 C   0  0  0  0  0  0  0  0  0  0  0  0
   -1.8591    1.3225   -0.0369 C   0  0  0  0  0  0  0  0  0  0  0  0
   -2.7289    0.6112    0.7556 C   0  0  0  0  0  0  0  0  0  0  0  0
   -3.6129    1.2675    1.6827 C   0  0  0  0  0  0  0  0  0  0  0  0
   -4.3216    2.4006    1.2725 C   0  0  0  0  0  0  0  0  0  0  0  0
   -5.1729    3.0438    2.1426 C   0  0  0  0  0  0  0  0  0  0  0  0
   -5.3070    2.5483    3.4127 C   0  0  0  0  0  0  0  0  0  0  0  0
   -4.6057    1.4270    3.8188 C   0  0  0  0  0  0  0  0  0  0  0  0
   -3.7454    0.7644    2.9634 C   0  0  0  0  0  0  0  0  0  0  0  0
   -3.7182   -3.1423    0.1372 H   0  0  0  0  0  0  0  0  0  0  0  0
   -2.5036   -3.3457    1.4382 H   0  0  0  0  0  0  0  0  0  0  0  0
   -4.2368   -3.5016    1.8624 H   0  0  0  0  0  0  0  0  0  0  0  0
   -1.8265   -2.4410   -0.4017 H   0  0  0  0  0  0  0  0  0  0  0  0
   -0.1332   -2.3512   -2.0660 H   0  0  0  0  0  0  0  0  0  0  0  0
   -0.3190   -1.5705   -4.1924 H   0  0  0  0  0  0  0  0  0  0  0  0
    0.3052    0.0465   -3.7096 H   0  0  0  0  0  0  0  0  0  0  0  0
   -1.4478   -0.3581   -3.4787 H   0  0  0  0  0  0  0  0  0  0  0  0
    4.5932   -2.2084   -3.4797 H   0  0  0  0  0  0  0  0  0  0  0  0
    3.4237   -0.8515   -3.6799 H   0  0  0  0  0  0  0  0  0  0  0  0
    5.1184   -0.7005   -4.2492 H   0  0  0  0  0  0  0  0  0  0  0  0
    8.4198   -0.0444   -0.0353 H   0  0  0  0  0  0  0  0  0  0  0  0
    8.0528    1.6936   -0.4101 H   0  0  0  0  0  0  0  0  0  0  0  0
    2.3350   -0.2294    0.9491 H   0  0  0  0  0  0  0  0  0  0  0  0
    3.1378    1.2135    1.6452 H   0  0  0  0  0  0  0  0  0  0  0  0
   -0.3167    1.3278   -1.5530 H   0  0  0  0  0  0  0  0  0  0  0  0
   -1.7974    2.4184   -0.0005 H   0  0  0  0  0  0  0  0  0  0  0  0
   -4.2111    2.7828    0.2759 H   0  0  0  0  0  0  0  0  0  0  0  0
   -5.7118    3.9197    1.8027 H   0  0  0  0  0  0  0  0  0  0  0  0
   -5.9864    3.0627    4.1052 H   0  0  0  0  0  0  0  0  0  0  0  0
   -4.7010    1.0180    4.8295 H   0  0  0  0  0  0  0  0  0  0  0  0
   -3.1883   -0.1151    3.2645 H   0  0  0  0  0  0  0  0  0  0  0  0
  1  2  1  0
  2  3  1  0
  3  4  2  0
  4  5  1  0
  5  6  1  0
  6  7  1  0
  6  8  1  0
  8  9  3  0
  9 10  1  0
 10 11  2  0
 11 12  1  0
 11 13  1  0
 13 14  2  0
 14 15  1  0
 14 16  1  0
 16 17  2  0
 17 18  1  0
  5 19  2  0
 19 20  1  0
 20 21  2  0
 21 22  1  0
 22 23  2  0
 23 24  1  0
 24 25  2  0
 25 26  1  0
 26 27  2  0
 21  3  1  0
 27 22  1  0
 17 10  1  0
  1 28  1  0
  1 29  1  0
  1 30  1  0
  4 31  1  0
  6 32  1  0
  7 33  1  0
  7 34  1  0
  7 35  1  0
 12 36  1  0
 12 37  1  0
 12 38  1  0
 15 39  1  0
 15 40  1  0
 18 41  1  0
 18 42  1  0
 19 43  1  0
 20 44  1  0
 23 45  1  0
 24 46  1  0
 25 47  1  0
 26 48  1  0
 27 49  1  0
M  END
$$$$
