
     RDKit          3D

 32 31  0  0  0  0  0  0  0  0999 V2000
   -3.2912    1.0097    1.2844 C   0  0  0  0  0  0  0  0  0  0  0  0
   -2.6603   -0.1967    0.5901 C   0  0  0  0  0  0  0  0  0  0  0  0
   -3.5751   -0.5375   -0.5696 C   0  0  0  0  0  0  0  0  0  0  0  0
   -2.7131   -1.3093    1.6072 C   0  0  0  0  0  0  0  0  0  0  0  0
   -1.3782    0.1741    0.2116 O   0  0  0  0  0  0  0  0  0  0  0  0
   -0.4576   -0.6385   -0.4545 C   0  0  0  0  0  0  0  0  0  0  0  0
   -0.8801   -1.7874   -0.7050 O   0  0  0  0  0  0  0  0  0  0  0  0
    0.9026   -0.2082   -0.8426 C   0  0  1  0  0  0  0  0  0  0  0  0
    1.0606    1.1508   -0.4108 N   0  0  0  0  0  0  0  0  0  0  0  0
    1.9926   -1.1161   -0.3417 C   0  0  0  0  0  0  0  0  0  0  0  0
    3.3505   -0.6155   -0.7752 C   0  0  0  0  0  0  0  0  0  0  0  0
    3.5640    0.7485   -0.2222 C   0  0  0  0  0  0  0  0  0  0  0  0
    4.8505    1.1789   -0.6535 N   0  0  0  0  0  0  0  0  0  0  0  0
    3.6095    1.8836    0.3036 O   0  0  0  0  0  0  0  0  0  0  0  0
   -4.0958    0.6745    1.9946 H   0  0  0  0  0  0  0  0  0  0  0  0
   -3.7027    1.7329    0.5543 H   0  0  0  0  0  0  0  0  0  0  0  0
   -2.4908    1.4759    1.8912 H   0  0  0  0  0  0  0  0  0  0  0  0
   -4.3832   -1.2063   -0.1516 H   0  0  0  0  0  0  0  0  0  0  0  0
   -3.0542   -1.0234   -1.4059 H   0  0  0  0  0  0  0  0  0  0  0  0
   -4.1365    0.3692   -0.9091 H   0  0  0  0  0  0  0  0  0  0  0  0
   -2.5613   -0.9301    2.6335 H   0  0  0  0  0  0  0  0  0  0  0  0
   -2.0295   -2.1366    1.4318 H   0  0  0  0  0  0  0  0  0  0  0  0
   -3.7438   -1.7291    1.5799 H   0  0  0  0  0  0  0  0  0  0  0  0
    0.9259   -0.2478   -1.9575 H   0  0  0  0  0  0  0  0  0  0  0  0
    1.1802    1.8528   -1.1533 H   0  0  0  0  0  0  0  0  0  0  0  0
    0.4990    1.4221    0.4060 H   0  0  0  0  0  0  0  0  0  0  0  0
    1.8370   -2.1187   -0.7920 H   0  0  0  0  0  0  0  0  0  0  0  0
    2.0223   -1.2035    0.7510 H   0  0  0  0  0  0  0  0  0  0  0  0
    4.1361   -1.2685   -0.3435 H   0  0  0  0  0  0  0  0  0  0  0  0
    3.4923   -0.6318   -1.8758 H   0  0  0  0  0  0  0  0  0  0  0  0
    5.8789    1.3552   -0.7942 H   0  0  0  0  0  0  0  0  0  0  0  0
    5.8513    1.4254   -0.8814 H   0  0  0  0  0  0  0  0  0  0  0  0
  1  2  1  0
  2  3  1  0
  2  4  1  0
  2  5  1  0
  5  6  1  0
  6  7  2  0
  6  8  1  0
  8  9  1  0
  8 10  1  0
 10 11  1  0
 11 12  1  0
 12 13  1  0
 12 14  2  0
  1 15  1  0
  1 16  1  0
  1 17  1  0
  3 18  1  0
  3 19  1  0
  3 20  1  0
  4 21  1  0
  4 22  1  0
  4 23  1  0
  8 24  1  6
  9 25  1  0
  9 26  1  0
 10 27  1  0
 10 28  1  0
 11 29  1  0
 11 30  1  0
 13 31  1  0
 13 32  1  0
M  END
$$$$
