
     RDKit          3D

 86 89  0  0  0  0  0  0  0  0999 V2000
    2.1661   -3.1213    1.2314 C   0  0  0  0  0  0  0  0  0  0  0  0
    2.3559   -1.6490    1.3653 C   0  0  0  0  0  0  0  0  0  0  0  0
    2.9716   -1.0420    0.2111 N   0  0  0  0  0  0  0  0  0  0  0  0
    4.3879   -0.9437    0.1451 C   0  0  0  0  0  0  0  0  0  0  0  0
    5.0608   -1.3924    1.1034 O   0  0  0  0  0  0  0  0  0  0  0  0
    5.0946   -0.3367   -1.0025 C   0  0  0  0  0  0  0  0  0  0  0  0
    6.5466   -0.3961   -0.7545 C   0  0  0  0  0  0  0  0  0  0  0  0
    7.1592    0.6493   -0.1109 C   0  0  0  0  0  0  0  0  0  0  0  0
    8.5214    0.5991    0.1263 C   0  0  0  0  0  0  0  0  0  0  0  0
    9.3111   -0.4826   -0.2654 C   0  0  0  0  0  0  0  0  0  0  0  0
   11.0319   -0.4999    0.0570 S   0  0  0  0  0  6  0  0  0  0  0  0
   11.8671    0.2406   -1.3313 C   0  0  0  0  0  0  0  0  0  0  0  0
   11.4783   -1.9163    0.1762 O   0  0  0  0  0  0  0  0  0  0  0  0
   11.3382    0.2967    1.3124 O   0  0  0  0  0  0  0  0  0  0  0  0
    8.6575   -1.5072   -0.9064 C   0  0  0  0  0  0  0  0  0  0  0  0
    7.2892   -1.4714   -1.1521 C   0  0  0  0  0  0  0  0  0  0  0  0
    2.1938   -0.5291   -0.8817 C   0  0  0  0  0  0  0  0  0  0  0  0
    1.3226   -1.5385   -1.5557 C   0  0  0  0  0  0  0  0  0  0  0  0
   -0.1106   -1.5315   -1.0789 C   0  0  0  0  0  0  0  0  0  0  0  0
   -0.7324   -0.2493   -1.4015 N   0  0  0  0  0  0  0  0  0  0  0  0
   -1.7230    0.0468   -0.4078 C   0  0  0  0  0  0  0  0  0  0  0  0
   -2.5037    1.3054   -0.6278 C   0  0  0  0  0  0  0  0  0  0  0  0
   -3.5122    1.4973    0.4915 C   0  0  1  0  0  0  0  0  0  0  0  0
   -4.2635    2.7445    0.2345 C   0  0  0  0  0  0  0  0  0  0  0  0
   -5.0112    2.9499   -0.8964 C   0  0  0  0  0  0  0  0  0  0  0  0
   -5.6898    4.1300   -1.0791 C   0  0  0  0  0  0  0  0  0  0  0  0
   -6.4461    4.3493   -2.2092 F   0  0  0  0  0  0  0  0  0  0  0  0
   -5.6514    5.1470   -0.1490 C   0  0  0  0  0  0  0  0  0  0  0  0
   -4.8964    4.9270    0.9819 C   0  0  0  0  0  0  0  0  0  0  0  0
   -4.8284    5.9027    1.9299 F   0  0  0  0  0  0  0  0  0  0  0  0
   -4.2131    3.7498    1.1754 C   0  0  0  0  0  0  0  0  0  0  0  0
   -4.3568    0.2872    0.7757 C   0  0  0  0  0  0  0  0  0  0  0  0
   -5.3075    0.6040    1.8867 C   0  0  0  0  0  0  0  0  0  0  0  0
   -6.6867    0.0996    1.7999 C   0  0  0  0  0  0  0  0  0  0  0  0
   -7.0708   -0.6879    0.7003 N   0  0  0  0  0  0  0  0  0  0  0  0
   -7.2138   -2.3549    0.9709 S   0  0  0  0  0  6  0  0  0  0  0  0
   -8.4194   -2.7978    2.1588 C   0  0  0  0  0  0  0  0  0  0  0  0
   -7.6188   -3.0002   -0.3487 O   0  0  0  0  0  0  0  0  0  0  0  0
   -5.8836   -2.9141    1.3312 O   0  0  0  0  0  0  0  0  0  0  0  0
   -6.4076   -0.3444   -0.5277 C   0  0  0  0  0  0  0  0  0  0  0  0
   -4.9056   -0.3912   -0.3952 C   0  0  0  0  0  0  0  0  0  0  0  0
    0.2705    0.7545   -1.5833 C   0  0  0  0  0  0  0  0  0  0  0  0
    1.3292    0.6733   -0.4740 C   0  0  0  0  0  0  0  0  0  0  0  0
    1.1279   -3.4466    1.0184 H   0  0  0  0  0  0  0  0  0  0  0  0
    2.4321   -3.6100    2.1899 H   0  0  0  0  0  0  0  0  0  0  0  0
    2.8728   -3.5616    0.4665 H   0  0  0  0  0  0  0  0  0  0  0  0
    2.9563   -1.4652    2.2994 H   0  0  0  0  0  0  0  0  0  0  0  0
    1.3758   -1.1304    1.5857 H   0  0  0  0  0  0  0  0  0  0  0  0
    4.8199    0.7483   -1.1351 H   0  0  0  0  0  0  0  0  0  0  0  0
    4.7965   -0.8393   -1.9421 H   0  0  0  0  0  0  0  0  0  0  0  0
    6.6158    1.5318    0.2280 H   0  0  0  0  0  0  0  0  0  0  0  0
    9.0255    1.4192    0.6355 H   0  0  0  0  0  0  0  0  0  0  0  0
   11.9860    1.3351   -1.2002 H   0  0  0  0  0  0  0  0  0  0  0  0
   12.8239   -0.2799   -1.5371 H   0  0  0  0  0  0  0  0  0  0  0  0
   11.2249    0.0904   -2.2316 H   0  0  0  0  0  0  0  0  0  0  0  0
    9.2590   -2.3639   -1.2213 H   0  0  0  0  0  0  0  0  0  0  0  0
    6.8537   -2.3376   -1.6715 H   0  0  0  0  0  0  0  0  0  0  0  0
    2.8555   -0.0949   -1.6905 H   0  0  0  0  0  0  0  0  0  0  0  0
    1.2731   -1.4107   -2.6777 H   0  0  0  0  0  0  0  0  0  0  0  0
    1.7354   -2.5863   -1.4534 H   0  0  0  0  0  0  0  0  0  0  0  0
   -0.2514   -1.8113   -0.0369 H   0  0  0  0  0  0  0  0  0  0  0  0
   -0.6544   -2.2890   -1.6936 H   0  0  0  0  0  0  0  0  0  0  0  0
   -1.2127    0.1777    0.5918 H   0  0  0  0  0  0  0  0  0  0  0  0
   -2.4170   -0.8032   -0.3538 H   0  0  0  0  0  0  0  0  0  0  0  0
   -3.0263    1.2904   -1.6002 H   0  0  0  0  0  0  0  0  0  0  0  0
   -1.8352    2.2073   -0.6897 H   0  0  0  0  0  0  0  0  0  0  0  0
   -2.9078    1.6803    1.4505 H   0  0  0  0  0  0  0  0  0  0  0  0
   -5.0858    2.1986   -1.6672 H   0  0  0  0  0  0  0  0  0  0  0  0
   -6.1959    6.0927   -0.2964 H   0  0  0  0  0  0  0  0  0  0  0  0
   -3.6419    3.6606    2.0968 H   0  0  0  0  0  0  0  0  0  0  0  0
   -3.6076   -0.4391    1.2384 H   0  0  0  0  0  0  0  0  0  0  0  0
   -4.8855    0.2961    2.8893 H   0  0  0  0  0  0  0  0  0  0  0  0
   -5.3507    1.7308    2.0036 H   0  0  0  0  0  0  0  0  0  0  0  0
   -7.4347    0.9537    1.8426 H   0  0  0  0  0  0  0  0  0  0  0  0
   -6.9715   -0.4831    2.7320 H   0  0  0  0  0  0  0  0  0  0  0  0
   -8.2077   -3.8330    2.4981 H   0  0  0  0  0  0  0  0  0  0  0  0
   -8.5301   -2.0858    2.9836 H   0  0  0  0  0  0  0  0  0  0  0  0
   -9.4115   -2.8465    1.6437 H   0  0  0  0  0  0  0  0  0  0  0  0
   -6.7571    0.6577   -0.8371 H   0  0  0  0  0  0  0  0  0  0  0  0
   -6.7513   -1.0569   -1.3054 H   0  0  0  0  0  0  0  0  0  0  0  0
   -4.4696   -0.0483   -1.3388 H   0  0  0  0  0  0  0  0  0  0  0  0
   -4.6768   -1.5081   -0.3951 H   0  0  0  0  0  0  0  0  0  0  0  0
    0.8070    0.5605   -2.5561 H   0  0  0  0  0  0  0  0  0  0  0  0
   -0.1793    1.7425   -1.6743 H   0  0  0  0  0  0  0  0  0  0  0  0
    1.9156    1.5939   -0.5276 H   0  0  0  0  0  0  0  0  0  0  0  0
    0.8040    0.5065    0.4686 H   0  0  0  0  0  0  0  0  0  0  0  0
  1  2  1  0
  2  3  1  0
  3  4  1  0
  4  5  2  0
  4  6  1  0
  6  7  1  0
  7  8  2  0
  8  9  1  0
  9 10  2  0
 10 11  1  0
 11 12  1  0
 11 13  2  0
 11 14  2  0
 10 15  1  0
 15 16  2  0
  3 17  1  0
 17 18  1  0
 18 19  1  0
 19 20  1  0
 20 21  1  0
 21 22  1  0
 22 23  1  0
 23 24  1  0
 24 25  2  0
 25 26  1  0
 26 27  1  0
 26 28  2  0
 28 29  1  0
 29 30  1  0
 29 31  2  0
 23 32  1  0
 32 33  1  0
 33 34  1  0
 34 35  1  0
 35 36  1  0
 36 37  1  0
 36 38  2  0
 36 39  2  0
 35 40  1  0
 40 41  1  0
 20 42  1  0
 42 43  1  0
 16  7  1  0
 43 17  1  0
 31 24  1  0
 41 32  1  0
  1 44  1  0
  1 45  1  0
  1 46  1  0
  2 47  1  0
  2 48  1  0
  6 49  1  0
  6 50  1  0
  8 51  1  0
  9 52  1  0
 12 53  1  0
 12 54  1  0
 12 55  1  0
 15 56  1  0
 16 57  1  0
 17 58  1  0
 18 59  1  0
 18 60  1  0
 19 61  1  0
 19 62  1  0
 21 63  1  0
 21 64  1  0
 22 65  1  0
 22 66  1  0
 23 67  1  1
 25 68  1  0
 28 69  1  0
 31 70  1  0
 32 71  1  0
 33 72  1  0
 33 73  1  0
 34 74  1  0
 34 75  1  0
 37 76  1  0
 37 77  1  0
 37 78  1  0
 40 79  1  0
 40 80  1  0
 41 81  1  0
 41 82  1  0
 42 83  1  0
 42 84  1  0
 43 85  1  0
 43 86  1  0
M  END
$$$$
