
     RDKit          3D

 63 65  0  0  0  0  0  0  0  0999 V2000
   -3.6567   -0.6643    0.5531 C   0  0  2  0  0  0  0  0  0  0  0  0
   -4.0015   -2.0734    0.1202 C   0  0  0  0  0  0  0  0  0  0  0  0
   -5.4217   -2.0419   -0.3308 C   0  0  0  0  0  0  0  0  0  0  0  0
   -5.8983   -2.6398   -1.2862 O   0  0  0  0  0  0  0  0  0  0  0  0
   -6.2358   -1.1630    0.5483 C   0  0  0  0  0  0  0  0  0  0  0  0
   -5.8496    0.3084    0.3506 C   0  0  0  0  0  0  0  0  0  0  0  0
   -4.4759    0.2748   -0.2995 C   0  0  1  0  0  0  0  0  0  0  0  0
   -3.8949    1.6197   -0.5099 C   0  0  0  0  0  0  0  0  0  0  0  0
   -3.5231    1.7504   -1.9945 C   0  0  0  0  0  0  0  0  0  0  0  0
   -4.8629    2.7468   -0.2155 C   0  0  0  0  0  0  0  0  0  0  0  0
   -2.7006    1.8859    0.1959 O   0  0  0  0  0  0  0  0  0  0  0  0
   -1.7638    0.8865    0.3726 C   0  0  0  0  0  0  0  0  0  0  0  0
   -0.4414    1.2616    0.3561 C   0  0  0  0  0  0  0  0  0  0  0  0
    0.5450    0.3269    0.5251 C   0  0  0  0  0  0  0  0  0  0  0  0
    0.1163   -0.9946    0.7089 C   0  0  0  0  0  0  0  0  0  0  0  0
   -1.2388   -1.3491    0.7211 C   0  0  0  0  0  0  0  0  0  0  0  0
   -1.6722   -2.6627    0.9037 O   0  0  0  0  0  0  0  0  0  0  0  0
   -2.2185   -0.3999    0.5507 C   0  0  0  0  0  0  0  0  0  0  0  0
    2.0523    0.3565    0.5877 C   0  0  0  0  0  0  0  0  0  0  0  0
    2.4848    1.7754    0.6835 C   0  0  0  0  0  0  0  0  0  0  0  0
    2.4207   -0.3229    1.9065 C   0  0  0  0  0  0  0  0  0  0  0  0
    2.5775   -0.3983   -0.5783 C   0  0  0  0  0  0  0  0  0  0  0  0
    4.0486   -0.5598   -0.7665 C   0  0  0  0  0  0  0  0  0  0  0  0
    4.8616    0.6447   -0.9540 C   0  0  0  0  0  0  0  0  0  0  0  0
    6.2963    0.4226   -1.2651 C   0  0  0  0  0  0  0  0  0  0  0  0
    7.1191   -0.3043   -0.2796 C   0  0  0  0  0  0  0  0  0  0  0  0
    6.8353   -1.7324    0.0064 C   0  0  0  0  0  0  0  0  0  0  0  0
   -4.0186   -0.6035    1.6237 H   0  0  0  0  0  0  0  0  0  0  0  0
   -3.3338   -2.3818   -0.7044 H   0  0  0  0  0  0  0  0  0  0  0  0
   -3.9928   -2.7813    0.9904 H   0  0  0  0  0  0  0  0  0  0  0  0
   -6.1205   -1.4569    1.6148 H   0  0  0  0  0  0  0  0  0  0  0  0
   -7.2960   -1.3484    0.2922 H   0  0  0  0  0  0  0  0  0  0  0  0
   -6.6259    0.7268   -0.2920 H   0  0  0  0  0  0  0  0  0  0  0  0
   -5.8116    0.7649    1.3627 H   0  0  0  0  0  0  0  0  0  0  0  0
   -4.6707   -0.2244   -1.2965 H   0  0  0  0  0  0  0  0  0  0  0  0
   -3.8125    2.7142   -2.4232 H   0  0  0  0  0  0  0  0  0  0  0  0
   -4.0112    0.9486   -2.5948 H   0  0  0  0  0  0  0  0  0  0  0  0
   -2.4333    1.5915   -2.1449 H   0  0  0  0  0  0  0  0  0  0  0  0
   -4.8181    3.0160    0.8578 H   0  0  0  0  0  0  0  0  0  0  0  0
   -5.8571    2.5884   -0.6278 H   0  0  0  0  0  0  0  0  0  0  0  0
   -4.4510    3.6400   -0.7700 H   0  0  0  0  0  0  0  0  0  0  0  0
   -0.0636    2.2557    0.2078 H   0  0  0  0  0  0  0  0  0  0  0  0
    0.7397   -1.8887    0.8632 H   0  0  0  0  0  0  0  0  0  0  0  0
   -1.1333   -3.4629    0.6639 H   0  0  0  0  0  0  0  0  0  0  0  0
    2.7305    2.2446   -0.2801 H   0  0  0  0  0  0  0  0  0  0  0  0
    1.6135    2.3791    1.1042 H   0  0  0  0  0  0  0  0  0  0  0  0
    3.2665    1.9314    1.4728 H   0  0  0  0  0  0  0  0  0  0  0  0
    3.3538    0.1248    2.3099 H   0  0  0  0  0  0  0  0  0  0  0  0
    1.5765   -0.1972    2.6126 H   0  0  0  0  0  0  0  0  0  0  0  0
    2.5240   -1.4049    1.7093 H   0  0  0  0  0  0  0  0  0  0  0  0
    2.1816    0.0563   -1.5438 H   0  0  0  0  0  0  0  0  0  0  0  0
    2.1307   -1.4413   -0.5264 H   0  0  0  0  0  0  0  0  0  0  0  0
    4.1890   -1.2590   -1.6241 H   0  0  0  0  0  0  0  0  0  0  0  0
    4.4711   -1.1065    0.1338 H   0  0  0  0  0  0  0  0  0  0  0  0
    4.8344    1.2320    0.0316 H   0  0  0  0  0  0  0  0  0  0  0  0
    4.3913    1.3336   -1.7348 H   0  0  0  0  0  0  0  0  0  0  0  0
    6.7397    1.4697   -1.4281 H   0  0  0  0  0  0  0  0  0  0  0  0
    6.4247   -0.0393   -2.2961 H   0  0  0  0  0  0  0  0  0  0  0  0
    8.2254   -0.1899   -0.5454 H   0  0  0  0  0  0  0  0  0  0  0  0
    7.0983    0.2225    0.7419 H   0  0  0  0  0  0  0  0  0  0  0  0
    6.2334   -2.1769   -0.8055 H   0  0  0  0  0  0  0  0  0  0  0  0
    7.8492   -2.2915    0.0082 H   0  0  0  0  0  0  0  0  0  0  0  0
    6.3745   -1.9398    0.9824 H   0  0  0  0  0  0  0  0  0  0  0  0
  1  2  1  0
  2  3  1  0
  3  4  2  0
  3  5  1  0
  5  6  1  0
  6  7  1  0
  7  8  1  0
  8  9  1  0
  8 10  1  0
  8 11  1  0
 11 12  1  0
 12 13  2  0
 13 14  1  0
 14 15  2  0
 15 16  1  0
 16 17  1  0
 16 18  2  0
 14 19  1  0
 19 20  1  0
 19 21  1  0
 19 22  1  0
 22 23  1  0
 23 24  1  0
 24 25  1  0
 25 26  1  0
 26 27  1  0
  7  1  1  0
 18 12  1  0
 18  1  1  0
  1 28  1  1
  2 29  1  0
  2 30  1  0
  5 31  1  0
  5 32  1  0
  6 33  1  0
  6 34  1  0
  7 35  1  6
  9 36  1  0
  9 37  1  0
  9 38  1  0
 10 39  1  0
 10 40  1  0
 10 41  1  0
 13 42  1  0
 15 43  1  0
 17 44  1  0
 20 45  1  0
 20 46  1  0
 20 47  1  0
 21 48  1  0
 21 49  1  0
 21 50  1  0
 22 51  1  0
 22 52  1  0
 23 53  1  0
 23 54  1  0
 24 55  1  0
 24 56  1  0
 25 57  1  0
 25 58  1  0
 26 59  1  0
 26 60  1  0
 27 61  1  0
 27 62  1  0
 27 63  1  0
M  END
$$$$
