
     RDKit          3D

 44 47  0  0  0  0  0  0  0  0999 V2000
    6.1689    2.9234   -0.2489 N   0  0  0  0  0  0  0  0  0  0  0  0
    4.9688    2.1728   -0.1270 C   0  0  0  0  0  0  0  0  0  0  0  0
    3.8894    2.7960   -0.1428 O   0  0  0  0  0  0  0  0  0  0  0  0
    5.0650    0.7348    0.0078 C   0  0  0  0  0  0  0  0  0  0  0  0
    6.2755    0.0837    0.0208 C   0  0  0  0  0  0  0  0  0  0  0  0
    6.3270   -1.2909    0.1514 C   0  0  0  0  0  0  0  0  0  0  0  0
    5.1525   -2.0142    0.2696 C   0  0  0  0  0  0  0  0  0  0  0  0
    3.9474   -1.3394    0.2540 C   0  0  0  0  0  0  0  0  0  0  0  0
    2.6152   -1.7541    0.3489 C   0  0  0  0  0  0  0  0  0  0  0  0
    1.8121   -0.6949    0.2797 N   0  0  0  0  0  0  0  0  0  0  0  0
    0.3694   -0.6968    0.3393 C   0  0  0  0  0  0  0  0  0  0  0  0
   -0.3250   -1.7566    0.8597 C   0  0  0  0  0  0  0  0  0  0  0  0
   -1.7025   -1.7084    0.8933 C   0  0  0  0  0  0  0  0  0  0  0  0
   -2.4383   -0.6312    0.4229 C   0  0  0  0  0  0  0  0  0  0  0  0
   -3.9446   -0.6042    0.4801 C   0  0  2  0  0  0  0  0  0  0  0  0
   -4.5887   -0.8968   -0.8246 C   0  0  0  0  0  0  0  0  0  0  0  0
   -4.9252    0.3437   -1.5750 C   0  0  0  0  0  0  0  0  0  0  0  0
   -5.7736    1.2144   -0.6620 C   0  0  0  0  0  0  0  0  0  0  0  0
   -5.0111    1.6249    0.4775 N   0  0  0  0  0  0  0  0  0  0  0  0
   -4.4149    0.5826    1.2249 C   0  0  0  0  0  0  0  0  0  0  0  0
   -1.6988    0.4138   -0.0922 C   0  0  0  0  0  0  0  0  0  0  0  0
   -0.3174    0.3810   -0.1332 C   0  0  0  0  0  0  0  0  0  0  0  0
    2.5668    0.3704    0.1458 N   0  0  0  0  0  0  0  0  0  0  0  0
    3.8764    0.0309    0.1247 C   0  0  0  0  0  0  0  0  0  0  0  0
    6.2890    3.5399   -1.0758 H   0  0  0  0  0  0  0  0  0  0  0  0
    6.9425    2.8739    0.4751 H   0  0  0  0  0  0  0  0  0  0  0  0
    7.1987    0.6769   -0.0744 H   0  0  0  0  0  0  0  0  0  0  0  0
    7.2723   -1.8099    0.1626 H   0  0  0  0  0  0  0  0  0  0  0  0
    5.1350   -3.0880    0.3740 H   0  0  0  0  0  0  0  0  0  0  0  0
    2.3157   -2.7835    0.4606 H   0  0  0  0  0  0  0  0  0  0  0  0
    0.2119   -2.6150    1.2365 H   0  0  0  0  0  0  0  0  0  0  0  0
   -2.2760   -2.5534    1.3088 H   0  0  0  0  0  0  0  0  0  0  0  0
   -4.1911   -1.5013    1.1364 H   0  0  0  0  0  0  0  0  0  0  0  0
   -3.9152   -1.5822   -1.3865 H   0  0  0  0  0  0  0  0  0  0  0  0
   -5.5334   -1.4858   -0.6245 H   0  0  0  0  0  0  0  0  0  0  0  0
   -5.5066    0.1179   -2.5009 H   0  0  0  0  0  0  0  0  0  0  0  0
   -4.0240    0.8585   -1.9121 H   0  0  0  0  0  0  0  0  0  0  0  0
   -6.6379    0.6290   -0.3080 H   0  0  0  0  0  0  0  0  0  0  0  0
   -6.1219    2.1115   -1.1917 H   0  0  0  0  0  0  0  0  0  0  0  0
   -4.4278    2.4697    0.3318 H   0  0  0  0  0  0  0  0  0  0  0  0
   -5.1301    0.3189    2.0591 H   0  0  0  0  0  0  0  0  0  0  0  0
   -3.5320    1.0222    1.7765 H   0  0  0  0  0  0  0  0  0  0  0  0
   -2.1926    1.2928   -0.4754 H   0  0  0  0  0  0  0  0  0  0  0  0
    0.2292    1.2229   -0.5464 H   0  0  0  0  0  0  0  0  0  0  0  0
  1  2  1  0
  2  3  2  0
  2  4  1  0
  4  5  2  0
  5  6  1  0
  6  7  2  0
  7  8  1  0
  8  9  2  0
  9 10  1  0
 10 11  1  0
 11 12  2  0
 12 13  1  0
 13 14  2  0
 14 15  1  0
 15 16  1  0
 16 17  1  0
 17 18  1  0
 18 19  1  0
 19 20  1  0
 14 21  1  0
 21 22  2  0
 10 23  1  0
 23 24  2  0
 24  4  1  0
 24  8  1  0
 22 11  1  0
 20 15  1  0
  1 25  1  0
  1 26  1  0
  5 27  1  0
  6 28  1  0
  7 29  1  0
  9 30  1  0
 12 31  1  0
 13 32  1  0
 15 33  1  1
 16 34  1  0
 16 35  1  0
 17 36  1  0
 17 37  1  0
 18 38  1  0
 18 39  1  0
 19 40  1  0
 20 41  1  0
 20 42  1  0
 21 43  1  0
 22 44  1  0
M  END
$$$$
