
     RDKit          3D

 50 53  0  0  0  0  0  0  0  0999 V2000
   -2.4517   -2.6575   -1.8257 C   0  0  0  0  0  0  0  0  0  0  0  0
   -2.6188   -1.4987   -0.9174 C   0  0  0  0  0  0  0  0  0  0  0  0
   -1.6182   -0.5655   -0.6009 C   0  0  0  0  0  0  0  0  0  0  0  0
   -0.2873   -0.6665   -1.1655 C   0  0  0  0  0  0  0  0  0  0  0  0
    0.6944    0.3430   -0.8729 C   0  0  0  0  0  0  0  0  0  0  0  0
    0.8219    1.4957   -1.6544 C   0  0  0  0  0  0  0  0  0  0  0  0
    1.7538    2.4512   -1.3967 C   0  0  0  0  0  0  0  0  0  0  0  0
    2.6108    2.2604   -0.3052 C   0  0  0  0  0  0  0  0  0  0  0  0
    3.4842    3.1583   -0.0556 O   0  0  0  0  0  0  0  0  0  0  0  0
    2.4928    1.1604    0.4414 N   0  0  0  0  0  0  0  0  0  0  0  0
    3.3910    0.9093    1.5568 C   0  0  0  0  0  0  0  0  0  0  0  0
    4.5310    0.0404    1.2584 C   0  0  0  0  0  0  0  0  0  0  0  0
    4.3700   -1.3004    1.6460 C   0  0  0  0  0  0  0  0  0  0  0  0
    5.3532   -2.2193    1.4056 C   0  0  0  0  0  0  0  0  0  0  0  0
    6.5309   -1.8745    0.7797 C   0  0  0  0  0  0  0  0  0  0  0  0
    7.5096   -2.7962    0.5404 F   0  0  0  0  0  0  0  0  0  0  0  0
    6.6786   -0.5672    0.4064 C   0  0  0  0  0  0  0  0  0  0  0  0
    5.6988    0.3680    0.6420 C   0  0  0  0  0  0  0  0  0  0  0  0
    5.9192    1.6690    0.2605 F   0  0  0  0  0  0  0  0  0  0  0  0
    1.5526    0.2454    0.1438 N   0  0  0  0  0  0  0  0  0  0  0  0
   -2.1909    0.3290    0.2656 C   0  0  0  0  0  0  0  0  0  0  0  0
   -1.6957    1.4353    0.8966 C   0  0  0  0  0  0  0  0  0  0  0  0
   -2.5275    2.1741    1.7447 C   0  0  0  0  0  0  0  0  0  0  0  0
   -2.0434    3.2704    2.3732 F   0  0  0  0  0  0  0  0  0  0  0  0
   -3.8377    1.7783    1.9356 C   0  0  0  0  0  0  0  0  0  0  0  0
   -4.3539    0.6643    1.3075 C   0  0  0  0  0  0  0  0  0  0  0  0
   -3.5218   -0.0554    0.4729 C   0  0  0  0  0  0  0  0  0  0  0  0
   -3.7267   -1.1632   -0.2640 N   0  0  0  0  0  0  0  0  0  0  0  0
   -4.9894   -1.8756   -0.3239 C   0  0  0  0  0  0  0  0  0  0  0  0
   -5.7915   -1.3120   -1.4292 C   0  0  0  0  0  0  0  0  0  0  0  0
   -6.9318   -1.7942   -1.6498 O   0  0  0  0  0  0  0  0  0  0  0  0
   -5.2920   -0.2797   -2.1960 O   0  0  0  0  0  0  0  0  0  0  0  0
   -3.4493   -2.9440   -2.2625 H   0  0  0  0  0  0  0  0  0  0  0  0
   -2.1018   -3.5183   -1.2037 H   0  0  0  0  0  0  0  0  0  0  0  0
   -1.7697   -2.4315   -2.6564 H   0  0  0  0  0  0  0  0  0  0  0  0
    0.1183   -1.6985   -0.9010 H   0  0  0  0  0  0  0  0  0  0  0  0
   -0.4344   -0.7735   -2.2904 H   0  0  0  0  0  0  0  0  0  0  0  0
    0.1392    1.6018   -2.4859 H   0  0  0  0  0  0  0  0  0  0  0  0
    1.8944    3.3562   -1.9661 H   0  0  0  0  0  0  0  0  0  0  0  0
    2.8171    0.5432    2.4391 H   0  0  0  0  0  0  0  0  0  0  0  0
    3.8241    1.8907    1.9175 H   0  0  0  0  0  0  0  0  0  0  0  0
    3.4668   -1.6159    2.1383 H   0  0  0  0  0  0  0  0  0  0  0  0
    5.2060   -3.2507    1.7147 H   0  0  0  0  0  0  0  0  0  0  0  0
    7.6148   -0.2617   -0.0976 H   0  0  0  0  0  0  0  0  0  0  0  0
   -0.6723    1.7289    0.7366 H   0  0  0  0  0  0  0  0  0  0  0  0
   -4.5219    2.3174    2.5848 H   0  0  0  0  0  0  0  0  0  0  0  0
   -5.3747    0.3274    1.4363 H   0  0  0  0  0  0  0  0  0  0  0  0
   -4.8143   -2.9730   -0.4509 H   0  0  0  0  0  0  0  0  0  0  0  0
   -5.5265   -1.7814    0.6521 H   0  0  0  0  0  0  0  0  0  0  0  0
   -5.9305    0.3098   -2.7248 H   0  0  0  0  0  0  0  0  0  0  0  0
  1  2  1  0
  2  3  2  0
  3  4  1  0
  4  5  1  0
  5  6  1  0
  6  7  2  0
  7  8  1  0
  8  9  2  0
  8 10  1  0
 10 11  1  0
 11 12  1  0
 12 13  2  0
 13 14  1  0
 14 15  2  0
 15 16  1  0
 15 17  1  0
 17 18  2  0
 18 19  1  0
 10 20  1  0
  3 21  1  0
 21 22  2  0
 22 23  1  0
 23 24  1  0
 23 25  2  0
 25 26  1  0
 26 27  2  0
 27 28  1  0
 28 29  1  0
 29 30  1  0
 30 31  2  0
 30 32  1  0
 28  2  1  0
 20  5  2  0
 27 21  1  0
 18 12  1  0
  1 33  1  0
  1 34  1  0
  1 35  1  0
  4 36  1  0
  4 37  1  0
  6 38  1  0
  7 39  1  0
 11 40  1  0
 11 41  1  0
 13 42  1  0
 14 43  1  0
 17 44  1  0
 22 45  1  0
 25 46  1  0
 26 47  1  0
 29 48  1  0
 29 49  1  0
 32 50  1  0
M  END
$$$$
