
     RDKit          3D

 39 41  0  0  0  0  0  0  0  0999 V2000
    3.6831   -1.7430    1.2837 O   0  0  0  0  0  0  0  0  0  0  0  0
    3.2196   -1.2296    0.2173 C   0  0  0  0  0  0  0  0  0  0  0  0
    4.1157   -1.0818   -0.8649 N   0  0  0  0  0  0  0  0  0  0  0  0
    5.5083   -1.4709   -0.8354 C   0  0  0  0  0  0  0  0  0  0  0  0
    6.2003   -0.6858    0.2475 C   0  0  0  0  0  0  0  0  0  0  0  0
    6.1126    0.6814    0.0103 O   0  0  0  0  0  0  0  0  0  0  0  0
    1.8062   -0.8219    0.1579 C   0  0  0  0  0  0  0  0  0  0  0  0
    1.0065   -1.0057    1.2672 C   0  0  0  0  0  0  0  0  0  0  0  0
   -0.3304   -0.6454    1.2809 C   0  0  0  0  0  0  0  0  0  0  0  0
   -0.8814   -0.0923    0.1710 C   0  0  0  0  0  0  0  0  0  0  0  0
   -2.2785    0.3094    0.1161 C   0  0  0  0  0  0  0  0  0  0  0  0
   -3.2980   -0.5234   -0.2915 C   0  0  0  0  0  0  0  0  0  0  0  0
   -4.6194   -0.1465   -0.3444 C   0  0  0  0  0  0  0  0  0  0  0  0
   -5.6546   -1.0974   -0.7926 C   0  0  0  0  0  0  0  0  0  0  0  0
   -6.8011   -0.4316   -1.2009 F   0  0  0  0  0  0  0  0  0  0  0  0
   -5.9673   -1.9522    0.2491 F   0  0  0  0  0  0  0  0  0  0  0  0
   -5.1415   -1.8150   -1.8552 F   0  0  0  0  0  0  0  0  0  0  0  0
   -4.9585    1.1354    0.0288 C   0  0  0  0  0  0  0  0  0  0  0  0
   -3.9625    2.0022    0.4444 C   0  0  0  0  0  0  0  0  0  0  0  0
   -3.9700    3.2954    0.8655 N   0  0  0  0  0  0  0  0  0  0  0  0
   -2.7350    3.6702    1.1523 N   0  0  0  0  0  0  0  0  0  0  0  0
   -1.8713    2.6643    0.9390 C   0  0  0  0  0  0  0  0  0  0  0  0
   -2.6507    1.5972    0.4869 C   0  0  0  0  0  0  0  0  0  0  0  0
   -0.1204    0.1094   -0.9582 C   0  0  0  0  0  0  0  0  0  0  0  0
   -0.6469    0.6645   -2.0919 F   0  0  0  0  0  0  0  0  0  0  0  0
    1.2293   -0.2623   -0.9501 C   0  0  0  0  0  0  0  0  0  0  0  0
    3.7580   -0.6602   -1.7629 H   0  0  0  0  0  0  0  0  0  0  0  0
    5.5635   -2.5728   -0.6455 H   0  0  0  0  0  0  0  0  0  0  0  0
    6.0117   -1.2247   -1.7904 H   0  0  0  0  0  0  0  0  0  0  0  0
    5.8335   -0.8949    1.2658 H   0  0  0  0  0  0  0  0  0  0  0  0
    7.2938   -0.9775    0.2744 H   0  0  0  0  0  0  0  0  0  0  0  0
    6.9671    1.0681   -0.3190 H   0  0  0  0  0  0  0  0  0  0  0  0
    1.3977   -1.4406    2.1713 H   0  0  0  0  0  0  0  0  0  0  0  0
   -0.9566   -0.7926    2.1582 H   0  0  0  0  0  0  0  0  0  0  0  0
   -3.0592   -1.5327   -0.5891 H   0  0  0  0  0  0  0  0  0  0  0  0
   -5.9810    1.5005    0.0119 H   0  0  0  0  0  0  0  0  0  0  0  0
   -4.8462    3.8601    0.9332 H   0  0  0  0  0  0  0  0  0  0  0  0
   -0.7924    2.6417    1.0753 H   0  0  0  0  0  0  0  0  0  0  0  0
    1.8159   -0.0989   -1.8425 H   0  0  0  0  0  0  0  0  0  0  0  0
  1  2  2  0
  2  3  1  0
  3  4  1  0
  4  5  1  0
  5  6  1  0
  2  7  1  0
  7  8  2  0
  8  9  1  0
  9 10  2  0
 10 11  1  0
 11 12  2  0
 12 13  1  0
 13 14  1  0
 14 15  1  0
 14 16  1  0
 14 17  1  0
 13 18  2  0
 18 19  1  0
 19 20  1  0
 20 21  1  0
 21 22  2  0
 22 23  1  0
 10 24  1  0
 24 25  1  0
 24 26  2  0
 26  7  1  0
 23 11  1  0
 23 19  2  0
  3 27  1  0
  4 28  1  0
  4 29  1  0
  5 30  1  0
  5 31  1  0
  6 32  1  0
  8 33  1  0
  9 34  1  0
 12 35  1  0
 18 36  1  0
 20 37  1  0
 22 38  1  0
 26 39  1  0
M  END
$$$$
