
     RDKit          3D

 60 63  0  0  0  0  0  0  0  0999 V2000
   -8.6169    1.4623    0.0789 C   0  0  0  0  0  0  0  0  0  0  0  0
   -7.1732    1.7992    0.2541 C   0  0  0  0  0  0  0  0  0  0  0  0
   -6.3487    0.6858    0.5394 O   0  0  0  0  0  0  0  0  0  0  0  0
   -6.1914   -0.4007   -0.2745 C   0  0  0  0  0  0  0  0  0  0  0  0
   -6.7634   -0.6585   -1.4976 C   0  0  0  0  0  0  0  0  0  0  0  0
   -6.5249   -1.8005   -2.2300 C   0  0  0  0  0  0  0  0  0  0  0  0
   -5.6689   -2.7296   -1.7066 C   0  0  0  0  0  0  0  0  0  0  0  0
   -5.0660   -2.5046   -0.4639 C   0  0  0  0  0  0  0  0  0  0  0  0
   -5.3231   -1.3356    0.2635 C   0  0  0  0  0  0  0  0  0  0  0  0
   -4.4148   -1.3476    1.7906 S   0  0  0  0  0  0  0  0  0  0  0  0
   -2.7958   -0.6137    1.6469 C   0  0  0  0  0  0  0  0  0  0  0  0
   -2.4721    0.7066    1.8762 C   0  0  0  0  0  0  0  0  0  0  0  0
   -1.1815    1.1692    1.7347 C   0  0  0  0  0  0  0  0  0  0  0  0
   -0.1421    0.3351    1.3559 C   0  0  0  0  0  0  0  0  0  0  0  0
   -0.4467   -0.9903    1.1223 C   0  0  0  0  0  0  0  0  0  0  0  0
   -1.7593   -1.4475    1.2690 C   0  0  0  0  0  0  0  0  0  0  0  0
    1.1877    0.9213    1.2357 C   0  0  0  0  0  0  0  0  0  0  0  0
    2.0910    0.4478    0.3368 C   0  0  0  0  0  0  0  0  0  0  0  0
    3.3538    0.9767    0.1990 C   0  0  0  0  0  0  0  0  0  0  0  0
    3.6538    2.0035    1.0130 N   0  0  0  0  0  0  0  0  0  0  0  0
    2.7802    2.4919    1.9109 C   0  0  0  0  0  0  0  0  0  0  0  0
    1.5093    1.9879    2.0763 C   0  0  0  0  0  0  0  0  0  0  0  0
    4.3622    0.5510   -0.7072 N   0  0  0  0  0  0  0  0  0  0  0  0
    5.6769    1.1981   -0.7508 C   0  0  0  0  0  0  0  0  0  0  0  0
    6.6441    0.1660   -0.1984 C   0  0  0  0  0  0  0  0  0  0  0  0
    6.6149   -0.9566   -1.1151 N   0  0  0  0  0  0  0  0  0  0  0  0
    5.3838   -1.4978   -1.6433 C   0  0  0  0  0  0  0  0  0  0  0  0
    4.2473   -0.5234   -1.6679 C   0  0  0  0  0  0  0  0  0  0  0  0
    7.8524   -1.5688   -1.5255 C   0  0  0  0  0  0  0  0  0  0  0  0
    9.1483   -1.0374   -0.9977 C   0  0  0  0  0  0  0  0  0  0  0  0
    7.8650   -2.5484   -2.3247 O   0  0  0  0  0  0  0  0  0  0  0  0
   -3.5357    1.5638    2.2712 N   0  0  0  0  0  0  0  0  0  0  0  0
   -3.5073    2.8843    1.9048 O   0  0  0  0  0  0  0  0  0  0  0  0
   -4.4728    1.1115    2.9456 O   0  0  0  0  0  0  0  0  0  0  0  0
   -9.2094    2.1145    0.7746 H   0  0  0  0  0  0  0  0  0  0  0  0
   -8.9742    1.6912   -0.9245 H   0  0  0  0  0  0  0  0  0  0  0  0
   -8.8393    0.4247    0.4113 H   0  0  0  0  0  0  0  0  0  0  0  0
   -6.7984    2.2308   -0.6985 H   0  0  0  0  0  0  0  0  0  0  0  0
   -7.0297    2.5888    1.0147 H   0  0  0  0  0  0  0  0  0  0  0  0
   -7.4294    0.1134   -1.8573 H   0  0  0  0  0  0  0  0  0  0  0  0
   -7.0042   -1.9417   -3.1809 H   0  0  0  0  0  0  0  0  0  0  0  0
   -5.5097   -3.6083   -2.3105 H   0  0  0  0  0  0  0  0  0  0  0  0
   -4.4164   -3.3387   -0.1957 H   0  0  0  0  0  0  0  0  0  0  0  0
   -1.0055    2.2131    1.9312 H   0  0  0  0  0  0  0  0  0  0  0  0
    0.3686   -1.6377    0.8271 H   0  0  0  0  0  0  0  0  0  0  0  0
   -1.8918   -2.5024    1.0628 H   0  0  0  0  0  0  0  0  0  0  0  0
    1.8355   -0.3692   -0.3029 H   0  0  0  0  0  0  0  0  0  0  0  0
    3.0911    3.3229    2.5350 H   0  0  0  0  0  0  0  0  0  0  0  0
    0.8390    2.4148    2.8150 H   0  0  0  0  0  0  0  0  0  0  0  0
    5.6714    2.1289   -0.1442 H   0  0  0  0  0  0  0  0  0  0  0  0
    5.9154    1.3944   -1.8132 H   0  0  0  0  0  0  0  0  0  0  0  0
    7.6511    0.5762   -0.0631 H   0  0  0  0  0  0  0  0  0  0  0  0
    6.2277   -0.1953    0.7715 H   0  0  0  0  0  0  0  0  0  0  0  0
    5.6133   -1.8187   -2.6941 H   0  0  0  0  0  0  0  0  0  0  0  0
    5.0447   -2.3677   -1.0378 H   0  0  0  0  0  0  0  0  0  0  0  0
    3.2797   -1.0609   -1.5476 H   0  0  0  0  0  0  0  0  0  0  0  0
    4.2130   -0.0615   -2.6779 H   0  0  0  0  0  0  0  0  0  0  0  0
    9.4037   -0.0611   -1.4076 H   0  0  0  0  0  0  0  0  0  0  0  0
    9.9358   -1.7821   -1.1878 H   0  0  0  0  0  0  0  0  0  0  0  0
    9.0520   -0.9696    0.1246 H   0  0  0  0  0  0  0  0  0  0  0  0
  1  2  1  0
  2  3  1  0
  3  4  1  0
  4  5  2  0
  5  6  1  0
  6  7  2  0
  7  8  1  0
  8  9  2  0
  9 10  1  0
 10 11  1  0
 11 12  2  0
 12 13  1  0
 13 14  2  0
 14 15  1  0
 15 16  2  0
 14 17  1  0
 17 18  2  0
 18 19  1  0
 19 20  2  0
 20 21  1  0
 21 22  2  0
 19 23  1  0
 23 24  1  0
 24 25  1  0
 25 26  1  0
 26 27  1  0
 27 28  1  0
 26 29  1  0
 29 30  1  0
 29 31  2  0
 12 32  1  0
 32 33  1  0
 32 34  2  0
  9  4  1  0
 16 11  1  0
 22 17  1  0
 28 23  1  0
  1 35  1  0
  1 36  1  0
  1 37  1  0
  2 38  1  0
  2 39  1  0
  5 40  1  0
  6 41  1  0
  7 42  1  0
  8 43  1  0
 13 44  1  0
 15 45  1  0
 16 46  1  0
 18 47  1  0
 21 48  1  0
 22 49  1  0
 24 50  1  0
 24 51  1  0
 25 52  1  0
 25 53  1  0
 27 54  1  0
 27 55  1  0
 28 56  1  0
 28 57  1  0
 30 58  1  0
 30 59  1  0
 30 60  1  0
M  CHG  2  32   1  33  -1
M  END
$$$$
