
     RDKit          3D

 49 52  0  0  0  0  0  0  0  0999 V2000
    2.0452   -0.4844    1.1986 C   0  0  0  0  0  0  0  0  0  0  0  0
    1.9364   -0.1582   -0.2702 C   0  0  0  0  0  0  0  0  0  0  0  0
    1.9139    1.3641   -0.4359 C   0  0  0  0  0  0  0  0  0  0  0  0
    2.9619   -0.7479   -1.0048 O   0  0  0  0  0  0  0  0  0  0  0  0
    4.2680   -0.4135   -0.6955 C   0  0  0  0  0  0  0  0  0  0  0  0
    5.0169   -1.1084    0.2356 C   0  0  0  0  0  0  0  0  0  0  0  0
    6.3141   -0.7663    0.5343 C   0  0  0  0  0  0  0  0  0  0  0  0
    6.8899    0.3012   -0.1116 C   0  0  0  0  0  0  0  0  0  0  0  0
    8.5206    0.8369    0.1740 Cl  0  0  0  0  0  0  0  0  0  0  0  0
    6.1426    1.0073   -1.0516 C   0  0  0  0  0  0  0  0  0  0  0  0
    4.8484    0.6587   -1.3433 C   0  0  0  0  0  0  0  0  0  0  0  0
    0.5813   -0.6163   -0.7452 C   0  0  0  0  0  0  0  0  0  0  0  0
    0.4443   -1.4237   -1.6825 O   0  0  0  0  0  0  0  0  0  0  0  0
   -0.5882   -0.1169   -0.1097 N   0  0  0  0  0  0  0  0  0  0  0  0
   -1.9112   -0.4955   -0.4933 C   0  0  0  0  0  0  0  0  0  0  0  0
   -2.5827   -1.1803    0.6905 C   0  0  0  0  0  0  0  0  0  0  0  0
   -2.7930   -0.2244    1.8428 C   0  0  0  0  0  0  0  0  0  0  0  0
   -3.7235    0.8705    1.3582 C   0  0  0  0  0  0  0  0  0  0  0  0
   -3.0034    1.6265    0.2787 C   0  0  0  0  0  0  0  0  0  0  0  0
   -2.7756    0.6839   -0.8742 C   0  0  0  0  0  0  0  0  0  0  0  0
   -4.1156    0.1516   -1.3120 C   0  0  0  0  0  0  0  0  0  0  0  0
   -4.7745   -0.5354   -0.1498 C   0  0  0  0  0  0  0  0  0  0  0  0
   -6.0327   -1.0173   -0.4889 O   0  0  0  0  0  0  0  0  0  0  0  0
   -3.9137   -1.7275    0.2246 C   0  0  0  0  0  0  0  0  0  0  0  0
   -4.9166    0.3726    0.8735 O   0  0  0  0  0  0  0  0  0  0  0  0
    1.1114   -0.2287    1.7388 H   0  0  0  0  0  0  0  0  0  0  0  0
    2.2341   -1.5483    1.3636 H   0  0  0  0  0  0  0  0  0  0  0  0
    2.8719    0.0860    1.6653 H   0  0  0  0  0  0  0  0  0  0  0  0
    1.6800    1.6036   -1.4946 H   0  0  0  0  0  0  0  0  0  0  0  0
    2.9044    1.8005   -0.2009 H   0  0  0  0  0  0  0  0  0  0  0  0
    1.2010    1.8063    0.2829 H   0  0  0  0  0  0  0  0  0  0  0  0
    4.5417   -1.9446    0.7306 H   0  0  0  0  0  0  0  0  0  0  0  0
    6.8831   -1.3153    1.2596 H   0  0  0  0  0  0  0  0  0  0  0  0
    6.5752    1.8539   -1.5748 H   0  0  0  0  0  0  0  0  0  0  0  0
    4.2712    1.2246   -2.0869 H   0  0  0  0  0  0  0  0  0  0  0  0
   -0.4480    0.5579    0.6724 H   0  0  0  0  0  0  0  0  0  0  0  0
   -1.9488   -1.2084   -1.3253 H   0  0  0  0  0  0  0  0  0  0  0  0
   -1.8914   -1.9816    1.0151 H   0  0  0  0  0  0  0  0  0  0  0  0
   -3.2567   -0.7832    2.6613 H   0  0  0  0  0  0  0  0  0  0  0  0
   -1.8436    0.2526    2.1279 H   0  0  0  0  0  0  0  0  0  0  0  0
   -3.9528    1.5152    2.2212 H   0  0  0  0  0  0  0  0  0  0  0  0
   -3.6390    2.4525   -0.1007 H   0  0  0  0  0  0  0  0  0  0  0  0
   -2.0539    2.0581    0.6515 H   0  0  0  0  0  0  0  0  0  0  0  0
   -2.3640    1.2621   -1.7206 H   0  0  0  0  0  0  0  0  0  0  0  0
   -4.0870   -0.4431   -2.2260 H   0  0  0  0  0  0  0  0  0  0  0  0
   -4.7466    1.0579   -1.5491 H   0  0  0  0  0  0  0  0  0  0  0  0
   -6.6706   -0.2732   -0.6405 H   0  0  0  0  0  0  0  0  0  0  0  0
   -4.3750   -2.3622    0.9827 H   0  0  0  0  0  0  0  0  0  0  0  0
   -3.7494   -2.2997   -0.7137 H   0  0  0  0  0  0  0  0  0  0  0  0
  1  2  1  0
  2  3  1  0
  2  4  1  0
  4  5  1  0
  5  6  2  0
  6  7  1  0
  7  8  2  0
  8  9  1  0
  8 10  1  0
 10 11  2  0
  2 12  1  0
 12 13  2  0
 12 14  1  0
 14 15  1  0
 15 16  1  0
 16 17  1  0
 17 18  1  0
 18 19  1  0
 19 20  1  0
 20 21  1  0
 21 22  1  0
 22 23  1  0
 22 24  1  0
 22 25  1  0
 11  5  1  0
 20 15  1  0
 24 16  1  0
 25 18  1  0
  1 26  1  0
  1 27  1  0
  1 28  1  0
  3 29  1  0
  3 30  1  0
  3 31  1  0
  6 32  1  0
  7 33  1  0
 10 34  1  0
 11 35  1  0
 14 36  1  0
 15 37  1  0
 16 38  1  0
 17 39  1  0
 17 40  1  0
 18 41  1  0
 19 42  1  0
 19 43  1  0
 20 44  1  0
 21 45  1  0
 21 46  1  0
 23 47  1  0
 24 48  1  0
 24 49  1  0
M  END
$$$$
