
     RDKit          3D

 33 35  0  0  0  0  0  0  0  0999 V2000
    5.4042    0.0089   -0.2981 N   0  0  0  0  0  0  0  0  0  0  0  0
    4.0495   -0.0137   -1.3896 S   0  0  0  0  0  0  0  0  0  0  0  0
    3.9276    1.4019   -1.9372 O   0  0  0  0  0  0  0  0  0  0  0  0
    4.2563   -1.0049   -2.4779 O   0  0  0  0  0  0  0  0  0  0  0  0
    2.5929   -0.3297   -0.4733 C   0  0  0  0  0  0  0  0  0  0  0  0
    2.4760   -1.5135    0.2608 C   0  0  0  0  0  0  0  0  0  0  0  0
    3.8489   -2.6289    0.2017 Cl  0  0  0  0  0  0  0  0  0  0  0  0
    1.3442   -1.8309    1.0147 C   0  0  0  0  0  0  0  0  0  0  0  0
    0.2849   -0.9164    1.0291 C   0  0  0  0  0  0  0  0  0  0  0  0
    0.4158    0.2586    0.2927 C   0  0  0  0  0  0  0  0  0  0  0  0
    1.5435    0.5473   -0.4425 C   0  0  0  0  0  0  0  0  0  0  0  0
   -0.7793    1.1254    0.4017 C   0  0  0  0  0  0  0  0  0  0  0  0
   -0.5565    2.3492   -0.2026 O   0  0  0  0  0  0  0  0  0  0  0  0
   -1.0998    1.3458    1.7803 N   0  0  0  0  0  0  0  0  0  0  0  0
   -2.3982    0.8764    2.1193 C   0  0  0  0  0  0  0  0  0  0  0  0
   -2.8070    1.0046    3.2874 O   0  0  0  0  0  0  0  0  0  0  0  0
   -2.9246    0.3273    0.8762 C   0  0  0  0  0  0  0  0  0  0  0  0
   -4.1747   -0.2545    0.7055 C   0  0  0  0  0  0  0  0  0  0  0  0
   -4.5275   -0.7321   -0.5475 C   0  0  0  0  0  0  0  0  0  0  0  0
   -3.6076   -0.6022   -1.5677 C   0  0  0  0  0  0  0  0  0  0  0  0
   -2.3594   -0.0210   -1.3973 C   0  0  0  0  0  0  0  0  0  0  0  0
   -1.9968    0.4602   -0.1464 C   0  0  0  0  0  0  0  0  0  0  0  0
    5.3444    0.8222    0.3521 H   0  0  0  0  0  0  0  0  0  0  0  0
    6.2586    0.1421   -0.8824 H   0  0  0  0  0  0  0  0  0  0  0  0
    1.3283   -2.7825    1.5651 H   0  0  0  0  0  0  0  0  0  0  0  0
   -0.5675   -1.1974    1.6211 H   0  0  0  0  0  0  0  0  0  0  0  0
    1.5719    1.4698   -0.9826 H   0  0  0  0  0  0  0  0  0  0  0  0
   -0.5357    2.3358   -1.1837 H   0  0  0  0  0  0  0  0  0  0  0  0
   -0.3084    1.8220    2.3029 H   0  0  0  0  0  0  0  0  0  0  0  0
   -4.8856   -0.3489    1.5155 H   0  0  0  0  0  0  0  0  0  0  0  0
   -5.4943   -1.1805   -0.6735 H   0  0  0  0  0  0  0  0  0  0  0  0
   -3.9430   -0.9987   -2.5383 H   0  0  0  0  0  0  0  0  0  0  0  0
   -1.6812    0.0581   -2.2147 H   0  0  0  0  0  0  0  0  0  0  0  0
  1  2  1  0
  2  3  2  0
  2  4  2  0
  2  5  1  0
  5  6  2  0
  6  7  1  0
  6  8  1  0
  8  9  2  0
  9 10  1  0
 10 11  2  0
 10 12  1  0
 12 13  1  0
 12 14  1  0
 14 15  1  0
 15 16  2  0
 15 17  1  0
 17 18  2  0
 18 19  1  0
 19 20  2  0
 20 21  1  0
 21 22  2  0
 11  5  1  0
 22 12  1  0
 22 17  1  0
  1 23  1  0
  1 24  1  0
  8 25  1  0
  9 26  1  0
 11 27  1  0
 13 28  1  0
 14 29  1  0
 18 30  1  0
 19 31  1  0
 20 32  1  0
 21 33  1  0
M  END
$$$$
