
     RDKit          3D

 54 58  0  0  0  0  0  0  0  0999 V2000
   -8.1319    1.4239    0.5216 C   0  0  0  0  0  0  0  0  0  0  0  0
   -6.7127    1.9437    0.7161 C   0  0  0  0  0  0  0  0  0  0  0  0
   -6.5677    3.2228   -0.0379 C   0  0  0  0  0  0  0  0  0  0  0  0
   -5.7503    0.9381    0.2078 C   0  0  0  0  0  0  0  0  0  0  0  0
   -4.9072    0.1373    0.5852 N   0  0  0  0  0  0  0  0  0  0  0  0
   -4.1602   -0.6634   -0.0746 C   0  0  0  0  0  0  0  0  0  0  0  0
   -3.1411   -1.6353    0.4180 C   0  0  0  0  0  0  0  0  0  0  0  0
   -3.4255   -2.7020    1.1746 N   0  0  0  0  0  0  0  0  0  0  0  0
   -2.3278   -3.3775    1.4472 N   0  0  0  0  0  0  0  0  0  0  0  0
   -1.2908   -2.7191    0.8398 C   0  0  0  0  0  0  0  0  0  0  0  0
   -1.8249   -1.6616    0.2229 N   0  0  0  0  0  0  0  0  0  0  0  0
   -1.0118   -0.7088   -0.5231 C   0  0  0  0  0  0  0  0  0  0  0  0
    0.3636   -0.6081    0.0667 C   0  0  0  0  0  0  0  0  0  0  0  0
    0.9276   -1.8324    0.5094 N   0  0  0  0  0  0  0  0  0  0  0  0
    2.3322   -1.9810    0.7034 C   0  0  0  0  0  0  0  0  0  0  0  0
    2.7265   -3.1342    1.1215 O   0  0  0  0  0  0  0  0  0  0  0  0
    3.3682   -1.0147    0.4895 C   0  0  0  0  0  0  0  0  0  0  0  0
    3.8955   -0.2836    1.5247 C   0  0  0  0  0  0  0  0  0  0  0  0
    4.9243    0.6124    1.3106 C   0  0  0  0  0  0  0  0  0  0  0  0
    5.4713    0.8200    0.0682 C   0  0  0  0  0  0  0  0  0  0  0  0
    6.5514    1.7642   -0.0852 C   0  0  0  0  0  0  0  0  0  0  0  0
    7.3235    2.0798   -1.1603 C   0  0  0  0  0  0  0  0  0  0  0  0
    8.2922    2.9853   -1.0454 C   0  0  0  0  0  0  0  0  0  0  0  0
    8.4579    3.5794    0.2310 C   0  0  0  0  0  0  0  0  0  0  0  0
    7.2239    2.8098    1.1942 S   0  0  0  0  0  0  0  0  0  0  0  0
    4.9450    0.0911   -0.9675 C   0  0  0  0  0  0  0  0  0  0  0  0
    3.9229   -0.8043   -0.7807 C   0  0  0  0  0  0  0  0  0  0  0  0
    0.1452   -3.0026    0.7652 C   0  0  2  0  0  0  0  0  0  0  0  0
    0.3504   -3.9127   -0.4686 C   0  0  0  0  0  0  0  0  0  0  0  0
   -4.3830   -0.5764   -1.5298 C   0  0  0  0  0  0  0  0  0  0  0  0
   -5.6291    0.6473   -1.6471 S   0  0  0  0  0  0  0  0  0  0  0  0
   -8.8125    2.2560    0.2556 H   0  0  0  0  0  0  0  0  0  0  0  0
   -8.0922    0.6857   -0.2982 H   0  0  0  0  0  0  0  0  0  0  0  0
   -8.5148    0.9824    1.4586 H   0  0  0  0  0  0  0  0  0  0  0  0
   -6.5488    2.0171    1.7867 H   0  0  0  0  0  0  0  0  0  0  0  0
   -5.5489    3.6426    0.0889 H   0  0  0  0  0  0  0  0  0  0  0  0
   -7.3274    3.9732    0.2704 H   0  0  0  0  0  0  0  0  0  0  0  0
   -6.7820    3.0189   -1.1163 H   0  0  0  0  0  0  0  0  0  0  0  0
   -0.9939   -1.0497   -1.5730 H   0  0  0  0  0  0  0  0  0  0  0  0
   -1.4458    0.3111   -0.5165 H   0  0  0  0  0  0  0  0  0  0  0  0
    1.0421   -0.1299   -0.6604 H   0  0  0  0  0  0  0  0  0  0  0  0
    0.3623    0.0992    0.9503 H   0  0  0  0  0  0  0  0  0  0  0  0
    3.4608   -0.4456    2.5204 H   0  0  0  0  0  0  0  0  0  0  0  0
    5.2789    1.1429    2.1912 H   0  0  0  0  0  0  0  0  0  0  0  0
    7.0930    1.5279   -2.1280 H   0  0  0  0  0  0  0  0  0  0  0  0
    8.9488    3.2683   -1.9019 H   0  0  0  0  0  0  0  0  0  0  0  0
    9.2190    4.3600    0.5029 H   0  0  0  0  0  0  0  0  0  0  0  0
    5.3744    0.2535   -1.9557 H   0  0  0  0  0  0  0  0  0  0  0  0
    3.5367   -1.3517   -1.6101 H   0  0  0  0  0  0  0  0  0  0  0  0
    0.5075   -3.5514    1.6774 H   0  0  0  0  0  0  0  0  0  0  0  0
    1.3173   -3.6468   -0.9815 H   0  0  0  0  0  0  0  0  0  0  0  0
   -0.4479   -3.6975   -1.2203 H   0  0  0  0  0  0  0  0  0  0  0  0
    0.3007   -4.9685   -0.2148 H   0  0  0  0  0  0  0  0  0  0  0  0
   -3.8847   -1.1352   -2.2408 H   0  0  0  0  0  0  0  0  0  0  0  0
  1  2  1  0
  2  3  1  0
  2  4  1  0
  4  5  2  0
  5  6  1  0
  6  7  1  0
  7  8  2  0
  8  9  1  0
  9 10  2  0
 10 11  1  0
 11 12  1  0
 12 13  1  0
 13 14  1  0
 14 15  1  0
 15 16  2  0
 15 17  1  0
 17 18  2  0
 18 19  1  0
 19 20  2  0
 20 21  1  0
 21 22  2  0
 22 23  1  0
 23 24  2  0
 24 25  1  0
 20 26  1  0
 26 27  2  0
 14 28  1  0
 28 29  1  0
  6 30  2  0
 30 31  1  0
 31  4  1  0
 11  7  1  0
 27 17  1  0
 28 10  1  0
 25 21  1  0
  1 32  1  0
  1 33  1  0
  1 34  1  0
  2 35  1  0
  3 36  1  0
  3 37  1  0
  3 38  1  0
 12 39  1  0
 12 40  1  0
 13 41  1  0
 13 42  1  0
 18 43  1  0
 19 44  1  0
 22 45  1  0
 23 46  1  0
 24 47  1  0
 26 48  1  0
 27 49  1  0
 28 50  1  1
 29 51  1  0
 29 52  1  0
 29 53  1  0
 30 54  1  0
M  END
$$$$
