
     RDKit          3D

 56 59  0  0  0  0  0  0  0  0999 V2000
    9.1867    2.3414   -2.1432 C   0  0  0  0  0  0  0  0  0  0  0  0
    9.0905    1.1208   -1.6668 C   0  0  0  0  0  0  0  0  0  0  0  0
    7.8610    0.5992   -1.1183 C   0  0  0  0  0  0  0  0  0  0  0  0
    7.8623   -0.5986   -0.6785 O   0  0  0  0  0  0  0  0  0  0  0  0
    6.6466    1.3214   -1.0311 N   0  0  0  0  0  0  0  0  0  0  0  0
    5.4924    0.6797   -0.4603 C   0  0  0  0  0  0  0  0  0  0  0  0
    5.2432    0.7627    0.8935 C   0  0  0  0  0  0  0  0  0  0  0  0
    4.1336    0.1502    1.4662 C   0  0  0  0  0  0  0  0  0  0  0  0
    3.2608   -0.5555    0.6724 C   0  0  0  0  0  0  0  0  0  0  0  0
    1.8608   -1.3345    1.3603 S   0  0  0  0  0  6  0  0  0  0  0  0
    1.5830   -2.5560    0.4997 O   0  0  0  0  0  0  0  0  0  0  0  0
    2.1564   -1.8232    2.7542 O   0  0  0  0  0  0  0  0  0  0  0  0
    0.5395   -0.2453    1.3431 N   0  0  0  0  0  0  0  0  0  0  0  0
    0.1979    0.1372    0.0291 C   0  0  0  0  0  0  0  0  0  0  0  0
   -0.8244   -0.7419   -0.6619 C   0  0  0  0  0  0  0  0  0  0  0  0
   -1.8521   -1.1093    0.3320 N   0  0  0  0  0  0  0  0  0  0  0  0
   -3.1995   -0.8460    0.0917 C   0  0  0  0  0  0  0  0  0  0  0  0
   -3.5146   -0.2827   -1.0105 O   0  0  0  0  0  0  0  0  0  0  0  0
   -4.2750   -1.1693    1.0128 C   0  0  0  0  0  0  0  0  0  0  0  0
   -5.4816   -1.8224    0.3447 C   0  0  0  0  0  0  0  0  0  0  0  0
   -5.5605   -0.4827    1.1121 C   0  0  2  0  0  0  0  0  0  0  0  0
   -6.0302    0.6115    0.2717 C   0  0  0  0  0  0  0  0  0  0  0  0
   -5.2854    1.7328   -0.0089 C   0  0  0  0  0  0  0  0  0  0  0  0
   -5.8387    2.6939   -0.8312 C   0  0  0  0  0  0  0  0  0  0  0  0
   -7.0952    2.6000   -1.3902 C   0  0  0  0  0  0  0  0  0  0  0  0
   -7.8303    1.4786   -1.1042 C   0  0  0  0  0  0  0  0  0  0  0  0
   -7.2877    0.5088   -0.2824 C   0  0  0  0  0  0  0  0  0  0  0  0
   -1.3315   -1.7368    1.5169 C   0  0  0  0  0  0  0  0  0  0  0  0
   -0.4852   -0.6839    2.2153 C   0  0  0  0  0  0  0  0  0  0  0  0
    3.5019   -0.6429   -0.6773 C   0  0  0  0  0  0  0  0  0  0  0  0
    4.6186   -0.0268   -1.2553 C   0  0  0  0  0  0  0  0  0  0  0  0
    8.3361    2.9883   -2.1340 H   0  0  0  0  0  0  0  0  0  0  0  0
   10.1140    2.6869   -2.5393 H   0  0  0  0  0  0  0  0  0  0  0  0
    9.9703    0.4568   -1.6781 H   0  0  0  0  0  0  0  0  0  0  0  0
    6.6012    2.2951   -1.3757 H   0  0  0  0  0  0  0  0  0  0  0  0
    5.9437    1.3243    1.5041 H   0  0  0  0  0  0  0  0  0  0  0  0
    4.0126    0.2637    2.5298 H   0  0  0  0  0  0  0  0  0  0  0  0
   -0.2913    1.1551    0.0916 H   0  0  0  0  0  0  0  0  0  0  0  0
    1.0856    0.3119   -0.6225 H   0  0  0  0  0  0  0  0  0  0  0  0
   -0.2846   -1.6415   -1.0135 H   0  0  0  0  0  0  0  0  0  0  0  0
   -1.2469   -0.1893   -1.5000 H   0  0  0  0  0  0  0  0  0  0  0  0
   -3.9631   -1.7072    1.9489 H   0  0  0  0  0  0  0  0  0  0  0  0
   -5.5464   -1.8025   -0.7517 H   0  0  0  0  0  0  0  0  0  0  0  0
   -5.9302   -2.7028    0.8035 H   0  0  0  0  0  0  0  0  0  0  0  0
   -6.1589   -0.5899    2.0591 H   0  0  0  0  0  0  0  0  0  0  0  0
   -4.2765    1.8722    0.4158 H   0  0  0  0  0  0  0  0  0  0  0  0
   -5.2338    3.5869   -1.0494 H   0  0  0  0  0  0  0  0  0  0  0  0
   -7.5045    3.3751   -2.0353 H   0  0  0  0  0  0  0  0  0  0  0  0
   -8.8332    1.3721   -1.5319 H   0  0  0  0  0  0  0  0  0  0  0  0
   -7.9369   -0.3619   -0.0986 H   0  0  0  0  0  0  0  0  0  0  0  0
   -2.0715   -2.1334    2.2092 H   0  0  0  0  0  0  0  0  0  0  0  0
   -0.6177   -2.5615    1.1984 H   0  0  0  0  0  0  0  0  0  0  0  0
   -1.1326    0.2023    2.4463 H   0  0  0  0  0  0  0  0  0  0  0  0
   -0.0275   -1.0904    3.1419 H   0  0  0  0  0  0  0  0  0  0  0  0
    2.8307   -1.1885   -1.3032 H   0  0  0  0  0  0  0  0  0  0  0  0
    4.8181   -0.0882   -2.3109 H   0  0  0  0  0  0  0  0  0  0  0  0
  1  2  2  3
  2  3  1  0
  3  4  2  0
  3  5  1  0
  5  6  1  0
  6  7  2  0
  7  8  1  0
  8  9  2  0
  9 10  1  0
 10 11  2  0
 10 12  2  0
 10 13  1  0
 13 14  1  0
 14 15  1  0
 15 16  1  0
 16 17  1  0
 17 18  2  0
 17 19  1  0
 19 20  1  0
 20 21  1  0
 21 22  1  0
 22 23  2  0
 23 24  1  0
 24 25  2  0
 25 26  1  0
 26 27  2  0
 16 28  1  0
 28 29  1  0
  9 30  1  0
 30 31  2  0
 31  6  1  0
 29 13  1  0
 21 19  1  0
 27 22  1  0
  1 32  1  0
  1 33  1  0
  2 34  1  0
  5 35  1  0
  7 36  1  0
  8 37  1  0
 14 38  1  0
 14 39  1  0
 15 40  1  0
 15 41  1  0
 19 42  1  0
 20 43  1  0
 20 44  1  0
 21 45  1  1
 23 46  1  0
 24 47  1  0
 25 48  1  0
 26 49  1  0
 27 50  1  0
 28 51  1  0
 28 52  1  0
 29 53  1  0
 29 54  1  0
 30 55  1  0
 31 56  1  0
M  END
$$$$
