
     RDKit          3D

 49 52  0  0  0  0  0  0  0  0999 V2000
   -7.9173   -2.0205   -0.5847 F   0  0  0  0  0  0  0  0  0  0  0  0
   -6.6215   -2.3680   -0.2326 C   0  0  0  0  0  0  0  0  0  0  0  0
   -6.0649   -2.9682   -1.3615 F   0  0  0  0  0  0  0  0  0  0  0  0
   -6.6155   -3.2607    0.8136 F   0  0  0  0  0  0  0  0  0  0  0  0
   -5.8518   -1.1464    0.0543 C   0  0  0  0  0  0  0  0  0  0  0  0
   -4.4730   -1.1452   -0.0025 C   0  0  0  0  0  0  0  0  0  0  0  0
   -3.7194   -0.0193    0.2593 C   0  0  0  0  0  0  0  0  0  0  0  0
   -4.4140    1.1236    0.5856 C   0  0  0  0  0  0  0  0  0  0  0  0
   -5.8038    1.1577    0.6521 C   0  0  0  0  0  0  0  0  0  0  0  0
   -6.5467    0.0161    0.3857 C   0  0  0  0  0  0  0  0  0  0  0  0
   -2.3064    0.0568    0.2200 N   0  0  0  0  0  0  0  0  0  0  0  0
   -1.5417    1.2416    0.4930 C   0  0  0  0  0  0  0  0  0  0  0  0
   -0.2498    1.2180   -0.3342 C   0  0  0  0  0  0  0  0  0  0  0  0
    0.6251    0.1574    0.1015 N   0  0  0  0  0  0  0  0  0  0  0  0
    1.5356    0.5500    1.1264 C   0  0  0  0  0  0  0  0  0  0  0  0
    2.5948    1.5267    0.7056 C   0  0  0  0  0  0  0  0  0  0  0  0
    3.4574    1.0739   -0.3386 N   0  0  0  0  0  0  0  0  0  0  0  0
    3.2646    1.2375   -1.6600 C   0  0  0  0  0  0  0  0  0  0  0  0
    2.3214    1.8030   -2.2715 O   0  0  0  0  0  0  0  0  0  0  0  0
    4.2985    0.6722   -2.3399 N   0  0  0  0  0  0  0  0  0  0  0  0
    5.1493    0.1472   -1.4113 C   0  0  0  0  0  0  0  0  0  0  0  0
    6.3421   -0.5311   -1.5586 C   0  0  0  0  0  0  0  0  0  0  0  0
    7.0673   -0.9909   -0.4722 C   0  0  0  0  0  0  0  0  0  0  0  0
    6.5407   -0.7400    0.7965 C   0  0  0  0  0  0  0  0  0  0  0  0
    5.3423   -0.0577    0.9214 C   0  0  0  0  0  0  0  0  0  0  0  0
    4.6209    0.3998   -0.1617 C   0  0  0  0  0  0  0  0  0  0  0  0
   -0.1307   -0.9895    0.5612 C   0  0  0  0  0  0  0  0  0  0  0  0
   -1.4774   -1.1010   -0.1123 C   0  0  0  0  0  0  0  0  0  0  0  0
   -3.9338   -2.0531   -0.2614 H   0  0  0  0  0  0  0  0  0  0  0  0
   -3.9998    2.0831    0.8182 H   0  0  0  0  0  0  0  0  0  0  0  0
   -6.4003    2.0205    0.9015 H   0  0  0  0  0  0  0  0  0  0  0  0
   -7.6270   -0.0295    0.4185 H   0  0  0  0  0  0  0  0  0  0  0  0
   -2.1044    2.1208    0.0654 H   0  0  0  0  0  0  0  0  0  0  0  0
   -1.3376    1.4283    1.5506 H   0  0  0  0  0  0  0  0  0  0  0  0
   -0.5572    0.9787   -1.3891 H   0  0  0  0  0  0  0  0  0  0  0  0
    0.2151    2.1959   -0.2324 H   0  0  0  0  0  0  0  0  0  0  0  0
    1.9726   -0.3385    1.6235 H   0  0  0  0  0  0  0  0  0  0  0  0
    0.9384    1.0657    1.9225 H   0  0  0  0  0  0  0  0  0  0  0  0
    3.2331    1.7467    1.5932 H   0  0  0  0  0  0  0  0  0  0  0  0
    2.1322    2.4818    0.3882 H   0  0  0  0  0  0  0  0  0  0  0  0
    4.4960    0.6009   -3.3731 H   0  0  0  0  0  0  0  0  0  0  0  0
    6.7973   -0.7535   -2.5141 H   0  0  0  0  0  0  0  0  0  0  0  0
    8.0035   -1.5262   -0.5393 H   0  0  0  0  0  0  0  0  0  0  0  0
    7.0550   -1.0719    1.7128 H   0  0  0  0  0  0  0  0  0  0  0  0
    4.8763    0.1708    1.8929 H   0  0  0  0  0  0  0  0  0  0  0  0
   -0.2982   -0.9403    1.6543 H   0  0  0  0  0  0  0  0  0  0  0  0
    0.3992   -1.9422    0.3546 H   0  0  0  0  0  0  0  0  0  0  0  0
   -1.3667   -1.2242   -1.2021 H   0  0  0  0  0  0  0  0  0  0  0  0
   -1.9198   -2.0566    0.2604 H   0  0  0  0  0  0  0  0  0  0  0  0
  1  2  1  0
  2  3  1  0
  2  4  1  0
  2  5  1  0
  5  6  2  0
  6  7  1  0
  7  8  2  0
  8  9  1  0
  9 10  2  0
  7 11  1  0
 11 12  1  0
 12 13  1  0
 13 14  1  0
 14 15  1  0
 15 16  1  0
 16 17  1  0
 17 18  1  0
 18 19  2  0
 18 20  1  0
 20 21  1  0
 21 22  2  0
 22 23  1  0
 23 24  2  0
 24 25  1  0
 25 26  2  0
 14 27  1  0
 27 28  1  0
 10  5  1  0
 28 11  1  0
 26 17  1  0
 26 21  1  0
  6 29  1  0
  8 30  1  0
  9 31  1  0
 10 32  1  0
 12 33  1  0
 12 34  1  0
 13 35  1  0
 13 36  1  0
 15 37  1  0
 15 38  1  0
 16 39  1  0
 16 40  1  0
 20 41  1  0
 22 42  1  0
 23 43  1  0
 24 44  1  0
 25 45  1  0
 27 46  1  0
 27 47  1  0
 28 48  1  0
 28 49  1  0
M  END
$$$$
