
     RDKit          3D

 48 50  0  0  0  0  0  0  0  0999 V2000
   10.3700   -0.5454   -0.1516 C   0  0  0  0  0  0  0  0  0  0  0  0
    9.0411    0.0460   -0.2095 N   0  0  0  0  0  0  0  0  0  0  0  0
    7.8587   -0.7241   -0.0773 C   0  0  0  0  0  0  0  0  0  0  0  0
    8.0065   -1.9614    0.0952 O   0  0  0  0  0  0  0  0  0  0  0  0
    6.5244   -0.1236   -0.1363 C   0  0  0  0  0  0  0  0  0  0  0  0
    5.4029   -0.9088   -0.0032 C   0  0  0  0  0  0  0  0  0  0  0  0
    4.1225   -0.3509   -0.0573 C   0  0  0  0  0  0  0  0  0  0  0  0
    3.0191   -1.1710    0.0805 O   0  0  0  0  0  0  0  0  0  0  0  0
    1.7527   -0.5983    0.0239 C   0  0  0  0  0  0  0  0  0  0  0  0
    1.0625   -0.4604   -1.1639 C   0  0  0  0  0  0  0  0  0  0  0  0
   -0.1895    0.1127   -1.1743 C   0  0  0  0  0  0  0  0  0  0  0  0
   -0.7974    0.5655   -0.0210 C   0  0  0  0  0  0  0  0  0  0  0  0
   -2.1109    1.1570   -0.0966 N   0  0  0  0  0  0  0  0  0  0  0  0
   -3.2519    0.2922    0.0400 C   0  0  0  0  0  0  0  0  0  0  0  0
   -3.0251   -0.9053    0.2137 O   0  0  0  0  0  0  0  0  0  0  0  0
   -4.5603    0.7926   -0.0224 N   0  0  0  0  0  0  0  0  0  0  0  0
   -5.7529    0.0508    0.0966 C   0  0  0  0  0  0  0  0  0  0  0  0
   -5.7945   -1.2970    0.2947 C   0  0  0  0  0  0  0  0  0  0  0  0
   -7.0198   -1.9719    0.4041 C   0  0  0  0  0  0  0  0  0  0  0  0
   -8.2138   -1.2953    0.3150 C   0  0  0  0  0  0  0  0  0  0  0  0
   -9.7427   -2.1092    0.4474 Cl  0  0  0  0  0  0  0  0  0  0  0  0
   -8.1833    0.0654    0.1151 C   0  0  0  0  0  0  0  0  0  0  0  0
   -9.4296    0.8673    0.0080 C   0  0  0  0  0  0  0  0  0  0  0  0
  -10.2008    0.4333   -1.0528 F   0  0  0  0  0  0  0  0  0  0  0  0
   -9.1321    2.2014   -0.1309 F   0  0  0  0  0  0  0  0  0  0  0  0
  -10.1069    0.7184    1.2139 F   0  0  0  0  0  0  0  0  0  0  0  0
   -6.9601    0.7189    0.0088 C   0  0  0  0  0  0  0  0  0  0  0  0
   -0.1303    0.4374    1.1617 C   0  0  0  0  0  0  0  0  0  0  0  0
    1.1212   -0.1370    1.1617 C   0  0  0  0  0  0  0  0  0  0  0  0
    3.9972    1.0014   -0.2465 C   0  0  0  0  0  0  0  0  0  0  0  0
    5.1388    1.7658   -0.3771 C   0  0  0  0  0  0  0  0  0  0  0  0
    6.3682    1.1971   -0.3204 N   0  0  0  0  0  0  0  0  0  0  0  0
   10.3368   -1.5416   -0.6165 H   0  0  0  0  0  0  0  0  0  0  0  0
   10.7449   -0.5643    0.8933 H   0  0  0  0  0  0  0  0  0  0  0  0
   11.0634    0.1159   -0.7145 H   0  0  0  0  0  0  0  0  0  0  0  0
    8.9448    1.0626   -0.3516 H   0  0  0  0  0  0  0  0  0  0  0  0
    5.5594   -1.9725    0.1445 H   0  0  0  0  0  0  0  0  0  0  0  0
    1.5375   -0.8177   -2.0893 H   0  0  0  0  0  0  0  0  0  0  0  0
   -0.7280    0.2161   -2.1293 H   0  0  0  0  0  0  0  0  0  0  0  0
   -2.2583    2.1770   -0.2450 H   0  0  0  0  0  0  0  0  0  0  0  0
   -4.6054    1.8572   -0.1781 H   0  0  0  0  0  0  0  0  0  0  0  0
   -4.9308   -1.9293    0.3801 H   0  0  0  0  0  0  0  0  0  0  0  0
   -7.0539   -3.0354    0.5604 H   0  0  0  0  0  0  0  0  0  0  0  0
   -6.9274    1.7866   -0.1481 H   0  0  0  0  0  0  0  0  0  0  0  0
   -0.5782    0.7792    2.0659 H   0  0  0  0  0  0  0  0  0  0  0  0
    1.6682   -0.2450    2.1119 H   0  0  0  0  0  0  0  0  0  0  0  0
    3.0024    1.4166   -0.2859 H   0  0  0  0  0  0  0  0  0  0  0  0
    5.0406    2.8312   -0.5261 H   0  0  0  0  0  0  0  0  0  0  0  0
  1  2  1  0
  2  3  1  0
  3  4  2  0
  3  5  1  0
  5  6  2  0
  6  7  1  0
  7  8  1  0
  8  9  1  0
  9 10  2  0
 10 11  1  0
 11 12  2  0
 12 13  1  0
 13 14  1  0
 14 15  2  0
 14 16  1  0
 16 17  1  0
 17 18  2  0
 18 19  1  0
 19 20  2  0
 20 21  1  0
 20 22  1  0
 22 23  1  0
 23 24  1  0
 23 25  1  0
 23 26  1  0
 22 27  2  0
 12 28  1  0
 28 29  2  0
  7 30  2  0
 30 31  1  0
 31 32  2  0
 32  5  1  0
 29  9  1  0
 27 17  1  0
  1 33  1  0
  1 34  1  0
  1 35  1  0
  2 36  1  0
  6 37  1  0
 10 38  1  0
 11 39  1  0
 13 40  1  0
 16 41  1  0
 18 42  1  0
 19 43  1  0
 27 44  1  0
 28 45  1  0
 29 46  1  0
 30 47  1  0
 31 48  1  0
M  END
$$$$
