
     RDKit          3D

 68 70  0  0  0  0  0  0  0  0999 V2000
   -4.6859   -3.5873   -0.3071 C   0  0  0  0  0  0  0  0  0  0  0  0
   -3.7305   -2.7563   -1.1179 C   0  0  0  0  0  0  0  0  0  0  0  0
   -3.9652   -3.0243   -2.5948 C   0  0  0  0  0  0  0  0  0  0  0  0
   -3.9170   -1.3324   -0.7897 C   0  0  0  0  0  0  0  0  0  0  0  0
   -5.1009   -0.6885   -1.0983 C   0  0  0  0  0  0  0  0  0  0  0  0
   -5.3233    0.6107   -0.8373 N   0  0  0  0  0  0  0  0  0  0  0  0
   -4.3581    1.3720   -0.2374 C   0  0  0  0  0  0  0  0  0  0  0  0
   -4.6458    2.7717    0.0239 C   0  0  0  0  0  0  0  0  0  0  0  0
   -3.7261    3.5940    0.6218 C   0  0  0  0  0  0  0  0  0  0  0  0
   -3.9830    4.9415    0.8817 C   0  0  0  0  0  0  0  0  0  0  0  0
   -2.7765    5.9694    1.6521 Cl  0  0  0  0  0  0  0  0  0  0  0  0
   -5.1935    5.4447    0.5240 C   0  0  0  0  0  0  0  0  0  0  0  0
   -6.1467    4.6447   -0.0814 C   0  0  0  0  0  0  0  0  0  0  0  0
   -5.8831    3.3138   -0.3341 C   0  0  0  0  0  0  0  0  0  0  0  0
   -6.7996    2.5004   -0.9281 F   0  0  0  0  0  0  0  0  0  0  0  0
   -3.1772    0.7464    0.0753 C   0  0  0  0  0  0  0  0  0  0  0  0
   -2.9462   -0.5956   -0.1936 C   0  0  0  0  0  0  0  0  0  0  0  0
   -1.6608   -1.0900    0.1246 N   0  0  0  0  0  0  0  0  0  0  0  0
   -1.4790   -2.0445    1.1468 C   0  0  0  0  0  0  0  0  0  0  0  0
   -2.5796   -2.4223    1.9341 C   0  0  0  0  0  0  0  0  0  0  0  0
   -2.4891   -3.3322    2.9223 C   0  0  0  0  0  0  0  0  0  0  0  0
   -1.3521   -3.9388    3.2250 N   0  0  0  0  0  0  0  0  0  0  0  0
   -0.2606   -3.6005    2.4849 C   0  0  0  0  0  0  0  0  0  0  0  0
   -0.3003   -2.6722    1.4587 C   0  0  0  0  0  0  0  0  0  0  0  0
    0.9206   -2.4101    0.7335 C   0  0  0  0  0  0  0  0  0  0  0  0
    0.9180   -1.6147   -0.2343 O   0  0  0  0  0  0  0  0  0  0  0  0
    2.1909   -2.9860    1.0129 N   0  0  0  0  0  0  0  0  0  0  0  0
    3.3936   -2.6668    0.2332 C   0  0  0  0  0  0  0  0  0  0  0  0
    3.7376   -1.2245    0.3226 C   0  0  0  0  0  0  0  0  0  0  0  0
    4.9417   -0.8952   -0.4420 N   0  0  0  0  0  0  0  0  0  0  0  0
    5.3642    0.4672   -0.4260 C   0  0  0  0  0  0  0  0  0  0  0  0
    4.7051    1.3274    0.2296 O   0  0  0  0  0  0  0  0  0  0  0  0
    6.4773    0.9203   -1.0986 O   0  0  0  0  0  0  0  0  0  0  0  0
    6.8686    2.3024   -1.0566 C   0  0  0  0  0  0  0  0  0  0  0  0
    8.1197    2.4126   -1.9027 C   0  0  0  0  0  0  0  0  0  0  0  0
    5.7728    3.2145   -1.4958 C   0  0  0  0  0  0  0  0  0  0  0  0
    7.2797    2.6573    0.3770 C   0  0  0  0  0  0  0  0  0  0  0  0
   -5.2636   -2.9353    0.4096 H   0  0  0  0  0  0  0  0  0  0  0  0
   -4.1069   -4.3563    0.2801 H   0  0  0  0  0  0  0  0  0  0  0  0
   -5.3957   -4.0924   -0.9852 H   0  0  0  0  0  0  0  0  0  0  0  0
   -2.6728   -3.0647   -0.9386 H   0  0  0  0  0  0  0  0  0  0  0  0
   -3.5437   -4.0302   -2.8095 H   0  0  0  0  0  0  0  0  0  0  0  0
   -5.0364   -3.0580   -2.8453 H   0  0  0  0  0  0  0  0  0  0  0  0
   -3.4662   -2.2976   -3.2437 H   0  0  0  0  0  0  0  0  0  0  0  0
   -5.9214   -1.2225   -1.5776 H   0  0  0  0  0  0  0  0  0  0  0  0
   -2.7397    3.2498    0.9311 H   0  0  0  0  0  0  0  0  0  0  0  0
   -5.3950    6.4950    0.7260 H   0  0  0  0  0  0  0  0  0  0  0  0
   -7.1132    5.0618   -0.3629 H   0  0  0  0  0  0  0  0  0  0  0  0
   -2.3965    1.3214    0.5496 H   0  0  0  0  0  0  0  0  0  0  0  0
   -0.8871   -0.7074   -0.4214 H   0  0  0  0  0  0  0  0  0  0  0  0
   -3.5165   -1.9410    1.7182 H   0  0  0  0  0  0  0  0  0  0  0  0
   -3.3636   -3.5979    3.5089 H   0  0  0  0  0  0  0  0  0  0  0  0
    0.6562   -4.1016    2.7410 H   0  0  0  0  0  0  0  0  0  0  0  0
    2.2501   -3.6582    1.8073 H   0  0  0  0  0  0  0  0  0  0  0  0
    3.2784   -3.0349   -0.8058 H   0  0  0  0  0  0  0  0  0  0  0  0
    4.2353   -3.2447    0.6636 H   0  0  0  0  0  0  0  0  0  0  0  0
    3.8695   -0.8501    1.3441 H   0  0  0  0  0  0  0  0  0  0  0  0
    2.9406   -0.6128   -0.1383 H   0  0  0  0  0  0  0  0  0  0  0  0
    5.4893   -1.5722   -0.9781 H   0  0  0  0  0  0  0  0  0  0  0  0
    8.8075    3.1809   -1.4910 H   0  0  0  0  0  0  0  0  0  0  0  0
    7.7907    2.6414   -2.9408 H   0  0  0  0  0  0  0  0  0  0  0  0
    8.6559    1.4440   -1.8848 H   0  0  0  0  0  0  0  0  0  0  0  0
    6.1837    4.1359   -1.9848 H   0  0  0  0  0  0  0  0  0  0  0  0
    5.0539    2.7466   -2.1720 H   0  0  0  0  0  0  0  0  0  0  0  0
    5.1878    3.5351   -0.5876 H   0  0  0  0  0  0  0  0  0  0  0  0
    7.6839    1.7383    0.8656 H   0  0  0  0  0  0  0  0  0  0  0  0
    8.0826    3.4107    0.3328 H   0  0  0  0  0  0  0  0  0  0  0  0
    6.4429    3.0878    0.9464 H   0  0  0  0  0  0  0  0  0  0  0  0
  1  2  1  0
  2  3  1  0
  2  4  1  0
  4  5  2  0
  5  6  1  0
  6  7  2  0
  7  8  1  0
  8  9  2  0
  9 10  1  0
 10 11  1  0
 10 12  2  0
 12 13  1  0
 13 14  2  0
 14 15  1  0
  7 16  1  0
 16 17  2  0
 17 18  1  0
 18 19  1  0
 19 20  2  0
 20 21  1  0
 21 22  2  0
 22 23  1  0
 23 24  2  0
 24 25  1  0
 25 26  2  0
 25 27  1  0
 27 28  1  0
 28 29  1  0
 29 30  1  0
 30 31  1  0
 31 32  2  0
 31 33  1  0
 33 34  1  0
 34 35  1  0
 34 36  1  0
 34 37  1  0
 17  4  1  0
 24 19  1  0
 14  8  1  0
  1 38  1  0
  1 39  1  0
  1 40  1  0
  2 41  1  0
  3 42  1  0
  3 43  1  0
  3 44  1  0
  5 45  1  0
  9 46  1  0
 12 47  1  0
 13 48  1  0
 16 49  1  0
 18 50  1  0
 20 51  1  0
 21 52  1  0
 23 53  1  0
 27 54  1  0
 28 55  1  0
 28 56  1  0
 29 57  1  0
 29 58  1  0
 30 59  1  0
 35 60  1  0
 35 61  1  0
 35 62  1  0
 36 63  1  0
 36 64  1  0
 36 65  1  0
 37 66  1  0
 37 67  1  0
 37 68  1  0
M  END
$$$$
