
     RDKit          3D

 55 57  0  0  0  0  0  0  0  0999 V2000
   -4.7864   -2.9943    0.1459 C   0  0  0  0  0  0  0  0  0  0  0  0
   -4.8283   -1.4940   -0.0185 C   0  0  0  0  0  0  0  0  0  0  0  0
   -5.6504   -1.2425   -1.2869 C   0  0  0  0  0  0  0  0  0  0  0  0
   -3.6106   -0.8972   -0.0600 O   0  0  0  0  0  0  0  0  0  0  0  0
   -2.7842   -1.3063   -1.0876 C   0  0  0  0  0  0  0  0  0  0  0  0
   -1.4763   -0.5586   -1.0013 C   0  0  0  0  0  0  0  0  0  0  0  0
   -0.3555   -0.9406   -0.3254 C   0  0  0  0  0  0  0  0  0  0  0  0
    0.6406    0.0568   -0.5080 C   0  0  0  0  0  0  0  0  0  0  0  0
    1.9670   -0.1365    0.0993 C   0  0  0  0  0  0  0  0  0  0  0  0
    2.4646    0.7707    0.9860 C   0  0  0  0  0  0  0  0  0  0  0  0
    3.7180    0.6130    1.5553 C   0  0  0  0  0  0  0  0  0  0  0  0
    4.5177   -0.4756    1.2462 C   0  0  0  0  0  0  0  0  0  0  0  0
    4.0405   -1.4054    0.3568 C   0  0  0  0  0  0  0  0  0  0  0  0
    4.7626   -2.4886    0.0144 O   0  0  0  0  0  0  0  0  0  0  0  0
    5.9244   -3.1025    0.2494 C   0  0  0  0  0  0  0  0  0  0  0  0
    6.2371   -3.6218    1.6222 C   0  0  0  0  0  0  0  0  0  0  0  0
    5.2888   -4.5596    2.0315 F   0  0  0  0  0  0  0  0  0  0  0  0
    7.4061   -4.4066    1.4492 F   0  0  0  0  0  0  0  0  0  0  0  0
    6.5419   -2.6995    2.5567 F   0  0  0  0  0  0  0  0  0  0  0  0
    2.7572   -1.2135   -0.2061 C   0  0  0  0  0  0  0  0  0  0  0  0
    0.1093    0.9741   -1.2627 N   0  0  0  0  0  0  0  0  0  0  0  0
    0.6082    2.1822   -1.8352 C   0  0  0  0  0  0  0  0  0  0  0  0
    0.4661    3.4215   -1.0753 C   0  0  0  0  0  0  0  0  0  0  0  0
   -0.8156    3.9934   -0.9501 C   0  0  0  0  0  0  0  0  0  0  0  0
   -1.0589    5.0993   -0.1679 C   0  0  0  0  0  0  0  0  0  0  0  0
   -0.0408    5.6896    0.5267 C   0  0  0  0  0  0  0  0  0  0  0  0
    1.2261    5.1693    0.4342 C   0  0  0  0  0  0  0  0  0  0  0  0
    1.4463    4.0470   -0.3683 C   0  0  0  0  0  0  0  0  0  0  0  0
    3.1389    3.5781   -0.5222 Cl  0  0  0  0  0  0  0  0  0  0  0  0
   -1.1683    0.6082   -1.5619 N   0  0  0  0  0  0  0  0  0  0  0  0
   -5.6234   -0.9286    1.0977 C   0  0  0  0  0  0  0  0  0  0  0  0
   -5.1242   -0.0323    1.8217 O   0  0  0  0  0  0  0  0  0  0  0  0
   -6.9155   -1.3412    1.3955 O   0  0  0  0  0  0  0  0  0  0  0  0
   -4.6179   -3.5320   -0.8101 H   0  0  0  0  0  0  0  0  0  0  0  0
   -4.0921   -3.3158    0.9524 H   0  0  0  0  0  0  0  0  0  0  0  0
   -5.8090   -3.3027    0.4854 H   0  0  0  0  0  0  0  0  0  0  0  0
   -6.6850   -1.5774   -1.0363 H   0  0  0  0  0  0  0  0  0  0  0  0
   -5.2770   -1.9434   -2.0673 H   0  0  0  0  0  0  0  0  0  0  0  0
   -5.6409   -0.1966   -1.5932 H   0  0  0  0  0  0  0  0  0  0  0  0
   -3.2422   -1.0083   -2.0519 H   0  0  0  0  0  0  0  0  0  0  0  0
   -2.5836   -2.3717   -1.1276 H   0  0  0  0  0  0  0  0  0  0  0  0
   -0.2293   -1.8354    0.2494 H   0  0  0  0  0  0  0  0  0  0  0  0
    1.8167    1.6215    1.2311 H   0  0  0  0  0  0  0  0  0  0  0  0
    4.0796    1.3627    2.2609 H   0  0  0  0  0  0  0  0  0  0  0  0
    5.4915   -0.5176    1.7234 H   0  0  0  0  0  0  0  0  0  0  0  0
    5.9796   -4.0275   -0.4298 H   0  0  0  0  0  0  0  0  0  0  0  0
    6.7765   -2.4251   -0.0561 H   0  0  0  0  0  0  0  0  0  0  0  0
    2.4163   -1.9650   -0.9010 H   0  0  0  0  0  0  0  0  0  0  0  0
    1.7313    2.0730   -2.0483 H   0  0  0  0  0  0  0  0  0  0  0  0
    0.2013    2.2783   -2.8840 H   0  0  0  0  0  0  0  0  0  0  0  0
   -1.6284    3.5357   -1.4942 H   0  0  0  0  0  0  0  0  0  0  0  0
   -2.0624    5.5340   -0.0798 H   0  0  0  0  0  0  0  0  0  0  0  0
   -0.2701    6.5627    1.1376 H   0  0  0  0  0  0  0  0  0  0  0  0
    2.0165    5.6407    0.9836 H   0  0  0  0  0  0  0  0  0  0  0  0
   -7.3943   -0.9481    2.2044 H   0  0  0  0  0  0  0  0  0  0  0  0
  1  2  1  0
  2  3  1  0
  2  4  1  0
  4  5  1  0
  5  6  1  0
  6  7  1  0
  7  8  2  0
  8  9  1  0
  9 10  2  0
 10 11  1  0
 11 12  2  0
 12 13  1  0
 13 14  1  0
 14 15  1  0
 15 16  1  0
 16 17  1  0
 16 18  1  0
 16 19  1  0
 13 20  2  0
  8 21  1  0
 21 22  1  0
 22 23  1  0
 23 24  2  0
 24 25  1  0
 25 26  2  0
 26 27  1  0
 27 28  2  0
 28 29  1  0
 21 30  1  0
  2 31  1  0
 31 32  2  0
 31 33  1  0
 30  6  2  0
 20  9  1  0
 28 23  1  0
  1 34  1  0
  1 35  1  0
  1 36  1  0
  3 37  1  0
  3 38  1  0
  3 39  1  0
  5 40  1  0
  5 41  1  0
  7 42  1  0
 10 43  1  0
 11 44  1  0
 12 45  1  0
 15 46  1  0
 15 47  1  0
 20 48  1  0
 22 49  1  0
 22 50  1  0
 24 51  1  0
 25 52  1  0
 26 53  1  0
 27 54  1  0
 33 55  1  0
M  END
$$$$
