
     RDKit          3D

 33 32  0  0  0  0  0  0  0  0999 V2000
    3.4818    0.3197    0.6030 C   0  0  0  0  0  0  0  0  0  0  0  0
    2.9897   -0.8585   -0.1553 C   0  0  0  0  0  0  0  0  0  0  0  0
    1.8635   -0.7108   -1.0819 C   0  0  0  0  0  0  0  0  0  0  0  0
    0.5179   -0.3050   -0.6521 C   0  0  0  0  0  0  0  0  0  0  0  0
   -0.3411   -0.2962   -1.9346 C   0  0  0  0  0  0  0  0  0  0  0  0
   -0.1798   -1.3060    0.2451 C   0  0  0  0  0  0  0  0  0  0  0  0
   -1.4543   -0.7504    0.5569 O   0  0  0  0  0  0  0  0  0  0  0  0
   -2.3627   -1.4128    1.3683 C   0  0  0  0  0  0  0  0  0  0  0  0
   -3.6111   -0.7929    1.6315 N   0  0  0  0  0  0  0  0  0  0  0  0
   -1.9067   -2.4981    1.7501 O   0  0  0  0  0  0  0  0  0  0  0  0
    0.4768    1.0604   -0.0724 C   0  0  0  0  0  0  0  0  0  0  0  0
   -0.7300    1.5667    0.3745 O   0  0  0  0  0  0  0  0  0  0  0  0
   -1.8863    1.9091   -0.2185 C   0  0  0  0  0  0  0  0  0  0  0  0
   -2.8931    2.3867    0.6686 N   0  0  0  0  0  0  0  0  0  0  0  0
   -2.2255    1.8796   -1.4098 O   0  0  0  0  0  0  0  0  0  0  0  0
    3.3916    1.2677    0.0763 H   0  0  0  0  0  0  0  0  0  0  0  0
    4.6129    0.1609    0.7227 H   0  0  0  0  0  0  0  0  0  0  0  0
    3.1587    0.3900    1.6611 H   0  0  0  0  0  0  0  0  0  0  0  0
    2.8954   -1.7405    0.5370 H   0  0  0  0  0  0  0  0  0  0  0  0
    3.8629   -1.1957   -0.8133 H   0  0  0  0  0  0  0  0  0  0  0  0
    2.2147    0.0166   -1.8898 H   0  0  0  0  0  0  0  0  0  0  0  0
    1.8209   -1.6789   -1.6878 H   0  0  0  0  0  0  0  0  0  0  0  0
   -1.3708   -0.6018   -1.7408 H   0  0  0  0  0  0  0  0  0  0  0  0
    0.0970   -1.1410   -2.5672 H   0  0  0  0  0  0  0  0  0  0  0  0
   -0.1602    0.5974   -2.5176 H   0  0  0  0  0  0  0  0  0  0  0  0
    0.3235   -1.4428    1.2236 H   0  0  0  0  0  0  0  0  0  0  0  0
   -0.3787   -2.2523   -0.2761 H   0  0  0  0  0  0  0  0  0  0  0  0
   -4.1448   -0.7547    0.7557 H   0  0  0  0  0  0  0  0  0  0  0  0
   -3.7706   -0.4950    2.6186 H   0  0  0  0  0  0  0  0  0  0  0  0
    0.9234    1.7677   -0.8510 H   0  0  0  0  0  0  0  0  0  0  0  0
    1.1810    1.1728    0.7797 H   0  0  0  0  0  0  0  0  0  0  0  0
   -3.7804    2.4176    1.2071 H   0  0  0  0  0  0  0  0  0  0  0  0
   -2.6153    3.3206    1.0888 H   0  0  0  0  0  0  0  0  0  0  0  0
  1  2  1  0
  2  3  1  0
  3  4  1  0
  4  5  1  0
  4  6  1  0
  6  7  1  0
  7  8  1  0
  8  9  1  0
  8 10  2  0
  4 11  1  0
 11 12  1  0
 12 13  1  0
 13 14  1  0
 13 15  2  0
  1 16  1  0
  1 17  1  0
  1 18  1  0
  2 19  1  0
  2 20  1  0
  3 21  1  0
  3 22  1  0
  5 23  1  0
  5 24  1  0
  5 25  1  0
  6 26  1  0
  6 27  1  0
  9 28  1  0
  9 29  1  0
 11 30  1  0
 11 31  1  0
 14 32  1  0
 14 33  1  0
M  END
$$$$
