
     RDKit          3D

 61 64  0  0  0  0  0  0  0  0999 V2000
   -4.0121    1.9288    2.0382 C   0  0  0  0  0  0  0  0  0  0  0  0
   -2.9952    2.7042    1.2249 C   0  0  0  0  0  0  0  0  0  0  0  0
   -3.2234    2.4353   -0.2587 C   0  0  0  0  0  0  0  0  0  0  0  0
   -3.0756    0.9883   -0.5568 C   0  0  0  0  0  0  0  0  0  0  0  0
   -4.1959    0.2284   -0.7666 C   0  0  0  0  0  0  0  0  0  0  0  0
   -4.0770   -1.1065   -1.0443 C   0  0  0  0  0  0  0  0  0  0  0  0
   -5.2051   -1.8652   -1.2529 O   0  0  0  0  0  0  0  0  0  0  0  0
   -6.4648   -1.2645   -1.1704 C   0  0  0  0  0  0  0  0  0  0  0  0
   -7.1113   -0.7090   -2.2523 C   0  0  0  0  0  0  0  0  0  0  0  0
   -8.3710   -0.1287   -2.0724 C   0  0  0  0  0  0  0  0  0  0  0  0
   -8.9176   -0.1358   -0.8152 C   0  0  0  0  0  0  0  0  0  0  0  0
   -8.2709   -0.6890    0.2543 C   0  0  0  0  0  0  0  0  0  0  0  0
   -7.0391   -1.2576    0.0840 C   0  0  0  0  0  0  0  0  0  0  0  0
   -2.8350   -1.6793   -1.1123 C   0  0  0  0  0  0  0  0  0  0  0  0
   -1.6980   -0.8792   -0.8938 C   0  0  0  0  0  0  0  0  0  0  0  0
   -1.7757    0.4498   -0.6142 C   0  0  0  0  0  0  0  0  0  0  0  0
   -0.7573    1.3057   -0.3912 O   0  0  0  0  0  0  0  0  0  0  0  0
    0.5883    1.0363   -0.3619 C   0  0  0  0  0  0  0  0  0  0  0  0
    0.9716    0.1275    0.7690 C   0  0  0  0  0  0  0  0  0  0  0  0
    2.4762   -0.0723    0.6699 C   0  0  0  0  0  0  0  0  0  0  0  0
    2.9641   -0.9200    1.6877 O   0  0  0  0  0  0  0  0  0  0  0  0
    4.3416   -1.1780    1.7140 C   0  0  0  0  0  0  0  0  0  0  0  0
    4.9184   -1.9931    2.6638 C   0  0  0  0  0  0  0  0  0  0  0  0
    6.2683   -2.2549    2.7030 C   0  0  0  0  0  0  0  0  0  0  0  0
    7.1164   -1.6791    1.7452 C   0  0  0  0  0  0  0  0  0  0  0  0
    6.5704   -0.8721    0.7992 C   0  0  0  0  0  0  0  0  0  0  0  0
    7.4043   -0.2458   -0.2139 C   0  0  0  0  0  0  0  0  0  0  0  0
    6.7809    0.8190   -1.4978 S   0  0  0  0  0  0  0  0  0  0  0  0
    8.3997    1.1305   -2.2541 C   0  0  0  0  0  0  0  0  0  0  0  0
    8.6158    1.8659   -3.2773 O   0  0  0  0  0  0  0  0  0  0  0  0
    9.2211    0.4076   -1.4668 N   0  0  0  0  0  0  0  0  0  0  0  0
    8.7411   -0.2644   -0.4719 C   0  0  0  0  0  0  0  0  0  0  0  0
    9.5924   -1.0457    0.3868 O   0  0  0  0  0  0  0  0  0  0  0  0
    5.1950   -0.6259    0.7864 C   0  0  0  0  0  0  0  0  0  0  0  0
   -4.1285    2.3900    3.0378 H   0  0  0  0  0  0  0  0  0  0  0  0
   -3.6376    0.9018    2.1877 H   0  0  0  0  0  0  0  0  0  0  0  0
   -4.9847    1.8443    1.5188 H   0  0  0  0  0  0  0  0  0  0  0  0
   -1.9791    2.3322    1.4691 H   0  0  0  0  0  0  0  0  0  0  0  0
   -3.0788    3.7800    1.4547 H   0  0  0  0  0  0  0  0  0  0  0  0
   -2.4441    3.0080   -0.8078 H   0  0  0  0  0  0  0  0  0  0  0  0
   -4.1927    2.8339   -0.5956 H   0  0  0  0  0  0  0  0  0  0  0  0
   -5.1958    0.6515   -0.7204 H   0  0  0  0  0  0  0  0  0  0  0  0
   -6.6312   -0.7371   -3.2001 H   0  0  0  0  0  0  0  0  0  0  0  0
   -8.8566    0.2967   -2.9213 H   0  0  0  0  0  0  0  0  0  0  0  0
   -9.8864    0.3021   -0.6375 H   0  0  0  0  0  0  0  0  0  0  0  0
   -8.6921   -0.7029    1.2632 H   0  0  0  0  0  0  0  0  0  0  0  0
   -6.5135   -1.7046    0.9419 H   0  0  0  0  0  0  0  0  0  0  0  0
   -2.7121   -2.7494   -1.3340 H   0  0  0  0  0  0  0  0  0  0  0  0
   -0.7332   -1.3507   -0.9796 H   0  0  0  0  0  0  0  0  0  0  0  0
    0.9855    0.6412   -1.3429 H   0  0  0  0  0  0  0  0  0  0  0  0
    1.1820    1.9900   -0.2099 H   0  0  0  0  0  0  0  0  0  0  0  0
    0.4896   -0.8256    0.8035 H   0  0  0  0  0  0  0  0  0  0  0  0
    0.7391    0.6290    1.7596 H   0  0  0  0  0  0  0  0  0  0  0  0
    2.9762    0.9164    0.7107 H   0  0  0  0  0  0  0  0  0  0  0  0
    2.6691   -0.5432   -0.3216 H   0  0  0  0  0  0  0  0  0  0  0  0
    4.2626   -2.4368    3.4019 H   0  0  0  0  0  0  0  0  0  0  0  0
    6.7116   -2.9059    3.4657 H   0  0  0  0  0  0  0  0  0  0  0  0
    8.1640   -1.9190    1.8235 H   0  0  0  0  0  0  0  0  0  0  0  0
   10.2892    0.4162   -1.7034 H   0  0  0  0  0  0  0  0  0  0  0  0
   10.2861   -1.6458   -0.0210 H   0  0  0  0  0  0  0  0  0  0  0  0
    4.7710    0.0261    0.0180 H   0  0  0  0  0  0  0  0  0  0  0  0
  1  2  1  0
  2  3  1  0
  3  4  1  0
  4  5  2  0
  5  6  1  0
  6  7  1  0
  7  8  1  0
  8  9  2  0
  9 10  1  0
 10 11  2  0
 11 12  1  0
 12 13  2  0
  6 14  2  0
 14 15  1  0
 15 16  2  0
 16 17  1  0
 17 18  1  0
 18 19  1  0
 19 20  1  0
 20 21  1  0
 21 22  1  0
 22 23  2  0
 23 24  1  0
 24 25  2  0
 25 26  1  0
 26 27  1  0
 27 28  1  0
 28 29  1  0
 29 30  2  0
 29 31  1  0
 31 32  1  0
 32 33  1  0
 26 34  2  0
 16  4  1  0
 34 22  1  0
 13  8  1  0
 32 27  2  0
  1 35  1  0
  1 36  1  0
  1 37  1  0
  2 38  1  0
  2 39  1  0
  3 40  1  0
  3 41  1  0
  5 42  1  0
  9 43  1  0
 10 44  1  0
 11 45  1  0
 12 46  1  0
 13 47  1  0
 14 48  1  0
 15 49  1  0
 18 50  1  0
 18 51  1  0
 19 52  1  0
 19 53  1  0
 20 54  1  0
 20 55  1  0
 23 56  1  0
 24 57  1  0
 25 58  1  0
 31 59  1  0
 33 60  1  0
 34 61  1  0
M  END
$$$$
