
     RDKit          3D

 62 65  0  0  0  0  0  0  0  0999 V2000
   -9.5669    1.8649    0.7146 C   0  0  0  0  0  0  0  0  0  0  0  0
   -8.1716    1.4499    0.5422 N   0  0  0  0  0  0  0  0  0  0  0  0
   -7.5402    0.7634    1.6102 C   0  0  0  0  0  0  0  0  0  0  0  0
   -8.2295    0.5468    2.6677 O   0  0  0  0  0  0  0  0  0  0  0  0
   -6.1415    0.3179    1.5029 C   0  0  2  0  0  0  0  0  0  0  0  0
   -5.1332    1.3703    1.2274 C   0  0  0  0  0  0  0  0  0  0  0  0
   -5.4927    0.2981    0.2014 C   0  0  1  0  0  0  0  0  0  0  0  0
   -4.4276   -0.7055   -0.0484 C   0  0  1  0  0  0  0  0  0  0  0  0
   -5.0986   -1.9170   -0.7106 C   0  0  0  0  0  0  0  0  0  0  0  0
   -3.4916   -0.1657   -1.0817 C   0  0  0  0  0  0  0  0  0  0  0  0
   -2.1128   -0.1335   -0.8385 C   0  0  0  0  0  0  0  0  0  0  0  0
   -1.2209    0.3558   -1.7349 C   0  0  0  0  0  0  0  0  0  0  0  0
    0.2259    0.3924   -1.5023 C   0  0  0  0  0  0  0  0  0  0  0  0
    0.8973   -0.5437   -0.8847 C   0  0  0  0  0  0  0  0  0  0  0  0
    0.2094   -1.6215   -0.4284 F   0  0  0  0  0  0  0  0  0  0  0  0
    2.3469   -0.4776   -0.6674 C   0  0  0  0  0  0  0  0  0  0  0  0
    3.0064   -1.4942   -0.0123 C   0  0  0  0  0  0  0  0  0  0  0  0
    4.3536   -1.4270    0.1873 N   0  0  0  0  0  0  0  0  0  0  0  0
    5.0653   -0.3716   -0.2489 C   0  0  0  0  0  0  0  0  0  0  0  0
    6.4887   -0.2591   -0.0599 C   0  0  0  0  0  0  0  0  0  0  0  0
    7.6960   -0.1658    0.1219 C   0  0  0  0  0  0  0  0  0  0  0  0
    9.4919   -0.0421    0.3856 Si  0  0  0  0  0  4  0  0  0  0  0  0
   10.2661   -1.6278   -0.2204 C   0  0  0  0  0  0  0  0  0  0  0  0
   10.1313    1.3694   -0.6551 C   0  0  0  0  0  0  0  0  0  0  0  0
    9.8590    0.2766    2.1731 C   0  0  0  0  0  0  0  0  0  0  0  0
    4.4034    0.6513   -0.9077 C   0  0  0  0  0  0  0  0  0  0  0  0
    3.0842    0.5630   -1.0913 N   0  0  0  0  0  0  0  0  0  0  0  0
   -1.6541    0.8591   -2.9658 C   0  0  0  0  0  0  0  0  0  0  0  0
   -3.0035    0.8411   -3.2349 C   0  0  0  0  0  0  0  0  0  0  0  0
   -3.8943    0.3279   -2.2859 C   0  0  0  0  0  0  0  0  0  0  0  0
   -5.1841    0.3351   -2.6389 F   0  0  0  0  0  0  0  0  0  0  0  0
   -3.6372   -1.1315    1.0380 N   0  0  0  0  0  0  0  0  0  0  0  0
   -3.9611   -1.3628    2.2494 C   0  0  0  0  0  0  0  0  0  0  0  0
   -3.0920   -1.7883    3.2644 N   0  0  0  0  0  0  0  0  0  0  0  0
   -5.7233   -1.0712    2.5880 S   0  0  0  0  0  0  0  0  0  0  0  0
   -9.9789    2.3189   -0.1868 H   0  0  0  0  0  0  0  0  0  0  0  0
  -10.1794    0.9478    0.9552 H   0  0  0  0  0  0  0  0  0  0  0  0
   -9.6885    2.5405    1.5816 H   0  0  0  0  0  0  0  0  0  0  0  0
   -7.7253    1.6909   -0.3673 H   0  0  0  0  0  0  0  0  0  0  0  0
   -5.4774    2.3932    0.9758 H   0  0  0  0  0  0  0  0  0  0  0  0
   -4.1342    1.3577    1.6946 H   0  0  0  0  0  0  0  0  0  0  0  0
   -6.1169    0.5446   -0.6657 H   0  0  0  0  0  0  0  0  0  0  0  0
   -4.3459   -2.4694   -1.3149 H   0  0  0  0  0  0  0  0  0  0  0  0
   -5.4533   -2.5851    0.0928 H   0  0  0  0  0  0  0  0  0  0  0  0
   -5.9511   -1.5929   -1.3548 H   0  0  0  0  0  0  0  0  0  0  0  0
   -1.7459   -0.5161    0.1064 H   0  0  0  0  0  0  0  0  0  0  0  0
    0.8005    1.2542   -1.8636 H   0  0  0  0  0  0  0  0  0  0  0  0
    2.4351   -2.3486    0.3412 H   0  0  0  0  0  0  0  0  0  0  0  0
   11.3420   -1.5647   -0.0238 H   0  0  0  0  0  0  0  0  0  0  0  0
    9.7628   -2.4572    0.3469 H   0  0  0  0  0  0  0  0  0  0  0  0
    9.9805   -1.7747   -1.2697 H   0  0  0  0  0  0  0  0  0  0  0  0
    9.8360    2.3544   -0.2806 H   0  0  0  0  0  0  0  0  0  0  0  0
   11.2466    1.3362   -0.6392 H   0  0  0  0  0  0  0  0  0  0  0  0
    9.8278    1.1672   -1.7046 H   0  0  0  0  0  0  0  0  0  0  0  0
   10.8755   -0.0038    2.4784 H   0  0  0  0  0  0  0  0  0  0  0  0
    9.1089   -0.2900    2.7821 H   0  0  0  0  0  0  0  0  0  0  0  0
    9.6589    1.3505    2.3775 H   0  0  0  0  0  0  0  0  0  0  0  0
    5.0044    1.5049   -1.2558 H   0  0  0  0  0  0  0  0  0  0  0  0
   -0.9248    1.2501   -3.6761 H   0  0  0  0  0  0  0  0  0  0  0  0
   -3.3619    1.2254   -4.1783 H   0  0  0  0  0  0  0  0  0  0  0  0
   -3.4422   -2.3960    4.0417 H   0  0  0  0  0  0  0  0  0  0  0  0
   -2.1017   -1.5149    3.2664 H   0  0  0  0  0  0  0  0  0  0  0  0
  1  2  1  0
  2  3  1  0
  3  4  2  0
  5  3  1  6
  5  6  1  0
  6  7  1  0
  7  8  1  0
  8  9  1  6
  8 10  1  0
 10 11  2  0
 11 12  1  0
 12 13  1  0
 13 14  2  0
 14 15  1  0
 14 16  1  0
 16 17  2  0
 17 18  1  0
 18 19  2  0
 19 20  1  0
 20 21  3  0
 21 22  1  0
 22 23  1  0
 22 24  1  0
 22 25  1  0
 19 26  1  0
 26 27  2  0
 12 28  2  0
 28 29  1  0
 29 30  2  0
 30 31  1  0
  8 32  1  0
 32 33  2  0
 33 34  1  0
 33 35  1  0
  7  5  1  0
 30 10  1  0
 35  5  1  0
 27 16  1  0
  1 36  1  0
  1 37  1  0
  1 38  1  0
  2 39  1  0
  6 40  1  0
  6 41  1  0
  7 42  1  6
  9 43  1  0
  9 44  1  0
  9 45  1  0
 11 46  1  0
 13 47  1  0
 17 48  1  0
 23 49  1  0
 23 50  1  0
 23 51  1  0
 24 52  1  0
 24 53  1  0
 24 54  1  0
 25 55  1  0
 25 56  1  0
 25 57  1  0
 26 58  1  0
 28 59  1  0
 29 60  1  0
 34 61  1  0
 34 62  1  0
M  END
$$$$
