
     RDKit          3D

 50 54  0  0  0  0  0  0  0  0999 V2000
    1.5368   -3.8614    1.5581 C   0  0  0  0  0  0  0  0  0  0  0  0
    1.1053   -3.2175    0.3702 N   0  0  0  0  0  0  0  0  0  0  0  0
   -0.2547   -2.8893    0.2425 C   0  0  0  0  0  0  0  0  0  0  0  0
   -0.5438   -1.4962   -0.1009 C   0  0  0  0  0  0  0  0  0  0  0  0
   -1.8078   -0.9914    0.2034 C   0  0  0  0  0  0  0  0  0  0  0  0
   -2.1491    0.3214   -0.0944 C   0  0  0  0  0  0  0  0  0  0  0  0
   -3.4384    0.8507    0.2106 N   0  0  0  0  0  0  0  0  0  0  0  0
   -3.6944    2.2226   -0.1199 C   0  0  0  0  0  0  0  0  0  0  0  0
   -5.1082    2.6643    0.0397 C   0  0  0  0  0  0  0  0  0  0  0  0
   -5.8673    1.9032    0.8948 O   0  0  0  0  0  0  0  0  0  0  0  0
   -5.8056    0.5835    0.4113 C   0  0  0  0  0  0  0  0  0  0  0  0
   -4.4493    0.0524    0.8244 C   0  0  0  0  0  0  0  0  0  0  0  0
   -1.1705    1.0798   -0.7011 C   0  0  0  0  0  0  0  0  0  0  0  0
    0.0930    0.5708   -1.0037 C   0  0  0  0  0  0  0  0  0  0  0  0
    0.3992   -0.7226   -0.6992 C   0  0  0  0  0  0  0  0  0  0  0  0
    1.7295   -1.2615   -1.0170 C   0  0  1  0  0  0  0  0  0  0  0  0
    2.7149   -0.2559   -0.4716 C   0  0  0  0  0  0  0  0  0  0  0  0
    2.9963   -0.3731    0.8710 C   0  0  0  0  0  0  0  0  0  0  0  0
    3.8927    0.5271    1.3950 C   0  0  0  0  0  0  0  0  0  0  0  0
    4.4533    1.4836    0.5630 C   0  0  0  0  0  0  0  0  0  0  0  0
    5.6251    2.7786    0.8997 S   0  0  0  0  0  0  0  0  0  0  0  0
    5.6781    3.4299   -0.8311 C   0  0  0  0  0  0  0  0  0  0  0  0
    4.8048    2.5921   -1.4568 C   0  0  0  0  0  0  0  0  0  0  0  0
    4.1858    1.6173   -0.7782 C   0  0  0  0  0  0  0  0  0  0  0  0
    3.2607    0.6779   -1.2884 C   0  0  0  0  0  0  0  0  0  0  0  0
    2.0614   -2.5792   -0.4315 C   0  0  0  0  0  0  0  0  0  0  0  0
    2.6442   -3.6999    1.6642 H   0  0  0  0  0  0  0  0  0  0  0  0
    0.9906   -3.5430    2.4805 H   0  0  0  0  0  0  0  0  0  0  0  0
    1.4343   -4.9735    1.4008 H   0  0  0  0  0  0  0  0  0  0  0  0
   -0.7588   -3.0884    1.2346 H   0  0  0  0  0  0  0  0  0  0  0  0
   -0.7678   -3.5790   -0.4665 H   0  0  0  0  0  0  0  0  0  0  0  0
   -2.5143   -1.6411    0.6749 H   0  0  0  0  0  0  0  0  0  0  0  0
   -2.9696    2.8461    0.4502 H   0  0  0  0  0  0  0  0  0  0  0  0
   -3.4347    2.3394   -1.2122 H   0  0  0  0  0  0  0  0  0  0  0  0
   -5.6239    2.8133   -0.9538 H   0  0  0  0  0  0  0  0  0  0  0  0
   -5.0794    3.7054    0.4771 H   0  0  0  0  0  0  0  0  0  0  0  0
   -5.8697    0.6108   -0.7146 H   0  0  0  0  0  0  0  0  0  0  0  0
   -6.6370    0.0197    0.8371 H   0  0  0  0  0  0  0  0  0  0  0  0
   -4.4290    0.1243    1.9504 H   0  0  0  0  0  0  0  0  0  0  0  0
   -4.4418   -1.0184    0.5089 H   0  0  0  0  0  0  0  0  0  0  0  0
   -1.3985    2.1224   -0.9534 H   0  0  0  0  0  0  0  0  0  0  0  0
    0.7886    1.2575   -1.4825 H   0  0  0  0  0  0  0  0  0  0  0  0
    1.8716   -1.2564   -2.1287 H   0  0  0  0  0  0  0  0  0  0  0  0
    2.5255   -1.1438    1.4873 H   0  0  0  0  0  0  0  0  0  0  0  0
    4.1805    0.5221    2.4290 H   0  0  0  0  0  0  0  0  0  0  0  0
    6.2894    4.2659   -1.1277 H   0  0  0  0  0  0  0  0  0  0  0  0
    4.6534    2.7878   -2.5694 H   0  0  0  0  0  0  0  0  0  0  0  0
    2.9554    0.6615   -2.3226 H   0  0  0  0  0  0  0  0  0  0  0  0
    2.3034   -3.2796   -1.2907 H   0  0  0  0  0  0  0  0  0  0  0  0
    3.0397   -2.5606    0.1372 H   0  0  0  0  0  0  0  0  0  0  0  0
  1  2  1  0
  2  3  1  0
  3  4  1  0
  4  5  2  0
  5  6  1  0
  6  7  1  0
  7  8  1  0
  8  9  1  0
  9 10  1  0
 10 11  1  0
 11 12  1  0
  6 13  2  0
 13 14  1  0
 14 15  2  0
 15 16  1  0
 16 17  1  0
 17 18  2  0
 18 19  1  0
 19 20  2  0
 20 21  1  0
 21 22  1  0
 22 23  2  0
 23 24  1  0
 24 25  2  0
 16 26  1  0
 26  2  1  0
 15  4  1  0
 25 17  1  0
 12  7  1  0
 24 20  1  0
  1 27  1  0
  1 28  1  0
  1 29  1  0
  3 30  1  0
  3 31  1  0
  5 32  1  0
  8 33  1  0
  8 34  1  0
  9 35  1  0
  9 36  1  0
 11 37  1  0
 11 38  1  0
 12 39  1  0
 12 40  1  0
 13 41  1  0
 14 42  1  0
 16 43  1  6
 18 44  1  0
 19 45  1  0
 22 46  1  0
 23 47  1  0
 25 48  1  0
 26 49  1  0
 26 50  1  0
M  END
$$$$
