
     RDKit          3D

 68 71  0  0  0  0  0  0  0  0999 V2000
   -8.9708   -0.8152   -0.8222 C   0  0  0  0  0  0  0  0  0  0  0  0
   -8.6730    0.2646    0.0412 O   0  0  0  0  0  0  0  0  0  0  0  0
   -7.3343    0.6084    0.3221 C   0  0  0  0  0  0  0  0  0  0  0  0
   -7.0543    1.6610    1.1640 C   0  0  0  0  0  0  0  0  0  0  0  0
   -5.7484    1.9903    1.4328 C   0  0  0  0  0  0  0  0  0  0  0  0
   -4.6733    1.2892    0.8775 C   0  0  0  0  0  0  0  0  0  0  0  0
   -3.3001    1.7094    1.2003 C   0  0  2  0  0  0  0  0  0  0  0  0
   -3.3493    2.4968    2.3853 O   0  0  0  0  0  0  0  0  0  0  0  0
   -2.7312    2.6481    0.1533 C   0  0  0  0  0  0  0  0  0  0  0  0
   -1.8132    1.8724   -0.8060 C   0  0  0  0  0  0  0  0  0  0  0  0
   -0.5883    1.5012   -0.0490 C   0  0  2  0  0  0  0  0  0  0  0  0
    0.3120    0.6312   -0.6986 N   0  0  0  0  0  0  0  0  0  0  0  0
    0.8113    1.0978   -1.9512 C   0  0  0  0  0  0  0  0  0  0  0  0
    0.5232    0.0032   -2.9629 C   0  0  0  0  0  0  0  0  0  0  0  0
    0.5669   -1.2255   -2.1177 C   0  0  1  0  0  0  0  0  0  0  0  0
    1.8974   -1.7606   -1.9577 N   0  0  0  0  0  0  0  0  0  0  0  0
    2.2701   -3.0833   -2.2638 C   0  0  0  0  0  0  0  0  0  0  0  0
    1.3614   -3.8340   -2.7111 O   0  0  0  0  0  0  0  0  0  0  0  0
    3.6170   -3.6741   -2.1156 C   0  0  0  0  0  0  0  0  0  0  0  0
    4.6074   -2.7957   -1.5711 N   0  0  0  0  0  0  0  0  0  0  0  0
    4.5464   -2.2349   -0.2756 C   0  0  0  0  0  0  0  0  0  0  0  0
    3.5534   -2.5322    0.4717 O   0  0  0  0  0  0  0  0  0  0  0  0
    5.5585   -1.3242    0.2743 C   0  0  0  0  0  0  0  0  0  0  0  0
    6.6440   -0.8792   -0.4401 C   0  0  0  0  0  0  0  0  0  0  0  0
    7.5763   -0.0250    0.1100 C   0  0  0  0  0  0  0  0  0  0  0  0
    7.4426    0.4095    1.4045 C   0  0  0  0  0  0  0  0  0  0  0  0
    6.3492   -0.0283    2.1502 C   0  0  0  0  0  0  0  0  0  0  0  0
    6.2427    0.4648    3.5460 C   0  0  0  0  0  0  0  0  0  0  0  0
    6.7642   -0.4762    4.4241 F   0  0  0  0  0  0  0  0  0  0  0  0
    6.9956    1.6244    3.7200 F   0  0  0  0  0  0  0  0  0  0  0  0
    4.9444    0.7956    3.8752 F   0  0  0  0  0  0  0  0  0  0  0  0
    5.4509   -0.8707    1.5722 C   0  0  0  0  0  0  0  0  0  0  0  0
   -0.0269   -0.7390   -0.8125 C   0  0  0  0  0  0  0  0  0  0  0  0
   -0.9449    0.9332    1.2946 C   0  0  0  0  0  0  0  0  0  0  0  0
   -2.4021    0.5456    1.4262 C   0  0  0  0  0  0  0  0  0  0  0  0
   -5.0108    0.2532    0.0484 C   0  0  0  0  0  0  0  0  0  0  0  0
   -6.3125   -0.0673   -0.2131 N   0  0  0  0  0  0  0  0  0  0  0  0
  -10.0771   -0.8739   -0.8979 H   0  0  0  0  0  0  0  0  0  0  0  0
   -8.4854   -0.6661   -1.8083 H   0  0  0  0  0  0  0  0  0  0  0  0
   -8.6488   -1.7696   -0.3404 H   0  0  0  0  0  0  0  0  0  0  0  0
   -7.8746    2.2137    1.6023 H   0  0  0  0  0  0  0  0  0  0  0  0
   -5.5487    2.8218    2.0973 H   0  0  0  0  0  0  0  0  0  0  0  0
   -3.5940    1.8668    3.1149 H   0  0  0  0  0  0  0  0  0  0  0  0
   -2.2141    3.5133    0.5770 H   0  0  0  0  0  0  0  0  0  0  0  0
   -3.5830    3.0059   -0.4589 H   0  0  0  0  0  0  0  0  0  0  0  0
   -2.4078    1.0352   -1.1861 H   0  0  0  0  0  0  0  0  0  0  0  0
   -1.5803    2.6255   -1.6157 H   0  0  0  0  0  0  0  0  0  0  0  0
   -0.0293    2.4636    0.1482 H   0  0  0  0  0  0  0  0  0  0  0  0
    0.2827    2.0458   -2.1979 H   0  0  0  0  0  0  0  0  0  0  0  0
    1.9005    1.3604   -1.9311 H   0  0  0  0  0  0  0  0  0  0  0  0
    1.2599   -0.0030   -3.7926 H   0  0  0  0  0  0  0  0  0  0  0  0
   -0.5215    0.1495   -3.3043 H   0  0  0  0  0  0  0  0  0  0  0  0
   -0.0767   -2.0009   -2.5707 H   0  0  0  0  0  0  0  0  0  0  0  0
    2.6323   -1.1120   -1.6004 H   0  0  0  0  0  0  0  0  0  0  0  0
    3.4916   -4.5146   -1.3701 H   0  0  0  0  0  0  0  0  0  0  0  0
    3.9030   -4.0925   -3.1004 H   0  0  0  0  0  0  0  0  0  0  0  0
    5.4571   -2.5281   -2.1518 H   0  0  0  0  0  0  0  0  0  0  0  0
    6.7930   -1.1911   -1.4609 H   0  0  0  0  0  0  0  0  0  0  0  0
    8.4346    0.3332   -0.4397 H   0  0  0  0  0  0  0  0  0  0  0  0
    8.1685    1.0826    1.8516 H   0  0  0  0  0  0  0  0  0  0  0  0
    4.6057   -1.1909    2.1929 H   0  0  0  0  0  0  0  0  0  0  0  0
   -1.1361   -0.8947   -0.9207 H   0  0  0  0  0  0  0  0  0  0  0  0
    0.2698   -1.3716    0.0545 H   0  0  0  0  0  0  0  0  0  0  0  0
   -0.3491    0.0137    1.5206 H   0  0  0  0  0  0  0  0  0  0  0  0
   -0.7366    1.6456    2.1183 H   0  0  0  0  0  0  0  0  0  0  0  0
   -2.5323    0.2225    2.4858 H   0  0  0  0  0  0  0  0  0  0  0  0
   -2.6841   -0.2892    0.7936 H   0  0  0  0  0  0  0  0  0  0  0  0
   -4.2207   -0.3358   -0.4280 H   0  0  0  0  0  0  0  0  0  0  0  0
  1  2  1  0
  2  3  1  0
  3  4  2  0
  4  5  1  0
  5  6  2  0
  6  7  1  0
  7  8  1  1
  7  9  1  0
  9 10  1  0
 10 11  1  0
 11 12  1  0
 12 13  1  0
 13 14  1  0
 14 15  1  0
 15 16  1  0
 16 17  1  0
 17 18  2  0
 17 19  1  0
 19 20  1  0
 20 21  1  0
 21 22  2  0
 21 23  1  0
 23 24  2  0
 24 25  1  0
 25 26  2  0
 26 27  1  0
 27 28  1  0
 28 29  1  0
 28 30  1  0
 28 31  1  0
 27 32  2  0
 15 33  1  0
 11 34  1  0
 34 35  1  0
  6 36  1  0
 36 37  2  0
 37  3  1  0
 35  7  1  0
 33 12  1  0
 32 23  1  0
  1 38  1  0
  1 39  1  0
  1 40  1  0
  4 41  1  0
  5 42  1  0
  8 43  1  0
  9 44  1  0
  9 45  1  0
 10 46  1  0
 10 47  1  0
 11 48  1  1
 13 49  1  0
 13 50  1  0
 14 51  1  0
 14 52  1  0
 15 53  1  6
 16 54  1  0
 19 55  1  0
 19 56  1  0
 20 57  1  0
 24 58  1  0
 25 59  1  0
 26 60  1  0
 32 61  1  0
 33 62  1  0
 33 63  1  0
 34 64  1  0
 34 65  1  0
 35 66  1  0
 35 67  1  0
 36 68  1  0
M  END
$$$$
