
     RDKit          3D

 41 43  0  0  0  0  0  0  0  0999 V2000
   -0.6807    1.7106   -0.5803 C   0  0  2  0  0  0  0  0  0  0  0  0
    0.7519    2.2323   -0.3911 C   0  0  0  0  0  0  0  0  0  0  0  0
    1.5197    1.0915    0.1571 C   0  0  0  0  0  0  0  0  0  0  0  0
    2.6359    1.3616    0.9213 C   0  0  0  0  0  0  0  0  0  0  0  0
    3.4315    0.3901    1.4858 C   0  0  0  0  0  0  0  0  0  0  0  0
    3.0830   -0.9242    1.2682 C   0  0  0  0  0  0  0  0  0  0  0  0
    3.8868   -1.8845    1.8382 O   0  0  0  0  0  0  0  0  0  0  0  0
    1.9545   -1.2019    0.4956 C   0  0  0  0  0  0  0  0  0  0  0  0
    1.1673   -0.2084   -0.0635 C   0  0  0  0  0  0  0  0  0  0  0  0
   -0.0117   -0.7151   -0.8670 C   0  0  1  0  0  0  0  0  0  0  0  0
    0.7040   -1.4816   -1.9987 C   0  0  0  0  0  0  0  0  0  0  0  0
   -0.8224   -1.6508   -0.1113 C   0  0  0  0  0  0  0  0  0  0  0  0
   -2.2353   -1.3608    0.2227 C   0  0  0  0  0  0  0  0  0  0  0  0
   -2.4161   -0.4569    1.4436 C   0  0  0  0  0  0  0  0  0  0  0  0
   -2.5784    0.9505    0.8853 C   0  0  0  0  0  0  0  0  0  0  0  0
   -1.1931    1.5045    0.7996 C   0  0  0  0  0  0  0  0  0  0  0  0
   -0.5955    0.4997   -1.4567 C   0  0  1  0  0  0  0  0  0  0  0  0
   -1.7998    0.2864   -2.2507 N   0  0  0  0  0  0  0  0  0  0  0  0
   -1.2966    2.4649   -1.0822 H   0  0  0  0  0  0  0  0  0  0  0  0
    0.7452    3.0784    0.3028 H   0  0  0  0  0  0  0  0  0  0  0  0
    1.1351    2.4658   -1.4103 H   0  0  0  0  0  0  0  0  0  0  0  0
    2.9117    2.3931    1.0938 H   0  0  0  0  0  0  0  0  0  0  0  0
    4.3010    0.6673    2.0801 H   0  0  0  0  0  0  0  0  0  0  0  0
    3.9756   -1.9439    2.8452 H   0  0  0  0  0  0  0  0  0  0  0  0
    1.7942   -2.2778    0.4036 H   0  0  0  0  0  0  0  0  0  0  0  0
   -0.0254   -1.8400   -2.7606 H   0  0  0  0  0  0  0  0  0  0  0  0
    1.1614   -2.3671   -1.5337 H   0  0  0  0  0  0  0  0  0  0  0  0
    1.4682   -0.8277   -2.4535 H   0  0  0  0  0  0  0  0  0  0  0  0
   -0.3301   -1.8254    0.8950 H   0  0  0  0  0  0  0  0  0  0  0  0
   -0.7929   -2.6907   -0.5434 H   0  0  0  0  0  0  0  0  0  0  0  0
   -2.8873   -0.9723   -0.5508 H   0  0  0  0  0  0  0  0  0  0  0  0
   -2.7185   -2.3082    0.5503 H   0  0  0  0  0  0  0  0  0  0  0  0
   -3.2572   -0.7441    2.0785 H   0  0  0  0  0  0  0  0  0  0  0  0
   -1.4883   -0.5478    2.0472 H   0  0  0  0  0  0  0  0  0  0  0  0
   -3.2232    1.4877    1.6232 H   0  0  0  0  0  0  0  0  0  0  0  0
   -3.1138    0.9506   -0.0832 H   0  0  0  0  0  0  0  0  0  0  0  0
   -1.2366    2.5144    1.2600 H   0  0  0  0  0  0  0  0  0  0  0  0
   -0.4555    0.9599    1.4593 H   0  0  0  0  0  0  0  0  0  0  0  0
    0.1118    0.8407   -2.2616 H   0  0  0  0  0  0  0  0  0  0  0  0
   -1.9219    0.9970   -3.0025 H   0  0  0  0  0  0  0  0  0  0  0  0
   -1.6585   -0.6180   -2.7552 H   0  0  0  0  0  0  0  0  0  0  0  0
  1  2  1  0
  2  3  1  0
  3  4  2  0
  4  5  1  0
  5  6  2  0
  6  7  1  0
  6  8  1  0
  8  9  2  0
  9 10  1  0
 10 11  1  6
 10 12  1  0
 12 13  1  0
 13 14  1  0
 14 15  1  0
 15 16  1  0
 10 17  1  0
 17 18  1  0
 16  1  1  0
 17  1  1  0
  9  3  1  0
  1 19  1  6
  2 20  1  0
  2 21  1  0
  4 22  1  0
  5 23  1  0
  7 24  1  0
  8 25  1  0
 11 26  1  0
 11 27  1  0
 11 28  1  0
 12 29  1  0
 12 30  1  0
 13 31  1  0
 13 32  1  0
 14 33  1  0
 14 34  1  0
 15 35  1  0
 15 36  1  0
 16 37  1  0
 16 38  1  0
 17 39  1  6
 18 40  1  0
 18 41  1  0
M  END
$$$$
