
     RDKit          3D

 43 45  0  0  0  0  0  0  0  0999 V2000
   -1.2886    1.2700   -0.9680 C   0  0  1  0  0  0  0  0  0  0  0  0
   -0.8732   -0.4996   -1.0274 S   0  0  0  0  0  0  0  0  0  0  0  0
   -2.5536   -1.1428   -0.6858 C   0  0  0  0  0  0  0  0  0  0  0  0
   -2.9669   -2.2378   -1.5739 C   0  0  0  0  0  0  0  0  0  0  0  0
   -2.7236   -1.4848    0.7613 C   0  0  0  0  0  0  0  0  0  0  0  0
   -3.3434    0.1524   -0.9095 C   0  0  1  0  0  0  0  0  0  0  0  0
   -2.5430    1.1825   -0.2413 N   0  0  0  0  0  0  0  0  0  0  0  0
   -2.0638    2.2047    0.6300 C   0  0  0  0  0  0  0  0  0  0  0  0
   -2.6403    2.9310    1.4865 O   0  0  0  0  0  0  0  0  0  0  0  0
   -0.6897    2.0545    0.1278 C   0  0  1  0  0  0  0  0  0  0  0  0
    0.2720    1.4022    0.9693 N   0  0  0  0  0  0  0  0  0  0  0  0
    1.4688    2.0903    1.2056 C   0  0  0  0  0  0  0  0  0  0  0  0
    1.7416    3.2240    0.7316 O   0  0  0  0  0  0  0  0  0  0  0  0
    2.5313    1.4750    2.0783 C   0  0  2  0  0  0  0  0  0  0  0  0
    3.6733    2.3357    2.1934 N   0  0  0  0  0  0  0  0  0  0  0  0
    2.9843    0.2439    1.3372 C   0  0  0  0  0  0  0  0  0  0  0  0
    3.7694    0.5468    0.2196 C   0  0  0  0  0  0  0  0  0  0  0  0
    4.2774   -0.4510   -0.5852 C   0  0  0  0  0  0  0  0  0  0  0  0
    4.0198   -1.7686   -0.3020 C   0  0  0  0  0  0  0  0  0  0  0  0
    3.2438   -2.0441    0.8043 C   0  0  0  0  0  0  0  0  0  0  0  0
    2.7194   -1.0821    1.6305 C   0  0  0  0  0  0  0  0  0  0  0  0
   -3.4033    0.5090   -2.3337 C   0  0  0  0  0  0  0  0  0  0  0  0
   -3.0847    1.3386   -3.4012 O   0  0  0  0  0  0  0  0  0  0  0  0
   -4.0663   -0.2946   -3.0381 O   0  0  0  0  0  0  0  0  0  0  0  0
   -1.3138    1.7766   -1.9397 H   0  0  0  0  0  0  0  0  0  0  0  0
   -4.0765   -2.2134   -1.6688 H   0  0  0  0  0  0  0  0  0  0  0  0
   -2.5761   -2.2249   -2.5921 H   0  0  0  0  0  0  0  0  0  0  0  0
   -2.7472   -3.2088   -1.0428 H   0  0  0  0  0  0  0  0  0  0  0  0
   -3.3533   -2.3989    0.9159 H   0  0  0  0  0  0  0  0  0  0  0  0
   -1.7148   -1.5824    1.2171 H   0  0  0  0  0  0  0  0  0  0  0  0
   -3.2597   -0.6962    1.3552 H   0  0  0  0  0  0  0  0  0  0  0  0
   -4.3590    0.1111   -0.5100 H   0  0  0  0  0  0  0  0  0  0  0  0
   -0.3356    3.0411   -0.2253 H   0  0  0  0  0  0  0  0  0  0  0  0
    0.0525    0.4476    1.3736 H   0  0  0  0  0  0  0  0  0  0  0  0
    2.1039    1.1245    3.0245 H   0  0  0  0  0  0  0  0  0  0  0  0
    3.7114    2.9387    1.3425 H   0  0  0  0  0  0  0  0  0  0  0  0
    4.5248    1.7577    2.2191 H   0  0  0  0  0  0  0  0  0  0  0  0
    4.0473    1.5502   -0.1146 H   0  0  0  0  0  0  0  0  0  0  0  0
    4.8922   -0.2619   -1.4637 H   0  0  0  0  0  0  0  0  0  0  0  0
    4.4111   -2.5734   -0.9244 H   0  0  0  0  0  0  0  0  0  0  0  0
    3.0101   -3.0734    1.0726 H   0  0  0  0  0  0  0  0  0  0  0  0
    2.1174   -1.2055    2.4948 H   0  0  0  0  0  0  0  0  0  0  0  0
   -3.5950    2.1776   -3.6431 H   0  0  0  0  0  0  0  0  0  0  0  0
  1  2  1  0
  2  3  1  0
  3  4  1  0
  3  5  1  0
  3  6  1  0
  6  7  1  0
  7  8  1  0
  8  9  2  0
  8 10  1  0
 10 11  1  0
 11 12  1  0
 12 13  2  0
 12 14  1  0
 14 15  1  0
 14 16  1  0
 16 17  2  0
 17 18  1  0
 18 19  2  0
 19 20  1  0
 20 21  2  0
  6 22  1  0
 22 23  1  0
 22 24  2  0
  7  1  1  0
 21 16  1  0
 10  1  1  0
  1 25  1  6
  4 26  1  0
  4 27  1  0
  4 28  1  0
  5 29  1  0
  5 30  1  0
  5 31  1  0
  6 32  1  1
 10 33  1  6
 11 34  1  0
 14 35  1  1
 15 36  1  0
 15 37  1  0
 17 38  1  0
 18 39  1  0
 19 40  1  0
 20 41  1  0
 21 42  1  0
 23 43  1  0
M  END
$$$$
