
     RDKit          3D

 22 21  0  0  0  0  0  0  0  0999 V2000
   -3.3130   -0.3446   -1.7759 O   0  0  0  0  0  0  0  0  0  0  0  0
   -2.8533   -0.5528   -0.4549 C   0  0  0  0  0  0  0  0  0  0  0  0
   -1.4492    0.0054   -0.3769 C   0  0  0  0  0  0  0  0  0  0  0  0
   -0.8276   -0.1416    0.9649 C   0  0  0  0  0  0  0  0  0  0  0  0
    0.5596    0.4491    0.9348 C   0  0  0  0  0  0  0  0  0  0  0  0
    1.4855   -0.1962   -0.0503 C   0  0  0  0  0  0  0  0  0  0  0  0
    2.8615    0.4512   -0.0151 C   0  0  0  0  0  0  0  0  0  0  0  0
    3.6380   -0.2245   -0.9669 O   0  0  0  0  0  0  0  0  0  0  0  0
   -4.2106    0.0667   -1.7953 H   0  0  0  0  0  0  0  0  0  0  0  0
   -3.5069   -0.0727    0.2725 H   0  0  0  0  0  0  0  0  0  0  0  0
   -2.8629   -1.6438   -0.2587 H   0  0  0  0  0  0  0  0  0  0  0  0
   -1.4379    1.0835   -0.6356 H   0  0  0  0  0  0  0  0  0  0  0  0
   -0.8781   -0.5181   -1.1843 H   0  0  0  0  0  0  0  0  0  0  0  0
   -0.8064   -1.1611    1.3619 H   0  0  0  0  0  0  0  0  0  0  0  0
   -1.4143    0.4712    1.6785 H   0  0  0  0  0  0  0  0  0  0  0  0
    1.0329    0.4244    1.9550 H   0  0  0  0  0  0  0  0  0  0  0  0
    0.5340    1.5458    0.6927 H   0  0  0  0  0  0  0  0  0  0  0  0
    1.6199   -1.2587    0.2073 H   0  0  0  0  0  0  0  0  0  0  0  0
    1.1054   -0.1641   -1.0869 H   0  0  0  0  0  0  0  0  0  0  0  0
    2.8045    1.5396   -0.2431 H   0  0  0  0  0  0  0  0  0  0  0  0
    3.3180    0.3665    0.9872 H   0  0  0  0  0  0  0  0  0  0  0  0
    4.6010   -0.1252   -0.8150 H   0  0  0  0  0  0  0  0  0  0  0  0
  1  2  1  0
  2  3  1  0
  3  4  1  0
  4  5  1  0
  5  6  1  0
  6  7  1  0
  7  8  1  0
  1  9  1  0
  2 10  1  0
  2 11  1  0
  3 12  1  0
  3 13  1  0
  4 14  1  0
  4 15  1  0
  5 16  1  0
  5 17  1  0
  6 18  1  0
  6 19  1  0
  7 20  1  0
  7 21  1  0
  8 22  1  0
M  END
$$$$
