
     RDKit          3D

 45 47  0  0  0  0  0  0  0  0999 V2000
   -4.4752   -1.8027   -1.7422 C   0  0  0  0  0  0  0  0  0  0  0  0
   -4.0376   -1.6430   -0.3213 C   0  0  0  0  0  0  0  0  0  0  0  0
   -3.2405   -0.4567   -0.0895 N   0  0  0  0  0  0  0  0  0  0  0  0
   -3.8375    0.8553   -0.1927 C   0  0  0  0  0  0  0  0  0  0  0  0
   -2.8732    1.9413    0.1495 C   0  0  0  0  0  0  0  0  0  0  0  0
   -2.0430    1.5701    1.3652 C   0  0  0  0  0  0  0  0  0  0  0  0
   -1.2157    2.7638    1.7980 C   0  0  0  0  0  0  0  0  0  0  0  0
   -1.2038    0.4111    0.9771 C   0  0  0  0  0  0  0  0  0  0  0  0
    0.1362    0.2937    1.3036 C   0  0  0  0  0  0  0  0  0  0  0  0
    0.8552   -0.8156    0.9084 C   0  0  0  0  0  0  0  0  0  0  0  0
    2.2807   -0.9656    1.2430 C   0  0  0  0  0  0  0  0  0  0  0  0
    3.1872   -0.3961    0.2300 C   0  0  0  0  0  0  0  0  0  0  0  0
    2.7758    0.2327   -0.9160 C   0  0  0  0  0  0  0  0  0  0  0  0
    3.6995    0.7171   -1.7725 N   0  0  0  0  0  0  0  0  0  0  0  0
    5.0266    0.6157   -1.5609 C   0  0  0  0  0  0  0  0  0  0  0  0
    5.9762    1.1446   -2.4981 N   0  0  0  0  0  0  0  0  0  0  0  0
    5.4333   -0.0037   -0.4324 N   0  0  0  0  0  0  0  0  0  0  0  0
    4.5445   -0.5078    0.4605 C   0  0  0  0  0  0  0  0  0  0  0  0
    5.0668   -1.1449    1.6219 N   0  0  0  0  0  0  0  0  0  0  0  0
    0.1810   -1.7784    0.1871 C   0  0  0  0  0  0  0  0  0  0  0  0
   -1.1452   -1.6856   -0.1488 C   0  0  0  0  0  0  0  0  0  0  0  0
   -1.8565   -0.5868    0.2428 C   0  0  0  0  0  0  0  0  0  0  0  0
   -4.3134   -0.8513   -2.2723 H   0  0  0  0  0  0  0  0  0  0  0  0
   -3.8916   -2.5961   -2.2485 H   0  0  0  0  0  0  0  0  0  0  0  0
   -5.5560   -2.1202   -1.7862 H   0  0  0  0  0  0  0  0  0  0  0  0
   -3.5633   -2.5558    0.0873 H   0  0  0  0  0  0  0  0  0  0  0  0
   -4.9673   -1.5025    0.3045 H   0  0  0  0  0  0  0  0  0  0  0  0
   -4.1090    0.9850   -1.2717 H   0  0  0  0  0  0  0  0  0  0  0  0
   -4.7840    0.9403    0.3641 H   0  0  0  0  0  0  0  0  0  0  0  0
   -3.4480    2.8731    0.3262 H   0  0  0  0  0  0  0  0  0  0  0  0
   -2.1799    2.1159   -0.7010 H   0  0  0  0  0  0  0  0  0  0  0  0
   -2.7734    1.2986    2.1639 H   0  0  0  0  0  0  0  0  0  0  0  0
   -1.9438    3.6143    1.8989 H   0  0  0  0  0  0  0  0  0  0  0  0
   -0.8428    2.5492    2.8092 H   0  0  0  0  0  0  0  0  0  0  0  0
   -0.4339    2.9667    1.0649 H   0  0  0  0  0  0  0  0  0  0  0  0
    0.5858    1.1034    1.8765 H   0  0  0  0  0  0  0  0  0  0  0  0
    2.5246   -2.0529    1.3215 H   0  0  0  0  0  0  0  0  0  0  0  0
    2.5112   -0.5008    2.2211 H   0  0  0  0  0  0  0  0  0  0  0  0
    1.7209    0.3289   -1.1130 H   0  0  0  0  0  0  0  0  0  0  0  0
    6.7811    0.5010   -2.7173 H   0  0  0  0  0  0  0  0  0  0  0  0
    5.8755    2.0818   -2.9219 H   0  0  0  0  0  0  0  0  0  0  0  0
    5.1039   -2.1920    1.6261 H   0  0  0  0  0  0  0  0  0  0  0  0
    5.4035   -0.6230    2.4436 H   0  0  0  0  0  0  0  0  0  0  0  0
    0.7300   -2.6626   -0.1342 H   0  0  0  0  0  0  0  0  0  0  0  0
   -1.6649   -2.4596   -0.7211 H   0  0  0  0  0  0  0  0  0  0  0  0
  1  2  1  0
  2  3  1  0
  3  4  1  0
  4  5  1  0
  5  6  1  0
  6  7  1  0
  6  8  1  0
  8  9  2  0
  9 10  1  0
 10 11  1  0
 11 12  1  0
 12 13  2  0
 13 14  1  0
 14 15  2  0
 15 16  1  0
 15 17  1  0
 17 18  2  0
 18 19  1  0
 10 20  2  0
 20 21  1  0
 21 22  2  0
 22  3  1  0
 22  8  1  0
 18 12  1  0
  1 23  1  0
  1 24  1  0
  1 25  1  0
  2 26  1  0
  2 27  1  0
  4 28  1  0
  4 29  1  0
  5 30  1  0
  5 31  1  0
  6 32  1  0
  7 33  1  0
  7 34  1  0
  7 35  1  0
  9 36  1  0
 11 37  1  0
 11 38  1  0
 13 39  1  0
 16 40  1  0
 16 41  1  0
 19 42  1  0
 19 43  1  0
 20 44  1  0
 21 45  1  0
M  END
$$$$
