
     RDKit          3D

 61 62  0  0  0  0  0  0  0  0999 V2000
   -3.5288   -2.0544   -1.0513 C   0  0  0  0  0  0  0  0  0  0  0  0
   -3.6290   -1.5938    0.3978 C   0  0  0  0  0  0  0  0  0  0  0  0
   -3.0681   -0.3279    0.6247 N   0  0  0  0  0  0  0  0  0  0  0  0
   -1.6528   -0.2341    0.5464 C   0  0  0  0  0  0  0  0  0  0  0  0
   -0.9484   -0.9271    1.6922 C   0  0  0  0  0  0  0  0  0  0  0  0
    0.5367   -0.8257    1.5799 C   0  0  0  0  0  0  0  0  0  0  0  0
    1.1277   -1.4534    0.3555 C   0  0  0  0  0  0  0  0  0  0  0  0
    2.6476   -1.2338    0.4295 C   0  0  0  0  0  0  0  0  0  0  0  0
    3.2098   -1.8326    1.6494 C   0  0  0  0  0  0  0  0  0  0  0  0
    4.3606   -1.4806    2.0936 N   0  0  0  0  0  0  0  0  0  0  0  0
    5.0973   -0.4992    1.3918 C   0  0  0  0  0  0  0  0  0  0  0  0
    4.8003    0.8417    1.4773 C   0  0  0  0  0  0  0  0  0  0  0  0
    5.5618    1.7416    0.7662 C   0  0  0  0  0  0  0  0  0  0  0  0
    5.2578    3.0993    0.8557 O   0  0  0  0  0  0  0  0  0  0  0  0
    6.6138    1.3489   -0.0305 C   0  0  0  0  0  0  0  0  0  0  0  0
    7.3788    2.2641   -0.7455 O   0  0  0  0  0  0  0  0  0  0  0  0
    8.4463    1.8018   -1.5437 C   0  0  0  0  0  0  0  0  0  0  0  0
    6.8807   -0.0163   -0.0889 C   0  0  0  0  0  0  0  0  0  0  0  0
    6.1392   -0.9430    0.6093 C   0  0  0  0  0  0  0  0  0  0  0  0
    6.4175   -2.2997    0.5409 O   0  0  0  0  0  0  0  0  0  0  0  0
   -3.8270    0.8311    0.6252 C   0  0  0  0  0  0  0  0  0  0  0  0
   -4.4975    1.2825   -0.6027 C   0  0  0  0  0  0  0  0  0  0  0  0
   -3.8990    2.2550   -1.4266 C   0  0  0  0  0  0  0  0  0  0  0  0
   -4.4800    2.6985   -2.5927 C   0  0  0  0  0  0  0  0  0  0  0  0
   -5.6917    2.2017   -3.0091 C   0  0  0  0  0  0  0  0  0  0  0  0
   -6.3019    1.2521   -2.2276 C   0  0  0  0  0  0  0  0  0  0  0  0
   -5.7047    0.8017   -1.0376 C   0  0  0  0  0  0  0  0  0  0  0  0
   -6.3879   -0.1431   -0.3231 O   0  0  0  0  0  0  0  0  0  0  0  0
   -7.6233   -0.7103   -0.6588 C   0  0  0  0  0  0  0  0  0  0  0  0
   -3.5305   -3.1604   -1.1190 H   0  0  0  0  0  0  0  0  0  0  0  0
   -2.6125   -1.7014   -1.5508 H   0  0  0  0  0  0  0  0  0  0  0  0
   -4.4273   -1.7077   -1.6345 H   0  0  0  0  0  0  0  0  0  0  0  0
   -3.0412   -2.4161    0.9525 H   0  0  0  0  0  0  0  0  0  0  0  0
   -4.6500   -1.7557    0.7753 H   0  0  0  0  0  0  0  0  0  0  0  0
   -1.3256    0.8233    0.5574 H   0  0  0  0  0  0  0  0  0  0  0  0
   -1.3004   -0.7155   -0.3812 H   0  0  0  0  0  0  0  0  0  0  0  0
   -1.2276   -0.4622    2.6752 H   0  0  0  0  0  0  0  0  0  0  0  0
   -1.2200   -2.0013    1.7744 H   0  0  0  0  0  0  0  0  0  0  0  0
    0.8402    0.2479    1.5724 H   0  0  0  0  0  0  0  0  0  0  0  0
    0.9677   -1.2398    2.5323 H   0  0  0  0  0  0  0  0  0  0  0  0
    0.9280   -2.5250    0.2638 H   0  0  0  0  0  0  0  0  0  0  0  0
    0.7897   -0.8719   -0.5245 H   0  0  0  0  0  0  0  0  0  0  0  0
    3.1300   -1.6591   -0.4881 H   0  0  0  0  0  0  0  0  0  0  0  0
    2.8428   -0.1495    0.4213 H   0  0  0  0  0  0  0  0  0  0  0  0
    2.6634   -2.5815    2.1945 H   0  0  0  0  0  0  0  0  0  0  0  0
    3.9862    1.1989    2.0871 H   0  0  0  0  0  0  0  0  0  0  0  0
    6.0828    3.7137    0.9445 H   0  0  0  0  0  0  0  0  0  0  0  0
    9.1036    1.0652   -1.0100 H   0  0  0  0  0  0  0  0  0  0  0  0
    9.1414    2.6402   -1.8208 H   0  0  0  0  0  0  0  0  0  0  0  0
    8.0893    1.3933   -2.5290 H   0  0  0  0  0  0  0  0  0  0  0  0
    7.6890   -0.3671   -0.6941 H   0  0  0  0  0  0  0  0  0  0  0  0
    5.8445   -2.9301   -0.0054 H   0  0  0  0  0  0  0  0  0  0  0  0
   -4.5716    0.7567    1.4856 H   0  0  0  0  0  0  0  0  0  0  0  0
   -3.1842    1.6911    0.9521 H   0  0  0  0  0  0  0  0  0  0  0  0
   -2.9431    2.6210   -1.0644 H   0  0  0  0  0  0  0  0  0  0  0  0
   -3.9967    3.4451   -3.2040 H   0  0  0  0  0  0  0  0  0  0  0  0
   -6.1703    2.5433   -3.9346 H   0  0  0  0  0  0  0  0  0  0  0  0
   -7.2525    0.8793   -2.5740 H   0  0  0  0  0  0  0  0  0  0  0  0
   -8.4467   -0.0387   -0.3741 H   0  0  0  0  0  0  0  0  0  0  0  0
   -7.7803   -1.6477   -0.0695 H   0  0  0  0  0  0  0  0  0  0  0  0
   -7.6533   -0.9334   -1.7576 H   0  0  0  0  0  0  0  0  0  0  0  0
  1  2  1  0
  2  3  1  0
  3  4  1  0
  4  5  1  0
  5  6  1  0
  6  7  1  0
  7  8  1  0
  8  9  1  0
  9 10  2  3
 10 11  1  0
 11 12  2  0
 12 13  1  0
 13 14  1  0
 13 15  2  0
 15 16  1  0
 16 17  1  0
 15 18  1  0
 18 19  2  0
 19 20  1  0
  3 21  1  0
 21 22  1  0
 22 23  2  0
 23 24  1  0
 24 25  2  0
 25 26  1  0
 26 27  2  0
 27 28  1  0
 28 29  1  0
 19 11  1  0
 27 22  1  0
  1 30  1  0
  1 31  1  0
  1 32  1  0
  2 33  1  0
  2 34  1  0
  4 35  1  0
  4 36  1  0
  5 37  1  0
  5 38  1  0
  6 39  1  0
  6 40  1  0
  7 41  1  0
  7 42  1  0
  8 43  1  0
  8 44  1  0
  9 45  1  0
 12 46  1  0
 14 47  1  0
 17 48  1  0
 17 49  1  0
 17 50  1  0
 18 51  1  0
 20 52  1  0
 21 53  1  0
 21 54  1  0
 23 55  1  0
 24 56  1  0
 25 57  1  0
 26 58  1  0
 29 59  1  0
 29 60  1  0
 29 61  1  0
M  END
$$$$
