
     RDKit          3D

 43 44  0  0  0  0  0  0  0  0999 V2000
   -3.4466   -1.5212    1.1330 C   0  0  0  0  0  0  0  0  0  0  0  0
   -2.2970   -2.2734    0.5605 C   0  0  0  0  0  0  0  0  0  0  0  0
   -1.7467   -1.7445   -0.7165 C   0  0  0  0  0  0  0  0  0  0  0  0
   -1.1631   -0.4864   -0.7196 N   0  0  0  0  0  0  0  0  0  0  0  0
   -2.0130    0.5946   -0.5391 C   0  0  0  0  0  0  0  0  0  0  0  0
   -1.4270    1.9862   -0.7269 C   0  0  0  0  0  0  0  0  0  0  0  0
   -2.6235    2.9149   -0.4305 C   0  0  0  0  0  0  0  0  0  0  0  0
   -0.1423   -0.2569   -1.6992 C   0  0  0  0  0  0  0  0  0  0  0  0
    1.1083   -1.0633   -1.4745 C   0  0  0  0  0  0  0  0  0  0  0  0
    1.7916   -0.8359   -0.2044 C   0  0  0  0  0  0  0  0  0  0  0  0
    2.5890    0.2783    0.0692 C   0  0  0  0  0  0  0  0  0  0  0  0
    2.9570    1.4537   -0.7569 C   0  0  0  0  0  0  0  0  0  0  0  0
    3.8399    2.2177    0.1978 C   0  0  0  0  0  0  0  0  0  0  0  0
    4.3307    3.2965   -0.2197 O   0  0  0  0  0  0  0  0  0  0  0  0
    3.9508    1.5377    1.4412 N   0  0  0  0  0  0  0  0  0  0  0  0
    3.1654    0.3444    1.3242 C   0  0  0  0  0  0  0  0  0  0  0  0
    2.9881   -0.6325    2.3075 C   0  0  0  0  0  0  0  0  0  0  0  0
    2.1982   -1.7123    2.0033 C   0  0  0  0  0  0  0  0  0  0  0  0
    1.6053   -1.8175    0.7640 C   0  0  0  0  0  0  0  0  0  0  0  0
   -4.2365   -2.2876    1.4776 H   0  0  0  0  0  0  0  0  0  0  0  0
   -4.0182   -0.8968    0.4336 H   0  0  0  0  0  0  0  0  0  0  0  0
   -3.1678   -0.9086    2.0137 H   0  0  0  0  0  0  0  0  0  0  0  0
   -2.5947   -3.3723    0.4472 H   0  0  0  0  0  0  0  0  0  0  0  0
   -1.4446   -2.3521    1.3213 H   0  0  0  0  0  0  0  0  0  0  0  0
   -2.5725   -1.7241   -1.5183 H   0  0  0  0  0  0  0  0  0  0  0  0
   -1.0849   -2.5654   -1.1251 H   0  0  0  0  0  0  0  0  0  0  0  0
   -2.9645    0.5538   -1.1071 H   0  0  0  0  0  0  0  0  0  0  0  0
   -2.3092    0.6183    0.5607 H   0  0  0  0  0  0  0  0  0  0  0  0
   -1.1508    2.2404   -1.7455 H   0  0  0  0  0  0  0  0  0  0  0  0
   -0.6895    2.1724    0.0582 H   0  0  0  0  0  0  0  0  0  0  0  0
   -3.4323    2.7542   -1.1637 H   0  0  0  0  0  0  0  0  0  0  0  0
   -2.9777    2.7611    0.5912 H   0  0  0  0  0  0  0  0  0  0  0  0
   -2.2440    3.9690   -0.4646 H   0  0  0  0  0  0  0  0  0  0  0  0
    0.1823    0.7976   -1.6205 H   0  0  0  0  0  0  0  0  0  0  0  0
   -0.5506   -0.5540   -2.6748 H   0  0  0  0  0  0  0  0  0  0  0  0
    1.8077   -0.7048   -2.2805 H   0  0  0  0  0  0  0  0  0  0  0  0
    1.0064   -2.1426   -1.6861 H   0  0  0  0  0  0  0  0  0  0  0  0
    2.1253    2.0583   -1.1039 H   0  0  0  0  0  0  0  0  0  0  0  0
    3.6352    1.1241   -1.5956 H   0  0  0  0  0  0  0  0  0  0  0  0
    4.5124    1.8966    2.2403 H   0  0  0  0  0  0  0  0  0  0  0  0
    3.4506   -0.5432    3.2643 H   0  0  0  0  0  0  0  0  0  0  0  0
    2.0519   -2.4747    2.7550 H   0  0  0  0  0  0  0  0  0  0  0  0
    1.0010   -2.6998    0.6091 H   0  0  0  0  0  0  0  0  0  0  0  0
  1  2  1  0
  2  3  1  0
  3  4  1  0
  4  5  1  0
  5  6  1  0
  6  7  1  0
  4  8  1  0
  8  9  1  0
  9 10  1  0
 10 11  2  0
 11 12  1  0
 12 13  1  0
 13 14  2  0
 13 15  1  0
 15 16  1  0
 16 17  2  0
 17 18  1  0
 18 19  2  0
 19 10  1  0
 16 11  1  0
  1 20  1  0
  1 21  1  0
  1 22  1  0
  2 23  1  0
  2 24  1  0
  3 25  1  0
  3 26  1  0
  5 27  1  0
  5 28  1  0
  6 29  1  0
  6 30  1  0
  7 31  1  0
  7 32  1  0
  7 33  1  0
  8 34  1  0
  8 35  1  0
  9 36  1  0
  9 37  1  0
 12 38  1  0
 12 39  1  0
 15 40  1  0
 17 41  1  0
 18 42  1  0
 19 43  1  0
M  END
$$$$
