
     RDKit          3D

 45 48  0  0  0  0  0  0  0  0999 V2000
   -2.5903   -1.1710   -1.0256 C   0  0  0  0  0  0  0  0  0  0  0  0
   -1.6945   -2.1427   -0.5620 O   0  0  0  0  0  0  0  0  0  0  0  0
   -0.3337   -1.9516   -0.4124 C   0  0  0  0  0  0  0  0  0  0  0  0
    0.4504   -2.9803    0.0527 C   0  0  0  0  0  0  0  0  0  0  0  0
    0.1574   -4.2383    0.4254 N   0  0  0  0  0  0  0  0  0  0  0  0
    1.3235   -4.7968    0.7938 C   0  0  0  0  0  0  0  0  0  0  0  0
    2.3454   -3.9045    0.6570 N   0  0  0  0  0  0  0  0  0  0  0  0
    1.7990   -2.7670    0.1929 C   0  0  0  0  0  0  0  0  0  0  0  0
    2.2859   -1.5622   -0.1317 N   0  0  0  0  0  0  0  0  0  0  0  0
    1.5653   -0.5328   -0.5870 C   0  0  0  0  0  0  0  0  0  0  0  0
    2.0455    0.7495   -0.9384 N   0  0  0  0  0  0  0  0  0  0  0  0
    3.3781    1.2242   -0.8877 C   0  0  0  0  0  0  0  0  0  0  0  0
    3.6925    2.5130   -1.2671 C   0  0  0  0  0  0  0  0  0  0  0  0
    4.9638    3.0275   -1.2392 C   0  0  0  0  0  0  0  0  0  0  0  0
    6.0212    2.2550   -0.8166 C   0  0  0  0  0  0  0  0  0  0  0  0
    5.7597    0.9656   -0.4287 C   0  0  0  0  0  0  0  0  0  0  0  0
    4.4669    0.4992   -0.4760 C   0  0  0  0  0  0  0  0  0  0  0  0
    0.2534   -0.7860   -0.7083 N   0  0  0  0  0  0  0  0  0  0  0  0
   -2.6018    0.0483   -0.1474 C   0  0  0  0  0  0  0  0  0  0  0  0
   -3.0221   -0.3963    1.2521 C   0  0  0  0  0  0  0  0  0  0  0  0
   -3.0230    0.7953    2.1527 C   0  0  0  0  0  0  0  0  0  0  0  0
   -3.9166    1.9080    1.6615 C   0  0  0  0  0  0  0  0  0  0  0  0
   -3.7648    2.1622    0.1864 C   0  0  0  0  0  0  0  0  0  0  0  0
   -3.7684    0.9136   -0.6342 C   0  0  0  0  0  0  0  0  0  0  0  0
   -2.3720   -0.8477   -2.0729 H   0  0  0  0  0  0  0  0  0  0  0  0
   -3.6201   -1.6141   -0.9409 H   0  0  0  0  0  0  0  0  0  0  0  0
   -0.7968   -4.6573    0.4153 H   0  0  0  0  0  0  0  0  0  0  0  0
    1.4416   -5.8158    1.1513 H   0  0  0  0  0  0  0  0  0  0  0  0
    1.3345    1.4555   -1.2847 H   0  0  0  0  0  0  0  0  0  0  0  0
    2.9055    3.1850   -1.6139 H   0  0  0  0  0  0  0  0  0  0  0  0
    5.1446    4.0477   -1.5502 H   0  0  0  0  0  0  0  0  0  0  0  0
    6.9981    2.7110   -0.8153 H   0  0  0  0  0  0  0  0  0  0  0  0
    6.5927    0.3609   -0.0971 H   0  0  0  0  0  0  0  0  0  0  0  0
    4.3566   -0.5098   -0.1577 H   0  0  0  0  0  0  0  0  0  0  0  0
   -1.6783    0.6353   -0.1501 H   0  0  0  0  0  0  0  0  0  0  0  0
   -2.2315   -1.0879    1.6433 H   0  0  0  0  0  0  0  0  0  0  0  0
   -4.0012   -0.8683    1.1814 H   0  0  0  0  0  0  0  0  0  0  0  0
   -3.4395    0.4489    3.1369 H   0  0  0  0  0  0  0  0  0  0  0  0
   -1.9989    1.1472    2.3577 H   0  0  0  0  0  0  0  0  0  0  0  0
   -4.9614    1.7040    1.9402 H   0  0  0  0  0  0  0  0  0  0  0  0
   -3.6091    2.8317    2.1989 H   0  0  0  0  0  0  0  0  0  0  0  0
   -4.6693    2.7593   -0.1246 H   0  0  0  0  0  0  0  0  0  0  0  0
   -2.8920    2.7585   -0.0741 H   0  0  0  0  0  0  0  0  0  0  0  0
   -3.5899    1.1987   -1.6869 H   0  0  0  0  0  0  0  0  0  0  0  0
   -4.7066    0.3256   -0.5693 H   0  0  0  0  0  0  0  0  0  0  0  0
  1  2  1  0
  2  3  1  0
  3  4  2  0
  4  5  1  0
  5  6  1  0
  6  7  2  0
  7  8  1  0
  8  9  2  0
  9 10  1  0
 10 11  1  0
 11 12  1  0
 12 13  2  0
 13 14  1  0
 14 15  2  0
 15 16  1  0
 16 17  2  0
 10 18  2  0
  1 19  1  0
 19 20  1  0
 20 21  1  0
 21 22  1  0
 22 23  1  0
 23 24  1  0
 18  3  1  0
 24 19  1  0
  8  4  1  0
 17 12  1  0
  1 25  1  0
  1 26  1  0
  5 27  1  0
  6 28  1  0
 11 29  1  0
 13 30  1  0
 14 31  1  0
 15 32  1  0
 16 33  1  0
 17 34  1  0
 19 35  1  0
 20 36  1  0
 20 37  1  0
 21 38  1  0
 21 39  1  0
 22 40  1  0
 22 41  1  0
 23 42  1  0
 23 43  1  0
 24 44  1  0
 24 45  1  0
M  END
$$$$
