
     RDKit          3D

 41 43  0  0  0  0  0  0  0  0999 V2000
   -4.5938   -0.8184    1.1226 C   0  0  0  0  0  0  0  0  0  0  0  0
   -5.7394   -0.4619    0.2440 C   0  0  0  0  0  0  0  0  0  0  0  0
   -5.4490    0.4955   -0.8569 C   0  0  0  0  0  0  0  0  0  0  0  0
   -4.2557   -0.0076   -2.0258 S   0  0  0  0  0  6  0  0  0  0  0  0
   -4.1526    1.0846   -3.0727 O   0  0  0  0  0  0  0  0  0  0  0  0
   -4.7464   -1.2301   -2.7434 O   0  0  0  0  0  0  0  0  0  0  0  0
   -2.6825   -0.3263   -1.3927 C   0  0  0  0  0  0  0  0  0  0  0  0
   -2.3565   -1.6156   -1.0258 C   0  0  0  0  0  0  0  0  0  0  0  0
   -1.1313   -1.9667   -0.5129 C   0  0  0  0  0  0  0  0  0  0  0  0
   -0.1963   -0.9685   -0.3657 C   0  0  0  0  0  0  0  0  0  0  0  0
    1.0622   -0.9633    0.0906 N   0  0  0  0  0  0  0  0  0  0  0  0
    1.5824    0.2685    0.0422 C   0  0  0  0  0  0  0  0  0  0  0  0
    2.9478    0.6105    0.4724 C   0  0  0  0  0  0  0  0  0  0  0  0
    3.4082    1.9108    0.3890 C   0  0  0  0  0  0  0  0  0  0  0  0
    4.6871    2.2233    0.7934 C   0  0  0  0  0  0  0  0  0  0  0  0
    5.5196    1.2428    1.2849 C   0  0  0  0  0  0  0  0  0  0  0  0
    5.0716   -0.0536    1.3720 C   0  0  0  0  0  0  0  0  0  0  0  0
    5.9311   -1.0522    1.8767 O   0  0  0  0  0  0  0  0  0  0  0  0
    6.7341   -1.7140    0.9139 C   0  0  0  0  0  0  0  0  0  0  0  0
    7.5274   -0.7538    0.2996 F   0  0  0  0  0  0  0  0  0  0  0  0
    5.9749   -2.3066   -0.0546 F   0  0  0  0  0  0  0  0  0  0  0  0
    7.5097   -2.6315    1.6033 F   0  0  0  0  0  0  0  0  0  0  0  0
    3.7997   -0.3469    0.9664 C   0  0  0  0  0  0  0  0  0  0  0  0
    0.6414    1.0702   -0.4542 N   0  0  0  0  0  0  0  0  0  0  0  0
   -0.4833    0.3446   -0.7230 C   0  0  0  0  0  0  0  0  0  0  0  0
   -1.7244    0.6456   -1.2320 C   0  0  0  0  0  0  0  0  0  0  0  0
   -4.9276   -0.6998    2.1956 H   0  0  0  0  0  0  0  0  0  0  0  0
   -3.7554   -0.1278    1.0153 H   0  0  0  0  0  0  0  0  0  0  0  0
   -4.3222   -1.9017    1.0623 H   0  0  0  0  0  0  0  0  0  0  0  0
   -6.2240   -1.3828   -0.1466 H   0  0  0  0  0  0  0  0  0  0  0  0
   -6.5328    0.0278    0.8789 H   0  0  0  0  0  0  0  0  0  0  0  0
   -5.2337    1.5219   -0.4558 H   0  0  0  0  0  0  0  0  0  0  0  0
   -6.4160    0.6334   -1.4211 H   0  0  0  0  0  0  0  0  0  0  0  0
   -3.1141   -2.4018   -1.1495 H   0  0  0  0  0  0  0  0  0  0  0  0
   -0.9682   -2.9991   -0.2547 H   0  0  0  0  0  0  0  0  0  0  0  0
    2.7532    2.6776    0.0032 H   0  0  0  0  0  0  0  0  0  0  0  0
    5.0801    3.2437    0.7395 H   0  0  0  0  0  0  0  0  0  0  0  0
    6.5303    1.4797    1.6064 H   0  0  0  0  0  0  0  0  0  0  0  0
    3.4557   -1.3851    1.0415 H   0  0  0  0  0  0  0  0  0  0  0  0
    0.7423    2.0934   -0.6148 H   0  0  0  0  0  0  0  0  0  0  0  0
   -1.9540    1.6636   -1.5116 H   0  0  0  0  0  0  0  0  0  0  0  0
  1  2  1  0
  2  3  1  0
  3  4  1  0
  4  5  2  0
  4  6  2  0
  4  7  1  0
  7  8  2  0
  8  9  1  0
  9 10  2  0
 10 11  1  0
 11 12  2  0
 12 13  1  0
 13 14  2  0
 14 15  1  0
 15 16  2  0
 16 17  1  0
 17 18  1  0
 18 19  1  0
 19 20  1  0
 19 21  1  0
 19 22  1  0
 17 23  2  0
 12 24  1  0
 24 25  1  0
 25 26  2  0
 26  7  1  0
 25 10  1  0
 23 13  1  0
  1 27  1  0
  1 28  1  0
  1 29  1  0
  2 30  1  0
  2 31  1  0
  3 32  1  0
  3 33  1  0
  8 34  1  0
  9 35  1  0
 14 36  1  0
 15 37  1  0
 16 38  1  0
 23 39  1  0
 24 40  1  0
 26 41  1  0
M  END
$$$$
