
     RDKit          3D

 63 67  0  0  0  0  0  0  0  0999 V2000
   -6.3033    3.2514    0.7333 C   0  0  0  0  0  0  0  0  0  0  0  0
   -6.4848    1.8115    0.3118 C   0  0  0  0  0  0  0  0  0  0  0  0
   -7.6108    1.5510   -0.1787 O   0  0  0  0  0  0  0  0  0  0  0  0
   -5.4375    0.8819    0.4812 N   0  0  0  0  0  0  0  0  0  0  0  0
   -4.1909    1.3093    1.0572 C   0  0  0  0  0  0  0  0  0  0  0  0
   -2.9668    0.8664    0.3283 C   0  0  0  0  0  0  0  0  0  0  0  0
   -3.1597   -0.3509   -0.4515 N   0  0  0  0  0  0  0  0  0  0  0  0
   -2.0110   -1.1116   -0.7923 C   0  0  0  0  0  0  0  0  0  0  0  0
   -2.0396   -2.3439   -1.4078 C   0  0  0  0  0  0  0  0  0  0  0  0
   -0.9113   -3.0651   -1.7514 C   0  0  0  0  0  0  0  0  0  0  0  0
    0.3139   -2.5513   -1.4767 C   0  0  0  0  0  0  0  0  0  0  0  0
    0.3984   -1.3268   -0.8639 C   0  0  0  0  0  0  0  0  0  0  0  0
    1.7162   -0.7827   -0.5792 C   0  0  0  0  0  0  0  0  0  0  0  0
    2.7858   -1.4021   -0.0564 C   0  0  0  0  0  0  0  0  0  0  0  0
    3.8943   -0.5095    0.0527 C   0  0  0  0  0  0  0  0  0  0  0  0
    5.1561   -0.9424    0.6578 C   0  0  0  0  0  0  0  0  0  0  0  0
    5.1761   -2.1125    1.4583 C   0  0  0  0  0  0  0  0  0  0  0  0
    6.4522   -2.5520    1.5483 C   0  0  0  0  0  0  0  0  0  0  0  0
    7.1977   -1.7242    0.8544 N   0  0  0  0  0  0  0  0  0  0  0  0
    6.4300   -0.7327    0.3002 N   0  0  0  0  0  0  0  0  0  0  0  0
    7.1167    0.2375   -0.4827 C   0  0  0  0  0  0  0  0  0  0  0  0
    8.0806    1.0840    0.3035 C   0  0  0  0  0  0  0  0  0  0  0  0
    9.0774    0.1728    0.8197 F   0  0  0  0  0  0  0  0  0  0  0  0
    8.7562    1.9373   -0.5273 F   0  0  0  0  0  0  0  0  0  0  0  0
    7.6391    1.7240    1.4019 F   0  0  0  0  0  0  0  0  0  0  0  0
    3.4061    0.6617   -0.4168 C   0  0  0  0  0  0  0  0  0  0  0  0
    3.9139    1.9464   -0.4949 C   0  0  0  0  0  0  0  0  0  0  0  0
    5.1371    2.3175    0.1565 N   0  0  0  0  0  0  0  0  0  0  0  0
    3.1584    2.9617   -0.9563 N   0  0  0  0  0  0  0  0  0  0  0  0
    1.8926    2.7390   -1.3384 C   0  0  0  0  0  0  0  0  0  0  0  0
    1.3883    1.5047   -1.2509 N   0  0  0  0  0  0  0  0  0  0  0  0
    2.1017    0.4881   -0.8020 N   0  0  0  0  0  0  0  0  0  0  0  0
   -0.7462   -0.6153   -0.5256 C   0  0  0  0  0  0  0  0  0  0  0  0
   -4.4560   -0.7706   -0.8506 C   0  0  0  0  0  0  0  0  0  0  0  0
   -4.6480   -1.3515   -1.9438 O   0  0  0  0  0  0  0  0  0  0  0  0
   -5.5873   -0.4869    0.0914 C   0  0  0  0  0  0  0  0  0  0  0  0
   -5.4139   -1.3581    1.2957 C   0  0  0  0  0  0  0  0  0  0  0  0
   -6.9139   -0.8261   -0.5371 C   0  0  0  0  0  0  0  0  0  0  0  0
   -7.2482    3.8197    0.6730 H   0  0  0  0  0  0  0  0  0  0  0  0
   -5.9069    3.2755    1.7765 H   0  0  0  0  0  0  0  0  0  0  0  0
   -5.5563    3.7620    0.0992 H   0  0  0  0  0  0  0  0  0  0  0  0
   -4.1501    2.4064    1.2251 H   0  0  0  0  0  0  0  0  0  0  0  0
   -4.1589    0.8686    2.0973 H   0  0  0  0  0  0  0  0  0  0  0  0
   -2.6226    1.6649   -0.3517 H   0  0  0  0  0  0  0  0  0  0  0  0
   -2.1663    0.7284    1.1140 H   0  0  0  0  0  0  0  0  0  0  0  0
   -2.9908   -2.8102   -1.6438 H   0  0  0  0  0  0  0  0  0  0  0  0
   -1.0189   -4.0300   -2.2349 H   0  0  0  0  0  0  0  0  0  0  0  0
    1.2347   -3.0937   -1.7340 H   0  0  0  0  0  0  0  0  0  0  0  0
    2.8406   -2.4528    0.2507 H   0  0  0  0  0  0  0  0  0  0  0  0
    4.3058   -2.5873    1.9358 H   0  0  0  0  0  0  0  0  0  0  0  0
    6.7891   -3.4460    2.1097 H   0  0  0  0  0  0  0  0  0  0  0  0
    6.4929    0.7514   -1.1944 H   0  0  0  0  0  0  0  0  0  0  0  0
    7.8649   -0.3979   -1.1552 H   0  0  0  0  0  0  0  0  0  0  0  0
    5.8879    2.8333   -0.2893 H   0  0  0  0  0  0  0  0  0  0  0  0
    5.1558    2.0020    1.1737 H   0  0  0  0  0  0  0  0  0  0  0  0
    1.2774    3.5314   -1.7126 H   0  0  0  0  0  0  0  0  0  0  0  0
   -0.5844    0.3317   -0.0535 H   0  0  0  0  0  0  0  0  0  0  0  0
   -6.0125   -0.9682    2.1574 H   0  0  0  0  0  0  0  0  0  0  0  0
   -5.7264   -2.3904    1.0425 H   0  0  0  0  0  0  0  0  0  0  0  0
   -4.3260   -1.3789    1.5445 H   0  0  0  0  0  0  0  0  0  0  0  0
   -7.1356   -0.3097   -1.4689 H   0  0  0  0  0  0  0  0  0  0  0  0
   -6.8626   -1.9130   -0.7758 H   0  0  0  0  0  0  0  0  0  0  0  0
   -7.6906   -0.7268    0.2284 H   0  0  0  0  0  0  0  0  0  0  0  0
  1  2  1  0
  2  3  2  0
  2  4  1  0
  4  5  1  0
  5  6  1  0
  6  7  1  0
  7  8  1  0
  8  9  2  0
  9 10  1  0
 10 11  2  0
 11 12  1  0
 12 13  1  0
 13 14  2  0
 14 15  1  0
 15 16  1  0
 16 17  2  0
 17 18  1  0
 18 19  2  0
 19 20  1  0
 20 21  1  0
 21 22  1  0
 22 23  1  0
 22 24  1  0
 22 25  1  0
 15 26  2  0
 26 27  1  0
 27 28  1  0
 27 29  2  0
 29 30  1  0
 30 31  2  0
 31 32  1  0
 12 33  2  0
  7 34  1  0
 34 35  2  0
 34 36  1  0
 36 37  1  0
 36 38  1  0
 36  4  1  0
 33  8  1  0
 32 13  1  0
 20 16  1  0
 32 26  1  0
  1 39  1  0
  1 40  1  0
  1 41  1  0
  5 42  1  0
  5 43  1  0
  6 44  1  0
  6 45  1  0
  9 46  1  0
 10 47  1  0
 11 48  1  0
 14 49  1  0
 17 50  1  0
 18 51  1  0
 21 52  1  0
 21 53  1  0
 28 54  1  0
 28 55  1  0
 30 56  1  0
 33 57  1  0
 37 58  1  0
 37 59  1  0
 37 60  1  0
 38 61  1  0
 38 62  1  0
 38 63  1  0
M  END
$$$$
