
     RDKit          3D

 71 75  0  0  0  0  0  0  0  0999 V2000
  -10.5196    0.5046    1.8020 C   0  0  0  0  0  0  0  0  0  0  0  0
  -10.2970    0.5413    0.3849 N   0  0  0  0  0  0  0  0  0  0  0  0
   -8.9838    0.4423   -0.1288 C   0  0  0  0  0  0  0  0  0  0  0  0
   -8.7332    0.4760   -1.4583 N   0  0  0  0  0  0  0  0  0  0  0  0
   -7.4876    0.3826   -1.9494 C   0  0  0  0  0  0  0  0  0  0  0  0
   -6.4665    0.2525   -1.0973 N   0  0  0  0  0  0  0  0  0  0  0  0
   -6.6600    0.2139    0.2205 C   0  0  0  0  0  0  0  0  0  0  0  0
   -5.5322    0.0711    1.1104 C   0  0  0  0  0  0  0  0  0  0  0  0
   -5.7818    0.0336    2.4753 C   0  0  0  0  0  0  0  0  0  0  0  0
   -4.7615   -0.1021    3.3876 C   0  0  0  0  0  0  0  0  0  0  0  0
   -3.4824   -0.1974    2.8566 C   0  0  0  0  0  0  0  0  0  0  0  0
   -3.2729   -0.1584    1.5402 N   0  0  0  0  0  0  0  0  0  0  0  0
   -4.2315   -0.0274    0.6023 C   0  0  0  0  0  0  0  0  0  0  0  0
   -4.0566    0.0169   -0.7440 O   0  0  0  0  0  0  0  0  0  0  0  0
   -2.8680   -0.0705   -1.4047 C   0  0  0  0  0  0  0  0  0  0  0  0
   -1.6343   -0.2256   -0.8237 C   0  0  0  0  0  0  0  0  0  0  0  0
   -0.4413   -0.3092   -1.5653 C   0  0  0  0  0  0  0  0  0  0  0  0
    0.8236   -0.4792   -0.8649 C   0  0  0  0  0  0  0  0  0  0  0  0
    0.8174   -0.5655    0.3886 O   0  0  0  0  0  0  0  0  0  0  0  0
    2.0576   -0.5515   -1.5394 N   0  0  0  0  0  0  0  0  0  0  0  0
    3.3053   -0.7202   -0.8754 C   0  0  0  0  0  0  0  0  0  0  0  0
    4.0770    0.3318   -0.4368 C   0  0  0  0  0  0  0  0  0  0  0  0
    5.3006    0.1172    0.2097 C   0  0  0  0  0  0  0  0  0  0  0  0
    6.0542    1.2750    0.6482 C   0  0  0  0  0  0  0  0  0  0  0  0
    6.4946    1.2548    2.0798 C   0  0  0  0  0  0  0  0  0  0  0  0
    7.4709    2.4366    2.2195 C   0  0  0  0  0  0  0  0  0  0  0  0
    8.7432    1.9629    1.5570 C   0  0  0  0  0  0  0  0  0  0  0  0
    8.5334    1.1621    0.3181 C   0  0  0  0  0  0  0  0  0  0  0  0
    7.2084    1.5161   -0.3019 C   0  0  0  0  0  0  0  0  0  0  0  0
    5.7293   -1.1840    0.4048 C   0  0  0  0  0  0  0  0  0  0  0  0
    4.9354   -2.2095   -0.0448 C   0  0  0  0  0  0  0  0  0  0  0  0
    3.7320   -2.0120   -0.6813 C   0  0  0  0  0  0  0  0  0  0  0  0
    2.9903   -3.1076   -1.1049 O   0  0  0  0  0  0  0  0  0  0  0  0
    3.4165   -4.4367   -0.9114 C   0  0  0  0  0  0  0  0  0  0  0  0
   -0.5398   -0.2294   -2.9326 C   0  0  0  0  0  0  0  0  0  0  0  0
   -1.7549   -0.0731   -3.5759 C   0  0  0  0  0  0  0  0  0  0  0  0
   -2.8924    0.0034   -2.8071 C   0  0  0  0  0  0  0  0  0  0  0  0
   -4.2318    0.1710   -3.4500 C   0  0  0  0  0  0  0  0  0  0  0  0
   -7.9209    0.3097    0.6890 N   0  0  0  0  0  0  0  0  0  0  0  0
   -9.9825   -0.3617    2.2570 H   0  0  0  0  0  0  0  0  0  0  0  0
  -10.1592    1.4704    2.2213 H   0  0  0  0  0  0  0  0  0  0  0  0
  -11.6015    0.3355    2.0401 H   0  0  0  0  0  0  0  0  0  0  0  0
  -11.0917    0.6396   -0.2624 H   0  0  0  0  0  0  0  0  0  0  0  0
   -7.2932    0.4102   -3.0220 H   0  0  0  0  0  0  0  0  0  0  0  0
   -6.8189    0.1144    2.8213 H   0  0  0  0  0  0  0  0  0  0  0  0
   -4.9640   -0.1303    4.4434 H   0  0  0  0  0  0  0  0  0  0  0  0
   -2.6765   -0.3040    3.5707 H   0  0  0  0  0  0  0  0  0  0  0  0
   -1.5214   -0.2906    0.2289 H   0  0  0  0  0  0  0  0  0  0  0  0
    2.1075   -0.4827   -2.5742 H   0  0  0  0  0  0  0  0  0  0  0  0
    3.7229    1.3509   -0.5994 H   0  0  0  0  0  0  0  0  0  0  0  0
    5.4044    2.1949    0.5339 H   0  0  0  0  0  0  0  0  0  0  0  0
    7.0613    0.3710    2.3755 H   0  0  0  0  0  0  0  0  0  0  0  0
    5.6367    1.5038    2.7355 H   0  0  0  0  0  0  0  0  0  0  0  0
    7.0651    3.3486    1.7625 H   0  0  0  0  0  0  0  0  0  0  0  0
    7.6488    2.6133    3.2855 H   0  0  0  0  0  0  0  0  0  0  0  0
    9.2303    1.2754    2.3123 H   0  0  0  0  0  0  0  0  0  0  0  0
    9.4113    2.8382    1.4231 H   0  0  0  0  0  0  0  0  0  0  0  0
    8.5640    0.0681    0.4825 H   0  0  0  0  0  0  0  0  0  0  0  0
    9.3259    1.3934   -0.4426 H   0  0  0  0  0  0  0  0  0  0  0  0
    7.0575    0.9039   -1.2247 H   0  0  0  0  0  0  0  0  0  0  0  0
    7.2290    2.5774   -0.6910 H   0  0  0  0  0  0  0  0  0  0  0  0
    6.6738   -1.3064    0.9074 H   0  0  0  0  0  0  0  0  0  0  0  0
    5.3041   -3.2153    0.1257 H   0  0  0  0  0  0  0  0  0  0  0  0
    3.6584   -4.5643    0.1660 H   0  0  0  0  0  0  0  0  0  0  0  0
    2.6236   -5.1668   -1.1524 H   0  0  0  0  0  0  0  0  0  0  0  0
    4.3516   -4.6712   -1.4759 H   0  0  0  0  0  0  0  0  0  0  0  0
    0.3742   -0.2918   -3.5288 H   0  0  0  0  0  0  0  0  0  0  0  0
   -1.7988   -0.0149   -4.6375 H   0  0  0  0  0  0  0  0  0  0  0  0
   -4.1311    0.2004   -4.5639 H   0  0  0  0  0  0  0  0  0  0  0  0
   -4.7184    1.0812   -3.1075 H   0  0  0  0  0  0  0  0  0  0  0  0
   -4.8331   -0.7066   -3.1365 H   0  0  0  0  0  0  0  0  0  0  0  0
  1  2  1  0
  2  3  1  0
  3  4  2  0
  4  5  1  0
  5  6  2  0
  6  7  1  0
  7  8  1  0
  8  9  2  0
  9 10  1  0
 10 11  2  0
 11 12  1  0
 12 13  2  0
 13 14  1  0
 14 15  1  0
 15 16  2  0
 16 17  1  0
 17 18  1  0
 18 19  2  0
 18 20  1  0
 20 21  1  0
 21 22  2  0
 22 23  1  0
 23 24  1  0
 24 25  1  0
 25 26  1  0
 26 27  1  0
 27 28  1  0
 28 29  1  0
 23 30  2  0
 30 31  1  0
 31 32  2  0
 32 33  1  0
 33 34  1  0
 17 35  2  0
 35 36  1  0
 36 37  2  0
 37 38  1  0
  7 39  2  0
 39  3  1  0
 13  8  1  0
 37 15  1  0
 32 21  1  0
 29 24  1  0
  1 40  1  0
  1 41  1  0
  1 42  1  0
  2 43  1  0
  5 44  1  0
  9 45  1  0
 10 46  1  0
 11 47  1  0
 16 48  1  0
 20 49  1  0
 22 50  1  0
 24 51  1  0
 25 52  1  0
 25 53  1  0
 26 54  1  0
 26 55  1  0
 27 56  1  0
 27 57  1  0
 28 58  1  0
 28 59  1  0
 29 60  1  0
 29 61  1  0
 30 62  1  0
 31 63  1  0
 34 64  1  0
 34 65  1  0
 34 66  1  0
 35 67  1  0
 36 68  1  0
 38 69  1  0
 38 70  1  0
 38 71  1  0
M  END
$$$$
