
     RDKit          3D

 49 51  0  0  0  0  0  0  0  0999 V2000
   -4.8104   -0.8244    2.8089 C   0  0  0  0  0  0  0  0  0  0  0  0
   -4.5121   -0.8941    1.3077 C   0  0  0  0  0  0  0  0  0  0  0  0
   -3.1323   -0.6199    1.0830 O   0  0  0  0  0  0  0  0  0  0  0  0
   -2.6945   -0.6338   -0.2611 C   0  0  0  0  0  0  0  0  0  0  0  0
   -3.5607   -0.8866   -1.2845 C   0  0  0  0  0  0  0  0  0  0  0  0
   -3.1497   -0.9029   -2.6004 C   0  0  0  0  0  0  0  0  0  0  0  0
   -1.8030   -0.6517   -2.8661 C   0  0  0  0  0  0  0  0  0  0  0  0
   -0.9334   -0.3982   -1.8368 C   0  0  0  0  0  0  0  0  0  0  0  0
   -1.3435   -0.3825   -0.5416 C   0  0  0  0  0  0  0  0  0  0  0  0
   -0.4924   -0.1452    0.6056 C   0  0  0  0  0  0  0  0  0  0  0  0
    0.8641    0.3518    0.5366 C   0  0  2  0  0  0  0  0  0  0  0  0
    1.0787    1.6938   -0.0527 C   0  0  0  0  0  0  0  0  0  0  0  0
    1.6420    1.9547   -1.2715 C   0  0  0  0  0  0  0  0  0  0  0  0
    1.7817    3.2383   -1.7461 C   0  0  0  0  0  0  0  0  0  0  0  0
    1.3649    4.3271   -1.0222 C   0  0  0  0  0  0  0  0  0  0  0  0
    0.7964    4.1005    0.2035 C   0  0  0  0  0  0  0  0  0  0  0  0
    0.6590    2.8245    0.6708 C   0  0  0  0  0  0  0  0  0  0  0  0
    1.8979   -0.5226    0.1291 N   0  0  0  0  0  0  0  0  0  0  0  0
    3.2321   -0.0618    0.1722 C   0  0  0  0  0  0  0  0  0  0  0  0
    4.0158   -0.9669    1.1286 C   0  0  0  0  0  0  0  0  0  0  0  0
    4.0476   -2.3302    0.6852 N   0  0  0  0  0  0  0  0  0  0  0  0
    2.9526   -2.6061   -0.2227 C   0  0  0  0  0  0  0  0  0  0  0  0
    1.6764   -1.9117    0.2482 C   0  0  0  0  0  0  0  0  0  0  0  0
   -5.5530   -1.6202    3.0553 H   0  0  0  0  0  0  0  0  0  0  0  0
   -3.8370   -0.9811    3.3297 H   0  0  0  0  0  0  0  0  0  0  0  0
   -5.1889    0.1674    3.1146 H   0  0  0  0  0  0  0  0  0  0  0  0
   -5.1946   -0.1884    0.8130 H   0  0  0  0  0  0  0  0  0  0  0  0
   -4.7698   -1.9165    0.9292 H   0  0  0  0  0  0  0  0  0  0  0  0
   -4.6014   -1.0781   -1.0231 H   0  0  0  0  0  0  0  0  0  0  0  0
   -3.8869   -1.1054   -3.3510 H   0  0  0  0  0  0  0  0  0  0  0  0
   -1.5188   -0.6717   -3.9128 H   0  0  0  0  0  0  0  0  0  0  0  0
    0.1016   -0.2321   -2.1228 H   0  0  0  0  0  0  0  0  0  0  0  0
   -1.0776    0.5921    1.2669 H   0  0  0  0  0  0  0  0  0  0  0  0
   -0.5042   -1.0677    1.2590 H   0  0  0  0  0  0  0  0  0  0  0  0
    1.1436    0.5505    1.6507 H   0  0  0  0  0  0  0  0  0  0  0  0
    1.9854    1.1056   -1.8625 H   0  0  0  0  0  0  0  0  0  0  0  0
    2.2303    3.3970   -2.7128 H   0  0  0  0  0  0  0  0  0  0  0  0
    1.4624    5.3536   -1.3710 H   0  0  0  0  0  0  0  0  0  0  0  0
    0.4454    4.9127    0.8380 H   0  0  0  0  0  0  0  0  0  0  0  0
    0.2139    2.6372    1.6347 H   0  0  0  0  0  0  0  0  0  0  0  0
    3.7219   -0.1705   -0.8184 H   0  0  0  0  0  0  0  0  0  0  0  0
    3.3426    0.9733    0.5618 H   0  0  0  0  0  0  0  0  0  0  0  0
    5.0536   -0.5570    1.2598 H   0  0  0  0  0  0  0  0  0  0  0  0
    3.5260   -0.9257    2.1029 H   0  0  0  0  0  0  0  0  0  0  0  0
    4.9570   -2.4730    0.1631 H   0  0  0  0  0  0  0  0  0  0  0  0
    3.2065   -2.1490   -1.1998 H   0  0  0  0  0  0  0  0  0  0  0  0
    2.7870   -3.6917   -0.3913 H   0  0  0  0  0  0  0  0  0  0  0  0
    0.8712   -2.3341   -0.3834 H   0  0  0  0  0  0  0  0  0  0  0  0
    1.5065   -2.2794    1.2963 H   0  0  0  0  0  0  0  0  0  0  0  0
  1  2  1  0
  2  3  1  0
  3  4  1  0
  4  5  2  0
  5  6  1  0
  6  7  2  0
  7  8  1  0
  8  9  2  0
  9 10  1  0
 10 11  1  0
 11 12  1  0
 12 13  2  0
 13 14  1  0
 14 15  2  0
 15 16  1  0
 16 17  2  0
 11 18  1  0
 18 19  1  0
 19 20  1  0
 20 21  1  0
 21 22  1  0
 22 23  1  0
  9  4  1  0
 17 12  1  0
 23 18  1  0
  1 24  1  0
  1 25  1  0
  1 26  1  0
  2 27  1  0
  2 28  1  0
  5 29  1  0
  6 30  1  0
  7 31  1  0
  8 32  1  0
 10 33  1  0
 10 34  1  0
 11 35  1  1
 13 36  1  0
 14 37  1  0
 15 38  1  0
 16 39  1  0
 17 40  1  0
 19 41  1  0
 19 42  1  0
 20 43  1  0
 20 44  1  0
 21 45  1  0
 22 46  1  0
 22 47  1  0
 23 48  1  0
 23 49  1  0
M  END
$$$$
