
     RDKit          3D

 48 51  0  0  0  0  0  0  0  0999 V2000
    1.3213    0.6315    0.3010 C   0  0  2  0  0  0  0  0  0  0  0  0
    2.1434    1.8612    0.4093 C   0  0  0  0  0  0  0  0  0  0  0  0
    3.5507    1.3093    0.2717 C   0  0  0  0  0  0  0  0  0  0  0  0
    3.4020   -0.0789   -0.3645 C   0  0  1  0  0  0  0  0  0  0  0  0
    4.2506   -0.1611   -1.4636 O   0  0  0  0  0  0  0  0  0  0  0  0
    3.6110   -1.1345    0.5932 C   0  0  0  0  0  0  0  0  0  0  0  0
    3.8046   -2.0078    1.3942 C   0  0  0  0  0  0  0  0  0  0  0  0
    1.9628   -0.0805   -0.8415 C   0  0  2  0  0  0  0  0  0  0  0  0
    1.9949    0.7237   -2.1185 C   0  0  0  0  0  0  0  0  0  0  0  0
    1.3399   -1.4181   -0.9799 C   0  0  0  0  0  0  0  0  0  0  0  0
    0.1020   -1.6883   -0.2212 C   0  0  0  0  0  0  0  0  0  0  0  0
   -0.7074   -0.5857    0.3085 C   0  0  2  0  0  0  0  0  0  0  0  0
   -2.1361   -0.4974   -0.1588 C   0  0  1  0  0  0  0  0  0  0  0  0
   -2.8123   -1.8071   -0.3012 C   0  0  0  0  0  0  0  0  0  0  0  0
   -4.3025   -1.7108   -0.2682 C   0  0  0  0  0  0  0  0  0  0  0  0
   -4.7508   -0.9996    0.9535 C   0  0  0  0  0  0  0  0  0  0  0  0
   -5.6896   -1.4169    1.6888 O   0  0  0  0  0  0  0  0  0  0  0  0
   -4.0283    0.2375    1.2633 C   0  0  0  0  0  0  0  0  0  0  0  0
   -2.8198    0.4515    0.7390 C   0  0  0  0  0  0  0  0  0  0  0  0
   -2.1944    1.7200    1.1182 C   0  0  0  0  0  0  0  0  0  0  0  0
   -0.7509    1.8660    0.8527 C   0  0  0  0  0  0  0  0  0  0  0  0
   -0.1205    0.8034    0.0231 C   0  0  1  0  0  0  0  0  0  0  0  0
    1.4737    0.0183    1.2038 H   0  0  0  0  0  0  0  0  0  0  0  0
    2.0302    2.2622    1.4551 H   0  0  0  0  0  0  0  0  0  0  0  0
    1.9145    2.6370   -0.3230 H   0  0  0  0  0  0  0  0  0  0  0  0
    4.0491    1.2321    1.2812 H   0  0  0  0  0  0  0  0  0  0  0  0
    4.1311    1.9929   -0.4014 H   0  0  0  0  0  0  0  0  0  0  0  0
    4.2036   -1.0797   -1.7911 H   0  0  0  0  0  0  0  0  0  0  0  0
    3.9599   -2.7950    2.1149 H   0  0  0  0  0  0  0  0  0  0  0  0
    1.0502    1.1414   -2.4456 H   0  0  0  0  0  0  0  0  0  0  0  0
    2.7561    1.5129   -2.0698 H   0  0  0  0  0  0  0  0  0  0  0  0
    2.3087    0.0024   -2.9247 H   0  0  0  0  0  0  0  0  0  0  0  0
    2.1294   -2.1745   -0.7773 H   0  0  0  0  0  0  0  0  0  0  0  0
    1.1508   -1.5441   -2.0882 H   0  0  0  0  0  0  0  0  0  0  0  0
   -0.5690   -2.3261   -0.8569 H   0  0  0  0  0  0  0  0  0  0  0  0
    0.3736   -2.3929    0.6207 H   0  0  0  0  0  0  0  0  0  0  0  0
   -0.7598   -0.6134    1.4212 H   0  0  0  0  0  0  0  0  0  0  0  0
   -2.1182   -0.0112   -1.1741 H   0  0  0  0  0  0  0  0  0  0  0  0
   -2.5613   -2.2180   -1.3056 H   0  0  0  0  0  0  0  0  0  0  0  0
   -2.4783   -2.5765    0.4290 H   0  0  0  0  0  0  0  0  0  0  0  0
   -4.7569   -2.7080   -0.2636 H   0  0  0  0  0  0  0  0  0  0  0  0
   -4.6294   -1.0897   -1.1346 H   0  0  0  0  0  0  0  0  0  0  0  0
   -4.5133    0.9651    1.9307 H   0  0  0  0  0  0  0  0  0  0  0  0
   -2.3521    1.8619    2.2145 H   0  0  0  0  0  0  0  0  0  0  0  0
   -2.8137    2.5417    0.6572 H   0  0  0  0  0  0  0  0  0  0  0  0
   -0.1347    2.0165    1.7698 H   0  0  0  0  0  0  0  0  0  0  0  0
   -0.6092    2.8292    0.2818 H   0  0  0  0  0  0  0  0  0  0  0  0
   -0.4051    1.0019   -1.0230 H   0  0  0  0  0  0  0  0  0  0  0  0
  1  2  1  0
  2  3  1  0
  3  4  1  0
  4  5  1  0
  4  6  1  1
  6  7  3  0
  4  8  1  0
  8  9  1  6
  8 10  1  0
 10 11  1  0
 11 12  1  0
 12 13  1  0
 13 14  1  0
 14 15  1  0
 15 16  1  0
 16 17  2  0
 16 18  1  0
 18 19  2  0
 19 20  1  0
 20 21  1  0
 21 22  1  0
  8  1  1  0
 22 12  1  0
 22  1  1  0
 19 13  1  0
  1 23  1  1
  2 24  1  0
  2 25  1  0
  3 26  1  0
  3 27  1  0
  5 28  1  0
  7 29  1  0
  9 30  1  0
  9 31  1  0
  9 32  1  0
 10 33  1  0
 10 34  1  0
 11 35  1  0
 11 36  1  0
 12 37  1  1
 13 38  1  6
 14 39  1  0
 14 40  1  0
 15 41  1  0
 15 42  1  0
 18 43  1  0
 20 44  1  0
 20 45  1  0
 21 46  1  0
 21 47  1  0
 22 48  1  6
M  END
$$$$
