
     RDKit          3D

 49 51  0  0  0  0  0  0  0  0999 V2000
   -5.4927    0.0527    0.7828 O   0  0  0  0  0  0  0  0  0  0  0  0
   -5.1272    0.3689   -0.3733 C   0  0  0  0  0  0  0  0  0  0  0  0
   -5.5201    1.6374   -0.8072 O   0  0  0  0  0  0  0  0  0  0  0  0
   -4.3317   -0.5454   -1.2184 C   0  0  0  0  0  0  0  0  0  0  0  0
   -2.9868   -0.1007   -1.5611 C   0  0  0  0  0  0  0  0  0  0  0  0
   -1.9728    0.1508   -0.5037 C   0  0  0  0  0  0  0  0  0  0  0  0
   -1.7187   -1.0709    0.2993 C   0  0  0  0  0  0  0  0  0  0  0  0
   -2.3871   -1.3024    1.5004 C   0  0  0  0  0  0  0  0  0  0  0  0
   -2.1470   -2.4509    2.2221 C   0  0  0  0  0  0  0  0  0  0  0  0
   -1.2681   -3.3927    1.8098 N   0  0  0  0  0  0  0  0  0  0  0  0
   -0.6253   -3.1937    0.6763 C   0  0  0  0  0  0  0  0  0  0  0  0
   -0.8359   -2.0412   -0.0926 C   0  0  0  0  0  0  0  0  0  0  0  0
   -2.2618    1.3290    0.3940 C   0  0  0  0  0  0  0  0  0  0  0  0
   -1.0627    1.4770    1.3421 C   0  0  0  0  0  0  0  0  0  0  0  0
    0.0734    2.0470    0.4791 C   0  0  0  0  0  0  0  0  0  0  0  0
    0.3799    0.9987   -0.4637 N   0  0  0  0  0  0  0  0  0  0  0  0
    1.7078    0.4488   -0.6411 C   0  0  0  0  0  0  0  0  0  0  0  0
    1.8923   -0.4547   -1.4920 O   0  0  0  0  0  0  0  0  0  0  0  0
    2.8344    0.8697    0.0929 N   0  0  0  0  0  0  0  0  0  0  0  0
    4.1598    0.4121    0.0072 C   0  0  0  0  0  0  0  0  0  0  0  0
    5.1326    0.9815    0.8477 C   0  0  0  0  0  0  0  0  0  0  0  0
    6.4517    0.5980    0.8376 C   0  0  0  0  0  0  0  0  0  0  0  0
    6.8853   -0.3749   -0.0086 C   0  0  0  0  0  0  0  0  0  0  0  0
    8.5713   -0.8283    0.0167 Cl  0  0  0  0  0  0  0  0  0  0  0  0
    5.9740   -0.9576   -0.8449 C   0  0  0  0  0  0  0  0  0  0  0  0
    4.6172   -0.5588   -0.8303 C   0  0  0  0  0  0  0  0  0  0  0  0
   -0.7032    0.5135   -1.2570 C   0  0  0  0  0  0  0  0  0  0  0  0
   -5.6840    2.3795   -0.1181 H   0  0  0  0  0  0  0  0  0  0  0  0
   -4.4067   -1.5569   -0.7582 H   0  0  0  0  0  0  0  0  0  0  0  0
   -4.9443   -0.6587   -2.1662 H   0  0  0  0  0  0  0  0  0  0  0  0
   -2.5216   -0.8558   -2.2649 H   0  0  0  0  0  0  0  0  0  0  0  0
   -3.1043    0.7974   -2.2490 H   0  0  0  0  0  0  0  0  0  0  0  0
   -3.1016   -0.6042    1.9060 H   0  0  0  0  0  0  0  0  0  0  0  0
   -2.6856   -2.6070    3.1592 H   0  0  0  0  0  0  0  0  0  0  0  0
    0.0833   -3.9508    0.3416 H   0  0  0  0  0  0  0  0  0  0  0  0
   -0.2740   -1.9844   -0.9875 H   0  0  0  0  0  0  0  0  0  0  0  0
   -2.2670    2.2496   -0.2118 H   0  0  0  0  0  0  0  0  0  0  0  0
   -3.1147    1.2382    1.0506 H   0  0  0  0  0  0  0  0  0  0  0  0
   -0.7821    0.5283    1.8079 H   0  0  0  0  0  0  0  0  0  0  0  0
   -1.3352    2.2436    2.0624 H   0  0  0  0  0  0  0  0  0  0  0  0
   -0.3982    2.8862   -0.1017 H   0  0  0  0  0  0  0  0  0  0  0  0
    0.8930    2.3972    1.0887 H   0  0  0  0  0  0  0  0  0  0  0  0
    2.6593    1.6419    0.8135 H   0  0  0  0  0  0  0  0  0  0  0  0
    4.8304    1.7568    1.5333 H   0  0  0  0  0  0  0  0  0  0  0  0
    7.1345    1.0987    1.5293 H   0  0  0  0  0  0  0  0  0  0  0  0
    6.2787   -1.7216   -1.5197 H   0  0  0  0  0  0  0  0  0  0  0  0
    3.9306   -1.0430   -1.5057 H   0  0  0  0  0  0  0  0  0  0  0  0
   -0.4043   -0.2434   -2.0085 H   0  0  0  0  0  0  0  0  0  0  0  0
   -1.0249    1.3951   -1.8964 H   0  0  0  0  0  0  0  0  0  0  0  0
  1  2  2  0
  2  3  1  0
  2  4  1  0
  4  5  1  0
  5  6  1  0
  6  7  1  0
  7  8  2  0
  8  9  1  0
  9 10  2  0
 10 11  1  0
 11 12  2  0
  6 13  1  0
 13 14  1  0
 14 15  1  0
 15 16  1  0
 16 17  1  0
 17 18  2  0
 17 19  1  0
 19 20  1  0
 20 21  2  0
 21 22  1  0
 22 23  2  0
 23 24  1  0
 23 25  1  0
 25 26  2  0
 16 27  1  0
 27  6  1  0
 12  7  1  0
 26 20  1  0
  3 28  1  0
  4 29  1  0
  4 30  1  0
  5 31  1  0
  5 32  1  0
  8 33  1  0
  9 34  1  0
 11 35  1  0
 12 36  1  0
 13 37  1  0
 13 38  1  0
 14 39  1  0
 14 40  1  0
 15 41  1  0
 15 42  1  0
 19 43  1  0
 21 44  1  0
 22 45  1  0
 25 46  1  0
 26 47  1  0
 27 48  1  0
 27 49  1  0
M  END
$$$$
