
     RDKit          3D

 49 52  0  0  0  0  0  0  0  0999 V2000
    1.8696    2.3079   -0.9355 C   0  0  0  0  0  0  0  0  0  0  0  0
    1.8326    0.9940   -0.1647 C   0  0  0  0  0  0  0  0  0  0  0  0
    1.5590    1.3363    1.2143 N   0  0  0  0  0  0  0  0  0  0  0  0
    0.5702    0.7896    1.7748 N   0  0  0  0  0  0  0  0  0  0  0  0
   -0.2845   -0.1519    1.0966 C   0  0  0  0  0  0  0  0  0  0  0  0
    0.1376   -1.4027    0.8189 N   0  0  0  0  0  0  0  0  0  0  0  0
   -0.7217   -2.2368    0.1773 C   0  0  0  0  0  0  0  0  0  0  0  0
   -0.3256   -3.5173   -0.1214 C   0  0  0  0  0  0  0  0  0  0  0  0
   -1.1874   -4.3638   -0.7685 C   0  0  0  0  0  0  0  0  0  0  0  0
   -2.4581   -3.9777   -1.1390 C   0  0  0  0  0  0  0  0  0  0  0  0
   -2.8686   -2.6951   -0.8453 C   0  0  0  0  0  0  0  0  0  0  0  0
   -1.9923   -1.8455   -0.1914 C   0  0  0  0  0  0  0  0  0  0  0  0
   -2.4064   -0.5901    0.0912 N   0  0  0  0  0  0  0  0  0  0  0  0
   -1.5539    0.2383    0.7281 C   0  0  0  0  0  0  0  0  0  0  0  0
   -1.9530    1.6496    1.0723 C   0  0  0  0  0  0  0  0  0  0  0  0
   -3.3266    1.9456    0.6284 C   0  0  0  0  0  0  0  0  0  0  0  0
   -4.3590    1.6913    1.5093 C   0  0  0  0  0  0  0  0  0  0  0  0
   -5.6558    1.9623    1.1120 C   0  0  0  0  0  0  0  0  0  0  0  0
   -5.8652    2.4808   -0.1615 C   0  0  0  0  0  0  0  0  0  0  0  0
   -4.8265    2.7293   -1.0291 C   0  0  0  0  0  0  0  0  0  0  0  0
   -3.5195    2.4593   -0.6364 C   0  0  0  0  0  0  0  0  0  0  0  0
    3.1602    0.3261   -0.2001 C   0  0  0  0  0  0  0  0  0  0  0  0
    3.5217   -0.6440    0.7083 C   0  0  0  0  0  0  0  0  0  0  0  0
    4.7848   -1.2358    0.6238 C   0  0  0  0  0  0  0  0  0  0  0  0
    5.6789   -0.8644   -0.3566 C   0  0  0  0  0  0  0  0  0  0  0  0
    6.9594   -1.4559   -0.4522 N   0  0  0  0  0  0  0  0  0  0  0  0
    5.2882    0.1075   -1.2492 C   0  0  0  0  0  0  0  0  0  0  0  0
    4.0440    0.7051   -1.1831 C   0  0  0  0  0  0  0  0  0  0  0  0
    2.8448    2.8013   -0.7143 H   0  0  0  0  0  0  0  0  0  0  0  0
    1.0288    2.9586   -0.6254 H   0  0  0  0  0  0  0  0  0  0  0  0
    1.8191    2.1647   -2.0215 H   0  0  0  0  0  0  0  0  0  0  0  0
    1.0246    0.3772   -0.5919 H   0  0  0  0  0  0  0  0  0  0  0  0
    0.6795   -3.8037    0.1785 H   0  0  0  0  0  0  0  0  0  0  0  0
   -0.8038   -5.3670   -0.9731 H   0  0  0  0  0  0  0  0  0  0  0  0
   -3.0946   -4.6861   -1.6466 H   0  0  0  0  0  0  0  0  0  0  0  0
   -3.8682   -2.4086   -1.1429 H   0  0  0  0  0  0  0  0  0  0  0  0
   -1.8625    1.7874    2.1580 H   0  0  0  0  0  0  0  0  0  0  0  0
   -1.2035    2.3568    0.6116 H   0  0  0  0  0  0  0  0  0  0  0  0
   -4.1497    1.2813    2.5064 H   0  0  0  0  0  0  0  0  0  0  0  0
   -6.4674    1.7649    1.7980 H   0  0  0  0  0  0  0  0  0  0  0  0
   -6.8901    2.6888   -0.4597 H   0  0  0  0  0  0  0  0  0  0  0  0
   -4.9820    3.1326   -2.0212 H   0  0  0  0  0  0  0  0  0  0  0  0
   -2.6756    2.6497   -1.3121 H   0  0  0  0  0  0  0  0  0  0  0  0
    2.8177   -0.9377    1.4818 H   0  0  0  0  0  0  0  0  0  0  0  0
    5.0225   -1.9925    1.3595 H   0  0  0  0  0  0  0  0  0  0  0  0
    7.7277   -1.3292    0.2340 H   0  0  0  0  0  0  0  0  0  0  0  0
    7.1575   -2.0701   -1.2738 H   0  0  0  0  0  0  0  0  0  0  0  0
    5.9696    0.4298   -2.0422 H   0  0  0  0  0  0  0  0  0  0  0  0
    3.8037    1.4599   -1.9150 H   0  0  0  0  0  0  0  0  0  0  0  0
  1  2  1  0
  2  3  1  0
  3  4  2  3
  4  5  1  0
  5  6  2  0
  6  7  1  0
  7  8  2  0
  8  9  1  0
  9 10  2  0
 10 11  1  0
 11 12  2  0
 12 13  1  0
 13 14  2  0
 14 15  1  0
 15 16  1  0
 16 17  2  0
 17 18  1  0
 18 19  2  0
 19 20  1  0
 20 21  2  0
  2 22  1  0
 22 23  2  0
 23 24  1  0
 24 25  2  0
 25 26  1  0
 25 27  1  0
 27 28  2  0
 14  5  1  0
 21 16  1  0
 28 22  1  0
 12  7  1  0
  1 29  1  0
  1 30  1  0
  1 31  1  0
  2 32  1  0
  8 33  1  0
  9 34  1  0
 10 35  1  0
 11 36  1  0
 15 37  1  0
 15 38  1  0
 17 39  1  0
 18 40  1  0
 19 41  1  0
 20 42  1  0
 21 43  1  0
 23 44  1  0
 24 45  1  0
 26 46  1  0
 26 47  1  0
 27 48  1  0
 28 49  1  0
M  END
$$$$
