
     RDKit          3D

126129  0  0  0  0  0  0  0  0999 V2000
    9.4522   -1.9590   -2.2573 C   0  0  0  0  0  0  0  0  0  0  0  0
    8.4281   -1.1023   -1.8519 O   0  0  0  0  0  0  0  0  0  0  0  0
    8.8153   -0.3058   -0.7831 C   0  0  2  0  0  0  0  0  0  0  0  0
    7.8832   -0.4843    0.3550 C   0  0  0  0  0  0  0  0  0  0  0  0
    7.0562    0.6503    0.7967 C   0  0  1  0  0  0  0  0  0  0  0  0
    7.5113    2.0255    0.3720 C   0  0  0  0  0  0  0  0  0  0  0  0
    8.9522    1.9839   -0.0606 C   0  0  0  0  0  0  0  0  0  0  0  0
    8.9449    1.1010   -1.2926 C   0  0  1  0  0  0  0  0  0  0  0  0
   10.1185    1.2153   -2.0335 O   0  0  0  0  0  0  0  0  0  0  0  0
    5.5911    0.5267    0.7167 C   0  0  0  0  0  0  0  0  0  0  0  0
    4.5479   -0.0730    0.2077 C   0  0  0  0  0  0  0  0  0  0  0  0
    4.9425   -1.1581   -0.7526 C   0  0  0  0  0  0  0  0  0  0  0  0
    3.0913    0.1272    0.4631 C   0  0  1  0  0  0  0  0  0  0  0  0
    2.5305   -0.9637    1.1585 O   0  0  0  0  0  0  0  0  0  0  0  0
    1.6364   -1.8804    0.6529 C   0  0  0  0  0  0  0  0  0  0  0  0
    1.4148   -1.5818   -0.5314 O   0  0  0  0  0  0  0  0  0  0  0  0
    1.1413   -2.9525    1.5087 C   0  0  2  0  0  0  0  0  0  0  0  0
    1.8490   -4.2701    1.2443 C   0  0  0  0  0  0  0  0  0  0  0  0
    1.4389   -5.2883    2.2562 C   0  0  0  0  0  0  0  0  0  0  0  0
   -0.0297   -5.3712    2.5042 C   0  0  0  0  0  0  0  0  0  0  0  0
   -0.6414   -3.9877    2.6500 C   0  0  0  0  0  0  0  0  0  0  0  0
   -0.3028   -3.1439    1.5266 N   0  0  0  0  0  0  0  0  0  0  0  0
   -1.5566   -2.8910    0.9294 C   0  0  0  0  0  0  0  0  0  0  0  0
   -0.9535   -2.2618    0.0999 O   0  0  0  0  0  0  0  0  0  0  0  0
   -2.9673   -3.1419    1.0498 C   0  0  0  0  0  0  0  0  0  0  0  0
   -3.7294   -3.7289    1.8664 O   0  0  0  0  0  0  0  0  0  0  0  0
   -3.8437   -2.6202   -0.0130 C   0  0  2  0  0  0  0  0  0  0  0  0
   -3.0540   -2.1226   -1.0409 O   0  0  0  0  0  0  0  0  0  0  0  0
   -4.6367   -1.5656    0.4341 O   0  0  0  0  0  0  0  0  0  0  0  0
   -5.5642   -1.1640   -0.5084 C   0  0  1  0  0  0  0  0  0  0  0  0
   -6.6543   -2.1788   -0.6509 C   0  0  2  0  0  0  0  0  0  0  0  0
   -6.1464   -3.5734   -0.2717 C   0  0  0  0  0  0  0  0  0  0  0  0
   -4.6865   -3.7209   -0.6336 C   0  0  1  0  0  0  0  0  0  0  0  0
   -4.4632   -3.8346   -2.1232 C   0  0  0  0  0  0  0  0  0  0  0  0
   -7.2320   -2.1902   -1.9049 O   0  0  0  0  0  0  0  0  0  0  0  0
   -8.5718   -1.9415   -1.9713 C   0  0  0  0  0  0  0  0  0  0  0  0
   -6.1678    0.1539   -0.0066 C   0  0  2  0  0  0  0  0  0  0  0  0
   -5.0384    1.1473    0.1076 C   0  0  0  0  0  0  0  0  0  0  0  0
   -5.3401    2.5130    0.5986 C   0  0  1  0  0  0  0  0  0  0  0  0
   -5.7268    2.6895    2.0188 C   0  0  0  0  0  0  0  0  0  0  0  0
   -4.4003    3.5534    0.0542 C   0  0  0  0  0  0  0  0  0  0  0  0
   -2.9529    3.3254    0.3220 C   0  0  0  0  0  0  0  0  0  0  0  0
   -2.5549    3.3273    1.7832 C   0  0  0  0  0  0  0  0  0  0  0  0
   -2.0539    3.1453   -0.6933 C   0  0  0  0  0  0  0  0  0  0  0  0
   -0.7827    2.9142   -1.4336 C   0  0  1  0  0  0  0  0  0  0  0  0
   -0.4784    4.1112   -2.3413 C   0  0  0  0  0  0  0  0  0  0  0  0
   -0.3544    5.2980   -1.4575 C   0  0  0  0  0  0  0  0  0  0  0  0
   -1.0599    6.4386   -1.4499 C   0  0  0  0  0  0  0  0  0  0  0  0
    0.4051    2.7943   -0.5455 C   0  0  0  0  0  0  0  0  0  0  0  0
   -0.6744    2.9855   -0.0541 O   0  0  0  0  0  0  0  0  0  0  0  0
    1.7871    2.5607   -1.0119 C   0  0  0  0  0  0  0  0  0  0  0  0
    2.8011    2.6063    0.1231 C   0  0  2  0  0  0  0  0  0  0  0  0
    4.0637    2.4632   -0.5278 O   0  0  0  0  0  0  0  0  0  0  0  0
    2.7129    1.4385    1.0664 C   0  0  1  0  0  0  0  0  0  0  0  0
    1.2930    1.2991    1.5690 C   0  0  0  0  0  0  0  0  0  0  0  0
   -6.8268    0.0501    1.1907 O   0  0  0  0  0  0  0  0  0  0  0  0
   -8.1576    0.3786    1.1960 C   0  0  0  0  0  0  0  0  0  0  0  0
    9.6959   -2.5938   -1.3889 H   0  0  0  0  0  0  0  0  0  0  0  0
    9.1405   -2.5518   -3.1397 H   0  0  0  0  0  0  0  0  0  0  0  0
   10.2913   -1.3128   -2.5801 H   0  0  0  0  0  0  0  0  0  0  0  0
    9.8809   -0.6281   -0.5798 H   0  0  0  0  0  0  0  0  0  0  0  0
    7.2490   -1.3886    0.2699 H   0  0  0  0  0  0  0  0  0  0  0  0
    8.5871   -0.8454    1.1943 H   0  0  0  0  0  0  0  0  0  0  0  0
    7.2829    0.7068    1.9229 H   0  0  0  0  0  0  0  0  0  0  0  0
    6.8568    2.4703   -0.4079 H   0  0  0  0  0  0  0  0  0  0  0  0
    7.4523    2.7634    1.1964 H   0  0  0  0  0  0  0  0  0  0  0  0
    9.3530    2.9584   -0.3425 H   0  0  0  0  0  0  0  0  0  0  0  0
    9.5395    1.4657    0.6970 H   0  0  0  0  0  0  0  0  0  0  0  0
    8.0961    1.3086   -1.9639 H   0  0  0  0  0  0  0  0  0  0  0  0
    9.9533    1.3975   -3.0057 H   0  0  0  0  0  0  0  0  0  0  0  0
    5.1884    1.2770    1.4412 H   0  0  0  0  0  0  0  0  0  0  0  0
    4.0910   -1.3347   -1.4439 H   0  0  0  0  0  0  0  0  0  0  0  0
    5.0627   -2.1180   -0.2244 H   0  0  0  0  0  0  0  0  0  0  0  0
    5.7572   -0.8790   -1.4311 H   0  0  0  0  0  0  0  0  0  0  0  0
    2.6490    0.1031   -0.5550 H   0  0  0  0  0  0  0  0  0  0  0  0
    1.4419   -2.6926    2.5689 H   0  0  0  0  0  0  0  0  0  0  0  0
    1.7659   -4.5883    0.1901 H   0  0  0  0  0  0  0  0  0  0  0  0
    2.9203   -4.0524    1.4124 H   0  0  0  0  0  0  0  0  0  0  0  0
    1.9954   -5.0697    3.2066 H   0  0  0  0  0  0  0  0  0  0  0  0
    1.8205   -6.2899    1.9334 H   0  0  0  0  0  0  0  0  0  0  0  0
   -0.5471   -5.9652    1.7224 H   0  0  0  0  0  0  0  0  0  0  0  0
   -0.1971   -5.8899    3.4680 H   0  0  0  0  0  0  0  0  0  0  0  0
   -0.1150   -3.5498    3.5624 H   0  0  0  0  0  0  0  0  0  0  0  0
   -1.6899   -4.0862    2.9096 H   0  0  0  0  0  0  0  0  0  0  0  0
   -3.0391   -1.1357   -1.0326 H   0  0  0  0  0  0  0  0  0  0  0  0
   -5.0930   -0.8970   -1.4807 H   0  0  0  0  0  0  0  0  0  0  0  0
   -7.4351   -1.9652    0.0884 H   0  0  0  0  0  0  0  0  0  0  0  0
   -6.2681   -3.7780    0.8099 H   0  0  0  0  0  0  0  0  0  0  0  0
   -6.7091   -4.3519   -0.8171 H   0  0  0  0  0  0  0  0  0  0  0  0
   -4.3457   -4.6766   -0.1859 H   0  0  0  0  0  0  0  0  0  0  0  0
   -3.5742   -4.4976   -2.3404 H   0  0  0  0  0  0  0  0  0  0  0  0
   -5.3126   -4.3126   -2.6386 H   0  0  0  0  0  0  0  0  0  0  0  0
   -4.1980   -2.8435   -2.5456 H   0  0  0  0  0  0  0  0  0  0  0  0
   -8.9837   -1.9873   -3.0065 H   0  0  0  0  0  0  0  0  0  0  0  0
   -9.1960   -2.4802   -1.2325 H   0  0  0  0  0  0  0  0  0  0  0  0
   -8.6920   -0.8428   -1.7123 H   0  0  0  0  0  0  0  0  0  0  0  0
   -6.8863    0.5246   -0.8182 H   0  0  0  0  0  0  0  0  0  0  0  0
   -4.4835    1.2093   -0.8757 H   0  0  0  0  0  0  0  0  0  0  0  0
   -4.2852    0.6539    0.8088 H   0  0  0  0  0  0  0  0  0  0  0  0
   -6.3310    2.7732    0.0291 H   0  0  0  0  0  0  0  0  0  0  0  0
   -5.1639    2.0654    2.7506 H   0  0  0  0  0  0  0  0  0  0  0  0
   -6.7914    2.5201    2.2775 H   0  0  0  0  0  0  0  0  0  0  0  0
   -5.6152    3.8017    2.2338 H   0  0  0  0  0  0  0  0  0  0  0  0
   -4.5893    3.7011   -1.0396 H   0  0  0  0  0  0  0  0  0  0  0  0
   -4.6460    4.5580    0.4976 H   0  0  0  0  0  0  0  0  0  0  0  0
   -2.1806    2.3308    2.0704 H   0  0  0  0  0  0  0  0  0  0  0  0
   -1.8018    4.1521    1.9908 H   0  0  0  0  0  0  0  0  0  0  0  0
   -3.3777    3.5618    2.4462 H   0  0  0  0  0  0  0  0  0  0  0  0
   -2.6856    3.2274   -1.6101 H   0  0  0  0  0  0  0  0  0  0  0  0
   -0.8649    2.0302   -2.1162 H   0  0  0  0  0  0  0  0  0  0  0  0
   -1.3354    4.2802   -3.0332 H   0  0  0  0  0  0  0  0  0  0  0  0
    0.4812    3.9497   -2.8263 H   0  0  0  0  0  0  0  0  0  0  0  0
    0.3929    5.3156   -0.6837 H   0  0  0  0  0  0  0  0  0  0  0  0
   -1.2692    7.4181   -1.0385 H   0  0  0  0  0  0  0  0  0  0  0  0
   -1.8748    6.9220   -1.9755 H   0  0  0  0  0  0  0  0  0  0  0  0
    2.0670    3.4252   -1.6689 H   0  0  0  0  0  0  0  0  0  0  0  0
    1.8841    1.6560   -1.6280 H   0  0  0  0  0  0  0  0  0  0  0  0
    2.7672    3.5831    0.6075 H   0  0  0  0  0  0  0  0  0  0  0  0
    4.5140    3.3432   -0.5871 H   0  0  0  0  0  0  0  0  0  0  0  0
    3.3090    1.7194    1.9559 H   0  0  0  0  0  0  0  0  0  0  0  0
    1.3036    0.5893    2.4624 H   0  0  0  0  0  0  0  0  0  0  0  0
    0.9140    2.2387    1.9951 H   0  0  0  0  0  0  0  0  0  0  0  0
    0.6369    0.7908    0.8501 H   0  0  0  0  0  0  0  0  0  0  0  0
   -8.4895    0.2494    2.2740 H   0  0  0  0  0  0  0  0  0  0  0  0
   -8.7853   -0.2445    0.5685 H   0  0  0  0  0  0  0  0  0  0  0  0
   -8.2942    1.4416    0.8827 H   0  0  0  0  0  0  0  0  0  0  0  0
  1  2  1  0
  2  3  1  0
  3  4  1  0
  4  5  1  0
  5  6  1  0
  6  7  1  0
  7  8  1  0
  8  9  1  0
  5 10  1  0
 10 11  2  0
 11 12  1  0
 11 13  1  0
 13 14  1  0
 14 15  1  0
 15 16  2  0
 15 17  1  0
 17 18  1  0
 18 19  1  0
 19 20  1  0
 20 21  1  0
 21 22  1  0
 22 23  1  0
 23 24  2  0
 23 25  1  0
 25 26  2  0
 25 27  1  0
 27 28  1  6
 27 29  1  0
 29 30  1  0
 30 31  1  0
 31 32  1  0
 32 33  1  0
 33 34  1  0
 31 35  1  0
 35 36  1  0
 30 37  1  0
 37 38  1  0
 38 39  1  0
 39 40  1  0
 39 41  1  0
 41 42  1  0
 42 43  1  0
 42 44  2  0
 44 45  1  0
 45 46  1  0
 46 47  1  0
 47 48  2  0
 45 49  1  0
 49 50  2  0
 49 51  1  0
 51 52  1  0
 52 53  1  0
 52 54  1  0
 54 55  1  0
 37 56  1  0
 56 57  1  0
  8  3  1  0
 54 13  1  0
 22 17  1  0
 33 27  1  0
  1 58  1  0
  1 59  1  0
  1 60  1  0
  3 61  1  1
  4 62  1  0
  4 63  1  0
  5 64  1  1
  6 65  1  0
  6 66  1  0
  7 67  1  0
  7 68  1  0
  8 69  1  6
  9 70  1  0
 10 71  1  0
 12 72  1  0
 12 73  1  0
 12 74  1  0
 13 75  1  6
 17 76  1  1
 18 77  1  0
 18 78  1  0
 19 79  1  0
 19 80  1  0
 20 81  1  0
 20 82  1  0
 21 83  1  0
 21 84  1  0
 28 85  1  0
 30 86  1  6
 31 87  1  1
 32 88  1  0
 32 89  1  0
 33 90  1  1
 34 91  1  0
 34 92  1  0
 34 93  1  0
 36 94  1  0
 36 95  1  0
 36 96  1  0
 37 97  1  6
 38 98  1  0
 38 99  1  0
 39100  1  6
 40101  1  0
 40102  1  0
 40103  1  0
 41104  1  0
 41105  1  0
 43106  1  0
 43107  1  0
 43108  1  0
 44109  1  0
 45110  1  6
 46111  1  0
 46112  1  0
 47113  1  0
 48114  1  0
 48115  1  0
 51116  1  0
 51117  1  0
 52118  1  1
 53119  1  0
 54120  1  1
 55121  1  0
 55122  1  0
 55123  1  0
 57124  1  0
 57125  1  0
 57126  1  0
M  END
$$$$
