
     RDKit          3D

 64 67  0  0  0  0  0  0  0  0999 V2000
   -0.0353   -2.9360   -0.8335 C   0  0  0  0  0  0  0  0  0  0  0  0
    0.1563   -1.8749    0.2591 C   0  0  0  0  0  0  0  0  0  0  0  0
    0.0528   -2.6689    1.5691 C   0  0  0  0  0  0  0  0  0  0  0  0
   -0.9394   -0.8916    0.2373 C   0  0  0  0  0  0  0  0  0  0  0  0
   -0.7032    0.3248    0.1090 O   0  0  0  0  0  0  0  0  0  0  0  0
   -2.3144   -1.2473    0.3581 N   0  0  0  0  0  0  0  0  0  0  0  0
   -3.3980   -0.3531    0.3435 C   0  0  1  0  0  0  0  0  0  0  0  0
   -4.3771   -0.5582   -0.8008 C   0  0  0  0  0  0  0  0  0  0  0  0
   -5.1360   -1.7818   -0.2956 C   0  0  0  0  0  0  0  0  0  0  0  0
   -5.3972   -1.4129    1.1432 C   0  0  0  0  0  0  0  0  0  0  0  0
   -4.3357   -0.4056    1.5057 C   0  0  0  0  0  0  0  0  0  0  0  0
   -5.0187    0.9485    1.5432 C   0  0  0  0  0  0  0  0  0  0  0  0
   -5.6383    1.3602    0.2642 C   0  0  1  0  0  0  0  0  0  0  0  0
   -5.3671    2.8021    0.0294 C   0  0  0  0  0  0  0  0  0  0  0  0
   -4.7046    3.4526    0.8608 O   0  0  0  0  0  0  0  0  0  0  0  0
   -5.8313    3.4593   -1.0978 O   0  0  0  0  0  0  0  0  0  0  0  0
   -5.3416    0.5568   -0.9315 C   0  0  0  0  0  0  0  0  0  0  0  0
    1.3962   -1.2313    0.1133 N   0  0  0  0  0  0  0  0  0  0  0  0
    1.6947   -0.5423   -1.0706 C   0  0  0  0  0  0  0  0  0  0  0  0
    2.4336    0.7431   -0.6664 C   0  0  0  0  0  0  0  0  0  0  0  0
    3.6972    0.3064   -0.1076 N   0  0  0  0  0  0  0  0  0  0  0  0
    4.8798    0.9694   -0.4949 C   0  0  0  0  0  0  0  0  0  0  0  0
    6.1286    0.6049   -0.0116 C   0  0  0  0  0  0  0  0  0  0  0  0
    7.2805    1.2614   -0.3969 C   0  0  0  0  0  0  0  0  0  0  0  0
    7.2242    2.3187   -1.2900 C   0  0  0  0  0  0  0  0  0  0  0  0
    8.4621    3.0345   -1.7125 C   0  0  0  0  0  0  0  0  0  0  0  0
    8.6544    4.1709   -0.9150 F   0  0  0  0  0  0  0  0  0  0  0  0
    8.4097    3.4526   -3.0082 F   0  0  0  0  0  0  0  0  0  0  0  0
    9.5213    2.2002   -1.4433 F   0  0  0  0  0  0  0  0  0  0  0  0
    5.9691    2.6583   -1.7534 C   0  0  0  0  0  0  0  0  0  0  0  0
    4.8586    1.9997   -1.3604 N   0  0  0  0  0  0  0  0  0  0  0  0
    3.7036   -0.7830    0.8205 C   0  0  0  0  0  0  0  0  0  0  0  0
    2.3305   -1.2678    1.1593 C   0  0  0  0  0  0  0  0  0  0  0  0
    0.9171   -3.4358   -1.0682 H   0  0  0  0  0  0  0  0  0  0  0  0
   -0.7969   -3.6585   -0.5226 H   0  0  0  0  0  0  0  0  0  0  0  0
   -0.3851   -2.4024   -1.7277 H   0  0  0  0  0  0  0  0  0  0  0  0
   -0.9974   -3.0441    1.6681 H   0  0  0  0  0  0  0  0  0  0  0  0
    0.7667   -3.5137    1.5808 H   0  0  0  0  0  0  0  0  0  0  0  0
    0.2340   -2.0159    2.4402 H   0  0  0  0  0  0  0  0  0  0  0  0
   -2.5134   -2.2754    0.4668 H   0  0  0  0  0  0  0  0  0  0  0  0
   -2.9988    0.6923    0.2108 H   0  0  0  0  0  0  0  0  0  0  0  0
   -3.8013   -0.7822   -1.7107 H   0  0  0  0  0  0  0  0  0  0  0  0
   -6.0964   -1.8859   -0.8537 H   0  0  0  0  0  0  0  0  0  0  0  0
   -4.4792   -2.6487   -0.4112 H   0  0  0  0  0  0  0  0  0  0  0  0
   -6.4274   -0.9865    1.1861 H   0  0  0  0  0  0  0  0  0  0  0  0
   -5.4075   -2.2927    1.8148 H   0  0  0  0  0  0  0  0  0  0  0  0
   -3.8739   -0.5649    2.4764 H   0  0  0  0  0  0  0  0  0  0  0  0
   -4.2180    1.6735    1.8727 H   0  0  0  0  0  0  0  0  0  0  0  0
   -5.7302    0.9268    2.4149 H   0  0  0  0  0  0  0  0  0  0  0  0
   -6.7587    1.3176    0.4345 H   0  0  0  0  0  0  0  0  0  0  0  0
   -5.4109    4.2902   -1.4495 H   0  0  0  0  0  0  0  0  0  0  0  0
   -4.9419    1.2424   -1.7375 H   0  0  0  0  0  0  0  0  0  0  0  0
   -6.2741    0.1311   -1.4094 H   0  0  0  0  0  0  0  0  0  0  0  0
    2.4105   -1.0652   -1.7517 H   0  0  0  0  0  0  0  0  0  0  0  0
    0.7792   -0.2274   -1.6012 H   0  0  0  0  0  0  0  0  0  0  0  0
    1.8855    1.2492    0.1566 H   0  0  0  0  0  0  0  0  0  0  0  0
    2.5786    1.4002   -1.5417 H   0  0  0  0  0  0  0  0  0  0  0  0
    6.1478   -0.2292    0.6895 H   0  0  0  0  0  0  0  0  0  0  0  0
    8.2439    0.9669   -0.0132 H   0  0  0  0  0  0  0  0  0  0  0  0
    5.9195    3.4980   -2.4632 H   0  0  0  0  0  0  0  0  0  0  0  0
    4.3780   -1.6218    0.4883 H   0  0  0  0  0  0  0  0  0  0  0  0
    4.1663   -0.4044    1.7702 H   0  0  0  0  0  0  0  0  0  0  0  0
    1.9413   -0.6860    2.0320 H   0  0  0  0  0  0  0  0  0  0  0  0
    2.4272   -2.3172    1.5470 H   0  0  0  0  0  0  0  0  0  0  0  0
  1  2  1  0
  2  3  1  0
  2  4  1  0
  4  5  2  0
  4  6  1  0
  6  7  1  0
  7  8  1  0
  8  9  1  0
  9 10  1  0
 10 11  1  0
 11 12  1  0
 12 13  1  0
 13 14  1  0
 14 15  2  0
 14 16  1  0
 13 17  1  0
  2 18  1  0
 18 19  1  0
 19 20  1  0
 20 21  1  0
 21 22  1  0
 22 23  2  0
 23 24  1  0
 24 25  2  0
 25 26  1  0
 26 27  1  0
 26 28  1  0
 26 29  1  0
 25 30  1  0
 30 31  2  0
 21 32  1  0
 32 33  1  0
 11  7  1  0
 33 18  1  0
 17  8  1  0
 31 22  1  0
  1 34  1  0
  1 35  1  0
  1 36  1  0
  3 37  1  0
  3 38  1  0
  3 39  1  0
  6 40  1  0
  7 41  1  6
  8 42  1  0
  9 43  1  0
  9 44  1  0
 10 45  1  0
 10 46  1  0
 11 47  1  0
 12 48  1  0
 12 49  1  0
 13 50  1  1
 16 51  1  0
 17 52  1  0
 17 53  1  0
 19 54  1  0
 19 55  1  0
 20 56  1  0
 20 57  1  0
 23 58  1  0
 24 59  1  0
 30 60  1  0
 32 61  1  0
 32 62  1  0
 33 63  1  0
 33 64  1  0
M  END
$$$$
