
     RDKit          3D

 55 57  0  0  0  0  0  0  0  0999 V2000
    1.0473    0.3560    0.7698 C   0  0  0  0  0  0  0  0  0  0  0  0
   -0.0821    0.3380   -0.2025 C   0  0  0  0  0  0  0  0  0  0  0  0
   -0.9638   -0.8119   -0.3198 C   0  0  0  0  0  0  0  0  0  0  0  0
   -1.7073   -1.3128    0.8741 C   0  0  0  0  0  0  0  0  0  0  0  0
   -2.8450   -2.1912    0.3174 C   0  0  0  0  0  0  0  0  0  0  0  0
   -2.2260   -3.3788   -0.3391 C   0  0  0  0  0  0  0  0  0  0  0  0
   -1.5135   -2.8899   -1.5818 C   0  0  0  0  0  0  0  0  0  0  0  0
   -0.4472   -1.8633   -1.2218 C   0  0  0  0  0  0  0  0  0  0  0  0
   -0.7442    1.6986   -0.1220 C   0  0  0  0  0  0  0  0  0  0  0  0
   -1.2876    2.0606    1.2218 C   0  0  0  0  0  0  0  0  0  0  0  0
   -2.7877    2.3176    1.0628 C   0  0  0  0  0  0  0  0  0  0  0  0
   -2.8980    3.5858    0.2423 C   0  0  0  0  0  0  0  0  0  0  0  0
   -2.1113    3.4679   -1.0238 C   0  0  0  0  0  0  0  0  0  0  0  0
   -1.6748    2.0078   -1.2509 C   0  0  0  0  0  0  0  0  0  0  0  0
    2.0833   -0.7065    0.5951 C   0  0  0  0  0  0  0  0  0  0  0  0
    3.2043   -0.5673    1.6302 C   0  0  0  0  0  0  0  0  0  0  0  0
    4.4177    0.1289    0.9995 C   0  0  0  0  0  0  0  0  0  0  0  0
    4.8797   -0.6278   -0.2264 C   0  0  0  0  0  0  0  0  0  0  0  0
    3.7709   -1.4693   -0.8196 C   0  0  0  0  0  0  0  0  0  0  0  0
    2.5638   -0.6880   -0.7549 N   0  0  0  0  0  0  0  0  0  0  0  0
    1.6382    1.3304    0.6812 H   0  0  0  0  0  0  0  0  0  0  0  0
    0.6887    0.4134    1.8328 H   0  0  0  0  0  0  0  0  0  0  0  0
    0.4110    0.4019   -1.2609 H   0  0  0  0  0  0  0  0  0  0  0  0
   -1.8625   -0.3754   -0.9598 H   0  0  0  0  0  0  0  0  0  0  0  0
   -1.1190   -1.9640    1.5256 H   0  0  0  0  0  0  0  0  0  0  0  0
   -2.2522   -0.5367    1.4117 H   0  0  0  0  0  0  0  0  0  0  0  0
   -3.5674   -2.4355    1.1290 H   0  0  0  0  0  0  0  0  0  0  0  0
   -3.3460   -1.6051   -0.4848 H   0  0  0  0  0  0  0  0  0  0  0  0
   -1.5776   -3.9700    0.3048 H   0  0  0  0  0  0  0  0  0  0  0  0
   -3.0650   -4.0290   -0.6905 H   0  0  0  0  0  0  0  0  0  0  0  0
   -2.2016   -2.4647   -2.3037 H   0  0  0  0  0  0  0  0  0  0  0  0
   -0.9953   -3.7518   -2.0353 H   0  0  0  0  0  0  0  0  0  0  0  0
    0.4370   -2.4187   -0.9661 H   0  0  0  0  0  0  0  0  0  0  0  0
   -0.2128   -1.3543   -2.2053 H   0  0  0  0  0  0  0  0  0  0  0  0
    0.1252    2.4088   -0.2978 H   0  0  0  0  0  0  0  0  0  0  0  0
   -0.9003    3.0699    1.5729 H   0  0  0  0  0  0  0  0  0  0  0  0
   -1.0480    1.3900    2.0484 H   0  0  0  0  0  0  0  0  0  0  0  0
   -3.3385    1.4677    0.6638 H   0  0  0  0  0  0  0  0  0  0  0  0
   -3.1579    2.4755    2.0983 H   0  0  0  0  0  0  0  0  0  0  0  0
   -2.4516    4.3863    0.9000 H   0  0  0  0  0  0  0  0  0  0  0  0
   -3.9616    3.8713    0.1043 H   0  0  0  0  0  0  0  0  0  0  0  0
   -1.1565    4.0251   -0.9125 H   0  0  0  0  0  0  0  0  0  0  0  0
   -2.6225    3.8296   -1.9239 H   0  0  0  0  0  0  0  0  0  0  0  0
   -1.1168    1.9602   -2.1936 H   0  0  0  0  0  0  0  0  0  0  0  0
   -2.6309    1.4507   -1.2490 H   0  0  0  0  0  0  0  0  0  0  0  0
    1.5616   -1.6841    0.7686 H   0  0  0  0  0  0  0  0  0  0  0  0
    3.5422   -1.5989    1.8559 H   0  0  0  0  0  0  0  0  0  0  0  0
    2.9063   -0.0120    2.5192 H   0  0  0  0  0  0  0  0  0  0  0  0
    5.2187    0.0840    1.7677 H   0  0  0  0  0  0  0  0  0  0  0  0
    4.1286    1.1766    0.7917 H   0  0  0  0  0  0  0  0  0  0  0  0
    5.7525   -1.2530   -0.0411 H   0  0  0  0  0  0  0  0  0  0  0  0
    5.1246    0.1468   -0.9893 H   0  0  0  0  0  0  0  0  0  0  0  0
    3.6452   -2.4316   -0.2814 H   0  0  0  0  0  0  0  0  0  0  0  0
    3.9778   -1.6940   -1.8830 H   0  0  0  0  0  0  0  0  0  0  0  0
    2.7476    0.2360   -1.1484 H   0  0  0  0  0  0  0  0  0  0  0  0
  1  2  1  0
  2  3  1  0
  3  4  1  0
  4  5  1  0
  5  6  1  0
  6  7  1  0
  7  8  1  0
  2  9  1  0
  9 10  1  0
 10 11  1  0
 11 12  1  0
 12 13  1  0
 13 14  1  0
  1 15  1  0
 15 16  1  0
 16 17  1  0
 17 18  1  0
 18 19  1  0
 19 20  1  0
  8  3  1  0
 14  9  1  0
 20 15  1  0
  1 21  1  0
  1 22  1  0
  2 23  1  0
  3 24  1  0
  4 25  1  0
  4 26  1  0
  5 27  1  0
  5 28  1  0
  6 29  1  0
  6 30  1  0
  7 31  1  0
  7 32  1  0
  8 33  1  0
  8 34  1  0
  9 35  1  0
 10 36  1  0
 10 37  1  0
 11 38  1  0
 11 39  1  0
 12 40  1  0
 12 41  1  0
 13 42  1  0
 13 43  1  0
 14 44  1  0
 14 45  1  0
 15 46  1  0
 16 47  1  0
 16 48  1  0
 17 49  1  0
 17 50  1  0
 18 51  1  0
 18 52  1  0
 19 53  1  0
 19 54  1  0
 20 55  1  0
M  END
$$$$
