
     RDKit          3D

 28 28  0  0  0  0  0  0  0  0999 V2000
   -3.6167    1.8389    0.5588 C   0  0  0  0  0  0  0  0  0  0  0  0
   -2.2941    1.1752    0.4524 C   0  0  0  0  0  0  0  0  0  0  0  0
   -1.1866    1.9408    0.6329 N   0  0  0  0  0  0  0  0  0  0  0  0
    0.0618    1.4366    0.5558 C   0  0  0  0  0  0  0  0  0  0  0  0
    0.2324    0.0909    0.2855 C   0  0  0  0  0  0  0  0  0  0  0  0
    1.6458   -0.4256    0.1758 C   0  0  0  0  0  0  0  0  0  0  0  0
    2.4182    0.6926   -0.1561 O   0  0  0  0  0  0  0  0  0  0  0  0
    4.0326    0.4541   -0.3479 P   0  0  0  0  0  0  0  0  0  0  0  0
    4.8428    1.6282    0.6003 O   0  0  0  0  0  0  0  0  0  0  0  0
    4.6344   -1.0362    0.0774 O   0  0  0  0  0  0  0  0  0  0  0  0
    4.3958    0.7136   -1.8010 O   0  0  0  0  0  0  0  0  0  0  0  0
   -0.8739   -0.7159    0.1018 C   0  0  0  0  0  0  0  0  0  0  0  0
   -0.7347   -2.1705   -0.1675 C   0  0  0  0  0  0  0  0  0  0  0  0
   -1.8171   -2.5361   -0.9985 O   0  0  0  0  0  0  0  0  0  0  0  0
   -2.1519   -0.1721    0.1854 C   0  0  0  0  0  0  0  0  0  0  0  0
   -3.2731   -0.9729    0.0014 O   0  0  0  0  0  0  0  0  0  0  0  0
   -3.4574    2.9570    0.4647 H   0  0  0  0  0  0  0  0  0  0  0  0
   -4.0697    1.6693    1.5579 H   0  0  0  0  0  0  0  0  0  0  0  0
   -4.3074    1.5389   -0.2448 H   0  0  0  0  0  0  0  0  0  0  0  0
    0.9423    2.0808    0.7071 H   0  0  0  0  0  0  0  0  0  0  0  0
    1.9326   -0.9423    1.0885 H   0  0  0  0  0  0  0  0  0  0  0  0
    1.6783   -1.1231   -0.7050 H   0  0  0  0  0  0  0  0  0  0  0  0
    4.2551    2.4115    0.7527 H   0  0  0  0  0  0  0  0  0  0  0  0
    4.0233   -1.6633    0.5006 H   0  0  0  0  0  0  0  0  0  0  0  0
    0.1950   -2.4315   -0.7075 H   0  0  0  0  0  0  0  0  0  0  0  0
   -0.8485   -2.7222    0.7815 H   0  0  0  0  0  0  0  0  0  0  0  0
   -2.4539   -3.1078   -0.4760 H   0  0  0  0  0  0  0  0  0  0  0  0
   -4.2055   -0.6086    0.1013 H   0  0  0  0  0  0  0  0  0  0  0  0
  1  2  1  0
  2  3  2  0
  3  4  1  0
  4  5  2  0
  5  6  1  0
  6  7  1  0
  7  8  1  0
  8  9  1  0
  8 10  1  0
  8 11  2  0
  5 12  1  0
 12 13  1  0
 13 14  1  0
 12 15  2  0
 15 16  1  0
 15  2  1  0
  1 17  1  0
  1 18  1  0
  1 19  1  0
  4 20  1  0
  6 21  1  0
  6 22  1  0
  9 23  1  0
 10 24  1  0
 13 25  1  0
 13 26  1  0
 14 27  1  0
 16 28  1  0
M  END
$$$$
