
     RDKit          3D

 43 46  0  0  0  0  0  0  0  0999 V2000
   -0.9717    0.7659    2.0763 C   0  0  0  0  0  0  0  0  0  0  0  0
   -0.1464    0.3981    0.8779 C   0  0  0  0  0  0  0  0  0  0  0  0
    1.1885    0.5316    0.8944 N   0  0  0  0  0  0  0  0  0  0  0  0
    1.9146    0.1908   -0.2062 C   0  0  0  0  0  0  0  0  0  0  0  0
    3.3284    0.3361   -0.1782 N   0  0  0  0  0  0  0  0  0  0  0  0
    4.1092    0.8257    0.9356 C   0  0  0  0  0  0  0  0  0  0  0  0
    5.3170   -0.0823    0.8993 C   0  0  0  0  0  0  0  0  0  0  0  0
    5.5639   -0.2473   -0.5731 C   0  0  2  0  0  0  0  0  0  0  0  0
    6.5631    0.6073   -0.9757 O   0  0  0  0  0  0  0  0  0  0  0  0
    4.2355    0.0239   -1.2482 C   0  0  0  0  0  0  0  0  0  0  0  0
    1.3013   -0.2927   -1.3466 C   0  0  0  0  0  0  0  0  0  0  0  0
   -0.0678   -0.4317   -1.3690 C   0  0  0  0  0  0  0  0  0  0  0  0
   -0.7749   -0.0830   -0.2521 C   0  0  0  0  0  0  0  0  0  0  0  0
   -2.2204   -0.2130   -0.2306 C   0  0  0  0  0  0  0  0  0  0  0  0
   -2.9769    0.8597   -0.6424 C   0  0  0  0  0  0  0  0  0  0  0  0
   -4.3539    0.7961   -0.6443 C   0  0  0  0  0  0  0  0  0  0  0  0
   -5.1321    1.9756   -1.0960 C   0  0  0  0  0  0  0  0  0  0  0  0
   -6.1794    1.5505   -1.8872 F   0  0  0  0  0  0  0  0  0  0  0  0
   -4.3282    2.8236   -1.8393 F   0  0  0  0  0  0  0  0  0  0  0  0
   -5.5894    2.6941    0.0147 F   0  0  0  0  0  0  0  0  0  0  0  0
   -4.9876   -0.3392   -0.2349 C   0  0  0  0  0  0  0  0  0  0  0  0
   -4.2645   -1.4317    0.1836 C   0  0  0  0  0  0  0  0  0  0  0  0
   -4.6135   -2.6467    0.6277 N   0  0  0  0  0  0  0  0  0  0  0  0
   -3.5102   -3.3464    0.9076 N   0  0  0  0  0  0  0  0  0  0  0  0
   -2.4298   -2.5568    0.6348 C   0  0  0  0  0  0  0  0  0  0  0  0
   -2.8769   -1.3487    0.1785 C   0  0  0  0  0  0  0  0  0  0  0  0
   -1.4260    1.7694    1.9379 H   0  0  0  0  0  0  0  0  0  0  0  0
   -0.3543    0.7020    2.9874 H   0  0  0  0  0  0  0  0  0  0  0  0
   -1.7708   -0.0005    2.1555 H   0  0  0  0  0  0  0  0  0  0  0  0
    4.4379    1.8674    0.8208 H   0  0  0  0  0  0  0  0  0  0  0  0
    3.5590    0.7057    1.9056 H   0  0  0  0  0  0  0  0  0  0  0  0
    6.1487    0.4453    1.4229 H   0  0  0  0  0  0  0  0  0  0  0  0
    5.0801   -1.0490    1.3938 H   0  0  0  0  0  0  0  0  0  0  0  0
    5.9083   -1.2973   -0.7616 H   0  0  0  0  0  0  0  0  0  0  0  0
    6.2051    1.2590   -1.6141 H   0  0  0  0  0  0  0  0  0  0  0  0
    4.4031    0.9152   -1.9053 H   0  0  0  0  0  0  0  0  0  0  0  0
    3.9206   -0.8324   -1.8695 H   0  0  0  0  0  0  0  0  0  0  0  0
    1.9024   -0.5499   -2.1907 H   0  0  0  0  0  0  0  0  0  0  0  0
   -0.5524   -0.8074   -2.2532 H   0  0  0  0  0  0  0  0  0  0  0  0
   -2.5161    1.7780   -0.9744 H   0  0  0  0  0  0  0  0  0  0  0  0
   -6.0875   -0.3686   -0.2444 H   0  0  0  0  0  0  0  0  0  0  0  0
   -5.5649   -3.0477    0.7588 H   0  0  0  0  0  0  0  0  0  0  0  0
   -1.3909   -2.8489    0.7623 H   0  0  0  0  0  0  0  0  0  0  0  0
  1  2  1  0
  2  3  2  0
  3  4  1  0
  4  5  1  0
  5  6  1  0
  6  7  1  0
  7  8  1  0
  8  9  1  0
  8 10  1  0
  4 11  2  0
 11 12  1  0
 12 13  2  0
 13 14  1  0
 14 15  2  0
 15 16  1  0
 16 17  1  0
 17 18  1  0
 17 19  1  0
 17 20  1  0
 16 21  2  0
 21 22  1  0
 22 23  1  0
 23 24  1  0
 24 25  2  0
 25 26  1  0
 13  2  1  0
 26 14  1  0
 10  5  1  0
 26 22  2  0
  1 27  1  0
  1 28  1  0
  1 29  1  0
  6 30  1  0
  6 31  1  0
  7 32  1  0
  7 33  1  0
  8 34  1  1
  9 35  1  0
 10 36  1  0
 10 37  1  0
 11 38  1  0
 12 39  1  0
 15 40  1  0
 21 41  1  0
 23 42  1  0
 25 43  1  0
M  END
$$$$
