
     RDKit          3D

 52 55  0  0  0  0  0  0  0  0999 V2000
   -3.4255    4.4940    0.7789 C   0  0  0  0  0  0  0  0  0  0  0  0
   -2.8699    3.1256    0.6151 C   0  0  0  0  0  0  0  0  0  0  0  0
   -2.2492    2.4572    1.6640 C   0  0  0  0  0  0  0  0  0  0  0  0
   -1.7573    1.1926    1.4434 C   0  0  0  0  0  0  0  0  0  0  0  0
   -1.8341    0.5301    0.2467 C   0  0  0  0  0  0  0  0  0  0  0  0
   -1.3121   -0.8185    0.0030 C   0  0  0  0  0  0  0  0  0  0  0  0
   -2.1218   -1.7651    0.8902 C   0  0  0  0  0  0  0  0  0  0  0  0
   -1.5813   -3.1833    0.8075 C   0  0  0  0  0  0  0  0  0  0  0  0
   -1.4857   -3.5407   -0.6524 C   0  0  0  0  0  0  0  0  0  0  0  0
   -0.1143   -3.0633   -1.0369 C   0  0  0  0  0  0  0  0  0  0  0  0
    0.4636   -2.4759    0.2434 C   0  0  0  0  0  0  0  0  0  0  0  0
    0.1276   -0.9972    0.3721 C   0  0  0  0  0  0  0  0  0  0  0  0
    1.0582   -0.3167   -0.5641 C   0  0  0  0  0  0  0  0  0  0  0  0
    1.9915    0.6020   -0.1282 C   0  0  0  0  0  0  0  0  0  0  0  0
    2.6780    1.0307   -1.2458 C   0  0  0  0  0  0  0  0  0  0  0  0
    3.7698    2.0260   -1.1980 C   0  0  0  0  0  0  0  0  0  0  0  0
    3.3394    3.3042   -0.5097 C   0  0  0  0  0  0  0  0  0  0  0  0
    4.9220    1.4606   -0.3571 C   0  0  0  0  0  0  0  0  0  0  0  0
    2.1427    0.3699   -2.2749 N   0  0  0  0  0  0  0  0  0  0  0  0
    1.1876   -0.4195   -1.8439 O   0  0  0  0  0  0  0  0  0  0  0  0
   -0.2322   -3.1535    1.3181 N   0  0  0  0  0  0  0  0  0  0  0  0
    0.3164   -4.4747    1.5265 C   0  0  0  0  0  0  0  0  0  0  0  0
   -2.4570    1.2081   -0.7954 C   0  0  0  0  0  0  0  0  0  0  0  0
   -2.9600    2.4795   -0.6008 C   0  0  0  0  0  0  0  0  0  0  0  0
   -2.7505    5.1207    1.3942 H   0  0  0  0  0  0  0  0  0  0  0  0
   -3.5830    4.9246   -0.2302 H   0  0  0  0  0  0  0  0  0  0  0  0
   -4.4362    4.3703    1.2527 H   0  0  0  0  0  0  0  0  0  0  0  0
   -2.1693    2.9433    2.6180 H   0  0  0  0  0  0  0  0  0  0  0  0
   -1.2824    0.6928    2.2623 H   0  0  0  0  0  0  0  0  0  0  0  0
   -1.4927   -1.1327   -1.0311 H   0  0  0  0  0  0  0  0  0  0  0  0
   -1.9785   -1.3862    1.9339 H   0  0  0  0  0  0  0  0  0  0  0  0
   -3.1760   -1.8098    0.5891 H   0  0  0  0  0  0  0  0  0  0  0  0
   -2.2577   -3.8239    1.3798 H   0  0  0  0  0  0  0  0  0  0  0  0
   -1.6193   -4.6308   -0.8276 H   0  0  0  0  0  0  0  0  0  0  0  0
   -2.2927   -3.0148   -1.2071 H   0  0  0  0  0  0  0  0  0  0  0  0
   -0.1044   -2.3677   -1.8734 H   0  0  0  0  0  0  0  0  0  0  0  0
    0.4806   -3.9555   -1.3434 H   0  0  0  0  0  0  0  0  0  0  0  0
    1.5632   -2.6352    0.3078 H   0  0  0  0  0  0  0  0  0  0  0  0
    0.2620   -0.6976    1.4104 H   0  0  0  0  0  0  0  0  0  0  0  0
    2.1636    0.9350    0.9046 H   0  0  0  0  0  0  0  0  0  0  0  0
    4.1970    2.2428   -2.1845 H   0  0  0  0  0  0  0  0  0  0  0  0
    2.9744    3.0171    0.4989 H   0  0  0  0  0  0  0  0  0  0  0  0
    4.2665    3.9119   -0.3619 H   0  0  0  0  0  0  0  0  0  0  0  0
    2.6029    3.8814   -1.0935 H   0  0  0  0  0  0  0  0  0  0  0  0
    5.2324    0.4654   -0.7878 H   0  0  0  0  0  0  0  0  0  0  0  0
    5.7713    2.1662   -0.4590 H   0  0  0  0  0  0  0  0  0  0  0  0
    4.5809    1.3755    0.6858 H   0  0  0  0  0  0  0  0  0  0  0  0
    1.3909   -4.4373    1.2008 H   0  0  0  0  0  0  0  0  0  0  0  0
   -0.2324   -5.2679    1.0212 H   0  0  0  0  0  0  0  0  0  0  0  0
    0.2999   -4.6953    2.6171 H   0  0  0  0  0  0  0  0  0  0  0  0
   -2.5626    0.7581   -1.7810 H   0  0  0  0  0  0  0  0  0  0  0  0
   -3.4444    2.9779   -1.4528 H   0  0  0  0  0  0  0  0  0  0  0  0
  1  2  1  0
  2  3  2  0
  3  4  1  0
  4  5  2  0
  5  6  1  0
  6  7  1  0
  7  8  1  0
  8  9  1  0
  9 10  1  0
 10 11  1  0
 11 12  1  0
 12 13  1  0
 13 14  2  0
 14 15  1  0
 15 16  1  0
 16 17  1  0
 16 18  1  0
 15 19  2  0
 19 20  1  0
 11 21  1  0
 21 22  1  0
  5 23  1  0
 23 24  2  0
 24  2  1  0
 12  6  1  0
 20 13  1  0
 21  8  1  0
  1 25  1  0
  1 26  1  0
  1 27  1  0
  3 28  1  0
  4 29  1  0
  6 30  1  0
  7 31  1  0
  7 32  1  0
  8 33  1  0
  9 34  1  0
  9 35  1  0
 10 36  1  0
 10 37  1  0
 11 38  1  0
 12 39  1  0
 14 40  1  0
 16 41  1  0
 17 42  1  0
 17 43  1  0
 17 44  1  0
 18 45  1  0
 18 46  1  0
 18 47  1  0
 22 48  1  0
 22 49  1  0
 22 50  1  0
 23 51  1  0
 24 52  1  0
M  END
$$$$
