
     RDKit          3D

 56 61  0  0  0  0  0  0  0  0999 V2000
    6.7429   -1.1692    0.0182 C   0  0  0  0  0  0  0  0  0  0  0  0
    5.3167   -1.0964    0.5101 N   0  0  0  0  0  0  0  0  0  0  0  0
    5.1561   -0.8510    1.9023 C   0  0  0  0  0  0  0  0  0  0  0  0
    4.3254   -1.2720   -0.4423 C   0  0  0  0  0  0  0  0  0  0  0  0
    4.7405   -1.4760   -1.6728 O   0  0  0  0  0  0  0  0  0  0  0  0
    2.9535   -1.2655   -0.3041 N   0  0  0  0  0  0  0  0  0  0  0  0
    2.3503   -1.0870    0.9729 C   0  0  0  0  0  0  0  0  0  0  0  0
    0.8353   -1.4259    0.9865 C   0  0  0  0  0  0  0  0  0  0  0  0
    0.1679   -0.2870    0.3790 N   0  0  0  0  0  0  0  0  0  0  0  0
   -0.7883    0.4726    0.9374 C   0  0  0  0  0  0  0  0  0  0  0  0
   -1.1873    1.4791    0.0331 C   0  0  0  0  0  0  0  0  0  0  0  0
   -2.2122    2.4889    0.2807 C   0  0  0  0  0  0  0  0  0  0  0  0
   -3.4020    2.2415    0.8214 C   0  0  0  0  0  0  0  0  0  0  0  0
   -3.8786    0.9376    1.2469 C   0  0  0  0  0  0  0  0  0  0  0  0
   -4.3882    0.6440    2.4937 C   0  0  0  0  0  0  0  0  0  0  0  0
   -4.7411   -0.6249    2.5044 N   0  0  0  0  0  0  0  0  0  0  0  0
   -4.4838   -1.1754    1.3146 C   0  0  0  0  0  0  0  0  0  0  0  0
   -4.7045   -2.4656    0.8910 C   0  0  0  0  0  0  0  0  0  0  0  0
   -4.3788   -2.8275   -0.3867 C   0  0  0  0  0  0  0  0  0  0  0  0
   -3.8364   -1.8513   -1.1894 C   0  0  0  0  0  0  0  0  0  0  0  0
   -3.6258   -0.5539   -0.7278 C   0  0  0  0  0  0  0  0  0  0  0  0
   -3.9544   -0.2164    0.5424 N   0  0  0  0  0  0  0  0  0  0  0  0
   -4.1497    3.5184    0.9224 C   0  0  0  0  0  0  0  0  0  0  0  0
   -5.3069    3.6451    1.3861 O   0  0  0  0  0  0  0  0  0  0  0  0
   -3.3372    4.5677    0.4077 N   0  0  0  0  0  0  0  0  0  0  0  0
   -2.1367    3.9184    0.0126 C   0  0  0  0  0  0  0  0  0  0  0  0
   -1.1519    4.4977   -0.4944 O   0  0  0  0  0  0  0  0  0  0  0  0
   -0.4099    1.2588   -1.0794 C   0  0  0  0  0  0  0  0  0  0  0  0
   -0.3209    1.8886   -2.3098 C   0  0  0  0  0  0  0  0  0  0  0  0
    0.5626    1.4518   -3.2788 C   0  0  0  0  0  0  0  0  0  0  0  0
    1.3754    0.3503   -2.9938 C   0  0  0  0  0  0  0  0  0  0  0  0
    1.3120   -0.2924   -1.7926 C   0  0  0  0  0  0  0  0  0  0  0  0
    0.4155    0.1818   -0.8640 C   0  0  0  0  0  0  0  0  0  0  0  0
    2.2403   -1.4361   -1.6104 C   0  0  0  0  0  0  0  0  0  0  0  0
    6.7428   -1.1321   -1.0683 H   0  0  0  0  0  0  0  0  0  0  0  0
    7.2567   -0.3161    0.4582 H   0  0  0  0  0  0  0  0  0  0  0  0
    7.1865   -2.1119    0.3640 H   0  0  0  0  0  0  0  0  0  0  0  0
    4.9708   -1.8040    2.4468 H   0  0  0  0  0  0  0  0  0  0  0  0
    4.4537   -0.0658    2.1539 H   0  0  0  0  0  0  0  0  0  0  0  0
    6.1810   -0.4952    2.3055 H   0  0  0  0  0  0  0  0  0  0  0  0
    2.8090   -1.6529    1.7813 H   0  0  0  0  0  0  0  0  0  0  0  0
    2.3576    0.0035    1.2436 H   0  0  0  0  0  0  0  0  0  0  0  0
    0.5039   -1.5607    2.0176 H   0  0  0  0  0  0  0  0  0  0  0  0
    0.7525   -2.3496    0.3795 H   0  0  0  0  0  0  0  0  0  0  0  0
   -1.2128    0.3612    1.9218 H   0  0  0  0  0  0  0  0  0  0  0  0
   -4.4793    1.3612    3.3313 H   0  0  0  0  0  0  0  0  0  0  0  0
   -5.1368   -3.1809    1.5889 H   0  0  0  0  0  0  0  0  0  0  0  0
   -4.5534   -3.8345   -0.7030 H   0  0  0  0  0  0  0  0  0  0  0  0
   -3.5712   -2.1068   -2.1973 H   0  0  0  0  0  0  0  0  0  0  0  0
   -3.2103    0.2031   -1.3883 H   0  0  0  0  0  0  0  0  0  0  0  0
   -3.5264    5.5838    0.3176 H   0  0  0  0  0  0  0  0  0  0  0  0
   -0.9644    2.7367   -2.5168 H   0  0  0  0  0  0  0  0  0  0  0  0
    0.5932    1.9759   -4.2189 H   0  0  0  0  0  0  0  0  0  0  0  0
    2.0650    0.0106   -3.7510 H   0  0  0  0  0  0  0  0  0  0  0  0
    1.6729   -2.3623   -1.4952 H   0  0  0  0  0  0  0  0  0  0  0  0
    3.0091   -1.4320   -2.3882 H   0  0  0  0  0  0  0  0  0  0  0  0
  1  2  1  0
  2  3  1  0
  2  4  1  0
  4  5  2  0
  4  6  1  0
  6  7  1  0
  7  8  1  0
  8  9  1  0
  9 10  1  0
 10 11  2  0
 11 12  1  0
 12 13  2  0
 13 14  1  0
 14 15  2  0
 15 16  1  0
 16 17  2  0
 17 18  1  0
 18 19  2  0
 19 20  1  0
 20 21  2  0
 21 22  1  0
 13 23  1  0
 23 24  2  0
 23 25  1  0
 25 26  1  0
 26 27  2  0
 11 28  1  0
 28 29  2  0
 29 30  1  0
 30 31  2  0
 31 32  1  0
 32 33  2  0
 32 34  1  0
 34  6  1  0
 33  9  1  0
 26 12  1  0
 33 28  1  0
 22 14  1  0
 22 17  1  0
  1 35  1  0
  1 36  1  0
  1 37  1  0
  3 38  1  0
  3 39  1  0
  3 40  1  0
  7 41  1  0
  7 42  1  0
  8 43  1  0
  8 44  1  0
 10 45  1  0
 15 46  1  0
 18 47  1  0
 19 48  1  0
 20 49  1  0
 21 50  1  0
 25 51  1  0
 29 52  1  0
 30 53  1  0
 31 54  1  0
 34 55  1  0
 34 56  1  0
M  END
$$$$
