
     RDKit          3D

 25 25  0  0  0  0  0  0  0  0999 V2000
   -1.3975    0.0587    0.5898 C   0  0  1  0  0  0  0  0  0  0  0  0
   -2.8335   -0.4535    0.4226 C   0  0  0  0  0  0  0  0  0  0  0  0
   -2.7756   -2.2299    0.7378 S   0  0  0  0  0  0  0  0  0  0  0  0
   -0.5743   -0.6772   -0.4203 C   0  0  0  0  0  0  0  0  0  0  0  0
    0.8632   -0.3187   -0.4187 C   0  0  0  0  0  0  0  0  0  0  0  0
    1.4243    0.6884   -1.1781 C   0  0  0  0  0  0  0  0  0  0  0  0
    2.7699    0.9950   -1.1512 C   0  0  0  0  0  0  0  0  0  0  0  0
    3.5987    0.2436   -0.3106 C   0  0  0  0  0  0  0  0  0  0  0  0
    3.0606   -0.7804    0.4685 C   0  0  0  0  0  0  0  0  0  0  0  0
    1.7147   -1.0552    0.4137 C   0  0  0  0  0  0  0  0  0  0  0  0
   -1.3579    1.5307    0.4281 C   0  0  0  0  0  0  0  0  0  0  0  0
   -1.7834    2.0792   -0.7867 O   0  0  0  0  0  0  0  0  0  0  0  0
   -0.9952    2.4720    1.2098 O   0  0  0  0  0  0  0  0  0  0  0  0
   -1.0973   -0.2218    1.6199 H   0  0  0  0  0  0  0  0  0  0  0  0
   -3.1333   -0.2703   -0.6325 H   0  0  0  0  0  0  0  0  0  0  0  0
   -3.5297    0.0580    1.1182 H   0  0  0  0  0  0  0  0  0  0  0  0
   -3.4873   -2.9711   -0.2168 H   0  0  0  0  0  0  0  0  0  0  0  0
   -0.6796   -1.7571   -0.1893 H   0  0  0  0  0  0  0  0  0  0  0  0
   -1.0181   -0.5332   -1.4263 H   0  0  0  0  0  0  0  0  0  0  0  0
    0.7674    1.2628   -1.8258 H   0  0  0  0  0  0  0  0  0  0  0  0
    3.2081    1.7744   -1.7379 H   0  0  0  0  0  0  0  0  0  0  0  0
    4.6572    0.4082   -0.2224 H   0  0  0  0  0  0  0  0  0  0  0  0
    3.6471   -1.3991    1.1396 H   0  0  0  0  0  0  0  0  0  0  0  0
    1.2797   -1.8585    1.0222 H   0  0  0  0  0  0  0  0  0  0  0  0
   -2.3281    2.9550   -0.8153 H   0  0  0  0  0  0  0  0  0  0  0  0
  1  2  1  0
  2  3  1  0
  1  4  1  0
  4  5  1  0
  5  6  2  0
  6  7  1  0
  7  8  2  0
  8  9  1  0
  9 10  2  0
  1 11  1  0
 11 12  1  0
 11 13  2  0
 10  5  1  0
  1 14  1  1
  2 15  1  0
  2 16  1  0
  3 17  1  0
  4 18  1  0
  4 19  1  0
  6 20  1  0
  7 21  1  0
  8 22  1  0
  9 23  1  0
 10 24  1  0
 12 25  1  0
M  END
$$$$
