
     RDKit          3D

 38 39  0  0  0  0  0  0  0  0999 V2000
    1.6228    4.2785    0.8178 C   0  0  0  0  0  0  0  0  0  0  0  0
    2.0225    3.5913   -0.3299 O   0  0  0  0  0  0  0  0  0  0  0  0
    1.9907    2.2157   -0.4897 C   0  0  0  0  0  0  0  0  0  0  0  0
    2.4002    1.6121   -1.6474 C   0  0  0  0  0  0  0  0  0  0  0  0
    2.3739    0.2476   -1.8200 C   0  0  0  0  0  0  0  0  0  0  0  0
    1.9139   -0.5535   -0.7798 C   0  0  0  0  0  0  0  0  0  0  0  0
    1.8752   -1.9292   -0.9221 O   0  0  0  0  0  0  0  0  0  0  0  0
    2.2871   -2.5834   -2.0935 C   0  0  0  0  0  0  0  0  0  0  0  0
    1.4939    0.0198    0.3999 C   0  0  0  0  0  0  0  0  0  0  0  0
    0.9217   -0.9665    1.7075 S   0  0  0  0  0  6  0  0  0  0  0  0
    0.5151   -0.1213    2.8999 O   0  0  0  0  0  0  0  0  0  0  0  0
    2.0419   -1.8522    2.2251 O   0  0  0  0  0  0  0  0  0  0  0  0
   -0.4580   -1.9197    1.2937 N   0  0  0  0  0  0  0  0  0  0  0  0
   -1.5081   -1.0325    0.9479 C   0  0  2  0  0  0  0  0  0  0  0  0
   -2.7669   -1.2230    1.7739 C   0  0  0  0  0  0  0  0  0  0  0  0
   -3.7351   -0.3672    0.9849 C   0  0  0  0  0  0  0  0  0  0  0  0
   -3.2545   -0.4298   -0.4055 N   0  0  0  0  0  0  0  0  0  0  0  0
   -3.8801    0.2163   -1.4396 C   0  0  0  0  0  0  0  0  0  0  0  0
   -4.4188    0.7989   -2.3523 N   0  0  0  0  0  0  0  0  0  0  0  0
   -2.0637   -1.2599   -0.4508 C   0  0  0  0  0  0  0  0  0  0  0  0
    1.5381    1.3796    0.5257 C   0  0  0  0  0  0  0  0  0  0  0  0
    1.8091    3.7257    1.7611 H   0  0  0  0  0  0  0  0  0  0  0  0
    2.1934    5.2371    0.9279 H   0  0  0  0  0  0  0  0  0  0  0  0
    0.5345    4.5266    0.7798 H   0  0  0  0  0  0  0  0  0  0  0  0
    2.7544    2.2643   -2.4420 H   0  0  0  0  0  0  0  0  0  0  0  0
    2.7099   -0.1648   -2.7552 H   0  0  0  0  0  0  0  0  0  0  0  0
    3.3105   -2.2536   -2.4036 H   0  0  0  0  0  0  0  0  0  0  0  0
    1.5678   -2.4581   -2.9261 H   0  0  0  0  0  0  0  0  0  0  0  0
    2.3532   -3.6751   -1.9028 H   0  0  0  0  0  0  0  0  0  0  0  0
   -0.2337   -2.6225    0.5394 H   0  0  0  0  0  0  0  0  0  0  0  0
   -1.2391    0.0402    1.0101 H   0  0  0  0  0  0  0  0  0  0  0  0
   -2.6563   -0.9125    2.8147 H   0  0  0  0  0  0  0  0  0  0  0  0
   -3.1204   -2.2762    1.6556 H   0  0  0  0  0  0  0  0  0  0  0  0
   -3.6095    0.6735    1.3477 H   0  0  0  0  0  0  0  0  0  0  0  0
   -4.7799   -0.7248    1.0564 H   0  0  0  0  0  0  0  0  0  0  0  0
   -1.3579   -0.9692   -1.2303 H   0  0  0  0  0  0  0  0  0  0  0  0
   -2.3572   -2.3452   -0.5227 H   0  0  0  0  0  0  0  0  0  0  0  0
    1.2095    1.8126    1.4444 H   0  0  0  0  0  0  0  0  0  0  0  0
  1  2  1  0
  2  3  1  0
  3  4  2  0
  4  5  1  0
  5  6  2  0
  6  7  1  0
  7  8  1  0
  6  9  1  0
  9 10  1  0
 10 11  2  0
 10 12  2  0
 10 13  1  0
 13 14  1  0
 14 15  1  0
 15 16  1  0
 16 17  1  0
 17 18  1  0
 18 19  3  0
 17 20  1  0
  9 21  2  0
 21  3  1  0
 20 14  1  0
  1 22  1  0
  1 23  1  0
  1 24  1  0
  4 25  1  0
  5 26  1  0
  8 27  1  0
  8 28  1  0
  8 29  1  0
 13 30  1  0
 14 31  1  6
 15 32  1  0
 15 33  1  0
 16 34  1  0
 16 35  1  0
 20 36  1  0
 20 37  1  0
 21 38  1  0
M  END
$$$$
