
     RDKit          3D

 49 51  0  0  0  0  0  0  0  0999 V2000
    1.4416    2.9242    2.3906 C   0  0  0  0  0  0  0  0  0  0  0  0
    2.1438    2.1088    1.4838 O   0  0  0  0  0  0  0  0  0  0  0  0
    1.4991    1.2451    0.6071 C   0  0  0  0  0  0  0  0  0  0  0  0
    0.1203    1.1855    0.6264 C   0  0  0  0  0  0  0  0  0  0  0  0
   -0.5941    0.3564   -0.2096 C   0  0  0  0  0  0  0  0  0  0  0  0
   -2.0351    0.3114   -0.1711 C   0  0  0  0  0  0  0  0  0  0  0  0
   -2.8703    1.0951   -0.9097 C   0  0  0  0  0  0  0  0  0  0  0  0
   -4.2114    1.0314   -0.8514 N   0  0  0  0  0  0  0  0  0  0  0  0
   -5.0444    1.9056   -1.6742 C   0  0  0  0  0  0  0  0  0  0  0  0
   -4.7889    0.1475   -0.0201 C   0  0  0  0  0  0  0  0  0  0  0  0
   -6.0417    0.0406    0.0789 O   0  0  0  0  0  0  0  0  0  0  0  0
   -3.9803   -0.6811    0.7609 C   0  0  0  0  0  0  0  0  0  0  0  0
   -4.5566   -1.6045    1.6300 C   0  0  0  0  0  0  0  0  0  0  0  0
   -3.7785   -2.4029    2.3831 N   0  0  0  0  0  0  0  0  0  0  0  0
   -2.4351   -2.3279    2.3141 C   0  0  0  0  0  0  0  0  0  0  0  0
   -1.8105   -1.4385    1.4768 C   0  0  0  0  0  0  0  0  0  0  0  0
   -2.6071   -0.6166    0.7018 C   0  0  0  0  0  0  0  0  0  0  0  0
    0.1063   -0.4443   -1.1003 C   0  0  0  0  0  0  0  0  0  0  0  0
   -0.5475   -1.3061   -1.9746 O   0  0  0  0  0  0  0  0  0  0  0  0
    0.2306   -2.0907   -2.8537 C   0  0  0  0  0  0  0  0  0  0  0  0
    1.4763   -0.3662   -1.0995 C   0  0  0  0  0  0  0  0  0  0  0  0
    2.2076    0.4547   -0.2731 C   0  0  0  0  0  0  0  0  0  0  0  0
    3.6729    0.5522   -0.2580 C   0  0  0  0  0  0  0  0  0  0  0  0
    4.2753   -0.1277    0.8684 N   0  0  0  0  0  0  0  0  0  0  0  0
    3.9623   -1.5461    0.8798 C   0  0  0  0  0  0  0  0  0  0  0  0
    5.7245    0.0078    0.6825 C   0  0  0  0  0  0  0  0  0  0  0  0
    0.7704    3.6425    1.8973 H   0  0  0  0  0  0  0  0  0  0  0  0
    0.8934    2.2479    3.0774 H   0  0  0  0  0  0  0  0  0  0  0  0
    2.1926    3.5225    2.9566 H   0  0  0  0  0  0  0  0  0  0  0  0
   -0.4035    1.8221    1.3315 H   0  0  0  0  0  0  0  0  0  0  0  0
   -2.4079    1.8220   -1.5931 H   0  0  0  0  0  0  0  0  0  0  0  0
   -4.9558    1.5548   -2.7218 H   0  0  0  0  0  0  0  0  0  0  0  0
   -6.0898    1.8767   -1.3649 H   0  0  0  0  0  0  0  0  0  0  0  0
   -4.7116    2.9607   -1.6240 H   0  0  0  0  0  0  0  0  0  0  0  0
   -5.6349   -1.6643    1.6848 H   0  0  0  0  0  0  0  0  0  0  0  0
   -1.8062   -2.9715    2.9213 H   0  0  0  0  0  0  0  0  0  0  0  0
   -0.7338   -1.3490    1.3935 H   0  0  0  0  0  0  0  0  0  0  0  0
    0.8156   -2.8809   -2.3056 H   0  0  0  0  0  0  0  0  0  0  0  0
    0.9640   -1.4906   -3.4351 H   0  0  0  0  0  0  0  0  0  0  0  0
   -0.4201   -2.5804   -3.6294 H   0  0  0  0  0  0  0  0  0  0  0  0
    2.0465   -0.9811   -1.7851 H   0  0  0  0  0  0  0  0  0  0  0  0
    4.0689    0.0831   -1.1749 H   0  0  0  0  0  0  0  0  0  0  0  0
    3.9499    1.6259   -0.1660 H   0  0  0  0  0  0  0  0  0  0  0  0
    3.7051   -1.9100   -0.1360 H   0  0  0  0  0  0  0  0  0  0  0  0
    4.8378   -2.1428    1.2701 H   0  0  0  0  0  0  0  0  0  0  0  0
    3.1334   -1.7736    1.6047 H   0  0  0  0  0  0  0  0  0  0  0  0
    6.0376    1.0660    0.8643 H   0  0  0  0  0  0  0  0  0  0  0  0
    6.2823   -0.7097    1.3052 H   0  0  0  0  0  0  0  0  0  0  0  0
    5.9070   -0.1841   -0.3947 H   0  0  0  0  0  0  0  0  0  0  0  0
  1  2  1  0
  2  3  1  0
  3  4  2  0
  4  5  1  0
  5  6  1  0
  6  7  2  0
  7  8  1  0
  8  9  1  0
  8 10  1  0
 10 11  2  0
 10 12  1  0
 12 13  2  0
 13 14  1  0
 14 15  2  0
 15 16  1  0
 16 17  2  0
  5 18  2  0
 18 19  1  0
 19 20  1  0
 18 21  1  0
 21 22  2  0
 22 23  1  0
 23 24  1  0
 24 25  1  0
 24 26  1  0
 22  3  1  0
 17  6  1  0
 17 12  1  0
  1 27  1  0
  1 28  1  0
  1 29  1  0
  4 30  1  0
  7 31  1  0
  9 32  1  0
  9 33  1  0
  9 34  1  0
 13 35  1  0
 15 36  1  0
 16 37  1  0
 20 38  1  0
 20 39  1  0
 20 40  1  0
 21 41  1  0
 23 42  1  0
 23 43  1  0
 25 44  1  0
 25 45  1  0
 25 46  1  0
 26 47  1  0
 26 48  1  0
 26 49  1  0
M  END
$$$$
