
     RDKit          3D

 56 59  0  0  0  0  0  0  0  0999 V2000
   -4.3945    3.9241    0.7914 O   0  0  0  0  0  0  0  0  0  0  0  0
   -4.3695    2.5636    1.1844 C   0  0  1  0  0  0  0  0  0  0  0  0
   -4.8304    1.7697    0.0167 C   0  0  0  0  0  0  0  0  0  0  0  0
   -4.2941    0.3445    0.2125 C   0  0  0  0  0  0  0  0  0  0  0  0
   -2.8307    0.4428   -0.0456 C   0  0  2  0  0  0  0  0  0  0  0  0
   -2.2309   -0.9071   -0.0320 N   0  0  0  0  0  0  0  0  0  0  0  0
   -0.8499   -1.0643   -0.2553 C   0  0  0  0  0  0  0  0  0  0  0  0
   -0.0984    0.0807   -0.4826 N   0  0  0  0  0  0  0  0  0  0  0  0
    1.2116    0.0073   -0.7014 C   0  0  0  0  0  0  0  0  0  0  0  0
    1.9673    1.2019   -0.9336 N   0  0  0  0  0  0  0  0  0  0  0  0
    3.3965    1.1614   -1.1759 C   0  0  0  0  0  0  0  0  0  0  0  0
    4.0323    0.5425    0.0333 C   0  0  0  0  0  0  0  0  0  0  0  0
    4.8607    1.5908    0.7891 C   0  0  0  0  0  0  0  0  0  0  0  0
    5.9555    1.9792   -0.1921 C   0  0  0  0  0  0  0  0  0  0  0  0
    5.3385    2.7677   -1.3072 C   0  0  0  0  0  0  0  0  0  0  0  0
    3.8941    2.4962   -1.5418 C   0  0  0  0  0  0  0  0  0  0  0  0
    1.7789   -1.1803   -0.6970 N   0  0  0  0  0  0  0  0  0  0  0  0
    1.1024   -2.3442   -0.4809 C   0  0  0  0  0  0  0  0  0  0  0  0
   -0.2629   -2.3006   -0.2501 C   0  0  0  0  0  0  0  0  0  0  0  0
   -0.9996   -3.5463   -0.0167 C   0  0  0  0  0  0  0  0  0  0  0  0
   -0.3178   -4.7590   -0.0297 C   0  0  0  0  0  0  0  0  0  0  0  0
   -0.9693   -5.9815    0.1871 C   0  0  0  0  0  0  0  0  0  0  0  0
   -2.3162   -6.0080    0.4207 C   0  0  0  0  0  0  0  0  0  0  0  0
   -2.9556   -4.7823    0.4254 C   0  0  0  0  0  0  0  0  0  0  0  0
   -2.2997   -3.6387    0.2145 N   0  0  0  0  0  0  0  0  0  0  0  0
   -2.1674    1.3417    0.9319 C   0  0  0  0  0  0  0  0  0  0  0  0
   -3.0535    2.2107    1.7417 C   0  0  0  0  0  0  0  0  0  0  0  0
   -4.5229    4.0272   -0.1719 H   0  0  0  0  0  0  0  0  0  0  0  0
   -5.1814    2.4993    1.9694 H   0  0  0  0  0  0  0  0  0  0  0  0
   -4.3362    2.1612   -0.9110 H   0  0  0  0  0  0  0  0  0  0  0  0
   -5.9157    1.7982   -0.0641 H   0  0  0  0  0  0  0  0  0  0  0  0
   -4.8174   -0.3608   -0.4536 H   0  0  0  0  0  0  0  0  0  0  0  0
   -4.4362    0.0946    1.2927 H   0  0  0  0  0  0  0  0  0  0  0  0
   -2.7117    0.8481   -1.0928 H   0  0  0  0  0  0  0  0  0  0  0  0
   -2.8769   -1.6626    0.1440 H   0  0  0  0  0  0  0  0  0  0  0  0
    1.5058    2.1384   -0.9341 H   0  0  0  0  0  0  0  0  0  0  0  0
    3.5299    0.4289   -2.0271 H   0  0  0  0  0  0  0  0  0  0  0  0
    3.3120    0.0954    0.7415 H   0  0  0  0  0  0  0  0  0  0  0  0
    4.7517   -0.2414   -0.2697 H   0  0  0  0  0  0  0  0  0  0  0  0
    5.3233    1.0982    1.6696 H   0  0  0  0  0  0  0  0  0  0  0  0
    4.2067    2.4261    1.0572 H   0  0  0  0  0  0  0  0  0  0  0  0
    6.7505    2.5256    0.3508 H   0  0  0  0  0  0  0  0  0  0  0  0
    6.3253    1.0200   -0.6399 H   0  0  0  0  0  0  0  0  0  0  0  0
    5.9471    2.5783   -2.2298 H   0  0  0  0  0  0  0  0  0  0  0  0
    5.4854    3.8446   -1.0701 H   0  0  0  0  0  0  0  0  0  0  0  0
    3.6850    2.6757   -2.6222 H   0  0  0  0  0  0  0  0  0  0  0  0
    3.2958    3.2918   -1.0070 H   0  0  0  0  0  0  0  0  0  0  0  0
    1.6414   -3.2740   -0.4937 H   0  0  0  0  0  0  0  0  0  0  0  0
    0.7276   -4.8236   -0.2035 H   0  0  0  0  0  0  0  0  0  0  0  0
   -0.4140   -6.9150    0.1717 H   0  0  0  0  0  0  0  0  0  0  0  0
   -2.8741   -6.9213    0.5949 H   0  0  0  0  0  0  0  0  0  0  0  0
   -4.0261   -4.7787    0.6089 H   0  0  0  0  0  0  0  0  0  0  0  0
   -1.5562    0.6832    1.6180 H   0  0  0  0  0  0  0  0  0  0  0  0
   -1.4129    1.9445    0.3826 H   0  0  0  0  0  0  0  0  0  0  0  0
   -2.4949    3.1560    1.9754 H   0  0  0  0  0  0  0  0  0  0  0  0
   -3.2082    1.7296    2.7422 H   0  0  0  0  0  0  0  0  0  0  0  0
  1  2  1  0
  2  3  1  0
  3  4  1  0
  4  5  1  0
  5  6  1  0
  6  7  1  0
  7  8  2  0
  8  9  1  0
  9 10  1  0
 10 11  1  0
 11 12  1  0
 12 13  1  0
 13 14  1  0
 14 15  1  0
 15 16  1  0
  9 17  2  0
 17 18  1  0
 18 19  2  0
 19 20  1  0
 20 21  2  0
 21 22  1  0
 22 23  2  0
 23 24  1  0
 24 25  2  0
  5 26  1  0
 26 27  1  0
 27  2  1  0
 19  7  1  0
 25 20  1  0
 16 11  1  0
  1 28  1  0
  2 29  1  1
  3 30  1  0
  3 31  1  0
  4 32  1  0
  4 33  1  0
  5 34  1  6
  6 35  1  0
 10 36  1  0
 11 37  1  0
 12 38  1  0
 12 39  1  0
 13 40  1  0
 13 41  1  0
 14 42  1  0
 14 43  1  0
 15 44  1  0
 15 45  1  0
 16 46  1  0
 16 47  1  0
 18 48  1  0
 21 49  1  0
 22 50  1  0
 23 51  1  0
 24 52  1  0
 26 53  1  0
 26 54  1  0
 27 55  1  0
 27 56  1  0
M  END
$$$$
