
     RDKit          3D

 58 62  0  0  0  0  0  0  0  0999 V2000
    5.7746    2.6475    0.6931 C   0  0  0  0  0  0  0  0  0  0  0  0
    5.3961    1.4759   -0.0035 O   0  0  0  0  0  0  0  0  0  0  0  0
    4.0417    1.2292   -0.1604 C   0  0  0  0  0  0  0  0  0  0  0  0
    3.0784    2.0992    0.3469 C   0  0  0  0  0  0  0  0  0  0  0  0
    1.7460    1.8009    0.1596 C   0  0  0  0  0  0  0  0  0  0  0  0
    1.3839    0.6589   -0.5193 C   0  0  0  0  0  0  0  0  0  0  0  0
   -0.0801    0.3801   -0.6985 C   0  0  0  0  0  0  0  0  0  0  0  0
   -0.5071   -0.4235    0.4843 C   0  0  2  0  0  0  0  0  0  0  0  0
    0.2350   -1.7338    0.5991 C   0  0  0  0  0  0  0  0  0  0  0  0
   -0.4163   -2.5984    1.4347 O   0  0  0  0  0  0  0  0  0  0  0  0
   -1.1778   -2.0144    2.4152 C   0  0  0  0  0  0  0  0  0  0  0  0
   -2.3849   -1.2726    1.8241 C   0  0  0  0  0  0  0  0  0  0  0  0
   -1.9143   -0.6841    0.5865 N   0  0  0  0  0  0  0  0  0  0  0  0
   -2.8034   -0.3806   -0.4665 C   0  0  0  0  0  0  0  0  0  0  0  0
   -2.4255    0.1266   -1.5472 O   0  0  0  0  0  0  0  0  0  0  0  0
   -4.2473   -0.6648   -0.3107 C   0  0  0  0  0  0  0  0  0  0  0  0
   -4.7998   -1.8759   -0.6525 C   0  0  0  0  0  0  0  0  0  0  0  0
   -6.1641   -2.0522   -0.4649 C   0  0  0  0  0  0  0  0  0  0  0  0
   -6.9765   -1.0599    0.0489 C   0  0  0  0  0  0  0  0  0  0  0  0
   -6.3826    0.1419    0.3795 C   0  0  0  0  0  0  0  0  0  0  0  0
   -5.0171    0.3529    0.2043 C   0  0  0  0  0  0  0  0  0  0  0  0
   -4.4281    1.5979    0.5453 N   0  0  0  0  0  0  0  0  0  0  0  0
   -3.3258    1.8793    1.1707 N   0  0  0  0  0  0  0  0  0  0  0  0
   -3.1263    3.1914    1.2905 C   0  0  0  0  0  0  0  0  0  0  0  0
   -4.2100    3.7912    0.6801 C   0  0  0  0  0  0  0  0  0  0  0  0
   -4.9821    2.7826    0.2379 N   0  0  0  0  0  0  0  0  0  0  0  0
    2.3547   -0.2164   -1.0295 C   0  0  0  0  0  0  0  0  0  0  0  0
    3.6879    0.0717   -0.8484 C   0  0  0  0  0  0  0  0  0  0  0  0
    4.7442   -0.7915   -1.3507 C   0  0  0  0  0  0  0  0  0  0  0  0
    4.4967   -1.9538   -2.0357 C   0  0  0  0  0  0  0  0  0  0  0  0
    5.5092   -2.7525   -2.4995 N   0  0  0  0  0  0  0  0  0  0  0  0
    6.7917   -2.4162   -2.2943 C   0  0  0  0  0  0  0  0  0  0  0  0
    7.0380   -1.2488   -1.6063 C   0  0  0  0  0  0  0  0  0  0  0  0
    6.0412   -0.4751   -1.1570 N   0  0  0  0  0  0  0  0  0  0  0  0
    5.2614    3.5379    0.2779 H   0  0  0  0  0  0  0  0  0  0  0  0
    5.3910    2.5296    1.7344 H   0  0  0  0  0  0  0  0  0  0  0  0
    6.8733    2.7809    0.7230 H   0  0  0  0  0  0  0  0  0  0  0  0
    3.3914    2.9797    0.8706 H   0  0  0  0  0  0  0  0  0  0  0  0
    0.9951    2.4792    0.5554 H   0  0  0  0  0  0  0  0  0  0  0  0
   -0.5930    1.3363   -0.7608 H   0  0  0  0  0  0  0  0  0  0  0  0
   -0.1557   -0.2179   -1.6456 H   0  0  0  0  0  0  0  0  0  0  0  0
   -0.2023    0.1585    1.4011 H   0  0  0  0  0  0  0  0  0  0  0  0
    1.2930   -1.6099    0.8719 H   0  0  0  0  0  0  0  0  0  0  0  0
    0.2000   -2.1922   -0.4328 H   0  0  0  0  0  0  0  0  0  0  0  0
   -1.6093   -2.8341    3.0356 H   0  0  0  0  0  0  0  0  0  0  0  0
   -0.6068   -1.3682    3.1029 H   0  0  0  0  0  0  0  0  0  0  0  0
   -3.1861   -2.0140    1.6399 H   0  0  0  0  0  0  0  0  0  0  0  0
   -2.6624   -0.4723    2.5175 H   0  0  0  0  0  0  0  0  0  0  0  0
   -4.1540   -2.6437   -1.0534 H   0  0  0  0  0  0  0  0  0  0  0  0
   -6.6184   -2.9892   -0.7241 H   0  0  0  0  0  0  0  0  0  0  0  0
   -8.0531   -1.2164    0.1906 H   0  0  0  0  0  0  0  0  0  0  0  0
   -6.9851    0.9402    0.7836 H   0  0  0  0  0  0  0  0  0  0  0  0
   -2.2940    3.6984    1.7643 H   0  0  0  0  0  0  0  0  0  0  0  0
   -4.4150    4.8615    0.5695 H   0  0  0  0  0  0  0  0  0  0  0  0
    2.0136   -1.0894   -1.5490 H   0  0  0  0  0  0  0  0  0  0  0  0
    3.4642   -2.2413   -2.2108 H   0  0  0  0  0  0  0  0  0  0  0  0
    7.6103   -3.0332   -2.6524 H   0  0  0  0  0  0  0  0  0  0  0  0
    8.0917   -0.9930   -1.4499 H   0  0  0  0  0  0  0  0  0  0  0  0
  1  2  1  0
  2  3  1  0
  3  4  2  0
  4  5  1  0
  5  6  2  0
  6  7  1  0
  7  8  1  0
  8  9  1  0
  9 10  1  0
 10 11  1  0
 11 12  1  0
 12 13  1  0
 13 14  1  0
 14 15  2  0
 14 16  1  0
 16 17  2  0
 17 18  1  0
 18 19  2  0
 19 20  1  0
 20 21  2  0
 21 22  1  0
 22 23  1  0
 23 24  2  0
 24 25  1  0
 25 26  2  0
  6 27  1  0
 27 28  2  0
 28 29  1  0
 29 30  2  0
 30 31  1  0
 31 32  2  0
 32 33  1  0
 33 34  2  0
 28  3  1  0
 34 29  1  0
 13  8  1  0
 21 16  1  0
 26 22  1  0
  1 35  1  0
  1 36  1  0
  1 37  1  0
  4 38  1  0
  5 39  1  0
  7 40  1  0
  7 41  1  0
  8 42  1  1
  9 43  1  0
  9 44  1  0
 11 45  1  0
 11 46  1  0
 12 47  1  0
 12 48  1  0
 17 49  1  0
 18 50  1  0
 19 51  1  0
 20 52  1  0
 24 53  1  0
 25 54  1  0
 27 55  1  0
 30 56  1  0
 32 57  1  0
 33 58  1  0
M  END
$$$$
