
     RDKit          3D

 51 53  0  0  0  0  0  0  0  0999 V2000
    5.4504    0.9456    0.4361 C   0  0  0  0  0  0  0  0  0  0  0  0
    4.8318   -0.4004    0.1418 C   0  0  0  0  0  0  0  0  0  0  0  0
    5.5590   -0.9169   -1.1106 C   0  0  0  0  0  0  0  0  0  0  0  0
    3.5088   -0.3403   -0.1810 O   0  0  0  0  0  0  0  0  0  0  0  0
    2.6890    0.1993    0.7772 C   0  0  0  0  0  0  0  0  0  0  0  0
    1.2717    0.2203    0.3290 C   0  0  0  0  0  0  0  0  0  0  0  0
    0.3515   -0.7821    0.5281 C   0  0  0  0  0  0  0  0  0  0  0  0
   -0.8631   -0.3630   -0.0506 C   0  0  0  0  0  0  0  0  0  0  0  0
   -2.0580   -1.2144   -0.0546 C   0  0  0  0  0  0  0  0  0  0  0  0
   -3.2575   -0.7054    0.3270 C   0  0  0  0  0  0  0  0  0  0  0  0
   -4.3564   -1.5772    0.2864 C   0  0  0  0  0  0  0  0  0  0  0  0
   -4.2510   -2.8866   -0.1155 C   0  0  0  0  0  0  0  0  0  0  0  0
   -3.0337   -3.4047   -0.5029 C   0  0  0  0  0  0  0  0  0  0  0  0
   -2.9205   -4.8215   -0.9374 C   0  0  0  0  0  0  0  0  0  0  0  0
   -1.9712   -4.9340   -1.9502 F   0  0  0  0  0  0  0  0  0  0  0  0
   -2.3841   -5.5138    0.1563 F   0  0  0  0  0  0  0  0  0  0  0  0
   -4.1291   -5.3245   -1.3021 F   0  0  0  0  0  0  0  0  0  0  0  0
   -1.9582   -2.5531   -0.4638 C   0  0  0  0  0  0  0  0  0  0  0  0
   -0.6501    0.8483   -0.5696 N   0  0  0  0  0  0  0  0  0  0  0  0
   -1.5705    1.6630   -1.2723 C   0  0  0  0  0  0  0  0  0  0  0  0
   -2.3434    2.6529   -0.5267 C   0  0  0  0  0  0  0  0  0  0  0  0
   -3.2491    3.4080   -1.2839 C   0  0  0  0  0  0  0  0  0  0  0  0
   -4.0498    4.3786   -0.7623 C   0  0  0  0  0  0  0  0  0  0  0  0
   -3.9797    4.6471    0.5813 C   0  0  0  0  0  0  0  0  0  0  0  0
   -3.1052    3.9317    1.3667 C   0  0  0  0  0  0  0  0  0  0  0  0
   -2.2898    2.9363    0.8087 C   0  0  0  0  0  0  0  0  0  0  0  0
   -1.1995    2.0468    1.8414 Cl  0  0  0  0  0  0  0  0  0  0  0  0
    0.6196    1.1822   -0.3371 N   0  0  0  0  0  0  0  0  0  0  0  0
    5.1840   -1.3370    1.2242 C   0  0  0  0  0  0  0  0  0  0  0  0
    4.4029   -2.0649    1.8541 O   0  0  0  0  0  0  0  0  0  0  0  0
    6.5465   -1.3961    1.5609 O   0  0  0  0  0  0  0  0  0  0  0  0
    5.4051    1.1838    1.5330 H   0  0  0  0  0  0  0  0  0  0  0  0
    6.5322    0.8675    0.2008 H   0  0  0  0  0  0  0  0  0  0  0  0
    5.0364    1.7526   -0.1832 H   0  0  0  0  0  0  0  0  0  0  0  0
    5.4365   -1.9981   -1.2319 H   0  0  0  0  0  0  0  0  0  0  0  0
    6.6052   -0.5684   -1.0984 H   0  0  0  0  0  0  0  0  0  0  0  0
    5.0400   -0.4233   -1.9814 H   0  0  0  0  0  0  0  0  0  0  0  0
    2.7798   -0.4014    1.7050 H   0  0  0  0  0  0  0  0  0  0  0  0
    2.9494    1.2379    1.0587 H   0  0  0  0  0  0  0  0  0  0  0  0
    0.4702   -1.7338    1.0247 H   0  0  0  0  0  0  0  0  0  0  0  0
   -3.4121    0.3133    0.6624 H   0  0  0  0  0  0  0  0  0  0  0  0
   -5.3164   -1.1535    0.5964 H   0  0  0  0  0  0  0  0  0  0  0  0
   -5.1155   -3.5513   -0.1414 H   0  0  0  0  0  0  0  0  0  0  0  0
   -0.9767   -2.9029   -0.7563 H   0  0  0  0  0  0  0  0  0  0  0  0
   -1.0328    2.2402   -2.0949 H   0  0  0  0  0  0  0  0  0  0  0  0
   -2.3208    1.0623   -1.8611 H   0  0  0  0  0  0  0  0  0  0  0  0
   -3.3483    3.2368   -2.3643 H   0  0  0  0  0  0  0  0  0  0  0  0
   -4.7497    4.9611   -1.3509 H   0  0  0  0  0  0  0  0  0  0  0  0
   -4.6249    5.4274    0.9939 H   0  0  0  0  0  0  0  0  0  0  0  0
   -3.0478    4.1428    2.4324 H   0  0  0  0  0  0  0  0  0  0  0  0
    6.8948   -2.2171    2.0577 H   0  0  0  0  0  0  0  0  0  0  0  0
  1  2  1  0
  2  3  1  0
  2  4  1  0
  4  5  1  0
  5  6  1  0
  6  7  1  0
  7  8  2  0
  8  9  1  0
  9 10  2  0
 10 11  1  0
 11 12  2  0
 12 13  1  0
 13 14  1  0
 14 15  1  0
 14 16  1  0
 14 17  1  0
 13 18  2  0
  8 19  1  0
 19 20  1  0
 20 21  1  0
 21 22  2  0
 22 23  1  0
 23 24  2  0
 24 25  1  0
 25 26  2  0
 26 27  1  0
 19 28  1  0
  2 29  1  0
 29 30  2  0
 29 31  1  0
 28  6  2  0
 18  9  1  0
 26 21  1  0
  1 32  1  0
  1 33  1  0
  1 34  1  0
  3 35  1  0
  3 36  1  0
  3 37  1  0
  5 38  1  0
  5 39  1  0
  7 40  1  0
 10 41  1  0
 11 42  1  0
 12 43  1  0
 18 44  1  0
 20 45  1  0
 20 46  1  0
 22 47  1  0
 23 48  1  0
 24 49  1  0
 25 50  1  0
 31 51  1  0
M  END
$$$$
