
     RDKit          3D

 32 34  0  0  0  0  0  0  0  0999 V2000
   -2.3183   -3.1110    0.2423 O   0  0  0  0  0  0  0  0  0  0  0  0
   -1.8907   -1.9327    0.1003 C   0  0  0  0  0  0  0  0  0  0  0  0
   -0.5533   -1.6616    0.1787 N   0  0  0  0  0  0  0  0  0  0  0  0
   -0.0648   -0.4369    0.0351 C   0  0  0  0  0  0  0  0  0  0  0  0
    1.3679   -0.1614    0.1214 C   0  0  0  0  0  0  0  0  0  0  0  0
    1.8565    1.1261   -0.0320 C   0  0  0  0  0  0  0  0  0  0  0  0
    3.2031    1.3951    0.0476 C   0  0  0  0  0  0  0  0  0  0  0  0
    4.1212    0.3803    0.2854 C   0  0  0  0  0  0  0  0  0  0  0  0
    5.5804    0.6422    0.3761 C   0  0  0  0  0  0  0  0  0  0  0  0
    6.2239   -0.2679   -0.4571 F   0  0  0  0  0  0  0  0  0  0  0  0
    5.8912    1.9237   -0.0106 F   0  0  0  0  0  0  0  0  0  0  0  0
    6.0421    0.3716    1.6579 F   0  0  0  0  0  0  0  0  0  0  0  0
    3.6579   -0.8884    0.4381 C   0  0  0  0  0  0  0  0  0  0  0  0
    2.3023   -1.1389    0.3549 C   0  0  0  0  0  0  0  0  0  0  0  0
   -0.9445    0.5599   -0.1965 N   0  0  0  0  0  0  0  0  0  0  0  0
   -2.2702    0.3500   -0.2833 C   0  0  0  0  0  0  0  0  0  0  0  0
   -2.7859   -0.9130   -0.1362 C   0  0  0  0  0  0  0  0  0  0  0  0
   -4.2171   -1.2445   -0.2139 C   0  0  0  0  0  0  0  0  0  0  0  0
   -5.2838    0.1246    0.3153 S   0  0  0  0  0  0  0  0  0  0  0  0
   -4.1880    1.5430    0.6005 C   0  0  0  0  0  0  0  0  0  0  0  0
   -3.1595    1.4989   -0.5389 C   0  0  0  0  0  0  0  0  0  0  0  0
    0.0386   -2.4997    0.3602 H   0  0  0  0  0  0  0  0  0  0  0  0
    1.1410    1.9186   -0.2175 H   0  0  0  0  0  0  0  0  0  0  0  0
    3.6099    2.3981   -0.0695 H   0  0  0  0  0  0  0  0  0  0  0  0
    4.3152   -1.7193    0.6243 H   0  0  0  0  0  0  0  0  0  0  0  0
    1.9876   -2.1656    0.4839 H   0  0  0  0  0  0  0  0  0  0  0  0
   -4.4025   -2.0806    0.5230 H   0  0  0  0  0  0  0  0  0  0  0  0
   -4.5184   -1.6563   -1.1968 H   0  0  0  0  0  0  0  0  0  0  0  0
   -3.6283    1.3316    1.5487 H   0  0  0  0  0  0  0  0  0  0  0  0
   -4.7267    2.5011    0.6264 H   0  0  0  0  0  0  0  0  0  0  0  0
   -3.7678    1.3727   -1.4760 H   0  0  0  0  0  0  0  0  0  0  0  0
   -2.6190    2.4401   -0.4976 H   0  0  0  0  0  0  0  0  0  0  0  0
  1  2  2  0
  2  3  1  0
  3  4  1  0
  4  5  1  0
  5  6  2  0
  6  7  1  0
  7  8  2  0
  8  9  1  0
  9 10  1  0
  9 11  1  0
  9 12  1  0
  8 13  1  0
 13 14  2  0
  4 15  2  0
 15 16  1  0
 16 17  2  0
 17 18  1  0
 18 19  1  0
 19 20  1  0
 20 21  1  0
 17  2  1  0
 14  5  1  0
 21 16  1  0
  3 22  1  0
  6 23  1  0
  7 24  1  0
 13 25  1  0
 14 26  1  0
 18 27  1  0
 18 28  1  0
 20 29  1  0
 20 30  1  0
 21 31  1  0
 21 32  1  0
M  END
$$$$
