
     RDKit          3D

 29 31  0  0  0  0  0  0  0  0999 V2000
    3.9439    2.2251    0.0372 N   0  0  0  0  0  0  0  0  0  0  0  0
    3.5323    0.8729    0.0038 C   0  0  0  0  0  0  0  0  0  0  0  0
    4.5078   -0.0727   -0.0132 N   0  0  0  0  0  0  0  0  0  0  0  0
    4.1747   -1.3752   -0.0449 C   0  0  0  0  0  0  0  0  0  0  0  0
    2.8395   -1.7499   -0.0603 C   0  0  0  0  0  0  0  0  0  0  0  0
    1.8434   -0.7843   -0.0429 C   0  0  0  0  0  0  0  0  0  0  0  0
    0.4396   -1.1690   -0.0588 C   0  0  0  0  0  0  0  0  0  0  0  0
   -0.0631   -2.4519   -0.0910 C   0  0  0  0  0  0  0  0  0  0  0  0
   -1.4239   -2.3916   -0.0964 N   0  0  0  0  0  0  0  0  0  0  0  0
   -1.7659   -1.0748   -0.0676 C   0  0  0  0  0  0  0  0  0  0  0  0
   -2.9865   -0.4232   -0.0586 C   0  0  0  0  0  0  0  0  0  0  0  0
   -3.1207    0.9409   -0.0276 C   0  0  0  0  0  0  0  0  0  0  0  0
   -4.4520    1.6232   -0.0184 C   0  0  0  0  0  0  0  0  0  0  0  0
   -4.7151    2.2448   -1.2252 F   0  0  0  0  0  0  0  0  0  0  0  0
   -5.4215    0.6616    0.1729 F   0  0  0  0  0  0  0  0  0  0  0  0
   -4.5409    2.5505    1.0038 F   0  0  0  0  0  0  0  0  0  0  0  0
   -1.9750    1.7055   -0.0042 C   0  0  0  0  0  0  0  0  0  0  0  0
   -0.7282    1.0747   -0.0126 C   0  0  0  0  0  0  0  0  0  0  0  0
   -0.6198   -0.2966   -0.0439 C   0  0  0  0  0  0  0  0  0  0  0  0
    2.2351    0.5014   -0.0112 N   0  0  0  0  0  0  0  0  0  0  0  0
    3.3860    2.9081    0.5758 H   0  0  0  0  0  0  0  0  0  0  0  0
    4.7915    2.5103   -0.4742 H   0  0  0  0  0  0  0  0  0  0  0  0
    4.8972   -2.1691   -0.0597 H   0  0  0  0  0  0  0  0  0  0  0  0
    2.5246   -2.7780   -0.0856 H   0  0  0  0  0  0  0  0  0  0  0  0
    0.5577   -3.3385   -0.1085 H   0  0  0  0  0  0  0  0  0  0  0  0
   -2.0681   -3.1896   -0.1181 H   0  0  0  0  0  0  0  0  0  0  0  0
   -3.9005   -1.0068   -0.0766 H   0  0  0  0  0  0  0  0  0  0  0  0
   -2.0603    2.7785    0.0202 H   0  0  0  0  0  0  0  0  0  0  0  0
    0.1681    1.6735    0.0057 H   0  0  0  0  0  0  0  0  0  0  0  0
  1  2  1  0
  2  3  2  0
  3  4  1  0
  4  5  2  0
  5  6  1  0
  6  7  1  0
  7  8  2  0
  8  9  1  0
  9 10  1  0
 10 11  2  0
 11 12  1  0
 12 13  1  0
 13 14  1  0
 13 15  1  0
 13 16  1  0
 12 17  2  0
 17 18  1  0
 18 19  2  0
  6 20  2  0
 20  2  1  0
 19  7  1  0
 19 10  1  0
  1 21  1  0
  1 22  1  0
  4 23  1  0
  5 24  1  0
  8 25  1  0
  9 26  1  0
 11 27  1  0
 17 28  1  0
 18 29  1  0
M  END
$$$$
