
     RDKit          3D

 46 50  0  0  0  0  0  0  0  0999 V2000
    7.4656    1.4461   -0.8685 C   0  0  0  0  0  0  0  0  0  0  0  0
    6.9101    1.0595    0.3678 O   0  0  0  0  0  0  0  0  0  0  0  0
    5.5418    0.9077    0.5417 C   0  0  0  0  0  0  0  0  0  0  0  0
    5.0663    0.5274    1.7769 C   0  0  0  0  0  0  0  0  0  0  0  0
    3.7385    0.3861    1.9239 N   0  0  0  0  0  0  0  0  0  0  0  0
    2.8728    0.6016    0.9165 C   0  0  0  0  0  0  0  0  0  0  0  0
    1.5085    0.4238    1.1840 C   0  0  0  0  0  0  0  0  0  0  0  0
    1.0820    0.0539    2.4640 N   0  0  0  0  0  0  0  0  0  0  0  0
   -0.2166   -0.1995    2.9693 C   0  0  0  0  0  0  0  0  0  0  0  0
   -0.8965   -1.4102    2.5250 C   0  0  0  0  0  0  0  0  0  0  0  0
   -0.6152   -2.6289    3.0857 N   0  0  0  0  0  0  0  0  0  0  0  0
   -1.3539   -3.5637    2.5664 N   0  0  0  0  0  0  0  0  0  0  0  0
   -2.1575   -3.0058    1.6392 C   0  0  0  0  0  0  0  0  0  0  0  0
   -3.1304   -3.5013    0.8000 C   0  0  0  0  0  0  0  0  0  0  0  0
   -3.8001   -2.6315   -0.0507 C   0  0  0  0  0  0  0  0  0  0  0  0
   -3.4676   -1.3041   -0.0249 C   0  0  0  0  0  0  0  0  0  0  0  0
   -4.1258   -0.3426   -0.8843 C   0  0  0  0  0  0  0  0  0  0  0  0
   -5.1182   -0.6666   -1.7805 C   0  0  0  0  0  0  0  0  0  0  0  0
   -5.7369    0.2758   -2.5970 C   0  0  0  0  0  0  0  0  0  0  0  0
   -5.3566    1.5986   -2.5234 C   0  0  0  0  0  0  0  0  0  0  0  0
   -5.9517    2.5185   -3.3117 F   0  0  0  0  0  0  0  0  0  0  0  0
   -4.3581    1.9365   -1.6243 C   0  0  0  0  0  0  0  0  0  0  0  0
   -4.0040    3.2559   -1.5755 F   0  0  0  0  0  0  0  0  0  0  0  0
   -3.7489    1.0056   -0.8197 C   0  0  0  0  0  0  0  0  0  0  0  0
   -2.5146   -0.8952    0.8137 N   0  0  0  0  0  0  0  0  0  0  0  0
   -1.8564   -1.6824    1.6340 N   0  0  0  0  0  0  0  0  0  0  0  0
    0.6870    0.6629    0.1048 C   0  0  0  0  0  0  0  0  0  0  0  0
    1.1826    1.0483   -1.1443 C   0  0  0  0  0  0  0  0  0  0  0  0
    2.4975    1.2027   -1.3423 N   0  0  0  0  0  0  0  0  0  0  0  0
    3.3429    0.9822   -0.3214 C   0  0  0  0  0  0  0  0  0  0  0  0
    4.7141    1.1443   -0.5313 C   0  0  0  0  0  0  0  0  0  0  0  0
    7.1886    2.5123   -1.0750 H   0  0  0  0  0  0  0  0  0  0  0  0
    8.5640    1.3669   -0.8144 H   0  0  0  0  0  0  0  0  0  0  0  0
    7.0594    0.8549   -1.7168 H   0  0  0  0  0  0  0  0  0  0  0  0
    5.7844    0.3613    2.5672 H   0  0  0  0  0  0  0  0  0  0  0  0
    1.8718   -0.0587    3.1889 H   0  0  0  0  0  0  0  0  0  0  0  0
   -0.2468   -0.0776    4.0937 H   0  0  0  0  0  0  0  0  0  0  0  0
   -0.8650    0.6743    2.6299 H   0  0  0  0  0  0  0  0  0  0  0  0
   -3.3439   -4.5595    0.8297 H   0  0  0  0  0  0  0  0  0  0  0  0
   -4.5416   -3.0554   -0.6799 H   0  0  0  0  0  0  0  0  0  0  0  0
   -5.4357   -1.7140   -1.8546 H   0  0  0  0  0  0  0  0  0  0  0  0
   -6.5189   -0.0457   -3.2883 H   0  0  0  0  0  0  0  0  0  0  0  0
   -2.9587    1.2949   -0.1131 H   0  0  0  0  0  0  0  0  0  0  0  0
   -0.3646    0.5638    0.2182 H   0  0  0  0  0  0  0  0  0  0  0  0
    0.5262    1.2325   -1.9835 H   0  0  0  0  0  0  0  0  0  0  0  0
    5.0805    1.4444   -1.5086 H   0  0  0  0  0  0  0  0  0  0  0  0
  1  2  1  0
  2  3  1  0
  3  4  2  0
  4  5  1  0
  5  6  2  0
  6  7  1  0
  7  8  1  0
  8  9  1  0
  9 10  1  0
 10 11  2  0
 11 12  1  0
 12 13  2  0
 13 14  1  0
 14 15  2  0
 15 16  1  0
 16 17  1  0
 17 18  2  0
 18 19  1  0
 19 20  2  0
 20 21  1  0
 20 22  1  0
 22 23  1  0
 22 24  2  0
 16 25  2  0
 25 26  1  0
  7 27  2  0
 27 28  1  0
 28 29  2  0
 29 30  1  0
 30 31  2  0
 31  3  1  0
 30  6  1  0
 26 10  1  0
 26 13  1  0
 24 17  1  0
  1 32  1  0
  1 33  1  0
  1 34  1  0
  4 35  1  0
  8 36  1  0
  9 37  1  0
  9 38  1  0
 14 39  1  0
 15 40  1  0
 18 41  1  0
 19 42  1  0
 24 43  1  0
 27 44  1  0
 28 45  1  0
 31 46  1  0
M  END
$$$$
