
     RDKit          3D

 50 51  0  0  0  0  0  0  0  0999 V2000
    6.6804    0.1100   -3.2982 C   0  0  0  0  0  0  0  0  0  0  0  0
    5.6076   -0.5788   -2.5731 N   0  0  0  0  0  0  0  0  0  0  0  0
    4.7909    0.0995   -1.6307 C   0  0  0  0  0  0  0  0  0  0  0  0
    4.9727    1.3183   -1.3959 O   0  0  0  0  0  0  0  0  0  0  0  0
    3.7223   -0.5791   -0.9061 C   0  0  0  0  0  0  0  0  0  0  0  0
    3.4224   -1.8751   -1.0613 N   0  0  0  0  0  0  0  0  0  0  0  0
    2.4474   -2.1559   -0.2903 O   0  0  0  0  0  0  0  0  0  0  0  0
    2.0477   -1.0944    0.4073 C   0  0  0  0  0  0  0  0  0  0  0  0
    0.9424   -1.0473    1.3993 C   0  0  2  0  0  0  0  0  0  0  0  0
   -0.1505   -0.1232    0.9021 C   0  0  0  0  0  0  0  0  0  0  0  0
   -0.6349   -0.6915   -0.4131 C   0  0  0  0  0  0  0  0  0  0  0  0
   -1.7275    0.1280   -1.0271 C   0  0  0  0  0  0  0  0  0  0  0  0
   -2.9495    0.2424   -0.1595 C   0  0  0  0  0  0  0  0  0  0  0  0
   -3.5883   -1.0570    0.1661 C   0  0  0  0  0  0  0  0  0  0  0  0
   -5.1064   -0.8597    0.1484 C   0  0  0  0  0  0  0  0  0  0  0  0
   -5.6189   -0.5446   -1.2224 C   0  0  0  0  0  0  0  0  0  0  0  0
   -4.6963    0.4293   -1.9051 C   0  0  0  0  0  0  0  0  0  0  0  0
   -3.9387    1.1780   -0.8134 C   0  0  0  0  0  0  0  0  0  0  0  0
    1.3669   -0.7609    2.7906 C   0  0  0  0  0  0  0  0  0  0  0  0
    2.0403    0.5080    3.0277 C   0  0  0  0  0  0  0  0  0  0  0  0
    2.2160    1.3274    2.1053 O   0  0  0  0  0  0  0  0  0  0  0  0
    2.5060    0.8221    4.3276 N   0  0  0  0  0  0  0  0  0  0  0  0
    3.1352    1.9615    4.6428 O   0  0  0  0  0  0  0  0  0  0  0  0
    2.8714   -0.1159   -0.0035 N   0  0  0  0  0  0  0  0  0  0  0  0
    7.6274   -0.1897   -2.8234 H   0  0  0  0  0  0  0  0  0  0  0  0
    6.6903   -0.3554   -4.3274 H   0  0  0  0  0  0  0  0  0  0  0  0
    6.5063    1.1875   -3.3490 H   0  0  0  0  0  0  0  0  0  0  0  0
    5.4142   -1.5892   -2.7300 H   0  0  0  0  0  0  0  0  0  0  0  0
    0.4711   -2.0749    1.4167 H   0  0  0  0  0  0  0  0  0  0  0  0
   -0.9557   -0.1151    1.6727 H   0  0  0  0  0  0  0  0  0  0  0  0
    0.1872    0.9225    0.8017 H   0  0  0  0  0  0  0  0  0  0  0  0
    0.2341   -0.6747   -1.1029 H   0  0  0  0  0  0  0  0  0  0  0  0
   -0.8984   -1.7368   -0.2430 H   0  0  0  0  0  0  0  0  0  0  0  0
   -1.3236    1.1306   -1.2713 H   0  0  0  0  0  0  0  0  0  0  0  0
   -2.0025   -0.3524   -1.9887 H   0  0  0  0  0  0  0  0  0  0  0  0
   -2.6116    0.7148    0.8051 H   0  0  0  0  0  0  0  0  0  0  0  0
   -3.3500   -1.3760    1.2138 H   0  0  0  0  0  0  0  0  0  0  0  0
   -3.3798   -1.8709   -0.5335 H   0  0  0  0  0  0  0  0  0  0  0  0
   -5.3695   -0.1044    0.8968 H   0  0  0  0  0  0  0  0  0  0  0  0
   -5.5673   -1.8269    0.4721 H   0  0  0  0  0  0  0  0  0  0  0  0
   -6.6085   -0.0321   -1.1027 H   0  0  0  0  0  0  0  0  0  0  0  0
   -5.8102   -1.4522   -1.8321 H   0  0  0  0  0  0  0  0  0  0  0  0
   -3.9984   -0.0894   -2.5920 H   0  0  0  0  0  0  0  0  0  0  0  0
   -5.2720    1.1714   -2.4645 H   0  0  0  0  0  0  0  0  0  0  0  0
   -3.4150    2.0144   -1.3100 H   0  0  0  0  0  0  0  0  0  0  0  0
   -4.7083    1.5506   -0.0957 H   0  0  0  0  0  0  0  0  0  0  0  0
    2.0952   -1.5716    3.0950 H   0  0  0  0  0  0  0  0  0  0  0  0
    0.5098   -0.9030    3.5103 H   0  0  0  0  0  0  0  0  0  0  0  0
    2.3649    0.1351    5.1272 H   0  0  0  0  0  0  0  0  0  0  0  0
    2.8120    2.2563    5.5374 H   0  0  0  0  0  0  0  0  0  0  0  0
  1  2  1  0
  2  3  1  0
  3  4  2  0
  3  5  1  0
  5  6  2  0
  6  7  1  0
  7  8  1  0
  8  9  1  0
  9 10  1  0
 10 11  1  0
 11 12  1  0
 12 13  1  0
 13 14  1  0
 14 15  1  0
 15 16  1  0
 16 17  1  0
 17 18  1  0
  9 19  1  0
 19 20  1  0
 20 21  2  0
 20 22  1  0
 22 23  1  0
  8 24  2  0
 24  5  1  0
 18 13  1  0
  1 25  1  0
  1 26  1  0
  1 27  1  0
  2 28  1  0
  9 29  1  1
 10 30  1  0
 10 31  1  0
 11 32  1  0
 11 33  1  0
 12 34  1  0
 12 35  1  0
 13 36  1  0
 14 37  1  0
 14 38  1  0
 15 39  1  0
 15 40  1  0
 16 41  1  0
 16 42  1  0
 17 43  1  0
 17 44  1  0
 18 45  1  0
 18 46  1  0
 19 47  1  0
 19 48  1  0
 22 49  1  0
 23 50  1  0
M  END
$$$$
