
     RDKit          3D

 70 72  0  0  0  0  0  0  0  0999 V2000
    1.9151   -0.9067    0.0876 C   0  0  2  0  0  0  0  0  0  0  0  0
    1.0784   -0.6598   -1.1461 C   0  0  0  0  0  0  0  0  0  0  0  0
   -0.3653   -0.5247   -0.8599 C   0  0  0  0  0  0  0  0  0  0  0  0
   -1.1697   -1.6701   -0.9275 C   0  0  0  0  0  0  0  0  0  0  0  0
   -2.5228   -1.5786   -0.5973 C   0  0  0  0  0  0  0  0  0  0  0  0
   -3.1588   -0.3910   -0.1911 C   0  0  0  0  0  0  0  0  0  0  0  0
   -4.5545   -0.6090    0.0684 N   0  0  0  0  0  0  0  0  0  0  0  0
   -4.4490   -1.0778    1.4041 C   0  0  0  0  0  0  0  0  0  0  0  0
   -3.2265   -1.0727    1.7434 O   0  0  0  0  0  0  0  0  0  0  0  0
   -5.6633   -1.4577    2.1077 C   0  0  0  0  0  0  0  0  0  0  0  0
   -6.3981   -1.9134    3.1663 O   0  0  0  0  0  0  0  0  0  0  0  0
   -6.9252   -1.5218    1.9112 O   0  0  0  0  0  0  0  0  0  0  0  0
   -5.6623   -0.4649   -0.8063 C   0  0  0  0  0  0  0  0  0  0  0  0
   -5.6469   -1.3746   -1.8709 C   0  0  0  0  0  0  0  0  0  0  0  0
   -6.6199   -1.4405   -2.8573 C   0  0  0  0  0  0  0  0  0  0  0  0
   -7.6715   -0.5792   -2.8171 C   0  0  0  0  0  0  0  0  0  0  0  0
   -7.7276    0.3234   -1.7962 C   0  0  0  0  0  0  0  0  0  0  0  0
   -6.7512    0.3625   -0.8359 C   0  0  0  0  0  0  0  0  0  0  0  0
   -6.9034    1.2704    0.2752 C   0  0  0  0  0  0  0  0  0  0  0  0
   -7.7183    2.2815    0.7270 O   0  0  0  0  0  0  0  0  0  0  0  0
   -6.3921    1.5927    1.3570 O   0  0  0  0  0  0  0  0  0  0  0  0
   -2.3266    0.6954   -0.1449 C   0  0  0  0  0  0  0  0  0  0  0  0
   -2.9624    1.8502    0.2279 C   0  0  0  0  0  0  0  0  0  0  0  0
   -2.2558    3.0275    0.2943 C   0  0  0  0  0  0  0  0  0  0  0  0
   -0.8962    2.9688   -0.0329 C   0  0  0  0  0  0  0  0  0  0  0  0
   -0.2984    1.7916   -0.4013 C   0  0  0  0  0  0  0  0  0  0  0  0
   -0.9987    0.6241   -0.4650 C   0  0  0  0  0  0  0  0  0  0  0  0
    1.8871    0.0665    1.0971 N   0  0  0  0  0  0  0  0  0  0  0  0
    2.6069    1.0885    1.3228 C   0  0  0  0  0  0  0  0  0  0  0  0
    3.7893    1.8524    0.7721 C   0  0  0  0  0  0  0  0  0  0  0  0
    2.0043    1.5700    2.4805 O   0  0  0  0  0  0  0  0  0  0  0  0
    3.2642   -1.4259   -0.2762 C   0  0  0  0  0  0  0  0  0  0  0  0
    3.1693   -2.6003   -1.0551 O   0  0  0  0  0  0  0  0  0  0  0  0
    4.4295   -0.9984   -0.0076 N   0  0  0  0  0  0  0  0  0  0  0  0
    5.6078   -1.6703   -0.4707 C   0  0  0  0  0  0  0  0  0  0  0  0
    6.8210   -0.8510   -0.1068 C   0  0  0  0  0  0  0  0  0  0  0  0
    6.8793   -0.7022    1.3874 C   0  0  0  0  0  0  0  0  0  0  0  0
    8.1051    0.1203    1.7348 C   0  0  0  0  0  0  0  0  0  0  0  0
    8.0375    1.4724    1.1008 C   0  0  0  0  0  0  0  0  0  0  0  0
    1.4058   -1.8235    0.5592 H   0  0  0  0  0  0  0  0  0  0  0  0
    1.4728    0.1708   -1.7645 H   0  0  0  0  0  0  0  0  0  0  0  0
    1.1968   -1.5670   -1.8045 H   0  0  0  0  0  0  0  0  0  0  0  0
   -0.6965   -2.5744   -1.2349 H   0  0  0  0  0  0  0  0  0  0  0  0
   -3.0081   -2.5519   -0.6909 H   0  0  0  0  0  0  0  0  0  0  0  0
   -5.9968   -2.2349    4.0584 H   0  0  0  0  0  0  0  0  0  0  0  0
   -4.8829   -2.1184   -2.0403 H   0  0  0  0  0  0  0  0  0  0  0  0
   -6.6114   -2.1411   -3.6809 H   0  0  0  0  0  0  0  0  0  0  0  0
   -8.4690   -0.5574   -3.5387 H   0  0  0  0  0  0  0  0  0  0  0  0
   -8.5369    1.0179   -1.7283 H   0  0  0  0  0  0  0  0  0  0  0  0
   -7.7447    3.2488    0.4263 H   0  0  0  0  0  0  0  0  0  0  0  0
   -4.0023    1.8749    0.4676 H   0  0  0  0  0  0  0  0  0  0  0  0
   -2.6633    3.9857    0.5768 H   0  0  0  0  0  0  0  0  0  0  0  0
   -0.3284    3.8898    0.0146 H   0  0  0  0  0  0  0  0  0  0  0  0
    0.7311    1.8160   -0.6601 H   0  0  0  0  0  0  0  0  0  0  0  0
    4.6838    1.7432    1.3813 H   0  0  0  0  0  0  0  0  0  0  0  0
    3.9141    1.7194   -0.3031 H   0  0  0  0  0  0  0  0  0  0  0  0
    3.4752    2.9319    0.9054 H   0  0  0  0  0  0  0  0  0  0  0  0
    1.8701    1.0463    3.3348 H   0  0  0  0  0  0  0  0  0  0  0  0
    3.9675   -3.0596   -1.4592 H   0  0  0  0  0  0  0  0  0  0  0  0
    5.6552   -2.6428    0.0863 H   0  0  0  0  0  0  0  0  0  0  0  0
    5.6082   -1.8517   -1.5696 H   0  0  0  0  0  0  0  0  0  0  0  0
    7.7485   -1.2814   -0.5278 H   0  0  0  0  0  0  0  0  0  0  0  0
    6.6297    0.1710   -0.5505 H   0  0  0  0  0  0  0  0  0  0  0  0
    5.9640   -0.2324    1.7738 H   0  0  0  0  0  0  0  0  0  0  0  0
    6.9369   -1.7047    1.8787 H   0  0  0  0  0  0  0  0  0  0  0  0
    8.1786    0.2139    2.8351 H   0  0  0  0  0  0  0  0  0  0  0  0
    9.0087   -0.4185    1.4030 H   0  0  0  0  0  0  0  0  0  0  0  0
    8.4713    2.2282    1.7898 H   0  0  0  0  0  0  0  0  0  0  0  0
    7.0217    1.7901    0.8709 H   0  0  0  0  0  0  0  0  0  0  0  0
    8.6699    1.4443    0.1661 H   0  0  0  0  0  0  0  0  0  0  0  0
  1  2  1  0
  2  3  1  0
  3  4  2  0
  4  5  1  0
  5  6  2  0
  6  7  1  0
  7  8  1  0
  8  9  2  0
  8 10  1  0
 10 11  1  0
 10 12  2  0
  7 13  1  0
 13 14  2  0
 14 15  1  0
 15 16  2  0
 16 17  1  0
 17 18  2  0
 18 19  1  0
 19 20  1  0
 19 21  2  0
  6 22  1  0
 22 23  2  0
 23 24  1  0
 24 25  2  0
 25 26  1  0
 26 27  2  0
  1 28  1  0
 28 29  2  3
 29 30  1  0
 29 31  1  0
  1 32  1  0
 32 33  1  0
 32 34  2  3
 34 35  1  0
 35 36  1  0
 36 37  1  0
 37 38  1  0
 38 39  1  0
 27  3  1  0
 18 13  1  0
 27 22  1  0
  1 40  1  1
  2 41  1  0
  2 42  1  0
  4 43  1  0
  5 44  1  0
 11 45  1  0
 14 46  1  0
 15 47  1  0
 16 48  1  0
 17 49  1  0
 20 50  1  0
 23 51  1  0
 24 52  1  0
 25 53  1  0
 26 54  1  0
 30 55  1  0
 30 56  1  0
 30 57  1  0
 31 58  1  0
 33 59  1  0
 35 60  1  0
 35 61  1  0
 36 62  1  0
 36 63  1  0
 37 64  1  0
 37 65  1  0
 38 66  1  0
 38 67  1  0
 39 68  1  0
 39 69  1  0
 39 70  1  0
M  END
$$$$
