
     RDKit          3D

 52 55  0  0  0  0  0  0  0  0999 V2000
   -4.1234   -1.0019    1.3753 C   0  0  0  0  0  0  0  0  0  0  0  0
   -3.3879   -0.6744    0.0959 C   0  0  0  0  0  0  0  0  0  0  0  0
   -1.9585   -0.9010    0.0432 C   0  0  0  0  0  0  0  0  0  0  0  0
   -1.1410    0.1363   -0.0719 C   0  0  0  0  0  0  0  0  0  0  0  0
    0.3256    0.0225   -0.1230 C   0  0  0  0  0  0  0  0  0  0  0  0
    0.9844    0.7252   -1.1065 C   0  0  0  0  0  0  0  0  0  0  0  0
    2.3541    0.7255   -1.2448 C   0  0  0  0  0  0  0  0  0  0  0  0
    3.1065   -0.0308   -0.3341 C   0  0  0  0  0  0  0  0  0  0  0  0
    4.5422   -0.0225   -0.4926 C   0  0  0  0  0  0  0  0  0  0  0  0
    5.3667   -0.6848    0.2949 C   0  0  0  0  0  0  0  0  0  0  0  0
    6.8224   -0.6410    0.0872 C   0  0  0  0  0  0  0  0  0  0  0  0
    7.3293    0.0297   -0.8498 O   0  0  0  0  0  0  0  0  0  0  0  0
    7.6328   -1.3540    0.9445 O   0  0  0  0  0  0  0  0  0  0  0  0
    2.4377   -0.7342    0.6515 C   0  0  0  0  0  0  0  0  0  0  0  0
    1.0579   -0.7107    0.7611 C   0  0  0  0  0  0  0  0  0  0  0  0
   -1.6718    1.4870   -0.2315 C   0  0  0  0  0  0  0  0  0  0  0  0
   -2.4400    1.9078   -1.2907 C   0  0  0  0  0  0  0  0  0  0  0  0
   -2.9102    3.1800   -1.3571 C   0  0  0  0  0  0  0  0  0  0  0  0
   -2.6267    4.0799   -0.3636 C   0  0  0  0  0  0  0  0  0  0  0  0
   -2.9426    5.3836   -0.1567 N   0  0  0  0  0  0  0  0  0  0  0  0
   -2.4114    5.8043    0.9787 N   0  0  0  0  0  0  0  0  0  0  0  0
   -1.7262    4.8143    1.5734 C   0  0  0  0  0  0  0  0  0  0  0  0
   -1.8523    3.7224    0.7409 C   0  0  0  0  0  0  0  0  0  0  0  0
   -1.4081    2.4174    0.7460 C   0  0  0  0  0  0  0  0  0  0  0  0
   -1.2773   -2.1780   -0.0565 C   0  0  0  0  0  0  0  0  0  0  0  0
   -0.5474   -2.3481   -1.2393 C   0  0  0  0  0  0  0  0  0  0  0  0
    0.1725   -3.4807   -1.5132 C   0  0  0  0  0  0  0  0  0  0  0  0
    0.2018   -4.5144   -0.6111 C   0  0  0  0  0  0  0  0  0  0  0  0
    0.9067   -5.6638   -0.8431 F   0  0  0  0  0  0  0  0  0  0  0  0
   -0.4953   -4.3801    0.5472 C   0  0  0  0  0  0  0  0  0  0  0  0
   -1.2175   -3.2246    0.8064 C   0  0  0  0  0  0  0  0  0  0  0  0
   -2.0253   -3.1235    2.3676 Cl  0  0  0  0  0  0  0  0  0  0  0  0
   -3.5004   -0.6689    2.2140 H   0  0  0  0  0  0  0  0  0  0  0  0
   -4.4774   -2.0196    1.4762 H   0  0  0  0  0  0  0  0  0  0  0  0
   -5.0403   -0.2996    1.4487 H   0  0  0  0  0  0  0  0  0  0  0  0
   -3.7771    0.2523   -0.3533 H   0  0  0  0  0  0  0  0  0  0  0  0
   -3.8329   -1.4565   -0.6275 H   0  0  0  0  0  0  0  0  0  0  0  0
    0.4660    1.3380   -1.8539 H   0  0  0  0  0  0  0  0  0  0  0  0
    2.8522    1.2894   -2.0304 H   0  0  0  0  0  0  0  0  0  0  0  0
    4.9794    0.5525   -1.2936 H   0  0  0  0  0  0  0  0  0  0  0  0
    4.9928   -1.2718    1.1067 H   0  0  0  0  0  0  0  0  0  0  0  0
    8.6453   -1.2163    1.0069 H   0  0  0  0  0  0  0  0  0  0  0  0
    3.0335   -1.3224    1.3572 H   0  0  0  0  0  0  0  0  0  0  0  0
    0.6153   -1.2700    1.5659 H   0  0  0  0  0  0  0  0  0  0  0  0
   -2.6550    1.1792   -2.1184 H   0  0  0  0  0  0  0  0  0  0  0  0
   -3.5180    3.4754   -2.2152 H   0  0  0  0  0  0  0  0  0  0  0  0
   -3.5317    5.9203   -0.8470 H   0  0  0  0  0  0  0  0  0  0  0  0
   -1.1840    4.8481    2.5072 H   0  0  0  0  0  0  0  0  0  0  0  0
   -0.7991    2.1805    1.6412 H   0  0  0  0  0  0  0  0  0  0  0  0
   -0.5610   -1.5549   -1.9562 H   0  0  0  0  0  0  0  0  0  0  0  0
    0.7153   -3.5529   -2.4447 H   0  0  0  0  0  0  0  0  0  0  0  0
   -0.5009   -5.1699    1.2882 H   0  0  0  0  0  0  0  0  0  0  0  0
  1  2  1  0
  2  3  1  0
  3  4  2  0
  4  5  1  0
  5  6  2  0
  6  7  1  0
  7  8  2  0
  8  9  1  0
  9 10  2  0
 10 11  1  0
 11 12  2  0
 11 13  1  0
  8 14  1  0
 14 15  2  0
  4 16  1  0
 16 17  2  0
 17 18  1  0
 18 19  2  0
 19 20  1  0
 20 21  1  0
 21 22  2  0
 22 23  1  0
 23 24  2  0
  3 25  1  0
 25 26  2  0
 26 27  1  0
 27 28  2  0
 28 29  1  0
 28 30  1  0
 30 31  2  0
 31 32  1  0
 15  5  1  0
 24 16  1  0
 31 25  1  0
 23 19  1  0
  1 33  1  0
  1 34  1  0
  1 35  1  0
  2 36  1  0
  2 37  1  0
  6 38  1  0
  7 39  1  0
  9 40  1  0
 10 41  1  0
 13 42  1  0
 14 43  1  0
 15 44  1  0
 17 45  1  0
 18 46  1  0
 20 47  1  0
 22 48  1  0
 24 49  1  0
 26 50  1  0
 27 51  1  0
 30 52  1  0
M  END
$$$$
