
     RDKit          3D

 59 60  0  0  0  0  0  0  0  0999 V2000
   -1.1231    0.8044    1.1034 C   0  0  2  0  0  0  0  0  0  0  0  0
   -0.0265    0.1564    1.8807 C   0  0  0  0  0  0  0  0  0  0  0  0
    1.1259   -0.2902    1.0690 C   0  0  0  0  0  0  0  0  0  0  0  0
    2.0958    0.7119    0.9295 C   0  0  0  0  0  0  0  0  0  0  0  0
    3.2644    0.5320    0.2176 C   0  0  0  0  0  0  0  0  0  0  0  0
    3.5138   -0.6812   -0.3948 C   0  0  0  0  0  0  0  0  0  0  0  0
    2.5599   -1.6697   -0.2587 C   0  0  0  0  0  0  0  0  0  0  0  0
    1.3917   -1.4912    0.4524 C   0  0  0  0  0  0  0  0  0  0  0  0
    4.7211   -0.9635   -1.1676 C   0  0  0  0  0  0  0  0  0  0  0  0
    5.8679   -0.3178   -0.7531 C   0  0  0  0  0  0  0  0  0  0  0  0
    7.0630   -0.4955   -1.3900 C   0  0  0  0  0  0  0  0  0  0  0  0
    7.0948   -1.3491   -2.4738 C   0  0  0  0  0  0  0  0  0  0  0  0
    5.9348   -1.9916   -2.8798 C   0  0  0  0  0  0  0  0  0  0  0  0
    4.7163   -1.8251   -2.2488 C   0  0  0  0  0  0  0  0  0  0  0  0
   -1.7587   -0.0540    0.0556 C   0  0  0  0  0  0  0  0  0  0  0  0
   -2.3927   -1.2983    0.6469 C   0  0  1  0  0  0  0  0  0  0  0  0
   -3.4662   -0.8861    1.6413 C   0  0  0  0  0  0  0  0  0  0  0  0
   -2.9210   -2.1962   -0.3933 C   0  0  0  0  0  0  0  0  0  0  0  0
   -2.8537   -1.9527   -1.6428 O   0  0  0  0  0  0  0  0  0  0  0  0
   -3.5222   -3.3680    0.0318 O   0  0  0  0  0  0  0  0  0  0  0  0
   -4.0550   -4.2842   -0.9019 C   0  0  0  0  0  0  0  0  0  0  0  0
   -4.6601   -5.4946   -0.2052 C   0  0  0  0  0  0  0  0  0  0  0  0
   -0.6431    2.0454    0.5008 N   0  0  0  0  0  0  0  0  0  0  0  0
   -1.1702    3.3104    0.8753 C   0  0  0  0  0  0  0  0  0  0  0  0
   -2.0807    3.2363    1.7694 O   0  0  0  0  0  0  0  0  0  0  0  0
   -0.6373    4.5368    0.2228 C   0  0  0  0  0  0  0  0  0  0  0  0
   -1.3107    5.7773    0.7451 C   0  0  0  0  0  0  0  0  0  0  0  0
   -2.7678    5.7491    0.5027 C   0  0  0  0  0  0  0  0  0  0  0  0
   -3.7111    4.8962   -0.0797 O   0  0  0  0  0  0  0  0  0  0  0  0
   -3.2985    6.8131    0.9622 O   0  0  0  0  0  0  0  0  0  0  0  0
   -1.9306    1.0314    1.8598 H   0  0  0  0  0  0  0  0  0  0  0  0
    0.2636    0.8487    2.6892 H   0  0  0  0  0  0  0  0  0  0  0  0
   -0.5022   -0.7141    2.4223 H   0  0  0  0  0  0  0  0  0  0  0  0
    2.0186    1.7169    1.3654 H   0  0  0  0  0  0  0  0  0  0  0  0
    4.0151    1.2954    0.1051 H   0  0  0  0  0  0  0  0  0  0  0  0
    2.6492   -2.6737   -0.7012 H   0  0  0  0  0  0  0  0  0  0  0  0
    0.6086   -2.2163    0.5994 H   0  0  0  0  0  0  0  0  0  0  0  0
    5.8502    0.3643    0.1109 H   0  0  0  0  0  0  0  0  0  0  0  0
    7.9419    0.0183   -1.0482 H   0  0  0  0  0  0  0  0  0  0  0  0
    8.0064   -1.5327   -3.0205 H   0  0  0  0  0  0  0  0  0  0  0  0
    5.9592   -2.6614   -3.7295 H   0  0  0  0  0  0  0  0  0  0  0  0
    3.8080   -2.3204   -2.5572 H   0  0  0  0  0  0  0  0  0  0  0  0
   -2.6004    0.5198   -0.3955 H   0  0  0  0  0  0  0  0  0  0  0  0
   -1.0717   -0.2932   -0.7718 H   0  0  0  0  0  0  0  0  0  0  0  0
   -1.6579   -1.8876    1.2294 H   0  0  0  0  0  0  0  0  0  0  0  0
   -3.0060   -0.6845    2.6277 H   0  0  0  0  0  0  0  0  0  0  0  0
   -4.1418   -1.7543    1.7721 H   0  0  0  0  0  0  0  0  0  0  0  0
   -3.9947    0.0068    1.2414 H   0  0  0  0  0  0  0  0  0  0  0  0
   -3.2619   -4.6892   -1.5893 H   0  0  0  0  0  0  0  0  0  0  0  0
   -4.8045   -3.7549   -1.5268 H   0  0  0  0  0  0  0  0  0  0  0  0
   -5.3414   -6.0124   -0.9082 H   0  0  0  0  0  0  0  0  0  0  0  0
   -3.8308   -6.1710    0.0945 H   0  0  0  0  0  0  0  0  0  0  0  0
   -5.1803   -5.1459    0.7088 H   0  0  0  0  0  0  0  0  0  0  0  0
    0.1135    1.9064   -0.2203 H   0  0  0  0  0  0  0  0  0  0  0  0
   -0.8578    4.4451   -0.8803 H   0  0  0  0  0  0  0  0  0  0  0  0
    0.4452    4.6002    0.3810 H   0  0  0  0  0  0  0  0  0  0  0  0
   -0.8878    6.6339    0.1879 H   0  0  0  0  0  0  0  0  0  0  0  0
   -1.1466    5.8458    1.8327 H   0  0  0  0  0  0  0  0  0  0  0  0
   -4.4140    5.3183   -0.6955 H   0  0  0  0  0  0  0  0  0  0  0  0
  1  2  1  0
  2  3  1  0
  3  4  2  0
  4  5  1  0
  5  6  2  0
  6  7  1  0
  7  8  2  0
  6  9  1  0
  9 10  2  0
 10 11  1  0
 11 12  2  0
 12 13  1  0
 13 14  2  0
  1 15  1  0
 15 16  1  0
 16 17  1  0
 16 18  1  0
 18 19  2  0
 18 20  1  0
 20 21  1  0
 21 22  1  0
  1 23  1  0
 23 24  1  0
 24 25  2  0
 24 26  1  0
 26 27  1  0
 27 28  1  0
 28 29  1  0
 28 30  2  0
  8  3  1  0
 14  9  1  0
  1 31  1  1
  2 32  1  0
  2 33  1  0
  4 34  1  0
  5 35  1  0
  7 36  1  0
  8 37  1  0
 10 38  1  0
 11 39  1  0
 12 40  1  0
 13 41  1  0
 14 42  1  0
 15 43  1  0
 15 44  1  0
 16 45  1  1
 17 46  1  0
 17 47  1  0
 17 48  1  0
 21 49  1  0
 21 50  1  0
 22 51  1  0
 22 52  1  0
 22 53  1  0
 23 54  1  0
 26 55  1  0
 26 56  1  0
 27 57  1  0
 27 58  1  0
 29 59  1  0
M  END
$$$$
