
     RDKit          3D

 67 72  0  0  0  0  0  0  0  0999 V2000
    6.8756   -1.2060    2.1053 C   0  0  0  0  0  0  0  0  0  0  0  0
    7.2657   -1.8501    0.8586 N   0  0  0  0  0  0  0  0  0  0  0  0
    8.6281   -2.3072    0.6868 C   0  0  0  0  0  0  0  0  0  0  0  0
    6.3531   -2.0547   -0.2047 C   0  0  0  0  0  0  0  0  0  0  0  0
    6.7627   -2.6245   -1.2442 O   0  0  0  0  0  0  0  0  0  0  0  0
    4.9564   -1.6272   -0.1253 C   0  0  0  0  0  0  0  0  0  0  0  0
    4.0031   -2.1359    0.7271 C   0  0  0  0  0  0  0  0  0  0  0  0
    2.8147   -1.4988    0.4850 C   0  0  0  0  0  0  0  0  0  0  0  0
    1.5295   -1.5821    1.0042 C   0  0  0  0  0  0  0  0  0  0  0  0
    0.5246   -0.8167    0.5531 N   0  0  0  0  0  0  0  0  0  0  0  0
    0.7535    0.0698   -0.4397 C   0  0  0  0  0  0  0  0  0  0  0  0
   -0.2700    0.9221   -0.9542 N   0  0  0  0  0  0  0  0  0  0  0  0
   -1.5481    0.9678   -0.3542 C   0  0  0  0  0  0  0  0  0  0  0  0
   -2.5289    1.8191   -0.9023 C   0  0  0  0  0  0  0  0  0  0  0  0
   -3.7632    1.8926   -0.3049 C   0  0  0  0  0  0  0  0  0  0  0  0
   -4.0536    1.1580    0.8038 C   0  0  0  0  0  0  0  0  0  0  0  0
   -5.3314    1.2585    1.4556 C   0  0  0  0  0  0  0  0  0  0  0  0
   -5.3798    1.9980    2.4991 O   0  0  0  0  0  0  0  0  0  0  0  0
   -6.4713    0.5984    0.9925 N   0  0  0  0  0  0  0  0  0  0  0  0
   -6.4315   -0.2339   -0.1752 C   0  0  0  0  0  0  0  0  0  0  0  0
   -7.6847   -0.0755   -1.0182 C   0  0  0  0  0  0  0  0  0  0  0  0
   -8.6201   -1.2328   -0.7503 C   0  0  0  0  0  0  0  0  0  0  0  0
   -9.1583   -0.8947    0.6138 C   0  0  0  0  0  0  0  0  0  0  0  0
   -8.8593    0.5756    0.7772 C   0  0  0  0  0  0  0  0  0  0  0  0
   -7.7132    0.7645    1.7118 C   0  0  0  0  0  0  0  0  0  0  0  0
   -8.4794    1.0559   -0.5381 N   0  0  0  0  0  0  0  0  0  0  0  0
   -3.1084    0.3528    1.3090 N   0  0  0  0  0  0  0  0  0  0  0  0
   -1.9051    0.2784    0.7308 N   0  0  0  0  0  0  0  0  0  0  0  0
    1.9949    0.1260   -0.9150 N   0  0  0  0  0  0  0  0  0  0  0  0
    3.0589   -0.5826   -0.5404 C   0  0  0  0  0  0  0  0  0  0  0  0
    4.3704   -0.6737   -0.8984 N   0  0  0  0  0  0  0  0  0  0  0  0
    4.9888    0.1172   -1.9157 C   0  0  0  0  0  0  0  0  0  0  0  0
    4.2470    1.4242   -2.0885 C   0  0  0  0  0  0  0  0  0  0  0  0
    4.5887    2.1488   -0.8076 C   0  0  0  0  0  0  0  0  0  0  0  0
    5.9435    1.5868   -0.3582 C   0  0  0  0  0  0  0  0  0  0  0  0
    6.3411    0.7042   -1.5244 C   0  0  0  0  0  0  0  0  0  0  0  0
    5.8164   -0.8803    2.0741 H   0  0  0  0  0  0  0  0  0  0  0  0
    7.4875   -0.2947    2.2784 H   0  0  0  0  0  0  0  0  0  0  0  0
    7.0712   -1.8800    2.9836 H   0  0  0  0  0  0  0  0  0  0  0  0
    9.3434   -1.8523    1.4102 H   0  0  0  0  0  0  0  0  0  0  0  0
    8.6380   -3.4289    0.7268 H   0  0  0  0  0  0  0  0  0  0  0  0
    9.0147   -2.0479   -0.3442 H   0  0  0  0  0  0  0  0  0  0  0  0
    4.1326   -2.9030    1.4738 H   0  0  0  0  0  0  0  0  0  0  0  0
    1.4053   -2.3234    1.8109 H   0  0  0  0  0  0  0  0  0  0  0  0
   -0.0581    1.5136   -1.7864 H   0  0  0  0  0  0  0  0  0  0  0  0
   -2.2385    2.3729   -1.7810 H   0  0  0  0  0  0  0  0  0  0  0  0
   -4.4970    2.5703   -0.7689 H   0  0  0  0  0  0  0  0  0  0  0  0
   -6.3707   -1.3075    0.1170 H   0  0  0  0  0  0  0  0  0  0  0  0
   -5.5332    0.0465   -0.7638 H   0  0  0  0  0  0  0  0  0  0  0  0
   -7.3898    0.0319   -2.0599 H   0  0  0  0  0  0  0  0  0  0  0  0
   -9.3898   -1.2349   -1.5454 H   0  0  0  0  0  0  0  0  0  0  0  0
   -7.9975   -2.1509   -0.7294 H   0  0  0  0  0  0  0  0  0  0  0  0
  -10.2594   -1.0577    0.7102 H   0  0  0  0  0  0  0  0  0  0  0  0
   -8.6157   -1.4521    1.3984 H   0  0  0  0  0  0  0  0  0  0  0  0
   -9.7282    1.1425    1.1759 H   0  0  0  0  0  0  0  0  0  0  0  0
   -7.7423    0.0847    2.5897 H   0  0  0  0  0  0  0  0  0  0  0  0
   -7.7407    1.8186    2.0813 H   0  0  0  0  0  0  0  0  0  0  0  0
   -7.8617    1.8914   -0.4762 H   0  0  0  0  0  0  0  0  0  0  0  0
    5.0720   -0.4292   -2.8893 H   0  0  0  0  0  0  0  0  0  0  0  0
    4.8027    2.0104   -2.9144 H   0  0  0  0  0  0  0  0  0  0  0  0
    3.1988    1.3557   -2.3356 H   0  0  0  0  0  0  0  0  0  0  0  0
    3.8417    1.9149   -0.0316 H   0  0  0  0  0  0  0  0  0  0  0  0
    4.6631    3.2468   -0.9784 H   0  0  0  0  0  0  0  0  0  0  0  0
    5.8506    0.9934    0.5706 H   0  0  0  0  0  0  0  0  0  0  0  0
    6.6837    2.4070   -0.1964 H   0  0  0  0  0  0  0  0  0  0  0  0
    7.1202    0.0033   -1.3160 H   0  0  0  0  0  0  0  0  0  0  0  0
    6.5868    1.4168   -2.3572 H   0  0  0  0  0  0  0  0  0  0  0  0
  1  2  1  0
  2  3  1  0
  2  4  1  0
  4  5  2  0
  4  6  1  0
  6  7  2  0
  7  8  1  0
  8  9  2  0
  9 10  1  0
 10 11  2  0
 11 12  1  0
 12 13  1  0
 13 14  2  0
 14 15  1  0
 15 16  2  0
 16 17  1  0
 17 18  2  0
 17 19  1  0
 19 20  1  0
 20 21  1  0
 21 22  1  0
 22 23  1  0
 23 24  1  0
 24 25  1  0
 24 26  1  0
 16 27  1  0
 27 28  2  0
 11 29  1  0
 29 30  2  0
 30 31  1  0
 31 32  1  0
 32 33  1  0
 33 34  1  0
 34 35  1  0
 35 36  1  0
 31  6  1  0
 36 32  1  0
 30  8  1  0
 28 13  1  0
 25 19  1  0
 26 21  1  0
  1 37  1  0
  1 38  1  0
  1 39  1  0
  3 40  1  0
  3 41  1  0
  3 42  1  0
  7 43  1  0
  9 44  1  0
 12 45  1  0
 14 46  1  0
 15 47  1  0
 20 48  1  0
 20 49  1  0
 21 50  1  0
 22 51  1  0
 22 52  1  0
 23 53  1  0
 23 54  1  0
 24 55  1  0
 25 56  1  0
 25 57  1  0
 26 58  1  0
 32 59  1  0
 33 60  1  0
 33 61  1  0
 34 62  1  0
 34 63  1  0
 35 64  1  0
 35 65  1  0
 36 66  1  0
 36 67  1  0
M  END
$$$$
