
     RDKit          3D

 29 31  0  0  0  0  0  0  0  0999 V2000
    0.2182    1.6587   -1.0539 Cl  0  0  0  0  0  0  0  0  0  0  0  0
    0.0391    0.1647   -0.1741 C   0  0  0  0  0  0  0  0  0  0  0  0
    1.1353   -0.4898    0.3195 C   0  0  0  0  0  0  0  0  0  0  0  0
    0.4362   -2.0175    1.1715 S   0  0  0  0  0  0  0  0  0  0  0  0
   -1.2652   -1.6458    0.7917 C   0  0  0  0  0  0  0  0  0  0  0  0
   -1.2003   -0.3573    0.0248 C   0  0  0  0  0  0  0  0  0  0  0  0
   -2.4488    0.1671   -0.4048 N   0  0  0  0  0  0  0  0  0  0  0  0
   -3.2938    0.0408   -1.5803 C   0  0  0  0  0  0  0  0  0  0  0  0
   -4.6343   -0.3870   -1.0884 C   0  0  0  0  0  0  0  0  0  0  0  0
   -5.3895   -1.2850   -1.5948 O   0  0  0  0  0  0  0  0  0  0  0  0
   -5.0016    0.3615    0.0784 N   0  0  0  0  0  0  0  0  0  0  0  0
   -3.5391    1.2643    0.3956 S   0  0  0  0  0  0  0  0  0  0  0  0
   -3.6592    2.5565   -0.3425 O   0  0  0  0  0  0  0  0  0  0  0  0
   -3.2508    1.4002    1.8375 O   0  0  0  0  0  0  0  0  0  0  0  0
    2.5756   -0.3235    0.3524 C   0  0  0  0  0  0  0  0  0  0  0  0
    3.3714   -1.2516    0.9824 C   0  0  0  0  0  0  0  0  0  0  0  0
    4.7451   -1.1052    1.0212 C   0  0  0  0  0  0  0  0  0  0  0  0
    5.3334   -0.0255    0.4278 C   0  0  0  0  0  0  0  0  0  0  0  0
    4.5964    0.9331   -0.2150 C   0  0  0  0  0  0  0  0  0  0  0  0
    3.2402    0.7284   -0.2172 C   0  0  0  0  0  0  0  0  0  0  0  0
   -2.1924   -2.1828    1.0285 H   0  0  0  0  0  0  0  0  0  0  0  0
   -2.9389   -0.7016   -2.2942 H   0  0  0  0  0  0  0  0  0  0  0  0
   -3.3791    1.0396   -2.0489 H   0  0  0  0  0  0  0  0  0  0  0  0
   -5.9506    0.3082    0.5533 H   0  0  0  0  0  0  0  0  0  0  0  0
    3.0154   -2.1308    1.4769 H   0  0  0  0  0  0  0  0  0  0  0  0
    5.3862   -1.8184    1.5081 H   0  0  0  0  0  0  0  0  0  0  0  0
    6.4058    0.0868    0.4593 H   0  0  0  0  0  0  0  0  0  0  0  0
    5.0089    1.8057   -0.7004 H   0  0  0  0  0  0  0  0  0  0  0  0
    2.6362    1.4644   -0.7144 H   0  0  0  0  0  0  0  0  0  0  0  0
  1  2  1  0
  2  3  2  0
  3  4  1  0
  4  5  1  0
  5  6  2  0
  6  7  1  0
  7  8  1  0
  8  9  1  0
  9 10  2  0
  9 11  1  0
 11 12  1  0
 12 13  2  0
 12 14  2  0
  3 15  1  0
 15 16  2  0
 16 17  1  0
 17 18  2  0
 18 19  1  0
 19 20  2  0
  6  2  1  0
 12  7  1  0
 20 15  1  0
  5 21  1  0
  8 22  1  0
  8 23  1  0
 11 24  1  0
 16 25  1  0
 17 26  1  0
 18 27  1  0
 19 28  1  0
 20 29  1  0
M  END
$$$$
