
     RDKit          3D

 50 52  0  0  0  0  0  0  0  0999 V2000
    0.1948    0.8994   -0.0358 O   0  0  0  0  0  0  0  0  0  0  0  0
   -0.3279   -0.1389   -0.4692 C   0  0  0  0  0  0  0  0  0  0  0  0
    0.4573   -1.0685   -1.1169 O   0  0  0  0  0  0  0  0  0  0  0  0
    1.8480   -0.9071   -1.3208 C   0  0  0  0  0  0  0  0  0  0  0  0
    2.6056   -0.7758   -0.0352 C   0  0  0  0  0  0  0  0  0  0  0  0
    4.0150   -0.6165   -0.3772 N   0  0  0  0  0  0  0  0  0  0  0  0
    4.8085   -0.4829    0.8411 C   0  0  0  0  0  0  0  0  0  0  0  0
    4.7436    0.9397    1.2919 C   0  0  0  0  0  0  0  0  0  0  0  0
    5.4872    1.7364    0.4185 O   0  0  0  0  0  0  0  0  0  0  0  0
    5.5080    1.2120   -0.8683 C   0  0  0  0  0  0  0  0  0  0  0  0
    4.1546    0.6158   -1.1621 C   0  0  0  0  0  0  0  0  0  0  0  0
   -1.7696   -0.4018   -0.3076 C   0  0  0  0  0  0  0  0  0  0  0  0
   -2.3882    0.7536    0.3526 C   0  0  0  0  0  0  0  0  0  0  0  0
   -3.2548    0.6828    1.4257 C   0  0  0  0  0  0  0  0  0  0  0  0
   -3.8203    1.8134    2.0058 C   0  0  0  0  0  0  0  0  0  0  0  0
   -3.5335    3.0669    1.5249 C   0  0  0  0  0  0  0  0  0  0  0  0
   -2.6752    3.1596    0.4592 C   0  0  0  0  0  0  0  0  0  0  0  0
   -2.1092    2.0192   -0.1207 C   0  0  0  0  0  0  0  0  0  0  0  0
   -2.3111   -0.6223   -1.7062 C   0  0  0  0  0  0  0  0  0  0  0  0
   -3.7411   -1.0123   -1.7340 C   0  0  0  0  0  0  0  0  0  0  0  0
   -4.1675   -1.9109   -0.6225 C   0  0  0  0  0  0  0  0  0  0  0  0
   -3.0031   -2.5814    0.0156 C   0  0  0  0  0  0  0  0  0  0  0  0
   -1.8938   -1.6996    0.4690 C   0  0  0  0  0  0  0  0  0  0  0  0
    2.0746   -0.0680   -2.0056 H   0  0  0  0  0  0  0  0  0  0  0  0
    2.2106   -1.8259   -1.8290 H   0  0  0  0  0  0  0  0  0  0  0  0
    2.2476    0.0042    0.6358 H   0  0  0  0  0  0  0  0  0  0  0  0
    2.5344   -1.7681    0.4850 H   0  0  0  0  0  0  0  0  0  0  0  0
    4.3799   -1.1522    1.6246 H   0  0  0  0  0  0  0  0  0  0  0  0
    5.8533   -0.7746    0.5774 H   0  0  0  0  0  0  0  0  0  0  0  0
    3.7008    1.2643    1.3166 H   0  0  0  0  0  0  0  0  0  0  0  0
    5.1954    0.9775    2.3213 H   0  0  0  0  0  0  0  0  0  0  0  0
    5.6556    2.0392   -1.6031 H   0  0  0  0  0  0  0  0  0  0  0  0
    6.3169    0.4613   -0.9789 H   0  0  0  0  0  0  0  0  0  0  0  0
    3.3713    1.3359   -0.8520 H   0  0  0  0  0  0  0  0  0  0  0  0
    4.1040    0.3945   -2.2449 H   0  0  0  0  0  0  0  0  0  0  0  0
   -3.4910   -0.2878    1.8129 H   0  0  0  0  0  0  0  0  0  0  0  0
   -4.5071    1.7243    2.8598 H   0  0  0  0  0  0  0  0  0  0  0  0
   -3.9617    3.9668    1.9598 H   0  0  0  0  0  0  0  0  0  0  0  0
   -2.4359    4.1351    0.0651 H   0  0  0  0  0  0  0  0  0  0  0  0
   -1.4511    2.1898   -0.9609 H   0  0  0  0  0  0  0  0  0  0  0  0
   -1.6881   -1.4364   -2.1520 H   0  0  0  0  0  0  0  0  0  0  0  0
   -2.1484    0.2740   -2.3178 H   0  0  0  0  0  0  0  0  0  0  0  0
   -4.4182   -0.1156   -1.8008 H   0  0  0  0  0  0  0  0  0  0  0  0
   -3.9227   -1.5584   -2.7003 H   0  0  0  0  0  0  0  0  0  0  0  0
   -4.8080   -1.3960    0.1489 H   0  0  0  0  0  0  0  0  0  0  0  0
   -4.8350   -2.7224   -1.0077 H   0  0  0  0  0  0  0  0  0  0  0  0
   -2.6318   -3.3443   -0.7119 H   0  0  0  0  0  0  0  0  0  0  0  0
   -3.3238   -3.1870    0.9046 H   0  0  0  0  0  0  0  0  0  0  0  0
   -0.9445   -2.3101    0.3392 H   0  0  0  0  0  0  0  0  0  0  0  0
   -1.9046   -1.5010    1.5663 H   0  0  0  0  0  0  0  0  0  0  0  0
  1  2  2  0
  2  3  1  0
  3  4  1  0
  4  5  1  0
  5  6  1  0
  6  7  1  0
  7  8  1  0
  8  9  1  0
  9 10  1  0
 10 11  1  0
  2 12  1  0
 12 13  1  0
 13 14  2  0
 14 15  1  0
 15 16  2  0
 16 17  1  0
 17 18  2  0
 12 19  1  0
 19 20  1  0
 20 21  1  0
 21 22  1  0
 22 23  1  0
 11  6  1  0
 23 12  1  0
 18 13  1  0
  4 24  1  0
  4 25  1  0
  5 26  1  0
  5 27  1  0
  7 28  1  0
  7 29  1  0
  8 30  1  0
  8 31  1  0
 10 32  1  0
 10 33  1  0
 11 34  1  0
 11 35  1  0
 14 36  1  0
 15 37  1  0
 16 38  1  0
 17 39  1  0
 18 40  1  0
 19 41  1  0
 19 42  1  0
 20 43  1  0
 20 44  1  0
 21 45  1  0
 21 46  1  0
 22 47  1  0
 22 48  1  0
 23 49  1  0
 23 50  1  0
M  END
$$$$
