
     RDKit          3D

 56 60  0  0  0  0  0  0  0  0999 V2000
   -0.4262   -0.1792    2.0586 C   0  0  0  0  0  0  0  0  0  0  0  0
   -0.5048    1.1738    1.2389 C   0  0  2  0  0  0  0  0  0  0  0  0
    0.9081    1.4257    0.8695 C   0  0  0  0  0  0  0  0  0  0  0  0
    1.8701    0.4072    0.8847 C   0  0  0  0  0  0  0  0  0  0  0  0
    3.1817    0.6055    0.5059 C   0  0  0  0  0  0  0  0  0  0  0  0
    4.1352   -0.5026    0.5480 C   0  0  0  0  0  0  0  0  0  0  0  0
    5.0587   -0.6767   -0.3582 C   0  0  0  0  0  0  0  0  0  0  0  0
    5.0714    0.2650   -1.3662 F   0  0  0  0  0  0  0  0  0  0  0  0
    6.0385   -1.7529   -0.3847 C   0  0  0  0  0  0  0  0  0  0  0  0
    6.0982   -2.7366    0.5539 C   0  0  0  0  0  0  0  0  0  0  0  0
    7.0427   -3.7596    0.5146 C   0  0  0  0  0  0  0  0  0  0  0  0
    7.9708   -3.8014   -0.5108 C   0  0  0  0  0  0  0  0  0  0  0  0
    9.1880   -5.0496   -0.6400 Cl  0  0  0  0  0  0  0  0  0  0  0  0
    7.8789   -2.7735   -1.4571 C   0  0  0  0  0  0  0  0  0  0  0  0
    6.9476   -1.8075   -1.3748 N   0  0  0  0  0  0  0  0  0  0  0  0
    3.5064    1.8843    0.1028 C   0  0  0  0  0  0  0  0  0  0  0  0
    2.5792    2.8991    0.0803 C   0  0  0  0  0  0  0  0  0  0  0  0
    1.2658    2.6922    0.4626 C   0  0  0  0  0  0  0  0  0  0  0  0
    0.3834    3.7513    0.4632 F   0  0  0  0  0  0  0  0  0  0  0  0
   -0.8459    2.0893    2.2801 N   0  0  0  0  0  0  0  0  0  0  0  0
   -1.7456    2.9536    2.3536 C   0  0  0  0  0  0  0  0  0  0  0  0
   -1.8556    3.7354    3.5290 N   0  0  0  0  0  0  0  0  0  0  0  0
   -2.8288    3.1409    0.9617 S   0  0  0  0  0  0  0  0  0  0  0  0
   -2.5859    1.6943   -0.0811 C   0  0  1  0  0  0  0  0  0  0  0  0
   -3.8390    1.0510   -0.5293 C   0  0  0  0  0  0  0  0  0  0  0  0
   -4.8999    1.7490   -0.4969 O   0  0  0  0  0  0  0  0  0  0  0  0
   -3.9824   -0.2665   -0.9930 N   0  0  0  0  0  0  0  0  0  0  0  0
   -5.2784   -0.7613   -1.3968 C   0  0  0  0  0  0  0  0  0  0  0  0
   -6.0978   -1.3761   -0.4760 C   0  0  0  0  0  0  0  0  0  0  0  0
   -7.3413   -1.8563   -0.8351 C   0  0  0  0  0  0  0  0  0  0  0  0
   -7.7883   -1.7281   -2.1308 C   0  0  0  0  0  0  0  0  0  0  0  0
   -6.9890   -1.1138   -3.0852 C   0  0  0  0  0  0  0  0  0  0  0  0
   -5.7340   -0.6371   -2.6922 C   0  0  0  0  0  0  0  0  0  0  0  0
   -1.4999    1.7276   -1.1258 C   0  0  0  0  0  0  0  0  0  0  0  0
   -1.3627    0.9292    0.1178 C   0  0  1  0  0  0  0  0  0  0  0  0
   -1.3773   -0.1945    2.6442 H   0  0  0  0  0  0  0  0  0  0  0  0
    0.3977   -0.0534    2.7526 H   0  0  0  0  0  0  0  0  0  0  0  0
   -0.3793   -1.0200    1.3622 H   0  0  0  0  0  0  0  0  0  0  0  0
    1.5828   -0.5990    1.2083 H   0  0  0  0  0  0  0  0  0  0  0  0
    4.0899   -1.2358    1.3737 H   0  0  0  0  0  0  0  0  0  0  0  0
    5.4030   -2.7626    1.3795 H   0  0  0  0  0  0  0  0  0  0  0  0
    7.0756   -4.5393    1.2747 H   0  0  0  0  0  0  0  0  0  0  0  0
    8.6042   -2.8069   -2.2567 H   0  0  0  0  0  0  0  0  0  0  0  0
    4.4972    2.1151   -0.1998 H   0  0  0  0  0  0  0  0  0  0  0  0
    2.8351    3.9154   -0.2400 H   0  0  0  0  0  0  0  0  0  0  0  0
   -1.4134    4.6689    3.5932 H   0  0  0  0  0  0  0  0  0  0  0  0
   -2.3864    3.3683    4.3366 H   0  0  0  0  0  0  0  0  0  0  0  0
   -3.1450   -0.8755   -1.0417 H   0  0  0  0  0  0  0  0  0  0  0  0
   -5.7507   -1.4839    0.5599 H   0  0  0  0  0  0  0  0  0  0  0  0
   -7.9842   -2.3410   -0.1060 H   0  0  0  0  0  0  0  0  0  0  0  0
   -8.7652   -2.1075   -2.4079 H   0  0  0  0  0  0  0  0  0  0  0  0
   -7.3321   -1.0088   -4.1048 H   0  0  0  0  0  0  0  0  0  0  0  0
   -5.1131   -0.1569   -3.4441 H   0  0  0  0  0  0  0  0  0  0  0  0
   -1.1210    2.7198   -1.3137 H   0  0  0  0  0  0  0  0  0  0  0  0
   -1.7170    1.1919   -2.1060 H   0  0  0  0  0  0  0  0  0  0  0  0
   -1.5199   -0.1898   -0.1130 H   0  0  0  0  0  0  0  0  0  0  0  0
  2  1  1  1
  2  3  1  0
  3  4  2  0
  4  5  1  0
  5  6  1  0
  6  7  2  0
  7  8  1  0
  7  9  1  0
  9 10  2  0
 10 11  1  0
 11 12  2  0
 12 13  1  0
 12 14  1  0
 14 15  2  0
  5 16  2  0
 16 17  1  0
 17 18  2  0
 18 19  1  0
  2 20  1  0
 20 21  2  0
 21 22  1  0
 21 23  1  0
 23 24  1  0
 24 25  1  6
 25 26  2  0
 25 27  1  0
 27 28  1  0
 28 29  2  0
 29 30  1  0
 30 31  2  0
 31 32  1  0
 32 33  2  0
 24 34  1  0
 34 35  1  0
 35  2  1  0
 18  3  1  0
 35 24  1  0
 15  9  1  0
 33 28  1  0
  1 36  1  0
  1 37  1  0
  1 38  1  0
  4 39  1  0
  6 40  1  0
 10 41  1  0
 11 42  1  0
 14 43  1  0
 16 44  1  0
 17 45  1  0
 22 46  1  0
 22 47  1  0
 27 48  1  0
 29 49  1  0
 30 50  1  0
 31 51  1  0
 32 52  1  0
 33 53  1  0
 34 54  1  0
 34 55  1  0
 35 56  1  6
M  END
$$$$
