
     RDKit          3D

 48 49  0  0  0  0  0  0  0  0999 V2000
    6.1422    0.2904    0.8446 C   0  0  0  0  0  0  0  0  0  0  0  0
    5.0479    1.0596    0.4191 O   0  0  0  0  0  0  0  0  0  0  0  0
    3.8256    0.4657    0.1190 C   0  0  0  0  0  0  0  0  0  0  0  0
    3.6601   -0.8846    0.2329 C   0  0  0  0  0  0  0  0  0  0  0  0
    2.4581   -1.4592   -0.0624 C   0  0  0  0  0  0  0  0  0  0  0  0
    2.3985   -2.8592    0.0792 O   0  0  0  0  0  0  0  0  0  0  0  0
    1.3218   -0.7287   -0.4941 C   0  0  0  0  0  0  0  0  0  0  0  0
    1.4963    0.6258   -0.6101 C   0  0  0  0  0  0  0  0  0  0  0  0
    2.7409    1.2013   -0.3015 C   0  0  0  0  0  0  0  0  0  0  0  0
    0.5054    1.5896   -1.1312 C   0  0  0  0  0  0  0  0  0  0  0  0
    0.5721    2.9079   -0.4569 C   0  0  0  0  0  0  0  0  0  0  0  0
   -0.5988    3.8151   -1.0543 C   0  0  0  0  0  0  0  0  0  0  0  0
   -1.7569    2.9301   -1.0018 C   0  0  0  0  0  0  0  0  0  0  0  0
   -2.0539    2.4324   -2.1840 O   0  0  0  0  0  0  0  0  0  0  0  0
   -2.5998    2.4783    0.0950 C   0  0  0  0  0  0  0  0  0  0  0  0
   -3.4730    3.3043    0.5777 O   0  0  0  0  0  0  0  0  0  0  0  0
   -2.5610    1.1634    0.7250 C   0  0  0  0  0  0  0  0  0  0  0  0
   -1.4294    0.9210    1.4440 O   0  0  0  0  0  0  0  0  0  0  0  0
   -3.4562    0.0136    0.7373 C   0  0  0  0  0  0  0  0  0  0  0  0
   -3.5213   -0.4613   -0.7409 C   0  0  0  0  0  0  0  0  0  0  0  0
   -3.4416   -1.9633   -0.7647 C   0  0  0  0  0  0  0  0  0  0  0  0
   -2.0943   -2.4627   -0.5276 C   0  0  2  0  0  0  0  0  0  0  0  0
   -2.1508   -3.8030    0.2276 C   0  0  0  0  0  0  0  0  0  0  0  0
   -1.1014   -1.5981   -0.1510 O   0  0  0  0  0  0  0  0  0  0  0  0
    0.1724   -1.5520   -0.7427 C   0  0  0  0  0  0  0  0  0  0  0  0
    0.2937   -2.4464   -1.6881 O   0  0  0  0  0  0  0  0  0  0  0  0
    6.3215   -0.5542    0.1186 H   0  0  0  0  0  0  0  0  0  0  0  0
    5.8780   -0.1087    1.8552 H   0  0  0  0  0  0  0  0  0  0  0  0
    7.0473    0.9060    0.8477 H   0  0  0  0  0  0  0  0  0  0  0  0
    4.5233   -1.4646    0.5664 H   0  0  0  0  0  0  0  0  0  0  0  0
    2.4025   -3.2756    1.0129 H   0  0  0  0  0  0  0  0  0  0  0  0
    2.9188    2.2655   -0.3795 H   0  0  0  0  0  0  0  0  0  0  0  0
   -0.5026    1.1346   -1.2148 H   0  0  0  0  0  0  0  0  0  0  0  0
    0.7844    1.7731   -2.2228 H   0  0  0  0  0  0  0  0  0  0  0  0
    0.4828    2.8731    0.6140 H   0  0  0  0  0  0  0  0  0  0  0  0
    1.4484    3.4775   -0.7693 H   0  0  0  0  0  0  0  0  0  0  0  0
   -0.5530    4.7244   -0.4991 H   0  0  0  0  0  0  0  0  0  0  0  0
   -0.3184    4.0248   -2.0964 H   0  0  0  0  0  0  0  0  0  0  0  0
   -4.4441    0.1324    1.1059 H   0  0  0  0  0  0  0  0  0  0  0  0
   -2.9939   -0.8614    1.2972 H   0  0  0  0  0  0  0  0  0  0  0  0
   -2.6253   -0.0568   -1.2324 H   0  0  0  0  0  0  0  0  0  0  0  0
   -4.4409   -0.0643   -1.1921 H   0  0  0  0  0  0  0  0  0  0  0  0
   -3.8482   -2.3033   -1.7660 H   0  0  0  0  0  0  0  0  0  0  0  0
   -4.1520   -2.3159    0.0303 H   0  0  0  0  0  0  0  0  0  0  0  0
   -1.7121   -2.8970   -1.5588 H   0  0  0  0  0  0  0  0  0  0  0  0
   -2.9404   -4.3914   -0.2859 H   0  0  0  0  0  0  0  0  0  0  0  0
   -2.4703   -3.6577    1.2605 H   0  0  0  0  0  0  0  0  0  0  0  0
   -1.2024   -4.3404    0.0939 H   0  0  0  0  0  0  0  0  0  0  0  0
  1  2  1  0
  2  3  1  0
  3  4  2  0
  4  5  1  0
  5  6  1  0
  5  7  2  0
  7  8  1  0
  8  9  2  0
  8 10  1  0
 10 11  1  0
 11 12  1  0
 12 13  1  0
 13 14  2  0
 13 15  1  0
 15 16  2  0
 15 17  1  0
 17 18  2  0
 17 19  1  0
 19 20  1  0
 20 21  1  0
 21 22  1  0
 22 23  1  0
 22 24  1  0
 24 25  1  0
 25 26  2  0
  9  3  1  0
 25  7  1  0
  1 27  1  0
  1 28  1  0
  1 29  1  0
  4 30  1  0
  6 31  1  0
  9 32  1  0
 10 33  1  0
 10 34  1  0
 11 35  1  0
 11 36  1  0
 12 37  1  0
 12 38  1  0
 19 39  1  0
 19 40  1  0
 20 41  1  0
 20 42  1  0
 21 43  1  0
 21 44  1  0
 22 45  1  6
 23 46  1  0
 23 47  1  0
 23 48  1  0
M  END
$$$$
