
     RDKit          3D

 59 64  0  0  0  0  0  0  0  0999 V2000
   -2.9123   -3.3885   -2.7633 C   0  0  0  0  0  0  0  0  0  0  0  0
   -2.7150   -2.2887   -1.9264 O   0  0  0  0  0  0  0  0  0  0  0  0
   -1.5229   -1.7590   -1.5153 C   0  0  0  0  0  0  0  0  0  0  0  0
   -1.3326   -0.6717   -0.6878 C   0  0  0  0  0  0  0  0  0  0  0  0
   -0.0312   -0.2845   -0.3840 C   0  0  0  0  0  0  0  0  0  0  0  0
    1.0789   -0.9543   -0.8845 C   0  0  0  0  0  0  0  0  0  0  0  0
    0.8749   -2.0273   -1.7010 C   0  0  0  0  0  0  0  0  0  0  0  0
   -0.4068   -2.4292   -2.0159 C   0  0  0  0  0  0  0  0  0  0  0  0
    2.4454   -0.5420   -0.5619 C   0  0  0  0  0  0  0  0  0  0  0  0
    2.8970    0.0370    0.6057 C   0  0  0  0  0  0  0  0  0  0  0  0
    4.2194    0.3603    0.7381 C   0  0  0  0  0  0  0  0  0  0  0  0
    5.1680    0.1512   -0.2230 C   0  0  0  0  0  0  0  0  0  0  0  0
    4.7368   -0.4299   -1.4057 C   0  0  0  0  0  0  0  0  0  0  0  0
    3.4070   -0.7611   -1.5536 C   0  0  0  0  0  0  0  0  0  0  0  0
    6.4853    0.4821   -0.0689 C   0  0  0  0  0  0  0  0  0  0  0  0
    6.9283    1.0566    1.0932 C   0  0  0  0  0  0  0  0  0  0  0  0
    5.9914    1.2801    2.0830 C   0  0  0  0  0  0  0  0  0  0  0  0
    4.6616    0.9390    1.9106 C   0  0  0  0  0  0  0  0  0  0  0  0
    8.3393    1.4191    1.2783 C   0  0  0  0  0  0  0  0  0  0  0  0
    9.2227    1.1674    0.2469 O   0  0  0  0  0  0  0  0  0  0  0  0
    8.8008    1.9470    2.3203 O   0  0  0  0  0  0  0  0  0  0  0  0
   -2.5316   -0.0010   -0.1877 C   0  0  0  0  0  0  0  0  0  0  0  0
   -3.4252   -0.9039    0.6234 C   0  0  0  0  0  0  0  0  0  0  0  0
   -4.7485   -0.1878    0.8741 C   0  0  0  0  0  0  0  0  0  0  0  0
   -5.3965    0.2757   -0.4044 C   0  0  0  0  0  0  0  0  0  0  0  0
   -4.5149    1.3439   -0.9727 C   0  0  0  0  0  0  0  0  0  0  0  0
   -4.1868    2.4602   -0.0286 C   0  0  0  0  0  0  0  0  0  0  0  0
   -3.4528    1.8594    1.1491 C   0  0  0  0  0  0  0  0  0  0  0  0
   -4.4483    0.9441    1.8337 C   0  0  0  0  0  0  0  0  0  0  0  0
   -2.1824    1.1523    0.7641 C   0  0  0  0  0  0  0  0  0  0  0  0
   -3.2241    0.6571   -1.3561 C   0  0  0  0  0  0  0  0  0  0  0  0
   -2.3379   -4.2763   -2.3795 H   0  0  0  0  0  0  0  0  0  0  0  0
   -2.7159   -3.2293   -3.8252 H   0  0  0  0  0  0  0  0  0  0  0  0
   -3.9899   -3.6969   -2.6617 H   0  0  0  0  0  0  0  0  0  0  0  0
    0.1014    0.5732    0.2687 H   0  0  0  0  0  0  0  0  0  0  0  0
    1.7304   -2.5790   -2.1132 H   0  0  0  0  0  0  0  0  0  0  0  0
   -0.4837   -3.3032   -2.6803 H   0  0  0  0  0  0  0  0  0  0  0  0
    2.1446    0.1960    1.3513 H   0  0  0  0  0  0  0  0  0  0  0  0
    5.4766   -0.6012   -2.1751 H   0  0  0  0  0  0  0  0  0  0  0  0
    3.1828   -1.2106   -2.5224 H   0  0  0  0  0  0  0  0  0  0  0  0
    7.1850    0.2925   -0.8634 H   0  0  0  0  0  0  0  0  0  0  0  0
    6.3665    1.7348    2.9910 H   0  0  0  0  0  0  0  0  0  0  0  0
    3.9698    1.1380    2.7224 H   0  0  0  0  0  0  0  0  0  0  0  0
   10.2087    1.3369    0.3831 H   0  0  0  0  0  0  0  0  0  0  0  0
   -3.5939   -1.8925    0.1979 H   0  0  0  0  0  0  0  0  0  0  0  0
   -2.9606   -0.9564    1.6530 H   0  0  0  0  0  0  0  0  0  0  0  0
   -5.4148   -0.9034    1.3909 H   0  0  0  0  0  0  0  0  0  0  0  0
   -6.4278    0.5552   -0.2056 H   0  0  0  0  0  0  0  0  0  0  0  0
   -5.3555   -0.5848   -1.1028 H   0  0  0  0  0  0  0  0  0  0  0  0
   -4.9555    1.7283   -1.9069 H   0  0  0  0  0  0  0  0  0  0  0  0
   -5.1308    2.8794    0.3760 H   0  0  0  0  0  0  0  0  0  0  0  0
   -3.6159    3.2131   -0.5743 H   0  0  0  0  0  0  0  0  0  0  0  0
   -3.1757    2.6429    1.9054 H   0  0  0  0  0  0  0  0  0  0  0  0
   -3.9502    0.4908    2.7074 H   0  0  0  0  0  0  0  0  0  0  0  0
   -5.3257    1.5478    2.1034 H   0  0  0  0  0  0  0  0  0  0  0  0
   -1.5022    1.8781    0.3195 H   0  0  0  0  0  0  0  0  0  0  0  0
   -1.7782    0.7078    1.6969 H   0  0  0  0  0  0  0  0  0  0  0  0
   -2.5507    1.4721   -1.7050 H   0  0  0  0  0  0  0  0  0  0  0  0
   -3.3260   -0.0570   -2.1676 H   0  0  0  0  0  0  0  0  0  0  0  0
  1  2  1  0
  2  3  1  0
  3  4  2  0
  4  5  1  0
  5  6  2  0
  6  7  1  0
  7  8  2  0
  6  9  1  0
  9 10  2  0
 10 11  1  0
 11 12  2  0
 12 13  1  0
 13 14  2  0
 12 15  1  0
 15 16  2  0
 16 17  1  0
 17 18  2  0
 16 19  1  0
 19 20  1  0
 19 21  2  0
  4 22  1  0
 22 23  1  0
 23 24  1  0
 24 25  1  0
 25 26  1  0
 26 27  1  0
 27 28  1  0
 28 29  1  0
 28 30  1  0
 26 31  1  0
  8  3  1  0
 14  9  1  0
 30 22  1  0
 18 11  1  0
 31 22  1  0
 29 24  1  0
  1 32  1  0
  1 33  1  0
  1 34  1  0
  5 35  1  0
  7 36  1  0
  8 37  1  0
 10 38  1  0
 13 39  1  0
 14 40  1  0
 15 41  1  0
 17 42  1  0
 18 43  1  0
 20 44  1  0
 23 45  1  0
 23 46  1  0
 24 47  1  0
 25 48  1  0
 25 49  1  0
 26 50  1  0
 27 51  1  0
 27 52  1  0
 28 53  1  0
 29 54  1  0
 29 55  1  0
 30 56  1  0
 30 57  1  0
 31 58  1  0
 31 59  1  0
M  END
$$$$
