
     RDKit          3D

 68 71  0  0  0  0  0  0  0  0999 V2000
   -1.9938    6.3621    0.2571 N   0  0  0  0  0  0  0  0  0  0  0  0
   -1.6975    6.8922   -1.0280 C   0  0  0  0  0  0  0  0  0  0  0  0
   -1.6684    8.2969   -1.2023 N   0  0  0  0  0  0  0  0  0  0  0  0
   -1.4588    6.1123   -2.0193 N   0  0  0  0  0  0  0  0  0  0  0  0
   -1.4800    4.6987   -1.8770 C   0  0  0  0  0  0  0  0  0  0  0  0
   -2.5484    4.1077   -1.2369 C   0  0  0  0  0  0  0  0  0  0  0  0
   -2.5807    2.7365   -1.0926 C   0  0  0  0  0  0  0  0  0  0  0  0
   -1.5536    1.9344   -1.5814 C   0  0  0  0  0  0  0  0  0  0  0  0
   -1.6086    0.4758   -1.4276 C   0  0  0  0  0  0  0  0  0  0  0  0
   -1.0348   -0.0621   -0.1609 C   0  0  0  0  0  0  0  0  0  0  0  0
   -1.2040   -1.5238   -0.2227 N   0  0  0  0  0  0  0  0  0  0  0  0
   -2.0109   -2.2393    0.6809 C   0  0  0  0  0  0  0  0  0  0  0  0
   -2.6170   -1.6036    1.5825 O   0  0  0  0  0  0  0  0  0  0  0  0
   -2.1854   -3.6117    0.6452 O   0  0  0  0  0  0  0  0  0  0  0  0
   -3.0226   -4.2842    1.5952 C   0  0  0  0  0  0  0  0  0  0  0  0
   -3.0533   -5.7287    1.3654 C   0  0  0  0  0  0  0  0  0  0  0  0
   -2.1368   -6.5531    1.9830 C   0  0  0  0  0  0  0  0  0  0  0  0
   -2.1781   -7.9316    1.7517 C   0  0  0  0  0  0  0  0  0  0  0  0
   -3.1105   -8.4989    0.9214 C   0  0  0  0  0  0  0  0  0  0  0  0
   -4.0303   -7.6718    0.3015 C   0  0  0  0  0  0  0  0  0  0  0  0
   -3.9860   -6.3035    0.5337 C   0  0  0  0  0  0  0  0  0  0  0  0
    0.7303    0.3254    0.0445 P   0  0  0  0  0  5  0  0  0  0  0  0
    0.8824    1.8111    0.0533 O   0  0  0  0  0  0  0  0  0  0  0  0
    1.5601   -0.4145   -1.2574 O   0  0  0  0  0  0  0  0  0  0  0  0
    2.7454    0.0338   -1.7923 C   0  0  0  0  0  0  0  0  0  0  0  0
    2.7716    0.4869   -3.0920 C   0  0  0  0  0  0  0  0  0  0  0  0
    3.9341    0.9472   -3.6763 C   0  0  0  0  0  0  0  0  0  0  0  0
    5.1098    0.9624   -2.9580 C   0  0  0  0  0  0  0  0  0  0  0  0
    5.0977    0.5163   -1.6698 C   0  0  0  0  0  0  0  0  0  0  0  0
    3.9286    0.0561   -1.0904 C   0  0  0  0  0  0  0  0  0  0  0  0
    1.1987   -0.3778    1.5385 O   0  0  0  0  0  0  0  0  0  0  0  0
    2.3146    0.0118    2.2574 C   0  0  0  0  0  0  0  0  0  0  0  0
    2.6978    1.3196    2.4474 C   0  0  0  0  0  0  0  0  0  0  0  0
    3.8173    1.6832    3.1694 C   0  0  0  0  0  0  0  0  0  0  0  0
    4.6091    0.6847    3.7408 C   0  0  0  0  0  0  0  0  0  0  0  0
    4.2457   -0.6324    3.5644 C   0  0  0  0  0  0  0  0  0  0  0  0
    3.1200   -0.9674    2.8369 C   0  0  0  0  0  0  0  0  0  0  0  0
   -0.4955    2.5232   -2.2158 C   0  0  0  0  0  0  0  0  0  0  0  0
   -0.4569    3.9138   -2.3653 C   0  0  0  0  0  0  0  0  0  0  0  0
   -1.5057    5.5387    0.6519 H   0  0  0  0  0  0  0  0  0  0  0  0
   -2.7458    6.8502    0.8048 H   0  0  0  0  0  0  0  0  0  0  0  0
   -1.2630    8.7330   -2.0698 H   0  0  0  0  0  0  0  0  0  0  0  0
   -2.0440    8.9457   -0.4851 H   0  0  0  0  0  0  0  0  0  0  0  0
   -3.3493    4.7252   -0.8552 H   0  0  0  0  0  0  0  0  0  0  0  0
   -3.4394    2.3007   -0.5820 H   0  0  0  0  0  0  0  0  0  0  0  0
   -1.0898   -0.0600   -2.2682 H   0  0  0  0  0  0  0  0  0  0  0  0
   -2.6839    0.1834   -1.4735 H   0  0  0  0  0  0  0  0  0  0  0  0
   -1.6370    0.2870    0.6905 H   0  0  0  0  0  0  0  0  0  0  0  0
   -0.6914   -2.0236   -0.9797 H   0  0  0  0  0  0  0  0  0  0  0  0
   -4.0425   -3.8390    1.5161 H   0  0  0  0  0  0  0  0  0  0  0  0
   -2.6592   -4.1009    2.6323 H   0  0  0  0  0  0  0  0  0  0  0  0
   -1.4126   -6.1128    2.6283 H   0  0  0  0  0  0  0  0  0  0  0  0
   -1.4528   -8.5531    2.2448 H   0  0  0  0  0  0  0  0  0  0  0  0
   -3.1053   -9.5798    0.7703 H   0  0  0  0  0  0  0  0  0  0  0  0
   -4.7774   -8.1173   -0.3625 H   0  0  0  0  0  0  0  0  0  0  0  0
   -4.7159   -5.6629    0.0400 H   0  0  0  0  0  0  0  0  0  0  0  0
    1.8896    0.5032   -3.7149 H   0  0  0  0  0  0  0  0  0  0  0  0
    3.9250    1.3034   -4.7172 H   0  0  0  0  0  0  0  0  0  0  0  0
    6.0395    1.3287   -3.4191 H   0  0  0  0  0  0  0  0  0  0  0  0
    6.0407    0.5329   -1.1069 H   0  0  0  0  0  0  0  0  0  0  0  0
    3.9792   -0.2834   -0.0768 H   0  0  0  0  0  0  0  0  0  0  0  0
    2.1044    2.1120    2.0174 H   0  0  0  0  0  0  0  0  0  0  0  0
    4.1149    2.7118    3.3167 H   0  0  0  0  0  0  0  0  0  0  0  0
    5.5001    0.9134    4.3182 H   0  0  0  0  0  0  0  0  0  0  0  0
    4.8202   -1.4661    3.9842 H   0  0  0  0  0  0  0  0  0  0  0  0
    2.8207   -1.9950    2.6883 H   0  0  0  0  0  0  0  0  0  0  0  0
    0.3338    1.9627   -2.6222 H   0  0  0  0  0  0  0  0  0  0  0  0
    0.3952    4.3743   -2.8747 H   0  0  0  0  0  0  0  0  0  0  0  0
  1  2  1  0
  2  3  1  0
  2  4  2  3
  4  5  1  0
  5  6  2  0
  6  7  1  0
  7  8  2  0
  8  9  1  0
  9 10  1  0
 10 11  1  0
 11 12  1  0
 12 13  2  0
 12 14  1  0
 14 15  1  0
 15 16  1  0
 16 17  2  0
 17 18  1  0
 18 19  2  0
 19 20  1  0
 20 21  2  0
 10 22  1  0
 22 23  2  0
 22 24  1  0
 24 25  1  0
 25 26  2  0
 26 27  1  0
 27 28  2  0
 28 29  1  0
 29 30  2  0
 22 31  1  0
 31 32  1  0
 32 33  2  0
 33 34  1  0
 34 35  2  0
 35 36  1  0
 36 37  2  0
  8 38  1  0
 38 39  2  0
 39  5  1  0
 21 16  1  0
 30 25  1  0
 37 32  1  0
  1 40  1  0
  1 41  1  0
  3 42  1  0
  3 43  1  0
  6 44  1  0
  7 45  1  0
  9 46  1  0
  9 47  1  0
 10 48  1  0
 11 49  1  0
 15 50  1  0
 15 51  1  0
 17 52  1  0
 18 53  1  0
 19 54  1  0
 20 55  1  0
 21 56  1  0
 26 57  1  0
 27 58  1  0
 28 59  1  0
 29 60  1  0
 30 61  1  0
 33 62  1  0
 34 63  1  0
 35 64  1  0
 36 65  1  0
 37 66  1  0
 38 67  1  0
 39 68  1  0
M  END
$$$$
