
     RDKit          3D

 56 60  0  0  0  0  0  0  0  0999 V2000
   -2.3735    1.3318    2.0771 C   0  0  0  0  0  0  0  0  0  0  0  0
   -3.7752    1.3416    1.6066 C   0  0  0  0  0  0  0  0  0  0  0  0
   -4.8526    1.8731    2.1801 N   0  0  0  0  0  0  0  0  0  0  0  0
   -5.9257    1.6691    1.4426 N   0  0  0  0  0  0  0  0  0  0  0  0
   -7.2698    2.1027    1.7486 C   0  0  0  0  0  0  0  0  0  0  0  0
   -5.5432    0.9826    0.3506 C   0  0  0  0  0  0  0  0  0  0  0  0
   -6.4534    0.5474   -0.7423 C   0  0  0  0  0  0  0  0  0  0  0  0
   -4.1890    0.7554    0.4163 C   0  0  0  0  0  0  0  0  0  0  0  0
   -3.3194    0.0525   -0.5355 C   0  0  0  0  0  0  0  0  0  0  0  0
   -1.9937   -0.1185   -0.3786 N   0  0  0  0  0  0  0  0  0  0  0  0
   -1.4672   -0.7948   -1.4024 C   0  0  0  0  0  0  0  0  0  0  0  0
   -0.2030   -1.2514   -1.7768 C   0  0  0  0  0  0  0  0  0  0  0  0
    0.8632   -0.9772   -0.9151 N   0  0  0  0  0  0  0  0  0  0  0  0
    1.6349    0.2448   -1.0649 C   0  0  0  0  0  0  0  0  0  0  0  0
    3.1071   -0.0416   -0.7405 C   0  0  0  0  0  0  0  0  0  0  0  0
    3.1848   -0.3358    0.6533 N   0  0  0  0  0  0  0  0  0  0  0  0
    4.3773   -1.0663    0.9621 C   0  0  0  0  0  0  0  0  0  0  0  0
    5.5879   -0.2887    0.5951 C   0  0  0  0  0  0  0  0  0  0  0  0
    6.1946    0.5795    1.5081 C   0  0  0  0  0  0  0  0  0  0  0  0
    7.3191    1.3008    1.1652 C   0  0  0  0  0  0  0  0  0  0  0  0
    7.8812    1.1867   -0.0940 C   0  0  0  0  0  0  0  0  0  0  0  0
    7.2938    0.3560   -0.9552 N   0  0  0  0  0  0  0  0  0  0  0  0
    6.1902   -0.3629   -0.6438 C   0  0  0  0  0  0  0  0  0  0  0  0
    2.0010   -0.9231    1.1942 C   0  0  0  0  0  0  0  0  0  0  0  0
    1.3014   -1.8304    0.1687 C   0  0  0  0  0  0  0  0  0  0  0  0
   -0.0479   -1.9439   -2.9591 C   0  0  0  0  0  0  0  0  0  0  0  0
    1.6972   -2.5437   -3.4216 Br  0  0  0  0  0  0  0  0  0  0  0  0
   -1.1193   -2.1967   -3.7841 C   0  0  0  0  0  0  0  0  0  0  0  0
   -2.3244   -1.7489   -3.4049 N   0  0  0  0  0  0  0  0  0  0  0  0
   -2.5094   -1.0708   -2.2586 C   0  0  0  0  0  0  0  0  0  0  0  0
   -3.6117   -0.5386   -1.6928 N   0  0  0  0  0  0  0  0  0  0  0  0
   -1.6893    1.8681    1.4050 H   0  0  0  0  0  0  0  0  0  0  0  0
   -2.0003    0.2903    2.1577 H   0  0  0  0  0  0  0  0  0  0  0  0
   -2.3447    1.7343    3.1271 H   0  0  0  0  0  0  0  0  0  0  0  0
   -7.3429    2.3349    2.8507 H   0  0  0  0  0  0  0  0  0  0  0  0
   -7.5146    3.0632    1.2379 H   0  0  0  0  0  0  0  0  0  0  0  0
   -8.0214    1.3131    1.5411 H   0  0  0  0  0  0  0  0  0  0  0  0
   -7.5059    0.8834   -0.4994 H   0  0  0  0  0  0  0  0  0  0  0  0
   -6.5309   -0.5619   -0.8130 H   0  0  0  0  0  0  0  0  0  0  0  0
   -6.2260    1.0356   -1.7122 H   0  0  0  0  0  0  0  0  0  0  0  0
    1.2907    1.0346   -0.3511 H   0  0  0  0  0  0  0  0  0  0  0  0
    1.6201    0.6516   -2.0772 H   0  0  0  0  0  0  0  0  0  0  0  0
    3.3934   -0.8852   -1.4007 H   0  0  0  0  0  0  0  0  0  0  0  0
    3.6727    0.8588   -0.9878 H   0  0  0  0  0  0  0  0  0  0  0  0
    4.4130   -2.0282    0.3737 H   0  0  0  0  0  0  0  0  0  0  0  0
    4.4272   -1.3634    2.0240 H   0  0  0  0  0  0  0  0  0  0  0  0
    5.7650    0.6777    2.4956 H   0  0  0  0  0  0  0  0  0  0  0  0
    7.8188    1.9852    1.8465 H   0  0  0  0  0  0  0  0  0  0  0  0
    8.7679    1.7476   -0.3824 H   0  0  0  0  0  0  0  0  0  0  0  0
    5.7904   -0.9987   -1.3913 H   0  0  0  0  0  0  0  0  0  0  0  0
    1.2759   -0.1917    1.5896 H   0  0  0  0  0  0  0  0  0  0  0  0
    2.2938   -1.5798    2.0394 H   0  0  0  0  0  0  0  0  0  0  0  0
    2.0627   -2.5554   -0.1300 H   0  0  0  0  0  0  0  0  0  0  0  0
    0.4401   -2.2545    0.6948 H   0  0  0  0  0  0  0  0  0  0  0  0
   -0.9654   -2.7487   -4.7161 H   0  0  0  0  0  0  0  0  0  0  0  0
   -4.5458   -0.6014   -2.1307 H   0  0  0  0  0  0  0  0  0  0  0  0
  1  2  1  0
  2  3  2  0
  3  4  1  0
  4  5  1  0
  4  6  1  0
  6  7  1  0
  6  8  2  0
  8  9  1  0
  9 10  2  0
 10 11  1  0
 11 12  2  0
 12 13  1  0
 13 14  1  0
 14 15  1  0
 15 16  1  0
 16 17  1  0
 17 18  1  0
 18 19  2  0
 19 20  1  0
 20 21  2  0
 21 22  1  0
 22 23  2  0
 16 24  1  0
 24 25  1  0
 12 26  1  0
 26 27  1  0
 26 28  2  0
 28 29  1  0
 29 30  2  0
 30 31  1  0
  8  2  1  0
 31  9  1  0
 30 11  1  0
 25 13  1  0
 23 18  1  0
  1 32  1  0
  1 33  1  0
  1 34  1  0
  5 35  1  0
  5 36  1  0
  5 37  1  0
  7 38  1  0
  7 39  1  0
  7 40  1  0
 14 41  1  0
 14 42  1  0
 15 43  1  0
 15 44  1  0
 17 45  1  0
 17 46  1  0
 19 47  1  0
 20 48  1  0
 21 49  1  0
 23 50  1  0
 24 51  1  0
 24 52  1  0
 25 53  1  0
 25 54  1  0
 28 55  1  0
 31 56  1  0
M  END
$$$$
