
     RDKit          3D

 14 13  0  0  0  0  0  0  0  0999 V2000
   -0.5715    1.2957    0.7354 N   0  0  0  0  0  0  0  0  0  0  0  0
   -0.0540    0.4292   -0.2853 C   0  0  2  0  0  0  0  0  0  0  0  0
   -1.0525   -0.6774   -0.5497 C   0  0  0  0  0  0  0  0  0  0  0  0
   -1.2619   -1.4075    0.6244 O   0  0  0  0  0  0  0  0  0  0  0  0
    1.2726   -0.1122    0.0875 C   0  0  0  0  0  0  0  0  0  0  0  0
    1.9114   -0.9705   -0.7969 O   0  0  0  0  0  0  0  0  0  0  0  0
    1.8142    0.1959    1.1815 O   0  0  0  0  0  0  0  0  0  0  0  0
    0.1416    1.6059    1.4288 H   0  0  0  0  0  0  0  0  0  0  0  0
   -1.1311    2.0771    0.3307 H   0  0  0  0  0  0  0  0  0  0  0  0
    0.0283    1.0343   -1.2160 H   0  0  0  0  0  0  0  0  0  0  0  0
   -0.7327   -1.3752   -1.3308 H   0  0  0  0  0  0  0  0  0  0  0  0
   -2.0122   -0.2397   -0.8351 H   0  0  0  0  0  0  0  0  0  0  0  0
   -1.2882   -0.7683    1.3865 H   0  0  0  0  0  0  0  0  0  0  0  0
    2.9360   -1.0871   -0.7609 H   0  0  0  0  0  0  0  0  0  0  0  0
  1  2  1  0
  2  3  1  0
  3  4  1  0
  2  5  1  0
  5  6  1  0
  5  7  2  0
  1  8  1  0
  1  9  1  0
  2 10  1  6
  3 11  1  0
  3 12  1  0
  4 13  1  0
  6 14  1  0
M  END
$$$$
