
     RDKit          3D

 57 60  0  0  0  0  0  0  0  0999 V2000
    6.6830    2.7563    1.2882 N   0  0  0  0  0  0  0  0  0  0  0  0
    6.6873    1.7854    2.1327 C   0  0  0  0  0  0  0  0  0  0  0  0
    7.3791    1.9757    3.3568 N   0  0  0  0  0  0  0  0  0  0  0  0
    5.9999    0.5470    1.8199 C   0  0  0  0  0  0  0  0  0  0  0  0
    6.4816   -0.6307    2.3439 C   0  0  0  0  0  0  0  0  0  0  0  0
    5.8297   -1.8187    2.0501 C   0  0  0  0  0  0  0  0  0  0  0  0
    4.7005   -1.8003    1.2311 C   0  0  0  0  0  0  0  0  0  0  0  0
    4.2051   -0.6303    0.6983 C   0  0  0  0  0  0  0  0  0  0  0  0
    3.0793   -0.6831   -0.1075 O   0  0  0  0  0  0  0  0  0  0  0  0
    3.2015   -0.8502   -1.4611 C   0  0  0  0  0  0  0  0  0  0  0  0
    4.4358   -0.9696   -2.0627 C   0  0  0  0  0  0  0  0  0  0  0  0
    4.5815   -1.1383   -3.4218 C   0  0  0  0  0  0  0  0  0  0  0  0
    3.4409   -1.1868   -4.1889 C   0  0  0  0  0  0  0  0  0  0  0  0
    2.1771   -1.0667   -3.5906 C   0  0  0  0  0  0  0  0  0  0  0  0
    2.0572   -0.8987   -2.2299 C   0  0  0  0  0  0  0  0  0  0  0  0
    0.8216   -0.7736   -1.5757 N   0  0  0  0  0  0  0  0  0  0  0  0
   -0.4727   -0.7924   -2.1341 C   0  0  0  0  0  0  0  0  0  0  0  0
   -0.5945   -0.9365   -3.3693 O   0  0  0  0  0  0  0  0  0  0  0  0
   -1.7165   -0.6519   -1.3524 C   0  0  0  0  0  0  0  0  0  0  0  0
   -2.9194   -0.6851   -2.0015 C   0  0  0  0  0  0  0  0  0  0  0  0
   -4.0883   -0.5580   -1.3040 C   0  0  0  0  0  0  0  0  0  0  0  0
   -4.1578   -0.3910    0.0574 C   0  0  0  0  0  0  0  0  0  0  0  0
   -5.4155   -0.2300    0.7589 C   0  0  0  0  0  0  0  0  0  0  0  0
   -5.9227   -1.2462    1.5739 C   0  0  0  0  0  0  0  0  0  0  0  0
   -7.1321   -1.1332    2.2228 C   0  0  0  0  0  0  0  0  0  0  0  0
   -7.8908    0.0099    2.0825 C   0  0  0  0  0  0  0  0  0  0  0  0
   -7.4123    1.0155    1.2905 C   0  0  0  0  0  0  0  0  0  0  0  0
   -6.1805    0.9024    0.6296 C   0  0  0  0  0  0  0  0  0  0  0  0
   -5.6572    2.2552   -0.3040 S   0  0  0  0  0  6  0  0  0  0  0  0
   -6.8415    3.5161   -0.2121 N   0  0  0  0  0  0  0  0  0  0  0  0
   -5.3706    1.9923   -1.7282 O   0  0  0  0  0  0  0  0  0  0  0  0
   -4.4199    2.8073    0.3852 O   0  0  0  0  0  0  0  0  0  0  0  0
   -2.9326   -0.3576    0.7198 C   0  0  0  0  0  0  0  0  0  0  0  0
   -1.7334   -0.4875    0.0133 C   0  0  0  0  0  0  0  0  0  0  0  0
    4.8788    0.5381    1.0109 C   0  0  0  0  0  0  0  0  0  0  0  0
    6.2102    2.7281    0.3638 H   0  0  0  0  0  0  0  0  0  0  0  0
    7.6715    1.1860    3.9740 H   0  0  0  0  0  0  0  0  0  0  0  0
    7.6253    2.9249    3.6916 H   0  0  0  0  0  0  0  0  0  0  0  0
    7.3540   -0.6712    2.9805 H   0  0  0  0  0  0  0  0  0  0  0  0
    6.2228   -2.7391    2.4717 H   0  0  0  0  0  0  0  0  0  0  0  0
    4.1948   -2.7283    1.0041 H   0  0  0  0  0  0  0  0  0  0  0  0
    5.3334   -0.9274   -1.4257 H   0  0  0  0  0  0  0  0  0  0  0  0
    5.5478   -1.2302   -3.8794 H   0  0  0  0  0  0  0  0  0  0  0  0
    3.5498   -1.3177   -5.2452 H   0  0  0  0  0  0  0  0  0  0  0  0
    1.3594   -1.1166   -4.2670 H   0  0  0  0  0  0  0  0  0  0  0  0
    0.8193   -0.6455   -0.5135 H   0  0  0  0  0  0  0  0  0  0  0  0
   -2.9396   -0.8128   -3.0724 H   0  0  0  0  0  0  0  0  0  0  0  0
   -5.0235   -0.6144   -1.8522 H   0  0  0  0  0  0  0  0  0  0  0  0
   -5.3127   -2.1221    1.6648 H   0  0  0  0  0  0  0  0  0  0  0  0
   -7.5147   -1.9358    2.8560 H   0  0  0  0  0  0  0  0  0  0  0  0
   -8.8394    0.0669    2.6068 H   0  0  0  0  0  0  0  0  0  0  0  0
   -8.0146    1.9056    1.1879 H   0  0  0  0  0  0  0  0  0  0  0  0
   -7.1086    3.7124    0.7619 H   0  0  0  0  0  0  0  0  0  0  0  0
   -7.6177    3.3856   -0.8733 H   0  0  0  0  0  0  0  0  0  0  0  0
   -2.9570   -0.2287    1.7874 H   0  0  0  0  0  0  0  0  0  0  0  0
   -0.8200   -0.4548    0.5713 H   0  0  0  0  0  0  0  0  0  0  0  0
    4.4777    1.4504    0.5847 H   0  0  0  0  0  0  0  0  0  0  0  0
  1  2  2  3
  2  3  1  0
  2  4  1  0
  4  5  2  0
  5  6  1  0
  6  7  2  0
  7  8  1  0
  8  9  1  0
  9 10  1  0
 10 11  2  0
 11 12  1  0
 12 13  2  0
 13 14  1  0
 14 15  2  0
 15 16  1  0
 16 17  1  0
 17 18  2  0
 17 19  1  0
 19 20  2  0
 20 21  1  0
 21 22  2  0
 22 23  1  0
 23 24  2  0
 24 25  1  0
 25 26  2  0
 26 27  1  0
 27 28  2  0
 28 29  1  0
 29 30  1  0
 29 31  2  0
 29 32  2  0
 22 33  1  0
 33 34  2  0
  8 35  2  0
 35  4  1  0
 15 10  1  0
 34 19  1  0
 28 23  1  0
  1 36  1  0
  3 37  1  0
  3 38  1  0
  5 39  1  0
  6 40  1  0
  7 41  1  0
 11 42  1  0
 12 43  1  0
 13 44  1  0
 14 45  1  0
 16 46  1  0
 20 47  1  0
 21 48  1  0
 24 49  1  0
 25 50  1  0
 26 51  1  0
 27 52  1  0
 30 53  1  0
 30 54  1  0
 33 55  1  0
 34 56  1  0
 35 57  1  0
M  END
$$$$
