
     RDKit          3D

 46 50  0  0  0  0  0  0  0  0999 V2000
  -10.7821   -1.2659   -0.2546 O   0  0  0  0  0  0  0  0  0  0  0  0
   -9.4631   -0.8793   -0.0361 C   0  0  0  0  0  0  0  0  0  0  0  0
   -8.4568   -1.5591   -0.6664 C   0  0  0  0  0  0  0  0  0  0  0  0
   -7.1456   -1.1769   -0.4509 C   0  0  0  0  0  0  0  0  0  0  0  0
   -6.8153   -0.1454    0.3682 C   0  0  0  0  0  0  0  0  0  0  0  0
   -5.4078    0.2960    0.6250 C   0  0  0  0  0  0  0  0  0  0  0  0
   -4.7469    1.0691    1.2085 N   0  0  0  0  0  0  0  0  0  0  0  0
   -3.4501    1.1327    1.1645 N   0  0  0  0  0  0  0  0  0  0  0  0
   -2.7437    0.4409    0.5464 C   0  0  0  0  0  0  0  0  0  0  0  0
   -1.3438    0.1991    0.2449 C   0  0  0  0  0  0  0  0  0  0  0  0
   -0.9245   -0.8154   -0.6159 C   0  0  0  0  0  0  0  0  0  0  0  0
    0.4109   -1.0233   -0.8850 C   0  0  0  0  0  0  0  0  0  0  0  0
    1.3898   -0.2395   -0.3166 C   0  0  0  0  0  0  0  0  0  0  0  0
    2.7778   -0.3957   -0.5476 C   0  0  0  0  0  0  0  0  0  0  0  0
    3.4984   -1.2712   -1.3172 N   0  0  0  0  0  0  0  0  0  0  0  0
    4.7344   -1.2037   -1.3539 N   0  0  0  0  0  0  0  0  0  0  0  0
    5.4576   -0.3601   -0.7177 C   0  0  0  0  0  0  0  0  0  0  0  0
    6.8780   -0.0711   -0.5870 C   0  0  0  0  0  0  0  0  0  0  0  0
    7.8129   -0.8053   -1.2574 C   0  0  0  0  0  0  0  0  0  0  0  0
    9.1479   -0.5072   -1.1129 C   0  0  0  0  0  0  0  0  0  0  0  0
    9.6091    0.5261   -0.3017 C   0  0  0  0  0  0  0  0  0  0  0  0
   10.9609    0.8134   -0.1674 O   0  0  0  0  0  0  0  0  0  0  0  0
    8.6608    1.2626    0.3715 C   0  0  0  0  0  0  0  0  0  0  0  0
    7.3251    0.9705    0.2319 C   0  0  0  0  0  0  0  0  0  0  0  0
    6.3556    1.7177    0.9156 O   0  0  0  0  0  0  0  0  0  0  0  0
    4.1265    0.5661    0.1388 S   0  0  0  0  0  0  0  0  0  0  0  0
    0.9562    0.7649    0.5370 C   0  0  0  0  0  0  0  0  0  0  0  0
   -0.3797    0.9723    0.8057 C   0  0  0  0  0  0  0  0  0  0  0  0
   -4.0490   -0.6698   -0.2654 S   0  0  0  0  0  0  0  0  0  0  0  0
   -7.8394    0.5385    1.0034 C   0  0  0  0  0  0  0  0  0  0  0  0
   -7.5391    1.6001    1.8493 O   0  0  0  0  0  0  0  0  0  0  0  0
   -9.1543    0.1875    0.8136 C   0  0  0  0  0  0  0  0  0  0  0  0
  -11.0235   -1.7633   -1.1009 H   0  0  0  0  0  0  0  0  0  0  0  0
   -8.6747   -2.3709   -1.3143 H   0  0  0  0  0  0  0  0  0  0  0  0
   -6.3427   -1.7205   -0.9549 H   0  0  0  0  0  0  0  0  0  0  0  0
   -1.6632   -1.4383   -1.0705 H   0  0  0  0  0  0  0  0  0  0  0  0
    0.7542   -1.8122   -1.5557 H   0  0  0  0  0  0  0  0  0  0  0  0
    7.4642   -1.6185   -1.8968 H   0  0  0  0  0  0  0  0  0  0  0  0
    9.9125   -1.0696   -1.6300 H   0  0  0  0  0  0  0  0  0  0  0  0
   11.4106    1.2559   -0.9566 H   0  0  0  0  0  0  0  0  0  0  0  0
    8.9615    2.0795    1.0176 H   0  0  0  0  0  0  0  0  0  0  0  0
    5.9820    1.3105    1.7775 H   0  0  0  0  0  0  0  0  0  0  0  0
    1.6656    1.4337    1.0313 H   0  0  0  0  0  0  0  0  0  0  0  0
   -0.7205    1.7631    1.4778 H   0  0  0  0  0  0  0  0  0  0  0  0
   -7.6369    2.5671    1.5641 H   0  0  0  0  0  0  0  0  0  0  0  0
   -9.9498    0.7147    1.3037 H   0  0  0  0  0  0  0  0  0  0  0  0
  1  2  1  0
  2  3  2  0
  3  4  1  0
  4  5  2  0
  5  6  1  0
  6  7  2  0
  7  8  1  0
  8  9  2  0
  9 10  1  0
 10 11  2  0
 11 12  1  0
 12 13  2  0
 13 14  1  0
 14 15  2  0
 15 16  1  0
 16 17  2  0
 17 18  1  0
 18 19  2  0
 19 20  1  0
 20 21  2  0
 21 22  1  0
 21 23  1  0
 23 24  2  0
 24 25  1  0
 17 26  1  0
 13 27  1  0
 27 28  2  0
  9 29  1  0
  5 30  1  0
 30 31  1  0
 30 32  2  0
 32  2  1  0
 29  6  1  0
 28 10  1  0
 26 14  1  0
 24 18  1  0
  1 33  1  0
  3 34  1  0
  4 35  1  0
 11 36  1  0
 12 37  1  0
 19 38  1  0
 20 39  1  0
 22 40  1  0
 23 41  1  0
 25 42  1  0
 27 43  1  0
 28 44  1  0
 31 45  1  0
 32 46  1  0
M  END
$$$$
