
     RDKit          3D

 32 35  0  0  0  0  0  0  0  0999 V2000
   -1.8714   -3.1912    0.4310 C   0  0  0  0  0  0  0  0  0  0  0  0
   -1.0616   -1.9733    0.5804 N   0  0  0  0  0  0  0  0  0  0  0  0
    0.3165   -1.8831    0.8616 C   0  0  0  0  0  0  0  0  0  0  0  0
    1.0596   -2.9034    1.0276 O   0  0  0  0  0  0  0  0  0  0  0  0
    0.6603   -0.4639    0.9130 C   0  0  0  0  0  0  0  0  0  0  0  0
    1.7646   -0.0944   -0.0033 C   0  0  0  0  0  0  0  0  0  0  0  0
    1.5292    0.7631   -0.8809 O   0  0  0  0  0  0  0  0  0  0  0  0
    3.0471   -0.6569    0.0689 N   0  0  0  0  0  0  0  0  0  0  0  0
    4.1155   -0.2672   -0.8543 C   0  0  0  0  0  0  0  0  0  0  0  0
    4.6310   -0.4790   -1.8633 N   0  0  0  0  0  0  0  0  0  0  0  0
    5.6439    0.1543   -2.3666 N   0  0  0  0  0  0  0  0  0  0  0  0
    6.1902    1.0539   -1.8517 C   0  0  0  0  0  0  0  0  0  0  0  0
    5.2042    1.2117   -0.2703 S   0  0  0  0  0  0  0  0  0  0  0  0
   -0.5792    0.2487    0.6493 C   0  0  0  0  0  0  0  0  0  0  0  0
   -0.9295    1.5988    0.5593 C   0  0  0  0  0  0  0  0  0  0  0  0
   -2.1991    2.0478    0.2930 C   0  0  0  0  0  0  0  0  0  0  0  0
   -2.7421    3.2524    0.1655 O   0  0  0  0  0  0  0  0  0  0  0  0
   -4.0031    3.1608   -0.0917 C   0  0  0  0  0  0  0  0  0  0  0  0
   -4.3577    1.8133   -0.1461 C   0  0  0  0  0  0  0  0  0  0  0  0
   -3.2020    1.1248    0.1000 C   0  0  0  0  0  0  0  0  0  0  0  0
   -2.9007   -0.2146    0.1798 C   0  0  0  0  0  0  0  0  0  0  0  0
   -1.5891   -0.6519    0.4545 C   0  0  0  0  0  0  0  0  0  0  0  0
   -2.5043   -3.3617    1.3235 H   0  0  0  0  0  0  0  0  0  0  0  0
   -1.1572   -4.0340    0.3399 H   0  0  0  0  0  0  0  0  0  0  0  0
   -2.4684   -3.0553   -0.4980 H   0  0  0  0  0  0  0  0  0  0  0  0
    0.9424   -0.2409    1.9773 H   0  0  0  0  0  0  0  0  0  0  0  0
    3.2888   -1.3637    0.7712 H   0  0  0  0  0  0  0  0  0  0  0  0
    7.0369    1.7595   -2.0239 H   0  0  0  0  0  0  0  0  0  0  0  0
   -0.1201    2.3042    0.7156 H   0  0  0  0  0  0  0  0  0  0  0  0
   -4.7548    3.9260   -0.2560 H   0  0  0  0  0  0  0  0  0  0  0  0
   -5.3050    1.3592   -0.3341 H   0  0  0  0  0  0  0  0  0  0  0  0
   -3.6849   -0.9436    0.0290 H   0  0  0  0  0  0  0  0  0  0  0  0
  1  2  1  0
  2  3  1  0
  3  4  2  0
  3  5  1  0
  5  6  1  0
  6  7  2  0
  6  8  1  0
  8  9  1  0
  9 10  2  0
 10 11  1  0
 11 12  2  0
 12 13  1  0
  5 14  1  0
 14 15  2  0
 15 16  1  0
 16 17  1  0
 17 18  1  0
 18 19  2  0
 19 20  1  0
 20 21  1  0
 21 22  2  0
 22  2  1  0
 13  9  1  0
 22 14  1  0
 20 16  2  0
  1 23  1  0
  1 24  1  0
  1 25  1  0
  5 26  1  0
  8 27  1  0
 12 28  1  0
 15 29  1  0
 18 30  1  0
 19 31  1  0
 21 32  1  0
M  END
$$$$
