
     RDKit          3D

 42 46  0  0  0  0  0  0  0  0999 V2000
   -0.7394    3.4310   -1.1230 C   0  0  0  0  0  0  0  0  0  0  0  0
   -0.6326    2.9942    0.2518 N   0  0  0  0  0  0  0  0  0  0  0  0
   -0.7851    3.8326    1.2752 N   0  0  0  0  0  0  0  0  0  0  0  0
   -0.6335    3.1549    2.4211 C   0  0  0  0  0  0  0  0  0  0  0  0
   -0.3847    1.8824    2.0748 N   0  0  0  0  0  0  0  0  0  0  0  0
   -0.3821    1.7724    0.7247 C   0  0  0  0  0  0  0  0  0  0  0  0
   -0.1483    0.5429   -0.0716 C   0  0  2  0  0  0  0  0  0  0  0  0
   -1.4647   -0.1166   -0.3155 C   0  0  0  0  0  0  0  0  0  0  0  0
   -2.5632    0.6852   -0.4392 N   0  0  0  0  0  0  0  0  0  0  0  0
   -3.7676    0.1845   -0.6575 N   0  0  0  0  0  0  0  0  0  0  0  0
   -4.0123   -1.1232   -0.7742 C   0  0  0  0  0  0  0  0  0  0  0  0
   -5.1843   -1.5810   -0.9849 O   0  0  0  0  0  0  0  0  0  0  0  0
   -2.9399   -1.9863   -0.6582 C   0  0  0  0  0  0  0  0  0  0  0  0
   -3.1150   -3.3588   -0.7683 C   0  0  0  0  0  0  0  0  0  0  0  0
   -2.0325   -4.2001   -0.6498 C   0  0  0  0  0  0  0  0  0  0  0  0
   -2.1829   -5.5367   -0.7539 F   0  0  0  0  0  0  0  0  0  0  0  0
   -0.7832   -3.6629   -0.4222 C   0  0  0  0  0  0  0  0  0  0  0  0
   -0.5828   -2.2959   -0.3085 C   0  0  0  0  0  0  0  0  0  0  0  0
   -1.6696   -1.4544   -0.4277 C   0  0  0  0  0  0  0  0  0  0  0  0
    0.6846   -1.7013   -0.0730 N   0  0  0  0  0  0  0  0  0  0  0  0
    0.7678   -0.4106    0.6087 C   0  0  1  0  0  0  0  0  0  0  0  0
    2.1740   -0.0157    0.6502 C   0  0  0  0  0  0  0  0  0  0  0  0
    3.1090   -0.9671    1.0155 C   0  0  0  0  0  0  0  0  0  0  0  0
    4.4639   -0.6744    1.0792 C   0  0  0  0  0  0  0  0  0  0  0  0
    4.9261    0.5892    0.7768 C   0  0  0  0  0  0  0  0  0  0  0  0
    6.2419    0.9170    0.8266 F   0  0  0  0  0  0  0  0  0  0  0  0
    3.9958    1.5372    0.4129 C   0  0  0  0  0  0  0  0  0  0  0  0
    2.6582    1.2409    0.3520 C   0  0  0  0  0  0  0  0  0  0  0  0
   -1.0891    2.6464   -1.7942 H   0  0  0  0  0  0  0  0  0  0  0  0
   -1.4089    4.3012   -1.2377 H   0  0  0  0  0  0  0  0  0  0  0  0
    0.2763    3.7636   -1.4853 H   0  0  0  0  0  0  0  0  0  0  0  0
   -0.7025    3.5717    3.4080 H   0  0  0  0  0  0  0  0  0  0  0  0
    0.2458    0.7996   -1.0793 H   0  0  0  0  0  0  0  0  0  0  0  0
   -4.5868    0.8362   -0.7466 H   0  0  0  0  0  0  0  0  0  0  0  0
   -4.1272   -3.7248   -0.9485 H   0  0  0  0  0  0  0  0  0  0  0  0
    0.1036   -4.2778   -0.3207 H   0  0  0  0  0  0  0  0  0  0  0  0
    1.5249   -2.2237   -0.4035 H   0  0  0  0  0  0  0  0  0  0  0  0
    0.4331   -0.5374    1.6770 H   0  0  0  0  0  0  0  0  0  0  0  0
    2.8123   -1.9797    1.2657 H   0  0  0  0  0  0  0  0  0  0  0  0
    5.2080   -1.4080    1.3634 H   0  0  0  0  0  0  0  0  0  0  0  0
    4.3152    2.5478    0.1656 H   0  0  0  0  0  0  0  0  0  0  0  0
    1.9777    2.0057    0.0655 H   0  0  0  0  0  0  0  0  0  0  0  0
  1  2  1  0
  2  3  1  0
  3  4  2  0
  4  5  1  0
  5  6  2  0
  6  7  1  0
  7  8  1  0
  8  9  2  0
  9 10  1  0
 10 11  1  0
 11 12  2  0
 11 13  1  0
 13 14  2  0
 14 15  1  0
 15 16  1  0
 15 17  2  0
 17 18  1  0
 18 19  2  0
 18 20  1  0
 20 21  1  0
 21 22  1  0
 22 23  2  0
 23 24  1  0
 24 25  2  0
 25 26  1  0
 25 27  1  0
 27 28  2  0
  6  2  1  0
 21  7  1  0
 28 22  1  0
 19  8  1  0
 19 13  1  0
  1 29  1  0
  1 30  1  0
  1 31  1  0
  4 32  1  0
  7 33  1  6
 10 34  1  0
 14 35  1  0
 17 36  1  0
 20 37  1  0
 21 38  1  1
 23 39  1  0
 24 40  1  0
 27 41  1  0
 28 42  1  0
M  END
$$$$
