
     RDKit          3D

 56 59  0  0  0  0  0  0  0  0999 V2000
    2.7384   -0.8656    1.7526 C   0  0  2  0  0  0  0  0  0  0  0  0
    1.9479    0.2482    2.3603 C   0  0  0  0  0  0  0  0  0  0  0  0
    1.5173    1.2008    1.2866 C   0  0  1  0  0  0  0  0  0  0  0  0
    2.7410    1.7558    0.5673 C   0  0  0  0  0  0  0  0  0  0  0  0
    3.5553    0.6574   -0.0373 C   0  0  1  0  0  0  0  0  0  0  0  0
    3.9594   -0.2697    1.0780 C   0  0  0  0  0  0  0  0  0  0  0  0
    2.7148   -0.0356   -1.0819 C   0  0  0  0  0  0  0  0  0  0  0  0
    1.4819   -0.5738   -0.3798 C   0  0  1  0  0  0  0  0  0  0  0  0
    1.8801   -1.5425    0.6788 C   0  0  0  0  0  0  0  0  0  0  0  0
    0.6701    0.5408    0.2342 C   0  0  1  0  0  0  0  0  0  0  0  0
   -0.5776    0.0095    0.7083 N   0  0  0  0  0  0  0  0  0  0  0  0
   -1.8595    0.3769    0.1505 C   0  0  0  0  0  0  0  0  0  0  0  0
   -1.6889    1.2067   -0.7763 O   0  0  0  0  0  0  0  0  0  0  0  0
   -3.0540   -0.2634    0.7522 C   0  0  0  0  0  0  0  0  0  0  0  0
   -2.8407   -1.7664    0.6308 C   0  0  0  0  0  0  0  0  0  0  0  0
   -3.0960    0.0163    2.2624 C   0  0  0  0  0  0  0  0  0  0  0  0
   -4.2707    0.1519    0.2546 O   0  0  0  0  0  0  0  0  0  0  0  0
   -4.8093    0.1121   -0.9882 C   0  0  0  0  0  0  0  0  0  0  0  0
   -5.5735   -0.9334   -1.4938 C   0  0  0  0  0  0  0  0  0  0  0  0
   -5.9144   -2.3232   -0.4854 Cl  0  0  0  0  0  0  0  0  0  0  0  0
   -6.1267   -0.9931   -2.7492 C   0  0  0  0  0  0  0  0  0  0  0  0
   -5.9277    0.0606   -3.6131 C   0  0  0  0  0  0  0  0  0  0  0  0
   -6.4564    0.0380   -4.8572 F   0  0  0  0  0  0  0  0  0  0  0  0
   -5.1809    1.1333   -3.1821 C   0  0  0  0  0  0  0  0  0  0  0  0
   -4.6613    1.1250   -1.9212 C   0  0  0  0  0  0  0  0  0  0  0  0
    5.0079    1.3261   -0.7795 S   0  0  0  0  0  0  0  0  0  0  0  0
    5.9477   -0.0036   -1.4851 C   0  0  0  0  0  0  0  0  0  0  0  0
    4.5592    2.1825   -1.9528 O   0  0  0  0  0  0  0  0  0  0  0  0
    5.7864    2.1305    0.1985 O   0  0  0  0  0  0  0  0  0  0  0  0
    3.0469   -1.6003    2.4963 H   0  0  0  0  0  0  0  0  0  0  0  0
    1.0349   -0.0900    2.8809 H   0  0  0  0  0  0  0  0  0  0  0  0
    2.5851    0.8354    3.0638 H   0  0  0  0  0  0  0  0  0  0  0  0
    1.0314    2.0509    1.7733 H   0  0  0  0  0  0  0  0  0  0  0  0
    2.4149    2.4157   -0.2568 H   0  0  0  0  0  0  0  0  0  0  0  0
    3.3591    2.3305    1.2736 H   0  0  0  0  0  0  0  0  0  0  0  0
    4.6223   -1.0652    0.7222 H   0  0  0  0  0  0  0  0  0  0  0  0
    4.4733    0.3270    1.8517 H   0  0  0  0  0  0  0  0  0  0  0  0
    3.2630   -0.8963   -1.4669 H   0  0  0  0  0  0  0  0  0  0  0  0
    2.4342    0.6858   -1.8508 H   0  0  0  0  0  0  0  0  0  0  0  0
    0.8411   -1.1189   -1.1048 H   0  0  0  0  0  0  0  0  0  0  0  0
    0.9759   -1.9129    1.1915 H   0  0  0  0  0  0  0  0  0  0  0  0
    2.4565   -2.4171    0.2555 H   0  0  0  0  0  0  0  0  0  0  0  0
    0.4785    1.3147   -0.5596 H   0  0  0  0  0  0  0  0  0  0  0  0
   -0.5352   -0.6651    1.5040 H   0  0  0  0  0  0  0  0  0  0  0  0
   -1.8244   -2.0822    0.9418 H   0  0  0  0  0  0  0  0  0  0  0  0
   -3.5273   -2.3472    1.2875 H   0  0  0  0  0  0  0  0  0  0  0  0
   -2.9479   -2.1376   -0.4079 H   0  0  0  0  0  0  0  0  0  0  0  0
   -2.3646   -0.6298    2.7889 H   0  0  0  0  0  0  0  0  0  0  0  0
   -2.7984    1.0803    2.3662 H   0  0  0  0  0  0  0  0  0  0  0  0
   -4.1201   -0.1063    2.6098 H   0  0  0  0  0  0  0  0  0  0  0  0
   -6.7095   -1.8112   -3.1095 H   0  0  0  0  0  0  0  0  0  0  0  0
   -5.0472    1.9409   -3.8888 H   0  0  0  0  0  0  0  0  0  0  0  0
   -4.1010    2.0206   -1.6909 H   0  0  0  0  0  0  0  0  0  0  0  0
    6.6967   -0.3086   -0.7261 H   0  0  0  0  0  0  0  0  0  0  0  0
    5.3080   -0.8644   -1.6946 H   0  0  0  0  0  0  0  0  0  0  0  0
    6.4843    0.3491   -2.3906 H   0  0  0  0  0  0  0  0  0  0  0  0
  1  2  1  0
  2  3  1  0
  3  4  1  0
  4  5  1  0
  5  6  1  0
  5  7  1  0
  7  8  1  0
  8  9  1  0
  8 10  1  0
 10 11  1  0
 11 12  1  0
 12 13  2  0
 12 14  1  0
 14 15  1  0
 14 16  1  0
 14 17  1  0
 17 18  1  0
 18 19  2  0
 19 20  1  0
 19 21  1  0
 21 22  2  0
 22 23  1  0
 22 24  1  0
 24 25  2  0
  5 26  1  6
 26 27  1  0
 26 28  2  0
 26 29  2  0
  6  1  1  0
 25 18  1  0
  9  1  1  0
 10  3  1  0
  1 30  1  1
  2 31  1  0
  2 32  1  0
  3 33  1  1
  4 34  1  0
  4 35  1  0
  6 36  1  0
  6 37  1  0
  7 38  1  0
  7 39  1  0
  8 40  1  6
  9 41  1  0
  9 42  1  0
 10 43  1  6
 11 44  1  0
 15 45  1  0
 15 46  1  0
 15 47  1  0
 16 48  1  0
 16 49  1  0
 16 50  1  0
 21 51  1  0
 24 52  1  0
 25 53  1  0
 27 54  1  0
 27 55  1  0
 27 56  1  0
M  END
$$$$
