
     RDKit          3D

 38 40  0  0  0  0  0  0  0  0999 V2000
    5.8936   -1.1167    1.2896 F   0  0  0  0  0  0  0  0  0  0  0  0
    4.7263   -1.1971    0.5845 C   0  0  0  0  0  0  0  0  0  0  0  0
    4.7833   -1.9625   -0.5611 C   0  0  0  0  0  0  0  0  0  0  0  0
    3.6355   -2.0782   -1.3106 C   0  0  0  0  0  0  0  0  0  0  0  0
    2.4733   -1.4314   -0.8979 C   0  0  0  0  0  0  0  0  0  0  0  0
    2.4073   -0.6643    0.2458 C   0  0  0  0  0  0  0  0  0  0  0  0
    1.2806   -0.0066    0.6931 O   0  0  0  0  0  0  0  0  0  0  0  0
    0.0137    0.0170    0.0978 C   0  0  0  0  0  0  0  0  0  0  0  0
   -0.9279   -0.6513    1.0874 C   0  0  0  0  0  0  0  0  0  0  0  0
   -2.3414   -0.6894    0.5577 C   0  0  0  0  0  0  0  0  0  0  0  0
   -3.3343   -1.3428    1.4942 C   0  0  0  0  0  0  0  0  0  0  0  0
   -3.9170   -1.9838    0.3169 N   0  0  0  0  0  0  0  0  0  0  0  0
   -2.5793   -1.9469   -0.2690 C   0  0  0  0  0  0  0  0  0  0  0  0
   -0.4341    1.3874   -0.2326 C   0  0  0  0  0  0  0  0  0  0  0  0
   -1.0127    1.7169   -1.4356 C   0  0  0  0  0  0  0  0  0  0  0  0
   -1.4194    3.0079   -1.7107 C   0  0  0  0  0  0  0  0  0  0  0  0
   -1.2530    3.9952   -0.7824 C   0  0  0  0  0  0  0  0  0  0  0  0
   -1.7687    5.6341   -1.1302 Cl  0  0  0  0  0  0  0  0  0  0  0  0
   -0.6815    3.7028    0.4236 C   0  0  0  0  0  0  0  0  0  0  0  0
   -0.5209    4.6944    1.3407 F   0  0  0  0  0  0  0  0  0  0  0  0
   -0.2771    2.3975    0.6856 C   0  0  0  0  0  0  0  0  0  0  0  0
    3.5934   -0.5674    0.9857 C   0  0  0  0  0  0  0  0  0  0  0  0
    5.6994   -2.4646   -0.8746 H   0  0  0  0  0  0  0  0  0  0  0  0
    3.6358   -2.6623   -2.2063 H   0  0  0  0  0  0  0  0  0  0  0  0
    1.6198   -1.5640   -1.5266 H   0  0  0  0  0  0  0  0  0  0  0  0
    0.0480   -0.5964   -0.8256 H   0  0  0  0  0  0  0  0  0  0  0  0
   -0.9408   -0.1146    2.0560 H   0  0  0  0  0  0  0  0  0  0  0  0
   -0.5617   -1.6818    1.2682 H   0  0  0  0  0  0  0  0  0  0  0  0
   -2.6959    0.2155    0.0669 H   0  0  0  0  0  0  0  0  0  0  0  0
   -2.8263   -2.0764    2.1576 H   0  0  0  0  0  0  0  0  0  0  0  0
   -4.0174   -0.6425    2.0093 H   0  0  0  0  0  0  0  0  0  0  0  0
   -4.5179   -1.2717   -0.1704 H   0  0  0  0  0  0  0  0  0  0  0  0
   -2.5651   -1.7859   -1.3624 H   0  0  0  0  0  0  0  0  0  0  0  0
   -1.9241   -2.7530    0.1052 H   0  0  0  0  0  0  0  0  0  0  0  0
   -1.1685    0.9772   -2.2057 H   0  0  0  0  0  0  0  0  0  0  0  0
   -1.8694    3.2576   -2.6499 H   0  0  0  0  0  0  0  0  0  0  0  0
    0.1659    2.2233    1.6488 H   0  0  0  0  0  0  0  0  0  0  0  0
    3.5784    0.0247    1.8863 H   0  0  0  0  0  0  0  0  0  0  0  0
  1  2  1  0
  2  3  2  0
  3  4  1  0
  4  5  2  0
  5  6  1  0
  6  7  1  0
  7  8  1  0
  8  9  1  0
  9 10  1  0
 10 11  1  0
 11 12  1  0
 12 13  1  0
  8 14  1  0
 14 15  2  0
 15 16  1  0
 16 17  2  0
 17 18  1  0
 17 19  1  0
 19 20  1  0
 19 21  2  0
  6 22  2  0
 22  2  1  0
 13 10  1  0
 21 14  1  0
  3 23  1  0
  4 24  1  0
  5 25  1  0
  8 26  1  0
  9 27  1  0
  9 28  1  0
 10 29  1  0
 11 30  1  0
 11 31  1  0
 12 32  1  0
 13 33  1  0
 13 34  1  0
 15 35  1  0
 16 36  1  0
 21 37  1  0
 22 38  1  0
M  END
$$$$
