
     RDKit          3D

 53 55  0  0  0  0  0  0  0  0999 V2000
    8.3634   -0.4773   -2.8172 C   0  0  0  0  0  0  0  0  0  0  0  0
    7.2188   -0.2440   -1.8663 C   0  0  0  0  0  0  0  0  0  0  0  0
    7.3189    0.1808   -0.5550 C   0  0  0  0  0  0  0  0  0  0  0  0
    6.0356    0.2570   -0.0685 C   0  0  0  0  0  0  0  0  0  0  0  0
    5.5630    0.6151    1.1448 N   0  0  0  0  0  0  0  0  0  0  0  0
    4.2148    0.6023    1.3651 C   0  0  0  0  0  0  0  0  0  0  0  0
    3.3470    0.2343    0.3801 C   0  0  0  0  0  0  0  0  0  0  0  0
    1.9146    0.2116    0.5831 C   0  0  0  0  0  0  0  0  0  0  0  0
    1.1158   -0.1525   -0.3208 O   0  0  0  0  0  0  0  0  0  0  0  0
    1.2551    0.5811    1.7757 N   0  0  0  0  0  0  0  0  0  0  0  0
   -0.0757    0.6063    2.1061 C   0  0  0  0  0  0  0  0  0  0  0  0
   -0.9872   -0.5705    2.1046 C   0  0  0  0  0  0  0  0  0  0  0  0
   -2.3177    0.0416    2.5939 C   0  0  0  0  0  0  0  0  0  0  0  0
   -0.6569   -1.6153    3.1401 C   0  0  0  0  0  0  0  0  0  0  0  0
   -1.1710   -1.0739    0.8079 N   0  0  0  0  0  0  0  0  0  0  0  0
   -2.0079   -0.5057   -0.1469 C   0  0  0  0  0  0  0  0  0  0  0  0
   -3.4546   -0.7250   -0.0101 C   0  0  0  0  0  0  0  0  0  0  0  0
   -3.9155   -1.4459    0.8878 O   0  0  0  0  0  0  0  0  0  0  0  0
   -4.3272   -0.0973   -0.9243 N   0  0  0  0  0  0  0  0  0  0  0  0
   -4.0169    0.7820   -2.0396 C   0  0  0  0  0  0  0  0  0  0  0  0
   -5.0102    1.9048   -1.8296 C   0  0  0  0  0  0  0  0  0  0  0  0
   -6.2564    1.1542   -1.4123 C   0  0  0  0  0  0  0  0  0  0  0  0
   -5.7704   -0.2167   -0.9262 C   0  0  1  0  0  0  0  0  0  0  0  0
   -6.1992   -1.2101   -1.8830 C   0  0  0  0  0  0  0  0  0  0  0  0
   -6.5257   -2.0062   -2.6608 N   0  0  0  0  0  0  0  0  0  0  0  0
    3.8539   -0.1260   -0.8465 C   0  0  0  0  0  0  0  0  0  0  0  0
    5.2077   -0.1076   -1.0509 N   0  0  0  0  0  0  0  0  0  0  0  0
    5.9148   -0.4037   -2.1152 N   0  0  0  0  0  0  0  0  0  0  0  0
    8.1768    0.0328   -3.7837 H   0  0  0  0  0  0  0  0  0  0  0  0
    9.3018   -0.0837   -2.4204 H   0  0  0  0  0  0  0  0  0  0  0  0
    8.3869   -1.5643   -3.0236 H   0  0  0  0  0  0  0  0  0  0  0  0
    8.2604    0.3967   -0.0605 H   0  0  0  0  0  0  0  0  0  0  0  0
    3.9176    0.8990    2.3556 H   0  0  0  0  0  0  0  0  0  0  0  0
    1.9411    0.8951    2.5523 H   0  0  0  0  0  0  0  0  0  0  0  0
   -0.2144    1.1173    3.0849 H   0  0  0  0  0  0  0  0  0  0  0  0
   -0.5804    1.3404    1.3917 H   0  0  0  0  0  0  0  0  0  0  0  0
   -2.9268   -0.6683    3.1598 H   0  0  0  0  0  0  0  0  0  0  0  0
   -1.9650    0.7476    3.4363 H   0  0  0  0  0  0  0  0  0  0  0  0
   -2.7826    0.7137    1.8981 H   0  0  0  0  0  0  0  0  0  0  0  0
    0.4013   -1.5552    3.4787 H   0  0  0  0  0  0  0  0  0  0  0  0
   -1.2569   -1.5360    4.0721 H   0  0  0  0  0  0  0  0  0  0  0  0
   -0.9006   -2.6551    2.7695 H   0  0  0  0  0  0  0  0  0  0  0  0
   -1.1441   -2.1050    0.6941 H   0  0  0  0  0  0  0  0  0  0  0  0
   -1.7790   -0.9826   -1.1642 H   0  0  0  0  0  0  0  0  0  0  0  0
   -1.7791    0.5734   -0.3887 H   0  0  0  0  0  0  0  0  0  0  0  0
   -2.9655    1.1529   -1.9917 H   0  0  0  0  0  0  0  0  0  0  0  0
   -4.2395    0.2751   -2.9952 H   0  0  0  0  0  0  0  0  0  0  0  0
   -5.1642    2.5142   -2.7442 H   0  0  0  0  0  0  0  0  0  0  0  0
   -4.6410    2.5170   -0.9745 H   0  0  0  0  0  0  0  0  0  0  0  0
   -6.8832    1.0385   -2.3352 H   0  0  0  0  0  0  0  0  0  0  0  0
   -6.8038    1.6303   -0.5881 H   0  0  0  0  0  0  0  0  0  0  0  0
   -6.1929   -0.4634    0.0619 H   0  0  0  0  0  0  0  0  0  0  0  0
    3.2016   -0.4237   -1.6535 H   0  0  0  0  0  0  0  0  0  0  0  0
  1  2  1  0
  2  3  1  0
  3  4  2  0
  4  5  1  0
  5  6  2  0
  6  7  1  0
  7  8  1  0
  8  9  2  0
  8 10  1  0
 10 11  1  0
 11 12  1  0
 12 13  1  0
 12 14  1  0
 12 15  1  0
 15 16  1  0
 16 17  1  0
 17 18  2  0
 17 19  1  0
 19 20  1  0
 20 21  1  0
 21 22  1  0
 22 23  1  0
 23 24  1  0
 24 25  3  0
  7 26  2  0
 26 27  1  0
 27 28  1  0
 28  2  2  0
 27  4  1  0
 23 19  1  0
  1 29  1  0
  1 30  1  0
  1 31  1  0
  3 32  1  0
  6 33  1  0
 10 34  1  0
 11 35  1  0
 11 36  1  0
 13 37  1  0
 13 38  1  0
 13 39  1  0
 14 40  1  0
 14 41  1  0
 14 42  1  0
 15 43  1  0
 16 44  1  0
 16 45  1  0
 20 46  1  0
 20 47  1  0
 21 48  1  0
 21 49  1  0
 22 50  1  0
 22 51  1  0
 23 52  1  1
 26 53  1  0
M  END
$$$$
