
     RDKit          3D

 16 16  0  0  0  0  0  0  0  0999 V2000
    2.6208   -0.1983   -0.8314 O   0  0  0  0  0  0  0  0  0  0  0  0
    1.9364   -0.0285    0.3737 C   0  0  0  0  0  0  0  0  0  0  0  0
    0.4672    0.0620    0.1517 C   0  0  0  0  0  0  0  0  0  0  0  0
   -0.2509   -1.1300    0.1774 C   0  0  0  0  0  0  0  0  0  0  0  0
   -1.6167   -1.1226   -0.0206 C   0  0  0  0  0  0  0  0  0  0  0  0
   -2.2107    0.1033   -0.2395 C   0  0  0  0  0  0  0  0  0  0  0  0
   -1.5609    1.3190   -0.2777 C   0  0  0  0  0  0  0  0  0  0  0  0
   -0.1985    1.2604   -0.0746 C   0  0  0  0  0  0  0  0  0  0  0  0
    3.4384   -0.7576   -0.6416 H   0  0  0  0  0  0  0  0  0  0  0  0
    2.2131    0.9151    0.8834 H   0  0  0  0  0  0  0  0  0  0  0  0
    2.1367   -0.8476    1.0979 H   0  0  0  0  0  0  0  0  0  0  0  0
    0.2289   -2.0858    0.3504 H   0  0  0  0  0  0  0  0  0  0  0  0
   -2.2105   -2.0347   -0.0074 H   0  0  0  0  0  0  0  0  0  0  0  0
   -3.2990    0.1428   -0.4010 H   0  0  0  0  0  0  0  0  0  0  0  0
   -2.0886    2.2461   -0.4545 H   0  0  0  0  0  0  0  0  0  0  0  0
    0.3943    2.1564   -0.0862 H   0  0  0  0  0  0  0  0  0  0  0  0
  1  2  1  0
  2  3  1  0
  3  4  2  0
  4  5  1  0
  5  6  2  0
  6  7  1  0
  7  8  2  0
  8  3  1  0
  1  9  1  0
  2 10  1  0
  2 11  1  0
  4 12  1  0
  5 13  1  0
  6 14  1  0
  7 15  1  0
  8 16  1  0
M  END
$$$$
