
     RDKit          3D

 57 61  0  0  0  0  0  0  0  0999 V2000
    8.2059   -5.8717    0.5542 N   0  0  0  0  0  0  0  0  0  0  0  0
    7.4475   -5.1227    0.0717 C   0  0  0  0  0  0  0  0  0  0  0  0
    6.5088   -4.1830   -0.5035 C   0  0  0  0  0  0  0  0  0  0  0  0
    5.9896   -3.1461    0.2366 C   0  0  0  0  0  0  0  0  0  0  0  0
    5.1114   -2.2594   -0.3199 C   0  0  0  0  0  0  0  0  0  0  0  0
    4.7057   -2.3487   -1.6149 C   0  0  0  0  0  0  0  0  0  0  0  0
    3.7969   -1.4887   -2.2691 N   0  0  0  0  0  0  0  0  0  0  0  0
    3.0865   -0.3753   -1.7924 C   0  0  2  0  0  0  0  0  0  0  0  0
    3.9918    0.7137   -1.3001 C   0  0  0  0  0  0  0  0  0  0  0  0
    3.2552    1.2952   -0.1252 C   0  0  0  0  0  0  0  0  0  0  0  0
    1.9412    0.7607   -0.2085 N   0  0  0  0  0  0  0  0  0  0  0  0
    0.7343    1.4295    0.0776 C   0  0  0  0  0  0  0  0  0  0  0  0
    0.7828    2.6419    0.4057 O   0  0  0  0  0  0  0  0  0  0  0  0
   -0.5064    0.8223    0.0172 O   0  0  0  0  0  0  0  0  0  0  0  0
   -1.6867    1.5421    0.3043 C   0  0  1  0  0  0  0  0  0  0  0  0
   -2.7292    1.4233   -0.7485 C   0  0  0  0  0  0  0  0  0  0  0  0
   -3.1616   -0.0449   -0.8925 C   0  0  0  0  0  0  0  0  0  0  0  0
   -3.7634   -0.5015    0.4095 C   0  0  0  0  0  0  0  0  0  0  0  0
   -2.7150   -0.4149    1.4758 C   0  0  0  0  0  0  0  0  0  0  0  0
   -2.2923    1.0353    1.6132 C   0  0  0  0  0  0  0  0  0  0  0  0
   -3.4860    1.8351    1.9855 C   0  0  0  0  0  0  0  0  0  0  0  0
   -4.5593    1.7662    0.9111 C   0  0  2  0  0  0  0  0  0  0  0  0
   -5.6911    2.6229    1.2717 C   0  0  0  0  0  0  0  0  0  0  0  0
   -6.3910    2.3892    2.4801 N   0  0  0  0  0  0  0  0  0  0  0  0
   -6.0404    3.5587    0.5190 O   0  0  0  0  0  0  0  0  0  0  0  0
   -4.9750    0.3336    0.7357 C   0  0  0  0  0  0  0  0  0  0  0  0
   -3.9179    2.2762   -0.3648 C   0  0  0  0  0  0  0  0  0  0  0  0
    2.0858   -0.6112   -0.6804 C   0  0  0  0  0  0  0  0  0  0  0  0
    5.2453   -3.4026   -2.3341 N   0  0  0  0  0  0  0  0  0  0  0  0
    6.0976   -4.2675   -1.8057 C   0  0  0  0  0  0  0  0  0  0  0  0
    6.3139   -3.0774    1.2726 H   0  0  0  0  0  0  0  0  0  0  0  0
    4.7454   -1.4750    0.3115 H   0  0  0  0  0  0  0  0  0  0  0  0
    3.6224   -1.7378   -3.3071 H   0  0  0  0  0  0  0  0  0  0  0  0
    2.4573    0.0757   -2.6503 H   0  0  0  0  0  0  0  0  0  0  0  0
    5.0227    0.3812   -1.0555 H   0  0  0  0  0  0  0  0  0  0  0  0
    4.0193    1.5285   -2.0738 H   0  0  0  0  0  0  0  0  0  0  0  0
    3.2686    2.4168   -0.1367 H   0  0  0  0  0  0  0  0  0  0  0  0
    3.7074    0.9104    0.8268 H   0  0  0  0  0  0  0  0  0  0  0  0
   -1.4233    2.5876    0.4887 H   0  0  0  0  0  0  0  0  0  0  0  0
   -2.4264    1.7440   -1.7577 H   0  0  0  0  0  0  0  0  0  0  0  0
   -3.8586   -0.1363   -1.7294 H   0  0  0  0  0  0  0  0  0  0  0  0
   -2.2050   -0.6148   -1.0499 H   0  0  0  0  0  0  0  0  0  0  0  0
   -4.1066   -1.5647    0.2836 H   0  0  0  0  0  0  0  0  0  0  0  0
   -3.0553   -0.7468    2.4725 H   0  0  0  0  0  0  0  0  0  0  0  0
   -1.8505   -1.0363    1.2004 H   0  0  0  0  0  0  0  0  0  0  0  0
   -1.5296    1.0899    2.4417 H   0  0  0  0  0  0  0  0  0  0  0  0
   -3.2961    2.8654    2.2981 H   0  0  0  0  0  0  0  0  0  0  0  0
   -3.9591    1.3212    2.8768 H   0  0  0  0  0  0  0  0  0  0  0  0
   -6.9945    1.5527    2.6245 H   0  0  0  0  0  0  0  0  0  0  0  0
   -6.3039    3.0727    3.2740 H   0  0  0  0  0  0  0  0  0  0  0  0
   -5.4169   -0.0559    1.6866 H   0  0  0  0  0  0  0  0  0  0  0  0
   -5.7015    0.2393   -0.1047 H   0  0  0  0  0  0  0  0  0  0  0  0
   -4.6658    2.2644   -1.1826 H   0  0  0  0  0  0  0  0  0  0  0  0
   -3.5479    3.3120   -0.2250 H   0  0  0  0  0  0  0  0  0  0  0  0
    2.4853   -1.2421    0.1110 H   0  0  0  0  0  0  0  0  0  0  0  0
    1.1261   -0.9971   -1.0870 H   0  0  0  0  0  0  0  0  0  0  0  0
    6.5021   -5.0852   -2.4058 H   0  0  0  0  0  0  0  0  0  0  0  0
  1  2  3  0
  2  3  1  0
  3  4  2  0
  4  5  1  0
  5  6  2  0
  6  7  1  0
  7  8  1  0
  8  9  1  0
  9 10  1  0
 10 11  1  0
 11 12  1  0
 12 13  2  0
 12 14  1  0
 14 15  1  0
 15 16  1  0
 16 17  1  0
 17 18  1  0
 18 19  1  0
 19 20  1  0
 20 21  1  0
 21 22  1  0
 22 23  1  1
 23 24  1  0
 23 25  2  0
 22 26  1  0
 22 27  1  0
 11 28  1  0
  6 29  1  0
 29 30  2  0
 30  3  1  0
 28  8  1  0
 20 15  1  0
 27 16  1  0
 26 18  1  0
  4 31  1  0
  5 32  1  0
  7 33  1  0
  8 34  1  6
  9 35  1  0
  9 36  1  0
 10 37  1  0
 10 38  1  0
 15 39  1  1
 16 40  1  0
 17 41  1  0
 17 42  1  0
 18 43  1  0
 19 44  1  0
 19 45  1  0
 20 46  1  0
 21 47  1  0
 21 48  1  0
 24 49  1  0
 24 50  1  0
 26 51  1  0
 26 52  1  0
 27 53  1  0
 27 54  1  0
 28 55  1  0
 28 56  1  0
 30 57  1  0
M  END
$$$$
