
     RDKit          3D

 48 51  0  0  0  0  0  0  0  0999 V2000
   -6.6241    1.3204    1.5574 C   0  0  0  0  0  0  0  0  0  0  0  0
   -5.6747    1.1883    0.4769 N   0  0  0  0  0  0  0  0  0  0  0  0
   -5.7430    1.9001   -0.7689 C   0  0  0  0  0  0  0  0  0  0  0  0
   -6.6337    2.7296   -1.0873 O   0  0  0  0  0  0  0  0  0  0  0  0
   -4.6038    1.4596   -1.5309 C   0  0  0  0  0  0  0  0  0  0  0  0
   -4.2934    1.8379   -2.6777 O   0  0  0  0  0  0  0  0  0  0  0  0
   -3.8692    0.4934   -0.7371 C   0  0  0  0  0  0  0  0  0  0  0  0
   -2.7113   -0.2152   -1.0196 C   0  0  0  0  0  0  0  0  0  0  0  0
   -2.2352   -1.0754   -0.0639 C   0  0  0  0  0  0  0  0  0  0  0  0
   -0.7965   -1.9818   -0.3815 S   0  0  0  0  0  6  0  0  0  0  0  0
   -0.9500   -3.3180    0.3007 O   0  0  0  0  0  0  0  0  0  0  0  0
   -0.6888   -2.3165   -1.8667 O   0  0  0  0  0  0  0  0  0  0  0  0
    0.6540   -1.2042    0.0442 N   0  0  0  0  0  0  0  0  0  0  0  0
    0.6689   -0.9529    1.4505 C   0  0  0  0  0  0  0  0  0  0  0  0
    0.3227    0.4945    1.6258 C   0  0  0  0  0  0  0  0  0  0  0  0
    0.7953    1.1602    0.3490 C   0  0  0  0  0  0  0  0  0  0  0  0
    0.9243    0.0193   -0.5983 C   0  0  1  0  0  0  0  0  0  0  0  0
    2.3889   -0.0208   -1.0701 C   0  0  0  0  0  0  0  0  0  0  0  0
    3.2384   -0.1895    0.0403 O   0  0  0  0  0  0  0  0  0  0  0  0
    4.5935   -0.2675   -0.0065 C   0  0  0  0  0  0  0  0  0  0  0  0
    5.2661   -0.1842   -1.1992 C   0  0  0  0  0  0  0  0  0  0  0  0
    6.6507   -0.2601   -1.2844 C   0  0  0  0  0  0  0  0  0  0  0  0
    7.3430   -0.4265   -0.0962 C   0  0  0  0  0  0  0  0  0  0  0  0
    6.7023   -0.5144    1.1217 C   0  0  0  0  0  0  0  0  0  0  0  0
    5.3187   -0.4322    1.1463 C   0  0  0  0  0  0  0  0  0  0  0  0
   -2.8886   -1.2260    1.1332 C   0  0  0  0  0  0  0  0  0  0  0  0
   -4.0580   -0.5151    1.4274 C   0  0  0  0  0  0  0  0  0  0  0  0
   -4.5417    0.3540    0.4653 C   0  0  0  0  0  0  0  0  0  0  0  0
   -6.0789    1.2924    2.5049 H   0  0  0  0  0  0  0  0  0  0  0  0
   -7.2210    2.2593    1.4191 H   0  0  0  0  0  0  0  0  0  0  0  0
   -7.2838    0.4302    1.5133 H   0  0  0  0  0  0  0  0  0  0  0  0
   -2.2069   -0.0747   -1.9879 H   0  0  0  0  0  0  0  0  0  0  0  0
   -0.1010   -1.6029    1.9364 H   0  0  0  0  0  0  0  0  0  0  0  0
    1.6246   -1.2328    1.9401 H   0  0  0  0  0  0  0  0  0  0  0  0
    0.8195    0.9165    2.5227 H   0  0  0  0  0  0  0  0  0  0  0  0
   -0.7543    0.6088    1.7785 H   0  0  0  0  0  0  0  0  0  0  0  0
    0.0819    1.9417    0.0068 H   0  0  0  0  0  0  0  0  0  0  0  0
    1.7575    1.6652    0.4708 H   0  0  0  0  0  0  0  0  0  0  0  0
    0.3259    0.1748   -1.5365 H   0  0  0  0  0  0  0  0  0  0  0  0
    2.5082   -0.7817   -1.8460 H   0  0  0  0  0  0  0  0  0  0  0  0
    2.6198    0.9655   -1.5140 H   0  0  0  0  0  0  0  0  0  0  0  0
    4.7323   -0.0537   -2.1380 H   0  0  0  0  0  0  0  0  0  0  0  0
    7.1686   -0.1923   -2.2392 H   0  0  0  0  0  0  0  0  0  0  0  0
    8.4348   -0.4855   -0.1732 H   0  0  0  0  0  0  0  0  0  0  0  0
    7.2909   -0.6460    2.0381 H   0  0  0  0  0  0  0  0  0  0  0  0
    4.8485   -0.5060    2.1378 H   0  0  0  0  0  0  0  0  0  0  0  0
   -2.5519   -1.8945    1.9233 H   0  0  0  0  0  0  0  0  0  0  0  0
   -4.5692   -0.6412    2.3777 H   0  0  0  0  0  0  0  0  0  0  0  0
  1  2  1  0
  2  3  1  0
  3  4  2  0
  3  5  1  0
  5  6  2  0
  5  7  1  0
  7  8  2  0
  8  9  1  0
  9 10  1  0
 10 11  2  0
 10 12  2  0
 10 13  1  0
 13 14  1  0
 14 15  1  0
 15 16  1  0
 16 17  1  0
 17 18  1  0
 18 19  1  0
 19 20  1  0
 20 21  2  0
 21 22  1  0
 22 23  2  0
 23 24  1  0
 24 25  2  0
  9 26  2  0
 26 27  1  0
 27 28  2  0
 28  2  1  0
 28  7  1  0
 17 13  1  0
 25 20  1  0
  1 29  1  0
  1 30  1  0
  1 31  1  0
  8 32  1  0
 14 33  1  0
 14 34  1  0
 15 35  1  0
 15 36  1  0
 16 37  1  0
 16 38  1  0
 17 39  1  6
 18 40  1  0
 18 41  1  0
 21 42  1  0
 22 43  1  0
 23 44  1  0
 24 45  1  0
 25 46  1  0
 26 47  1  0
 27 48  1  0
M  END
$$$$
