
     RDKit          3D

 70 74  0  0  0  0  0  0  0  0999 V2000
   -3.3348    1.1655   -1.5400 O   0  0  0  0  0  0  0  0  0  0  0  0
   -3.0147    0.4164   -0.5855 C   0  0  0  0  0  0  0  0  0  0  0  0
   -1.6472    0.0863   -0.3979 N   0  0  0  0  0  0  0  0  0  0  0  0
   -0.5945    0.5788   -1.2651 C   0  0  0  0  0  0  0  0  0  0  0  0
    0.4061    1.3044   -0.4139 C   0  0  0  0  0  0  0  0  0  0  0  0
    1.7453    1.4592   -1.0920 C   0  0  0  0  0  0  0  0  0  0  0  0
    2.1999    0.2671   -1.7272 N   0  0  0  0  0  0  0  0  0  0  0  0
    2.6784   -0.7569   -0.8510 C   0  0  0  0  0  0  0  0  0  0  0  0
    3.8408   -0.2821   -0.0582 C   0  0  0  0  0  0  0  0  0  0  0  0
    3.8082    0.3210    1.1614 C   0  0  0  0  0  0  0  0  0  0  0  0
    5.1116    0.5811    1.5023 C   0  0  0  0  0  0  0  0  0  0  0  0
    5.9146    0.1530    0.5274 N   0  0  0  0  0  0  0  0  0  0  0  0
    7.3534    0.2329    0.4866 C   0  0  0  0  0  0  0  0  0  0  0  0
    8.0600   -0.0891    1.6183 C   0  0  0  0  0  0  0  0  0  0  0  0
    9.4524   -0.0121    1.5784 C   0  0  0  0  0  0  0  0  0  0  0  0
   10.1381    0.3742    0.4466 C   0  0  0  0  0  0  0  0  0  0  0  0
   11.6270    0.4489    0.4269 C   0  0  0  0  0  0  0  0  0  0  0  0
   12.0211   -0.1182   -0.7813 F   0  0  0  0  0  0  0  0  0  0  0  0
   12.0784    1.7463    0.4941 F   0  0  0  0  0  0  0  0  0  0  0  0
   12.0837   -0.3204    1.4838 F   0  0  0  0  0  0  0  0  0  0  0  0
    9.4073    0.6959   -0.6879 C   0  0  0  0  0  0  0  0  0  0  0  0
    8.0124    0.6163   -0.6400 C   0  0  0  0  0  0  0  0  0  0  0  0
    5.1582   -0.3771   -0.4341 C   0  0  0  0  0  0  0  0  0  0  0  0
    1.2550   -0.2250   -2.6876 C   0  0  0  0  0  0  0  0  0  0  0  0
   -0.0027   -0.6156   -1.9716 C   0  0  0  0  0  0  0  0  0  0  0  0
   -4.0205   -0.0849    0.2849 N   0  0  0  0  0  0  0  0  0  0  0  0
   -5.4185    0.2353    0.1163 C   0  0  0  0  0  0  0  0  0  0  0  0
   -6.0056    0.9397    1.2959 C   0  0  0  0  0  0  0  0  0  0  0  0
   -7.4109    1.1991    0.9895 N   0  0  0  0  0  0  0  0  0  0  0  0
   -8.4688    0.4212    1.2388 C   0  0  0  0  0  0  0  0  0  0  0  0
   -9.5854    1.0761    0.7729 C   0  0  0  0  0  0  0  0  0  0  0  0
   -9.1818    2.2312    0.2539 N   0  0  0  0  0  0  0  0  0  0  0  0
   -7.8529    2.3144    0.3822 C   0  0  0  0  0  0  0  0  0  0  0  0
   -6.1783   -1.0025   -0.1313 C   0  0  0  0  0  0  0  0  0  0  0  0
   -5.9211   -2.1085    0.6520 C   0  0  0  0  0  0  0  0  0  0  0  0
   -6.6148   -3.2985    0.4537 C   0  0  0  0  0  0  0  0  0  0  0  0
   -7.5703   -3.3669   -0.5398 C   0  0  0  0  0  0  0  0  0  0  0  0
   -7.8242   -2.2578   -1.3208 C   0  0  0  0  0  0  0  0  0  0  0  0
   -7.1333   -1.0754   -1.1221 C   0  0  0  0  0  0  0  0  0  0  0  0
   -1.3540   -0.5382    0.3929 H   0  0  0  0  0  0  0  0  0  0  0  0
   -1.0567    1.2197   -2.0386 H   0  0  0  0  0  0  0  0  0  0  0  0
    0.0087    2.3462   -0.2543 H   0  0  0  0  0  0  0  0  0  0  0  0
    0.4956    0.8600    0.5960 H   0  0  0  0  0  0  0  0  0  0  0  0
    1.7380    2.3048   -1.8255 H   0  0  0  0  0  0  0  0  0  0  0  0
    2.4783    1.7570   -0.3167 H   0  0  0  0  0  0  0  0  0  0  0  0
    1.8570   -0.9934   -0.1336 H   0  0  0  0  0  0  0  0  0  0  0  0
    2.8730   -1.6726   -1.4173 H   0  0  0  0  0  0  0  0  0  0  0  0
    2.9007    0.5410    1.7319 H   0  0  0  0  0  0  0  0  0  0  0  0
    5.4524    1.0559    2.4110 H   0  0  0  0  0  0  0  0  0  0  0  0
    7.5483   -0.3904    2.5049 H   0  0  0  0  0  0  0  0  0  0  0  0
    9.9941   -0.2684    2.4766 H   0  0  0  0  0  0  0  0  0  0  0  0
    9.9201    1.0008   -1.5858 H   0  0  0  0  0  0  0  0  0  0  0  0
    7.4460    0.8684   -1.5278 H   0  0  0  0  0  0  0  0  0  0  0  0
    5.4936   -0.8263   -1.3858 H   0  0  0  0  0  0  0  0  0  0  0  0
    1.0826    0.5830   -3.4306 H   0  0  0  0  0  0  0  0  0  0  0  0
    1.7133   -1.0859   -3.2002 H   0  0  0  0  0  0  0  0  0  0  0  0
   -0.7485   -0.9367   -2.7446 H   0  0  0  0  0  0  0  0  0  0  0  0
    0.2154   -1.4602   -1.3040 H   0  0  0  0  0  0  0  0  0  0  0  0
   -3.7073   -0.7046    1.0655 H   0  0  0  0  0  0  0  0  0  0  0  0
   -5.5356    0.9046   -0.7677 H   0  0  0  0  0  0  0  0  0  0  0  0
   -5.9532    0.2994    2.2182 H   0  0  0  0  0  0  0  0  0  0  0  0
   -5.5442    1.9143    1.5247 H   0  0  0  0  0  0  0  0  0  0  0  0
   -8.4152   -0.5534    1.7273 H   0  0  0  0  0  0  0  0  0  0  0  0
  -10.6213    0.7162    0.8186 H   0  0  0  0  0  0  0  0  0  0  0  0
   -7.2700    3.1614    0.0379 H   0  0  0  0  0  0  0  0  0  0  0  0
   -5.1757   -2.0729    1.4351 H   0  0  0  0  0  0  0  0  0  0  0  0
   -6.4032   -4.1557    1.0739 H   0  0  0  0  0  0  0  0  0  0  0  0
   -8.1290   -4.2631   -0.7278 H   0  0  0  0  0  0  0  0  0  0  0  0
   -8.5576   -2.2937   -2.0910 H   0  0  0  0  0  0  0  0  0  0  0  0
   -7.3171   -0.1909   -1.7248 H   0  0  0  0  0  0  0  0  0  0  0  0
  1  2  2  0
  2  3  1  0
  3  4  1  0
  4  5  1  0
  5  6  1  0
  6  7  1  0
  7  8  1  0
  8  9  1  0
  9 10  1  0
 10 11  2  0
 11 12  1  0
 12 13  1  0
 13 14  2  0
 14 15  1  0
 15 16  2  0
 16 17  1  0
 17 18  1  0
 17 19  1  0
 17 20  1  0
 16 21  1  0
 21 22  2  0
 12 23  1  0
  7 24  1  0
 24 25  1  0
  2 26  1  0
 26 27  1  0
 27 28  1  0
 28 29  1  0
 29 30  1  0
 30 31  2  0
 31 32  1  0
 32 33  2  0
 27 34  1  0
 34 35  2  0
 35 36  1  0
 36 37  2  0
 37 38  1  0
 38 39  2  0
 25  4  1  0
 33 29  1  0
 39 34  1  0
 23  9  2  0
 22 13  1  0
  3 40  1  0
  4 41  1  0
  5 42  1  0
  5 43  1  0
  6 44  1  0
  6 45  1  0
  8 46  1  0
  8 47  1  0
 10 48  1  0
 11 49  1  0
 14 50  1  0
 15 51  1  0
 21 52  1  0
 22 53  1  0
 23 54  1  0
 24 55  1  0
 24 56  1  0
 25 57  1  0
 25 58  1  0
 26 59  1  0
 27 60  1  0
 28 61  1  0
 28 62  1  0
 30 63  1  0
 31 64  1  0
 33 65  1  0
 35 66  1  0
 36 67  1  0
 37 68  1  0
 38 69  1  0
 39 70  1  0
M  END
$$$$
