
     RDKit          3D

 43 45  0  0  0  0  0  0  0  0999 V2000
   -4.1867   -1.2659    0.2392 C   0  0  0  0  0  0  0  0  0  0  0  0
   -3.2973   -2.4436    0.0302 C   0  0  0  0  0  0  0  0  0  0  0  0
   -3.2343   -3.2948    1.3085 C   0  0  0  0  0  0  0  0  0  0  0  0
   -1.9405   -2.1196   -0.3021 N   0  0  0  0  0  0  0  0  0  0  0  0
   -0.9546   -3.0096   -0.4157 C   0  0  0  0  0  0  0  0  0  0  0  0
    0.1865   -2.3813   -0.7306 N   0  0  0  0  0  0  0  0  0  0  0  0
   -0.0715   -1.0654   -0.8208 C   0  0  0  0  0  0  0  0  0  0  0  0
    0.7220    0.0479   -1.1112 C   0  0  0  0  0  0  0  0  0  0  0  0
    2.0978   -0.1610   -1.3911 N   0  0  0  0  0  0  0  0  0  0  0  0
    3.0299   -0.3002   -0.3301 C   0  0  0  0  0  0  0  0  0  0  0  0
    2.5696   -0.2966    0.9786 C   0  0  0  0  0  0  0  0  0  0  0  0
    3.4543   -0.4381    2.0210 C   0  0  0  0  0  0  0  0  0  0  0  0
    4.8109   -0.5878    1.8336 C   0  0  0  0  0  0  0  0  0  0  0  0
    5.2554   -0.5897    0.5250 C   0  0  0  0  0  0  0  0  0  0  0  0
    6.9943   -0.7866    0.2743 Cl  0  0  0  0  0  0  0  0  0  0  0  0
    4.3821   -0.4486   -0.5344 C   0  0  0  0  0  0  0  0  0  0  0  0
    0.1275    1.2498   -1.1142 N   0  0  0  0  0  0  0  0  0  0  0  0
   -1.1960    1.4285   -0.8502 C   0  0  0  0  0  0  0  0  0  0  0  0
   -1.7382    2.7458   -0.8724 N   0  0  0  0  0  0  0  0  0  0  0  0
   -0.9218    3.9135   -1.0910 C   0  0  0  0  0  0  0  0  0  0  0  0
    0.0423    4.0160    0.0843 C   0  0  0  0  0  0  0  0  0  0  0  0
    0.8438    5.1619   -0.1329 O   0  0  0  0  0  0  0  0  0  0  0  0
   -1.9111    0.3461   -0.5794 N   0  0  0  0  0  0  0  0  0  0  0  0
   -1.4204   -0.9044   -0.5487 C   0  0  0  0  0  0  0  0  0  0  0  0
   -3.7048   -0.4492    0.7732 H   0  0  0  0  0  0  0  0  0  0  0  0
   -5.0890   -1.6017    0.8008 H   0  0  0  0  0  0  0  0  0  0  0  0
   -4.4726   -0.8875   -0.7770 H   0  0  0  0  0  0  0  0  0  0  0  0
   -3.7840   -3.0825   -0.7563 H   0  0  0  0  0  0  0  0  0  0  0  0
   -2.7400   -2.6873    2.0975 H   0  0  0  0  0  0  0  0  0  0  0  0
   -2.6534   -4.2276    1.0681 H   0  0  0  0  0  0  0  0  0  0  0  0
   -4.2524   -3.6110    1.5275 H   0  0  0  0  0  0  0  0  0  0  0  0
   -1.0188   -4.0802   -0.2830 H   0  0  0  0  0  0  0  0  0  0  0  0
    2.4699   -0.2174   -2.3664 H   0  0  0  0  0  0  0  0  0  0  0  0
    1.4973   -0.1809    1.1668 H   0  0  0  0  0  0  0  0  0  0  0  0
    3.0790   -0.4338    3.0404 H   0  0  0  0  0  0  0  0  0  0  0  0
    5.4872   -0.6972    2.6684 H   0  0  0  0  0  0  0  0  0  0  0  0
    4.7787   -0.4558   -1.5427 H   0  0  0  0  0  0  0  0  0  0  0  0
   -2.7614    2.8739   -0.7278 H   0  0  0  0  0  0  0  0  0  0  0  0
   -1.4993    4.8281   -1.2525 H   0  0  0  0  0  0  0  0  0  0  0  0
   -0.3273    3.7358   -2.0187 H   0  0  0  0  0  0  0  0  0  0  0  0
    0.6953    3.1372    0.1562 H   0  0  0  0  0  0  0  0  0  0  0  0
   -0.5213    4.0929    1.0343 H   0  0  0  0  0  0  0  0  0  0  0  0
    1.1725    5.1277   -1.0786 H   0  0  0  0  0  0  0  0  0  0  0  0
  1  2  1  0
  2  3  1  0
  2  4  1  0
  4  5  1  0
  5  6  2  0
  6  7  1  0
  7  8  2  0
  8  9  1  0
  9 10  1  0
 10 11  2  0
 11 12  1  0
 12 13  2  0
 13 14  1  0
 14 15  1  0
 14 16  2  0
  8 17  1  0
 17 18  2  0
 18 19  1  0
 19 20  1  0
 20 21  1  0
 21 22  1  0
 18 23  1  0
 23 24  2  0
 24  4  1  0
 24  7  1  0
 16 10  1  0
  1 25  1  0
  1 26  1  0
  1 27  1  0
  2 28  1  0
  3 29  1  0
  3 30  1  0
  3 31  1  0
  5 32  1  0
  9 33  1  0
 11 34  1  0
 12 35  1  0
 13 36  1  0
 16 37  1  0
 19 38  1  0
 20 39  1  0
 20 40  1  0
 21 41  1  0
 21 42  1  0
 22 43  1  0
M  END
$$$$
