
     RDKit          3D

 52 54  0  0  0  0  0  0  0  0999 V2000
   -4.0846    0.3002   -2.9300 C   0  0  0  0  0  0  0  0  0  0  0  0
   -2.6222    0.2006   -2.6112 C   0  0  0  0  0  0  0  0  0  0  0  0
   -1.6546    0.3809   -3.5566 C   0  0  0  0  0  0  0  0  0  0  0  0
   -0.3052    0.2712   -3.1787 C   0  0  0  0  0  0  0  0  0  0  0  0
    0.0937   -0.0104   -1.8958 C   0  0  0  0  0  0  0  0  0  0  0  0
    1.4483   -0.1232   -1.5029 N   0  0  0  0  0  0  0  0  0  0  0  0
    2.6020    0.0161   -2.2732 C   0  0  0  0  0  0  0  0  0  0  0  0
    2.4865    0.2787   -3.4939 O   0  0  0  0  0  0  0  0  0  0  0  0
    3.9706   -0.1305   -1.7239 C   0  0  0  0  0  0  0  0  0  0  0  0
    5.0649    0.0237   -2.5546 C   0  0  0  0  0  0  0  0  0  0  0  0
    6.3611   -0.0929   -2.1386 C   0  0  0  0  0  0  0  0  0  0  0  0
    6.5870   -0.3818   -0.8087 C   0  0  0  0  0  0  0  0  0  0  0  0
    5.5381   -0.5472    0.0700 C   0  0  0  0  0  0  0  0  0  0  0  0
    5.7711   -0.8441    1.4370 N   0  0  0  0  0  0  0  0  0  0  0  0
    4.6518   -1.0120    2.3327 C   0  0  0  0  0  0  0  0  0  0  0  0
    7.1045   -0.9852    1.9678 C   0  0  0  0  0  0  0  0  0  0  0  0
    4.2271   -0.4174   -0.4066 C   0  0  0  0  0  0  0  0  0  0  0  0
   -0.9219   -0.1852   -0.9706 C   0  0  0  0  0  0  0  0  0  0  0  0
   -2.2369   -0.0863   -1.3019 C   0  0  0  0  0  0  0  0  0  0  0  0
   -3.2749   -0.2669   -0.3474 N   0  0  0  0  0  0  0  0  0  0  0  0
   -3.7613    0.8433    0.3791 C   0  0  0  0  0  0  0  0  0  0  0  0
   -3.2475    1.9831    0.1521 O   0  0  0  0  0  0  0  0  0  0  0  0
   -4.8144    0.7544    1.3695 C   0  0  0  0  0  0  0  0  0  0  0  0
   -5.4291   -0.4400    1.6804 C   0  0  0  0  0  0  0  0  0  0  0  0
   -6.4302   -0.5007    2.6274 C   0  0  0  0  0  0  0  0  0  0  0  0
   -6.8439    0.6470    3.2929 C   0  0  0  0  0  0  0  0  0  0  0  0
   -7.8453    0.5461    4.2308 O   0  0  0  0  0  0  0  0  0  0  0  0
   -6.2368    1.8504    2.9914 C   0  0  0  0  0  0  0  0  0  0  0  0
   -5.2231    1.8907    2.0276 C   0  0  0  0  0  0  0  0  0  0  0  0
   -4.6361   -0.2845   -2.1765 H   0  0  0  0  0  0  0  0  0  0  0  0
   -4.3871    1.3592   -2.9053 H   0  0  0  0  0  0  0  0  0  0  0  0
   -4.2146   -0.0792   -3.9610 H   0  0  0  0  0  0  0  0  0  0  0  0
   -1.9296    0.6027   -4.5711 H   0  0  0  0  0  0  0  0  0  0  0  0
    0.4060    0.4224   -3.9617 H   0  0  0  0  0  0  0  0  0  0  0  0
    1.6078   -0.3471   -0.4683 H   0  0  0  0  0  0  0  0  0  0  0  0
    4.8655    0.2518   -3.6029 H   0  0  0  0  0  0  0  0  0  0  0  0
    7.2116    0.0334   -2.8149 H   0  0  0  0  0  0  0  0  0  0  0  0
    7.6018   -0.4891   -0.4082 H   0  0  0  0  0  0  0  0  0  0  0  0
    4.9851   -1.0917    3.3876 H   0  0  0  0  0  0  0  0  0  0  0  0
    4.1933   -2.0062    2.0908 H   0  0  0  0  0  0  0  0  0  0  0  0
    3.9178   -0.1820    2.2356 H   0  0  0  0  0  0  0  0  0  0  0  0
    7.7255   -0.1261    1.5943 H   0  0  0  0  0  0  0  0  0  0  0  0
    7.1403   -0.9962    3.0579 H   0  0  0  0  0  0  0  0  0  0  0  0
    7.6107   -1.8940    1.5664 H   0  0  0  0  0  0  0  0  0  0  0  0
    3.4277   -0.5490    0.2897 H   0  0  0  0  0  0  0  0  0  0  0  0
   -0.6305   -0.4078    0.0458 H   0  0  0  0  0  0  0  0  0  0  0  0
   -3.6695   -1.2021   -0.1869 H   0  0  0  0  0  0  0  0  0  0  0  0
   -5.1516   -1.3663    1.1973 H   0  0  0  0  0  0  0  0  0  0  0  0
   -6.9193   -1.4404    2.8772 H   0  0  0  0  0  0  0  0  0  0  0  0
   -8.7702    0.2263    3.9379 H   0  0  0  0  0  0  0  0  0  0  0  0
   -6.5655    2.7378    3.5145 H   0  0  0  0  0  0  0  0  0  0  0  0
   -4.7937    2.8656    1.8432 H   0  0  0  0  0  0  0  0  0  0  0  0
  1  2  1  0
  2  3  2  0
  3  4  1  0
  4  5  2  0
  5  6  1  0
  6  7  1  0
  7  8  2  0
  7  9  1  0
  9 10  2  0
 10 11  1  0
 11 12  2  0
 12 13  1  0
 13 14  1  0
 14 15  1  0
 14 16  1  0
 13 17  2  0
  5 18  1  0
 18 19  2  0
 19 20  1  0
 20 21  1  0
 21 22  2  0
 21 23  1  0
 23 24  2  0
 24 25  1  0
 25 26  2  0
 26 27  1  0
 26 28  1  0
 28 29  2  0
 19  2  1  0
 29 23  1  0
 17  9  1  0
  1 30  1  0
  1 31  1  0
  1 32  1  0
  3 33  1  0
  4 34  1  0
  6 35  1  0
 10 36  1  0
 11 37  1  0
 12 38  1  0
 15 39  1  0
 15 40  1  0
 15 41  1  0
 16 42  1  0
 16 43  1  0
 16 44  1  0
 17 45  1  0
 18 46  1  0
 20 47  1  0
 24 48  1  0
 25 49  1  0
 27 50  1  0
 28 51  1  0
 29 52  1  0
M  END
$$$$
