
     RDKit          3D

 27 29  0  0  0  0  0  0  0  0999 V2000
    5.6764    2.9033   -0.4785 N   0  0  0  0  0  0  0  0  0  0  0  0
    5.0853    1.9209   -0.3760 C   0  0  0  0  0  0  0  0  0  0  0  0
    4.3569    0.6983   -0.2632 C   0  0  0  0  0  0  0  0  0  0  0  0
    5.0382   -0.4373   -0.1380 N   0  0  0  0  0  0  0  0  0  0  0  0
    4.4733   -1.6552   -0.0232 C   0  0  0  0  0  0  0  0  0  0  0  0
    3.0845   -1.6599   -0.0437 C   0  0  0  0  0  0  0  0  0  0  0  0
    2.2982   -0.5447   -0.1684 C   0  0  0  0  0  0  0  0  0  0  0  0
    2.9639    0.6569   -0.2801 C   0  0  0  0  0  0  0  0  0  0  0  0
    0.8437   -0.6563   -0.1791 C   0  0  0  0  0  0  0  0  0  0  0  0
    0.1734   -1.7965   -0.4525 N   0  0  0  0  0  0  0  0  0  0  0  0
   -1.1447   -1.5724   -0.3820 N   0  0  0  0  0  0  0  0  0  0  0  0
   -1.3289   -0.2752   -0.0599 C   0  0  0  0  0  0  0  0  0  0  0  0
   -0.1123    0.2416    0.0534 N   0  0  0  0  0  0  0  0  0  0  0  0
   -2.6506    0.3118    0.1002 C   0  0  0  0  0  0  0  0  0  0  0  0
   -3.7575   -0.4920   -0.0852 C   0  0  0  0  0  0  0  0  0  0  0  0
   -5.0510    0.0139    0.0545 C   0  0  0  0  0  0  0  0  0  0  0  0
   -5.2189    1.3118    0.3765 N   0  0  0  0  0  0  0  0  0  0  0  0
   -4.1381    2.1095    0.5607 C   0  0  0  0  0  0  0  0  0  0  0  0
   -2.8393    1.6391    0.4296 C   0  0  0  0  0  0  0  0  0  0  0  0
    5.0406   -2.5816    0.0792 H   0  0  0  0  0  0  0  0  0  0  0  0
    2.6236   -2.6470    0.0493 H   0  0  0  0  0  0  0  0  0  0  0  0
    2.3914    1.5821   -0.3824 H   0  0  0  0  0  0  0  0  0  0  0  0
   -1.8353   -2.3306   -0.5609 H   0  0  0  0  0  0  0  0  0  0  0  0
   -3.7043   -1.5377   -0.3437 H   0  0  0  0  0  0  0  0  0  0  0  0
   -5.9149   -0.6319   -0.0947 H   0  0  0  0  0  0  0  0  0  0  0  0
   -4.3581    3.1370    0.8166 H   0  0  0  0  0  0  0  0  0  0  0  0
   -1.9957    2.2919    0.5808 H   0  0  0  0  0  0  0  0  0  0  0  0
  1  2  3  0
  2  3  1  0
  3  4  2  0
  4  5  1  0
  5  6  2  0
  6  7  1  0
  7  8  2  0
  7  9  1  0
  9 10  2  0
 10 11  1  0
 11 12  1  0
 12 13  2  0
 12 14  1  0
 14 15  2  0
 15 16  1  0
 16 17  2  0
 17 18  1  0
 18 19  2  0
  8  3  1  0
 13  9  1  0
 19 14  1  0
  5 20  1  0
  6 21  1  0
  8 22  1  0
 11 23  1  0
 15 24  1  0
 16 25  1  0
 18 26  1  0
 19 27  1  0
M  END
$$$$
