
     RDKit          3D

 48 50  0  0  0  0  0  0  0  0999 V2000
    7.1914   -1.2512    1.1037 C   0  0  0  0  0  0  0  0  0  0  0  0
    5.9267   -0.5199    0.8399 C   0  0  0  0  0  0  0  0  0  0  0  0
    4.8671   -1.2273    0.4231 N   0  0  0  0  0  0  0  0  0  0  0  0
    3.6924   -0.6251    0.1667 C   0  0  0  0  0  0  0  0  0  0  0  0
    2.6045   -1.4055   -0.2375 N   0  0  0  0  0  0  0  0  0  0  0  0
    1.3473   -0.8493   -0.6588 C   0  0  0  0  0  0  0  0  0  0  0  0
    0.2345   -1.0869    0.1238 C   0  0  0  0  0  0  0  0  0  0  0  0
   -0.9946   -0.5779   -0.2289 C   0  0  0  0  0  0  0  0  0  0  0  0
   -2.1479   -0.8245    0.5653 N   0  0  0  0  0  0  0  0  0  0  0  0
   -3.4180   -0.2578    0.1649 C   0  0  2  0  0  0  0  0  0  0  0  0
   -3.3726    1.2532    0.1898 C   0  0  0  0  0  0  0  0  0  0  0  0
   -4.7489    1.7678   -0.1008 C   0  0  0  0  0  0  0  0  0  0  0  0
   -5.6395    1.4127    1.0691 C   0  0  0  0  0  0  0  0  0  0  0  0
   -5.1801    0.2135    1.8304 C   0  0  0  0  0  0  0  0  0  0  0  0
   -4.5886   -0.8179    0.8914 C   0  0  2  0  0  0  0  0  0  0  0  0
   -4.1148   -1.9694    1.6748 N   0  0  0  0  0  0  0  0  0  0  0  0
   -1.0389    0.1423   -1.3486 N   0  0  0  0  0  0  0  0  0  0  0  0
   -0.0243    0.3962   -2.1236 N   0  0  0  0  0  0  0  0  0  0  0  0
    1.2068   -0.0987   -1.7968 C   0  0  0  0  0  0  0  0  0  0  0  0
    2.3238    0.1211   -2.7094 C   0  0  0  0  0  0  0  0  0  0  0  0
    2.1521    0.9909   -3.7963 N   0  0  0  0  0  0  0  0  0  0  0  0
    3.4065   -0.4490   -2.5295 O   0  0  0  0  0  0  0  0  0  0  0  0
    3.6033    0.7591    0.3457 C   0  0  0  0  0  0  0  0  0  0  0  0
    4.6891    1.4889    0.7735 C   0  0  0  0  0  0  0  0  0  0  0  0
    5.8828    0.8379    1.0283 C   0  0  0  0  0  0  0  0  0  0  0  0
    6.9450    1.5377    1.4452 F   0  0  0  0  0  0  0  0  0  0  0  0
    6.9534   -2.1577    1.7064 H   0  0  0  0  0  0  0  0  0  0  0  0
    7.8924   -0.5823    1.6216 H   0  0  0  0  0  0  0  0  0  0  0  0
    7.6441   -1.5374    0.1387 H   0  0  0  0  0  0  0  0  0  0  0  0
    2.6764   -2.4388   -0.2435 H   0  0  0  0  0  0  0  0  0  0  0  0
    0.3269   -1.6787    1.0233 H   0  0  0  0  0  0  0  0  0  0  0  0
   -2.0756   -1.4070    1.4252 H   0  0  0  0  0  0  0  0  0  0  0  0
   -3.5297   -0.5239   -0.9279 H   0  0  0  0  0  0  0  0  0  0  0  0
   -3.1069    1.5766    1.2394 H   0  0  0  0  0  0  0  0  0  0  0  0
   -2.5970    1.6767   -0.4618 H   0  0  0  0  0  0  0  0  0  0  0  0
   -5.0973    1.2927   -1.0430 H   0  0  0  0  0  0  0  0  0  0  0  0
   -4.6972    2.8636   -0.1766 H   0  0  0  0  0  0  0  0  0  0  0  0
   -6.6795    1.3116    0.6979 H   0  0  0  0  0  0  0  0  0  0  0  0
   -5.6357    2.2751    1.7787 H   0  0  0  0  0  0  0  0  0  0  0  0
   -4.4020    0.4493    2.5843 H   0  0  0  0  0  0  0  0  0  0  0  0
   -6.0714   -0.2733    2.2959 H   0  0  0  0  0  0  0  0  0  0  0  0
   -5.3205   -1.2170    0.1890 H   0  0  0  0  0  0  0  0  0  0  0  0
   -4.9158   -2.4527    2.1403 H   0  0  0  0  0  0  0  0  0  0  0  0
   -3.6647   -2.6028    0.9534 H   0  0  0  0  0  0  0  0  0  0  0  0
    2.5230    1.9531   -3.7530 H   0  0  0  0  0  0  0  0  0  0  0  0
    1.6549    0.6743   -4.6433 H   0  0  0  0  0  0  0  0  0  0  0  0
    2.6749    1.2596    0.1460 H   0  0  0  0  0  0  0  0  0  0  0  0
    4.6422    2.5782    0.9217 H   0  0  0  0  0  0  0  0  0  0  0  0
  1  2  1  0
  2  3  2  0
  3  4  1  0
  4  5  1  0
  5  6  1  0
  6  7  2  0
  7  8  1  0
  8  9  1  0
  9 10  1  0
 10 11  1  0
 11 12  1  0
 12 13  1  0
 13 14  1  0
 14 15  1  0
 15 16  1  0
  8 17  2  0
 17 18  1  0
 18 19  2  0
 19 20  1  0
 20 21  1  0
 20 22  2  0
  4 23  2  0
 23 24  1  0
 24 25  2  0
 25 26  1  0
 25  2  1  0
 19  6  1  0
 15 10  1  0
  1 27  1  0
  1 28  1  0
  1 29  1  0
  5 30  1  0
  7 31  1  0
  9 32  1  0
 10 33  1  6
 11 34  1  0
 11 35  1  0
 12 36  1  0
 12 37  1  0
 13 38  1  0
 13 39  1  0
 14 40  1  0
 14 41  1  0
 15 42  1  6
 16 43  1  0
 16 44  1  0
 21 45  1  0
 21 46  1  0
 23 47  1  0
 24 48  1  0
M  END
$$$$
