
     RDKit          3D

 46 50  0  0  0  0  0  0  0  0999 V2000
   -3.1946    1.3799   -0.3460 C   0  0  0  0  0  0  0  0  0  0  0  0
   -2.5328    0.1337   -0.8741 C   0  0  2  0  0  0  0  0  0  0  0  0
   -3.6336   -0.7232   -1.5161 C   0  0  0  0  0  0  0  0  0  0  0  0
   -3.6883   -2.0865   -0.8817 C   0  0  0  0  0  0  0  0  0  0  0  0
   -3.6613   -2.0555    0.6079 C   0  0  0  0  0  0  0  0  0  0  0  0
   -2.8727   -1.0331    1.1320 O   0  0  0  0  0  0  0  0  0  0  0  0
   -1.9050   -0.7034    0.1847 C   0  0  2  0  0  0  0  0  0  0  0  0
   -0.6740   -0.1076    0.8130 C   0  0  1  0  0  0  0  0  0  0  0  0
   -0.9733    0.9822    1.7947 C   0  0  0  0  0  0  0  0  0  0  0  0
   -0.0073    0.7445    2.8119 O   0  0  0  0  0  0  0  0  0  0  0  0
    0.2598   -0.6238    2.7898 C   0  0  0  0  0  0  0  0  0  0  0  0
    0.8555   -1.3811    3.8444 N   0  0  0  0  0  0  0  0  0  0  0  0
   -0.1032   -1.1338    1.6795 N   0  0  0  0  0  0  0  0  0  0  0  0
    0.2554    0.2835   -0.2476 C   0  0  0  0  0  0  0  0  0  0  0  0
    1.6058    0.3673   -0.0028 C   0  0  0  0  0  0  0  0  0  0  0  0
    2.5144    0.7376   -0.9917 C   0  0  0  0  0  0  0  0  0  0  0  0
    3.9545    0.8196   -0.7043 C   0  0  0  0  0  0  0  0  0  0  0  0
    4.8889    0.5550   -1.6748 C   0  0  0  0  0  0  0  0  0  0  0  0
    6.1824    0.6426   -1.3652 N   0  0  0  0  0  0  0  0  0  0  0  0
    6.6385    0.9786   -0.1453 C   0  0  0  0  0  0  0  0  0  0  0  0
    5.7110    1.2328    0.7875 N   0  0  0  0  0  0  0  0  0  0  0  0
    4.3921    1.1659    0.5536 C   0  0  0  0  0  0  0  0  0  0  0  0
    2.0235    1.0233   -2.2424 C   0  0  0  0  0  0  0  0  0  0  0  0
    0.6617    0.9371   -2.4827 C   0  0  0  0  0  0  0  0  0  0  0  0
   -0.2272    0.5712   -1.5022 C   0  0  0  0  0  0  0  0  0  0  0  0
   -1.5718    0.5098   -1.8268 O   0  0  0  0  0  0  0  0  0  0  0  0
   -3.9878    1.6601   -1.0991 H   0  0  0  0  0  0  0  0  0  0  0  0
   -2.4806    2.2246   -0.3344 H   0  0  0  0  0  0  0  0  0  0  0  0
   -3.7244    1.2211    0.6032 H   0  0  0  0  0  0  0  0  0  0  0  0
   -4.6284   -0.2476   -1.4154 H   0  0  0  0  0  0  0  0  0  0  0  0
   -3.3804   -0.8909   -2.6034 H   0  0  0  0  0  0  0  0  0  0  0  0
   -4.6813   -2.5323   -1.1823 H   0  0  0  0  0  0  0  0  0  0  0  0
   -2.9346   -2.7934   -1.3185 H   0  0  0  0  0  0  0  0  0  0  0  0
   -3.2050   -3.0089    0.9675 H   0  0  0  0  0  0  0  0  0  0  0  0
   -4.6833   -2.0341    1.0634 H   0  0  0  0  0  0  0  0  0  0  0  0
   -1.5872   -1.6614   -0.2823 H   0  0  0  0  0  0  0  0  0  0  0  0
   -1.9572    0.8446    2.2495 H   0  0  0  0  0  0  0  0  0  0  0  0
   -0.8014    2.0005    1.3971 H   0  0  0  0  0  0  0  0  0  0  0  0
    0.7159   -1.1043    4.8370 H   0  0  0  0  0  0  0  0  0  0  0  0
    1.4446   -2.2257    3.6828 H   0  0  0  0  0  0  0  0  0  0  0  0
    2.0074    0.1458    0.9753 H   0  0  0  0  0  0  0  0  0  0  0  0
    4.5519    0.2758   -2.6883 H   0  0  0  0  0  0  0  0  0  0  0  0
    7.7117    1.0435    0.0827 H   0  0  0  0  0  0  0  0  0  0  0  0
    3.6686    1.3852    1.3573 H   0  0  0  0  0  0  0  0  0  0  0  0
    2.7358    1.3098   -3.0034 H   0  0  0  0  0  0  0  0  0  0  0  0
    0.3174    1.1713   -3.4839 H   0  0  0  0  0  0  0  0  0  0  0  0
  2  1  1  1
  2  3  1  0
  3  4  1  0
  4  5  1  0
  5  6  1  0
  6  7  1  0
  7  8  1  0
  8  9  1  1
  9 10  1  0
 10 11  1  0
 11 12  1  0
 11 13  2  0
  8 14  1  0
 14 15  2  0
 15 16  1  0
 16 17  1  0
 17 18  2  0
 18 19  1  0
 19 20  2  0
 20 21  1  0
 21 22  2  0
 16 23  2  0
 23 24  1  0
 24 25  2  0
 25 26  1  0
  7  2  1  0
 13  8  1  0
 25 14  1  0
 26  2  1  0
 22 17  1  0
  1 27  1  0
  1 28  1  0
  1 29  1  0
  3 30  1  0
  3 31  1  0
  4 32  1  0
  4 33  1  0
  5 34  1  0
  5 35  1  0
  7 36  1  6
  9 37  1  0
  9 38  1  0
 12 39  1  0
 12 40  1  0
 15 41  1  0
 18 42  1  0
 20 43  1  0
 22 44  1  0
 23 45  1  0
 24 46  1  0
M  END
$$$$
