
     RDKit          3D

 36 38  0  0  0  0  0  0  0  0999 V2000
   -1.4822    3.2089    0.7644 C   0  0  0  0  0  0  0  0  0  0  0  0
   -2.0523    1.8665    0.5257 C   0  0  0  0  0  0  0  0  0  0  0  0
   -3.1770    1.7290   -0.2416 N   0  0  0  0  0  0  0  0  0  0  0  0
   -3.4873    0.4265   -0.2700 C   0  0  0  0  0  0  0  0  0  0  0  0
   -4.5358   -0.2640   -0.8930 C   0  0  0  0  0  0  0  0  0  0  0  0
   -4.5858   -1.6250   -0.7201 C   0  0  0  0  0  0  0  0  0  0  0  0
   -3.6378   -2.2712    0.0376 C   0  0  0  0  0  0  0  0  0  0  0  0
   -2.5988   -1.5802    0.6539 C   0  0  0  0  0  0  0  0  0  0  0  0
   -2.5372   -0.2127    0.4868 C   0  0  0  0  0  0  0  0  0  0  0  0
   -1.6347    0.6942    0.9854 N   0  0  0  0  0  0  0  0  0  0  0  0
   -0.5186    0.3323    1.8259 C   0  0  0  0  0  0  0  0  0  0  0  0
    0.7181   -0.0065    1.1473 C   0  0  0  0  0  0  0  0  0  0  0  0
    1.0538   -1.3403    0.8951 C   0  0  0  0  0  0  0  0  0  0  0  0
    2.2235   -1.6353    0.2204 C   0  0  0  0  0  0  0  0  0  0  0  0
    3.1062   -0.6876   -0.2331 C   0  0  0  0  0  0  0  0  0  0  0  0
    4.3164   -1.0775   -0.9342 C   0  0  0  0  0  0  0  0  0  0  0  0
    4.5823   -2.3068   -1.0975 O   0  0  0  0  0  0  0  0  0  0  0  0
    5.2394   -0.1453   -1.4588 N   0  0  0  0  0  0  0  0  0  0  0  0
    6.3741   -0.5696   -2.1151 O   0  0  0  0  0  0  0  0  0  0  0  0
    2.7768    0.6251    0.0163 C   0  0  0  0  0  0  0  0  0  0  0  0
    1.5937    0.9387    0.7000 C   0  0  0  0  0  0  0  0  0  0  0  0
    1.3904    2.2788    0.9300 F   0  0  0  0  0  0  0  0  0  0  0  0
   -1.0045    3.2600    1.7613 H   0  0  0  0  0  0  0  0  0  0  0  0
   -2.2973    3.9926    0.8083 H   0  0  0  0  0  0  0  0  0  0  0  0
   -0.7816    3.5089   -0.0499 H   0  0  0  0  0  0  0  0  0  0  0  0
   -5.2612    0.2579   -1.4774 H   0  0  0  0  0  0  0  0  0  0  0  0
   -5.3965   -2.2007   -1.1966 H   0  0  0  0  0  0  0  0  0  0  0  0
   -3.6400   -3.3557    0.2033 H   0  0  0  0  0  0  0  0  0  0  0  0
   -1.8707   -2.0973    1.2521 H   0  0  0  0  0  0  0  0  0  0  0  0
   -0.3715    1.1403    2.5842 H   0  0  0  0  0  0  0  0  0  0  0  0
   -0.7910   -0.5675    2.4643 H   0  0  0  0  0  0  0  0  0  0  0  0
    0.4319   -2.1724    1.2162 H   0  0  0  0  0  0  0  0  0  0  0  0
    2.4714   -2.6863    0.0284 H   0  0  0  0  0  0  0  0  0  0  0  0
    5.0477    0.8775   -1.3402 H   0  0  0  0  0  0  0  0  0  0  0  0
    6.9346    0.2416   -2.2245 H   0  0  0  0  0  0  0  0  0  0  0  0
    3.4013    1.4230   -0.2964 H   0  0  0  0  0  0  0  0  0  0  0  0
  1  2  1  0
  2  3  2  0
  3  4  1  0
  4  5  2  0
  5  6  1  0
  6  7  2  0
  7  8  1  0
  8  9  2  0
  9 10  1  0
 10 11  1  0
 11 12  1  0
 12 13  2  0
 13 14  1  0
 14 15  2  0
 15 16  1  0
 16 17  2  0
 16 18  1  0
 18 19  1  0
 15 20  1  0
 20 21  2  0
 21 22  1  0
 10  2  1  0
 21 12  1  0
  9  4  1  0
  1 23  1  0
  1 24  1  0
  1 25  1  0
  5 26  1  0
  6 27  1  0
  7 28  1  0
  8 29  1  0
 11 30  1  0
 11 31  1  0
 13 32  1  0
 14 33  1  0
 18 34  1  0
 19 35  1  0
 20 36  1  0
M  END
$$$$
