
     RDKit          3D

 42 44  0  0  0  0  0  0  0  0999 V2000
   -0.1308   -1.6322   -1.2222 C   0  0  0  0  0  0  0  0  0  0  0  0
   -0.2314   -0.1544   -1.0567 C   0  0  0  0  0  0  0  0  0  0  0  0
    0.8236    0.6468   -0.6777 C   0  0  0  0  0  0  0  0  0  0  0  0
    2.1991    0.2851   -0.3636 C   0  0  0  0  0  0  0  0  0  0  0  0
    2.5700   -0.9052   -0.4168 O   0  0  0  0  0  0  0  0  0  0  0  0
    3.1712    1.2512    0.0126 N   0  0  0  0  0  0  0  0  0  0  0  0
    4.5125    0.8296    0.3102 C   0  0  0  0  0  0  0  0  0  0  0  0
    5.5649    1.6358    0.6873 C   0  0  0  0  0  0  0  0  0  0  0  0
    6.6415    0.7958    0.8628 C   0  0  0  0  0  0  0  0  0  0  0  0
    6.2708   -0.4599    0.6072 N   0  0  0  0  0  0  0  0  0  0  0  0
    7.1166   -1.6610    0.6767 C   0  0  0  0  0  0  0  0  0  0  0  0
    4.9907   -0.4114    0.2786 N   0  0  0  0  0  0  0  0  0  0  0  0
    0.3039    1.8990   -0.6526 N   0  0  0  0  0  0  0  0  0  0  0  0
   -0.9990    1.8696   -0.9971 C   0  0  0  0  0  0  0  0  0  0  0  0
   -1.3333    0.5917   -1.2488 N   0  0  0  0  0  0  0  0  0  0  0  0
   -2.6307    0.1388   -1.6444 C   0  0  0  0  0  0  0  0  0  0  0  0
   -3.5243   -0.2145   -0.5397 C   0  0  0  0  0  0  0  0  0  0  0  0
   -3.5547   -1.4981   -0.0512 C   0  0  0  0  0  0  0  0  0  0  0  0
   -4.3876   -1.8714    0.9944 C   0  0  0  0  0  0  0  0  0  0  0  0
   -5.2103   -0.9160    1.5577 C   0  0  0  0  0  0  0  0  0  0  0  0
   -5.2063    0.3727    1.0962 C   0  0  0  0  0  0  0  0  0  0  0  0
   -6.1114    1.3575    1.7392 C   0  0  0  0  0  0  0  0  0  0  0  0
   -7.2845    1.3827    0.9759 F   0  0  0  0  0  0  0  0  0  0  0  0
   -5.5818    2.6324    1.7191 F   0  0  0  0  0  0  0  0  0  0  0  0
   -6.4515    0.9513    2.9964 F   0  0  0  0  0  0  0  0  0  0  0  0
   -4.3542    0.7160    0.0402 C   0  0  0  0  0  0  0  0  0  0  0  0
    0.8581   -1.8823   -1.6629 H   0  0  0  0  0  0  0  0  0  0  0  0
   -0.9671   -2.0285   -1.8417 H   0  0  0  0  0  0  0  0  0  0  0  0
   -0.1856   -2.1585   -0.2474 H   0  0  0  0  0  0  0  0  0  0  0  0
    2.8988    2.2368    0.0658 H   0  0  0  0  0  0  0  0  0  0  0  0
    5.4889    2.7099    0.8031 H   0  0  0  0  0  0  0  0  0  0  0  0
    7.6295    1.0956    1.1591 H   0  0  0  0  0  0  0  0  0  0  0  0
    6.4991   -2.5265    0.3368 H   0  0  0  0  0  0  0  0  0  0  0  0
    7.4104   -1.8557    1.7164 H   0  0  0  0  0  0  0  0  0  0  0  0
    7.9621   -1.5083   -0.0065 H   0  0  0  0  0  0  0  0  0  0  0  0
   -1.6539    2.7359   -1.0570 H   0  0  0  0  0  0  0  0  0  0  0  0
   -2.4895   -0.7153   -2.3702 H   0  0  0  0  0  0  0  0  0  0  0  0
   -3.1119    0.9421   -2.2762 H   0  0  0  0  0  0  0  0  0  0  0  0
   -2.9200   -2.2665   -0.4749 H   0  0  0  0  0  0  0  0  0  0  0  0
   -4.3757   -2.8928    1.3436 H   0  0  0  0  0  0  0  0  0  0  0  0
   -5.8432   -1.2412    2.3669 H   0  0  0  0  0  0  0  0  0  0  0  0
   -4.3732    1.7234   -0.2964 H   0  0  0  0  0  0  0  0  0  0  0  0
  1  2  1  0
  2  3  2  0
  3  4  1  0
  4  5  2  0
  4  6  1  0
  6  7  1  0
  7  8  1  0
  8  9  2  0
  9 10  1  0
 10 11  1  0
 10 12  1  0
  3 13  1  0
 13 14  2  0
 14 15  1  0
 15 16  1  0
 16 17  1  0
 17 18  2  0
 18 19  1  0
 19 20  2  0
 20 21  1  0
 21 22  1  0
 22 23  1  0
 22 24  1  0
 22 25  1  0
 21 26  2  0
 15  2  1  0
 26 17  1  0
 12  7  2  0
  1 27  1  0
  1 28  1  0
  1 29  1  0
  6 30  1  0
  8 31  1  0
  9 32  1  0
 11 33  1  0
 11 34  1  0
 11 35  1  0
 14 36  1  0
 16 37  1  0
 16 38  1  0
 18 39  1  0
 19 40  1  0
 20 41  1  0
 26 42  1  0
M  END
$$$$
