
     RDKit          3D

 47 51  0  0  0  0  0  0  0  0999 V2000
    1.5538   -3.6750    0.3632 O   0  0  0  0  0  0  0  0  0  0  0  0
    1.4151   -2.4371    0.3664 C   0  0  0  0  0  0  0  0  0  0  0  0
    2.4268   -1.5635    0.0286 C   0  0  0  0  0  0  0  0  0  0  0  0
    2.2487   -0.1989    0.0398 C   0  0  0  0  0  0  0  0  0  0  0  0
    3.3029    0.7132   -0.2953 N   0  0  0  0  0  0  0  0  0  0  0  0
    4.6919    0.3462   -0.4070 C   0  0  0  0  0  0  0  0  0  0  0  0
    5.1366    0.6440   -1.8467 C   0  0  0  0  0  0  0  0  0  0  0  0
    4.7418    1.9075   -2.2378 O   0  0  0  0  0  0  0  0  0  0  0  0
    4.3072    2.6848   -1.1658 C   0  0  0  0  0  0  0  0  0  0  0  0
    3.0139    2.1204   -0.5622 C   0  0  0  0  0  0  0  0  0  0  0  0
    1.0354    0.2299    0.3972 N   0  0  0  0  0  0  0  0  0  0  0  0
    0.0123   -0.6114    0.7372 C   0  0  0  0  0  0  0  0  0  0  0  0
   -1.2502   -0.3873    1.1411 N   0  0  0  0  0  0  0  0  0  0  0  0
   -1.9216    0.8530    1.2939 C   0  0  0  0  0  0  0  0  0  0  0  0
   -2.7587    1.3736    0.2386 C   0  0  0  0  0  0  0  0  0  0  0  0
   -4.1448    1.2220    0.3976 C   0  0  0  0  0  0  0  0  0  0  0  0
   -5.0723    1.6550   -0.5189 C   0  0  0  0  0  0  0  0  0  0  0  0
   -4.6631    2.2781   -1.6705 C   0  0  0  0  0  0  0  0  0  0  0  0
   -3.3160    2.4403   -1.8505 C   0  0  0  0  0  0  0  0  0  0  0  0
   -2.7804    3.2400   -3.3208 Cl  0  0  0  0  0  0  0  0  0  0  0  0
   -2.3704    1.9946   -0.9079 C   0  0  0  0  0  0  0  0  0  0  0  0
   -0.7084    2.3135   -1.2599 Cl  0  0  0  0  0  0  0  0  0  0  0  0
   -1.8417   -1.6001    1.3791 C   0  0  0  0  0  0  0  0  0  0  0  0
   -3.0896   -2.0042    1.8099 C   0  0  0  0  0  0  0  0  0  0  0  0
   -3.4219   -3.3565    1.9725 C   0  0  0  0  0  0  0  0  0  0  0  0
   -2.4503   -4.2874    1.6857 C   0  0  0  0  0  0  0  0  0  0  0  0
   -1.1990   -3.9496    1.2570 C   0  0  0  0  0  0  0  0  0  0  0  0
   -0.9236   -2.5819    1.1126 C   0  0  0  0  0  0  0  0  0  0  0  0
    0.1973   -1.9381    0.7238 N   0  0  0  0  0  0  0  0  0  0  0  0
    3.3830   -1.9795   -0.2543 H   0  0  0  0  0  0  0  0  0  0  0  0
    5.3279    0.9353    0.2967 H   0  0  0  0  0  0  0  0  0  0  0  0
    4.8945   -0.7029   -0.2069 H   0  0  0  0  0  0  0  0  0  0  0  0
    6.2569    0.5642   -1.9107 H   0  0  0  0  0  0  0  0  0  0  0  0
    4.7398   -0.1470   -2.5140 H   0  0  0  0  0  0  0  0  0  0  0  0
    4.0653    3.6965   -1.5747 H   0  0  0  0  0  0  0  0  0  0  0  0
    5.0910    2.8293   -0.3987 H   0  0  0  0  0  0  0  0  0  0  0  0
    2.7956    2.6881    0.3407 H   0  0  0  0  0  0  0  0  0  0  0  0
    2.2635    2.1902   -1.3732 H   0  0  0  0  0  0  0  0  0  0  0  0
   -2.4733    0.8577    2.2666 H   0  0  0  0  0  0  0  0  0  0  0  0
   -1.0998    1.6252    1.4795 H   0  0  0  0  0  0  0  0  0  0  0  0
   -4.5712    0.7540    1.2901 H   0  0  0  0  0  0  0  0  0  0  0  0
   -6.1415    1.5231   -0.3690 H   0  0  0  0  0  0  0  0  0  0  0  0
   -5.3544    2.6346   -2.4196 H   0  0  0  0  0  0  0  0  0  0  0  0
   -3.8434   -1.2675    2.0431 H   0  0  0  0  0  0  0  0  0  0  0  0
   -4.4169   -3.6207    2.3138 H   0  0  0  0  0  0  0  0  0  0  0  0
   -2.6673   -5.3532    1.7987 H   0  0  0  0  0  0  0  0  0  0  0  0
   -0.4215   -4.6523    1.0255 H   0  0  0  0  0  0  0  0  0  0  0  0
  1  2  2  0
  2  3  1  0
  3  4  2  0
  4  5  1  0
  5  6  1  0
  6  7  1  0
  7  8  1  0
  8  9  1  0
  9 10  1  0
  4 11  1  0
 11 12  2  0
 12 13  1  0
 13 14  1  0
 14 15  1  0
 15 16  2  0
 16 17  1  0
 17 18  2  0
 18 19  1  0
 19 20  1  0
 19 21  2  0
 21 22  1  0
 13 23  1  0
 23 24  2  0
 24 25  1  0
 25 26  2  0
 26 27  1  0
 27 28  2  0
 28 29  1  0
 29  2  1  0
 10  5  1  0
 29 12  1  0
 21 15  1  0
 28 23  1  0
  3 30  1  0
  6 31  1  0
  6 32  1  0
  7 33  1  0
  7 34  1  0
  9 35  1  0
  9 36  1  0
 10 37  1  0
 10 38  1  0
 14 39  1  0
 14 40  1  0
 16 41  1  0
 17 42  1  0
 18 43  1  0
 24 44  1  0
 25 45  1  0
 26 46  1  0
 27 47  1  0
M  END
$$$$
