
     RDKit          3D

 68 72  0  0  0  0  0  0  0  0999 V2000
    7.7383    1.2415   -0.8576 C   0  0  0  0  0  0  0  0  0  0  0  0
    7.3406    0.4827    0.3866 C   0  0  0  0  0  0  0  0  0  0  0  0
    7.4146    1.3488    1.6235 C   0  0  0  0  0  0  0  0  0  0  0  0
    8.2971   -0.6726    0.5510 C   0  0  0  0  0  0  0  0  0  0  0  0
    6.0463   -0.0132    0.2432 O   0  0  0  0  0  0  0  0  0  0  0  0
    4.9471    0.8059    0.0343 C   0  0  0  0  0  0  0  0  0  0  0  0
    5.1744    2.0467   -0.0216 O   0  0  0  0  0  0  0  0  0  0  0  0
    3.6280    0.2956   -0.1115 N   0  0  0  0  0  0  0  0  0  0  0  0
    2.5367    1.2108   -0.3260 C   0  0  0  0  0  0  0  0  0  0  0  0
    1.2705    0.4961    0.1153 C   0  0  0  0  0  0  0  0  0  0  0  0
    1.0762   -0.6716   -0.8253 C   0  0  0  0  0  0  0  0  0  0  0  0
   -0.1262   -1.4262   -0.4843 N   0  0  0  0  0  0  0  0  0  0  0  0
   -0.2502   -2.7090   -0.2545 N   0  0  0  0  0  0  0  0  0  0  0  0
   -1.5350   -3.0402    0.0333 C   0  0  0  0  0  0  0  0  0  0  0  0
   -2.2525   -1.8715   -0.0245 C   0  0  0  0  0  0  0  0  0  0  0  0
   -3.5551   -1.5345    0.1566 C   0  0  0  0  0  0  0  0  0  0  0  0
   -4.5389   -2.4815    0.4991 N   0  0  0  0  0  0  0  0  0  0  0  0
   -5.9323   -1.9676    0.5815 C   0  0  0  0  0  0  0  0  0  0  0  0
   -6.7122   -3.0124   -0.2314 C   0  0  0  0  0  0  0  0  0  0  0  0
   -6.8299   -4.0978    0.5882 O   0  0  0  0  0  0  0  0  0  0  0  0
   -5.7148   -4.5071    1.2453 C   0  0  0  0  0  0  0  0  0  0  0  0
   -4.4238   -3.8518    0.7896 C   0  0  0  0  0  0  0  0  0  0  0  0
   -3.9124   -0.2141    0.0060 N   0  0  0  0  0  0  0  0  0  0  0  0
   -3.0619    0.7602   -0.3068 C   0  0  0  0  0  0  0  0  0  0  0  0
   -3.5110    2.1598   -0.4534 C   0  0  0  0  0  0  0  0  0  0  0  0
   -4.8167    2.5512   -0.2803 C   0  0  0  0  0  0  0  0  0  0  0  0
   -5.1925    3.8903   -0.4302 C   0  0  0  0  0  0  0  0  0  0  0  0
   -4.2631    4.8604   -0.7567 C   0  0  0  0  0  0  0  0  0  0  0  0
   -4.6666    6.2159   -0.9042 N   0  0  0  0  0  0  0  0  0  0  0  0
   -2.9547    4.4555   -0.9281 C   0  0  0  0  0  0  0  0  0  0  0  0
   -2.5861    3.1190   -0.7773 C   0  0  0  0  0  0  0  0  0  0  0  0
   -1.7790    0.4178   -0.4831 N   0  0  0  0  0  0  0  0  0  0  0  0
   -1.3561   -0.8633   -0.3509 C   0  0  0  0  0  0  0  0  0  0  0  0
    2.2317   -1.6160   -0.7871 C   0  0  0  0  0  0  0  0  0  0  0  0
    3.4245   -1.1204   -0.0399 C   0  0  0  0  0  0  0  0  0  0  0  0
    7.4749    0.6025   -1.7297 H   0  0  0  0  0  0  0  0  0  0  0  0
    8.8541    1.3489   -0.8184 H   0  0  0  0  0  0  0  0  0  0  0  0
    7.3303    2.2535   -0.9031 H   0  0  0  0  0  0  0  0  0  0  0  0
    6.6041    1.0229    2.3054 H   0  0  0  0  0  0  0  0  0  0  0  0
    7.3413    2.4182    1.3463 H   0  0  0  0  0  0  0  0  0  0  0  0
    8.3692    1.1348    2.1856 H   0  0  0  0  0  0  0  0  0  0  0  0
    9.1799   -0.2825    1.0977 H   0  0  0  0  0  0  0  0  0  0  0  0
    7.8006   -1.5039    1.0974 H   0  0  0  0  0  0  0  0  0  0  0  0
    8.6443   -1.0347   -0.4251 H   0  0  0  0  0  0  0  0  0  0  0  0
    2.3998    1.4819   -1.3925 H   0  0  0  0  0  0  0  0  0  0  0  0
    2.6800    2.1602    0.2276 H   0  0  0  0  0  0  0  0  0  0  0  0
    1.4158    0.1197    1.1332 H   0  0  0  0  0  0  0  0  0  0  0  0
    0.4037    1.1561    0.1104 H   0  0  0  0  0  0  0  0  0  0  0  0
    0.9798   -0.2411   -1.8446 H   0  0  0  0  0  0  0  0  0  0  0  0
   -1.9222   -4.0113    0.2585 H   0  0  0  0  0  0  0  0  0  0  0  0
   -6.0333   -1.0004    0.0936 H   0  0  0  0  0  0  0  0  0  0  0  0
   -6.2774   -2.0181    1.6164 H   0  0  0  0  0  0  0  0  0  0  0  0
   -6.1474   -3.3070   -1.1403 H   0  0  0  0  0  0  0  0  0  0  0  0
   -7.7295   -2.6412   -0.4670 H   0  0  0  0  0  0  0  0  0  0  0  0
   -5.6360   -5.6129    1.1348 H   0  0  0  0  0  0  0  0  0  0  0  0
   -5.8732   -4.3340    2.3339 H   0  0  0  0  0  0  0  0  0  0  0  0
   -4.1363   -4.4012   -0.1281 H   0  0  0  0  0  0  0  0  0  0  0  0
   -3.7289   -3.9850    1.6436 H   0  0  0  0  0  0  0  0  0  0  0  0
   -5.5599    1.8204   -0.0265 H   0  0  0  0  0  0  0  0  0  0  0  0
   -6.2143    4.2055   -0.2961 H   0  0  0  0  0  0  0  0  0  0  0  0
   -4.0549    7.0415   -0.7495 H   0  0  0  0  0  0  0  0  0  0  0  0
   -5.6497    6.3960   -1.1889 H   0  0  0  0  0  0  0  0  0  0  0  0
   -2.2346    5.2205   -1.1832 H   0  0  0  0  0  0  0  0  0  0  0  0
   -1.5435    2.8264   -0.9188 H   0  0  0  0  0  0  0  0  0  0  0  0
    2.5035   -1.9013   -1.8457 H   0  0  0  0  0  0  0  0  0  0  0  0
    1.9457   -2.6041   -0.3194 H   0  0  0  0  0  0  0  0  0  0  0  0
    3.3259   -1.4142    1.0290 H   0  0  0  0  0  0  0  0  0  0  0  0
    4.3330   -1.6037   -0.5016 H   0  0  0  0  0  0  0  0  0  0  0  0
  1  2  1  0
  2  3  1  0
  2  4  1  0
  2  5  1  0
  5  6  1  0
  6  7  2  0
  6  8  1  0
  8  9  1  0
  9 10  1  0
 10 11  1  0
 11 12  1  0
 12 13  1  0
 13 14  2  0
 14 15  1  0
 15 16  2  0
 16 17  1  0
 17 18  1  0
 18 19  1  0
 19 20  1  0
 20 21  1  0
 21 22  1  0
 16 23  1  0
 23 24  2  0
 24 25  1  0
 25 26  2  0
 26 27  1  0
 27 28  2  0
 28 29  1  0
 28 30  1  0
 30 31  2  0
 24 32  1  0
 32 33  2  0
 11 34  1  0
 34 35  1  0
 35  8  1  0
 33 12  1  0
 33 15  1  0
 22 17  1  0
 31 25  1  0
  1 36  1  0
  1 37  1  0
  1 38  1  0
  3 39  1  0
  3 40  1  0
  3 41  1  0
  4 42  1  0
  4 43  1  0
  4 44  1  0
  9 45  1  0
  9 46  1  0
 10 47  1  0
 10 48  1  0
 11 49  1  0
 14 50  1  0
 18 51  1  0
 18 52  1  0
 19 53  1  0
 19 54  1  0
 21 55  1  0
 21 56  1  0
 22 57  1  0
 22 58  1  0
 26 59  1  0
 27 60  1  0
 29 61  1  0
 29 62  1  0
 30 63  1  0
 31 64  1  0
 34 65  1  0
 34 66  1  0
 35 67  1  0
 35 68  1  0
M  END
$$$$
