
     RDKit          3D

 18 18  0  0  0  0  0  0  0  0999 V2000
    2.3623    1.2744   -0.1995 N   0  0  0  0  0  0  0  0  0  0  0  0
    1.5984    0.0920    0.0028 C   0  0  0  0  0  0  0  0  0  0  0  0
    2.1468   -1.0552    0.2254 N   0  0  0  0  0  4  0  0  0  0  0  0
    0.1495    0.0506   -0.0191 C   0  0  0  0  0  0  0  0  0  0  0  0
   -0.5579    0.9506   -0.8145 C   0  0  0  0  0  0  0  0  0  0  0  0
   -1.9411    0.9108   -0.8352 C   0  0  0  0  0  0  0  0  0  0  0  0
   -2.6311   -0.0146   -0.0732 C   0  0  0  0  0  0  0  0  0  0  0  0
   -1.9718   -0.9259    0.7301 C   0  0  0  0  0  0  0  0  0  0  0  0
   -0.5957   -0.8423    0.7131 C   0  0  0  0  0  0  0  0  0  0  0  0
    2.3298    1.4726    0.8265 H   0  0  0  0  0  0  0  0  0  0  0  0
    2.7868    1.7516   -1.0487 H   0  0  0  0  0  0  0  0  0  0  0  0
    1.9029   -2.0699    0.4074 H   0  0  0  0  0  0  0  0  0  0  0  0
    3.0243   -1.6089    0.3453 H   0  0  0  0  0  0  0  0  0  0  0  0
    0.0224    1.6638   -1.3999 H   0  0  0  0  0  0  0  0  0  0  0  0
   -2.4898    1.6114   -1.4544 H   0  0  0  0  0  0  0  0  0  0  0  0
   -3.7149   -0.0556   -0.0810 H   0  0  0  0  0  0  0  0  0  0  0  0
   -2.4296   -1.6801    1.3553 H   0  0  0  0  0  0  0  0  0  0  0  0
    0.0088   -1.5252    1.3194 H   0  0  0  0  0  0  0  0  0  0  0  0
  1  2  1  0
  2  3  2  0
  2  4  1  0
  4  5  2  0
  5  6  1  0
  6  7  2  0
  7  8  1  0
  8  9  2  0
  9  4  1  0
  1 10  1  0
  1 11  1  0
  3 12  1  0
  3 13  1  0
  5 14  1  0
  6 15  1  0
  7 16  1  0
  8 17  1  0
  9 18  1  0
M  CHG  1   3   1
M  END
$$$$
