
     RDKit          3D

 83 88  0  0  0  0  0  0  0  0999 V2000
   -7.2359    1.1656    0.0607 C   0  0  0  0  0  0  0  0  0  0  0  0
   -6.6232   -0.0498    0.6178 N   0  0  0  0  0  0  0  0  0  0  0  0
   -7.4225   -0.9503    1.4170 C   0  0  0  0  0  0  0  0  0  0  0  0
   -8.0838   -2.0224    0.6455 C   0  0  0  0  0  0  0  0  0  0  0  0
   -7.4891   -3.2520    0.4550 C   0  0  0  0  0  0  0  0  0  0  0  0
   -8.1114   -4.2446   -0.2643 C   0  0  0  0  0  0  0  0  0  0  0  0
   -9.3712   -3.9804   -0.8041 C   0  0  0  0  0  0  0  0  0  0  0  0
   -9.9908   -2.7646   -0.6316 C   0  0  0  0  0  0  0  0  0  0  0  0
   -9.3408   -1.7949    0.0923 C   0  0  0  0  0  0  0  0  0  0  0  0
   -5.2536   -0.2854    0.3641 C   0  0  0  0  0  0  0  0  0  0  0  0
   -4.7561   -1.3507    0.8592 O   0  0  0  0  0  0  0  0  0  0  0  0
   -4.4222    0.6353   -0.4206 C   0  0  1  0  0  0  0  0  0  0  0  0
   -3.0238    0.3055   -0.4382 N   0  0  0  0  0  0  0  0  0  0  0  0
   -2.1247    0.9426    0.4339 C   0  0  0  0  0  0  0  0  0  0  0  0
   -2.6565    1.7946    1.2345 O   0  0  0  0  0  0  0  0  0  0  0  0
   -0.6857    0.7031    0.4827 C   0  0  0  0  0  0  0  0  0  0  0  0
    0.1560    1.0986    1.5385 C   0  0  0  0  0  0  0  0  0  0  0  0
    1.4622    0.7687    1.2392 C   0  0  0  0  0  0  0  0  0  0  0  0
    2.6671    0.9391    1.9194 C   0  0  0  0  0  0  0  0  0  0  0  0
    3.8459    0.5116    1.3569 C   0  0  0  0  0  0  0  0  0  0  0  0
    5.1057    0.6233    2.0073 N   0  0  0  0  0  0  0  0  0  0  0  0
    5.8719    1.8081    2.0227 C   0  0  0  0  0  0  0  0  0  0  0  0
    5.4586    2.8564    1.4609 O   0  0  0  0  0  0  0  0  0  0  0  0
    7.1640    1.8435    2.6900 C   0  0  0  0  0  0  0  0  0  0  0  0
    7.3257    2.5948    3.8415 C   0  0  0  0  0  0  0  0  0  0  0  0
    8.5337    2.6323    4.5006 C   0  0  0  0  0  0  0  0  0  0  0  0
    9.6364    1.9141    4.0315 C   0  0  0  0  0  0  0  0  0  0  0  0
    9.4639    1.1722    2.8876 C   0  0  0  0  0  0  0  0  0  0  0  0
    8.2531    1.1365    2.2282 C   0  0  0  0  0  0  0  0  0  0  0  0
    8.0796    0.3575    0.9893 C   0  0  0  0  0  0  0  0  0  0  0  0
    8.4040   -0.9839    0.9565 C   0  0  0  0  0  0  0  0  0  0  0  0
    8.2459   -1.7156   -0.2149 C   0  0  0  0  0  0  0  0  0  0  0  0
    7.7676   -1.1460   -1.3729 C   0  0  0  0  0  0  0  0  0  0  0  0
    7.6046   -1.9614   -2.6265 C   0  0  0  0  0  0  0  0  0  0  0  0
    6.4561   -2.7203   -2.4064 F   0  0  0  0  0  0  0  0  0  0  0  0
    8.6849   -2.8142   -2.6981 F   0  0  0  0  0  0  0  0  0  0  0  0
    7.5093   -1.1617   -3.7320 F   0  0  0  0  0  0  0  0  0  0  0  0
    7.4438    0.1941   -1.3412 C   0  0  0  0  0  0  0  0  0  0  0  0
    7.6012    0.9346   -0.1666 C   0  0  0  0  0  0  0  0  0  0  0  0
    3.7583   -0.0876    0.0951 C   0  0  0  0  0  0  0  0  0  0  0  0
    2.5679   -0.2534   -0.5677 C   0  0  0  0  0  0  0  0  0  0  0  0
    1.3974    0.1755    0.0011 C   0  0  0  0  0  0  0  0  0  0  0  0
    0.0967    0.1460   -0.4342 N   0  0  0  0  0  0  0  0  0  0  0  0
   -0.2824   -0.4296   -1.7291 C   0  0  0  0  0  0  0  0  0  0  0  0
   -4.8220    0.8245   -1.8206 C   0  0  0  0  0  0  0  0  0  0  0  0
   -4.1101    1.7991   -2.5288 C   0  0  0  0  0  0  0  0  0  0  0  0
   -4.3764    2.0509   -3.8548 C   0  0  0  0  0  0  0  0  0  0  0  0
   -5.3623    1.3360   -4.5136 C   0  0  0  0  0  0  0  0  0  0  0  0
   -6.0835    0.3603   -3.8271 C   0  0  0  0  0  0  0  0  0  0  0  0
   -5.7756    0.1546   -2.5137 C   0  0  0  0  0  0  0  0  0  0  0  0
   -7.7592    1.7028    0.8873 H   0  0  0  0  0  0  0  0  0  0  0  0
   -6.4981    1.8728   -0.3374 H   0  0  0  0  0  0  0  0  0  0  0  0
   -7.9205    0.8638   -0.7375 H   0  0  0  0  0  0  0  0  0  0  0  0
   -8.1818   -0.3516    2.0019 H   0  0  0  0  0  0  0  0  0  0  0  0
   -6.7771   -1.4056    2.2188 H   0  0  0  0  0  0  0  0  0  0  0  0
   -6.5110   -3.4531    0.8766 H   0  0  0  0  0  0  0  0  0  0  0  0
   -7.6566   -5.2071   -0.4195 H   0  0  0  0  0  0  0  0  0  0  0  0
   -9.8543   -4.7671   -1.3679 H   0  0  0  0  0  0  0  0  0  0  0  0
  -10.9615   -2.6069   -1.0630 H   0  0  0  0  0  0  0  0  0  0  0  0
   -9.8230   -0.8240    0.2339 H   0  0  0  0  0  0  0  0  0  0  0  0
   -4.5149    1.6396    0.0930 H   0  0  0  0  0  0  0  0  0  0  0  0
   -2.7289   -0.4212   -1.1105 H   0  0  0  0  0  0  0  0  0  0  0  0
   -0.1785    1.5845    2.4402 H   0  0  0  0  0  0  0  0  0  0  0  0
    2.6617    1.4107    2.8951 H   0  0  0  0  0  0  0  0  0  0  0  0
    5.4760   -0.2177    2.4931 H   0  0  0  0  0  0  0  0  0  0  0  0
    6.4627    3.1557    4.2090 H   0  0  0  0  0  0  0  0  0  0  0  0
    8.6543    3.2251    5.4085 H   0  0  0  0  0  0  0  0  0  0  0  0
   10.5695    1.9666    4.5746 H   0  0  0  0  0  0  0  0  0  0  0  0
   10.3017    0.6118    2.5110 H   0  0  0  0  0  0  0  0  0  0  0  0
    8.7890   -1.4504    1.8786 H   0  0  0  0  0  0  0  0  0  0  0  0
    8.5027   -2.7756   -0.2385 H   0  0  0  0  0  0  0  0  0  0  0  0
    7.0648    0.6594   -2.2392 H   0  0  0  0  0  0  0  0  0  0  0  0
    7.3519    1.9824   -0.1888 H   0  0  0  0  0  0  0  0  0  0  0  0
    4.7018   -0.4262   -0.3547 H   0  0  0  0  0  0  0  0  0  0  0  0
    2.5255   -0.7259   -1.5508 H   0  0  0  0  0  0  0  0  0  0  0  0
   -0.8861    0.2755   -2.2999 H   0  0  0  0  0  0  0  0  0  0  0  0
    0.6628   -0.5497   -2.3544 H   0  0  0  0  0  0  0  0  0  0  0  0
   -0.6629   -1.4469   -1.6171 H   0  0  0  0  0  0  0  0  0  0  0  0
   -3.3246    2.3989   -2.0832 H   0  0  0  0  0  0  0  0  0  0  0  0
   -3.8469    2.7959   -4.4335 H   0  0  0  0  0  0  0  0  0  0  0  0
   -5.6009    1.5034   -5.5532 H   0  0  0  0  0  0  0  0  0  0  0  0
   -6.8640   -0.2243   -4.3018 H   0  0  0  0  0  0  0  0  0  0  0  0
   -6.3318   -0.6053   -1.9924 H   0  0  0  0  0  0  0  0  0  0  0  0
  1  2  1  0
  2  3  1  0
  3  4  1  0
  4  5  2  0
  5  6  1  0
  6  7  2  0
  7  8  1  0
  8  9  2  0
  2 10  1  0
 10 11  2  0
 10 12  1  0
 12 13  1  0
 13 14  1  0
 14 15  2  0
 14 16  1  0
 16 17  2  0
 17 18  1  0
 18 19  2  0
 19 20  1  0
 20 21  1  0
 21 22  1  0
 22 23  2  0
 22 24  1  0
 24 25  2  0
 25 26  1  0
 26 27  2  0
 27 28  1  0
 28 29  2  0
 29 30  1  0
 30 31  2  0
 31 32  1  0
 32 33  2  0
 33 34  1  0
 34 35  1  0
 34 36  1  0
 34 37  1  0
 33 38  1  0
 38 39  2  0
 20 40  2  0
 40 41  1  0
 41 42  2  0
 42 43  1  0
 43 44  1  0
 12 45  1  0
 45 46  2  0
 46 47  1  0
 47 48  2  0
 48 49  1  0
 49 50  2  0
  9  4  1  0
 43 16  1  0
 50 45  1  0
 42 18  1  0
 29 24  1  0
 39 30  1  0
  1 51  1  0
  1 52  1  0
  1 53  1  0
  3 54  1  0
  3 55  1  0
  5 56  1  0
  6 57  1  0
  7 58  1  0
  8 59  1  0
  9 60  1  0
 12 61  1  1
 13 62  1  0
 17 63  1  0
 19 64  1  0
 21 65  1  0
 25 66  1  0
 26 67  1  0
 27 68  1  0
 28 69  1  0
 31 70  1  0
 32 71  1  0
 38 72  1  0
 39 73  1  0
 40 74  1  0
 41 75  1  0
 44 76  1  0
 44 77  1  0
 44 78  1  0
 46 79  1  0
 47 80  1  0
 48 81  1  0
 49 82  1  0
 50 83  1  0
M  END
$$$$
