
     RDKit          3D

 49 53  0  0  0  0  0  0  0  0999 V2000
    1.9888    0.1655    1.2246 O   0  0  0  0  0  0  0  0  0  0  0  0
    2.6492    0.6262    0.2632 C   0  0  0  0  0  0  0  0  0  0  0  0
    3.9836    1.0609    0.5274 N   0  0  0  0  0  0  0  0  0  0  0  0
    4.5997    0.9928    1.8485 C   0  0  0  0  0  0  0  0  0  0  0  0
    5.9839    0.3650    1.8103 C   0  0  0  0  0  0  0  0  0  0  0  0
    5.7834    1.7955    2.1647 C   0  0  0  0  0  0  0  0  0  0  0  0
    2.0673    0.7100   -1.0701 C   0  0  0  0  0  0  0  0  0  0  0  0
    2.7129    1.2248   -2.1908 C   0  0  0  0  0  0  0  0  0  0  0  0
    1.8550    1.1240   -3.2187 N   0  0  0  0  0  0  0  0  0  0  0  0
    0.7042    0.5759   -2.8150 C   0  0  0  0  0  0  0  0  0  0  0  0
   -0.4757    0.2574   -3.4651 C   0  0  0  0  0  0  0  0  0  0  0  0
   -1.4966   -0.3190   -2.7332 C   0  0  0  0  0  0  0  0  0  0  0  0
   -1.3680   -0.5806   -1.3851 C   0  0  0  0  0  0  0  0  0  0  0  0
   -2.4284   -1.1924   -0.5971 C   0  0  0  0  0  0  0  0  0  0  0  0
   -3.1439   -0.6630    0.4519 C   0  0  0  0  0  0  0  0  0  0  0  0
   -2.9806    0.6907    1.0137 C   0  0  0  0  0  0  0  0  0  0  0  0
   -3.2536    1.7731    0.1830 C   0  0  0  0  0  0  0  0  0  0  0  0
   -3.0983    3.0475    0.7260 C   0  0  0  0  0  0  0  0  0  0  0  0
   -2.6928    3.2556    2.0279 C   0  0  0  0  0  0  0  0  0  0  0  0
   -2.5621    4.5418    2.4912 F   0  0  0  0  0  0  0  0  0  0  0  0
   -2.4252    2.1756    2.8416 C   0  0  0  0  0  0  0  0  0  0  0  0
   -2.5753    0.9050    2.3148 C   0  0  0  0  0  0  0  0  0  0  0  0
   -4.0420   -1.5465    0.9222 N   0  0  0  0  0  0  0  0  0  0  0  0
   -3.8849   -2.6427    0.1562 C   0  0  0  0  0  0  0  0  0  0  0  0
   -2.9255   -2.4488   -0.7562 N   0  0  0  0  0  0  0  0  0  0  0  0
   -2.4513   -3.3827   -1.7703 C   0  0  0  0  0  0  0  0  0  0  0  0
   -1.3089   -4.2197   -1.2301 C   0  0  0  0  0  0  0  0  0  0  0  0
   -0.9217   -5.0719   -2.2469 F   0  0  0  0  0  0  0  0  0  0  0  0
   -0.2823   -3.4415   -0.7701 F   0  0  0  0  0  0  0  0  0  0  0  0
   -0.1716   -0.2423   -0.7909 C   0  0  0  0  0  0  0  0  0  0  0  0
    0.8540    0.3285   -1.4918 N   0  0  0  0  0  0  0  0  0  0  0  0
    4.5005    1.4377   -0.2960 H   0  0  0  0  0  0  0  0  0  0  0  0
    3.9866    0.6039    2.6858 H   0  0  0  0  0  0  0  0  0  0  0  0
    6.4345    0.1071    0.8242 H   0  0  0  0  0  0  0  0  0  0  0  0
    6.2654   -0.3733    2.5972 H   0  0  0  0  0  0  0  0  0  0  0  0
    5.9902    2.0810    3.2122 H   0  0  0  0  0  0  0  0  0  0  0  0
    6.2194    2.5200    1.4404 H   0  0  0  0  0  0  0  0  0  0  0  0
    3.7184    1.6230   -2.1943 H   0  0  0  0  0  0  0  0  0  0  0  0
   -0.5309    0.4798   -4.5172 H   0  0  0  0  0  0  0  0  0  0  0  0
   -2.4092   -0.5616   -3.2533 H   0  0  0  0  0  0  0  0  0  0  0  0
   -3.5754    1.6566   -0.8466 H   0  0  0  0  0  0  0  0  0  0  0  0
   -3.3048    3.9258    0.0995 H   0  0  0  0  0  0  0  0  0  0  0  0
   -2.1061    2.3395    3.8682 H   0  0  0  0  0  0  0  0  0  0  0  0
   -2.3605    0.0523    2.9664 H   0  0  0  0  0  0  0  0  0  0  0  0
   -4.4867   -3.5384    0.3051 H   0  0  0  0  0  0  0  0  0  0  0  0
   -2.0673   -2.8524   -2.6673 H   0  0  0  0  0  0  0  0  0  0  0  0
   -3.2845   -4.0724   -1.9884 H   0  0  0  0  0  0  0  0  0  0  0  0
   -1.6423   -4.8591   -0.3864 H   0  0  0  0  0  0  0  0  0  0  0  0
   -0.0407   -0.4347    0.2638 H   0  0  0  0  0  0  0  0  0  0  0  0
  1  2  2  0
  2  3  1  0
  3  4  1  0
  4  5  1  0
  5  6  1  0
  2  7  1  0
  7  8  2  0
  8  9  1  0
  9 10  2  0
 10 11  1  0
 11 12  2  0
 12 13  1  0
 13 14  1  0
 14 15  2  0
 15 16  1  0
 16 17  2  0
 17 18  1  0
 18 19  2  0
 19 20  1  0
 19 21  1  0
 21 22  2  0
 15 23  1  0
 23 24  2  0
 24 25  1  0
 25 26  1  0
 26 27  1  0
 27 28  1  0
 27 29  1  0
 13 30  2  0
 30 31  1  0
  6  4  1  0
 31  7  1  0
 31 10  1  0
 25 14  1  0
 22 16  1  0
  3 32  1  0
  4 33  1  0
  5 34  1  0
  5 35  1  0
  6 36  1  0
  6 37  1  0
  8 38  1  0
 11 39  1  0
 12 40  1  0
 17 41  1  0
 18 42  1  0
 21 43  1  0
 22 44  1  0
 24 45  1  0
 26 46  1  0
 26 47  1  0
 27 48  1  0
 30 49  1  0
M  END
$$$$
