
     RDKit          3D

 37 39  0  0  0  0  0  0  0  0999 V2000
   -0.7925   -1.7588   -1.4782 C   0  0  2  0  0  0  0  0  0  0  0  0
    0.3279   -0.8663   -1.8950 C   0  0  0  0  0  0  0  0  0  0  0  0
    0.3800    0.3665   -1.3137 O   0  0  0  0  0  0  0  0  0  0  0  0
    0.1420    0.4064    0.0384 C   0  0  1  0  0  0  0  0  0  0  0  0
    1.3489   -0.1951    0.7287 C   0  0  0  0  0  0  0  0  0  0  0  0
    2.5125    0.5046    0.4490 O   0  0  0  0  0  0  0  0  0  0  0  0
    3.7830   -0.2537    1.2679 S   0  0  0  0  0  0  0  0  0  0  0  0
    5.2335    0.1028    0.4363 N   0  0  0  0  0  0  0  0  0  0  0  0
    3.8205    0.1069    2.7118 O   0  0  0  0  0  0  0  0  0  0  0  0
    3.6073   -1.7643    1.1901 O   0  0  0  0  0  0  0  0  0  0  0  0
   -0.0573    1.7172    0.4414 O   0  0  0  0  0  0  0  0  0  0  0  0
   -1.4187    1.9507    0.4414 C   0  0  0  0  0  0  0  0  0  0  0  0
   -1.8826    2.9832    1.4271 C   0  0  0  0  0  0  0  0  0  0  0  0
   -1.8000    2.4387   -0.9396 C   0  0  0  0  0  0  0  0  0  0  0  0
   -2.0299    0.7583    0.7955 O   0  0  0  0  0  0  0  0  0  0  0  0
   -1.1168   -0.2652    0.4783 C   0  0  1  0  0  0  0  0  0  0  0  0
   -1.7997   -1.0029   -0.6745 C   0  0  2  0  0  0  0  0  0  0  0  0
   -2.7109   -1.8897   -0.1654 O   0  0  0  0  0  0  0  0  0  0  0  0
   -1.9203   -3.3840   -0.2200 S   0  0  0  0  0  0  0  0  0  0  0  0
   -1.8977   -4.0599    1.0893 O   0  0  0  0  0  0  0  0  0  0  0  0
   -2.5290   -4.1862   -1.3253 O   0  0  0  0  0  0  0  0  0  0  0  0
   -0.3976   -2.8638   -0.7217 O   0  0  0  0  0  0  0  0  0  0  0  0
   -1.3395   -2.2019   -2.3521 H   0  0  0  0  0  0  0  0  0  0  0  0
    0.1961   -0.6774   -3.0004 H   0  0  0  0  0  0  0  0  0  0  0  0
    1.2702   -1.4430   -1.8400 H   0  0  0  0  0  0  0  0  0  0  0  0
    1.1955   -0.1886    1.8303 H   0  0  0  0  0  0  0  0  0  0  0  0
    1.5125   -1.2459    0.4214 H   0  0  0  0  0  0  0  0  0  0  0  0
    5.4965    1.0884    0.3880 H   0  0  0  0  0  0  0  0  0  0  0  0
    5.9728   -0.5995    0.4944 H   0  0  0  0  0  0  0  0  0  0  0  0
   -2.6718    2.5987    2.1356 H   0  0  0  0  0  0  0  0  0  0  0  0
   -2.3944    3.8557    0.9308 H   0  0  0  0  0  0  0  0  0  0  0  0
   -1.0912    3.3787    2.0815 H   0  0  0  0  0  0  0  0  0  0  0  0
   -1.0716    2.1537   -1.7239 H   0  0  0  0  0  0  0  0  0  0  0  0
   -2.8037    2.0942   -1.2127 H   0  0  0  0  0  0  0  0  0  0  0  0
   -1.7775    3.5673   -0.9350 H   0  0  0  0  0  0  0  0  0  0  0  0
   -0.9713   -0.9239    1.3415 H   0  0  0  0  0  0  0  0  0  0  0  0
   -2.3252   -0.3021   -1.3212 H   0  0  0  0  0  0  0  0  0  0  0  0
  1  2  1  0
  2  3  1  0
  3  4  1  0
  4  5  1  1
  5  6  1  0
  6  7  1  0
  7  8  1  0
  7  9  2  0
  7 10  2  0
  4 11  1  0
 11 12  1  0
 12 13  1  0
 12 14  1  0
 12 15  1  0
 15 16  1  0
 16 17  1  0
 17 18  1  0
 18 19  1  0
 19 20  2  0
 19 21  2  0
 19 22  1  0
 17  1  1  0
 22  1  1  0
 16  4  1  0
  1 23  1  6
  2 24  1  0
  2 25  1  0
  5 26  1  0
  5 27  1  0
  8 28  1  0
  8 29  1  0
 13 30  1  0
 13 31  1  0
 13 32  1  0
 14 33  1  0
 14 34  1  0
 14 35  1  0
 16 36  1  1
 17 37  1  6
M  END
$$$$
