
     RDKit          3D

 44 46  0  0  0  0  0  0  0  0999 V2000
   -2.6696    0.8315    2.3202 C   0  0  0  0  0  0  0  0  0  0  0  0
   -2.2694   -0.0033    1.0943 C   0  0  1  0  0  0  0  0  0  0  0  0
   -1.0443   -0.7342    1.5130 C   0  0  0  0  0  0  0  0  0  0  0  0
    0.1462   -0.4545    0.8158 C   0  0  0  0  0  0  0  0  0  0  0  0
    1.3329   -1.0578    1.1050 C   0  0  0  0  0  0  0  0  0  0  0  0
    2.5375   -0.7895    0.4157 N   0  0  0  0  0  0  0  0  0  0  0  0
    2.7459    0.1013   -0.6461 C   0  0  0  0  0  0  0  0  0  0  0  0
    1.8300    0.7799   -1.1073 O   0  0  0  0  0  0  0  0  0  0  0  0
    4.0932    0.2496   -1.2476 C   0  0  0  0  0  0  0  0  0  0  0  0
    4.3136    1.1171   -2.2874 C   0  0  0  0  0  0  0  0  0  0  0  0
    5.5574    1.2821   -2.8740 C   0  0  0  0  0  0  0  0  0  0  0  0
    6.6179    0.5445   -2.3936 C   0  0  0  0  0  0  0  0  0  0  0  0
    8.2249    0.6864   -3.0719 Cl  0  0  0  0  0  0  0  0  0  0  0  0
    6.3713   -0.3214   -1.3471 C   0  0  0  0  0  0  0  0  0  0  0  0
    5.1415   -0.4604   -0.7941 N   0  0  0  0  0  0  0  0  0  0  0  0
    1.3183   -1.9827    2.1417 C   0  0  0  0  0  0  0  0  0  0  0  0
    0.1605   -2.2598    2.8254 C   0  0  0  0  0  0  0  0  0  0  0  0
    0.1772   -3.1718    3.8375 F   0  0  0  0  0  0  0  0  0  0  0  0
   -1.0359   -1.6456    2.5271 C   0  0  0  0  0  0  0  0  0  0  0  0
   -2.5147   -1.9963    3.3965 Cl  0  0  0  0  0  0  0  0  0  0  0  0
   -3.3839   -0.9351    0.7259 C   0  0  0  0  0  0  0  0  0  0  0  0
   -4.1453   -0.5998   -0.5023 C   0  0  1  0  0  0  0  0  0  0  0  0
   -5.2981    0.3291   -0.3273 C   0  0  0  0  0  0  0  0  0  0  0  0
   -4.9843    1.5564    0.1710 F   0  0  0  0  0  0  0  0  0  0  0  0
   -6.2834   -0.2763    0.4269 F   0  0  0  0  0  0  0  0  0  0  0  0
   -5.8550    0.5333   -1.5914 F   0  0  0  0  0  0  0  0  0  0  0  0
   -3.2899   -0.1368   -1.5354 O   0  0  0  0  0  0  0  0  0  0  0  0
   -2.3753    0.8456   -1.1738 C   0  0  0  0  0  0  0  0  0  0  0  0
   -1.9872    1.7687   -2.1930 N   0  0  0  0  0  0  0  0  0  0  0  0
   -1.9421    0.8735    0.0096 N   0  0  0  0  0  0  0  0  0  0  0  0
   -3.0457    1.8306    2.0189 H   0  0  0  0  0  0  0  0  0  0  0  0
   -3.4964    0.2810    2.8080 H   0  0  0  0  0  0  0  0  0  0  0  0
   -1.8422    0.8963    3.0407 H   0  0  0  0  0  0  0  0  0  0  0  0
    0.1012    0.2798    0.0110 H   0  0  0  0  0  0  0  0  0  0  0  0
    3.4324   -1.3212    0.7198 H   0  0  0  0  0  0  0  0  0  0  0  0
    3.4878    1.7046   -2.6761 H   0  0  0  0  0  0  0  0  0  0  0  0
    5.7351    1.9645   -3.6933 H   0  0  0  0  0  0  0  0  0  0  0  0
    7.1775   -0.9137   -0.9467 H   0  0  0  0  0  0  0  0  0  0  0  0
    2.2655   -2.4641    2.3723 H   0  0  0  0  0  0  0  0  0  0  0  0
   -4.1206   -0.9586    1.5813 H   0  0  0  0  0  0  0  0  0  0  0  0
   -2.9424   -1.9659    0.5873 H   0  0  0  0  0  0  0  0  0  0  0  0
   -4.5740   -1.5654   -0.9052 H   0  0  0  0  0  0  0  0  0  0  0  0
   -2.2258    2.7791   -2.1557 H   0  0  0  0  0  0  0  0  0  0  0  0
   -1.4421    1.3813   -2.9957 H   0  0  0  0  0  0  0  0  0  0  0  0
  2  1  1  1
  2  3  1  0
  3  4  2  0
  4  5  1  0
  5  6  1  0
  6  7  1  0
  7  8  2  0
  7  9  1  0
  9 10  2  0
 10 11  1  0
 11 12  2  0
 12 13  1  0
 12 14  1  0
 14 15  2  0
  5 16  2  0
 16 17  1  0
 17 18  1  0
 17 19  2  0
 19 20  1  0
  2 21  1  0
 21 22  1  0
 22 23  1  0
 23 24  1  0
 23 25  1  0
 23 26  1  0
 22 27  1  0
 27 28  1  0
 28 29  1  0
 28 30  2  0
 30  2  1  0
 19  3  1  0
 15  9  1  0
  1 31  1  0
  1 32  1  0
  1 33  1  0
  4 34  1  0
  6 35  1  0
 10 36  1  0
 11 37  1  0
 14 38  1  0
 16 39  1  0
 21 40  1  0
 21 41  1  0
 22 42  1  6
 29 43  1  0
 29 44  1  0
M  END
$$$$
