
     RDKit          3D

 51 53  0  0  0  0  0  0  0  0999 V2000
    5.1467   -3.6277   -2.7436 N   0  0  0  0  0  0  0  0  0  0  0  0
    5.7198   -2.6387   -2.2967 C   0  0  0  0  0  0  0  0  0  0  0  0
    6.3495   -1.5067   -1.7829 C   0  0  0  0  0  0  0  0  0  0  0  0
    7.6615   -1.1766   -2.1460 C   0  0  0  0  0  0  0  0  0  0  0  0
    8.2771   -0.0740   -1.6216 C   0  0  0  0  0  0  0  0  0  0  0  0
    7.6280    0.7485   -0.7188 C   0  0  0  0  0  0  0  0  0  0  0  0
    6.3220    0.4389   -0.3435 C   0  0  0  0  0  0  0  0  0  0  0  0
    5.6885   -0.6866   -0.8751 C   0  0  0  0  0  0  0  0  0  0  0  0
    4.2757   -0.9392   -0.4251 C   0  0  0  0  0  0  0  0  0  0  0  0
    3.3445   -0.6783   -1.4957 O   0  0  0  0  0  0  0  0  0  0  0  0
    1.9962   -0.7956   -1.1804 C   0  0  0  0  0  0  0  0  0  0  0  0
    1.5646   -1.1130    0.0797 C   0  0  0  0  0  0  0  0  0  0  0  0
    0.2629   -1.2467    0.4663 C   0  0  0  0  0  0  0  0  0  0  0  0
   -0.7020   -1.0411   -0.4939 C   0  0  0  0  0  0  0  0  0  0  0  0
   -2.3975   -1.2179   -0.0394 S   0  0  0  0  0  6  0  0  0  0  0  0
   -2.4330   -2.0656    1.2464 O   0  0  0  0  0  0  0  0  0  0  0  0
   -3.1687   -1.9859   -1.0532 O   0  0  0  0  0  0  0  0  0  0  0  0
   -3.1304    0.2620    0.3504 N   0  0  0  0  0  0  0  0  0  0  0  0
   -2.6200    0.9832    1.4365 C   0  0  0  0  0  0  0  0  0  0  0  0
   -3.0188    2.4685    1.2721 C   0  0  2  0  0  0  0  0  0  0  0  0
   -2.6005    3.1464    2.3914 O   0  0  0  0  0  0  0  0  0  0  0  0
   -4.5587    2.4750    1.2309 C   0  0  0  0  0  0  0  0  0  0  0  0
   -4.9723    1.7686   -0.0341 C   0  0  0  0  0  0  0  0  0  0  0  0
   -4.5309    0.2992    0.1773 C   0  0  2  0  0  0  0  0  0  0  0  0
   -5.3290   -0.2803    1.2802 C   0  0  0  0  0  0  0  0  0  0  0  0
   -4.7637   -0.8110    2.3020 O   0  0  0  0  0  0  0  0  0  0  0  0
   -6.7638   -0.2848    1.2729 N   0  0  0  0  0  0  0  0  0  0  0  0
   -7.4777   -0.8113    2.2804 O   0  0  0  0  0  0  0  0  0  0  0  0
   -0.3484   -0.7175   -1.7871 C   0  0  0  0  0  0  0  0  0  0  0  0
    1.0008   -0.5955   -2.1343 C   0  0  0  0  0  0  0  0  0  0  0  0
    8.1325   -1.8375   -2.8308 H   0  0  0  0  0  0  0  0  0  0  0  0
    9.2883    0.1727   -1.9147 H   0  0  0  0  0  0  0  0  0  0  0  0
    8.1480    1.5914   -0.3344 H   0  0  0  0  0  0  0  0  0  0  0  0
    5.7798    1.0727    0.3808 H   0  0  0  0  0  0  0  0  0  0  0  0
    4.1505   -2.0146   -0.1150 H   0  0  0  0  0  0  0  0  0  0  0  0
    4.0356   -0.2528    0.3958 H   0  0  0  0  0  0  0  0  0  0  0  0
    2.3469   -1.2501    0.8247 H   0  0  0  0  0  0  0  0  0  0  0  0
    0.0381   -1.5170    1.4882 H   0  0  0  0  0  0  0  0  0  0  0  0
   -1.5130    0.9168    1.5101 H   0  0  0  0  0  0  0  0  0  0  0  0
   -3.0612    0.6774    2.4189 H   0  0  0  0  0  0  0  0  0  0  0  0
   -2.5934    2.8052    0.3145 H   0  0  0  0  0  0  0  0  0  0  0  0
   -1.6106    3.2886    2.3216 H   0  0  0  0  0  0  0  0  0  0  0  0
   -4.9609    3.4733    1.3695 H   0  0  0  0  0  0  0  0  0  0  0  0
   -4.8587    1.8601    2.1200 H   0  0  0  0  0  0  0  0  0  0  0  0
   -6.0322    1.8187   -0.2691 H   0  0  0  0  0  0  0  0  0  0  0  0
   -4.3933    2.1280   -0.9093 H   0  0  0  0  0  0  0  0  0  0  0  0
   -4.8551   -0.2041   -0.7756 H   0  0  0  0  0  0  0  0  0  0  0  0
   -7.2246    0.1394    0.4378 H   0  0  0  0  0  0  0  0  0  0  0  0
   -7.4355   -0.2374    3.1013 H   0  0  0  0  0  0  0  0  0  0  0  0
   -1.0999   -0.5596   -2.5482 H   0  0  0  0  0  0  0  0  0  0  0  0
    1.2961   -0.3676   -3.1249 H   0  0  0  0  0  0  0  0  0  0  0  0
  1  2  3  0
  2  3  1  0
  3  4  2  0
  4  5  1  0
  5  6  2  0
  6  7  1  0
  7  8  2  0
  8  9  1  0
  9 10  1  0
 10 11  1  0
 11 12  2  0
 12 13  1  0
 13 14  2  0
 14 15  1  0
 15 16  2  0
 15 17  2  0
 15 18  1  0
 18 19  1  0
 19 20  1  0
 20 21  1  0
 20 22  1  0
 22 23  1  0
 23 24  1  0
 24 25  1  0
 25 26  2  0
 25 27  1  0
 27 28  1  0
 14 29  1  0
 29 30  2  0
  8  3  1  0
 30 11  1  0
 24 18  1  0
  4 31  1  0
  5 32  1  0
  6 33  1  0
  7 34  1  0
  9 35  1  0
  9 36  1  0
 12 37  1  0
 13 38  1  0
 19 39  1  0
 19 40  1  0
 20 41  1  6
 21 42  1  0
 22 43  1  0
 22 44  1  0
 23 45  1  0
 23 46  1  0
 24 47  1  6
 27 48  1  0
 28 49  1  0
 29 50  1  0
 30 51  1  0
M  END
$$$$
