
     RDKit          3D

 29 29  0  0  0  0  0  0  0  0999 V2000
   -1.6152   -1.1537    1.5791 C   0  0  0  0  0  0  0  0  0  0  0  0
   -1.4871   -0.6989    0.1617 C   0  0  0  0  0  0  0  0  0  0  0  0
   -2.4967    0.3966   -0.0568 C   0  0  0  0  0  0  0  0  0  0  0  0
   -0.0678   -0.2636   -0.1840 C   0  0  0  0  0  0  0  0  0  0  0  0
    0.8179   -1.4764    0.0452 C   0  0  0  0  0  0  0  0  0  0  0  0
    2.2568   -1.1580   -0.2687 C   0  0  0  0  0  0  0  0  0  0  0  0
    3.2488   -1.2461    0.6189 C   0  0  0  0  0  0  0  0  0  0  0  0
    0.3646    0.7578    0.8048 C   0  0  0  0  0  0  0  0  0  0  0  0
    0.7258    0.5491    1.9941 O   0  0  0  0  0  0  0  0  0  0  0  0
    0.4137    2.1619    0.4767 N   0  0  0  0  0  0  0  0  0  0  0  0
    0.2676    2.5689   -0.8862 C   0  0  0  0  0  0  0  0  0  0  0  0
    0.3066    3.7978   -1.2049 O   0  0  0  0  0  0  0  0  0  0  0  0
    0.0719    1.6383   -1.9567 N   0  0  0  0  0  0  0  0  0  0  0  0
    0.0365    0.2692   -1.5375 C   0  0  0  0  0  0  0  0  0  0  0  0
    0.1039   -0.6194   -2.4529 O   0  0  0  0  0  0  0  0  0  0  0  0
   -2.7178   -1.3628    1.7168 H   0  0  0  0  0  0  0  0  0  0  0  0
   -1.3927   -0.3761    2.3337 H   0  0  0  0  0  0  0  0  0  0  0  0
   -1.1462   -2.1407    1.8009 H   0  0  0  0  0  0  0  0  0  0  0  0
   -1.8069   -1.5535   -0.4707 H   0  0  0  0  0  0  0  0  0  0  0  0
   -3.4993   -0.0531   -0.3111 H   0  0  0  0  0  0  0  0  0  0  0  0
   -2.6680    0.9578    0.8938 H   0  0  0  0  0  0  0  0  0  0  0  0
   -2.2437    1.1211   -0.8255 H   0  0  0  0  0  0  0  0  0  0  0  0
    0.7417   -1.8429    1.0897 H   0  0  0  0  0  0  0  0  0  0  0  0
    0.5550   -2.3394   -0.6023 H   0  0  0  0  0  0  0  0  0  0  0  0
    2.3023   -0.8559   -1.3268 H   0  0  0  0  0  0  0  0  0  0  0  0
    4.2042   -0.9637    0.1555 H   0  0  0  0  0  0  0  0  0  0  0  0
    4.2081   -0.9733    0.1924 H   0  0  0  0  0  0  0  0  0  0  0  0
    0.5497    2.9329    1.1571 H   0  0  0  0  0  0  0  0  0  0  0  0
   -0.0335    1.9261   -2.9364 H   0  0  0  0  0  0  0  0  0  0  0  0
  1  2  1  0
  2  3  1  0
  2  4  1  0
  4  5  1  0
  5  6  1  0
  6  7  2  0
  4  8  1  0
  8  9  2  0
  8 10  1  0
 10 11  1  0
 11 12  2  0
 11 13  1  0
 13 14  1  0
 14 15  2  0
 14  4  1  0
  1 16  1  0
  1 17  1  0
  1 18  1  0
  2 19  1  0
  3 20  1  0
  3 21  1  0
  3 22  1  0
  5 23  1  0
  5 24  1  0
  6 25  1  0
  7 26  1  0
  7 27  1  0
 10 28  1  0
 13 29  1  0
M  END
$$$$
