
     RDKit          3D

 54 56  0  0  0  0  0  0  0  0999 V2000
   -6.2634    0.7570   -0.8580 C   0  0  0  0  0  0  0  0  0  0  0  0
   -5.7104   -0.5827   -0.4193 C   0  0  0  0  0  0  0  0  0  0  0  0
   -6.7872   -1.4976    0.1216 C   0  0  0  0  0  0  0  0  0  0  0  0
   -5.0890   -1.2214   -1.6496 C   0  0  0  0  0  0  0  0  0  0  0  0
   -4.6899   -0.3182    0.6271 C   0  0  0  0  0  0  0  0  0  0  0  0
   -4.8645   -0.8204    1.7890 O   0  0  0  0  0  0  0  0  0  0  0  0
   -3.5382    0.4680    0.3773 N   0  0  0  0  0  0  0  0  0  0  0  0
   -2.5615    0.7147    1.3979 C   0  0  0  0  0  0  0  0  0  0  0  0
   -1.4083    1.5708    0.9372 C   0  0  0  0  0  0  0  0  0  0  0  0
   -0.7139    0.8607   -0.2035 C   0  0  0  0  0  0  0  0  0  0  0  0
    0.4612    1.6582   -0.7246 C   0  0  0  0  0  0  0  0  0  0  0  0
    1.7362    1.3790    0.0060 C   0  0  0  0  0  0  0  0  0  0  0  0
    1.9782   -0.0378    0.0700 N   0  0  0  0  0  0  0  0  0  0  0  0
    3.0974   -0.6532    0.6449 C   0  0  0  0  0  0  0  0  0  0  0  0
    2.9779   -1.5236    1.6743 N   0  0  0  0  0  0  0  0  0  0  0  0
    4.1516   -2.0302    2.1156 C   0  0  0  0  0  0  0  0  0  0  0  0
    5.3484   -1.7498    1.6368 N   0  0  0  0  0  0  0  0  0  0  0  0
    5.5250   -0.8704    0.5898 C   0  0  0  0  0  0  0  0  0  0  0  0
    6.6719   -0.4888   -0.0004 C   0  0  0  0  0  0  0  0  0  0  0  0
    6.6450    0.3859   -1.0161 C   0  0  0  0  0  0  0  0  0  0  0  0
    7.6756    0.9751   -1.8334 C   0  0  0  0  0  0  0  0  0  0  0  0
    9.0460    0.6822   -1.6655 N   0  0  0  0  0  0  0  0  0  0  0  0
    7.3446    1.7834   -2.7334 O   0  0  0  0  0  0  0  0  0  0  0  0
    4.8813    0.7217   -1.1834 S   0  0  0  0  0  0  0  0  0  0  0  0
    4.3530   -0.3438    0.1250 C   0  0  0  0  0  0  0  0  0  0  0  0
    0.9483   -0.9018   -0.5261 C   0  0  0  0  0  0  0  0  0  0  0  0
   -0.3440   -0.5429    0.1821 C   0  0  0  0  0  0  0  0  0  0  0  0
   -6.9627    1.1884   -0.1175 H   0  0  0  0  0  0  0  0  0  0  0  0
   -6.7815    0.6024   -1.8297 H   0  0  0  0  0  0  0  0  0  0  0  0
   -5.4007    1.4176   -1.0491 H   0  0  0  0  0  0  0  0  0  0  0  0
   -6.4736   -2.5490   -0.1276 H   0  0  0  0  0  0  0  0  0  0  0  0
   -6.7675   -1.3703    1.2421 H   0  0  0  0  0  0  0  0  0  0  0  0
   -7.7711   -1.2707   -0.3115 H   0  0  0  0  0  0  0  0  0  0  0  0
   -4.4746   -0.4633   -2.1459 H   0  0  0  0  0  0  0  0  0  0  0  0
   -5.9342   -1.5673   -2.2863 H   0  0  0  0  0  0  0  0  0  0  0  0
   -4.5233   -2.1330   -1.3510 H   0  0  0  0  0  0  0  0  0  0  0  0
   -3.4090    0.8702   -0.5676 H   0  0  0  0  0  0  0  0  0  0  0  0
   -2.1159   -0.2644    1.7212 H   0  0  0  0  0  0  0  0  0  0  0  0
   -3.0638    1.1331    2.2930 H   0  0  0  0  0  0  0  0  0  0  0  0
   -0.7479    1.7213    1.8097 H   0  0  0  0  0  0  0  0  0  0  0  0
   -1.7609    2.5471    0.5261 H   0  0  0  0  0  0  0  0  0  0  0  0
   -1.4389    0.7924   -1.0393 H   0  0  0  0  0  0  0  0  0  0  0  0
    0.2064    2.7392   -0.5245 H   0  0  0  0  0  0  0  0  0  0  0  0
    0.5397    1.5659   -1.8178 H   0  0  0  0  0  0  0  0  0  0  0  0
    2.5638    1.8325   -0.5922 H   0  0  0  0  0  0  0  0  0  0  0  0
    1.7386    1.8770    0.9936 H   0  0  0  0  0  0  0  0  0  0  0  0
    4.1367   -2.7492    2.9551 H   0  0  0  0  0  0  0  0  0  0  0  0
    7.6791   -0.8818    0.3297 H   0  0  0  0  0  0  0  0  0  0  0  0
    9.3280   -0.1383   -1.0922 H   0  0  0  0  0  0  0  0  0  0  0  0
    9.7952    1.2603   -2.0968 H   0  0  0  0  0  0  0  0  0  0  0  0
    0.8465   -0.6886   -1.6062 H   0  0  0  0  0  0  0  0  0  0  0  0
    1.1707   -1.9638   -0.3617 H   0  0  0  0  0  0  0  0  0  0  0  0
   -1.0973   -1.2894   -0.0841 H   0  0  0  0  0  0  0  0  0  0  0  0
   -0.1531   -0.5925    1.2760 H   0  0  0  0  0  0  0  0  0  0  0  0
  1  2  1  0
  2  3  1  0
  2  4  1  0
  2  5  1  0
  5  6  2  0
  5  7  1  0
  7  8  1  0
  8  9  1  0
  9 10  1  0
 10 11  1  0
 11 12  1  0
 12 13  1  0
 13 14  1  0
 14 15  2  0
 15 16  1  0
 16 17  2  0
 17 18  1  0
 18 19  1  0
 19 20  2  0
 20 21  1  0
 21 22  1  0
 21 23  2  0
 20 24  1  0
 24 25  1  0
 13 26  1  0
 26 27  1  0
 27 10  1  0
 25 14  1  0
 25 18  2  0
  1 28  1  0
  1 29  1  0
  1 30  1  0
  3 31  1  0
  3 32  1  0
  3 33  1  0
  4 34  1  0
  4 35  1  0
  4 36  1  0
  7 37  1  0
  8 38  1  0
  8 39  1  0
  9 40  1  0
  9 41  1  0
 10 42  1  0
 11 43  1  0
 11 44  1  0
 12 45  1  0
 12 46  1  0
 16 47  1  0
 19 48  1  0
 22 49  1  0
 22 50  1  0
 26 51  1  0
 26 52  1  0
 27 53  1  0
 27 54  1  0
M  END
$$$$
