
     RDKit          3D

 61 68  0  0  0  0  0  0  0  0999 V2000
    5.0887    1.5168    0.6695 C   0  0  0  0  0  0  0  0  0  0  0  0
    3.7520    1.9635    0.6911 N   0  0  0  0  0  0  0  0  0  0  0  0
    2.8559    1.4698   -0.2611 C   0  0  2  0  0  0  0  0  0  0  0  0
    1.5023    2.1626   -0.0253 C   0  0  0  0  0  0  0  0  0  0  0  0
    0.6882    1.8301   -1.2510 C   0  0  1  0  0  0  0  0  0  0  0  0
    1.0224    0.7372   -1.9334 O   0  0  0  0  0  0  0  0  0  0  0  0
    1.5089   -0.3834   -1.2501 C   0  0  1  0  0  0  0  0  0  0  0  0
    2.2353   -1.1680   -2.3248 C   0  0  0  0  0  0  0  0  0  0  0  0
    2.5349   -0.0087   -0.1828 C   0  0  2  0  0  0  0  0  0  0  0  0
    2.0878   -0.2937    1.0823 O   0  0  0  0  0  0  0  0  0  0  0  0
    2.9107   -1.1639    1.7927 C   0  0  0  0  0  0  0  0  0  0  0  0
    0.3947   -1.1398   -0.7001 N   0  0  0  0  0  0  0  0  0  0  0  0
    0.3404   -2.4480   -0.4498 C   0  0  0  0  0  0  0  0  0  0  0  0
    1.2522   -3.4542   -0.5687 C   0  0  0  0  0  0  0  0  0  0  0  0
    0.9159   -4.7646   -0.2181 C   0  0  0  0  0  0  0  0  0  0  0  0
   -0.3342   -5.0952    0.2576 C   0  0  0  0  0  0  0  0  0  0  0  0
   -1.2521   -4.0958    0.3806 C   0  0  0  0  0  0  0  0  0  0  0  0
   -0.9272   -2.8118    0.0385 C   0  0  0  0  0  0  0  0  0  0  0  0
   -1.6576   -1.6684    0.0831 C   0  0  0  0  0  0  0  0  0  0  0  0
   -2.9617   -1.3827    0.4706 C   0  0  0  0  0  0  0  0  0  0  0  0
   -3.4676   -0.0808    0.4141 C   0  0  0  0  0  0  0  0  0  0  0  0
   -2.6179    0.8999   -0.0394 C   0  0  0  0  0  0  0  0  0  0  0  0
   -2.7427    2.2597   -0.2167 C   0  0  0  0  0  0  0  0  0  0  0  0
   -3.7483    3.1760   -0.0313 C   0  0  0  0  0  0  0  0  0  0  0  0
   -3.5876    4.5399   -0.3031 C   0  0  0  0  0  0  0  0  0  0  0  0
   -2.3912    5.0040   -0.7730 C   0  0  0  0  0  0  0  0  0  0  0  0
   -1.3550    4.1079   -0.9719 C   0  0  0  0  0  0  0  0  0  0  0  0
   -1.5486    2.7728   -0.6937 C   0  0  0  0  0  0  0  0  0  0  0  0
   -0.7046    1.7438   -0.8078 N   0  0  0  0  0  0  0  0  0  0  0  0
   -1.3091    0.6036   -0.4268 C   0  0  0  0  0  0  0  0  0  0  0  0
   -0.8438   -0.6834   -0.3622 C   0  0  0  0  0  0  0  0  0  0  0  0
   -4.8441   -0.0785    0.8710 C   0  0  0  0  0  0  0  0  0  0  0  0
   -5.6751    0.8400    0.9887 O   0  0  0  0  0  0  0  0  0  0  0  0
   -5.1559   -1.4256    1.2068 N   0  0  0  0  0  0  0  0  0  0  0  0
   -4.0269   -2.2774    0.9855 C   0  0  0  0  0  0  0  0  0  0  0  0
    5.2488    0.5337    0.1834 H   0  0  0  0  0  0  0  0  0  0  0  0
    5.7303    2.2902    0.1912 H   0  0  0  0  0  0  0  0  0  0  0  0
    5.4376    1.3982    1.7345 H   0  0  0  0  0  0  0  0  0  0  0  0
    3.3735    2.2548    1.6050 H   0  0  0  0  0  0  0  0  0  0  0  0
    3.2257    1.7017   -1.2887 H   0  0  0  0  0  0  0  0  0  0  0  0
    1.6204    3.2543    0.0537 H   0  0  0  0  0  0  0  0  0  0  0  0
    1.0667    1.6824    0.8618 H   0  0  0  0  0  0  0  0  0  0  0  0
    0.7042    2.7198   -1.9434 H   0  0  0  0  0  0  0  0  0  0  0  0
    3.2732   -1.4758   -2.0091 H   0  0  0  0  0  0  0  0  0  0  0  0
    1.6440   -1.9657   -2.7821 H   0  0  0  0  0  0  0  0  0  0  0  0
    2.4884   -0.4965   -3.2163 H   0  0  0  0  0  0  0  0  0  0  0  0
    3.4883   -0.5487   -0.3476 H   0  0  0  0  0  0  0  0  0  0  0  0
    2.4994   -1.3611    2.8054 H   0  0  0  0  0  0  0  0  0  0  0  0
    3.9324   -0.7723    1.9692 H   0  0  0  0  0  0  0  0  0  0  0  0
    3.0661   -2.1367    1.2597 H   0  0  0  0  0  0  0  0  0  0  0  0
    2.2252   -3.2334   -0.9187 H   0  0  0  0  0  0  0  0  0  0  0  0
    1.6383   -5.5794   -0.3096 H   0  0  0  0  0  0  0  0  0  0  0  0
   -0.5982   -6.1203    0.5320 H   0  0  0  0  0  0  0  0  0  0  0  0
   -2.2485   -4.3362    0.7554 H   0  0  0  0  0  0  0  0  0  0  0  0
   -4.6996    2.8763    0.3311 H   0  0  0  0  0  0  0  0  0  0  0  0
   -4.4133    5.2350   -0.1416 H   0  0  0  0  0  0  0  0  0  0  0  0
   -2.2060    6.0338   -0.9995 H   0  0  0  0  0  0  0  0  0  0  0  0
   -0.3896    4.4263   -1.3420 H   0  0  0  0  0  0  0  0  0  0  0  0
   -6.0669   -1.7680    1.5641 H   0  0  0  0  0  0  0  0  0  0  0  0
   -3.7001   -2.8147    1.9006 H   0  0  0  0  0  0  0  0  0  0  0  0
   -4.2796   -3.0016    0.1637 H   0  0  0  0  0  0  0  0  0  0  0  0
  1  2  1  0
  2  3  1  0
  3  4  1  0
  4  5  1  0
  5  6  1  0
  6  7  1  0
  7  8  1  6
  7  9  1  0
  9 10  1  0
 10 11  1  0
  7 12  1  0
 12 13  1  0
 13 14  2  0
 14 15  1  0
 15 16  2  0
 16 17  1  0
 17 18  2  0
 18 19  1  0
 19 20  2  0
 20 21  1  0
 21 22  2  0
 22 23  1  0
 23 24  2  0
 24 25  1  0
 25 26  2  0
 26 27  1  0
 27 28  2  0
 28 29  1  0
 29 30  1  0
 30 31  2  0
 21 32  1  0
 32 33  2  0
 32 34  1  0
 34 35  1  0
  9  3  1  0
 31 12  1  0
 29  5  1  0
 18 13  1  0
 31 19  1  0
 35 20  1  0
 30 22  1  0
 28 23  1  0
  1 36  1  0
  1 37  1  0
  1 38  1  0
  2 39  1  0
  3 40  1  6
  4 41  1  0
  4 42  1  0
  5 43  1  6
  8 44  1  0
  8 45  1  0
  8 46  1  0
  9 47  1  6
 11 48  1  0
 11 49  1  0
 11 50  1  0
 14 51  1  0
 15 52  1  0
 16 53  1  0
 17 54  1  0
 24 55  1  0
 25 56  1  0
 26 57  1  0
 27 58  1  0
 34 59  1  0
 35 60  1  0
 35 61  1  0
M  END
$$$$
