
     RDKit          3D

 40 41  0  0  0  0  0  0  0  0999 V2000
   -5.5238    3.0599   -1.4214 C   0  0  0  0  0  0  0  0  0  0  0  0
   -4.4752    2.1138   -1.8890 C   0  0  0  0  0  0  0  0  0  0  0  0
   -3.4570    2.5094   -2.4821 O   0  0  0  0  0  0  0  0  0  0  0  0
   -4.7216    0.7236   -1.6085 N   0  0  0  0  0  0  0  0  0  0  0  0
   -3.8331   -0.0252   -1.0878 C   0  0  0  0  0  0  0  0  0  0  0  0
   -3.7895   -1.2996   -0.7331 N   0  0  0  0  0  0  0  0  0  0  0  0
   -2.7276   -1.8376   -0.2051 C   0  0  0  0  0  0  0  0  0  0  0  0
   -2.6854   -3.3034    0.2440 C   0  0  0  0  0  0  0  0  0  0  0  0
   -1.6028   -1.0325   -0.0140 C   0  0  0  0  0  0  0  0  0  0  0  0
   -0.2831   -1.2676    0.5486 C   0  0  0  0  0  0  0  0  0  0  0  0
    0.2411   -2.4908    0.8324 C   0  0  0  0  0  0  0  0  0  0  0  0
    1.5170   -2.5808    1.4177 C   0  0  0  0  0  0  0  0  0  0  0  0
    2.2210   -1.4360    1.6958 C   0  0  0  0  0  0  0  0  0  0  0  0
    3.8149   -1.5150    2.4310 Cl  0  0  0  0  0  0  0  0  0  0  0  0
    1.6756   -0.2043    1.4006 C   0  0  0  0  0  0  0  0  0  0  0  0
    2.5766    1.2569    1.7500 S   0  0  0  0  0  6  0  0  0  0  0  0
    1.7453    2.4467    1.4638 O   0  0  0  0  0  0  0  0  0  0  0  0
    2.9041    1.2135    3.2336 O   0  0  0  0  0  0  0  0  0  0  0  0
    4.0347    1.2197    0.8527 N   0  0  0  0  0  0  0  0  0  0  0  0
    3.7704    1.1871   -0.5624 C   0  0  0  0  0  0  0  0  0  0  0  0
    5.0783    1.1545   -1.3367 C   0  0  0  0  0  0  0  0  0  0  0  0
    5.8034    2.3021   -1.0184 O   0  0  0  0  0  0  0  0  0  0  0  0
    0.4469   -0.1043    0.8371 C   0  0  0  0  0  0  0  0  0  0  0  0
   -2.1669    0.5290   -0.6321 S   0  0  0  0  0  0  0  0  0  0  0  0
   -6.5067    2.5576   -1.3292 H   0  0  0  0  0  0  0  0  0  0  0  0
   -5.6003    3.8970   -2.1470 H   0  0  0  0  0  0  0  0  0  0  0  0
   -5.2746    3.4875   -0.4147 H   0  0  0  0  0  0  0  0  0  0  0  0
   -4.7006   -1.8954   -0.9109 H   0  0  0  0  0  0  0  0  0  0  0  0
   -3.7715   -3.6325    0.2581 H   0  0  0  0  0  0  0  0  0  0  0  0
   -2.3726   -3.3987    1.2797 H   0  0  0  0  0  0  0  0  0  0  0  0
   -2.1820   -3.9362   -0.4834 H   0  0  0  0  0  0  0  0  0  0  0  0
   -0.2716   -3.3985    0.6049 H   0  0  0  0  0  0  0  0  0  0  0  0
    1.9308   -3.5558    1.6432 H   0  0  0  0  0  0  0  0  0  0  0  0
    4.6994    0.5119    1.1938 H   0  0  0  0  0  0  0  0  0  0  0  0
    3.2075    0.2481   -0.7720 H   0  0  0  0  0  0  0  0  0  0  0  0
    3.2374    2.0842   -0.8712 H   0  0  0  0  0  0  0  0  0  0  0  0
    5.6536    0.2624   -1.0351 H   0  0  0  0  0  0  0  0  0  0  0  0
    4.9272    1.1178   -2.4145 H   0  0  0  0  0  0  0  0  0  0  0  0
    6.4239    2.1589   -0.2586 H   0  0  0  0  0  0  0  0  0  0  0  0
    0.0369    0.8727    0.6149 H   0  0  0  0  0  0  0  0  0  0  0  0
  1  2  1  0
  2  3  2  0
  2  4  1  0
  4  5  2  0
  5  6  1  0
  6  7  1  0
  7  8  1  0
  7  9  2  0
  9 10  1  0
 10 11  2  0
 11 12  1  0
 12 13  2  0
 13 14  1  0
 13 15  1  0
 15 16  1  0
 16 17  2  0
 16 18  2  0
 16 19  1  0
 19 20  1  0
 20 21  1  0
 21 22  1  0
 15 23  2  0
  9 24  1  0
 24  5  1  0
 23 10  1  0
  1 25  1  0
  1 26  1  0
  1 27  1  0
  6 28  1  0
  8 29  1  0
  8 30  1  0
  8 31  1  0
 11 32  1  0
 12 33  1  0
 19 34  1  0
 20 35  1  0
 20 36  1  0
 21 37  1  0
 21 38  1  0
 22 39  1  0
 23 40  1  0
M  END
$$$$
