
     RDKit          3D

 41 43  0  0  0  0  0  0  0  0999 V2000
   -5.5764   -1.5459    0.1989 C   0  0  0  0  0  0  0  0  0  0  0  0
   -4.5215   -2.4536   -0.0517 O   0  0  0  0  0  0  0  0  0  0  0  0
   -3.2226   -1.9817   -0.1119 C   0  0  0  0  0  0  0  0  0  0  0  0
   -2.8934   -0.6625    0.0600 C   0  0  0  0  0  0  0  0  0  0  0  0
   -1.5781   -0.1930   -0.0021 C   0  0  0  0  0  0  0  0  0  0  0  0
   -0.5250   -1.0630   -0.2462 C   0  0  0  0  0  0  0  0  0  0  0  0
   -0.9163   -2.3734   -0.4103 C   0  0  0  0  0  0  0  0  0  0  0  0
   -2.2018   -2.8594   -0.3538 C   0  0  0  0  0  0  0  0  0  0  0  0
    0.5904   -0.3123   -0.2414 N   0  0  0  0  0  0  0  0  0  0  0  0
    1.8324   -0.8929   -0.4975 C   0  0  0  0  0  0  0  0  0  0  0  0
    1.7955   -2.1049   -0.8383 O   0  0  0  0  0  0  0  0  0  0  0  0
    3.2230   -0.5885   -0.5141 C   0  0  0  0  0  0  0  0  0  0  0  0
    4.0762   -1.2568   -1.3933 C   0  0  0  0  0  0  0  0  0  0  0  0
    5.4566   -1.0403   -1.4458 C   0  0  0  0  0  0  0  0  0  0  0  0
    5.9862   -0.1170   -0.5782 C   0  0  0  0  0  0  0  0  0  0  0  0
    7.7243    0.1515   -0.6527 Cl  0  0  0  0  0  0  0  0  0  0  0  0
    5.2501    0.5951    0.3252 C   0  0  0  0  0  0  0  0  0  0  0  0
    3.9165    0.2959    0.2810 C   0  0  0  0  0  0  0  0  0  0  0  0
    0.2244    0.9733   -0.0038 C   0  0  0  0  0  0  0  0  0  0  0  0
    1.0712    2.1868    0.0619 C   0  0  0  0  0  0  0  0  0  0  0  0
   -1.1533    1.1084    0.1586 C   0  0  0  0  0  0  0  0  0  0  0  0
   -1.9857    2.2889    0.4335 C   0  0  0  0  0  0  0  0  0  0  0  0
   -2.4373    2.3622    1.8464 C   0  0  0  0  0  0  0  0  0  0  0  0
   -3.2253    3.4301    2.2194 O   0  0  0  0  0  0  0  0  0  0  0  0
   -2.2727    1.6449    2.8686 O   0  0  0  0  0  0  0  0  0  0  0  0
   -5.7565   -0.8936   -0.6916 H   0  0  0  0  0  0  0  0  0  0  0  0
   -6.5139   -2.1116    0.4229 H   0  0  0  0  0  0  0  0  0  0  0  0
   -5.2968   -0.9335    1.0770 H   0  0  0  0  0  0  0  0  0  0  0  0
   -3.6984    0.0190    0.2489 H   0  0  0  0  0  0  0  0  0  0  0  0
   -0.1705   -3.1191   -0.6012 H   0  0  0  0  0  0  0  0  0  0  0  0
   -2.4268   -3.9069   -0.4938 H   0  0  0  0  0  0  0  0  0  0  0  0
    3.7503   -1.9997   -2.1155 H   0  0  0  0  0  0  0  0  0  0  0  0
    6.0916   -1.5652   -2.1301 H   0  0  0  0  0  0  0  0  0  0  0  0
    5.6861    1.3038    0.9856 H   0  0  0  0  0  0  0  0  0  0  0  0
    3.3397    0.8545    1.0264 H   0  0  0  0  0  0  0  0  0  0  0  0
    1.9564    2.0725   -0.6278 H   0  0  0  0  0  0  0  0  0  0  0  0
    0.4990    3.1034   -0.2221 H   0  0  0  0  0  0  0  0  0  0  0  0
    1.4848    2.2829    1.0842 H   0  0  0  0  0  0  0  0  0  0  0  0
   -2.9322    2.1763   -0.1761 H   0  0  0  0  0  0  0  0  0  0  0  0
   -1.4701    3.1943    0.1359 H   0  0  0  0  0  0  0  0  0  0  0  0
   -3.1802    3.9308    3.0957 H   0  0  0  0  0  0  0  0  0  0  0  0
  1  2  1  0
  2  3  1  0
  3  4  2  0
  4  5  1  0
  5  6  2  0
  6  7  1  0
  7  8  2  0
  6  9  1  0
  9 10  1  0
 10 11  2  0
 10 12  1  0
 12 13  2  0
 13 14  1  0
 14 15  2  0
 15 16  1  0
 15 17  1  0
 17 18  2  0
  9 19  1  0
 19 20  1  0
 19 21  2  0
 21 22  1  0
 22 23  1  0
 23 24  1  0
 23 25  2  0
  8  3  1  0
 18 12  1  0
 21  5  1  0
  1 26  1  0
  1 27  1  0
  1 28  1  0
  4 29  1  0
  7 30  1  0
  8 31  1  0
 13 32  1  0
 14 33  1  0
 17 34  1  0
 18 35  1  0
 20 36  1  0
 20 37  1  0
 20 38  1  0
 22 39  1  0
 22 40  1  0
 24 41  1  0
M  END
$$$$
