
     RDKit          3D

 39 41  0  0  0  0  0  0  0  0999 V2000
    7.3696    0.4597    0.4009 C   0  0  0  0  0  0  0  0  0  0  0  0
    6.4823    1.2635    1.3049 C   0  0  0  0  0  0  0  0  0  0  0  0
    5.1910    1.4442    0.7928 O   0  0  0  0  0  0  0  0  0  0  0  0
    4.3321    0.3978    0.4988 C   0  0  0  0  0  0  0  0  0  0  0  0
    3.0936    0.5005    0.0104 N   0  0  0  0  0  0  0  0  0  0  0  0
    2.5510   -0.6879   -0.1543 N   0  0  0  0  0  0  0  0  0  0  0  0
    1.2655   -1.0440   -0.6427 C   0  0  0  0  0  0  0  0  0  0  0  0
    1.1295   -2.0621   -1.5716 C   0  0  0  0  0  0  0  0  0  0  0  0
   -0.1307   -2.3720   -2.0154 C   0  0  0  0  0  0  0  0  0  0  0  0
   -1.2322   -1.6893   -1.5501 C   0  0  0  0  0  0  0  0  0  0  0  0
   -1.1319   -0.6699   -0.6249 C   0  0  0  0  0  0  0  0  0  0  0  0
   -2.2354    0.0244   -0.1495 O   0  0  0  0  0  0  0  0  0  0  0  0
   -3.5235   -0.3307   -0.6375 C   0  0  0  0  0  0  0  0  0  0  0  0
   -4.5902    0.4785   -0.0544 C   0  0  0  0  0  0  0  0  0  0  0  0
   -5.2454    0.1219    1.0998 C   0  0  0  0  0  0  0  0  0  0  0  0
   -6.2583    0.8805    1.6627 C   0  0  0  0  0  0  0  0  0  0  0  0
   -6.6246    2.0510    1.0305 C   0  0  0  0  0  0  0  0  0  0  0  0
   -5.9930    2.4431   -0.1272 C   0  0  0  0  0  0  0  0  0  0  0  0
   -4.9899    1.6605   -0.6554 C   0  0  0  0  0  0  0  0  0  0  0  0
    0.1369   -0.3612   -0.1810 C   0  0  0  0  0  0  0  0  0  0  0  0
    3.4848   -1.5676    0.2460 C   0  0  0  0  0  0  0  0  0  0  0  0
    3.4525   -2.8122    0.2831 O   0  0  0  0  0  0  0  0  0  0  0  0
    4.5561   -0.8790    0.6374 O   0  0  0  0  0  0  0  0  0  0  0  0
    8.1255    1.0976   -0.0935 H   0  0  0  0  0  0  0  0  0  0  0  0
    6.8102   -0.0454   -0.4149 H   0  0  0  0  0  0  0  0  0  0  0  0
    7.9330   -0.2929    0.9878 H   0  0  0  0  0  0  0  0  0  0  0  0
    6.9321    2.2909    1.4016 H   0  0  0  0  0  0  0  0  0  0  0  0
    6.4338    0.7669    2.2964 H   0  0  0  0  0  0  0  0  0  0  0  0
    2.0209   -2.5704   -1.9086 H   0  0  0  0  0  0  0  0  0  0  0  0
   -0.2220   -3.1695   -2.7410 H   0  0  0  0  0  0  0  0  0  0  0  0
   -2.2395   -1.9319   -1.9003 H   0  0  0  0  0  0  0  0  0  0  0  0
   -3.4936   -0.1566   -1.7389 H   0  0  0  0  0  0  0  0  0  0  0  0
   -3.6791   -1.4295   -0.4969 H   0  0  0  0  0  0  0  0  0  0  0  0
   -4.9662   -0.7972    1.6067 H   0  0  0  0  0  0  0  0  0  0  0  0
   -6.7656    0.5889    2.5708 H   0  0  0  0  0  0  0  0  0  0  0  0
   -7.4239    2.6391    1.4845 H   0  0  0  0  0  0  0  0  0  0  0  0
   -6.3080    3.3623   -0.5894 H   0  0  0  0  0  0  0  0  0  0  0  0
   -4.4852    1.9559   -1.5638 H   0  0  0  0  0  0  0  0  0  0  0  0
    0.2374    0.4423    0.5511 H   0  0  0  0  0  0  0  0  0  0  0  0
  1  2  1  0
  2  3  1  0
  3  4  1  0
  4  5  2  0
  5  6  1  0
  6  7  1  0
  7  8  2  0
  8  9  1  0
  9 10  2  0
 10 11  1  0
 11 12  1  0
 12 13  1  0
 13 14  1  0
 14 15  2  0
 15 16  1  0
 16 17  2  0
 17 18  1  0
 18 19  2  0
 11 20  2  0
  6 21  1  0
 21 22  2  0
 21 23  1  0
 23  4  1  0
 20  7  1  0
 19 14  1  0
  1 24  1  0
  1 25  1  0
  1 26  1  0
  2 27  1  0
  2 28  1  0
  8 29  1  0
  9 30  1  0
 10 31  1  0
 13 32  1  0
 13 33  1  0
 15 34  1  0
 16 35  1  0
 17 36  1  0
 18 37  1  0
 19 38  1  0
 20 39  1  0
M  END
$$$$
