
     RDKit          3D

 52 54  0  0  0  0  0  0  0  0999 V2000
   -1.0847   -1.6316    0.7429 C   0  0  1  0  0  0  0  0  0  0  0  0
   -1.1086   -0.1939    1.1031 C   0  0  0  0  0  0  0  0  0  0  0  0
   -1.6628    0.6341    0.0244 C   0  0  0  0  0  0  0  0  0  0  0  0
   -0.8816    1.2059   -0.9862 C   0  0  0  0  0  0  0  0  0  0  0  0
   -1.6862    1.8727   -1.8618 N   0  0  0  0  0  0  0  0  0  0  0  0
   -2.9721    1.7717   -1.4823 C   0  0  0  0  0  0  0  0  0  0  0  0
   -2.9390    1.0162   -0.3333 C   0  0  0  0  0  0  0  0  0  0  0  0
   -4.1428    0.7643    0.3034 C   0  0  0  0  0  0  0  0  0  0  0  0
   -5.3554    1.2212   -0.1454 C   0  0  0  0  0  0  0  0  0  0  0  0
   -6.6269    0.9313    0.5709 C   0  0  0  0  0  0  0  0  0  0  0  0
   -5.3919    1.9881   -1.3142 C   0  0  0  0  0  0  0  0  0  0  0  0
   -4.1903    2.2479   -1.9624 C   0  0  0  0  0  0  0  0  0  0  0  0
   -0.5519   -2.4522    1.8323 N   0  0  0  0  0  0  0  0  0  0  0  0
    1.0178   -2.9713    1.2891 S   0  0  0  0  0  0  0  0  0  0  0  0
    0.8100   -3.7574    0.0379 O   0  0  0  0  0  0  0  0  0  0  0  0
    1.6102   -3.8682    2.3107 O   0  0  0  0  0  0  0  0  0  0  0  0
    2.0153   -1.5562    1.0488 C   0  0  0  0  0  0  0  0  0  0  0  0
    2.6207   -1.0959    2.2261 C   0  0  0  0  0  0  0  0  0  0  0  0
    3.4497    0.0327    2.1914 C   0  0  0  0  0  0  0  0  0  0  0  0
    3.6855    0.7156    0.9869 C   0  0  0  0  0  0  0  0  0  0  0  0
    4.5269    1.7993    1.1634 O   0  0  0  0  0  0  0  0  0  0  0  0
    4.8790    2.6118    0.0707 C   0  0  0  0  0  0  0  0  0  0  0  0
    5.5538    1.7876   -0.9232 C   0  0  0  0  0  0  0  0  0  0  0  0
    6.1105    1.1036   -1.7476 C   0  0  0  0  0  0  0  0  0  0  0  0
    6.8019    0.2891   -2.7511 C   0  0  0  0  0  0  0  0  0  0  0  0
    3.0748    0.2282   -0.1267 C   0  0  0  0  0  0  0  0  0  0  0  0
    2.2617   -0.8771   -0.1004 C   0  0  0  0  0  0  0  0  0  0  0  0
   -2.3148   -2.2308    0.2777 C   0  0  0  0  0  0  0  0  0  0  0  0
   -3.1072   -3.2761    0.7019 O   0  0  0  0  0  0  0  0  0  0  0  0
   -3.0537   -1.9728   -0.6822 O   0  0  0  0  0  0  0  0  0  0  0  0
   -0.2702   -1.7195   -0.0526 H   0  0  0  0  0  0  0  0  0  0  0  0
   -0.0796    0.1639    1.3210 H   0  0  0  0  0  0  0  0  0  0  0  0
   -1.7597   -0.0558    2.0077 H   0  0  0  0  0  0  0  0  0  0  0  0
    0.1935    1.1695   -1.1197 H   0  0  0  0  0  0  0  0  0  0  0  0
   -1.4047    2.3998   -2.7178 H   0  0  0  0  0  0  0  0  0  0  0  0
   -4.1365    0.1741    1.2095 H   0  0  0  0  0  0  0  0  0  0  0  0
   -7.1812    0.1803   -0.0029 H   0  0  0  0  0  0  0  0  0  0  0  0
   -6.3786    0.5925    1.6118 H   0  0  0  0  0  0  0  0  0  0  0  0
   -7.1952    1.8875    0.6198 H   0  0  0  0  0  0  0  0  0  0  0  0
   -6.3137    2.3888   -1.7379 H   0  0  0  0  0  0  0  0  0  0  0  0
   -4.1870    2.8379   -2.8719 H   0  0  0  0  0  0  0  0  0  0  0  0
   -0.4751   -1.9082    2.7199 H   0  0  0  0  0  0  0  0  0  0  0  0
    2.4773   -1.5826    3.1937 H   0  0  0  0  0  0  0  0  0  0  0  0
    3.8929    0.3388    3.1495 H   0  0  0  0  0  0  0  0  0  0  0  0
    3.9234    3.0064   -0.3426 H   0  0  0  0  0  0  0  0  0  0  0  0
    5.5445    3.4320    0.4192 H   0  0  0  0  0  0  0  0  0  0  0  0
    6.1615    0.3180   -3.6579 H   0  0  0  0  0  0  0  0  0  0  0  0
    7.8087    0.6919   -2.9652 H   0  0  0  0  0  0  0  0  0  0  0  0
    6.9180   -0.7629   -2.4082 H   0  0  0  0  0  0  0  0  0  0  0  0
    3.2872    0.7866   -1.0246 H   0  0  0  0  0  0  0  0  0  0  0  0
    1.8051   -1.2374   -0.9918 H   0  0  0  0  0  0  0  0  0  0  0  0
   -3.9782   -3.2155    1.1764 H   0  0  0  0  0  0  0  0  0  0  0  0
  1  2  1  0
  2  3  1  0
  3  4  2  0
  4  5  1  0
  5  6  1  0
  6  7  2  0
  7  8  1  0
  8  9  2  0
  9 10  1  0
  9 11  1  0
 11 12  2  0
  1 13  1  0
 13 14  1  0
 14 15  2  0
 14 16  2  0
 14 17  1  0
 17 18  2  0
 18 19  1  0
 19 20  2  0
 20 21  1  0
 21 22  1  0
 22 23  1  0
 23 24  3  0
 24 25  1  0
 20 26  1  0
 26 27  2  0
  1 28  1  0
 28 29  1  0
 28 30  2  0
  7  3  1  0
 27 17  1  0
 12  6  1  0
  1 31  1  6
  2 32  1  0
  2 33  1  0
  4 34  1  0
  5 35  1  0
  8 36  1  0
 10 37  1  0
 10 38  1  0
 10 39  1  0
 11 40  1  0
 12 41  1  0
 13 42  1  0
 18 43  1  0
 19 44  1  0
 22 45  1  0
 22 46  1  0
 25 47  1  0
 25 48  1  0
 25 49  1  0
 26 50  1  0
 27 51  1  0
 29 52  1  0
M  END
$$$$
