
     RDKit          3D

 66 70  0  0  0  0  0  0  0  0999 V2000
    4.9726    0.2022   -1.1815 C   0  0  0  0  0  0  0  0  0  0  0  0
    4.2745    0.1316    0.1608 C   0  0  1  0  0  0  0  0  0  0  0  0
    3.9209   -1.2024    0.3658 O   0  0  0  0  0  0  0  0  0  0  0  0
    2.6468   -1.7280    0.4332 C   0  0  0  0  0  0  0  0  0  0  0  0
    1.4796   -1.0149    0.3058 C   0  0  0  0  0  0  0  0  0  0  0  0
    0.2350   -1.6199    0.3862 C   0  0  0  0  0  0  0  0  0  0  0  0
   -0.9970   -0.8296    0.2453 C   0  0  0  0  0  0  0  0  0  0  0  0
   -2.1756   -1.1154    0.8610 C   0  0  0  0  0  0  0  0  0  0  0  0
   -3.0569   -0.1565    0.4768 N   0  0  0  0  0  0  0  0  0  0  0  0
   -2.4873    0.7061   -0.3424 N   0  0  0  0  0  0  0  0  0  0  0  0
   -3.1293    1.8484   -0.9416 C   0  0  0  0  0  0  0  0  0  0  0  0
   -4.1403    2.5029   -0.0280 C   0  0  0  0  0  0  0  0  0  0  0  0
   -5.4384    2.0728   -0.6218 C   0  0  0  0  0  0  0  0  0  0  0  0
   -6.4280    3.2115   -0.5189 C   0  0  0  0  0  0  0  0  0  0  0  0
   -6.0058    0.9303    0.2271 C   0  0  0  0  0  0  0  0  0  0  0  0
   -5.2432    1.6340   -1.8982 O   0  0  0  0  0  0  0  0  0  0  0  0
   -3.9126    1.5260   -2.1719 C   0  0  0  0  0  0  0  0  0  0  0  0
   -3.6441    0.1157   -2.6653 C   0  0  0  0  0  0  0  0  0  0  0  0
   -3.6036    2.4815   -3.3275 C   0  0  0  0  0  0  0  0  0  0  0  0
   -1.2037    0.3091   -0.5029 C   0  0  0  0  0  0  0  0  0  0  0  0
    0.2003   -2.9799    0.6013 C   0  0  0  0  0  0  0  0  0  0  0  0
    1.3674   -3.7033    0.7304 C   0  0  0  0  0  0  0  0  0  0  0  0
    1.6223   -5.0295    0.9440 N   0  0  0  0  0  0  0  0  0  0  0  0
    2.9243   -5.2359    0.9929 N   0  0  0  0  0  0  0  0  0  0  0  0
    3.5856   -6.5219    1.2054 C   0  0  0  0  0  0  0  0  0  0  0  0
    3.5898   -4.0799    0.8178 C   0  0  0  0  0  0  0  0  0  0  0  0
    4.9425   -3.8676    0.8006 F   0  0  0  0  0  0  0  0  0  0  0  0
    2.6077   -3.1157    0.6526 C   0  0  0  0  0  0  0  0  0  0  0  0
    5.1378    0.6820    1.2744 C   0  0  1  0  0  0  0  0  0  0  0  0
    5.5079    2.1172    1.0587 C   0  0  0  0  0  0  0  0  0  0  0  0
    4.2484    2.8008    1.2223 N   0  0  0  0  0  0  0  0  0  0  0  0
    3.4462    2.0236    2.1180 C   0  0  0  0  0  0  0  0  0  0  0  0
    2.2950    2.3574    2.4720 O   0  0  0  0  0  0  0  0  0  0  0  0
    4.2360    0.8024    2.5127 C   0  0  0  0  0  0  0  0  0  0  0  0
    5.9524   -0.3271   -1.1653 H   0  0  0  0  0  0  0  0  0  0  0  0
    5.0500    1.2311   -1.5678 H   0  0  0  0  0  0  0  0  0  0  0  0
    4.3336   -0.3556   -1.8989 H   0  0  0  0  0  0  0  0  0  0  0  0
    3.3654    0.7439    0.0568 H   0  0  0  0  0  0  0  0  0  0  0  0
    1.5208    0.0564    0.1363 H   0  0  0  0  0  0  0  0  0  0  0  0
   -2.3616   -1.9447    1.5226 H   0  0  0  0  0  0  0  0  0  0  0  0
   -2.3695    2.6266   -1.2515 H   0  0  0  0  0  0  0  0  0  0  0  0
   -3.9950    3.6033   -0.0138 H   0  0  0  0  0  0  0  0  0  0  0  0
   -3.9847    2.0643    0.9909 H   0  0  0  0  0  0  0  0  0  0  0  0
   -6.5680    3.4633    0.5410 H   0  0  0  0  0  0  0  0  0  0  0  0
   -7.3773    2.8737   -0.9384 H   0  0  0  0  0  0  0  0  0  0  0  0
   -6.0513    4.0907   -1.0778 H   0  0  0  0  0  0  0  0  0  0  0  0
   -5.7606   -0.0338   -0.2369 H   0  0  0  0  0  0  0  0  0  0  0  0
   -5.5952    1.0020    1.2387 H   0  0  0  0  0  0  0  0  0  0  0  0
   -7.1266    1.0349    0.2855 H   0  0  0  0  0  0  0  0  0  0  0  0
   -3.5428   -0.5774   -1.8138 H   0  0  0  0  0  0  0  0  0  0  0  0
   -4.4991   -0.2732   -3.2768 H   0  0  0  0  0  0  0  0  0  0  0  0
   -2.7512    0.0676   -3.3215 H   0  0  0  0  0  0  0  0  0  0  0  0
   -3.3007    3.4413   -2.8600 H   0  0  0  0  0  0  0  0  0  0  0  0
   -4.5208    2.6438   -3.9339 H   0  0  0  0  0  0  0  0  0  0  0  0
   -2.7883    2.0368   -3.9400 H   0  0  0  0  0  0  0  0  0  0  0  0
   -0.4880    0.8273   -1.1251 H   0  0  0  0  0  0  0  0  0  0  0  0
   -0.7526   -3.4690    0.6672 H   0  0  0  0  0  0  0  0  0  0  0  0
    2.9123   -7.1965    1.7531 H   0  0  0  0  0  0  0  0  0  0  0  0
    3.8155   -6.9136    0.1889 H   0  0  0  0  0  0  0  0  0  0  0  0
    4.5239   -6.4277    1.7599 H   0  0  0  0  0  0  0  0  0  0  0  0
    5.9692    0.0192    1.5435 H   0  0  0  0  0  0  0  0  0  0  0  0
    5.9954    2.3223    0.0915 H   0  0  0  0  0  0  0  0  0  0  0  0
    6.1505    2.4177    1.9238 H   0  0  0  0  0  0  0  0  0  0  0  0
    3.9881    3.7133    0.7527 H   0  0  0  0  0  0  0  0  0  0  0  0
    3.6063   -0.0745    2.6450 H   0  0  0  0  0  0  0  0  0  0  0  0
    4.8750    1.0583    3.3582 H   0  0  0  0  0  0  0  0  0  0  0  0
  1  2  1  0
  2  3  1  0
  3  4  1  0
  4  5  2  0
  5  6  1  0
  6  7  1  0
  7  8  1  0
  8  9  2  0
  9 10  1  0
 10 11  1  0
 11 12  1  0
 12 13  1  0
 13 14  1  0
 13 15  1  0
 13 16  1  0
 16 17  1  0
 17 18  1  0
 17 19  1  0
 10 20  1  0
  6 21  2  0
 21 22  1  0
 22 23  2  0
 23 24  1  0
 24 25  1  0
 24 26  1  0
 26 27  1  0
 26 28  2  0
  2 29  1  0
 29 30  1  0
 30 31  1  0
 31 32  1  0
 32 33  2  0
 32 34  1  0
 28  4  1  0
 34 29  1  0
 20  7  2  0
 28 22  1  0
 17 11  1  0
  1 35  1  0
  1 36  1  0
  1 37  1  0
  2 38  1  6
  5 39  1  0
  8 40  1  0
 11 41  1  0
 12 42  1  0
 12 43  1  0
 14 44  1  0
 14 45  1  0
 14 46  1  0
 15 47  1  0
 15 48  1  0
 15 49  1  0
 18 50  1  0
 18 51  1  0
 18 52  1  0
 19 53  1  0
 19 54  1  0
 19 55  1  0
 20 56  1  0
 21 57  1  0
 25 58  1  0
 25 59  1  0
 25 60  1  0
 29 61  1  1
 30 62  1  0
 30 63  1  0
 31 64  1  0
 34 65  1  0
 34 66  1  0
M  END
$$$$
