
     RDKit          3D

 50 53  0  0  0  0  0  0  0  0999 V2000
   -3.8721   -1.6305    1.6068 O   0  0  0  0  0  0  0  0  0  0  0  0
   -3.5216   -1.0278    0.5287 C   0  0  0  0  0  0  0  0  0  0  0  0
   -2.3228   -1.5594   -0.1107 C   0  0  2  0  0  0  0  0  0  0  0  0
   -1.0813   -1.5119    0.7693 C   0  0  0  0  0  0  0  0  0  0  0  0
    0.0042   -1.7721   -0.2221 C   0  0  2  0  0  0  0  0  0  0  0  0
    1.1818   -0.9944   -0.0850 N   0  0  0  0  0  0  0  0  0  0  0  0
    1.0485    0.4150   -0.2090 C   0  0  0  0  0  0  0  0  0  0  0  0
    2.2588    1.1094    0.4019 C   0  0  0  0  0  0  0  0  0  0  0  0
    3.4536    0.3975   -0.0048 N   0  0  0  0  0  0  0  0  0  0  0  0
    4.6947    0.6061    0.6818 C   0  0  0  0  0  0  0  0  0  0  0  0
    4.7332    1.4622    1.6966 N   0  0  0  0  0  0  0  0  0  0  0  0
    5.8289    1.7440    2.4167 C   0  0  0  0  0  0  0  0  0  0  0  0
    7.0060    1.0853    2.0661 C   0  0  0  0  0  0  0  0  0  0  0  0
    6.9550    0.2024    1.0155 C   0  0  0  0  0  0  0  0  0  0  0  0
    5.8160   -0.0262    0.3421 N   0  0  0  0  0  0  0  0  0  0  0  0
    3.3264   -0.5176   -1.1205 C   0  0  0  0  0  0  0  0  0  0  0  0
    2.3069   -1.5623   -0.7543 C   0  0  0  0  0  0  0  0  0  0  0  0
   -0.6464   -1.6669   -1.5812 C   0  0  0  0  0  0  0  0  0  0  0  0
   -1.8885   -0.9143   -1.3019 N   0  0  0  0  0  0  0  0  0  0  0  0
   -4.3224    0.0473    0.1085 N   0  0  0  0  0  0  0  0  0  0  0  0
   -4.0723    0.8495   -1.0932 C   0  0  0  0  0  0  0  0  0  0  0  0
   -5.4318    1.5189   -1.3670 C   0  0  0  0  0  0  0  0  0  0  0  0
   -5.8471    1.8229    0.0619 C   0  0  0  0  0  0  0  0  0  0  0  0
   -7.1728    2.1415    0.1047 F   0  0  0  0  0  0  0  0  0  0  0  0
   -5.0467    2.8553    0.5150 F   0  0  0  0  0  0  0  0  0  0  0  0
   -5.5139    0.5397    0.7706 C   0  0  0  0  0  0  0  0  0  0  0  0
   -2.4522   -2.6468   -0.3588 H   0  0  0  0  0  0  0  0  0  0  0  0
   -1.1602   -2.3462    1.5194 H   0  0  0  0  0  0  0  0  0  0  0  0
   -0.9970   -0.5868    1.3351 H   0  0  0  0  0  0  0  0  0  0  0  0
    0.3085   -2.8493   -0.1135 H   0  0  0  0  0  0  0  0  0  0  0  0
    0.1760    0.7555    0.3688 H   0  0  0  0  0  0  0  0  0  0  0  0
    0.9530    0.7638   -1.2584 H   0  0  0  0  0  0  0  0  0  0  0  0
    2.2002    1.1770    1.4892 H   0  0  0  0  0  0  0  0  0  0  0  0
    2.3442    2.1335   -0.0345 H   0  0  0  0  0  0  0  0  0  0  0  0
    5.8390    2.4454    3.2406 H   0  0  0  0  0  0  0  0  0  0  0  0
    7.8982    1.2925    2.6266 H   0  0  0  0  0  0  0  0  0  0  0  0
    7.8437   -0.3153    0.7269 H   0  0  0  0  0  0  0  0  0  0  0  0
    2.8907    0.0702   -1.9722 H   0  0  0  0  0  0  0  0  0  0  0  0
    4.2781   -0.9303   -1.4515 H   0  0  0  0  0  0  0  0  0  0  0  0
    2.0057   -2.1753   -1.6480 H   0  0  0  0  0  0  0  0  0  0  0  0
    2.7951   -2.2782   -0.0614 H   0  0  0  0  0  0  0  0  0  0  0  0
   -0.0541   -1.1170   -2.3111 H   0  0  0  0  0  0  0  0  0  0  0  0
   -0.9888   -2.6518   -1.9607 H   0  0  0  0  0  0  0  0  0  0  0  0
   -1.5452    0.0631   -1.1524 H   0  0  0  0  0  0  0  0  0  0  0  0
   -3.8365    0.2570   -1.9750 H   0  0  0  0  0  0  0  0  0  0  0  0
   -3.3150    1.6278   -0.9316 H   0  0  0  0  0  0  0  0  0  0  0  0
   -6.1227    0.7887   -1.7907 H   0  0  0  0  0  0  0  0  0  0  0  0
   -5.2604    2.4175   -1.9593 H   0  0  0  0  0  0  0  0  0  0  0  0
   -5.3539    0.6913    1.8571 H   0  0  0  0  0  0  0  0  0  0  0  0
   -6.3210   -0.2002    0.5789 H   0  0  0  0  0  0  0  0  0  0  0  0
  1  2  2  0
  2  3  1  0
  3  4  1  0
  4  5  1  0
  5  6  1  0
  6  7  1  0
  7  8  1  0
  8  9  1  0
  9 10  1  0
 10 11  2  0
 11 12  1  0
 12 13  2  0
 13 14  1  0
 14 15  2  0
  9 16  1  0
 16 17  1  0
  5 18  1  0
 18 19  1  0
  2 20  1  0
 20 21  1  0
 21 22  1  0
 22 23  1  0
 23 24  1  0
 23 25  1  0
 23 26  1  0
 19  3  1  0
 26 20  1  0
 17  6  1  0
 15 10  1  0
  3 27  1  6
  4 28  1  0
  4 29  1  0
  5 30  1  1
  7 31  1  0
  7 32  1  0
  8 33  1  0
  8 34  1  0
 12 35  1  0
 13 36  1  0
 14 37  1  0
 16 38  1  0
 16 39  1  0
 17 40  1  0
 17 41  1  0
 18 42  1  0
 18 43  1  0
 19 44  1  0
 21 45  1  0
 21 46  1  0
 22 47  1  0
 22 48  1  0
 26 49  1  0
 26 50  1  0
M  END
$$$$
