
     RDKit          3D

 50 52  0  0  0  0  0  0  0  0999 V2000
   -5.2369    1.9296    1.6279 O   0  0  0  0  0  0  0  0  0  0  0  0
   -4.8169    1.6440    0.4829 C   0  0  0  0  0  0  0  0  0  0  0  0
   -5.3751    2.2787   -0.6581 N   0  0  0  0  0  0  0  0  0  0  0  0
   -6.3681    3.2058   -0.5649 O   0  0  0  0  0  0  0  0  0  0  0  0
   -3.7337    0.6392    0.3235 C   0  0  1  0  0  0  0  0  0  0  0  0
   -4.2395   -0.6782    0.9196 C   0  0  0  0  0  0  0  0  0  0  0  0
   -3.2385   -1.7807    0.8027 C   0  0  1  0  0  0  0  0  0  0  0  0
   -3.8428   -3.0451    0.8667 O   0  0  0  0  0  0  0  0  0  0  0  0
   -2.4779   -1.7144   -0.4844 C   0  0  0  0  0  0  0  0  0  0  0  0
   -3.2105   -0.8812   -1.4890 C   0  0  0  0  0  0  0  0  0  0  0  0
   -3.3204    0.4537   -1.0167 N   0  0  0  0  0  0  0  0  0  0  0  0
   -2.2306    1.5689   -1.6656 S   0  0  0  0  0  6  0  0  0  0  0  0
   -2.4640    2.9705   -1.2542 O   0  0  0  0  0  0  0  0  0  0  0  0
   -2.3067    1.5198   -3.1863 O   0  0  0  0  0  0  0  0  0  0  0  0
   -0.5982    1.0677   -1.2571 C   0  0  0  0  0  0  0  0  0  0  0  0
    0.1488    0.2431   -2.1003 C   0  0  0  0  0  0  0  0  0  0  0  0
    1.4181   -0.1351   -1.7627 C   0  0  0  0  0  0  0  0  0  0  0  0
    1.9596    0.3059   -0.5765 C   0  0  0  0  0  0  0  0  0  0  0  0
    3.2465   -0.0850   -0.2473 O   0  0  0  0  0  0  0  0  0  0  0  0
    3.8269    0.3498    0.9586 C   0  0  0  0  0  0  0  0  0  0  0  0
    5.2035   -0.2374    1.0182 C   0  0  0  0  0  0  0  0  0  0  0  0
    6.2695    0.4585    0.4877 C   0  0  0  0  0  0  0  0  0  0  0  0
    7.5517   -0.0477    0.5228 C   0  0  0  0  0  0  0  0  0  0  0  0
    7.7518   -1.2809    1.1065 C   0  0  0  0  0  0  0  0  0  0  0  0
    6.6976   -1.9978    1.6454 C   0  0  0  0  0  0  0  0  0  0  0  0
    6.8907   -3.2214    2.2256 F   0  0  0  0  0  0  0  0  0  0  0  0
    5.4319   -1.4635    1.5935 C   0  0  0  0  0  0  0  0  0  0  0  0
    1.2419    1.1148    0.2622 C   0  0  0  0  0  0  0  0  0  0  0  0
   -0.0387    1.4915   -0.0866 C   0  0  0  0  0  0  0  0  0  0  0  0
   -5.0078    2.0188   -1.5978 H   0  0  0  0  0  0  0  0  0  0  0  0
   -7.1233    2.7645   -0.0882 H   0  0  0  0  0  0  0  0  0  0  0  0
   -2.8577    0.9309    0.9392 H   0  0  0  0  0  0  0  0  0  0  0  0
   -4.4603   -0.5201    1.9965 H   0  0  0  0  0  0  0  0  0  0  0  0
   -5.1489   -0.9683    0.3861 H   0  0  0  0  0  0  0  0  0  0  0  0
   -2.5424   -1.7401    1.6714 H   0  0  0  0  0  0  0  0  0  0  0  0
   -4.1064   -3.3576   -0.0216 H   0  0  0  0  0  0  0  0  0  0  0  0
   -2.3460   -2.7262   -0.9333 H   0  0  0  0  0  0  0  0  0  0  0  0
   -1.4658   -1.2839   -0.2559 H   0  0  0  0  0  0  0  0  0  0  0  0
   -4.1953   -1.3649   -1.6707 H   0  0  0  0  0  0  0  0  0  0  0  0
   -2.6178   -0.8563   -2.4434 H   0  0  0  0  0  0  0  0  0  0  0  0
   -0.3314   -0.0731   -3.0226 H   0  0  0  0  0  0  0  0  0  0  0  0
    1.9857   -0.7780   -2.4318 H   0  0  0  0  0  0  0  0  0  0  0  0
    3.9152    1.4601    0.9861 H   0  0  0  0  0  0  0  0  0  0  0  0
    3.2528   -0.0068    1.8296 H   0  0  0  0  0  0  0  0  0  0  0  0
    6.1165    1.4406    0.0218 H   0  0  0  0  0  0  0  0  0  0  0  0
    8.3779    0.5164    0.0993 H   0  0  0  0  0  0  0  0  0  0  0  0
    8.7544   -1.7111    1.1511 H   0  0  0  0  0  0  0  0  0  0  0  0
    4.5901   -2.0099    2.0108 H   0  0  0  0  0  0  0  0  0  0  0  0
    1.6782    1.4583    1.1976 H   0  0  0  0  0  0  0  0  0  0  0  0
   -0.6076    2.1337    0.5800 H   0  0  0  0  0  0  0  0  0  0  0  0
  1  2  2  0
  2  3  1  0
  3  4  1  0
  2  5  1  0
  5  6  1  0
  6  7  1  0
  7  8  1  0
  7  9  1  0
  9 10  1  0
 10 11  1  0
 11 12  1  0
 12 13  2  0
 12 14  2  0
 12 15  1  0
 15 16  2  0
 16 17  1  0
 17 18  2  0
 18 19  1  0
 19 20  1  0
 20 21  1  0
 21 22  2  0
 22 23  1  0
 23 24  2  0
 24 25  1  0
 25 26  1  0
 25 27  2  0
 18 28  1  0
 28 29  2  0
 11  5  1  0
 29 15  1  0
 27 21  1  0
  3 30  1  0
  4 31  1  0
  5 32  1  1
  6 33  1  0
  6 34  1  0
  7 35  1  1
  8 36  1  0
  9 37  1  0
  9 38  1  0
 10 39  1  0
 10 40  1  0
 16 41  1  0
 17 42  1  0
 20 43  1  0
 20 44  1  0
 22 45  1  0
 23 46  1  0
 24 47  1  0
 27 48  1  0
 28 49  1  0
 29 50  1  0
M  END
$$$$
