
     RDKit          3D

 47 49  0  0  0  0  0  0  0  0999 V2000
    7.4498    0.3586   -0.6943 O   0  0  0  0  0  0  0  0  0  0  0  0
    6.8336   -0.5088   -0.0286 C   0  0  0  0  0  0  0  0  0  0  0  0
    5.4051   -0.4208    0.2371 C   0  0  0  0  0  0  0  0  0  0  0  0
    4.6950    0.5878   -0.2183 C   0  0  0  0  0  0  0  0  0  0  0  0
    3.2636    0.7706   -0.0095 C   0  0  0  0  0  0  0  0  0  0  0  0
    2.4550   -0.0874    0.6928 C   0  0  0  0  0  0  0  0  0  0  0  0
    1.0966    0.1040    0.8803 C   0  0  0  0  0  0  0  0  0  0  0  0
    0.5327    1.2375    0.3176 C   0  0  0  0  0  0  0  0  0  0  0  0
   -0.8738    1.5158    0.4799 C   0  0  0  0  0  0  0  0  0  0  0  0
   -1.8054    0.6593    0.2009 C   0  0  0  0  0  0  0  0  0  0  0  0
   -3.2504    1.0770    0.4365 C   0  0  0  0  0  0  0  0  0  0  0  0
   -3.9290    0.9856   -0.8202 N   0  0  0  0  0  0  0  0  0  0  0  0
   -5.3135    1.3473   -0.7825 C   0  0  0  0  0  0  0  0  0  0  0  0
   -6.2660    0.5755    0.0882 C   0  0  0  0  0  0  0  0  0  0  0  0
   -5.8608    2.0009    0.4721 C   0  0  0  0  0  0  0  0  0  0  0  0
   -1.6018   -0.5977   -0.4824 C   0  0  0  0  0  0  0  0  0  0  0  0
   -0.5456   -0.9440   -1.2708 C   0  0  0  0  0  0  0  0  0  0  0  0
   -0.4718   -2.2495   -1.7709 C   0  0  0  0  0  0  0  0  0  0  0  0
   -1.4100   -3.1962   -1.5095 C   0  0  0  0  0  0  0  0  0  0  0  0
   -1.3595   -4.4622   -1.9810 F   0  0  0  0  0  0  0  0  0  0  0  0
   -2.4660   -2.8254   -0.7163 C   0  0  0  0  0  0  0  0  0  0  0  0
   -2.5875   -1.5718   -0.2026 C   0  0  0  0  0  0  0  0  0  0  0  0
    1.3274    2.1071   -0.3888 C   0  0  0  0  0  0  0  0  0  0  0  0
    2.6755    1.9101   -0.5706 C   0  0  0  0  0  0  0  0  0  0  0  0
    7.5847   -1.6086    0.4729 N   0  0  0  0  0  0  0  0  0  0  0  0
    8.9173   -1.7523    0.2625 O   0  0  0  0  0  0  0  0  0  0  0  0
    4.9122   -1.1821    0.8108 H   0  0  0  0  0  0  0  0  0  0  0  0
    5.2711    1.3266   -0.7973 H   0  0  0  0  0  0  0  0  0  0  0  0
    2.9429   -0.9751    1.1234 H   0  0  0  0  0  0  0  0  0  0  0  0
    0.5201   -0.6170    1.4476 H   0  0  0  0  0  0  0  0  0  0  0  0
   -1.1644    2.5417    0.8733 H   0  0  0  0  0  0  0  0  0  0  0  0
   -3.7460    0.4623    1.1882 H   0  0  0  0  0  0  0  0  0  0  0  0
   -3.2413    2.1446    0.7360 H   0  0  0  0  0  0  0  0  0  0  0  0
   -3.4139    1.4240   -1.6022 H   0  0  0  0  0  0  0  0  0  0  0  0
   -5.7610    1.7568   -1.7315 H   0  0  0  0  0  0  0  0  0  0  0  0
   -5.8970   -0.2648    0.7127 H   0  0  0  0  0  0  0  0  0  0  0  0
   -7.3221    0.4518   -0.2930 H   0  0  0  0  0  0  0  0  0  0  0  0
   -5.1871    2.1293    1.3297 H   0  0  0  0  0  0  0  0  0  0  0  0
   -6.6728    2.7607    0.3674 H   0  0  0  0  0  0  0  0  0  0  0  0
    0.1870   -0.2304   -1.5542 H   0  0  0  0  0  0  0  0  0  0  0  0
    0.3821   -2.4975   -2.3945 H   0  0  0  0  0  0  0  0  0  0  0  0
   -3.2398   -3.5612   -0.4863 H   0  0  0  0  0  0  0  0  0  0  0  0
   -3.4427   -1.3288    0.4199 H   0  0  0  0  0  0  0  0  0  0  0  0
    0.8741    2.9718   -0.8126 H   0  0  0  0  0  0  0  0  0  0  0  0
    3.2897    2.6229   -1.1412 H   0  0  0  0  0  0  0  0  0  0  0  0
    7.0660   -2.3176    1.0199 H   0  0  0  0  0  0  0  0  0  0  0  0
    9.1477   -2.6303   -0.1307 H   0  0  0  0  0  0  0  0  0  0  0  0
  1  2  2  0
  2  3  1  0
  3  4  2  0
  4  5  1  0
  5  6  2  0
  6  7  1  0
  7  8  2  0
  8  9  1  0
  9 10  2  0
 10 11  1  0
 11 12  1  0
 12 13  1  0
 13 14  1  0
 14 15  1  0
 10 16  1  0
 16 17  2  0
 17 18  1  0
 18 19  2  0
 19 20  1  0
 19 21  1  0
 21 22  2  0
  8 23  1  0
 23 24  2  0
  2 25  1  0
 25 26  1  0
 24  5  1  0
 15 13  1  0
 22 16  1  0
  3 27  1  0
  4 28  1  0
  6 29  1  0
  7 30  1  0
  9 31  1  0
 11 32  1  0
 11 33  1  0
 12 34  1  0
 13 35  1  0
 14 36  1  0
 14 37  1  0
 15 38  1  0
 15 39  1  0
 17 40  1  0
 18 41  1  0
 21 42  1  0
 22 43  1  0
 23 44  1  0
 24 45  1  0
 25 46  1  0
 26 47  1  0
M  END
$$$$
