
     RDKit          3D

 44 44  0  0  0  0  0  0  0  0999 V2000
   -3.5838    1.2518    0.6309 C   0  0  0  0  0  0  0  0  0  0  0  0
   -3.1081    0.0252   -0.0971 C   0  0  0  0  0  0  0  0  0  0  0  0
   -1.7120    0.2447   -0.6966 C   0  0  0  0  0  0  0  0  0  0  0  0
   -1.8481    1.4055   -1.6520 C   0  0  0  0  0  0  0  0  0  0  0  0
   -2.8606    1.0375   -2.7167 C   0  0  0  0  0  0  0  0  0  0  0  0
   -0.8570    0.4673    0.3409 O   0  0  0  0  0  0  0  0  0  0  0  0
    0.1443   -0.4573    0.5028 C   0  0  2  0  0  0  0  0  0  0  0  0
    0.0759   -1.1710    1.8110 C   0  0  0  0  0  0  0  0  0  0  0  0
    1.0209   -2.0806    2.0048 C   0  0  0  0  0  0  0  0  0  0  0  0
    1.0627   -2.8437    3.2392 C   0  0  0  0  0  0  0  0  0  0  0  0
    2.0076   -3.6985    3.3403 O   0  0  0  0  0  0  0  0  0  0  0  0
    0.1390   -2.6514    4.2315 O   0  0  0  0  0  0  0  0  0  0  0  0
    2.0044   -2.2551    0.9003 C   0  0  0  0  0  0  0  0  0  0  0  0
    2.6167   -0.8852    0.6741 C   0  0  2  0  0  0  0  0  0  0  0  0
    3.3278   -0.4892    1.8779 N   0  0  0  0  0  0  0  0  0  0  0  0
    1.5255    0.0994    0.3291 C   0  0  1  0  0  0  0  0  0  0  0  0
    1.7657    0.5023   -1.0588 N   0  0  0  0  0  0  0  0  0  0  0  0
    2.0731    1.8504   -1.3847 C   0  0  0  0  0  0  0  0  0  0  0  0
    2.3229    2.2918   -2.7895 C   0  0  0  0  0  0  0  0  0  0  0  0
    2.1245    2.6654   -0.4099 O   0  0  0  0  0  0  0  0  0  0  0  0
   -4.1530    1.9447   -0.0200 H   0  0  0  0  0  0  0  0  0  0  0  0
   -4.2920    0.9189    1.4185 H   0  0  0  0  0  0  0  0  0  0  0  0
   -2.7553    1.7794    1.1694 H   0  0  0  0  0  0  0  0  0  0  0  0
   -3.0322   -0.7939    0.6686 H   0  0  0  0  0  0  0  0  0  0  0  0
   -3.8356   -0.2214   -0.8818 H   0  0  0  0  0  0  0  0  0  0  0  0
   -1.4992   -0.6570   -1.2889 H   0  0  0  0  0  0  0  0  0  0  0  0
   -0.9018    1.6503   -2.1683 H   0  0  0  0  0  0  0  0  0  0  0  0
   -2.1475    2.3446   -1.1167 H   0  0  0  0  0  0  0  0  0  0  0  0
   -3.8881    1.3653   -2.4619 H   0  0  0  0  0  0  0  0  0  0  0  0
   -2.8892   -0.0445   -2.9023 H   0  0  0  0  0  0  0  0  0  0  0  0
   -2.5703    1.5228   -3.6823 H   0  0  0  0  0  0  0  0  0  0  0  0
    0.0075   -1.2199   -0.3092 H   0  0  0  0  0  0  0  0  0  0  0  0
   -0.6901   -0.9621    2.5504 H   0  0  0  0  0  0  0  0  0  0  0  0
   -0.0792   -3.4232    4.8540 H   0  0  0  0  0  0  0  0  0  0  0  0
    2.7704   -2.9947    1.2191 H   0  0  0  0  0  0  0  0  0  0  0  0
    1.4923   -2.5798   -0.0211 H   0  0  0  0  0  0  0  0  0  0  0  0
    3.3564   -1.0114   -0.1520 H   0  0  0  0  0  0  0  0  0  0  0  0
    2.9703    0.3977    2.2848 H   0  0  0  0  0  0  0  0  0  0  0  0
    3.4101   -1.2640    2.5634 H   0  0  0  0  0  0  0  0  0  0  0  0
    1.6213    0.9689    1.0128 H   0  0  0  0  0  0  0  0  0  0  0  0
    1.7150   -0.1934   -1.8309 H   0  0  0  0  0  0  0  0  0  0  0  0
    2.1059    3.3666   -2.8429 H   0  0  0  0  0  0  0  0  0  0  0  0
    3.3655    2.0834   -3.1107 H   0  0  0  0  0  0  0  0  0  0  0  0
    1.6773    1.7132   -3.5063 H   0  0  0  0  0  0  0  0  0  0  0  0
  1  2  1  0
  2  3  1  0
  3  4  1  0
  4  5  1  0
  3  6  1  0
  6  7  1  0
  7  8  1  0
  8  9  2  0
  9 10  1  0
 10 11  2  0
 10 12  1  0
  9 13  1  0
 13 14  1  0
 14 15  1  0
 14 16  1  0
 16 17  1  0
 17 18  1  0
 18 19  1  0
 18 20  2  0
 16  7  1  0
  1 21  1  0
  1 22  1  0
  1 23  1  0
  2 24  1  0
  2 25  1  0
  3 26  1  0
  4 27  1  0
  4 28  1  0
  5 29  1  0
  5 30  1  0
  5 31  1  0
  7 32  1  6
  8 33  1  0
 12 34  1  0
 13 35  1  0
 13 36  1  0
 14 37  1  6
 15 38  1  0
 15 39  1  0
 16 40  1  1
 17 41  1  0
 19 42  1  0
 19 43  1  0
 19 44  1  0
M  END
$$$$
