
     RDKit          3D

 52 54  0  0  0  0  0  0  0  0999 V2000
   -2.9724   -3.7316    1.2927 C   0  0  0  0  0  0  0  0  0  0  0  0
   -2.0866   -2.5593    1.6015 C   0  0  0  0  0  0  0  0  0  0  0  0
   -2.8819   -1.3478    2.0225 C   0  0  2  0  0  0  0  0  0  0  0  0
   -3.8195   -0.9465    0.9165 C   0  0  0  0  0  0  0  0  0  0  0  0
   -4.5494    0.1782    1.2496 O   0  0  0  0  0  0  0  0  0  0  0  0
   -1.9560   -0.2621    2.2866 N   0  0  0  0  0  0  0  0  0  0  0  0
   -1.0822    0.2510    1.2924 C   0  0  0  0  0  0  0  0  0  0  0  0
    0.1378   -0.2330    1.0841 N   0  0  0  0  0  0  0  0  0  0  0  0
    0.9726    0.2573    0.1347 C   0  0  0  0  0  0  0  0  0  0  0  0
    2.2664   -0.2891   -0.0550 N   0  0  0  0  0  0  0  0  0  0  0  0
    2.7297   -1.3865    0.7641 C   0  0  0  0  0  0  0  0  0  0  0  0
    4.0936   -1.7930    0.3922 C   0  0  0  0  0  0  0  0  0  0  0  0
    5.1839   -1.2117    1.0024 C   0  0  0  0  0  0  0  0  0  0  0  0
    6.4710   -1.6036    0.6445 C   0  0  0  0  0  0  0  0  0  0  0  0
    6.6646   -2.5702   -0.3169 C   0  0  0  0  0  0  0  0  0  0  0  0
    5.5610   -3.1318   -0.9078 C   0  0  0  0  0  0  0  0  0  0  0  0
    4.2626   -2.7726   -0.5829 C   0  0  0  0  0  0  0  0  0  0  0  0
    0.4977    1.3028   -0.6260 C   0  0  0  0  0  0  0  0  0  0  0  0
    1.0255    2.0202   -1.6259 N   0  0  0  0  0  0  0  0  0  0  0  0
    0.1198    2.9409   -2.0226 C   0  0  0  0  0  0  0  0  0  0  0  0
   -1.0085    2.8371   -1.2886 N   0  0  0  0  0  0  0  0  0  0  0  0
   -2.1964    3.6594   -1.4305 C   0  0  0  0  0  0  0  0  0  0  0  0
   -2.0630    4.9916   -0.7665 C   0  0  0  0  0  0  0  0  0  0  0  0
   -2.4954    3.8151   -2.9213 C   0  0  0  0  0  0  0  0  0  0  0  0
   -0.7750    1.8308   -0.4315 C   0  0  0  0  0  0  0  0  0  0  0  0
   -1.5315    1.2799    0.5334 N   0  0  0  0  0  0  0  0  0  0  0  0
   -3.2208   -3.7738    0.1987 H   0  0  0  0  0  0  0  0  0  0  0  0
   -3.8997   -3.7147    1.9013 H   0  0  0  0  0  0  0  0  0  0  0  0
   -2.4236   -4.6629    1.5737 H   0  0  0  0  0  0  0  0  0  0  0  0
   -1.4324   -2.8408    2.4584 H   0  0  0  0  0  0  0  0  0  0  0  0
   -1.4343   -2.3632    0.7277 H   0  0  0  0  0  0  0  0  0  0  0  0
   -3.4452   -1.6211    2.9333 H   0  0  0  0  0  0  0  0  0  0  0  0
   -3.2218   -0.7252    0.0169 H   0  0  0  0  0  0  0  0  0  0  0  0
   -4.4480   -1.8265    0.6703 H   0  0  0  0  0  0  0  0  0  0  0  0
   -5.2548    0.3360    0.5816 H   0  0  0  0  0  0  0  0  0  0  0  0
   -1.9347    0.1490    3.2316 H   0  0  0  0  0  0  0  0  0  0  0  0
    2.8895    0.0904   -0.7786 H   0  0  0  0  0  0  0  0  0  0  0  0
    2.7020   -1.0273    1.8168 H   0  0  0  0  0  0  0  0  0  0  0  0
    2.0008   -2.2398    0.6867 H   0  0  0  0  0  0  0  0  0  0  0  0
    5.0117   -0.4542    1.7551 H   0  0  0  0  0  0  0  0  0  0  0  0
    7.3177   -1.1571    1.1133 H   0  0  0  0  0  0  0  0  0  0  0  0
    7.6562   -2.9097   -0.6304 H   0  0  0  0  0  0  0  0  0  0  0  0
    5.7313   -3.8994   -1.6709 H   0  0  0  0  0  0  0  0  0  0  0  0
    3.4059   -3.2215   -1.0547 H   0  0  0  0  0  0  0  0  0  0  0  0
    0.2697    3.6640   -2.8165 H   0  0  0  0  0  0  0  0  0  0  0  0
   -3.0768    3.1359   -0.9710 H   0  0  0  0  0  0  0  0  0  0  0  0
   -1.6738    5.7465   -1.4941 H   0  0  0  0  0  0  0  0  0  0  0  0
   -3.0796    5.3247   -0.4161 H   0  0  0  0  0  0  0  0  0  0  0  0
   -1.3744    4.9227    0.1088 H   0  0  0  0  0  0  0  0  0  0  0  0
   -2.5414    2.7889   -3.3365 H   0  0  0  0  0  0  0  0  0  0  0  0
   -1.6475    4.3928   -3.3475 H   0  0  0  0  0  0  0  0  0  0  0  0
   -3.4448    4.3609   -2.9981 H   0  0  0  0  0  0  0  0  0  0  0  0
  1  2  1  0
  2  3  1  0
  3  4  1  0
  4  5  1  0
  3  6  1  0
  6  7  1  0
  7  8  2  0
  8  9  1  0
  9 10  1  0
 10 11  1  0
 11 12  1  0
 12 13  2  0
 13 14  1  0
 14 15  2  0
 15 16  1  0
 16 17  2  0
  9 18  2  0
 18 19  1  0
 19 20  2  0
 20 21  1  0
 21 22  1  0
 22 23  1  0
 22 24  1  0
 21 25  1  0
 25 26  2  0
 26  7  1  0
 17 12  1  0
 25 18  1  0
  1 27  1  0
  1 28  1  0
  1 29  1  0
  2 30  1  0
  2 31  1  0
  3 32  1  1
  4 33  1  0
  4 34  1  0
  5 35  1  0
  6 36  1  0
 10 37  1  0
 11 38  1  0
 11 39  1  0
 13 40  1  0
 14 41  1  0
 15 42  1  0
 16 43  1  0
 17 44  1  0
 20 45  1  0
 22 46  1  0
 23 47  1  0
 23 48  1  0
 23 49  1  0
 24 50  1  0
 24 51  1  0
 24 52  1  0
M  END
$$$$
