
     RDKit          3D

 75 78  0  0  0  0  0  0  0  0999 V2000
    5.3823    1.7613   -1.7516 C   0  0  2  0  0  0  0  0  0  0  0  0
    5.1011    2.1753   -0.3272 C   0  0  0  0  0  0  0  0  0  0  0  0
    5.3472    3.6486   -0.3441 C   0  0  0  0  0  0  0  0  0  0  0  0
    5.2193    4.0758   -1.6637 O   0  0  0  0  0  0  0  0  0  0  0  0
    5.6625    3.0402   -2.4713 C   0  0  2  0  0  0  0  0  0  0  0  0
    4.8666    3.0378   -3.6208 O   0  0  0  0  0  0  0  0  0  0  0  0
    3.6521    2.5817   -3.1024 C   0  0  0  0  0  0  0  0  0  0  0  0
    4.1187    1.2713   -2.4368 C   0  0  2  0  0  0  0  0  0  0  0  0
    3.1329    0.8985   -1.5000 O   0  0  0  0  0  0  0  0  0  0  0  0
    2.4783   -0.3099   -1.6532 C   0  0  0  0  0  0  0  0  0  0  0  0
    2.8023   -1.0300   -2.6371 O   0  0  0  0  0  0  0  0  0  0  0  0
    1.4648   -0.6755   -0.6836 N   0  0  0  0  0  0  0  0  0  0  0  0
    0.6695   -1.9151   -0.6965 C   0  0  1  0  0  0  0  0  0  0  0  0
    1.0172   -2.7195    0.4860 C   0  0  0  0  0  0  0  0  0  0  0  0
    0.3102   -4.0125    0.6311 C   0  0  0  0  0  0  0  0  0  0  0  0
    0.8393   -5.1399   -0.0161 C   0  0  0  0  0  0  0  0  0  0  0  0
    0.3078   -6.4169    0.0280 C   0  0  0  0  0  0  0  0  0  0  0  0
   -0.8288   -6.6143    0.7604 C   0  0  0  0  0  0  0  0  0  0  0  0
   -1.3777   -5.5470    1.4065 C   0  0  0  0  0  0  0  0  0  0  0  0
   -0.8413   -4.2938    1.3527 C   0  0  0  0  0  0  0  0  0  0  0  0
   -0.7429   -1.6391   -1.0109 C   0  0  2  0  0  0  0  0  0  0  0  0
   -0.6848   -1.0300   -2.3137 O   0  0  0  0  0  0  0  0  0  0  0  0
   -1.5664   -0.8067   -0.1129 C   0  0  0  0  0  0  0  0  0  0  0  0
   -1.1808    0.4928    0.2063 N   0  0  0  0  0  0  0  0  0  0  0  0
   -1.1730    1.5189   -0.7358 C   0  0  0  0  0  0  0  0  0  0  0  0
   -2.4566    2.1909   -1.0876 C   0  0  0  0  0  0  0  0  0  0  0  0
   -2.0843    3.2522   -2.1377 C   0  0  0  0  0  0  0  0  0  0  0  0
   -3.4798    1.3237   -1.7474 C   0  0  0  0  0  0  0  0  0  0  0  0
   -0.9271    0.9061    1.8203 S   0  0  0  0  0  0  0  0  0  0  0  0
    0.1996    0.1767    2.4657 O   0  0  0  0  0  0  0  0  0  0  0  0
   -0.5611    2.3730    1.8838 O   0  0  0  0  0  0  0  0  0  0  0  0
   -2.3992    0.7210    2.7466 C   0  0  0  0  0  0  0  0  0  0  0  0
   -3.2887    1.8002    2.8383 C   0  0  0  0  0  0  0  0  0  0  0  0
   -4.4741    1.7511    3.5464 C   0  0  0  0  0  0  0  0  0  0  0  0
   -4.7724    0.5486    4.1939 C   0  0  0  0  0  0  0  0  0  0  0  0
   -6.0063    0.5661    4.9038 N   0  0  0  0  0  0  0  0  0  0  0  0
   -3.9191   -0.5394    4.1267 C   0  0  0  0  0  0  0  0  0  0  0  0
   -2.7292   -0.4702    3.4073 C   0  0  0  0  0  0  0  0  0  0  0  0
    6.2295    1.0745   -1.8535 H   0  0  0  0  0  0  0  0  0  0  0  0
    5.9277    1.7030    0.2876 H   0  0  0  0  0  0  0  0  0  0  0  0
    4.1018    1.9102    0.0418 H   0  0  0  0  0  0  0  0  0  0  0  0
    4.5272    4.1442    0.2369 H   0  0  0  0  0  0  0  0  0  0  0  0
    6.3036    3.9673    0.1176 H   0  0  0  0  0  0  0  0  0  0  0  0
    6.7012    3.1455   -2.7970 H   0  0  0  0  0  0  0  0  0  0  0  0
    2.9050    2.3659   -3.8845 H   0  0  0  0  0  0  0  0  0  0  0  0
    3.2665    3.2387   -2.2892 H   0  0  0  0  0  0  0  0  0  0  0  0
    4.3055    0.5581   -3.2390 H   0  0  0  0  0  0  0  0  0  0  0  0
    1.3160    0.0197    0.0618 H   0  0  0  0  0  0  0  0  0  0  0  0
    1.0428   -2.5372   -1.5972 H   0  0  0  0  0  0  0  0  0  0  0  0
    2.1122   -2.9992    0.3708 H   0  0  0  0  0  0  0  0  0  0  0  0
    0.9999   -2.1920    1.4630 H   0  0  0  0  0  0  0  0  0  0  0  0
    1.7486   -4.9908   -0.6050 H   0  0  0  0  0  0  0  0  0  0  0  0
    0.8208   -7.2006   -0.5234 H   0  0  0  0  0  0  0  0  0  0  0  0
   -1.2586   -7.6050    0.8071 H   0  0  0  0  0  0  0  0  0  0  0  0
   -2.2895   -5.6387    2.0115 H   0  0  0  0  0  0  0  0  0  0  0  0
   -1.2774   -3.4552    1.8717 H   0  0  0  0  0  0  0  0  0  0  0  0
   -1.2366   -2.6434   -1.1956 H   0  0  0  0  0  0  0  0  0  0  0  0
   -0.3185   -1.6749   -2.9641 H   0  0  0  0  0  0  0  0  0  0  0  0
   -1.6830   -1.3785    0.8501 H   0  0  0  0  0  0  0  0  0  0  0  0
   -2.6354   -0.8548   -0.5284 H   0  0  0  0  0  0  0  0  0  0  0  0
   -0.7309    1.1777   -1.6913 H   0  0  0  0  0  0  0  0  0  0  0  0
   -0.4835    2.3234   -0.3790 H   0  0  0  0  0  0  0  0  0  0  0  0
   -2.9541    2.7476   -0.2778 H   0  0  0  0  0  0  0  0  0  0  0  0
   -2.8766    3.3890   -2.8868 H   0  0  0  0  0  0  0  0  0  0  0  0
   -1.1588    3.0008   -2.6803 H   0  0  0  0  0  0  0  0  0  0  0  0
   -1.8810    4.2355   -1.6512 H   0  0  0  0  0  0  0  0  0  0  0  0
   -4.2248    0.8895   -1.0309 H   0  0  0  0  0  0  0  0  0  0  0  0
   -3.0577    0.5848   -2.4379 H   0  0  0  0  0  0  0  0  0  0  0  0
   -4.1136    2.0005   -2.3954 H   0  0  0  0  0  0  0  0  0  0  0  0
   -3.0211    2.7105    2.3225 H   0  0  0  0  0  0  0  0  0  0  0  0
   -5.0967    2.6266    3.5626 H   0  0  0  0  0  0  0  0  0  0  0  0
   -6.7803    0.6537    4.2134 H   0  0  0  0  0  0  0  0  0  0  0  0
   -6.0604    0.4994    5.9466 H   0  0  0  0  0  0  0  0  0  0  0  0
   -4.2003   -1.4473    4.6500 H   0  0  0  0  0  0  0  0  0  0  0  0
   -2.0477   -1.3005    3.3392 H   0  0  0  0  0  0  0  0  0  0  0  0
  1  2  1  0
  2  3  1  0
  3  4  1  0
  4  5  1  0
  5  6  1  0
  6  7  1  0
  7  8  1  0
  8  9  1  0
  9 10  1  0
 10 11  2  0
 10 12  1  0
 12 13  1  0
 13 14  1  0
 14 15  1  0
 15 16  2  0
 16 17  1  0
 17 18  2  0
 18 19  1  0
 19 20  2  0
 13 21  1  0
 21 22  1  0
 21 23  1  0
 23 24  1  0
 24 25  1  0
 25 26  1  0
 26 27  1  0
 26 28  1  0
 24 29  1  0
 29 30  2  0
 29 31  2  0
 29 32  1  0
 32 33  2  0
 33 34  1  0
 34 35  2  0
 35 36  1  0
 35 37  1  0
 37 38  2  0
  5  1  1  0
 20 15  1  0
 38 32  1  0
  8  1  1  0
  1 39  1  1
  2 40  1  0
  2 41  1  0
  3 42  1  0
  3 43  1  0
  5 44  1  6
  7 45  1  0
  7 46  1  0
  8 47  1  6
 12 48  1  0
 13 49  1  6
 14 50  1  0
 14 51  1  0
 16 52  1  0
 17 53  1  0
 18 54  1  0
 19 55  1  0
 20 56  1  0
 21 57  1  6
 22 58  1  0
 23 59  1  0
 23 60  1  0
 25 61  1  0
 25 62  1  0
 26 63  1  0
 27 64  1  0
 27 65  1  0
 27 66  1  0
 28 67  1  0
 28 68  1  0
 28 69  1  0
 33 70  1  0
 34 71  1  0
 36 72  1  0
 36 73  1  0
 37 74  1  0
 38 75  1  0
M  END
$$$$
