
     RDKit          3D

 43 47  0  0  0  0  0  0  0  0999 V2000
   -1.1361   -3.9615    0.8796 O   0  0  0  0  0  0  0  0  0  0  0  0
   -0.6185   -2.8365    0.6467 C   0  0  0  0  0  0  0  0  0  0  0  0
    0.7044   -2.6078    0.6980 N   0  0  0  0  0  0  0  0  0  0  0  0
    1.2604   -1.4027    0.4488 C   0  0  0  0  0  0  0  0  0  0  0  0
    2.6272   -1.1799    0.5024 C   0  0  0  0  0  0  0  0  0  0  0  0
    3.1924    0.0720    0.2399 C   0  0  0  0  0  0  0  0  0  0  0  0
    4.6368    0.2492    0.3079 C   0  0  0  0  0  0  0  0  0  0  0  0
    5.1911    1.4538    0.6831 C   0  0  0  0  0  0  0  0  0  0  0  0
    6.5758    1.6314    0.7501 C   0  0  0  0  0  0  0  0  0  0  0  0
    7.4145    0.5901    0.4376 C   0  0  0  0  0  0  0  0  0  0  0  0
    6.8830   -0.6221    0.0599 C   0  0  0  0  0  0  0  0  0  0  0  0
    5.5107   -0.7644    0.0036 C   0  0  0  0  0  0  0  0  0  0  0  0
    2.3210    1.0874   -0.0784 C   0  0  0  0  0  0  0  0  0  0  0  0
    0.9396    0.8779   -0.1369 C   0  0  0  0  0  0  0  0  0  0  0  0
    0.4140   -0.3628    0.1259 C   0  0  0  0  0  0  0  0  0  0  0  0
   -0.9599   -0.5362    0.0575 C   0  0  0  0  0  0  0  0  0  0  0  0
   -1.9903    0.2593   -0.2213 N   0  0  0  0  0  0  0  0  0  0  0  0
   -3.1745   -0.4148   -0.1528 C   0  0  0  0  0  0  0  0  0  0  0  0
   -4.4865    0.1196   -0.4820 C   0  0  0  0  0  0  0  0  0  0  0  0
   -5.5246   -0.7012   -0.8364 C   0  0  0  0  0  0  0  0  0  0  0  0
   -5.2895   -2.4245   -0.9701 Cl  0  0  0  0  0  0  0  0  0  0  0  0
   -6.8109   -0.2265   -1.1437 C   0  0  0  0  0  0  0  0  0  0  0  0
   -7.0654    1.1120   -1.0975 C   0  0  0  0  0  0  0  0  0  0  0  0
   -6.0556    1.9631   -0.7495 C   0  0  0  0  0  0  0  0  0  0  0  0
   -4.7689    1.4633   -0.4415 C   0  0  0  0  0  0  0  0  0  0  0  0
   -3.8375    2.4532   -0.0940 N   0  0  0  0  0  4  0  0  0  0  0  0
   -3.9137    3.6165   -0.6071 O   0  0  0  0  0  0  0  0  0  0  0  0
   -2.8059    2.2726    0.7813 O   0  0  0  0  0  1  0  0  0  0  0  0
   -2.8182   -1.6534    0.1801 N   0  0  0  0  0  0  0  0  0  0  0  0
   -1.4756   -1.7908    0.3226 C   0  0  0  0  0  0  0  0  0  0  0  0
    1.3573   -3.3922    0.9457 H   0  0  0  0  0  0  0  0  0  0  0  0
    3.3003   -1.9834    0.7540 H   0  0  0  0  0  0  0  0  0  0  0  0
    4.5938    2.3105    0.9424 H   0  0  0  0  0  0  0  0  0  0  0  0
    7.0047    2.5899    1.0487 H   0  0  0  0  0  0  0  0  0  0  0  0
    8.4949    0.6577    0.4701 H   0  0  0  0  0  0  0  0  0  0  0  0
    7.5463   -1.4396   -0.1865 H   0  0  0  0  0  0  0  0  0  0  0  0
    5.1313   -1.7319   -0.2986 H   0  0  0  0  0  0  0  0  0  0  0  0
    2.7134    2.0822   -0.2914 H   0  0  0  0  0  0  0  0  0  0  0  0
    0.2621    1.6769   -0.3831 H   0  0  0  0  0  0  0  0  0  0  0  0
   -7.5757   -0.9341   -1.4144 H   0  0  0  0  0  0  0  0  0  0  0  0
   -8.0647    1.5089   -1.3382 H   0  0  0  0  0  0  0  0  0  0  0  0
   -6.2703    3.0224   -0.7178 H   0  0  0  0  0  0  0  0  0  0  0  0
   -3.4323   -2.4861    0.3554 H   0  0  0  0  0  0  0  0  0  0  0  0
  1  2  2  0
  2  3  1  0
  3  4  1  0
  4  5  2  0
  5  6  1  0
  6  7  1  0
  7  8  2  0
  8  9  1  0
  9 10  2  0
 10 11  1  0
 11 12  2  0
  6 13  2  0
 13 14  1  0
 14 15  2  0
 15 16  1  0
 16 17  1  0
 17 18  2  0
 18 19  1  0
 19 20  2  0
 20 21  1  0
 20 22  1  0
 22 23  2  0
 23 24  1  0
 24 25  2  0
 25 26  1  0
 26 27  2  0
 26 28  1  0
 18 29  1  0
 29 30  1  0
 30  2  1  0
 15  4  1  0
 30 16  2  0
 12  7  1  0
 25 19  1  0
  3 31  1  0
  5 32  1  0
  8 33  1  0
  9 34  1  0
 10 35  1  0
 11 36  1  0
 12 37  1  0
 13 38  1  0
 14 39  1  0
 22 40  1  0
 23 41  1  0
 24 42  1  0
 29 43  1  0
M  CHG  2  26   1  28  -1
M  END
$$$$
