
     RDKit          3D

 43 47  0  0  0  0  0  0  0  0999 V2000
    0.3252    1.9021    1.0051 C   0  0  2  0  0  0  0  0  0  0  0  0
    1.6017    1.3781    1.4564 O   0  0  0  0  0  0  0  0  0  0  0  0
    1.7968    0.1941    0.7098 C   0  0  0  0  0  0  0  0  0  0  0  0
    2.8613   -0.6302    0.3278 C   0  0  0  0  0  0  0  0  0  0  0  0
    4.1210   -0.2504    0.7674 O   0  0  0  0  0  0  0  0  0  0  0  0
    5.2938   -0.9617    0.4760 C   0  0  0  0  0  0  0  0  0  0  0  0
    2.6192   -1.7655   -0.4557 C   0  0  0  0  0  0  0  0  0  0  0  0
    1.3204   -2.0925   -0.8668 C   0  0  0  0  0  0  0  0  0  0  0  0
    0.2198   -1.3102   -0.5176 C   0  0  0  0  0  0  0  0  0  0  0  0
    0.5814   -0.2464    0.2379 C   0  0  0  0  0  0  0  0  0  0  0  0
   -0.4865    0.6752    0.7021 C   0  0  1  0  0  0  0  0  0  0  0  0
   -1.1213    0.1072    1.9185 C   0  0  0  0  0  0  0  0  0  0  0  0
   -2.4737   -0.4535    1.7917 C   0  0  0  0  0  0  0  0  0  0  0  0
   -2.8399   -1.0122    0.5392 N   0  0  0  0  0  0  0  0  0  0  0  0
   -4.2518   -0.9520    0.3053 C   0  0  0  0  0  0  0  0  0  0  0  0
   -2.0876   -0.5704   -0.5922 C   0  0  2  0  0  0  0  0  0  0  0  0
   -1.1382   -1.6695   -0.9778 C   0  0  0  0  0  0  0  0  0  0  0  0
   -1.4911    0.7727   -0.3755 C   0  0  2  0  0  0  0  0  0  0  0  0
   -0.9317    1.4077   -1.5707 C   0  0  0  0  0  0  0  0  0  0  0  0
   -0.0252    2.3941   -1.4072 C   0  0  0  0  0  0  0  0  0  0  0  0
    0.4519    2.8885   -0.0882 C   0  0  2  0  0  0  0  0  0  0  0  0
    1.8027    3.2310   -0.2882 O   0  0  0  0  0  0  0  0  0  0  0  0
   -0.1057    2.3895    1.9000 H   0  0  0  0  0  0  0  0  0  0  0  0
    6.1740   -0.3458    0.7132 H   0  0  0  0  0  0  0  0  0  0  0  0
    5.3286   -1.9563    0.9601 H   0  0  0  0  0  0  0  0  0  0  0  0
    5.3205   -1.1661   -0.6174 H   0  0  0  0  0  0  0  0  0  0  0  0
    3.4881   -2.3806   -0.7294 H   0  0  0  0  0  0  0  0  0  0  0  0
    1.2270   -2.9862   -1.4693 H   0  0  0  0  0  0  0  0  0  0  0  0
   -1.1376    0.9488    2.6769 H   0  0  0  0  0  0  0  0  0  0  0  0
   -0.3898   -0.6147    2.3881 H   0  0  0  0  0  0  0  0  0  0  0  0
   -3.2537    0.2864    2.0769 H   0  0  0  0  0  0  0  0  0  0  0  0
   -2.5692   -1.2715    2.5579 H   0  0  0  0  0  0  0  0  0  0  0  0
   -4.6830    0.0688    0.3032 H   0  0  0  0  0  0  0  0  0  0  0  0
   -4.7811   -1.5615    1.0655 H   0  0  0  0  0  0  0  0  0  0  0  0
   -4.4776   -1.4219   -0.6876 H   0  0  0  0  0  0  0  0  0  0  0  0
   -2.8145   -0.4528   -1.4540 H   0  0  0  0  0  0  0  0  0  0  0  0
   -1.1051   -1.7256   -2.0921 H   0  0  0  0  0  0  0  0  0  0  0  0
   -1.4867   -2.6303   -0.5389 H   0  0  0  0  0  0  0  0  0  0  0  0
   -2.3243    1.4185    0.0041 H   0  0  0  0  0  0  0  0  0  0  0  0
   -1.2445    1.0857   -2.5400 H   0  0  0  0  0  0  0  0  0  0  0  0
    0.3522    2.8250   -2.3367 H   0  0  0  0  0  0  0  0  0  0  0  0
   -0.0456    3.8489    0.1813 H   0  0  0  0  0  0  0  0  0  0  0  0
    2.3801    2.6057    0.1853 H   0  0  0  0  0  0  0  0  0  0  0  0
  1  2  1  0
  2  3  1  0
  3  4  2  0
  4  5  1  0
  5  6  1  0
  4  7  1  0
  7  8  2  0
  8  9  1  0
  9 10  2  0
 10 11  1  0
 11 12  1  1
 12 13  1  0
 13 14  1  0
 14 15  1  0
 14 16  1  0
 16 17  1  0
 16 18  1  0
 18 19  1  0
 19 20  2  0
 20 21  1  0
 21 22  1  0
 11  1  1  0
 18 11  1  0
 21  1  1  0
 10  3  1  0
 17  9  1  0
  1 23  1  1
  6 24  1  0
  6 25  1  0
  6 26  1  0
  7 27  1  0
  8 28  1  0
 12 29  1  0
 12 30  1  0
 13 31  1  0
 13 32  1  0
 15 33  1  0
 15 34  1  0
 15 35  1  0
 16 36  1  6
 17 37  1  0
 17 38  1  0
 18 39  1  1
 19 40  1  0
 20 41  1  0
 21 42  1  1
 22 43  1  0
M  END
$$$$
