
     RDKit          3D

 55 57  0  0  0  0  0  0  0  0999 V2000
    2.2201   -1.3194   -1.5762 C   0  0  0  0  0  0  0  0  0  0  0  0
    1.8651    0.0862   -1.4712 N   0  0  0  0  0  0  0  0  0  0  0  0
    2.8744    1.0413   -1.7998 C   0  0  0  0  0  0  0  0  0  0  0  0
    4.0113    0.8437   -0.8586 C   0  0  0  0  0  0  0  0  0  0  0  0
    4.0386    1.5427    0.3398 C   0  0  0  0  0  0  0  0  0  0  0  0
    5.0473    1.3967    1.2237 N   0  0  0  0  0  0  0  0  0  0  0  0
    6.0750    0.5618    0.9776 C   0  0  0  0  0  0  0  0  0  0  0  0
    7.0950    0.3893    1.8278 N   0  0  0  0  0  0  0  0  0  0  0  0
    8.1356   -0.4514    1.5838 C   0  0  0  0  0  0  0  0  0  0  0  0
    9.1987   -0.6027    2.5131 N   0  0  0  0  0  0  0  0  0  0  0  0
    8.1054   -1.1270    0.4211 N   0  0  0  0  0  0  0  0  0  0  0  0
    7.1058   -0.9895   -0.4647 C   0  0  0  0  0  0  0  0  0  0  0  0
    7.0799   -1.7120   -1.7012 N   0  0  0  0  0  0  0  0  0  0  0  0
    6.0389   -0.1276   -0.2151 C   0  0  0  0  0  0  0  0  0  0  0  0
    5.0387    0.0106   -1.1021 N   0  0  0  0  0  0  0  0  0  0  0  0
    0.5509    0.4147   -1.0517 C   0  0  0  0  0  0  0  0  0  0  0  0
    0.1145    1.7107   -0.9141 C   0  0  0  0  0  0  0  0  0  0  0  0
   -1.1588    2.0027   -0.5084 C   0  0  0  0  0  0  0  0  0  0  0  0
   -2.0829    1.0184   -0.2125 C   0  0  0  0  0  0  0  0  0  0  0  0
   -3.4378    1.3794    0.2203 C   0  0  0  0  0  0  0  0  0  0  0  0
   -3.7042    2.6073    0.3213 O   0  0  0  0  0  0  0  0  0  0  0  0
   -4.4317    0.4325    0.5210 N   0  0  0  0  0  0  0  0  0  0  0  0
   -5.7513    0.8373    0.9435 C   0  0  1  0  0  0  0  0  0  0  0  0
   -6.7817    0.5887   -0.1059 C   0  0  0  0  0  0  0  0  0  0  0  0
   -6.9615   -0.7738   -0.6194 C   0  0  0  0  0  0  0  0  0  0  0  0
   -7.3526   -1.8587    0.2382 C   0  0  0  0  0  0  0  0  0  0  0  0
   -7.4237   -3.0288   -0.2869 O   0  0  0  0  0  0  0  0  0  0  0  0
   -7.6627   -1.7879    1.5652 O   0  0  0  0  0  0  0  0  0  0  0  0
   -6.0639    0.3883    2.3014 C   0  0  0  0  0  0  0  0  0  0  0  0
   -5.2946   -0.3720    2.9356 O   0  0  0  0  0  0  0  0  0  0  0  0
   -7.2309    0.7996    2.9345 O   0  0  0  0  0  0  0  0  0  0  0  0
   -1.6494   -0.2800   -0.3493 C   0  0  0  0  0  0  0  0  0  0  0  0
   -0.3780   -0.5886   -0.7545 C   0  0  0  0  0  0  0  0  0  0  0  0
    3.2752   -1.4747   -1.8615 H   0  0  0  0  0  0  0  0  0  0  0  0
    2.1419   -1.7160   -0.5223 H   0  0  0  0  0  0  0  0  0  0  0  0
    1.5500   -1.8764   -2.2617 H   0  0  0  0  0  0  0  0  0  0  0  0
    2.5684    2.0759   -1.9032 H   0  0  0  0  0  0  0  0  0  0  0  0
    3.2667    0.7481   -2.8218 H   0  0  0  0  0  0  0  0  0  0  0  0
    3.2139    2.2220    0.5540 H   0  0  0  0  0  0  0  0  0  0  0  0
    9.3534   -1.5372    2.9362 H   0  0  0  0  0  0  0  0  0  0  0  0
    9.8293    0.1731    2.7913 H   0  0  0  0  0  0  0  0  0  0  0  0
    6.8344   -1.3081   -2.6098 H   0  0  0  0  0  0  0  0  0  0  0  0
    7.3331   -2.7220   -1.6483 H   0  0  0  0  0  0  0  0  0  0  0  0
    0.7737    2.5292   -1.1248 H   0  0  0  0  0  0  0  0  0  0  0  0
   -1.4736    3.0475   -0.4094 H   0  0  0  0  0  0  0  0  0  0  0  0
   -4.2259   -0.5859    0.4412 H   0  0  0  0  0  0  0  0  0  0  0  0
   -5.6850    1.9970    0.9667 H   0  0  0  0  0  0  0  0  0  0  0  0
   -7.7923    0.9744    0.2152 H   0  0  0  0  0  0  0  0  0  0  0  0
   -6.5436    1.2496   -0.9954 H   0  0  0  0  0  0  0  0  0  0  0  0
   -7.7798   -0.6958   -1.4222 H   0  0  0  0  0  0  0  0  0  0  0  0
   -6.0756   -1.0909   -1.2854 H   0  0  0  0  0  0  0  0  0  0  0  0
   -7.7883   -2.6306    2.1087 H   0  0  0  0  0  0  0  0  0  0  0  0
   -7.5996    0.3016    3.7312 H   0  0  0  0  0  0  0  0  0  0  0  0
   -2.3478   -1.0934   -0.1256 H   0  0  0  0  0  0  0  0  0  0  0  0
   -0.0579   -1.6199   -0.8560 H   0  0  0  0  0  0  0  0  0  0  0  0
  1  2  1  0
  2  3  1  0
  3  4  1  0
  4  5  2  0
  5  6  1  0
  6  7  2  0
  7  8  1  0
  8  9  2  0
  9 10  1  0
  9 11  1  0
 11 12  2  0
 12 13  1  0
 12 14  1  0
 14 15  2  0
  2 16  1  0
 16 17  2  0
 17 18  1  0
 18 19  2  0
 19 20  1  0
 20 21  2  0
 20 22  1  0
 22 23  1  0
 23 24  1  0
 24 25  1  0
 25 26  1  0
 26 27  2  0
 26 28  1  0
 23 29  1  0
 29 30  2  0
 29 31  1  0
 19 32  1  0
 32 33  2  0
 15  4  1  0
 33 16  1  0
 14  7  1  0
  1 34  1  0
  1 35  1  0
  1 36  1  0
  3 37  1  0
  3 38  1  0
  5 39  1  0
 10 40  1  0
 10 41  1  0
 13 42  1  0
 13 43  1  0
 17 44  1  0
 18 45  1  0
 22 46  1  0
 23 47  1  1
 24 48  1  0
 24 49  1  0
 25 50  1  0
 25 51  1  0
 28 52  1  0
 31 53  1  0
 32 54  1  0
 33 55  1  0
M  END
$$$$
