
     RDKit          3D

 56 61  0  0  0  0  0  0  0  0999 V2000
   -7.7580    2.6858   -2.3834 C   0  0  0  0  0  0  0  0  0  0  0  0
   -7.3159    1.9913   -1.2514 O   0  0  0  0  0  0  0  0  0  0  0  0
   -6.0171    1.4605   -1.1393 C   0  0  0  0  0  0  0  0  0  0  0  0
   -5.6435    0.7841    0.0061 C   0  0  0  0  0  0  0  0  0  0  0  0
   -4.3618    0.2780    0.0782 C   0  0  0  0  0  0  0  0  0  0  0  0
   -3.5181    0.4674   -0.9850 C   0  0  0  0  0  0  0  0  0  0  0  0
   -2.2226    0.0871   -1.1908 C   0  0  0  0  0  0  0  0  0  0  0  0
   -1.3904   -0.6489   -0.2775 N   0  0  0  0  0  0  0  0  0  0  0  0
   -0.2688   -0.3003    0.3144 C   0  0  0  0  0  0  0  0  0  0  0  0
    0.2667    0.8418    0.1326 O   0  0  0  0  0  0  0  0  0  0  0  0
    0.2050   -1.3101    1.1154 N   0  0  0  0  0  0  0  0  0  0  0  0
    1.3951   -1.0945    1.8704 C   0  0  0  0  0  0  0  0  0  0  0  0
    2.6724   -1.1960    1.2219 C   0  0  0  0  0  0  0  0  0  0  0  0
    3.2966    0.0217    0.8865 C   0  0  0  0  0  0  0  0  0  0  0  0
    4.4970    0.1234    0.2634 C   0  0  0  0  0  0  0  0  0  0  0  0
    5.1520    1.4094   -0.0868 C   0  0  1  0  0  0  0  0  0  0  0  0
    6.6276    1.2212   -0.3681 C   0  0  0  0  0  0  0  0  0  0  0  0
    4.4911    2.1245   -1.0828 O   0  0  0  0  0  0  0  0  0  0  0  0
    4.6008    3.4701   -0.7653 C   0  0  0  0  0  0  0  0  0  0  0  0
    4.4017    4.5730   -1.6110 O   0  0  0  0  0  0  0  0  0  0  0  0
    4.9285    3.6308    0.4766 N   0  0  0  0  0  0  0  0  0  0  0  0
    5.0615    2.3513    1.0827 C   0  0  0  0  0  0  0  0  0  0  0  0
    5.0911    2.1169    2.3002 O   0  0  0  0  0  0  0  0  0  0  0  0
    5.1398   -1.0529   -0.0579 C   0  0  0  0  0  0  0  0  0  0  0  0
    4.5728   -2.2651    0.2484 C   0  0  0  0  0  0  0  0  0  0  0  0
    3.3240   -2.3320    0.8964 C   0  0  0  0  0  0  0  0  0  0  0  0
    2.7103   -3.9264    1.2555 Cl  0  0  0  0  0  0  0  0  0  0  0  0
   -0.6651   -2.3035    1.0041 C   0  0  0  0  0  0  0  0  0  0  0  0
   -0.6988   -3.5386    1.6013 C   0  0  0  0  0  0  0  0  0  0  0  0
   -1.7477   -4.3860    1.3201 C   0  0  0  0  0  0  0  0  0  0  0  0
   -2.7576   -4.0117    0.4541 C   0  0  0  0  0  0  0  0  0  0  0  0
   -2.7026   -2.7700   -0.1286 C   0  0  0  0  0  0  0  0  0  0  0  0
   -1.6763   -1.8974    0.1257 C   0  0  0  0  0  0  0  0  0  0  0  0
   -1.8841    0.5364   -2.4112 N   0  0  0  0  0  0  0  0  0  0  0  0
   -2.8821    1.1588   -2.9528 O   0  0  0  0  0  0  0  0  0  0  0  0
   -3.8945    1.1406   -2.1213 C   0  0  0  0  0  0  0  0  0  0  0  0
   -5.1697    1.6513   -2.2085 C   0  0  0  0  0  0  0  0  0  0  0  0
   -7.3862    3.7506   -2.3694 H   0  0  0  0  0  0  0  0  0  0  0  0
   -7.5254    2.2114   -3.3422 H   0  0  0  0  0  0  0  0  0  0  0  0
   -8.8787    2.7836   -2.3220 H   0  0  0  0  0  0  0  0  0  0  0  0
   -6.3360    0.6566    0.8192 H   0  0  0  0  0  0  0  0  0  0  0  0
   -3.9984   -0.2612    0.9394 H   0  0  0  0  0  0  0  0  0  0  0  0
    1.3027   -0.1452    2.4849 H   0  0  0  0  0  0  0  0  0  0  0  0
    1.3773   -1.8902    2.6855 H   0  0  0  0  0  0  0  0  0  0  0  0
    2.7978    0.9528    1.1401 H   0  0  0  0  0  0  0  0  0  0  0  0
    6.8161    0.7583   -1.3477 H   0  0  0  0  0  0  0  0  0  0  0  0
    7.0830    2.2338   -0.3909 H   0  0  0  0  0  0  0  0  0  0  0  0
    7.0498    0.6677    0.4823 H   0  0  0  0  0  0  0  0  0  0  0  0
    4.8836    5.4592   -1.4009 H   0  0  0  0  0  0  0  0  0  0  0  0
    6.1080   -0.9916   -0.5603 H   0  0  0  0  0  0  0  0  0  0  0  0
    5.0719   -3.1889   -0.0011 H   0  0  0  0  0  0  0  0  0  0  0  0
    0.0852   -3.8001    2.2939 H   0  0  0  0  0  0  0  0  0  0  0  0
   -1.7429   -5.3563    1.8098 H   0  0  0  0  0  0  0  0  0  0  0  0
   -3.5871   -4.6813    0.2302 H   0  0  0  0  0  0  0  0  0  0  0  0
   -3.4756   -2.4488   -0.8084 H   0  0  0  0  0  0  0  0  0  0  0  0
   -5.5043    2.1977   -3.1070 H   0  0  0  0  0  0  0  0  0  0  0  0
  1  2  1  0
  2  3  1  0
  3  4  2  0
  4  5  1  0
  5  6  2  0
  6  7  1  0
  7  8  1  0
  8  9  1  0
  9 10  2  0
  9 11  1  0
 11 12  1  0
 12 13  1  0
 13 14  2  0
 14 15  1  0
 15 16  1  0
 16 17  1  6
 16 18  1  0
 18 19  1  0
 19 20  1  0
 19 21  2  0
 21 22  1  0
 22 23  2  0
 15 24  2  0
 24 25  1  0
 25 26  2  0
 26 27  1  0
 11 28  1  0
 28 29  2  0
 29 30  1  0
 30 31  2  0
 31 32  1  0
 32 33  2  0
  7 34  2  0
 34 35  1  0
 35 36  1  0
 36 37  2  0
 37  3  1  0
 36  6  1  0
 33  8  1  0
 26 13  1  0
 33 28  1  0
 22 16  1  0
  1 38  1  0
  1 39  1  0
  1 40  1  0
  4 41  1  0
  5 42  1  0
 12 43  1  0
 12 44  1  0
 14 45  1  0
 17 46  1  0
 17 47  1  0
 17 48  1  0
 20 49  1  0
 24 50  1  0
 25 51  1  0
 29 52  1  0
 30 53  1  0
 31 54  1  0
 32 55  1  0
 37 56  1  0
M  END
$$$$
