
     RDKit          3D

 62 66  0  0  0  0  0  0  0  0999 V2000
   -8.3134    0.0839    2.0523 C   0  0  0  0  0  0  0  0  0  0  0  0
   -7.4264    1.1157    1.7384 O   0  0  0  0  0  0  0  0  0  0  0  0
   -6.5739    1.0545    0.6530 C   0  0  0  0  0  0  0  0  0  0  0  0
   -6.6050   -0.0705   -0.2192 C   0  0  0  0  0  0  0  0  0  0  0  0
   -5.6258   -0.0853   -1.3158 C   0  0  0  0  0  0  0  0  0  0  0  0
   -4.8138    0.8706   -1.4237 C   0  0  0  0  0  0  0  0  0  0  0  0
   -3.6204    0.6590   -2.4701 C   0  0  0  0  0  0  0  0  0  0  0  0
   -2.7478   -0.3082   -1.8249 N   0  0  0  0  0  0  0  0  0  0  0  0
   -3.1511   -1.7503   -1.7828 C   0  0  0  0  0  0  0  0  0  0  0  0
   -4.2386   -2.1647   -2.3090 O   0  0  0  0  0  0  0  0  0  0  0  0
   -2.2797   -2.6035   -1.1570 C   0  0  0  0  0  0  0  0  0  0  0  0
   -2.0618   -3.9843   -1.0204 C   0  0  0  0  0  0  0  0  0  0  0  0
   -3.1303   -4.3653   -1.9966 C   0  0  0  0  0  0  0  0  0  0  0  0
   -4.0689   -4.7178   -2.8587 N   0  0  0  0  0  0  0  0  0  0  0  0
   -1.1740   -4.4962   -0.3159 C   0  0  0  0  0  0  0  0  0  0  0  0
   -0.2658   -5.0223    0.4002 N   0  0  0  0  0  0  0  0  0  0  0  0
   -1.0750   -1.5424   -0.7122 C   0  0  0  0  0  0  0  0  0  0  0  0
    0.1120   -1.8961   -0.2366 C   0  0  0  0  0  0  0  0  0  0  0  0
    1.1288   -0.7080   -0.2820 C   0  0  0  0  0  0  0  0  0  0  0  0
    2.7571   -0.9956    0.0564 S   0  0  0  0  0  6  0  0  0  0  0  0
    3.4962   -1.1900   -1.3049 O   0  0  0  0  0  0  0  0  0  0  0  0
    2.8333   -2.4493    0.6796 O   0  0  0  0  0  0  0  0  0  0  0  0
    3.6283    0.0020    1.1161 N   0  0  0  0  0  0  0  0  0  0  0  0
    3.3266    0.0540    2.4754 C   0  0  0  0  0  0  0  0  0  0  0  0
    2.9780    1.5212    2.4365 C   0  0  0  0  0  0  0  0  0  0  0  0
    3.3526    1.4263    0.9919 C   0  0  1  0  0  0  0  0  0  0  0  0
    4.2530    2.3922    0.3787 C   0  0  0  0  0  0  0  0  0  0  0  0
    5.5239    2.5899    0.8327 O   0  0  0  0  0  0  0  0  0  0  0  0
    6.5833    1.7514    0.7823 C   0  0  0  0  0  0  0  0  0  0  0  0
    7.9168    1.8149    1.2476 C   0  0  0  0  0  0  0  0  0  0  0  0
    8.8267    0.7246    1.0420 C   0  0  0  0  0  0  0  0  0  0  0  0
    8.2368   -0.4494    0.2942 C   0  0  0  0  0  0  0  0  0  0  0  0
    7.1309   -0.4018   -0.0511 N   0  0  0  0  0  0  0  0  0  0  0  0
    6.2294    0.5439    0.0880 C   0  0  0  0  0  0  0  0  0  0  0  0
    0.4460    0.2727   -0.7756 C   0  0  0  0  0  0  0  0  0  0  0  0
   -0.5228    0.7945   -1.2137 C   0  0  0  0  0  0  0  0  0  0  0  0
   -1.6347   -0.4066   -1.2301 C   0  0  0  0  0  0  0  0  0  0  0  0
   -4.6657    2.0162   -0.6975 C   0  0  0  0  0  0  0  0  0  0  0  0
   -5.6229    2.0480    0.3681 C   0  0  0  0  0  0  0  0  0  0  0  0
   -7.9605   -0.8743    1.5651 H   0  0  0  0  0  0  0  0  0  0  0  0
   -9.3797    0.2129    1.9212 H   0  0  0  0  0  0  0  0  0  0  0  0
   -8.0730   -0.1772    3.1809 H   0  0  0  0  0  0  0  0  0  0  0  0
   -7.2495   -0.8879   -0.0806 H   0  0  0  0  0  0  0  0  0  0  0  0
   -5.8318   -0.9791   -1.9110 H   0  0  0  0  0  0  0  0  0  0  0  0
   -3.1051    1.5728   -2.5192 H   0  0  0  0  0  0  0  0  0  0  0  0
   -4.1255    0.2877   -3.3583 H   0  0  0  0  0  0  0  0  0  0  0  0
    0.4915   -2.7503    0.1112 H   0  0  0  0  0  0  0  0  0  0  0  0
    2.6664   -0.6488    2.9594 H   0  0  0  0  0  0  0  0  0  0  0  0
    4.3636    0.0182    3.0461 H   0  0  0  0  0  0  0  0  0  0  0  0
    3.6202    2.2288    2.9642 H   0  0  0  0  0  0  0  0  0  0  0  0
    1.8659    1.6092    2.6057 H   0  0  0  0  0  0  0  0  0  0  0  0
    2.3382    1.4852    0.4092 H   0  0  0  0  0  0  0  0  0  0  0  0
    4.2793    2.2556   -0.7560 H   0  0  0  0  0  0  0  0  0  0  0  0
    3.7303    3.4348    0.4586 H   0  0  0  0  0  0  0  0  0  0  0  0
    8.2392    2.6802    1.7611 H   0  0  0  0  0  0  0  0  0  0  0  0
    9.8153    0.6690    1.3155 H   0  0  0  0  0  0  0  0  0  0  0  0
    9.0530   -1.2521    0.1553 H   0  0  0  0  0  0  0  0  0  0  0  0
    5.2495    0.5128   -0.4049 H   0  0  0  0  0  0  0  0  0  0  0  0
    1.4256    1.1147   -1.1014 H   0  0  0  0  0  0  0  0  0  0  0  0
   -0.9723    1.6260   -1.6205 H   0  0  0  0  0  0  0  0  0  0  0  0
   -3.9727    2.8089   -0.8358 H   0  0  0  0  0  0  0  0  0  0  0  0
   -5.6098    2.9251    0.9606 H   0  0  0  0  0  0  0  0  0  0  0  0
  1  2  1  0
  2  3  1  0
  3  4  2  0
  4  5  1  0
  5  6  2  0
  6  7  1  0
  7  8  1  0
  8  9  1  0
  9 10  2  0
  9 11  1  0
 11 12  2  3
 12 13  1  0
 13 14  3  0
 12 15  1  0
 15 16  3  0
 11 17  1  0
 17 18  2  0
 18 19  1  0
 19 20  1  0
 20 21  2  0
 20 22  2  0
 20 23  1  0
 23 24  1  0
 24 25  1  0
 25 26  1  0
 26 27  1  0
 27 28  1  0
 28 29  1  0
 29 30  2  0
 30 31  1  0
 31 32  2  0
 32 33  1  0
 33 34  2  0
 19 35  2  0
 35 36  1  0
 36 37  2  0
  6 38  1  0
 38 39  2  0
 39  3  1  0
 37  8  1  0
 37 17  1  0
 26 23  1  0
 34 29  1  0
  1 40  1  0
  1 41  1  0
  1 42  1  0
  4 43  1  0
  5 44  1  0
  7 45  1  0
  7 46  1  0
 18 47  1  0
 24 48  1  0
 24 49  1  0
 25 50  1  0
 25 51  1  0
 26 52  1  6
 27 53  1  0
 27 54  1  0
 30 55  1  0
 31 56  1  0
 32 57  1  0
 34 58  1  0
 35 59  1  0
 36 60  1  0
 38 61  1  0
 39 62  1  0
M  END
$$$$
