
     RDKit          3D

 47 49  0  0  0  0  0  0  0  0999 V2000
   -3.9088    1.4980    0.7447 C   0  0  0  0  0  0  0  0  0  0  0  0
   -3.4514    1.1152    2.1289 C   0  0  0  0  0  0  0  0  0  0  0  0
   -1.9559    1.0342    2.2792 C   0  0  0  0  0  0  0  0  0  0  0  0
   -1.2761    0.0449    1.4132 C   0  0  0  0  0  0  0  0  0  0  0  0
   -1.3967    0.2122    0.0023 N   0  0  0  0  0  0  0  0  0  0  0  0
   -1.9837   -0.8767   -0.6233 C   0  0  1  0  0  0  0  0  0  0  0  0
   -2.7310   -0.6936   -1.8940 C   0  0  0  0  0  0  0  0  0  0  0  0
   -3.1190   -2.1594   -2.1645 C   0  0  0  0  0  0  0  0  0  0  0  0
   -2.0045   -2.9405   -1.7085 N   0  0  0  0  0  0  0  0  0  0  0  0
   -1.0875   -2.0420   -0.9985 C   0  0  0  0  0  0  0  0  0  0  0  0
   -0.2828    1.1846   -0.7519 S   0  0  0  0  0  6  0  0  0  0  0  0
   -0.6390    1.2955   -2.2196 O   0  0  0  0  0  0  0  0  0  0  0  0
   -0.3269    2.6278   -0.2514 O   0  0  0  0  0  0  0  0  0  0  0  0
    1.3947    0.7204   -0.6687 C   0  0  0  0  0  0  0  0  0  0  0  0
    2.0190   -0.0209   -1.6482 C   0  0  0  0  0  0  0  0  0  0  0  0
    3.3512   -0.3849   -1.5720 C   0  0  0  0  0  0  0  0  0  0  0  0
    4.1261   -0.0128   -0.4891 C   0  0  0  0  0  0  0  0  0  0  0  0
    5.4663   -0.3832   -0.4199 C   0  0  0  0  0  0  0  0  0  0  0  0
    6.1934    0.0120    0.6781 C   0  0  0  0  0  0  0  0  0  0  0  0
    5.6170    0.7558    1.6882 C   0  0  0  0  0  0  0  0  0  0  0  0
    4.2910    1.1060    1.5908 C   0  0  0  0  0  0  0  0  0  0  0  0
    3.5177    0.7266    0.4958 C   0  0  0  0  0  0  0  0  0  0  0  0
    2.1918    1.0803    0.4046 C   0  0  0  0  0  0  0  0  0  0  0  0
   -4.6378    2.3627    0.7681 H   0  0  0  0  0  0  0  0  0  0  0  0
   -4.3935    0.6264    0.2412 H   0  0  0  0  0  0  0  0  0  0  0  0
   -3.0640    1.8697    0.1465 H   0  0  0  0  0  0  0  0  0  0  0  0
   -3.9365    0.1346    2.3797 H   0  0  0  0  0  0  0  0  0  0  0  0
   -3.8798    1.8914    2.8229 H   0  0  0  0  0  0  0  0  0  0  0  0
   -1.7438    0.7461    3.3442 H   0  0  0  0  0  0  0  0  0  0  0  0
   -1.5797    2.0731    2.1655 H   0  0  0  0  0  0  0  0  0  0  0  0
   -0.1985   -0.1250    1.7077 H   0  0  0  0  0  0  0  0  0  0  0  0
   -1.7446   -0.9572    1.6565 H   0  0  0  0  0  0  0  0  0  0  0  0
   -2.7092   -1.3448    0.1210 H   0  0  0  0  0  0  0  0  0  0  0  0
   -3.5849   -0.0277   -1.8879 H   0  0  0  0  0  0  0  0  0  0  0  0
   -2.0945   -0.4273   -2.7614 H   0  0  0  0  0  0  0  0  0  0  0  0
   -4.0321   -2.3357   -1.5549 H   0  0  0  0  0  0  0  0  0  0  0  0
   -3.3501   -2.3145   -3.2362 H   0  0  0  0  0  0  0  0  0  0  0  0
   -2.3660   -3.6313   -0.9864 H   0  0  0  0  0  0  0  0  0  0  0  0
   -0.2359   -1.7697   -1.6263 H   0  0  0  0  0  0  0  0  0  0  0  0
   -0.7325   -2.4932   -0.0520 H   0  0  0  0  0  0  0  0  0  0  0  0
    1.4685   -0.3405   -2.5175 H   0  0  0  0  0  0  0  0  0  0  0  0
    3.8353   -0.9730   -2.3553 H   0  0  0  0  0  0  0  0  0  0  0  0
    5.9051   -0.9726   -1.2299 H   0  0  0  0  0  0  0  0  0  0  0  0
    7.2348   -0.2790    0.7263 H   0  0  0  0  0  0  0  0  0  0  0  0
    6.2463    1.0440    2.5428 H   0  0  0  0  0  0  0  0  0  0  0  0
    3.8270    1.6834    2.3660 H   0  0  0  0  0  0  0  0  0  0  0  0
    1.7614    1.6607    1.2034 H   0  0  0  0  0  0  0  0  0  0  0  0
  1  2  1  0
  2  3  1  0
  3  4  1  0
  4  5  1  0
  5  6  1  0
  6  7  1  0
  7  8  1  0
  8  9  1  0
  9 10  1  0
  5 11  1  0
 11 12  2  0
 11 13  2  0
 11 14  1  0
 14 15  2  0
 15 16  1  0
 16 17  2  0
 17 18  1  0
 18 19  2  0
 19 20  1  0
 20 21  2  0
 21 22  1  0
 22 23  2  0
 10  6  1  0
 23 14  1  0
 22 17  1  0
  1 24  1  0
  1 25  1  0
  1 26  1  0
  2 27  1  0
  2 28  1  0
  3 29  1  0
  3 30  1  0
  4 31  1  0
  4 32  1  0
  6 33  1  1
  7 34  1  0
  7 35  1  0
  8 36  1  0
  8 37  1  0
  9 38  1  0
 10 39  1  0
 10 40  1  0
 15 41  1  0
 16 42  1  0
 18 43  1  0
 19 44  1  0
 20 45  1  0
 21 46  1  0
 23 47  1  0
M  END
$$$$
