
     RDKit          3D

 57 61  0  0  0  0  0  0  0  0999 V2000
   -1.2649   -3.5327   -0.7695 C   0  0  0  0  0  0  0  0  0  0  0  0
   -1.2288   -2.0509   -0.4102 C   0  0  0  0  0  0  0  0  0  0  0  0
   -0.0685   -1.7594    0.4601 C   0  0  0  0  0  0  0  0  0  0  0  0
   -0.0094   -2.1969    1.6149 O   0  0  0  0  0  0  0  0  0  0  0  0
    0.9992   -0.9733   -0.0162 N   0  0  0  0  0  0  0  0  0  0  0  0
    2.1624   -0.6425    0.7697 C   0  0  1  0  0  0  0  0  0  0  0  0
    3.4661   -0.9857    0.1763 C   0  0  0  0  0  0  0  0  0  0  0  0
    3.8015   -0.1850   -1.0645 C   0  0  0  0  0  0  0  0  0  0  0  0
    3.7564    1.2921   -0.7509 C   0  0  0  0  0  0  0  0  0  0  0  0
    2.3637    1.6283   -0.2918 C   0  0  0  0  0  0  0  0  0  0  0  0
    2.1113    0.8564    0.9880 C   0  0  0  0  0  0  0  0  0  0  0  0
    3.1109    1.3006    2.0313 C   0  0  0  0  0  0  0  0  0  0  0  0
    4.4789    0.8611    1.5467 C   0  0  2  0  0  0  0  0  0  0  0  0
    5.3807    1.1064    2.5590 O   0  0  0  0  0  0  0  0  0  0  0  0
    4.7965    1.6327    0.2943 C   0  0  0  0  0  0  0  0  0  0  0  0
    4.5337   -0.6014    1.2159 C   0  0  0  0  0  0  0  0  0  0  0  0
   -1.1374   -1.2329   -1.5915 N   0  0  0  0  0  0  0  0  0  0  0  0
   -1.2296    0.1791   -1.2702 C   0  0  0  0  0  0  0  0  0  0  0  0
   -2.7084    0.1317   -1.6399 C   0  0  0  0  0  0  0  0  0  0  0  0
   -3.5641   -0.1396   -0.5996 O   0  0  0  0  0  0  0  0  0  0  0  0
   -4.7374    0.4361   -0.2003 C   0  0  0  0  0  0  0  0  0  0  0  0
   -5.3701   -0.1016    0.9340 C   0  0  0  0  0  0  0  0  0  0  0  0
   -6.5413    0.4242    1.3856 C   0  0  0  0  0  0  0  0  0  0  0  0
   -7.1827    1.4903    0.7897 C   0  0  0  0  0  0  0  0  0  0  0  0
   -6.5774    2.0304   -0.3234 C   0  0  0  0  0  0  0  0  0  0  0  0
   -5.3713    1.4989   -0.7992 C   0  0  0  0  0  0  0  0  0  0  0  0
   -4.8478    2.0820   -1.8874 F   0  0  0  0  0  0  0  0  0  0  0  0
   -2.3455   -1.1511   -2.3832 C   0  0  0  0  0  0  0  0  0  0  0  0
   -2.3131   -3.7912   -0.9546 H   0  0  0  0  0  0  0  0  0  0  0  0
   -0.9370   -4.0776    0.1391 H   0  0  0  0  0  0  0  0  0  0  0  0
   -0.5715   -3.7765   -1.5795 H   0  0  0  0  0  0  0  0  0  0  0  0
   -2.1520   -1.8384    0.1619 H   0  0  0  0  0  0  0  0  0  0  0  0
    1.0333   -0.5744   -0.9894 H   0  0  0  0  0  0  0  0  0  0  0  0
    2.0772   -1.1120    1.7703 H   0  0  0  0  0  0  0  0  0  0  0  0
    3.6496   -2.0521   -0.0127 H   0  0  0  0  0  0  0  0  0  0  0  0
    3.0827   -0.3796   -1.8889 H   0  0  0  0  0  0  0  0  0  0  0  0
    4.8482   -0.4473   -1.3418 H   0  0  0  0  0  0  0  0  0  0  0  0
    3.9693    1.8875   -1.6467 H   0  0  0  0  0  0  0  0  0  0  0  0
    1.6580    1.3528   -1.0853 H   0  0  0  0  0  0  0  0  0  0  0  0
    2.2424    2.7052   -0.0536 H   0  0  0  0  0  0  0  0  0  0  0  0
    1.0748    1.1141    1.3088 H   0  0  0  0  0  0  0  0  0  0  0  0
    3.1047    2.3932    2.0581 H   0  0  0  0  0  0  0  0  0  0  0  0
    2.8487    0.8590    3.0038 H   0  0  0  0  0  0  0  0  0  0  0  0
    6.2702    1.3006    2.1587 H   0  0  0  0  0  0  0  0  0  0  0  0
    5.7724    1.3156   -0.0713 H   0  0  0  0  0  0  0  0  0  0  0  0
    4.7402    2.7072    0.5371 H   0  0  0  0  0  0  0  0  0  0  0  0
    4.2767   -1.1814    2.1239 H   0  0  0  0  0  0  0  0  0  0  0  0
    5.5341   -0.8309    0.8423 H   0  0  0  0  0  0  0  0  0  0  0  0
   -0.6656    0.7660   -2.0194 H   0  0  0  0  0  0  0  0  0  0  0  0
   -1.0476    0.3982   -0.2146 H   0  0  0  0  0  0  0  0  0  0  0  0
   -2.9908    0.9625   -2.2948 H   0  0  0  0  0  0  0  0  0  0  0  0
   -4.9310   -0.9405    1.4601 H   0  0  0  0  0  0  0  0  0  0  0  0
   -7.0122   -0.0007    2.2566 H   0  0  0  0  0  0  0  0  0  0  0  0
   -8.1139    1.8720    1.1881 H   0  0  0  0  0  0  0  0  0  0  0  0
   -7.0581    2.8596   -0.8026 H   0  0  0  0  0  0  0  0  0  0  0  0
   -3.0583   -1.9671   -2.2623 H   0  0  0  0  0  0  0  0  0  0  0  0
   -2.1084   -0.9213   -3.4267 H   0  0  0  0  0  0  0  0  0  0  0  0
  1  2  1  0
  2  3  1  0
  3  4  2  0
  3  5  1  0
  5  6  1  0
  6  7  1  0
  7  8  1  0
  8  9  1  0
  9 10  1  0
 10 11  1  0
 11 12  1  0
 12 13  1  0
 13 14  1  1
 13 15  1  0
 13 16  1  0
  2 17  1  0
 17 18  1  0
 18 19  1  0
 19 20  1  0
 20 21  1  0
 21 22  2  0
 22 23  1  0
 23 24  2  0
 24 25  1  0
 25 26  2  0
 26 27  1  0
 19 28  1  0
 11  6  1  0
 28 17  1  0
 16  7  1  0
 26 21  1  0
 15  9  1  0
  1 29  1  0
  1 30  1  0
  1 31  1  0
  2 32  1  0
  5 33  1  0
  6 34  1  1
  7 35  1  0
  8 36  1  0
  8 37  1  0
  9 38  1  0
 10 39  1  0
 10 40  1  0
 11 41  1  0
 12 42  1  0
 12 43  1  0
 14 44  1  0
 15 45  1  0
 15 46  1  0
 16 47  1  0
 16 48  1  0
 18 49  1  0
 18 50  1  0
 19 51  1  0
 22 52  1  0
 23 53  1  0
 24 54  1  0
 25 55  1  0
 28 56  1  0
 28 57  1  0
M  END
$$$$
