
     RDKit          3D

 77 82  0  0  0  0  0  0  0  0999 V2000
   12.8116   -0.8045    1.4335 C   0  0  0  0  0  0  0  0  0  0  0  0
   11.4017   -0.5619    1.0924 N   0  0  0  0  0  0  0  0  0  0  0  0
   10.4536   -1.1996    1.9194 C   0  0  0  0  0  0  0  0  0  0  0  0
   10.8291   -1.9325    2.8905 O   0  0  0  0  0  0  0  0  0  0  0  0
    9.0347   -1.0412    1.6917 C   0  0  0  0  0  0  0  0  0  0  0  0
    8.5767   -0.2692    0.6646 C   0  0  0  0  0  0  0  0  0  0  0  0
    7.2046   -0.1464    0.4937 C   0  0  0  0  0  0  0  0  0  0  0  0
    6.2777   -0.7650    1.3105 C   0  0  0  0  0  0  0  0  0  0  0  0
    4.8558   -0.5565    1.0392 C   0  0  0  0  0  0  0  0  0  0  0  0
    4.4133    0.6334    0.5082 C   0  0  0  0  0  0  0  0  0  0  0  0
    3.0525    0.8345    0.2494 C   0  0  0  0  0  0  0  0  0  0  0  0
    2.1001   -0.1250    0.5056 C   0  0  0  0  0  0  0  0  0  0  0  0
    0.7051    0.1094    0.2220 N   0  0  0  0  0  0  0  0  0  0  0  0
    0.0876    1.2319   -0.3653 C   0  0  0  0  0  0  0  0  0  0  0  0
    0.7041    2.2728   -0.7652 O   0  0  0  0  0  0  0  0  0  0  0  0
   -1.3424    1.0476   -0.4554 N   0  0  0  0  0  0  0  0  0  0  0  0
   -2.2065    2.1094   -0.7195 C   0  0  0  0  0  0  0  0  0  0  0  0
   -2.7607    2.8420    0.3007 C   0  0  0  0  0  0  0  0  0  0  0  0
   -3.5968    3.8964   -0.0004 C   0  0  0  0  0  0  0  0  0  0  0  0
   -4.1856    4.6701    0.9925 O   0  0  0  0  0  0  0  0  0  0  0  0
   -5.0387    5.7601    0.6920 C   0  0  0  0  0  0  0  0  0  0  0  0
   -3.8388    4.1684   -1.2807 N   0  0  0  0  0  0  0  0  0  0  0  0
   -3.3144    3.4736   -2.2912 C   0  0  0  0  0  0  0  0  0  0  0  0
   -2.5019    2.4489   -1.9852 N   0  0  0  0  0  0  0  0  0  0  0  0
   -1.5967   -0.3319   -0.2324 C   0  0  0  0  0  0  0  0  0  0  0  0
   -2.7474   -0.6225    0.6577 C   0  0  0  0  0  0  0  0  0  0  0  0
   -4.0821   -0.5969   -0.0609 C   0  0  0  0  0  0  0  0  0  0  0  0
   -4.1270   -1.3138   -1.2459 N   0  0  0  0  0  0  0  0  0  0  0  0
   -5.3188   -1.3342   -1.9940 C   0  0  0  0  0  0  0  0  0  0  0  0
   -6.5387   -1.8462   -1.3597 C   0  0  0  0  0  0  0  0  0  0  0  0
   -6.9043   -3.1489   -1.5089 N   0  0  0  0  0  0  0  0  0  0  0  0
   -7.9815   -3.6391   -0.9160 C   0  0  0  0  0  0  0  0  0  0  0  0
   -8.8043   -2.8817   -0.1142 C   0  0  0  0  0  0  0  0  0  0  0  0
   -8.4766   -1.5781    0.0605 C   0  0  0  0  0  0  0  0  0  0  0  0
   -7.3281   -1.0638   -0.5746 C   0  0  0  0  0  0  0  0  0  0  0  0
   -7.1022    0.3773   -0.3433 C   0  0  0  0  0  0  0  0  0  0  0  0
   -3.0067   -1.2635   -2.1125 C   0  0  0  0  0  0  0  0  0  0  0  0
   -1.6803   -1.1590   -1.4648 C   0  0  0  0  0  0  0  0  0  0  0  0
   -0.3550   -0.8007    0.5079 C   0  0  0  0  0  0  0  0  0  0  0  0
   -0.3764   -1.8151    1.2125 O   0  0  0  0  0  0  0  0  0  0  0  0
    2.5462   -1.3082    1.0346 C   0  0  0  0  0  0  0  0  0  0  0  0
    3.9071   -1.5131    1.2951 C   0  0  0  0  0  0  0  0  0  0  0  0
    6.7594   -1.5375    2.3395 C   0  0  0  0  0  0  0  0  0  0  0  0
    8.1126   -1.6757    2.5285 C   0  0  0  0  0  0  0  0  0  0  0  0
   12.9020   -1.8228    1.8578 H   0  0  0  0  0  0  0  0  0  0  0  0
   13.0503   -0.0607    2.2138 H   0  0  0  0  0  0  0  0  0  0  0  0
   13.4706   -0.6345    0.5808 H   0  0  0  0  0  0  0  0  0  0  0  0
   11.1683    0.0463    0.2868 H   0  0  0  0  0  0  0  0  0  0  0  0
    9.2435    0.2450   -0.0141 H   0  0  0  0  0  0  0  0  0  0  0  0
    6.8486    0.4605   -0.3163 H   0  0  0  0  0  0  0  0  0  0  0  0
    5.1416    1.4002    0.2997 H   0  0  0  0  0  0  0  0  0  0  0  0
    2.7683    1.7885   -0.1662 H   0  0  0  0  0  0  0  0  0  0  0  0
   -2.5361    2.5860    1.3064 H   0  0  0  0  0  0  0  0  0  0  0  0
   -5.9074    5.8117    1.3983 H   0  0  0  0  0  0  0  0  0  0  0  0
   -4.4664    6.7285    0.7571 H   0  0  0  0  0  0  0  0  0  0  0  0
   -5.4487    5.7210   -0.3321 H   0  0  0  0  0  0  0  0  0  0  0  0
   -3.5625    3.7634   -3.3032 H   0  0  0  0  0  0  0  0  0  0  0  0
   -2.7711    0.1813    1.4453 H   0  0  0  0  0  0  0  0  0  0  0  0
   -2.5696   -1.5673    1.1994 H   0  0  0  0  0  0  0  0  0  0  0  0
   -4.2897    0.4758   -0.2298 H   0  0  0  0  0  0  0  0  0  0  0  0
   -4.8393   -0.9367    0.7082 H   0  0  0  0  0  0  0  0  0  0  0  0
   -5.1111   -1.9517   -2.9429 H   0  0  0  0  0  0  0  0  0  0  0  0
   -5.5527   -0.2969   -2.3801 H   0  0  0  0  0  0  0  0  0  0  0  0
   -8.2880   -4.6917   -1.0283 H   0  0  0  0  0  0  0  0  0  0  0  0
   -9.6922   -3.3105    0.3691 H   0  0  0  0  0  0  0  0  0  0  0  0
   -9.0995   -0.9609    0.6831 H   0  0  0  0  0  0  0  0  0  0  0  0
   -6.7095    0.5506    0.6833 H   0  0  0  0  0  0  0  0  0  0  0  0
   -6.4861    0.8525   -1.0972 H   0  0  0  0  0  0  0  0  0  0  0  0
   -8.0991    0.9014   -0.3455 H   0  0  0  0  0  0  0  0  0  0  0  0
   -3.1340   -0.3474   -2.7640 H   0  0  0  0  0  0  0  0  0  0  0  0
   -3.0418   -2.1139   -2.8308 H   0  0  0  0  0  0  0  0  0  0  0  0
   -0.8879   -0.7864   -2.1708 H   0  0  0  0  0  0  0  0  0  0  0  0
   -1.3299   -2.1986   -1.2039 H   0  0  0  0  0  0  0  0  0  0  0  0
    1.8389   -2.0969    1.2520 H   0  0  0  0  0  0  0  0  0  0  0  0
    4.2334   -2.4563    1.7146 H   0  0  0  0  0  0  0  0  0  0  0  0
    6.0477   -2.0310    2.9925 H   0  0  0  0  0  0  0  0  0  0  0  0
    8.4881   -2.2930    3.3465 H   0  0  0  0  0  0  0  0  0  0  0  0
  1  2  1  0
  2  3  1  0
  3  4  2  0
  3  5  1  0
  5  6  2  0
  6  7  1  0
  7  8  2  0
  8  9  1  0
  9 10  2  0
 10 11  1  0
 11 12  2  0
 12 13  1  0
 13 14  1  0
 14 15  2  0
 14 16  1  0
 16 17  1  0
 17 18  2  0
 18 19  1  0
 19 20  1  0
 20 21  1  0
 19 22  2  0
 22 23  1  0
 23 24  2  0
 16 25  1  0
 25 26  1  0
 26 27  1  0
 27 28  1  0
 28 29  1  0
 29 30  1  0
 30 31  2  0
 31 32  1  0
 32 33  2  0
 33 34  1  0
 34 35  2  0
 35 36  1  0
 28 37  1  0
 37 38  1  0
 25 39  1  0
 39 40  2  0
 12 41  1  0
 41 42  2  0
  8 43  1  0
 43 44  2  0
 44  5  1  0
 42  9  1  0
 39 13  1  0
 24 17  1  0
 38 25  1  0
 35 30  1  0
  1 45  1  0
  1 46  1  0
  1 47  1  0
  2 48  1  0
  6 49  1  0
  7 50  1  0
 10 51  1  0
 11 52  1  0
 18 53  1  0
 21 54  1  0
 21 55  1  0
 21 56  1  0
 23 57  1  0
 26 58  1  0
 26 59  1  0
 27 60  1  0
 27 61  1  0
 29 62  1  0
 29 63  1  0
 32 64  1  0
 33 65  1  0
 34 66  1  0
 36 67  1  0
 36 68  1  0
 36 69  1  0
 37 70  1  0
 37 71  1  0
 38 72  1  0
 38 73  1  0
 41 74  1  0
 42 75  1  0
 43 76  1  0
 44 77  1  0
M  END
$$$$
