
     RDKit          3D

 33 34  0  0  0  0  0  0  0  0999 V2000
   -0.0216   -2.1670   -1.0283 C   0  0  0  0  0  0  0  0  0  0  0  0
    0.0264   -1.1885    0.0909 C   0  0  0  0  0  0  0  0  0  0  0  0
    0.2532   -1.9679    1.3772 C   0  0  0  0  0  0  0  0  0  0  0  0
   -1.1733   -0.3804    0.2783 C   0  0  0  0  0  0  0  0  0  0  0  0
   -2.0657   -0.3933   -0.7670 C   0  0  0  0  0  0  0  0  0  0  0  0
   -3.2399    0.3500   -0.6769 C   0  0  0  0  0  0  0  0  0  0  0  0
   -3.5004    1.0937    0.4583 C   0  0  0  0  0  0  0  0  0  0  0  0
   -4.6594    1.8405    0.5714 O   0  0  0  0  0  0  0  0  0  0  0  0
   -2.5616    1.0731    1.4917 C   0  0  0  0  0  0  0  0  0  0  0  0
   -1.3785    0.3420    1.4351 C   0  0  0  0  0  0  0  0  0  0  0  0
    1.1709   -0.2784   -0.1841 C   0  0  0  0  0  0  0  0  0  0  0  0
    2.2705   -0.3159    0.6535 C   0  0  0  0  0  0  0  0  0  0  0  0
    3.3394    0.5209    0.4175 C   0  0  0  0  0  0  0  0  0  0  0  0
    3.3480    1.4116   -0.6477 C   0  0  0  0  0  0  0  0  0  0  0  0
    4.4112    2.2695   -0.9133 O   0  0  0  0  0  0  0  0  0  0  0  0
    2.2366    1.4481   -1.4931 C   0  0  0  0  0  0  0  0  0  0  0  0
    1.1659    0.6002   -1.2447 C   0  0  0  0  0  0  0  0  0  0  0  0
   -0.8953   -2.8020   -1.1089 H   0  0  0  0  0  0  0  0  0  0  0  0
    0.1546   -1.6832   -2.0334 H   0  0  0  0  0  0  0  0  0  0  0  0
    0.8442   -2.8752   -0.8962 H   0  0  0  0  0  0  0  0  0  0  0  0
    0.5169   -1.2844    2.2235 H   0  0  0  0  0  0  0  0  0  0  0  0
    0.9827   -2.7869    1.2627 H   0  0  0  0  0  0  0  0  0  0  0  0
   -0.7268   -2.4283    1.6840 H   0  0  0  0  0  0  0  0  0  0  0  0
   -1.9155   -0.9491   -1.6668 H   0  0  0  0  0  0  0  0  0  0  0  0
   -3.9392    0.3245   -1.5237 H   0  0  0  0  0  0  0  0  0  0  0  0
   -4.7707    2.6371   -0.0444 H   0  0  0  0  0  0  0  0  0  0  0  0
   -2.7092    1.6341    2.4051 H   0  0  0  0  0  0  0  0  0  0  0  0
   -0.6809    0.3570    2.2606 H   0  0  0  0  0  0  0  0  0  0  0  0
    2.3840   -0.9528    1.4973 H   0  0  0  0  0  0  0  0  0  0  0  0
    4.2380    0.5321    1.0523 H   0  0  0  0  0  0  0  0  0  0  0  0
    4.3887    3.2436   -0.6741 H   0  0  0  0  0  0  0  0  0  0  0  0
    2.2168    2.1414   -2.3417 H   0  0  0  0  0  0  0  0  0  0  0  0
    0.2902    0.6341   -1.9149 H   0  0  0  0  0  0  0  0  0  0  0  0
  1  2  1  0
  2  3  1  0
  2  4  1  0
  4  5  2  0
  5  6  1  0
  6  7  2  0
  7  8  1  0
  7  9  1  0
  9 10  2  0
  2 11  1  0
 11 12  2  0
 12 13  1  0
 13 14  2  0
 14 15  1  0
 14 16  1  0
 16 17  2  0
 10  4  1  0
 17 11  1  0
  1 18  1  0
  1 19  1  0
  1 20  1  0
  3 21  1  0
  3 22  1  0
  3 23  1  0
  5 24  1  0
  6 25  1  0
  8 26  1  0
  9 27  1  0
 10 28  1  0
 12 29  1  0
 13 30  1  0
 15 31  1  0
 16 32  1  0
 17 33  1  0
M  END
$$$$
