
     RDKit          3D

 42 42  0  0  0  0  0  0  0  0999 V2000
    4.4406    3.0702   -1.5745 O   0  0  0  0  0  0  0  0  0  0  0  0
    3.6961    1.9974   -1.0997 C   0  0  0  0  0  0  0  0  0  0  0  0
    4.0420    1.0287   -1.8594 O   0  0  0  0  0  0  0  0  0  0  0  0
    2.6776    1.5918   -0.0607 C   0  0  0  0  0  0  0  0  0  0  0  0
    3.2606    0.5384    0.8440 C   0  0  0  0  0  0  0  0  0  0  0  0
    2.3797    0.0091    1.9083 C   0  0  0  0  0  0  0  0  0  0  0  0
    1.2118   -0.8336    1.5903 C   0  0  0  0  0  0  0  0  0  0  0  0
    0.2172   -0.3703    0.6765 N   0  0  0  0  0  0  0  0  0  0  0  0
   -1.1337   -0.8045    1.1086 C   0  0  0  0  0  0  0  0  0  0  0  0
   -2.1937   -0.0669    0.3787 C   0  0  0  0  0  0  0  0  0  0  0  0
   -2.6260    1.1344    0.9701 C   0  0  0  0  0  0  0  0  0  0  0  0
   -3.6170    1.9496    0.4110 C   0  0  0  0  0  0  0  0  0  0  0  0
   -4.1893    1.5508   -0.7713 C   0  0  0  0  0  0  0  0  0  0  0  0
   -3.8188    0.3782   -1.4194 C   0  0  0  0  0  0  0  0  0  0  0  0
   -2.8397   -0.3551   -0.7948 C   0  0  0  0  0  0  0  0  0  0  0  0
   -5.1986    2.3485   -1.3800 N   0  0  0  0  0  4  0  0  0  0  0  0
   -5.8116    3.5220   -1.0547 O   0  0  0  0  0  1  0  0  0  0  0  0
   -5.7328    2.0227   -2.4576 O   0  0  0  0  0  0  0  0  0  0  0  0
    0.4348   -1.0697   -0.6333 C   0  0  0  0  0  0  0  0  0  0  0  0
    0.2871   -2.8313   -0.5803 P   0  0  0  0  0  0  0  0  0  0  0  0
    0.2197   -3.5254    0.9292 O   0  0  0  0  0  0  0  0  0  0  0  0
    1.6627   -3.5140   -1.3709 O   0  0  0  0  0  0  0  0  0  0  0  0
   -0.8809   -3.3822   -1.4207 O   0  0  0  0  0  0  0  0  0  0  0  0
    5.4704    3.0159   -1.6041 H   0  0  0  0  0  0  0  0  0  0  0  0
    1.7006    1.4033   -0.4545 H   0  0  0  0  0  0  0  0  0  0  0  0
    2.6269    2.5376    0.5955 H   0  0  0  0  0  0  0  0  0  0  0  0
    4.1967    0.9799    1.3141 H   0  0  0  0  0  0  0  0  0  0  0  0
    3.6800   -0.3129    0.2337 H   0  0  0  0  0  0  0  0  0  0  0  0
    2.0480    0.9515    2.4973 H   0  0  0  0  0  0  0  0  0  0  0  0
    3.0264   -0.5117    2.6966 H   0  0  0  0  0  0  0  0  0  0  0  0
    0.6866   -1.0920    2.5550 H   0  0  0  0  0  0  0  0  0  0  0  0
    1.6115   -1.8311    1.2559 H   0  0  0  0  0  0  0  0  0  0  0  0
   -1.1935   -0.5208    2.1767 H   0  0  0  0  0  0  0  0  0  0  0  0
   -1.2858   -1.8708    1.0618 H   0  0  0  0  0  0  0  0  0  0  0  0
   -2.1791    1.4683    1.9180 H   0  0  0  0  0  0  0  0  0  0  0  0
   -3.8934    2.8556    0.9258 H   0  0  0  0  0  0  0  0  0  0  0  0
   -4.2284    0.0105   -2.3458 H   0  0  0  0  0  0  0  0  0  0  0  0
   -2.5271   -1.2725   -1.2629 H   0  0  0  0  0  0  0  0  0  0  0  0
    1.4736   -0.8239   -0.9165 H   0  0  0  0  0  0  0  0  0  0  0  0
   -0.2380   -0.5860   -1.3392 H   0  0  0  0  0  0  0  0  0  0  0  0
    0.6905   -4.3772    0.9571 H   0  0  0  0  0  0  0  0  0  0  0  0
    1.8463   -4.4124   -1.0558 H   0  0  0  0  0  0  0  0  0  0  0  0
  1  2  1  0
  2  3  2  0
  2  4  1  0
  4  5  1  0
  5  6  1  0
  6  7  1  0
  7  8  1  0
  8  9  1  0
  9 10  1  0
 10 11  2  0
 11 12  1  0
 12 13  2  0
 13 14  1  0
 14 15  2  0
 13 16  1  0
 16 17  1  0
 16 18  2  0
  8 19  1  0
 19 20  1  0
 20 21  1  0
 20 22  1  0
 20 23  2  0
 15 10  1  0
  1 24  1  0
  4 25  1  0
  4 26  1  0
  5 27  1  0
  5 28  1  0
  6 29  1  0
  6 30  1  0
  7 31  1  0
  7 32  1  0
  9 33  1  0
  9 34  1  0
 11 35  1  0
 12 36  1  0
 14 37  1  0
 15 38  1  0
 19 39  1  0
 19 40  1  0
 21 41  1  0
 22 42  1  0
M  CHG  2  16   1  17  -1
M  END
$$$$
