
     RDKit          3D

 37 40  0  0  0  0  0  0  0  0999 V2000
    4.2785   -0.4851    1.8365 C   0  0  0  0  0  0  0  0  0  0  0  0
    4.1779    0.3074    0.5888 C   0  0  0  0  0  0  0  0  0  0  0  0
    5.1575    1.0533    0.0571 N   0  0  0  0  0  0  0  0  0  0  0  0
    4.6828    1.5984   -1.0438 N   0  0  0  0  0  0  0  0  0  0  0  0
    3.4106    1.1955   -1.2014 C   0  0  0  0  0  0  0  0  0  0  0  0
    2.4918    1.4858   -2.1865 C   0  0  0  0  0  0  0  0  0  0  0  0
    1.2029    0.9402   -2.1404 C   0  0  0  0  0  0  0  0  0  0  0  0
    0.8691    0.1091   -1.0947 C   0  0  0  0  0  0  0  0  0  0  0  0
   -0.4743   -0.5093   -0.9958 C   0  0  0  0  0  0  0  0  0  0  0  0
   -0.8382   -1.5150   -1.8530 C   0  0  0  0  0  0  0  0  0  0  0  0
   -2.0415   -2.1471   -1.8105 C   0  0  0  0  0  0  0  0  0  0  0  0
   -2.9279   -1.7327   -0.8392 C   0  0  0  0  0  0  0  0  0  0  0  0
   -2.6241   -0.7097    0.0719 C   0  0  0  0  0  0  0  0  0  0  0  0
   -3.8171   -0.2976    1.2392 S   0  0  0  0  0  6  0  0  0  0  0  0
   -5.3094   -1.1718    0.8320 N   0  0  0  0  0  0  0  0  0  0  0  0
   -3.4670   -0.8003    2.6369 O   0  0  0  0  0  0  0  0  0  0  0  0
   -4.2435    1.1209    1.2742 O   0  0  0  0  0  0  0  0  0  0  0  0
   -1.3895   -0.0944   -0.0079 C   0  0  0  0  0  0  0  0  0  0  0  0
   -0.9526    1.0290    0.7890 C   0  0  0  0  0  0  0  0  0  0  0  0
    0.0252    1.8839    0.3627 N   0  0  0  0  0  0  0  0  0  0  0  0
    0.2098    2.8544    1.1949 N   0  0  0  0  0  0  0  0  0  0  0  0
   -0.6299    2.6613    2.1722 N   0  0  0  0  0  0  0  0  0  0  0  0
   -1.3542    1.5350    1.9335 N   0  0  0  0  0  0  0  0  0  0  0  0
    1.8362   -0.1412   -0.1407 C   0  0  0  0  0  0  0  0  0  0  0  0
    3.0728    0.3751   -0.1739 N   0  0  0  0  0  0  0  0  0  0  0  0
    4.3039    0.2032    2.7165 H   0  0  0  0  0  0  0  0  0  0  0  0
    5.1705   -1.1694    1.8323 H   0  0  0  0  0  0  0  0  0  0  0  0
    3.4028   -1.1877    1.9381 H   0  0  0  0  0  0  0  0  0  0  0  0
    2.7229    2.1372   -3.0250 H   0  0  0  0  0  0  0  0  0  0  0  0
    0.4886    1.1653   -2.9062 H   0  0  0  0  0  0  0  0  0  0  0  0
   -0.1290   -1.8290   -2.6111 H   0  0  0  0  0  0  0  0  0  0  0  0
   -2.3328   -2.9457   -2.4895 H   0  0  0  0  0  0  0  0  0  0  0  0
   -3.9117   -2.2101   -0.7594 H   0  0  0  0  0  0  0  0  0  0  0  0
   -5.0725   -2.1664    0.9364 H   0  0  0  0  0  0  0  0  0  0  0  0
   -5.4786   -0.9390   -0.1713 H   0  0  0  0  0  0  0  0  0  0  0  0
   -2.0669    1.1972    2.6124 H   0  0  0  0  0  0  0  0  0  0  0  0
    1.5568   -0.8008    0.6799 H   0  0  0  0  0  0  0  0  0  0  0  0
  1  2  1  0
  2  3  2  0
  3  4  1  0
  4  5  2  0
  5  6  1  0
  6  7  2  0
  7  8  1  0
  8  9  1  0
  9 10  2  0
 10 11  1  0
 11 12  2  0
 12 13  1  0
 13 14  1  0
 14 15  1  0
 14 16  2  0
 14 17  2  0
 13 18  2  0
 18 19  1  0
 19 20  2  0
 20 21  1  0
 21 22  2  0
 22 23  1  0
  8 24  2  0
 24 25  1  0
 25  2  1  0
 25  5  1  0
 18  9  1  0
 23 19  1  0
  1 26  1  0
  1 27  1  0
  1 28  1  0
  6 29  1  0
  7 30  1  0
 10 31  1  0
 11 32  1  0
 12 33  1  0
 15 34  1  0
 15 35  1  0
 23 36  1  0
 24 37  1  0
M  END
$$$$
