
     RDKit          3D

 58 62  0  0  0  0  0  0  0  0999 V2000
   -3.4223    1.9542    3.7757 C   0  0  0  0  0  0  0  0  0  0  0  0
   -3.6681    1.2183    2.5057 C   0  0  0  0  0  0  0  0  0  0  0  0
   -4.8800    1.4280    1.8808 C   0  0  0  0  0  0  0  0  0  0  0  0
   -5.1315    0.7516    0.6938 C   0  0  0  0  0  0  0  0  0  0  0  0
   -4.2073   -0.1089    0.1415 C   0  0  0  0  0  0  0  0  0  0  0  0
   -4.4618   -0.8044   -1.0708 N   0  0  0  0  0  0  0  0  0  0  0  0
   -4.1883   -0.4636   -2.3072 N   0  0  0  0  0  0  0  0  0  0  0  0
   -4.6215   -1.4457   -3.1192 C   0  0  0  0  0  0  0  0  0  0  0  0
   -5.1787   -2.4146   -2.3188 C   0  0  0  0  0  0  0  0  0  0  0  0
   -5.0645   -1.9902   -1.0674 N   0  0  0  0  0  0  0  0  0  0  0  0
   -3.0042   -0.3082    0.7747 C   0  0  0  0  0  0  0  0  0  0  0  0
   -2.0503   -1.2211    0.1619 C   0  0  0  0  0  0  0  0  0  0  0  0
   -2.0774   -2.4594    0.4576 O   0  0  0  0  0  0  0  0  0  0  0  0
   -1.0719   -0.7859   -0.7684 N   0  0  0  0  0  0  0  0  0  0  0  0
   -1.0449    0.6148   -1.0981 C   0  0  0  0  0  0  0  0  0  0  0  0
    0.3208    1.1127   -1.4732 C   0  0  0  0  0  0  0  0  0  0  0  0
    1.1134    0.2327   -2.1440 O   0  0  0  0  0  0  0  0  0  0  0  0
    0.5520   -0.9578   -2.5058 C   0  0  0  0  0  0  0  0  0  0  0  0
   -0.1369   -1.6824   -1.3695 C   0  0  1  0  0  0  0  0  0  0  0  0
    0.8590   -2.2573   -0.3958 C   0  0  0  0  0  0  0  0  0  0  0  0
    1.6765   -1.2411    0.2713 C   0  0  0  0  0  0  0  0  0  0  0  0
    1.2260   -0.7121    1.4531 C   0  0  0  0  0  0  0  0  0  0  0  0
    1.9080    0.2461    2.1659 C   0  0  0  0  0  0  0  0  0  0  0  0
    3.1139    0.6570    1.6005 C   0  0  0  0  0  0  0  0  0  0  0  0
    3.5899    0.1473    0.4214 C   0  0  0  0  0  0  0  0  0  0  0  0
    4.8557    0.5708   -0.1841 C   0  0  0  0  0  0  0  0  0  0  0  0
    5.6731    1.5180    0.3835 C   0  0  0  0  0  0  0  0  0  0  0  0
    6.8791    1.9059   -0.2155 C   0  0  0  0  0  0  0  0  0  0  0  0
    7.2718    1.3358   -1.4014 C   0  0  0  0  0  0  0  0  0  0  0  0
    6.4380    0.3902   -1.9509 C   0  0  0  0  0  0  0  0  0  0  0  0
    5.2783    0.0335   -1.3518 N   0  0  0  0  0  0  0  0  0  0  0  0
    2.8680   -0.8107   -0.2528 C   0  0  0  0  0  0  0  0  0  0  0  0
   -2.7267    0.3581    1.9670 C   0  0  0  0  0  0  0  0  0  0  0  0
   -3.2529    3.0318    3.5653 H   0  0  0  0  0  0  0  0  0  0  0  0
   -2.4811    1.5924    4.2619 H   0  0  0  0  0  0  0  0  0  0  0  0
   -4.2432    1.7891    4.4982 H   0  0  0  0  0  0  0  0  0  0  0  0
   -5.6347    2.1016    2.2890 H   0  0  0  0  0  0  0  0  0  0  0  0
   -6.0754    0.8931    0.1751 H   0  0  0  0  0  0  0  0  0  0  0  0
   -4.5646   -1.5071   -4.2040 H   0  0  0  0  0  0  0  0  0  0  0  0
   -5.6384   -3.3626   -2.5881 H   0  0  0  0  0  0  0  0  0  0  0  0
   -1.3529    1.1787   -0.1950 H   0  0  0  0  0  0  0  0  0  0  0  0
   -1.7178    0.7982   -1.9604 H   0  0  0  0  0  0  0  0  0  0  0  0
    0.8612    1.4218   -0.5368 H   0  0  0  0  0  0  0  0  0  0  0  0
    0.1754    2.0153   -2.1185 H   0  0  0  0  0  0  0  0  0  0  0  0
   -0.1182   -0.8962   -3.3883 H   0  0  0  0  0  0  0  0  0  0  0  0
    1.3963   -1.6356   -2.8288 H   0  0  0  0  0  0  0  0  0  0  0  0
   -0.6756   -2.5460   -1.8355 H   0  0  0  0  0  0  0  0  0  0  0  0
    0.3131   -2.9194    0.3079 H   0  0  0  0  0  0  0  0  0  0  0  0
    1.5210   -2.9416   -0.9894 H   0  0  0  0  0  0  0  0  0  0  0  0
    0.2741   -1.0459    1.8860 H   0  0  0  0  0  0  0  0  0  0  0  0
    1.5489    0.6613    3.0995 H   0  0  0  0  0  0  0  0  0  0  0  0
    3.6708    1.4108    2.1416 H   0  0  0  0  0  0  0  0  0  0  0  0
    5.3956    1.9840    1.3117 H   0  0  0  0  0  0  0  0  0  0  0  0
    7.5081    2.6587    0.2547 H   0  0  0  0  0  0  0  0  0  0  0  0
    8.1868    1.6027   -1.8953 H   0  0  0  0  0  0  0  0  0  0  0  0
    6.7434   -0.0633   -2.8869 H   0  0  0  0  0  0  0  0  0  0  0  0
    3.2493   -1.2275   -1.2096 H   0  0  0  0  0  0  0  0  0  0  0  0
   -1.7766    0.1940    2.4575 H   0  0  0  0  0  0  0  0  0  0  0  0
  1  2  1  0
  2  3  2  0
  3  4  1  0
  4  5  2  0
  5  6  1  0
  6  7  1  0
  7  8  2  0
  8  9  1  0
  9 10  2  0
  5 11  1  0
 11 12  1  0
 12 13  2  0
 12 14  1  0
 14 15  1  0
 15 16  1  0
 16 17  1  0
 17 18  1  0
 18 19  1  0
 19 20  1  0
 20 21  1  0
 21 22  2  0
 22 23  1  0
 23 24  2  0
 24 25  1  0
 25 26  1  0
 26 27  2  0
 27 28  1  0
 28 29  2  0
 29 30  1  0
 30 31  2  0
 25 32  2  0
 11 33  2  0
 33  2  1  0
 10  6  1  0
 19 14  1  0
 32 21  1  0
 31 26  1  0
  1 34  1  0
  1 35  1  0
  1 36  1  0
  3 37  1  0
  4 38  1  0
  8 39  1  0
  9 40  1  0
 15 41  1  0
 15 42  1  0
 16 43  1  0
 16 44  1  0
 18 45  1  0
 18 46  1  0
 19 47  1  6
 20 48  1  0
 20 49  1  0
 22 50  1  0
 23 51  1  0
 24 52  1  0
 27 53  1  0
 28 54  1  0
 29 55  1  0
 30 56  1  0
 32 57  1  0
 33 58  1  0
M  END
$$$$
