
     RDKit          3D

 38 38  0  0  0  0  0  0  0  0999 V2000
    1.3883   -0.2685   -0.6584 C   0  0  2  0  0  0  0  0  0  0  0  0
    1.4469    0.6995   -1.6595 O   0  0  0  0  0  0  0  0  0  0  0  0
    0.3027    0.1814    0.3096 C   0  0  0  0  0  0  0  0  0  0  0  0
   -0.9248    0.2569   -0.4186 N   0  0  0  0  0  0  0  0  0  0  0  0
   -1.4405   -1.0059   -0.8496 C   0  0  0  0  0  0  0  0  0  0  0  0
   -2.8739   -0.6849   -1.2123 C   0  0  1  0  0  0  0  0  0  0  0  0
   -3.6989   -1.5295   -0.4596 O   0  0  0  0  0  0  0  0  0  0  0  0
   -3.0967    0.7644   -0.8374 C   0  0  2  0  0  0  0  0  0  0  0  0
   -2.8895    1.6128   -1.9357 O   0  0  0  0  0  0  0  0  0  0  0  0
   -1.9822    0.9965    0.1597 C   0  0  1  0  0  0  0  0  0  0  0  0
   -2.4680    0.5051    1.5046 C   0  0  0  0  0  0  0  0  0  0  0  0
   -1.4495    0.5233    2.4682 O   0  0  0  0  0  0  0  0  0  0  0  0
    2.7382   -0.3851   -0.0346 C   0  0  0  0  0  0  0  0  0  0  0  0
    2.7417   -1.4002    1.1085 C   0  0  0  0  0  0  0  0  0  0  0  0
    2.3633   -2.6592    0.6813 O   0  0  0  0  0  0  0  0  0  0  0  0
    3.1220    0.8123    0.5100 O   0  0  0  0  0  0  0  0  0  0  0  0
    3.9849    1.6972    0.4782 S   0  0  0  0  0  0  0  0  0  0  0  0
    5.2744    0.9483   -1.0630 O   0  0  0  0  0  1  0  0  0  0  0  0
    5.1892    2.2705    1.2796 O   0  0  0  0  0  1  0  0  0  0  0  0
    3.6515    3.0011   -0.8263 O   0  0  0  0  0  1  0  0  0  0  0  0
    1.0465   -1.2216   -1.1270 H   0  0  0  0  0  0  0  0  0  0  0  0
    1.3885    0.3026   -2.5704 H   0  0  0  0  0  0  0  0  0  0  0  0
    0.5638    1.2170    0.6098 H   0  0  0  0  0  0  0  0  0  0  0  0
    0.2799   -0.4200    1.2208 H   0  0  0  0  0  0  0  0  0  0  0  0
   -1.3668   -1.8116   -0.0931 H   0  0  0  0  0  0  0  0  0  0  0  0
   -0.8899   -1.3464   -1.7577 H   0  0  0  0  0  0  0  0  0  0  0  0
   -3.0494   -0.8556   -2.3015 H   0  0  0  0  0  0  0  0  0  0  0  0
   -4.5614   -1.0351   -0.3600 H   0  0  0  0  0  0  0  0  0  0  0  0
   -4.1008    0.9303   -0.3975 H   0  0  0  0  0  0  0  0  0  0  0  0
   -2.7869    1.0219   -2.7252 H   0  0  0  0  0  0  0  0  0  0  0  0
   -1.6971    2.0679    0.1910 H   0  0  0  0  0  0  0  0  0  0  0  0
   -3.2555    1.1832    1.8979 H   0  0  0  0  0  0  0  0  0  0  0  0
   -2.8876   -0.5003    1.4675 H   0  0  0  0  0  0  0  0  0  0  0  0
   -1.8012    0.6766    3.3835 H   0  0  0  0  0  0  0  0  0  0  0  0
    3.4334   -0.7496   -0.8247 H   0  0  0  0  0  0  0  0  0  0  0  0
    2.0771   -1.0802    1.9108 H   0  0  0  0  0  0  0  0  0  0  0  0
    3.7919   -1.4579    1.4848 H   0  0  0  0  0  0  0  0  0  0  0  0
    2.4367   -3.2574    1.4463 H   0  0  0  0  0  0  0  0  0  0  0  0
  1  2  1  0
  1  3  1  0
  3  4  1  0
  4  5  1  0
  5  6  1  0
  6  7  1  0
  6  8  1  0
  8  9  1  0
  8 10  1  0
 10 11  1  0
 11 12  1  0
  1 13  1  0
 13 14  1  0
 14 15  1  0
 13 16  1  0
 16 17  1  0
 17 18  1  0
 17 19  1  0
 17 20  1  0
 10  4  1  0
  1 21  1  6
  2 22  1  0
  3 23  1  0
  3 24  1  0
  5 25  1  0
  5 26  1  0
  6 27  1  6
  7 28  1  0
  8 29  1  1
  9 30  1  0
 10 31  1  1
 11 32  1  0
 11 33  1  0
 12 34  1  0
 13 35  1  0
 14 36  1  0
 14 37  1  0
 15 38  1  0
M  CHG  3  18  -1  19  -1  20  -1
M  END
$$$$
