
     RDKit          3D

 47 50  0  0  0  0  0  0  0  0999 V2000
    7.0077   -0.7833   -2.5176 C   0  0  0  0  0  0  0  0  0  0  0  0
    6.5855   -1.2886   -0.8569 S   0  0  0  0  0  6  0  0  0  0  0  0
    7.3953   -0.5421    0.1632 O   0  0  0  0  0  0  0  0  0  0  0  0
    6.9298   -2.7675   -0.7621 O   0  0  0  0  0  0  0  0  0  0  0  0
    4.8813   -1.0517   -0.5660 N   0  0  0  0  0  0  0  0  0  0  0  0
    4.3134   -0.2503    0.3491 C   0  0  0  0  0  0  0  0  0  0  0  0
    2.9259   -0.3355    0.2685 C   0  0  0  0  0  0  0  0  0  0  0  0
    2.6927   -1.2228   -0.7344 C   0  0  0  0  0  0  0  0  0  0  0  0
    3.8859   -1.6298   -1.2097 N   0  0  0  0  0  0  0  0  0  0  0  0
    1.2390   -1.3914   -0.9068 C   0  0  0  0  0  0  0  0  0  0  0  0
    0.6408   -0.7275    0.2268 N   0  0  0  0  0  0  0  0  0  0  0  0
   -0.5752   -0.0396   -0.1659 C   0  0  1  0  0  0  0  0  0  0  0  0
   -1.5247   -1.0617   -0.7032 C   0  0  0  0  0  0  0  0  0  0  0  0
   -2.8331   -0.8725   -0.4708 O   0  0  0  0  0  0  0  0  0  0  0  0
   -3.2446   -0.3746    0.7194 C   0  0  2  0  0  0  0  0  0  0  0  0
   -4.0915    0.8101    0.4683 C   0  0  0  0  0  0  0  0  0  0  0  0
   -3.7098    1.6277   -0.5782 C   0  0  0  0  0  0  0  0  0  0  0  0
   -4.4295    2.7707   -0.9105 C   0  0  0  0  0  0  0  0  0  0  0  0
   -4.0945    3.5932   -1.9192 F   0  0  0  0  0  0  0  0  0  0  0  0
   -5.5426    3.0404   -0.1380 C   0  0  0  0  0  0  0  0  0  0  0  0
   -5.9313    2.2276    0.9106 C   0  0  0  0  0  0  0  0  0  0  0  0
   -5.2059    1.1141    1.2126 C   0  0  0  0  0  0  0  0  0  0  0  0
   -5.5401    0.2722    2.2385 F   0  0  0  0  0  0  0  0  0  0  0  0
   -2.1371   -0.1490    1.6851 C   0  0  1  0  0  0  0  0  0  0  0  0
   -1.5160   -1.4628    1.9308 N   0  0  0  0  0  0  0  0  0  0  0  0
   -1.0914    0.6976    1.0384 C   0  0  0  0  0  0  0  0  0  0  0  0
    1.6228    0.1267    0.8058 C   0  0  0  0  0  0  0  0  0  0  0  0
    7.7989   -1.4077   -2.9340 H   0  0  0  0  0  0  0  0  0  0  0  0
    7.2410    0.2923   -2.5062 H   0  0  0  0  0  0  0  0  0  0  0  0
    6.0587   -0.8761   -3.1153 H   0  0  0  0  0  0  0  0  0  0  0  0
    4.8770    0.3606    1.0354 H   0  0  0  0  0  0  0  0  0  0  0  0
    0.9755   -2.4746   -0.8384 H   0  0  0  0  0  0  0  0  0  0  0  0
    0.9153   -0.9942   -1.8779 H   0  0  0  0  0  0  0  0  0  0  0  0
   -0.2797    0.6901   -0.9600 H   0  0  0  0  0  0  0  0  0  0  0  0
   -1.2406   -2.0919   -0.3557 H   0  0  0  0  0  0  0  0  0  0  0  0
   -1.3634   -1.0973   -1.8169 H   0  0  0  0  0  0  0  0  0  0  0  0
   -3.9336   -1.1408    1.1861 H   0  0  0  0  0  0  0  0  0  0  0  0
   -2.8416    1.4394   -1.2003 H   0  0  0  0  0  0  0  0  0  0  0  0
   -6.1291    3.9386   -0.3808 H   0  0  0  0  0  0  0  0  0  0  0  0
   -6.8041    2.4424    1.5136 H   0  0  0  0  0  0  0  0  0  0  0  0
   -2.4591    0.2069    2.6731 H   0  0  0  0  0  0  0  0  0  0  0  0
   -0.6816   -1.2563    2.5388 H   0  0  0  0  0  0  0  0  0  0  0  0
   -2.1829   -2.0941    2.4231 H   0  0  0  0  0  0  0  0  0  0  0  0
   -0.2888    0.8743    1.7968 H   0  0  0  0  0  0  0  0  0  0  0  0
   -1.4321    1.6966    0.7225 H   0  0  0  0  0  0  0  0  0  0  0  0
    1.4337    1.1990    0.5972 H   0  0  0  0  0  0  0  0  0  0  0  0
    1.6834   -0.0368    1.9213 H   0  0  0  0  0  0  0  0  0  0  0  0
  1  2  1  0
  2  3  2  0
  2  4  2  0
  2  5  1  0
  5  6  1  0
  6  7  2  0
  7  8  1  0
  8  9  2  0
  8 10  1  0
 10 11  1  0
 11 12  1  0
 12 13  1  0
 13 14  1  0
 14 15  1  0
 15 16  1  0
 16 17  2  0
 17 18  1  0
 18 19  1  0
 18 20  2  0
 20 21  1  0
 21 22  2  0
 22 23  1  0
 15 24  1  0
 24 25  1  0
 24 26  1  0
 11 27  1  0
  9  5  1  0
 26 12  1  0
 27  7  1  0
 22 16  1  0
  1 28  1  0
  1 29  1  0
  1 30  1  0
  6 31  1  0
 10 32  1  0
 10 33  1  0
 12 34  1  6
 13 35  1  0
 13 36  1  0
 15 37  1  1
 17 38  1  0
 20 39  1  0
 21 40  1  0
 24 41  1  1
 25 42  1  0
 25 43  1  0
 26 44  1  0
 26 45  1  0
 27 46  1  0
 27 47  1  0
M  END
$$$$
