
     RDKit          3D

 46 49  0  0  0  0  0  0  0  0999 V2000
   -1.2848   -1.6180   -2.4445 O   0  0  0  0  0  0  0  0  0  0  0  0
   -1.1871   -1.0936   -1.3116 C   0  0  0  0  0  0  0  0  0  0  0  0
   -0.1384   -0.1231   -1.1067 N   0  0  0  0  0  0  0  0  0  0  0  0
    0.6870    0.5107   -2.0990 C   0  0  0  0  0  0  0  0  0  0  0  0
    1.5111    1.5087   -1.2765 C   0  0  0  0  0  0  0  0  0  0  0  0
    1.7896    0.5907   -0.0598 C   0  0  0  0  0  0  0  0  0  0  0  0
    2.5607   -0.5731   -0.5727 C   0  0  0  0  0  0  0  0  0  0  0  0
    3.7593   -0.9697    0.2703 C   0  0  0  0  0  0  0  0  0  0  0  0
    4.5693    0.1832    0.7644 C   0  0  0  0  0  0  0  0  0  0  0  0
    3.9212    1.5265    0.6037 C   0  0  0  0  0  0  0  0  0  0  0  0
    2.4712    1.3699    1.0026 C   0  0  0  0  0  0  0  0  0  0  0  0
    0.3506    0.2314    0.2466 C   0  0  0  0  0  0  0  0  0  0  0  0
   -2.1245   -1.4784   -0.2575 C   0  0  0  0  0  0  0  0  0  0  0  0
   -2.9864   -0.3634    0.2237 C   0  0  0  0  0  0  0  0  0  0  0  0
   -3.7674    0.3270   -0.7187 C   0  0  0  0  0  0  0  0  0  0  0  0
   -4.6076    1.3510   -0.3823 C   0  0  0  0  0  0  0  0  0  0  0  0
   -4.6965    1.7286    0.9367 C   0  0  0  0  0  0  0  0  0  0  0  0
   -3.9209    1.0504    1.8746 C   0  0  0  0  0  0  0  0  0  0  0  0
   -3.0790    0.0141    1.5082 C   0  0  0  0  0  0  0  0  0  0  0  0
   -1.8186   -2.5818    0.6815 C   0  0  0  0  0  0  0  0  0  0  0  0
   -2.8301   -2.8340   -0.3993 C   0  0  0  0  0  0  0  0  0  0  0  0
    1.3362   -0.2360   -2.5676 H   0  0  0  0  0  0  0  0  0  0  0  0
    0.0791    1.0653   -2.8593 H   0  0  0  0  0  0  0  0  0  0  0  0
    2.4061    1.8581   -1.7654 H   0  0  0  0  0  0  0  0  0  0  0  0
    0.7995    2.2718   -0.9064 H   0  0  0  0  0  0  0  0  0  0  0  0
    1.9659   -1.4868   -0.7288 H   0  0  0  0  0  0  0  0  0  0  0  0
    3.0165   -0.2940   -1.5687 H   0  0  0  0  0  0  0  0  0  0  0  0
    3.5230   -1.6841    1.0651 H   0  0  0  0  0  0  0  0  0  0  0  0
    4.4449   -1.5362   -0.4339 H   0  0  0  0  0  0  0  0  0  0  0  0
    5.5701    0.2715    0.2536 H   0  0  0  0  0  0  0  0  0  0  0  0
    4.8260    0.0483    1.8494 H   0  0  0  0  0  0  0  0  0  0  0  0
    4.4532    2.2516    1.2496 H   0  0  0  0  0  0  0  0  0  0  0  0
    3.9631    1.7867   -0.4545 H   0  0  0  0  0  0  0  0  0  0  0  0
    2.4351    0.8614    2.0014 H   0  0  0  0  0  0  0  0  0  0  0  0
    2.0296    2.3776    1.1057 H   0  0  0  0  0  0  0  0  0  0  0  0
   -0.2225    0.9950    0.7461 H   0  0  0  0  0  0  0  0  0  0  0  0
    0.4341   -0.6986    0.8875 H   0  0  0  0  0  0  0  0  0  0  0  0
   -3.6908    0.0034   -1.7588 H   0  0  0  0  0  0  0  0  0  0  0  0
   -5.2317    1.8927   -1.0878 H   0  0  0  0  0  0  0  0  0  0  0  0
   -5.3282    2.5165    1.2668 H   0  0  0  0  0  0  0  0  0  0  0  0
   -3.9948    1.3575    2.9152 H   0  0  0  0  0  0  0  0  0  0  0  0
   -2.5060   -0.4721    2.3165 H   0  0  0  0  0  0  0  0  0  0  0  0
   -2.1327   -2.4719    1.7220 H   0  0  0  0  0  0  0  0  0  0  0  0
   -0.8735   -3.1075    0.5583 H   0  0  0  0  0  0  0  0  0  0  0  0
   -3.8852   -2.8789   -0.0230 H   0  0  0  0  0  0  0  0  0  0  0  0
   -2.5961   -3.4487   -1.2671 H   0  0  0  0  0  0  0  0  0  0  0  0
  1  2  2  0
  2  3  1  0
  3  4  1  0
  4  5  1  0
  5  6  1  0
  6  7  1  0
  7  8  1  0
  8  9  1  0
  9 10  1  0
 10 11  1  0
  6 12  1  0
  2 13  1  0
 13 14  1  0
 14 15  2  0
 15 16  1  0
 16 17  2  0
 17 18  1  0
 18 19  2  0
 13 20  1  0
 20 21  1  0
 12  3  1  0
 21 13  1  0
 11  6  1  0
 19 14  1  0
  4 22  1  0
  4 23  1  0
  5 24  1  0
  5 25  1  0
  7 26  1  0
  7 27  1  0
  8 28  1  0
  8 29  1  0
  9 30  1  0
  9 31  1  0
 10 32  1  0
 10 33  1  0
 11 34  1  0
 11 35  1  0
 12 36  1  0
 12 37  1  0
 15 38  1  0
 16 39  1  0
 17 40  1  0
 18 41  1  0
 19 42  1  0
 20 43  1  0
 20 44  1  0
 21 45  1  0
 21 46  1  0
M  END
$$$$
