
     RDKit          3D

 42 44  0  0  0  0  0  0  0  0999 V2000
    2.0816   -3.5462    0.5189 Cl  0  0  0  0  0  0  0  0  0  0  0  0
    0.4043   -3.0893    0.6662 C   0  0  0  0  0  0  0  0  0  0  0  0
   -0.0793   -1.8147    0.5353 C   0  0  0  0  0  0  0  0  0  0  0  0
    0.7640   -0.7278    0.2298 N   0  0  0  0  0  0  0  0  0  0  0  0
    2.1701   -0.9329   -0.0307 C   0  0  0  0  0  0  0  0  0  0  0  0
    2.8780    0.3206   -0.5720 C   0  0  0  0  0  0  0  0  0  0  0  0
    2.7090    1.4406    0.2829 N   0  0  0  0  0  0  0  0  0  0  0  0
    3.8681    1.9549    0.9032 C   0  0  0  0  0  0  0  0  0  0  0  0
    4.7372    2.5588   -0.1098 C   0  0  0  0  0  0  0  0  0  0  0  0
    5.4777    3.0664   -0.9443 C   0  0  0  0  0  0  0  0  0  0  0  0
    1.5268    1.3672    1.0891 C   0  0  0  0  0  0  0  0  0  0  0  0
    0.5275    0.6850    0.1283 C   0  0  0  0  0  0  0  0  0  0  0  0
   -1.4342   -1.7050    0.7068 C   0  0  0  0  0  0  0  0  0  0  0  0
   -2.1785   -0.5122    0.5976 N   0  0  0  0  0  0  0  0  0  0  0  0
   -2.6421   -0.3858   -0.7643 C   0  0  0  0  0  0  0  0  0  0  0  0
   -2.3765   -1.2477   -1.6407 O   0  0  0  0  0  0  0  0  0  0  0  0
   -3.4553    0.7867   -1.1579 C   0  0  0  0  0  0  0  0  0  0  0  0
   -3.9332    0.9745   -2.4376 C   0  0  0  0  0  0  0  0  0  0  0  0
   -4.6210    2.1663   -2.3522 C   0  0  0  0  0  0  0  0  0  0  0  0
   -4.5345    2.6469   -1.0434 C   0  0  0  0  0  0  0  0  0  0  0  0
   -5.2168    4.2043   -0.1732 Br  0  0  0  0  0  0  0  0  0  0  0  0
   -3.8231    1.7750   -0.3774 O   0  0  0  0  0  0  0  0  0  0  0  0
   -2.2751   -2.7601    0.9887 C   0  0  0  0  0  0  0  0  0  0  0  0
   -1.7586   -4.0542    1.1182 C   0  0  0  0  0  0  0  0  0  0  0  0
   -0.3796   -4.1599    0.9421 C   0  0  0  0  0  0  0  0  0  0  0  0
    2.7546   -1.2129    0.8366 H   0  0  0  0  0  0  0  0  0  0  0  0
    2.2436   -1.6064   -0.9251 H   0  0  0  0  0  0  0  0  0  0  0  0
    3.9447    0.0485   -0.6352 H   0  0  0  0  0  0  0  0  0  0  0  0
    2.5573    0.5681   -1.5941 H   0  0  0  0  0  0  0  0  0  0  0  0
    4.4762    1.2242    1.4576 H   0  0  0  0  0  0  0  0  0  0  0  0
    3.5678    2.7659    1.6007 H   0  0  0  0  0  0  0  0  0  0  0  0
    6.1125    3.5198   -1.6630 H   0  0  0  0  0  0  0  0  0  0  0  0
    1.7490    0.7184    1.9592 H   0  0  0  0  0  0  0  0  0  0  0  0
    1.1208    2.3120    1.4436 H   0  0  0  0  0  0  0  0  0  0  0  0
    0.7478    1.0626   -0.9035 H   0  0  0  0  0  0  0  0  0  0  0  0
   -0.4839    1.0393    0.3353 H   0  0  0  0  0  0  0  0  0  0  0  0
   -2.4172    0.2171    1.3366 H   0  0  0  0  0  0  0  0  0  0  0  0
   -3.8409    0.3881   -3.3409 H   0  0  0  0  0  0  0  0  0  0  0  0
   -5.1709    2.7357   -3.0855 H   0  0  0  0  0  0  0  0  0  0  0  0
   -3.3536   -2.6989    1.1296 H   0  0  0  0  0  0  0  0  0  0  0  0
   -2.4020   -4.8965    1.3392 H   0  0  0  0  0  0  0  0  0  0  0  0
   -0.0422   -5.1967    1.0562 H   0  0  0  0  0  0  0  0  0  0  0  0
  1  2  1  0
  2  3  2  0
  3  4  1  0
  4  5  1  0
  5  6  1  0
  6  7  1  0
  7  8  1  0
  8  9  1  0
  9 10  3  0
  7 11  1  0
 11 12  1  0
  3 13  1  0
 13 14  1  0
 14 15  1  0
 15 16  2  0
 15 17  1  0
 17 18  2  0
 18 19  1  0
 19 20  2  0
 20 21  1  0
 20 22  1  0
 13 23  2  0
 23 24  1  0
 24 25  2  0
 25  2  1  0
 12  4  1  0
 22 17  1  0
  5 26  1  0
  5 27  1  0
  6 28  1  0
  6 29  1  0
  8 30  1  0
  8 31  1  0
 10 32  1  0
 11 33  1  0
 11 34  1  0
 12 35  1  0
 12 36  1  0
 14 37  1  0
 18 38  1  0
 19 39  1  0
 23 40  1  0
 24 41  1  0
 25 42  1  0
M  END
$$$$
