
     RDKit          3D

 28 30  0  0  0  0  0  0  0  0999 V2000
   -1.8314    2.9683   -0.8815 O   0  0  0  0  0  0  0  0  0  0  0  0
   -1.3236    1.8800   -0.5374 C   0  0  0  0  0  0  0  0  0  0  0  0
    0.0600    1.6951   -0.4702 C   0  0  0  0  0  0  0  0  0  0  0  0
    0.6019    0.4813   -0.0867 C   0  0  0  0  0  0  0  0  0  0  0  0
    2.0442    0.2496   -0.0044 C   0  0  0  0  0  0  0  0  0  0  0  0
    2.9789    1.2101   -0.2987 C   0  0  0  0  0  0  0  0  0  0  0  0
    4.3316    0.8694   -0.1830 C   0  0  0  0  0  0  0  0  0  0  0  0
    4.7425   -0.3828    0.2117 C   0  0  0  0  0  0  0  0  0  0  0  0
    3.7836   -1.3447    0.5062 C   0  0  0  0  0  0  0  0  0  0  0  0
    2.4733   -0.9993    0.3893 C   0  0  0  0  0  0  0  0  0  0  0  0
   -0.2620   -0.4625    0.2029 O   0  0  0  0  0  0  0  0  0  0  0  0
   -1.5503   -0.3468    0.1580 C   0  0  0  0  0  0  0  0  0  0  0  0
   -2.3953   -1.4094    0.4849 C   0  0  0  0  0  0  0  0  0  0  0  0
   -3.7632   -1.3251    0.4493 C   0  0  0  0  0  0  0  0  0  0  0  0
   -4.5506   -2.4410    0.7932 O   0  0  0  0  0  0  0  0  0  0  0  0
   -4.3504   -0.1362    0.0732 C   0  0  0  0  0  0  0  0  0  0  0  0
   -3.5380    0.9333   -0.2561 C   0  0  0  0  0  0  0  0  0  0  0  0
   -2.1581    0.8339   -0.2156 C   0  0  0  0  0  0  0  0  0  0  0  0
    0.6953    2.5204   -0.7242 H   0  0  0  0  0  0  0  0  0  0  0  0
    2.6858    2.1888   -0.6070 H   0  0  0  0  0  0  0  0  0  0  0  0
    5.1051    1.6058   -0.4083 H   0  0  0  0  0  0  0  0  0  0  0  0
    5.7917   -0.6537    0.3035 H   0  0  0  0  0  0  0  0  0  0  0  0
    4.0659   -2.3442    0.8209 H   0  0  0  0  0  0  0  0  0  0  0  0
    1.7337   -1.7800    0.6287 H   0  0  0  0  0  0  0  0  0  0  0  0
   -1.9094   -2.3447    0.7809 H   0  0  0  0  0  0  0  0  0  0  0  0
   -4.0988   -3.3357    0.8893 H   0  0  0  0  0  0  0  0  0  0  0  0
   -5.4234   -0.0293    0.0325 H   0  0  0  0  0  0  0  0  0  0  0  0
   -3.9390    1.8996   -0.5612 H   0  0  0  0  0  0  0  0  0  0  0  0
  1  2  2  0
  2  3  1  0
  3  4  2  0
  4  5  1  0
  5  6  2  0
  6  7  1  0
  7  8  2  0
  8  9  1  0
  9 10  2  0
  4 11  1  0
 11 12  1  0
 12 13  2  0
 13 14  1  0
 14 15  1  0
 14 16  2  0
 16 17  1  0
 17 18  2  0
 18  2  1  0
 10  5  1  0
 18 12  1  0
  3 19  1  0
  6 20  1  0
  7 21  1  0
  8 22  1  0
  9 23  1  0
 10 24  1  0
 13 25  1  0
 15 26  1  0
 16 27  1  0
 17 28  1  0
M  END
$$$$
