
     RDKit          3D

 63 67  0  0  0  0  0  0  0  0999 V2000
    5.2213   -1.1060   -3.3140 C   0  0  0  0  0  0  0  0  0  0  0  0
    4.4400   -1.3681   -2.0773 C   0  0  0  0  0  0  0  0  0  0  0  0
    3.4186   -0.5386   -1.6468 C   0  0  0  0  0  0  0  0  0  0  0  0
    2.6878   -0.7731   -0.5007 C   0  0  0  0  0  0  0  0  0  0  0  0
    1.6386    0.0843   -0.0598 N   0  0  0  0  0  0  0  0  0  0  0  0
    0.2911   -0.0958   -0.4780 C   0  0  0  0  0  0  0  0  0  0  0  0
   -0.1623   -0.9822   -1.2668 O   0  0  0  0  0  0  0  0  0  0  0  0
   -0.5531    0.9149    0.1418 C   0  0  0  0  0  0  0  0  0  0  0  0
   -1.8436    1.3625    0.2314 C   0  0  0  0  0  0  0  0  0  0  0  0
   -3.0317    0.8879   -0.3834 N   0  0  0  0  0  0  0  0  0  0  0  0
   -3.8360   -0.1006    0.2460 C   0  0  0  0  0  0  0  0  0  0  0  0
   -3.5211   -0.5842    1.3640 O   0  0  0  0  0  0  0  0  0  0  0  0
   -5.0840   -0.6164   -0.3729 C   0  0  0  0  0  0  0  0  0  0  0  0
   -5.7644   -1.6444    0.4601 C   0  0  0  0  0  0  0  0  0  0  0  0
   -6.9558   -2.1032   -0.1835 N   0  0  0  0  0  0  0  0  0  0  0  0
   -7.6426   -3.1088    0.6070 C   0  0  0  0  0  0  0  0  0  0  0  0
   -7.8404   -1.0519   -0.5937 C   0  0  0  0  0  0  0  0  0  0  0  0
   -1.7746    2.4542    1.1042 C   0  0  0  0  0  0  0  0  0  0  0  0
   -0.4898    2.6182    1.4943 N   0  0  0  0  0  0  0  0  0  0  0  0
   -0.0480    3.6743    2.4148 C   0  0  0  0  0  0  0  0  0  0  0  0
    0.2816    1.6818    0.9145 C   0  0  0  0  0  0  0  0  0  0  0  0
    1.6867    1.2046    0.8212 C   0  0  0  0  0  0  0  0  0  0  0  0
    2.5988    2.2845    0.4272 C   0  0  0  0  0  0  0  0  0  0  0  0
    3.4394    2.8428    1.3627 C   0  0  0  0  0  0  0  0  0  0  0  0
    4.3198    3.8774    1.0219 C   0  0  0  0  0  0  0  0  0  0  0  0
    4.3475    4.3451   -0.2665 C   0  0  0  0  0  0  0  0  0  0  0  0
    5.4381    5.6467   -0.7472 Cl  0  0  0  0  0  0  0  0  0  0  0  0
    3.5179    3.8013   -1.2105 C   0  0  0  0  0  0  0  0  0  0  0  0
    2.6482    2.7719   -0.8521 C   0  0  0  0  0  0  0  0  0  0  0  0
    3.0225   -1.8887    0.2121 N   0  0  0  0  0  0  0  0  0  0  0  0
    3.9923   -2.7018   -0.1708 N   0  0  0  0  0  0  0  0  0  0  0  0
    4.5053   -3.8525    0.3559 C   0  0  0  0  0  0  0  0  0  0  0  0
    3.9971   -4.4637    1.6061 C   0  0  0  0  0  0  0  0  0  0  0  0
    4.1419   -3.5934    2.6534 F   0  0  0  0  0  0  0  0  0  0  0  0
    2.6596   -4.8228    1.4444 F   0  0  0  0  0  0  0  0  0  0  0  0
    5.5015   -4.3079   -0.4221 N   0  0  0  0  0  0  0  0  0  0  0  0
    5.6095   -3.4509   -1.4236 N   0  0  0  0  0  0  0  0  0  0  0  0
    4.7036   -2.4696   -1.2904 C   0  0  0  0  0  0  0  0  0  0  0  0
    4.5299   -0.5439   -4.0061 H   0  0  0  0  0  0  0  0  0  0  0  0
    5.5546   -2.0393   -3.8037 H   0  0  0  0  0  0  0  0  0  0  0  0
    6.0548   -0.4272   -3.0499 H   0  0  0  0  0  0  0  0  0  0  0  0
    3.2132    0.3186   -2.2623 H   0  0  0  0  0  0  0  0  0  0  0  0
   -3.3528    1.2390   -1.3009 H   0  0  0  0  0  0  0  0  0  0  0  0
   -4.8160   -1.0030   -1.3686 H   0  0  0  0  0  0  0  0  0  0  0  0
   -5.7708    0.2583   -0.4625 H   0  0  0  0  0  0  0  0  0  0  0  0
   -5.1318   -2.5232    0.6848 H   0  0  0  0  0  0  0  0  0  0  0  0
   -6.0541   -1.2126    1.4405 H   0  0  0  0  0  0  0  0  0  0  0  0
   -6.8610   -3.8004    0.9975 H   0  0  0  0  0  0  0  0  0  0  0  0
   -8.2241   -2.6779    1.4386 H   0  0  0  0  0  0  0  0  0  0  0  0
   -8.3099   -3.7153   -0.0226 H   0  0  0  0  0  0  0  0  0  0  0  0
   -7.4307   -0.5534   -1.4749 H   0  0  0  0  0  0  0  0  0  0  0  0
   -8.8078   -1.5374   -0.9054 H   0  0  0  0  0  0  0  0  0  0  0  0
   -8.1105   -0.3583    0.2263 H   0  0  0  0  0  0  0  0  0  0  0  0
   -2.6064    3.0811    1.4281 H   0  0  0  0  0  0  0  0  0  0  0  0
   -0.8860    3.8930    3.1269 H   0  0  0  0  0  0  0  0  0  0  0  0
    0.1158    4.6265    1.8610 H   0  0  0  0  0  0  0  0  0  0  0  0
    0.8153    3.3554    3.0119 H   0  0  0  0  0  0  0  0  0  0  0  0
    1.9712    0.8235    1.8330 H   0  0  0  0  0  0  0  0  0  0  0  0
    3.4722    2.5253    2.3952 H   0  0  0  0  0  0  0  0  0  0  0  0
    4.9842    4.3264    1.7383 H   0  0  0  0  0  0  0  0  0  0  0  0
    3.5377    4.1626   -2.2103 H   0  0  0  0  0  0  0  0  0  0  0  0
    1.9958    2.3426   -1.5895 H   0  0  0  0  0  0  0  0  0  0  0  0
    4.5558   -5.3885    1.8471 H   0  0  0  0  0  0  0  0  0  0  0  0
  1  2  1  0
  2  3  2  0
  3  4  1  0
  4  5  1  0
  5  6  1  0
  6  7  2  0
  6  8  1  0
  8  9  1  0
  9 10  1  0
 10 11  1  0
 11 12  2  0
 11 13  1  0
 13 14  1  0
 14 15  1  0
 15 16  1  0
 15 17  1  0
  9 18  2  0
 18 19  1  0
 19 20  1  0
 19 21  1  0
 21 22  1  0
 22 23  1  0
 23 24  2  0
 24 25  1  0
 25 26  2  0
 26 27  1  0
 26 28  1  0
 28 29  2  0
  4 30  2  0
 30 31  1  0
 31 32  1  0
 32 33  1  0
 33 34  1  0
 33 35  1  0
 32 36  2  0
 36 37  1  0
 37 38  2  0
 38  2  1  0
 22  5  1  0
 29 23  1  0
 38 31  1  0
 21  8  2  0
  1 39  1  0
  1 40  1  0
  1 41  1  0
  3 42  1  0
 10 43  1  0
 13 44  1  0
 13 45  1  0
 14 46  1  0
 14 47  1  0
 16 48  1  0
 16 49  1  0
 16 50  1  0
 17 51  1  0
 17 52  1  0
 17 53  1  0
 18 54  1  0
 20 55  1  0
 20 56  1  0
 20 57  1  0
 22 58  1  0
 24 59  1  0
 25 60  1  0
 28 61  1  0
 29 62  1  0
 33 63  1  0
M  END
$$$$
