
     RDKit          3D

 73 78  0  0  0  0  0  0  0  0999 V2000
   -3.5252    7.9719    0.6658 C   0  0  0  0  0  0  0  0  0  0  0  0
   -2.9033    6.7800    1.0770 O   0  0  0  0  0  0  0  0  0  0  0  0
   -2.4753    5.8662    0.1376 C   0  0  0  0  0  0  0  0  0  0  0  0
   -1.8554    4.6775    0.5375 C   0  0  0  0  0  0  0  0  0  0  0  0
   -1.4363    3.7799   -0.4240 C   0  0  0  0  0  0  0  0  0  0  0  0
   -0.8012    2.5581   -0.0803 N   0  0  0  0  0  0  0  0  0  0  0  0
    0.5921    2.2845    0.1037 C   0  0  0  0  0  0  0  0  0  0  0  0
    1.4139    3.1697    0.4502 O   0  0  0  0  0  0  0  0  0  0  0  0
    0.8360    0.9073   -0.1662 N   0  0  0  0  0  0  0  0  0  0  0  0
    2.0740    0.1798   -0.1161 C   0  0  0  0  0  0  0  0  0  0  0  0
    2.1088   -1.1722   -0.3767 C   0  0  0  0  0  0  0  0  0  0  0  0
    3.3357   -1.8379   -0.3221 C   0  0  0  0  0  0  0  0  0  0  0  0
    4.5069   -1.1899   -0.0175 C   0  0  0  0  0  0  0  0  0  0  0  0
    5.7906   -1.9046    0.0352 C   0  0  0  0  0  0  0  0  0  0  0  0
    6.0547   -2.9841   -0.7710 C   0  0  0  0  0  0  0  0  0  0  0  0
    7.2649   -3.6501   -0.7177 C   0  0  0  0  0  0  0  0  0  0  0  0
    8.2565   -3.2547    0.1499 C   0  0  0  0  0  0  0  0  0  0  0  0
    9.5480   -3.9317    0.2349 C   0  0  0  0  0  0  0  0  0  0  0  0
   10.4041   -3.5279    1.0364 O   0  0  0  0  0  0  0  0  0  0  0  0
    9.8436   -5.0184   -0.5598 O   0  0  0  0  0  0  0  0  0  0  0  0
    7.9849   -2.1711    0.9559 C   0  0  0  0  0  0  0  0  0  0  0  0
    9.2195   -1.6365    2.0726 Cl  0  0  0  0  0  0  0  0  0  0  0  0
    6.7816   -1.4988    0.9117 C   0  0  0  0  0  0  0  0  0  0  0  0
    4.4370    0.1498    0.2355 C   0  0  0  0  0  0  0  0  0  0  0  0
    3.2224    0.8504    0.1896 C   0  0  0  0  0  0  0  0  0  0  0  0
   -0.4577    0.3835   -0.5154 C   0  0  0  0  0  0  0  0  0  0  0  0
   -0.6924   -0.5956   -1.2507 O   0  0  0  0  0  0  0  0  0  0  0  0
   -1.4265    1.2472    0.1768 C   0  0  0  0  0  0  0  0  0  0  0  0
   -1.4214    0.9468    1.6358 C   0  0  0  0  0  0  0  0  0  0  0  0
   -2.1896   -0.2795    1.9904 C   0  0  0  0  0  0  0  0  0  0  0  0
   -2.9929   -0.8088    0.9696 N   0  0  0  0  0  0  0  0  0  0  0  0
   -2.9163   -2.1931    0.7175 C   0  0  0  0  0  0  0  0  0  0  0  0
   -3.7784   -2.6769   -0.3656 C   0  0  0  0  0  0  0  0  0  0  0  0
   -3.2976   -2.9928   -1.5708 N   0  0  0  0  0  0  0  0  0  0  0  0
   -4.0921   -3.4411   -2.5745 C   0  0  0  0  0  0  0  0  0  0  0  0
   -5.4465   -3.5877   -2.3790 C   0  0  0  0  0  0  0  0  0  0  0  0
   -5.9837   -3.2717   -1.1464 C   0  0  0  0  0  0  0  0  0  0  0  0
   -5.1251   -2.8131   -0.1414 C   0  0  0  0  0  0  0  0  0  0  0  0
   -5.7030   -2.4802    1.1633 C   0  0  0  0  0  0  0  0  0  0  0  0
   -3.5773    0.0213    0.0032 C   0  0  0  0  0  0  0  0  0  0  0  0
   -2.8095    1.2342   -0.3762 C   0  0  0  0  0  0  0  0  0  0  0  0
   -1.6642    4.1294   -1.7141 N   0  0  0  0  0  0  0  0  0  0  0  0
   -2.2516    5.2551   -2.0972 C   0  0  0  0  0  0  0  0  0  0  0  0
   -2.6602    6.1300   -1.1664 N   0  0  0  0  0  0  0  0  0  0  0  0
   -2.7247    8.6104    0.2134 H   0  0  0  0  0  0  0  0  0  0  0  0
   -4.3445    7.7980   -0.0739 H   0  0  0  0  0  0  0  0  0  0  0  0
   -3.9701    8.4722    1.5740 H   0  0  0  0  0  0  0  0  0  0  0  0
   -1.7154    4.4824    1.5849 H   0  0  0  0  0  0  0  0  0  0  0  0
    1.2020   -1.6936   -0.6137 H   0  0  0  0  0  0  0  0  0  0  0  0
    3.3514   -2.8974   -0.5281 H   0  0  0  0  0  0  0  0  0  0  0  0
    5.2699   -3.3009   -1.4609 H   0  0  0  0  0  0  0  0  0  0  0  0
    7.4357   -4.4947   -1.3673 H   0  0  0  0  0  0  0  0  0  0  0  0
   10.7475   -5.4809   -0.5546 H   0  0  0  0  0  0  0  0  0  0  0  0
    6.5806   -0.6384    1.5596 H   0  0  0  0  0  0  0  0  0  0  0  0
    5.3456    0.6761    0.4767 H   0  0  0  0  0  0  0  0  0  0  0  0
    3.2803    1.9205    0.4079 H   0  0  0  0  0  0  0  0  0  0  0  0
   -0.3416    0.8766    1.9510 H   0  0  0  0  0  0  0  0  0  0  0  0
   -1.8041    1.8254    2.2312 H   0  0  0  0  0  0  0  0  0  0  0  0
   -2.7347   -0.1000    2.9538 H   0  0  0  0  0  0  0  0  0  0  0  0
   -1.4120   -1.0675    2.2416 H   0  0  0  0  0  0  0  0  0  0  0  0
   -3.0500   -2.7725    1.6639 H   0  0  0  0  0  0  0  0  0  0  0  0
   -1.8519   -2.4331    0.4209 H   0  0  0  0  0  0  0  0  0  0  0  0
   -3.6948   -3.6961   -3.5507 H   0  0  0  0  0  0  0  0  0  0  0  0
   -6.1108   -3.9421   -3.1546 H   0  0  0  0  0  0  0  0  0  0  0  0
   -7.0374   -3.3827   -0.9835 H   0  0  0  0  0  0  0  0  0  0  0  0
   -6.1796   -3.3689    1.6435 H   0  0  0  0  0  0  0  0  0  0  0  0
   -6.5452   -1.7525    0.9860 H   0  0  0  0  0  0  0  0  0  0  0  0
   -5.0027   -1.9679    1.8294 H   0  0  0  0  0  0  0  0  0  0  0  0
   -4.6134    0.3798    0.3069 H   0  0  0  0  0  0  0  0  0  0  0  0
   -3.7751   -0.5922   -0.9207 H   0  0  0  0  0  0  0  0  0  0  0  0
   -2.7948    1.3275   -1.4818 H   0  0  0  0  0  0  0  0  0  0  0  0
   -3.3086    2.1541    0.0011 H   0  0  0  0  0  0  0  0  0  0  0  0
   -2.3947    5.4543   -3.1664 H   0  0  0  0  0  0  0  0  0  0  0  0
  1  2  1  0
  2  3  1  0
  3  4  2  0
  4  5  1  0
  5  6  1  0
  6  7  1  0
  7  8  2  0
  7  9  1  0
  9 10  1  0
 10 11  2  0
 11 12  1  0
 12 13  2  0
 13 14  1  0
 14 15  2  0
 15 16  1  0
 16 17  2  0
 17 18  1  0
 18 19  2  0
 18 20  1  0
 17 21  1  0
 21 22  1  0
 21 23  2  0
 13 24  1  0
 24 25  2  0
  9 26  1  0
 26 27  2  0
 26 28  1  0
 28 29  1  0
 29 30  1  0
 30 31  1  0
 31 32  1  0
 32 33  1  0
 33 34  2  0
 34 35  1  0
 35 36  2  0
 36 37  1  0
 37 38  2  0
 38 39  1  0
 31 40  1  0
 40 41  1  0
  5 42  2  0
 42 43  1  0
 43 44  2  0
 44  3  1  0
 28  6  1  0
 38 33  1  0
 25 10  1  0
 41 28  1  0
 23 14  1  0
  1 45  1  0
  1 46  1  0
  1 47  1  0
  4 48  1  0
 11 49  1  0
 12 50  1  0
 15 51  1  0
 16 52  1  0
 20 53  1  0
 23 54  1  0
 24 55  1  0
 25 56  1  0
 29 57  1  0
 29 58  1  0
 30 59  1  0
 30 60  1  0
 32 61  1  0
 32 62  1  0
 35 63  1  0
 36 64  1  0
 37 65  1  0
 39 66  1  0
 39 67  1  0
 39 68  1  0
 40 69  1  0
 40 70  1  0
 41 71  1  0
 41 72  1  0
 43 73  1  0
M  END
$$$$
