
     RDKit          3D

 37 40  0  0  0  0  0  0  0  0999 V2000
    0.0154   -0.4174   -0.5600 O   0  0  0  0  0  0  0  0  0  0  0  0
    0.2848    0.7025   -0.0268 C   0  0  0  0  0  0  0  0  0  0  0  0
   -0.6842    1.2558    0.9544 C   0  0  0  0  0  0  0  0  0  0  0  0
   -1.8361    0.3366    1.1249 C   0  0  0  0  0  0  0  0  0  0  0  0
   -1.9467   -0.4779    2.2491 C   0  0  0  0  0  0  0  0  0  0  0  0
   -2.9960   -1.3409    2.4363 C   0  0  0  0  0  0  0  0  0  0  0  0
   -3.9856   -1.4262    1.5009 C   0  0  0  0  0  0  0  0  0  0  0  0
   -3.9151   -0.6361    0.3710 C   0  0  0  0  0  0  0  0  0  0  0  0
   -4.9094   -0.7433   -0.5333 N   0  0  0  0  0  0  0  0  0  0  0  0
   -4.8520    0.0297   -1.6484 C   0  0  0  0  0  0  0  0  0  0  0  0
   -3.8163    0.9027   -1.8657 C   0  0  0  0  0  0  0  0  0  0  0  0
   -2.8009    1.0059   -0.9325 C   0  0  0  0  0  0  0  0  0  0  0  0
   -2.8499    0.2264    0.2015 C   0  0  0  0  0  0  0  0  0  0  0  0
    1.4765    1.3519   -0.3911 N   0  0  0  0  0  0  0  0  0  0  0  0
    2.3377    0.6845   -1.3710 C   0  0  0  0  0  0  0  0  0  0  0  0
    2.1280    0.8640   -3.0780 S   0  0  0  0  0  0  0  0  0  0  0  0
    3.4863   -0.2128   -3.5596 C   0  0  0  0  0  0  0  0  0  0  0  0
    3.9875   -0.6199   -2.3390 C   0  0  0  0  0  0  0  0  0  0  0  0
    5.5173   -1.8388   -2.3508 Br  0  0  0  0  0  0  0  0  0  0  0  0
    3.3667   -0.1335   -1.2374 C   0  0  0  0  0  0  0  0  0  0  0  0
    3.8701   -0.4915    0.1308 C   0  0  0  0  0  0  0  0  0  0  0  0
    4.8900   -1.3102    0.4177 N   0  0  0  0  0  0  0  0  0  0  0  0
    5.0784   -1.3837    1.7234 N   0  0  0  0  0  0  0  0  0  0  0  0
    4.1726   -0.6037    2.3208 C   0  0  0  0  0  0  0  0  0  0  0  0
    3.4281   -0.0554    1.3126 N   0  0  0  0  0  0  0  0  0  0  0  0
   -0.2230    1.3733    1.9581 H   0  0  0  0  0  0  0  0  0  0  0  0
   -1.0263    2.2840    0.6697 H   0  0  0  0  0  0  0  0  0  0  0  0
   -1.1727   -0.4115    2.9818 H   0  0  0  0  0  0  0  0  0  0  0  0
   -3.0310   -1.9399    3.3137 H   0  0  0  0  0  0  0  0  0  0  0  0
   -4.8281   -2.1016    1.6242 H   0  0  0  0  0  0  0  0  0  0  0  0
   -5.6452   -0.0314   -2.4065 H   0  0  0  0  0  0  0  0  0  0  0  0
   -3.7746    1.5206   -2.7611 H   0  0  0  0  0  0  0  0  0  0  0  0
   -1.9789    1.6705   -1.0621 H   0  0  0  0  0  0  0  0  0  0  0  0
    1.7480    2.2446   -0.0057 H   0  0  0  0  0  0  0  0  0  0  0  0
    3.7955   -0.4509   -4.5928 H   0  0  0  0  0  0  0  0  0  0  0  0
    4.0348   -0.4245    3.3818 H   0  0  0  0  0  0  0  0  0  0  0  0
    2.6542    0.5980    1.4800 H   0  0  0  0  0  0  0  0  0  0  0  0
  1  2  2  0
  2  3  1  0
  3  4  1  0
  4  5  2  0
  5  6  1  0
  6  7  2  0
  7  8  1  0
  8  9  2  0
  9 10  1  0
 10 11  2  0
 11 12  1  0
 12 13  2  0
  2 14  1  0
 14 15  1  0
 15 16  1  0
 16 17  1  0
 17 18  2  0
 18 19  1  0
 18 20  1  0
 20 21  1  0
 21 22  2  0
 22 23  1  0
 23 24  2  0
 24 25  1  0
 13  4  1  0
 20 15  2  0
 25 21  1  0
 13  8  1  0
  3 26  1  0
  3 27  1  0
  5 28  1  0
  6 29  1  0
  7 30  1  0
 10 31  1  0
 11 32  1  0
 12 33  1  0
 14 34  1  0
 17 35  1  0
 24 36  1  0
 25 37  1  0
M  END
$$$$
