
     RDKit          3D

 65 68  0  0  0  0  0  0  0  0999 V2000
   10.3522   -1.0800   -1.4834 C   0  0  0  0  0  0  0  0  0  0  0  0
    9.7074   -0.9623   -0.0976 C   0  0  0  0  0  0  0  0  0  0  0  0
   10.1618   -2.1227    0.7700 C   0  0  0  0  0  0  0  0  0  0  0  0
    8.3187   -0.9337   -0.2206 O   0  0  0  0  0  0  0  0  0  0  0  0
    7.5857    0.1838    0.1201 C   0  0  0  0  0  0  0  0  0  0  0  0
    8.1822    1.1906    0.5486 O   0  0  0  0  0  0  0  0  0  0  0  0
    6.1851    0.1629   -0.0234 N   0  0  0  0  0  0  0  0  0  0  0  0
    5.5472   -1.0168   -0.5164 C   0  0  0  0  0  0  0  0  0  0  0  0
    4.0549   -0.8879   -0.6325 C   0  0  0  0  0  0  0  0  0  0  0  0
    3.4505    0.0156    0.3060 N   0  0  0  0  0  0  0  0  0  0  0  0
    2.0414    0.0674    0.3612 C   0  0  0  0  0  0  0  0  0  0  0  0
    1.3603    0.7292    1.3208 C   0  0  0  0  0  0  0  0  0  0  0  0
   -0.0275    0.7636    1.3309 C   0  0  0  0  0  0  0  0  0  0  0  0
   -0.7395    0.1135    0.3484 C   0  0  0  0  0  0  0  0  0  0  0  0
   -2.1619    0.1623    0.3701 N   0  0  0  0  0  0  0  0  0  0  0  0
   -2.9051    1.1723   -0.2991 C   0  0  0  0  0  0  0  0  0  0  0  0
   -2.2223    2.0356   -0.9219 O   0  0  0  0  0  0  0  0  0  0  0  0
   -4.3639    1.2287   -0.2824 C   0  0  0  0  0  0  0  0  0  0  0  0
   -5.2265    0.4605    0.2891 O   0  0  0  0  0  0  0  0  0  0  0  0
   -6.4560    0.8155    0.0871 C   0  0  0  0  0  0  0  0  0  0  0  0
   -7.6619    0.2195    0.5517 N   0  0  0  0  0  0  0  0  0  0  0  0
   -8.9696    0.7374    0.2252 C   0  0  0  0  0  0  0  0  0  0  0  0
   -9.9713   -0.3151   -0.1334 C   0  0  0  0  0  0  0  0  0  0  0  0
   -9.8708   -1.5338    0.7563 C   0  0  0  0  0  0  0  0  0  0  0  0
   -8.4360   -2.0265    0.7369 C   0  0  0  0  0  0  0  0  0  0  0  0
   -7.5913   -0.9558    1.3920 C   0  0  0  0  0  0  0  0  0  0  0  0
   -6.3933    1.9314   -0.6978 N   0  0  0  0  0  0  0  0  0  0  0  0
   -5.0985    2.1970   -0.9333 C   0  0  0  0  0  0  0  0  0  0  0  0
   -4.6169    3.3356   -1.7491 C   0  0  0  0  0  0  0  0  0  0  0  0
   -5.6852    4.0662   -2.2223 F   0  0  0  0  0  0  0  0  0  0  0  0
   -3.9027    2.9071   -2.8498 F   0  0  0  0  0  0  0  0  0  0  0  0
   -3.7759    4.1436   -0.9710 F   0  0  0  0  0  0  0  0  0  0  0  0
   -0.0356   -0.5583   -0.6242 C   0  0  0  0  0  0  0  0  0  0  0  0
    1.3024   -0.5649   -0.5950 N   0  0  0  0  0  0  0  0  0  0  0  0
    4.2342    0.8552    1.1674 C   0  0  0  0  0  0  0  0  0  0  0  0
    5.4288    1.3422    0.3305 C   0  0  0  0  0  0  0  0  0  0  0  0
   11.4322   -1.2355   -1.2991 H   0  0  0  0  0  0  0  0  0  0  0  0
   10.1794   -0.1088   -1.9988 H   0  0  0  0  0  0  0  0  0  0  0  0
    9.9125   -1.9319   -2.0489 H   0  0  0  0  0  0  0  0  0  0  0  0
   10.0474    0.0190    0.3002 H   0  0  0  0  0  0  0  0  0  0  0  0
   10.8579   -1.7437    1.5671 H   0  0  0  0  0  0  0  0  0  0  0  0
    9.3117   -2.5955    1.3009 H   0  0  0  0  0  0  0  0  0  0  0  0
   10.6805   -2.8600    0.1142 H   0  0  0  0  0  0  0  0  0  0  0  0
    5.8529   -1.9275    0.0359 H   0  0  0  0  0  0  0  0  0  0  0  0
    5.9393   -1.1755   -1.5650 H   0  0  0  0  0  0  0  0  0  0  0  0
    3.6369   -1.9090   -0.3842 H   0  0  0  0  0  0  0  0  0  0  0  0
    3.7411   -0.7152   -1.6873 H   0  0  0  0  0  0  0  0  0  0  0  0
    1.8652    1.2525    2.1211 H   0  0  0  0  0  0  0  0  0  0  0  0
   -0.5327    1.3128    2.1288 H   0  0  0  0  0  0  0  0  0  0  0  0
   -2.6750   -0.5728    0.8986 H   0  0  0  0  0  0  0  0  0  0  0  0
   -8.9375    1.4885   -0.5886 H   0  0  0  0  0  0  0  0  0  0  0  0
   -9.3515    1.2466    1.1520 H   0  0  0  0  0  0  0  0  0  0  0  0
  -10.9912    0.1094    0.0184 H   0  0  0  0  0  0  0  0  0  0  0  0
   -9.9008   -0.5846   -1.2003 H   0  0  0  0  0  0  0  0  0  0  0  0
  -10.1253   -1.2506    1.7816 H   0  0  0  0  0  0  0  0  0  0  0  0
  -10.5545   -2.2937    0.3785 H   0  0  0  0  0  0  0  0  0  0  0  0
   -8.3503   -2.9975    1.2625 H   0  0  0  0  0  0  0  0  0  0  0  0
   -8.0996   -2.0947   -0.3163 H   0  0  0  0  0  0  0  0  0  0  0  0
   -6.5398   -1.3622    1.3921 H   0  0  0  0  0  0  0  0  0  0  0  0
   -7.9071   -0.7484    2.4339 H   0  0  0  0  0  0  0  0  0  0  0  0
   -0.6130   -1.0640   -1.3887 H   0  0  0  0  0  0  0  0  0  0  0  0
    3.6790    1.7338    1.5608 H   0  0  0  0  0  0  0  0  0  0  0  0
    4.5881    0.2301    2.0127 H   0  0  0  0  0  0  0  0  0  0  0  0
    6.0197    2.0589    0.9332 H   0  0  0  0  0  0  0  0  0  0  0  0
    5.0335    1.8405   -0.5605 H   0  0  0  0  0  0  0  0  0  0  0  0
  1  2  1  0
  2  3  1  0
  2  4  1  0
  4  5  1  0
  5  6  2  0
  5  7  1  0
  7  8  1  0
  8  9  1  0
  9 10  1  0
 10 11  1  0
 11 12  2  0
 12 13  1  0
 13 14  2  0
 14 15  1  0
 15 16  1  0
 16 17  2  0
 16 18  1  0
 18 19  1  0
 19 20  1  0
 20 21  1  0
 21 22  1  0
 22 23  1  0
 23 24  1  0
 24 25  1  0
 25 26  1  0
 20 27  2  0
 27 28  1  0
 28 29  1  0
 29 30  1  0
 29 31  1  0
 29 32  1  0
 14 33  1  0
 33 34  2  0
 10 35  1  0
 35 36  1  0
 36  7  1  0
 34 11  1  0
 28 18  2  0
 26 21  1  0
  1 37  1  0
  1 38  1  0
  1 39  1  0
  2 40  1  0
  3 41  1  0
  3 42  1  0
  3 43  1  0
  8 44  1  0
  8 45  1  0
  9 46  1  0
  9 47  1  0
 12 48  1  0
 13 49  1  0
 15 50  1  0
 22 51  1  0
 22 52  1  0
 23 53  1  0
 23 54  1  0
 24 55  1  0
 24 56  1  0
 25 57  1  0
 25 58  1  0
 26 59  1  0
 26 60  1  0
 33 61  1  0
 35 62  1  0
 35 63  1  0
 36 64  1  0
 36 65  1  0
M  END
$$$$
