
     RDKit          3D

 48 51  0  0  0  0  0  0  0  0999 V2000
    3.0314   -2.1481    3.1894 C   0  0  0  0  0  0  0  0  0  0  0  0
    3.0412   -2.0807    1.6678 C   0  0  0  0  0  0  0  0  0  0  0  0
    1.8295   -1.3967    1.2468 N   0  0  0  0  0  0  0  0  0  0  0  0
    1.9207    0.0030    0.9855 C   0  0  0  0  0  0  0  0  0  0  0  0
    2.7487    0.1726   -0.2530 C   0  0  0  0  0  0  0  0  0  0  0  0
    2.3853   -0.3027   -1.4839 C   0  0  0  0  0  0  0  0  0  0  0  0
    3.1591   -0.0472   -2.6275 C   0  0  0  0  0  0  0  0  0  0  0  0
    4.3112    0.6883   -2.5579 C   0  0  0  0  0  0  0  0  0  0  0  0
    4.7028    1.1835   -1.3139 C   0  0  0  0  0  0  0  0  0  0  0  0
    5.8729    1.9315   -1.2674 O   0  0  0  0  0  0  0  0  0  0  0  0
    6.3987    2.5121   -0.0890 C   0  0  0  0  0  0  0  0  0  0  0  0
    3.9366    0.9250   -0.2127 C   0  0  0  0  0  0  0  0  0  0  0  0
    0.6832   -2.1685    1.0345 C   0  0  0  0  0  0  0  0  0  0  0  0
    0.7496   -3.4314    1.1486 O   0  0  0  0  0  0  0  0  0  0  0  0
   -0.6475   -1.6578    0.6889 C   0  0  0  0  0  0  0  0  0  0  0  0
   -1.7454   -1.9305    0.9167 N   0  0  0  0  0  0  0  0  0  0  0  0
   -2.8638   -1.3150    0.5325 C   0  0  0  0  0  0  0  0  0  0  0  0
   -4.1904   -1.6654    0.8323 C   0  0  0  0  0  0  0  0  0  0  0  0
   -5.1973   -0.8884    0.3408 C   0  0  0  0  0  0  0  0  0  0  0  0
   -5.0213    0.2381   -0.4437 C   0  0  0  0  0  0  0  0  0  0  0  0
   -6.1522    1.0259   -0.9298 C   0  0  0  0  0  0  0  0  0  0  0  0
   -7.3953    0.5272   -1.2514 C   0  0  0  0  0  0  0  0  0  0  0  0
   -8.1268    1.5902   -1.6449 N   0  0  0  0  0  0  0  0  0  0  0  0
   -7.4275    2.6916   -1.5873 N   0  0  0  0  0  0  0  0  0  0  0  0
   -6.2152    2.3882   -1.1556 C   0  0  0  0  0  0  0  0  0  0  0  0
   -3.7259    0.5911   -0.7455 C   0  0  0  0  0  0  0  0  0  0  0  0
   -2.6696   -0.2458   -0.2146 C   0  0  0  0  0  0  0  0  0  0  0  0
   -0.9014   -0.1195   -0.3670 S   0  0  0  0  0  0  0  0  0  0  0  0
    3.8544   -1.5611    3.6067 H   0  0  0  0  0  0  0  0  0  0  0  0
    2.0777   -1.7470    3.5880 H   0  0  0  0  0  0  0  0  0  0  0  0
    3.0779   -3.1971    3.5515 H   0  0  0  0  0  0  0  0  0  0  0  0
    3.9424   -1.5002    1.3231 H   0  0  0  0  0  0  0  0  0  0  0  0
    3.0389   -3.1165    1.2950 H   0  0  0  0  0  0  0  0  0  0  0  0
    0.9933    0.5710    0.9503 H   0  0  0  0  0  0  0  0  0  0  0  0
    2.5325    0.5161    1.8044 H   0  0  0  0  0  0  0  0  0  0  0  0
    1.5012   -0.9111   -1.5936 H   0  0  0  0  0  0  0  0  0  0  0  0
    2.8201   -0.4505   -3.5723 H   0  0  0  0  0  0  0  0  0  0  0  0
    4.9275    0.8997   -3.4176 H   0  0  0  0  0  0  0  0  0  0  0  0
    5.5136    2.9129    0.4852 H   0  0  0  0  0  0  0  0  0  0  0  0
    6.9961    3.4153   -0.3691 H   0  0  0  0  0  0  0  0  0  0  0  0
    6.9536    1.7851    0.5096 H   0  0  0  0  0  0  0  0  0  0  0  0
    4.2482    1.3139    0.7605 H   0  0  0  0  0  0  0  0  0  0  0  0
   -4.4636   -2.5211    1.4340 H   0  0  0  0  0  0  0  0  0  0  0  0
   -6.2410   -1.1432    0.5615 H   0  0  0  0  0  0  0  0  0  0  0  0
   -7.7601   -0.4879   -1.2141 H   0  0  0  0  0  0  0  0  0  0  0  0
   -7.7114    3.6881   -1.8297 H   0  0  0  0  0  0  0  0  0  0  0  0
   -5.3408    3.0349   -0.9765 H   0  0  0  0  0  0  0  0  0  0  0  0
   -3.4519    1.4283   -1.3360 H   0  0  0  0  0  0  0  0  0  0  0  0
  1  2  1  0
  2  3  1  0
  3  4  1  0
  4  5  1  0
  5  6  2  0
  6  7  1  0
  7  8  2  0
  8  9  1  0
  9 10  1  0
 10 11  1  0
  9 12  2  0
  3 13  1  0
 13 14  2  0
 13 15  1  0
 15 16  2  0
 16 17  1  0
 17 18  2  0
 18 19  1  0
 19 20  2  0
 20 21  1  0
 21 22  1  0
 22 23  2  0
 23 24  1  0
 24 25  1  0
 20 26  1  0
 26 27  2  0
 27 28  1  0
 12  5  1  0
 28 15  1  0
 27 17  1  0
 25 21  2  0
  1 29  1  0
  1 30  1  0
  1 31  1  0
  2 32  1  0
  2 33  1  0
  4 34  1  0
  4 35  1  0
  6 36  1  0
  7 37  1  0
  8 38  1  0
 11 39  1  0
 11 40  1  0
 11 41  1  0
 12 42  1  0
 18 43  1  0
 19 44  1  0
 22 45  1  0
 24 46  1  0
 25 47  1  0
 26 48  1  0
M  END
$$$$
