
     RDKit          3D

 55 58  0  0  0  0  0  0  0  0999 V2000
   -2.8369   -4.9730   -0.2901 C   0  0  0  0  0  0  0  0  0  0  0  0
   -3.4260   -3.8344   -1.0684 C   0  0  0  0  0  0  0  0  0  0  0  0
   -4.3309   -4.1044   -1.8916 O   0  0  0  0  0  0  0  0  0  0  0  0
   -2.9438   -2.5215   -0.8452 N   0  0  0  0  0  0  0  0  0  0  0  0
   -3.5152   -1.4295   -1.5979 C   0  0  0  0  0  0  0  0  0  0  0  0
   -4.1324   -0.4857   -0.5809 C   0  0  0  0  0  0  0  0  0  0  0  0
   -3.0497   -0.0464    0.3296 C   0  0  0  0  0  0  0  0  0  0  0  0
   -2.0067   -0.8608    0.6565 C   0  0  0  0  0  0  0  0  0  0  0  0
   -1.1675   -0.1736    1.5163 C   0  0  0  0  0  0  0  0  0  0  0  0
    0.0329   -0.6100    2.1145 N   0  0  0  0  0  0  0  0  0  0  0  0
    1.3117   -0.4242    1.5104 C   0  0  0  0  0  0  0  0  0  0  0  0
    2.4748   -0.8606    2.1074 C   0  0  0  0  0  0  0  0  0  0  0  0
    3.7170   -0.6822    1.5265 C   0  0  0  0  0  0  0  0  0  0  0  0
    3.8425   -0.0500    0.3068 C   0  0  0  0  0  0  0  0  0  0  0  0
    5.1352    0.1587   -0.3402 C   0  0  0  0  0  0  0  0  0  0  0  0
    5.4186    0.2080   -1.6987 C   0  0  0  0  0  0  0  0  0  0  0  0
    6.7381    0.4196   -1.8216 N   0  0  0  0  0  0  0  0  0  0  0  0
    7.3225    0.5097   -0.6405 N   0  0  0  0  0  0  0  0  0  0  0  0
    8.7527    0.7380   -0.4006 C   0  0  0  0  0  0  0  0  0  0  0  0
    6.3529    0.3519    0.2788 C   0  0  0  0  0  0  0  0  0  0  0  0
    2.6764    0.3858   -0.2883 C   0  0  0  0  0  0  0  0  0  0  0  0
    1.4364    0.2081    0.2908 C   0  0  0  0  0  0  0  0  0  0  0  0
   -1.7561    1.0484    1.6708 N   0  0  0  0  0  0  0  0  0  0  0  0
   -2.8669    1.1202    0.9689 N   0  0  0  0  0  0  0  0  0  0  0  0
   -3.7416    2.2479    0.8924 C   0  0  0  0  0  0  0  0  0  0  0  0
   -3.3090    3.1520   -0.2644 C   0  0  0  0  0  0  0  0  0  0  0  0
   -4.2009    4.3169   -0.3551 C   0  0  0  0  0  0  0  0  0  0  0  0
   -4.0046    5.3015   -1.3533 N   0  0  0  0  0  0  0  0  0  0  0  0
   -5.1392    4.4405    0.4536 O   0  0  0  0  0  0  0  0  0  0  0  0
   -1.8987   -2.2446    0.1128 C   0  0  0  0  0  0  0  0  0  0  0  0
   -1.7859   -4.7717   -0.0027 H   0  0  0  0  0  0  0  0  0  0  0  0
   -2.9469   -5.8956   -0.8676 H   0  0  0  0  0  0  0  0  0  0  0  0
   -3.4149   -5.0474    0.6585 H   0  0  0  0  0  0  0  0  0  0  0  0
   -2.7615   -0.8691   -2.1624 H   0  0  0  0  0  0  0  0  0  0  0  0
   -4.3169   -1.7716   -2.2767 H   0  0  0  0  0  0  0  0  0  0  0  0
   -4.8900   -1.0084    0.0497 H   0  0  0  0  0  0  0  0  0  0  0  0
   -4.6391    0.3652   -1.0758 H   0  0  0  0  0  0  0  0  0  0  0  0
   -0.0222   -1.0893    3.0393 H   0  0  0  0  0  0  0  0  0  0  0  0
    2.3895   -1.3624    3.0727 H   0  0  0  0  0  0  0  0  0  0  0  0
    4.6374   -1.0277    1.9993 H   0  0  0  0  0  0  0  0  0  0  0  0
    4.6964    0.0947   -2.4846 H   0  0  0  0  0  0  0  0  0  0  0  0
    9.3313   -0.1038   -0.8075 H   0  0  0  0  0  0  0  0  0  0  0  0
    8.9853    1.7046   -0.9119 H   0  0  0  0  0  0  0  0  0  0  0  0
    8.8775    0.9091    0.6758 H   0  0  0  0  0  0  0  0  0  0  0  0
    6.5340    0.3777    1.3404 H   0  0  0  0  0  0  0  0  0  0  0  0
    2.7748    0.8888   -1.2586 H   0  0  0  0  0  0  0  0  0  0  0  0
    0.5178    0.5629   -0.1995 H   0  0  0  0  0  0  0  0  0  0  0  0
   -3.7733    2.8301    1.8357 H   0  0  0  0  0  0  0  0  0  0  0  0
   -4.8088    1.9520    0.6961 H   0  0  0  0  0  0  0  0  0  0  0  0
   -3.3431    2.5678   -1.2062 H   0  0  0  0  0  0  0  0  0  0  0  0
   -2.2575    3.4635   -0.1276 H   0  0  0  0  0  0  0  0  0  0  0  0
   -4.7838    5.9223   -1.6263 H   0  0  0  0  0  0  0  0  0  0  0  0
   -3.0646    5.3774   -1.7952 H   0  0  0  0  0  0  0  0  0  0  0  0
   -0.9077   -2.4039   -0.4016 H   0  0  0  0  0  0  0  0  0  0  0  0
   -1.9139   -2.9712    0.9547 H   0  0  0  0  0  0  0  0  0  0  0  0
  1  2  1  0
  2  3  2  0
  2  4  1  0
  4  5  1  0
  5  6  1  0
  6  7  1  0
  7  8  2  0
  8  9  1  0
  9 10  1  0
 10 11  1  0
 11 12  2  0
 12 13  1  0
 13 14  2  0
 14 15  1  0
 15 16  1  0
 16 17  2  0
 17 18  1  0
 18 19  1  0
 18 20  1  0
 14 21  1  0
 21 22  2  0
  9 23  2  0
 23 24  1  0
 24 25  1  0
 25 26  1  0
 26 27  1  0
 27 28  1  0
 27 29  2  0
  8 30  1  0
 30  4  1  0
 24  7  1  0
 22 11  1  0
 20 15  2  0
  1 31  1  0
  1 32  1  0
  1 33  1  0
  5 34  1  0
  5 35  1  0
  6 36  1  0
  6 37  1  0
 10 38  1  0
 12 39  1  0
 13 40  1  0
 16 41  1  0
 19 42  1  0
 19 43  1  0
 19 44  1  0
 20 45  1  0
 21 46  1  0
 22 47  1  0
 25 48  1  0
 25 49  1  0
 26 50  1  0
 26 51  1  0
 28 52  1  0
 28 53  1  0
 30 54  1  0
 30 55  1  0
M  END
$$$$
