
     RDKit          3D

 33 34  0  0  0  0  0  0  0  0999 V2000
   -4.2922    1.9526    0.3868 C   0  0  0  0  0  0  0  0  0  0  0  0
   -3.5756    0.9082   -0.4554 C   0  0  0  0  0  0  0  0  0  0  0  0
   -4.6005    0.1105   -1.2193 C   0  0  0  0  0  0  0  0  0  0  0  0
   -2.6638    0.1079    0.3161 C   0  0  0  0  0  0  0  0  0  0  0  0
   -2.8532   -0.7851    1.3405 C   0  0  0  0  0  0  0  0  0  0  0  0
   -1.8609   -1.4372    1.9352 N   0  0  0  0  0  0  0  0  0  0  0  0
   -0.5726   -1.1765    1.4687 C   0  0  0  0  0  0  0  0  0  0  0  0
   -0.7737    0.0496    0.1247 S   0  0  0  0  0  0  0  0  0  0  0  0
    0.5999   -1.5593    1.7371 N   0  0  0  0  0  0  0  0  0  0  0  0
    1.7666   -1.1017    1.0673 C   0  0  0  0  0  0  0  0  0  0  0  0
    2.6248   -0.5598    1.8236 O   0  0  0  0  0  0  0  0  0  0  0  0
    2.1237   -1.1670   -0.3868 C   0  0  0  0  0  0  0  0  0  0  0  0
    3.4606   -0.5417   -0.5344 C   0  0  0  0  0  0  0  0  0  0  0  0
    3.5749    0.8207   -0.7779 C   0  0  0  0  0  0  0  0  0  0  0  0
    4.8443    1.3623   -0.9090 C   0  0  0  0  0  0  0  0  0  0  0  0
    5.9803    0.5706   -0.8012 C   0  0  0  0  0  0  0  0  0  0  0  0
    5.8625   -0.7526   -0.5645 N   0  0  0  0  0  0  0  0  0  0  0  0
    4.6233   -1.2652   -0.4393 C   0  0  0  0  0  0  0  0  0  0  0  0
   -4.8896    2.6417   -0.2277 H   0  0  0  0  0  0  0  0  0  0  0  0
   -3.5407    2.4920    1.0042 H   0  0  0  0  0  0  0  0  0  0  0  0
   -5.0044    1.4452    1.0643 H   0  0  0  0  0  0  0  0  0  0  0  0
   -2.9617    1.4938   -1.2011 H   0  0  0  0  0  0  0  0  0  0  0  0
   -5.6237    0.5414   -1.0687 H   0  0  0  0  0  0  0  0  0  0  0  0
   -4.4275    0.1661   -2.3142 H   0  0  0  0  0  0  0  0  0  0  0  0
   -4.6752   -0.9430   -0.8877 H   0  0  0  0  0  0  0  0  0  0  0  0
   -3.8709   -0.9514    1.6647 H   0  0  0  0  0  0  0  0  0  0  0  0
   -1.9148   -2.1236    2.7102 H   0  0  0  0  0  0  0  0  0  0  0  0
    2.1957   -2.2328   -0.7251 H   0  0  0  0  0  0  0  0  0  0  0  0
    1.3698   -0.6993   -1.0295 H   0  0  0  0  0  0  0  0  0  0  0  0
    2.6934    1.4270   -0.8601 H   0  0  0  0  0  0  0  0  0  0  0  0
    4.8868    2.4254   -1.0978 H   0  0  0  0  0  0  0  0  0  0  0  0
    6.9062    1.1175   -0.9237 H   0  0  0  0  0  0  0  0  0  0  0  0
    4.5880   -2.3360   -0.2495 H   0  0  0  0  0  0  0  0  0  0  0  0
  1  2  1  0
  2  3  1  0
  2  4  1  0
  4  5  2  0
  5  6  1  0
  6  7  1  0
  7  8  1  0
  7  9  2  0
  9 10  1  0
 10 11  2  0
 10 12  1  0
 12 13  1  0
 13 14  2  0
 14 15  1  0
 15 16  2  0
 16 17  1  0
 17 18  2  0
  8  4  1  0
 18 13  1  0
  1 19  1  0
  1 20  1  0
  1 21  1  0
  2 22  1  0
  3 23  1  0
  3 24  1  0
  3 25  1  0
  5 26  1  0
  6 27  1  0
 12 28  1  0
 12 29  1  0
 14 30  1  0
 15 31  1  0
 16 32  1  0
 18 33  1  0
M  END
$$$$
