
     RDKit          3D

 26 25  0  0  0  0  0  0  0  0999 V2000
   -1.8257    1.0536   -0.5558 C   0  0  2  0  0  0  0  0  0  0  0  0
   -1.5867    2.0715    0.3390 O   0  0  0  0  0  0  0  0  0  0  0  0
   -3.2275    0.5107   -0.3187 C   0  0  0  0  0  0  0  0  0  0  0  0
   -3.5252   -0.5254   -1.1990 O   0  0  0  0  0  0  0  0  0  0  0  0
   -0.8897   -0.0863   -0.2767 C   0  0  2  0  0  0  0  0  0  0  0  0
   -1.1157   -0.5304    1.0230 O   0  0  0  0  0  0  0  0  0  0  0  0
    0.5722    0.2961   -0.4417 C   0  0  0  0  0  0  0  0  0  0  0  0
    1.3469   -0.9472   -0.1274 C   0  0  0  0  0  0  0  0  0  0  0  0
    2.8299   -0.7932   -0.2298 C   0  0  0  0  0  0  0  0  0  0  0  0
    3.4147    0.2320    0.6781 C   0  0  0  0  0  0  0  0  0  0  0  0
   -1.7914    1.3714   -1.6120 H   0  0  0  0  0  0  0  0  0  0  0  0
   -1.8678    1.7727    1.2211 H   0  0  0  0  0  0  0  0  0  0  0  0
   -3.2788    0.0989    0.7256 H   0  0  0  0  0  0  0  0  0  0  0  0
   -3.9918    1.2978   -0.4207 H   0  0  0  0  0  0  0  0  0  0  0  0
   -3.2492   -1.3933   -0.7780 H   0  0  0  0  0  0  0  0  0  0  0  0
   -1.1419   -0.9125   -0.9670 H   0  0  0  0  0  0  0  0  0  0  0  0
   -1.5390   -1.4044    1.0770 H   0  0  0  0  0  0  0  0  0  0  0  0
    0.7055    0.6389   -1.4878 H   0  0  0  0  0  0  0  0  0  0  0  0
    0.7901    1.1359    0.2373 H   0  0  0  0  0  0  0  0  0  0  0  0
    1.0535   -1.7107   -0.8924 H   0  0  0  0  0  0  0  0  0  0  0  0
    1.0259   -1.3279    0.8545 H   0  0  0  0  0  0  0  0  0  0  0  0
    3.2671   -1.7793    0.0476 H   0  0  0  0  0  0  0  0  0  0  0  0
    3.1381   -0.5782   -1.2523 H   0  0  0  0  0  0  0  0  0  0  0  0
    2.8894    0.3505    1.6334 H   0  0  0  0  0  0  0  0  0  0  0  0
    4.4544   -0.0735    0.9223 H   0  0  0  0  0  0  0  0  0  0  0  0
    3.5430    1.2324    0.1692 H   0  0  0  0  0  0  0  0  0  0  0  0
  1  2  1  0
  1  3  1  0
  3  4  1  0
  1  5  1  0
  5  6  1  0
  5  7  1  0
  7  8  1  0
  8  9  1  0
  9 10  1  0
  1 11  1  6
  2 12  1  0
  3 13  1  0
  3 14  1  0
  4 15  1  0
  5 16  1  6
  6 17  1  0
  7 18  1  0
  7 19  1  0
  8 20  1  0
  8 21  1  0
  9 22  1  0
  9 23  1  0
 10 24  1  0
 10 25  1  0
 10 26  1  0
M  END
$$$$
