
     RDKit          3D

 50 53  0  0  0  0  0  0  0  0999 V2000
    7.9103   -2.1997   -4.3614 C   0  0  0  0  0  0  0  0  0  0  0  0
    6.7967   -1.3212   -3.9519 C   0  0  0  0  0  0  0  0  0  0  0  0
    5.8706   -0.5814   -3.6173 C   0  0  0  0  0  0  0  0  0  0  0  0
    4.7854    0.2624   -3.2149 C   0  0  0  0  0  0  0  0  0  0  0  0
    4.4703    1.3883   -3.9765 C   0  0  0  0  0  0  0  0  0  0  0  0
    3.4355    2.1898   -3.6204 N   0  0  0  0  0  0  0  0  0  0  0  0
    2.7366    1.8632   -2.5210 C   0  0  0  0  0  0  0  0  0  0  0  0
    3.0094    0.7672   -1.7389 C   0  0  0  0  0  0  0  0  0  0  0  0
    2.1836    0.4797   -0.5035 C   0  0  0  0  0  0  0  0  0  0  0  0
    2.8029   -0.1359    0.5599 C   0  0  0  0  0  0  0  0  0  0  0  0
    1.4670   -0.2369    1.8189 S   0  0  0  0  0  0  0  0  0  0  0  0
    0.2596    0.5592    0.7843 C   0  0  0  0  0  0  0  0  0  0  0  0
   -1.1839    0.8060    1.2001 C   0  0  2  0  0  0  0  0  0  0  0  0
   -1.2011    1.9597    2.2196 C   0  0  0  0  0  0  0  0  0  0  0  0
   -1.7147   -0.4179    1.8417 C   0  0  0  0  0  0  0  0  0  0  0  0
   -3.1955   -0.5712    1.5866 C   0  0  0  0  0  0  0  0  0  0  0  0
   -3.6828   -1.9927    1.7957 C   0  0  0  0  0  0  0  0  0  0  0  0
   -4.4322   -2.2161    3.0599 C   0  0  0  0  0  0  0  0  0  0  0  0
   -5.3290   -1.2407    3.4090 O   0  0  0  0  0  0  0  0  0  0  0  0
   -5.3690   -0.1320    2.5857 C   0  0  0  0  0  0  0  0  0  0  0  0
   -3.9381    0.3940    2.5037 C   0  0  0  0  0  0  0  0  0  0  0  0
   -3.5372   -0.2353    0.2576 O   0  0  0  0  0  0  0  0  0  0  0  0
   -2.9188    0.8017   -0.4260 C   0  0  0  0  0  0  0  0  0  0  0  0
   -3.4804    1.3505   -1.6197 N   0  0  0  0  0  0  0  0  0  0  0  0
   -1.8357    1.2632    0.0309 N   0  0  0  0  0  0  0  0  0  0  0  0
    0.8924    0.8221   -0.3517 C   0  0  0  0  0  0  0  0  0  0  0  0
    4.0455   -0.0373   -2.0965 C   0  0  0  0  0  0  0  0  0  0  0  0
    7.9048   -2.2949   -5.4891 H   0  0  0  0  0  0  0  0  0  0  0  0
    8.8498   -1.7423   -4.0346 H   0  0  0  0  0  0  0  0  0  0  0  0
    7.7037   -3.2033   -3.8987 H   0  0  0  0  0  0  0  0  0  0  0  0
    5.0468    1.6175   -4.8490 H   0  0  0  0  0  0  0  0  0  0  0  0
    1.9148    2.5041   -2.2355 H   0  0  0  0  0  0  0  0  0  0  0  0
    3.8378   -0.4268    0.7728 H   0  0  0  0  0  0  0  0  0  0  0  0
   -1.4613    1.5934    3.2217 H   0  0  0  0  0  0  0  0  0  0  0  0
   -1.8231    2.7855    1.8448 H   0  0  0  0  0  0  0  0  0  0  0  0
   -0.1681    2.3528    2.2586 H   0  0  0  0  0  0  0  0  0  0  0  0
   -1.5339   -0.3610    2.9409 H   0  0  0  0  0  0  0  0  0  0  0  0
   -1.2166   -1.3274    1.4005 H   0  0  0  0  0  0  0  0  0  0  0  0
   -4.2439   -2.3659    0.9184 H   0  0  0  0  0  0  0  0  0  0  0  0
   -2.7631   -2.6529    1.8318 H   0  0  0  0  0  0  0  0  0  0  0  0
   -5.0533   -3.1563    2.9130 H   0  0  0  0  0  0  0  0  0  0  0  0
   -3.7472   -2.4856    3.9171 H   0  0  0  0  0  0  0  0  0  0  0  0
   -6.0322    0.6130    3.0889 H   0  0  0  0  0  0  0  0  0  0  0  0
   -5.7400   -0.3736    1.5671 H   0  0  0  0  0  0  0  0  0  0  0  0
   -3.5365    0.4075    3.5385 H   0  0  0  0  0  0  0  0  0  0  0  0
   -3.9960    1.4241    2.1012 H   0  0  0  0  0  0  0  0  0  0  0  0
   -4.3463    0.9244   -1.9955 H   0  0  0  0  0  0  0  0  0  0  0  0
   -3.0536    2.1531   -2.1135 H   0  0  0  0  0  0  0  0  0  0  0  0
    0.3373    1.3437   -1.1895 H   0  0  0  0  0  0  0  0  0  0  0  0
    4.2729   -0.9177   -1.4831 H   0  0  0  0  0  0  0  0  0  0  0  0
  1  2  1  0
  2  3  3  0
  3  4  1  0
  4  5  2  0
  5  6  1  0
  6  7  2  0
  7  8  1  0
  8  9  1  0
  9 10  2  0
 10 11  1  0
 11 12  1  0
 12 13  1  0
 13 14  1  1
 13 15  1  0
 15 16  1  0
 16 17  1  0
 17 18  1  0
 18 19  1  0
 19 20  1  0
 20 21  1  0
 16 22  1  0
 22 23  1  0
 23 24  1  0
 23 25  2  0
 12 26  2  0
  8 27  2  0
 27  4  1  0
 26  9  1  0
 25 13  1  0
 21 16  1  0
  1 28  1  0
  1 29  1  0
  1 30  1  0
  5 31  1  0
  7 32  1  0
 10 33  1  0
 14 34  1  0
 14 35  1  0
 14 36  1  0
 15 37  1  0
 15 38  1  0
 17 39  1  0
 17 40  1  0
 18 41  1  0
 18 42  1  0
 20 43  1  0
 20 44  1  0
 21 45  1  0
 21 46  1  0
 24 47  1  0
 24 48  1  0
 26 49  1  0
 27 50  1  0
M  END
$$$$
