
     RDKit          3D

 56 58  0  0  0  0  0  0  0  0999 V2000
   -2.2002   -0.8741    0.4774 C   0  0  0  0  0  0  0  0  0  0  0  0
   -2.7478    0.2740   -0.2189 N   0  0  0  0  0  0  0  0  0  0  0  0
   -1.8872    1.2454   -0.7832 C   0  0  0  0  0  0  0  0  0  0  0  0
   -2.4095    2.1952   -1.3923 O   0  0  0  0  0  0  0  0  0  0  0  0
   -0.4587    1.0531   -0.6001 C   0  0  0  0  0  0  0  0  0  0  0  0
    0.4509    0.6916   -1.5447 C   0  0  0  0  0  0  0  0  0  0  0  0
    1.8180    0.5250   -1.2636 C   0  0  0  0  0  0  0  0  0  0  0  0
    2.2737    0.7289    0.0016 C   0  0  0  0  0  0  0  0  0  0  0  0
    3.6928    0.5693    0.4528 C   0  0  0  0  0  0  0  0  0  0  0  0
    3.9502   -0.7645    0.9264 N   0  0  0  0  0  0  0  0  0  0  0  0
    5.5730   -0.8820    1.4629 S   0  0  0  0  0  6  0  0  0  0  0  0
    5.8338   -2.2497    2.0918 O   0  0  0  0  0  0  0  0  0  0  0  0
    5.7249    0.1342    2.5955 O   0  0  0  0  0  0  0  0  0  0  0  0
    6.7385   -0.5821    0.2208 C   0  0  0  0  0  0  0  0  0  0  0  0
    7.1457    0.7314   -0.0287 C   0  0  0  0  0  0  0  0  0  0  0  0
    8.0895    0.9645   -0.9734 C   0  0  0  0  0  0  0  0  0  0  0  0
    8.6791   -0.0408   -1.7126 C   0  0  0  0  0  0  0  0  0  0  0  0
    8.2581   -1.3356   -1.4473 C   0  0  0  0  0  0  0  0  0  0  0  0
    9.0237   -2.6044   -2.3946 Cl  0  0  0  0  0  0  0  0  0  0  0  0
    7.3032   -1.6178   -0.4981 C   0  0  0  0  0  0  0  0  0  0  0  0
    1.3587    1.1025    0.9903 C   0  0  0  0  0  0  0  0  0  0  0  0
    0.0299    1.2594    0.6929 C   0  0  0  0  0  0  0  0  0  0  0  0
   -4.2053    0.3513   -0.2421 C   0  0  0  0  0  0  0  0  0  0  0  0
   -4.7770   -0.8859   -0.8964 C   0  0  0  0  0  0  0  0  0  0  0  0
   -6.0883   -0.5925   -1.5904 C   0  0  0  0  0  0  0  0  0  0  0  0
   -7.2639   -0.4817   -0.6959 C   0  0  0  0  0  0  0  0  0  0  0  0
   -6.9756   -0.3664    0.7640 C   0  0  0  0  0  0  0  0  0  0  0  0
   -6.1600    0.8624    1.1269 C   0  0  0  0  0  0  0  0  0  0  0  0
   -4.7177    0.4388    1.1930 C   0  0  0  0  0  0  0  0  0  0  0  0
   -1.2858   -1.2251   -0.0488 H   0  0  0  0  0  0  0  0  0  0  0  0
   -2.8814   -1.7393    0.5232 H   0  0  0  0  0  0  0  0  0  0  0  0
   -1.9034   -0.6282    1.5197 H   0  0  0  0  0  0  0  0  0  0  0  0
    0.1051    0.5304   -2.5381 H   0  0  0  0  0  0  0  0  0  0  0  0
    2.5306    0.2373   -2.0217 H   0  0  0  0  0  0  0  0  0  0  0  0
    4.0122    1.2996    1.1977 H   0  0  0  0  0  0  0  0  0  0  0  0
    4.3132    0.7695   -0.4826 H   0  0  0  0  0  0  0  0  0  0  0  0
    3.8053   -1.5056    0.2110 H   0  0  0  0  0  0  0  0  0  0  0  0
    6.7091    1.5534    0.5191 H   0  0  0  0  0  0  0  0  0  0  0  0
    8.3936    1.9855   -1.1570 H   0  0  0  0  0  0  0  0  0  0  0  0
    9.4315    0.1768   -2.4549 H   0  0  0  0  0  0  0  0  0  0  0  0
    7.0398   -2.6547   -0.3612 H   0  0  0  0  0  0  0  0  0  0  0  0
    1.7233    1.2638    2.0003 H   0  0  0  0  0  0  0  0  0  0  0  0
   -0.6451    1.5480    1.4785 H   0  0  0  0  0  0  0  0  0  0  0  0
   -4.5114    1.2736   -0.7566 H   0  0  0  0  0  0  0  0  0  0  0  0
   -4.0626   -1.2207   -1.6778 H   0  0  0  0  0  0  0  0  0  0  0  0
   -4.8650   -1.7168   -0.1648 H   0  0  0  0  0  0  0  0  0  0  0  0
   -6.2064   -1.3393   -2.4037 H   0  0  0  0  0  0  0  0  0  0  0  0
   -5.9033    0.3859   -2.1301 H   0  0  0  0  0  0  0  0  0  0  0  0
   -7.8986   -1.3880   -0.8233 H   0  0  0  0  0  0  0  0  0  0  0  0
   -7.8485    0.4169   -0.9857 H   0  0  0  0  0  0  0  0  0  0  0  0
   -7.9632   -0.2227    1.2836 H   0  0  0  0  0  0  0  0  0  0  0  0
   -6.5346   -1.2720    1.2078 H   0  0  0  0  0  0  0  0  0  0  0  0
   -6.4943    1.2672    2.1218 H   0  0  0  0  0  0  0  0  0  0  0  0
   -6.2911    1.6704    0.4010 H   0  0  0  0  0  0  0  0  0  0  0  0
   -4.6597   -0.5516    1.7030 H   0  0  0  0  0  0  0  0  0  0  0  0
   -4.1621    1.2363    1.7362 H   0  0  0  0  0  0  0  0  0  0  0  0
  1  2  1  0
  2  3  1  0
  3  4  2  0
  3  5  1  0
  5  6  2  0
  6  7  1  0
  7  8  2  0
  8  9  1  0
  9 10  1  0
 10 11  1  0
 11 12  2  0
 11 13  2  0
 11 14  1  0
 14 15  2  0
 15 16  1  0
 16 17  2  0
 17 18  1  0
 18 19  1  0
 18 20  2  0
  8 21  1  0
 21 22  2  0
  2 23  1  0
 23 24  1  0
 24 25  1  0
 25 26  1  0
 26 27  1  0
 27 28  1  0
 28 29  1  0
 22  5  1  0
 29 23  1  0
 20 14  1  0
  1 30  1  0
  1 31  1  0
  1 32  1  0
  6 33  1  0
  7 34  1  0
  9 35  1  0
  9 36  1  0
 10 37  1  0
 15 38  1  0
 16 39  1  0
 17 40  1  0
 20 41  1  0
 21 42  1  0
 22 43  1  0
 23 44  1  0
 24 45  1  0
 24 46  1  0
 25 47  1  0
 25 48  1  0
 26 49  1  0
 26 50  1  0
 27 51  1  0
 27 52  1  0
 28 53  1  0
 28 54  1  0
 29 55  1  0
 29 56  1  0
M  END
$$$$
