
     RDKit          3D

105105  0  0  0  0  0  0  0  0999 V2000
    1.0519    2.6610    2.6609 C   0  0  0  0  0  0  0  0  0  0  0  0
    1.8089    1.9013    1.5546 C   0  0  0  0  0  0  0  0  0  0  0  0
    2.9212    1.1494    2.1973 C   0  0  2  0  0  0  0  0  0  0  0  0
    3.8759    2.1520    2.9082 C   0  0  0  0  0  0  0  0  0  0  0  0
    3.7467    0.2857    1.2783 C   0  0  2  0  0  0  0  0  0  0  0  0
    4.3692    1.0246    0.2318 N   0  0  0  0  0  0  0  0  0  0  0  0
    5.7875    1.2434    0.2247 C   0  0  0  0  0  0  0  0  0  0  0  0
    6.5388    0.7958    1.1132 O   0  0  0  0  0  0  0  0  0  0  0  0
    6.3575    1.9805   -0.8004 O   0  0  0  0  0  0  0  0  0  0  0  0
    7.7008    2.2829   -0.9769 C   0  0  0  0  0  0  0  0  0  0  0  0
    8.5775    1.1161   -1.1620 C   0  0  0  0  0  0  0  0  0  0  0  0
    9.3154    0.6283   -0.1211 C   0  0  0  0  0  0  0  0  0  0  0  0
   10.1319   -0.4808   -0.3081 C   0  0  0  0  0  0  0  0  0  0  0  0
   10.2002   -1.0895   -1.5365 C   0  0  0  0  0  0  0  0  0  0  0  0
    9.4429   -0.5751   -2.5760 C   0  0  0  0  0  0  0  0  0  0  0  0
    8.6306    0.5220   -2.4061 C   0  0  0  0  0  0  0  0  0  0  0  0
    3.0531   -0.9348    0.9084 C   0  0  0  0  0  0  0  0  0  0  0  0
    3.6021   -1.6747    0.0553 O   0  0  0  0  0  0  0  0  0  0  0  0
    1.8061   -1.3383    1.4431 N   0  0  0  0  0  0  0  0  0  0  0  0
    1.1004   -2.5413    1.0996 C   0  0  1  0  0  0  0  0  0  0  0  0
    0.2580   -3.1740    2.0978 C   0  0  0  0  0  0  0  0  0  0  0  0
   -0.9018   -2.5334    2.7222 C   0  0  0  0  0  0  0  0  0  0  0  0
   -0.7570   -1.2610    3.4715 C   0  0  0  0  0  0  0  0  0  0  0  0
   -2.1388   -0.9585    4.0602 C   0  0  0  0  0  0  0  0  0  0  0  0
   -2.2273    0.0962    4.7208 O   0  0  0  0  0  0  0  0  0  0  0  0
   -3.2148   -1.7550    3.8996 O   0  0  0  0  0  0  0  0  0  0  0  0
   -4.5026   -1.5791    4.3872 C   0  0  0  0  0  0  0  0  0  0  0  0
   -5.2034   -0.3251    3.9216 C   0  0  0  0  0  0  0  0  0  0  0  0
   -4.5888   -1.6260    5.8991 C   0  0  0  0  0  0  0  0  0  0  0  0
   -5.3238   -2.7567    3.8286 C   0  0  0  0  0  0  0  0  0  0  0  0
    0.5504   -2.5493   -0.2814 C   0  0  0  0  0  0  0  0  0  0  0  0
    1.3438   -2.1083   -1.1694 O   0  0  0  0  0  0  0  0  0  0  0  0
   -0.7103   -2.9801   -0.6949 N   0  0  0  0  0  0  0  0  0  0  0  0
   -1.1743   -2.9837   -2.0891 C   0  0  1  0  0  0  0  0  0  0  0  0
   -2.3689   -3.8351   -2.3115 C   0  0  0  0  0  0  0  0  0  0  0  0
   -1.4458   -1.5489   -2.4381 C   0  0  0  0  0  0  0  0  0  0  0  0
   -0.6367   -0.6836   -1.9860 O   0  0  0  0  0  0  0  0  0  0  0  0
   -2.5111   -1.0835   -3.2220 N   0  0  0  0  0  0  0  0  0  0  0  0
   -2.7124    0.3079   -3.5685 C   0  0  2  0  0  0  0  0  0  0  0  0
   -3.5569    0.9601   -2.5494 C   0  0  0  0  0  0  0  0  0  0  0  0
   -4.8417    0.9394   -2.3751 C   0  0  0  0  0  0  0  0  0  0  0  0
   -6.0813    0.1309   -3.2794 S   0  0  0  0  0  6  0  0  0  0  0  0
   -7.6084    0.0853   -2.3076 C   0  0  0  0  0  0  0  0  0  0  0  0
   -6.4482    0.9684   -4.4960 O   0  0  0  0  0  0  0  0  0  0  0  0
   -5.7959   -1.2774   -3.6313 O   0  0  0  0  0  0  0  0  0  0  0  0
   -3.1473    0.5137   -4.9736 C   0  0  0  0  0  0  0  0  0  0  0  0
   -3.3173    1.9887   -5.2717 C   0  0  0  0  0  0  0  0  0  0  0  0
   -2.0232    2.7474   -5.0715 C   0  0  0  0  0  0  0  0  0  0  0  0
   -3.6914    2.1358   -6.7442 C   0  0  0  0  0  0  0  0  0  0  0  0
    1.1169    2.0240    3.5809 H   0  0  0  0  0  0  0  0  0  0  0  0
   -0.0156    2.7682    2.4407 H   0  0  0  0  0  0  0  0  0  0  0  0
    1.5616    3.6110    2.9130 H   0  0  0  0  0  0  0  0  0  0  0  0
    1.0855    1.3047    1.0223 H   0  0  0  0  0  0  0  0  0  0  0  0
    2.1771    2.7155    0.8762 H   0  0  0  0  0  0  0  0  0  0  0  0
    2.5069    0.5837    3.0715 H   0  0  0  0  0  0  0  0  0  0  0  0
    4.1081    2.9501    2.2073 H   0  0  0  0  0  0  0  0  0  0  0  0
    4.7404    1.5594    3.2558 H   0  0  0  0  0  0  0  0  0  0  0  0
    3.3734    2.5652    3.7990 H   0  0  0  0  0  0  0  0  0  0  0  0
    4.6216   -0.0778    1.9419 H   0  0  0  0  0  0  0  0  0  0  0  0
    3.8478    1.4408   -0.5833 H   0  0  0  0  0  0  0  0  0  0  0  0
    8.0630    2.8917   -0.0934 H   0  0  0  0  0  0  0  0  0  0  0  0
    7.7705    2.9982   -1.8253 H   0  0  0  0  0  0  0  0  0  0  0  0
    9.3002    1.0744    0.8823 H   0  0  0  0  0  0  0  0  0  0  0  0
   10.7287   -0.8858    0.5039 H   0  0  0  0  0  0  0  0  0  0  0  0
   10.8464   -1.9595   -1.6695 H   0  0  0  0  0  0  0  0  0  0  0  0
    9.5207   -1.0850   -3.5430 H   0  0  0  0  0  0  0  0  0  0  0  0
    8.0467    0.8976   -3.2594 H   0  0  0  0  0  0  0  0  0  0  0  0
    1.4294   -0.6655    2.1600 H   0  0  0  0  0  0  0  0  0  0  0  0
    2.0000   -3.2925    0.9414 H   0  0  0  0  0  0  0  0  0  0  0  0
    0.9254   -3.6723    2.8875 H   0  0  0  0  0  0  0  0  0  0  0  0
   -0.1644   -4.1295    1.5950 H   0  0  0  0  0  0  0  0  0  0  0  0
   -1.2721   -3.2873    3.5199 H   0  0  0  0  0  0  0  0  0  0  0  0
   -1.8042   -2.4380    2.0607 H   0  0  0  0  0  0  0  0  0  0  0  0
   -0.0636   -1.2469    4.2941 H   0  0  0  0  0  0  0  0  0  0  0  0
   -0.6674   -0.4203    2.7332 H   0  0  0  0  0  0  0  0  0  0  0  0
   -6.2509   -0.4117    4.2840 H   0  0  0  0  0  0  0  0  0  0  0  0
   -5.2674   -0.2344    2.8288 H   0  0  0  0  0  0  0  0  0  0  0  0
   -4.7870    0.5964    4.3996 H   0  0  0  0  0  0  0  0  0  0  0  0
   -3.9597   -0.7946    6.3251 H   0  0  0  0  0  0  0  0  0  0  0  0
   -4.2486   -2.6144    6.3079 H   0  0  0  0  0  0  0  0  0  0  0  0
   -5.6207   -1.4003    6.2129 H   0  0  0  0  0  0  0  0  0  0  0  0
   -5.1073   -2.7278    2.7178 H   0  0  0  0  0  0  0  0  0  0  0  0
   -5.0223   -3.7059    4.2714 H   0  0  0  0  0  0  0  0  0  0  0  0
   -6.3915   -2.4976    3.9450 H   0  0  0  0  0  0  0  0  0  0  0  0
   -1.3865   -3.3381    0.0327 H   0  0  0  0  0  0  0  0  0  0  0  0
   -0.2806   -3.2653   -2.7508 H   0  0  0  0  0  0  0  0  0  0  0  0
   -3.2632   -3.1832   -2.0625 H   0  0  0  0  0  0  0  0  0  0  0  0
   -2.3752   -4.7487   -1.6723 H   0  0  0  0  0  0  0  0  0  0  0  0
   -2.4107   -4.1856   -3.3569 H   0  0  0  0  0  0  0  0  0  0  0  0
   -3.1746   -1.8008   -3.5701 H   0  0  0  0  0  0  0  0  0  0  0  0
   -1.7056    0.8564   -3.4889 H   0  0  0  0  0  0  0  0  0  0  0  0
   -2.9935    1.5758   -1.7988 H   0  0  0  0  0  0  0  0  0  0  0  0
   -5.2255    1.5393   -1.5109 H   0  0  0  0  0  0  0  0  0  0  0  0
   -7.9354    1.1028   -2.0323 H   0  0  0  0  0  0  0  0  0  0  0  0
   -8.3640   -0.3862   -2.9596 H   0  0  0  0  0  0  0  0  0  0  0  0
   -7.4675   -0.5975   -1.4339 H   0  0  0  0  0  0  0  0  0  0  0  0
   -4.0644   -0.0219   -5.2809 H   0  0  0  0  0  0  0  0  0  0  0  0
   -2.3413    0.0869   -5.6420 H   0  0  0  0  0  0  0  0  0  0  0  0
   -4.0701    2.4272   -4.5935 H   0  0  0  0  0  0  0  0  0  0  0  0
   -1.1531    2.1486   -5.4493 H   0  0  0  0  0  0  0  0  0  0  0  0
   -2.0648    3.6370   -5.7408 H   0  0  0  0  0  0  0  0  0  0  0  0
   -1.8638    3.1098   -4.0478 H   0  0  0  0  0  0  0  0  0  0  0  0
   -2.9000    2.6661   -7.3109 H   0  0  0  0  0  0  0  0  0  0  0  0
   -4.6281    2.7193   -6.8575 H   0  0  0  0  0  0  0  0  0  0  0  0
   -3.7651    1.1305   -7.2200 H   0  0  0  0  0  0  0  0  0  0  0  0
  1  2  1  0
  2  3  1  0
  3  4  1  0
  3  5  1  0
  5  6  1  0
  6  7  1  0
  7  8  2  0
  7  9  1  0
  9 10  1  0
 10 11  1  0
 11 12  2  0
 12 13  1  0
 13 14  2  0
 14 15  1  0
 15 16  2  0
  5 17  1  0
 17 18  2  0
 17 19  1  0
 19 20  1  0
 20 21  1  0
 21 22  1  0
 22 23  1  0
 23 24  1  0
 24 25  2  0
 24 26  1  0
 26 27  1  0
 27 28  1  0
 27 29  1  0
 27 30  1  0
 20 31  1  0
 31 32  2  0
 31 33  1  0
 33 34  1  0
 34 35  1  0
 34 36  1  0
 36 37  2  0
 36 38  1  0
 38 39  1  0
 39 40  1  0
 40 41  2  3
 41 42  1  0
 42 43  1  0
 42 44  2  0
 42 45  2  0
 39 46  1  0
 46 47  1  0
 47 48  1  0
 47 49  1  0
 16 11  1  0
  1 50  1  0
  1 51  1  0
  1 52  1  0
  2 53  1  0
  2 54  1  0
  3 55  1  1
  4 56  1  0
  4 57  1  0
  4 58  1  0
  5 59  1  1
  6 60  1  0
 10 61  1  0
 10 62  1  0
 12 63  1  0
 13 64  1  0
 14 65  1  0
 15 66  1  0
 16 67  1  0
 19 68  1  0
 20 69  1  6
 21 70  1  0
 21 71  1  0
 22 72  1  0
 22 73  1  0
 23 74  1  0
 23 75  1  0
 28 76  1  0
 28 77  1  0
 28 78  1  0
 29 79  1  0
 29 80  1  0
 29 81  1  0
 30 82  1  0
 30 83  1  0
 30 84  1  0
 33 85  1  0
 34 86  1  6
 35 87  1  0
 35 88  1  0
 35 89  1  0
 38 90  1  0
 39 91  1  6
 40 92  1  0
 41 93  1  0
 43 94  1  0
 43 95  1  0
 43 96  1  0
 46 97  1  0
 46 98  1  0
 47 99  1  0
 48100  1  0
 48101  1  0
 48102  1  0
 49103  1  0
 49104  1  0
 49105  1  0
M  END
$$$$
