
     RDKit          3D

 46 49  0  0  0  0  0  0  0  0999 V2000
    1.6026    2.9783   -2.0296 C   0  0  0  0  0  0  0  0  0  0  0  0
    1.4296    3.7923   -0.7743 C   0  0  0  0  0  0  0  0  0  0  0  0
    1.5916    5.1509   -0.8517 C   0  0  0  0  0  0  0  0  0  0  0  0
    1.4343    5.9218    0.2888 C   0  0  0  0  0  0  0  0  0  0  0  0
    1.7278    7.3071    0.1313 C   0  0  0  0  0  0  0  0  0  0  0  0
    1.9744    8.4753   -0.0143 N   0  0  0  0  0  0  0  0  0  0  0  0
    1.1137    5.3067    1.4745 C   0  0  0  0  0  0  0  0  0  0  0  0
    0.9603    3.9966    1.5338 N   0  0  0  0  0  0  0  0  0  0  0  0
    1.1132    3.2236    0.4392 C   0  0  0  0  0  0  0  0  0  0  0  0
    1.0592    1.7747    0.5716 C   0  0  0  0  0  0  0  0  0  0  0  0
    1.4623    1.0341   -0.3972 O   0  0  0  0  0  0  0  0  0  0  0  0
    0.5735    1.1603    1.7593 N   0  0  0  0  0  0  0  0  0  0  0  0
    0.6063   -0.2913    1.7966 C   0  0  0  0  0  0  0  0  0  0  0  0
    1.6880   -0.8667    2.3883 C   0  0  0  0  0  0  0  0  0  0  0  0
    1.8072   -2.2347    2.3654 C   0  0  0  0  0  0  0  0  0  0  0  0
    0.7969   -2.9536    1.7246 C   0  0  0  0  0  0  0  0  0  0  0  0
    1.0293   -4.6854    1.7194 Cl  0  0  0  0  0  0  0  0  0  0  0  0
   -0.2938   -2.4362    1.1233 C   0  0  0  0  0  0  0  0  0  0  0  0
   -1.3347   -3.1299    0.3815 C   0  0  1  0  0  0  0  0  0  0  0  0
   -2.1597   -4.1538    1.0946 C   0  0  0  0  0  0  0  0  0  0  0  0
   -3.1101   -4.6239    0.1488 F   0  0  0  0  0  0  0  0  0  0  0  0
   -1.5028   -5.3285    1.4015 F   0  0  0  0  0  0  0  0  0  0  0  0
   -2.3180   -2.1324   -0.0588 N   0  0  0  0  0  0  0  0  0  0  0  0
   -2.2695   -1.4644   -1.1313 C   0  0  0  0  0  0  0  0  0  0  0  0
   -3.3219   -0.5237   -1.4230 N   0  0  0  0  0  0  0  0  0  0  0  0
   -1.2112   -1.6559   -1.9826 O   0  0  0  0  0  0  0  0  0  0  0  0
   -0.5067   -2.8546   -1.9765 C   0  0  2  0  0  0  0  0  0  0  0  0
   -1.4529   -4.1003   -2.0426 C   0  0  0  0  0  0  0  0  0  0  0  0
   -0.6845   -3.7603   -0.8283 C   0  0  2  0  0  0  0  0  0  0  0  0
   -0.3861   -1.0222    1.1684 C   0  0  0  0  0  0  0  0  0  0  0  0
    2.5835    2.4816   -2.0856 H   0  0  0  0  0  0  0  0  0  0  0  0
    1.5482    3.7024   -2.8756 H   0  0  0  0  0  0  0  0  0  0  0  0
    0.7459    2.2831   -2.1595 H   0  0  0  0  0  0  0  0  0  0  0  0
    1.8516    5.6081   -1.8100 H   0  0  0  0  0  0  0  0  0  0  0  0
    1.0067    5.9716    2.3286 H   0  0  0  0  0  0  0  0  0  0  0  0
    0.2155    1.7092    2.5414 H   0  0  0  0  0  0  0  0  0  0  0  0
    2.4554   -0.2442    2.8710 H   0  0  0  0  0  0  0  0  0  0  0  0
    2.6500   -2.7062    2.8284 H   0  0  0  0  0  0  0  0  0  0  0  0
   -2.7707   -3.7817    1.9231 H   0  0  0  0  0  0  0  0  0  0  0  0
   -3.4845   -0.1444   -2.3941 H   0  0  0  0  0  0  0  0  0  0  0  0
   -3.9396   -0.2068   -0.6689 H   0  0  0  0  0  0  0  0  0  0  0  0
    0.3985   -2.8952   -2.6308 H   0  0  0  0  0  0  0  0  0  0  0  0
   -1.1200   -4.8860   -2.7367 H   0  0  0  0  0  0  0  0  0  0  0  0
   -2.5362   -3.8996   -2.1108 H   0  0  0  0  0  0  0  0  0  0  0  0
    0.1742   -4.4130   -0.6199 H   0  0  0  0  0  0  0  0  0  0  0  0
   -1.1964   -0.4825    0.7460 H   0  0  0  0  0  0  0  0  0  0  0  0
  1  2  1  0
  2  3  2  0
  3  4  1  0
  4  5  1  0
  5  6  3  0
  4  7  2  0
  7  8  1  0
  8  9  2  0
  9 10  1  0
 10 11  2  0
 10 12  1  0
 12 13  1  0
 13 14  2  0
 14 15  1  0
 15 16  2  0
 16 17  1  0
 16 18  1  0
 18 19  1  0
 19 20  1  1
 20 21  1  0
 20 22  1  0
 19 23  1  0
 23 24  2  0
 24 25  1  0
 24 26  1  0
 26 27  1  0
 27 28  1  0
 28 29  1  0
 18 30  2  0
  9  2  1  0
 30 13  1  0
 29 19  1  0
 29 27  1  0
  1 31  1  0
  1 32  1  0
  1 33  1  0
  3 34  1  0
  7 35  1  0
 12 36  1  0
 14 37  1  0
 15 38  1  0
 20 39  1  0
 25 40  1  0
 25 41  1  0
 27 42  1  6
 28 43  1  0
 28 44  1  0
 29 45  1  1
 30 46  1  0
M  END
$$$$
