
     RDKit          3D

120126  0  0  0  0  0  0  0  0999 V2000
    9.4925    3.5317    0.0801 C   0  0  0  0  0  0  0  0  0  0  0  0
    9.6983    2.0646    0.2914 C   0  0  0  0  0  0  0  0  0  0  0  0
    9.9774    1.7966    1.7303 C   0  0  0  0  0  0  0  0  0  0  0  0
   10.8859    1.6163   -0.5463 C   0  0  0  0  0  0  0  0  0  0  0  0
   11.1949    0.1978   -0.2347 C   0  0  0  0  0  0  0  0  0  0  0  0
    9.9793   -0.6441   -0.3405 C   0  0  0  0  0  0  0  0  0  0  0  0
   10.1501   -2.1129   -0.3450 C   0  0  0  0  0  0  0  0  0  0  0  0
   10.8499   -2.7221   -1.3582 C   0  0  0  0  0  0  0  0  0  0  0  0
   11.0767   -4.0842   -1.3541 C   0  0  0  0  0  0  0  0  0  0  0  0
   10.5895   -4.8387   -0.3126 C   0  0  0  0  0  0  0  0  0  0  0  0
   10.8294   -6.5852   -0.2235 Cl  0  0  0  0  0  0  0  0  0  0  0  0
    9.8929   -4.2216    0.6934 C   0  0  0  0  0  0  0  0  0  0  0  0
    9.6724   -2.8644    0.6811 C   0  0  0  0  0  0  0  0  0  0  0  0
    8.7409   -0.1350   -0.3411 C   0  0  0  0  0  0  0  0  0  0  0  0
    7.6135   -1.0623   -0.4613 C   0  0  0  0  0  0  0  0  0  0  0  0
    6.7346   -0.9073   -1.6080 N   0  0  0  0  0  0  0  0  0  0  0  0
    5.8449   -2.0731   -1.6528 C   0  0  0  0  0  0  0  0  0  0  0  0
    4.6524   -1.8928   -0.7150 C   0  0  0  0  0  0  0  0  0  0  0  0
    3.9737   -0.6718   -1.1012 N   0  0  0  0  0  0  0  0  0  0  0  0
    2.8286   -0.2422   -0.4424 C   0  0  0  0  0  0  0  0  0  0  0  0
    1.7143    0.2743   -1.0973 C   0  0  0  0  0  0  0  0  0  0  0  0
    0.6032    0.7000   -0.4161 C   0  0  0  0  0  0  0  0  0  0  0  0
    0.5279    0.6399    0.9697 C   0  0  0  0  0  0  0  0  0  0  0  0
   -0.6660    1.0575    1.6886 C   0  0  0  0  0  0  0  0  0  0  0  0
   -1.7297    1.2547    1.0453 O   0  0  0  0  0  0  0  0  0  0  0  0
   -0.6977    1.2560    3.0905 N   0  0  0  0  0  0  0  0  0  0  0  0
   -2.1791    1.7282    3.8303 S   0  0  0  0  0  6  0  0  0  0  0  0
   -2.0299    3.1094    4.4224 O   0  0  0  0  0  0  0  0  0  0  0  0
   -2.4606    0.7437    4.9277 O   0  0  0  0  0  0  0  0  0  0  0  0
   -3.4424    1.6886    2.6490 C   0  0  0  0  0  0  0  0  0  0  0  0
   -4.0763    0.5061    2.3996 C   0  0  0  0  0  0  0  0  0  0  0  0
   -5.0961    0.3932    1.4504 C   0  0  0  0  0  0  0  0  0  0  0  0
   -5.4548    1.5274    0.7570 C   0  0  0  0  0  0  0  0  0  0  0  0
   -6.5143    1.4942   -0.1445 N   0  0  0  0  0  0  0  0  0  0  0  0
   -7.3242    0.3987   -0.6012 C   0  0  2  0  0  0  0  0  0  0  0  0
   -8.0957   -0.3613    0.3839 C   0  0  0  0  0  0  0  0  0  0  0  0
   -9.0774    0.4042    1.2372 C   0  0  0  0  0  0  0  0  0  0  0  0
  -10.1495    1.0485    0.6779 N   0  0  0  0  0  0  0  0  0  0  0  0
  -10.0924    2.1912   -0.1151 C   0  0  0  0  0  0  0  0  0  0  0  0
  -10.6748    2.0892   -1.5073 C   0  0  0  0  0  0  0  0  0  0  0  0
  -11.1036    0.7843   -1.7095 O   0  0  0  0  0  0  0  0  0  0  0  0
  -12.0824    0.5258   -0.7200 C   0  0  0  0  0  0  0  0  0  0  0  0
  -11.3987    0.3176    0.6213 C   0  0  0  0  0  0  0  0  0  0  0  0
   -6.4302   -0.4375   -1.4818 C   0  0  0  0  0  0  0  0  0  0  0  0
   -7.1323   -1.8728   -2.1758 S   0  0  0  0  0  0  0  0  0  0  0  0
   -7.4118   -3.2822   -1.1697 C   0  0  0  0  0  0  0  0  0  0  0  0
   -8.6484   -3.6936   -0.6916 C   0  0  0  0  0  0  0  0  0  0  0  0
   -8.7637   -4.8098    0.1070 C   0  0  0  0  0  0  0  0  0  0  0  0
   -7.6546   -5.5277    0.4377 C   0  0  0  0  0  0  0  0  0  0  0  0
   -6.4217   -5.1372   -0.0263 C   0  0  0  0  0  0  0  0  0  0  0  0
   -6.2893   -4.0457   -0.8096 C   0  0  0  0  0  0  0  0  0  0  0  0
   -4.8153    2.7427    0.9974 C   0  0  0  0  0  0  0  0  0  0  0  0
   -5.1447    4.1823    0.0779 S   0  0  0  0  0  6  0  0  0  0  0  0
   -4.4162    5.3596    0.7453 O   0  0  0  0  0  0  0  0  0  0  0  0
   -6.6004    4.5405    0.1319 O   0  0  0  0  0  0  0  0  0  0  0  0
   -4.5252    4.0300   -1.5551 C   0  0  0  0  0  0  0  0  0  0  0  0
   -3.1406    3.8350   -1.5435 F   0  0  0  0  0  0  0  0  0  0  0  0
   -4.7244    5.2677   -2.1830 F   0  0  0  0  0  0  0  0  0  0  0  0
   -5.1501    3.0957   -2.2907 F   0  0  0  0  0  0  0  0  0  0  0  0
   -3.8097    2.7982    1.9532 C   0  0  0  0  0  0  0  0  0  0  0  0
    1.6095    0.1378    1.6351 C   0  0  0  0  0  0  0  0  0  0  0  0
    2.7244   -0.2904    0.9582 C   0  0  0  0  0  0  0  0  0  0  0  0
    4.5810    0.0444   -2.1797 C   0  0  0  0  0  0  0  0  0  0  0  0
    6.0428    0.3052   -1.7480 C   0  0  0  0  0  0  0  0  0  0  0  0
    8.4532    1.3146   -0.1684 C   0  0  0  0  0  0  0  0  0  0  0  0
    9.7430    3.7939   -0.9641 H   0  0  0  0  0  0  0  0  0  0  0  0
    8.4410    3.8527    0.2442 H   0  0  0  0  0  0  0  0  0  0  0  0
   10.1936    4.1505    0.7052 H   0  0  0  0  0  0  0  0  0  0  0  0
    9.5022    2.5191    2.4168 H   0  0  0  0  0  0  0  0  0  0  0  0
   11.0678    1.7785    1.9366 H   0  0  0  0  0  0  0  0  0  0  0  0
    9.5973    0.7847    2.0301 H   0  0  0  0  0  0  0  0  0  0  0  0
   11.7436    2.2624   -0.2508 H   0  0  0  0  0  0  0  0  0  0  0  0
   10.6971    1.7796   -1.6282 H   0  0  0  0  0  0  0  0  0  0  0  0
   11.5509    0.1559    0.8279 H   0  0  0  0  0  0  0  0  0  0  0  0
   11.9736   -0.1937   -0.9238 H   0  0  0  0  0  0  0  0  0  0  0  0
   11.2562   -2.1594   -2.2074 H   0  0  0  0  0  0  0  0  0  0  0  0
   11.6401   -4.5636   -2.1700 H   0  0  0  0  0  0  0  0  0  0  0  0
    9.4962   -4.8047    1.5305 H   0  0  0  0  0  0  0  0  0  0  0  0
    9.1207   -2.3671    1.4955 H   0  0  0  0  0  0  0  0  0  0  0  0
    7.9107   -2.1460   -0.4984 H   0  0  0  0  0  0  0  0  0  0  0  0
    6.9670   -0.9822    0.4613 H   0  0  0  0  0  0  0  0  0  0  0  0
    6.4013   -2.9510   -1.2979 H   0  0  0  0  0  0  0  0  0  0  0  0
    5.4919   -2.2853   -2.6716 H   0  0  0  0  0  0  0  0  0  0  0  0
    3.9600   -2.7399   -0.9715 H   0  0  0  0  0  0  0  0  0  0  0  0
    4.9148   -1.9635    0.3349 H   0  0  0  0  0  0  0  0  0  0  0  0
    1.7293    0.3376   -2.1709 H   0  0  0  0  0  0  0  0  0  0  0  0
   -0.2787    1.1063   -0.9286 H   0  0  0  0  0  0  0  0  0  0  0  0
    0.1486    1.1240    3.6808 H   0  0  0  0  0  0  0  0  0  0  0  0
   -3.7971   -0.3886    2.9424 H   0  0  0  0  0  0  0  0  0  0  0  0
   -5.5326   -0.5840    1.3177 H   0  0  0  0  0  0  0  0  0  0  0  0
   -6.8005    2.4371   -0.5648 H   0  0  0  0  0  0  0  0  0  0  0  0
   -8.0979    0.8211   -1.3424 H   0  0  0  0  0  0  0  0  0  0  0  0
   -7.5728   -1.0779    1.0055 H   0  0  0  0  0  0  0  0  0  0  0  0
   -8.7489   -1.0587   -0.2850 H   0  0  0  0  0  0  0  0  0  0  0  0
   -9.4160   -0.2423    2.1117 H   0  0  0  0  0  0  0  0  0  0  0  0
   -8.4277    1.1726    1.7746 H   0  0  0  0  0  0  0  0  0  0  0  0
   -9.0775    2.6082   -0.1934 H   0  0  0  0  0  0  0  0  0  0  0  0
  -10.6512    3.0287    0.4527 H   0  0  0  0  0  0  0  0  0  0  0  0
   -9.9216    2.4062   -2.2465 H   0  0  0  0  0  0  0  0  0  0  0  0
  -11.5967    2.7419   -1.5658 H   0  0  0  0  0  0  0  0  0  0  0  0
  -12.7072   -0.3329   -1.0325 H   0  0  0  0  0  0  0  0  0  0  0  0
  -12.7506    1.4109   -0.7208 H   0  0  0  0  0  0  0  0  0  0  0  0
  -11.2108   -0.7297    0.8710 H   0  0  0  0  0  0  0  0  0  0  0  0
  -12.0641    0.7431    1.3948 H   0  0  0  0  0  0  0  0  0  0  0  0
   -5.4773   -0.7241   -0.9410 H   0  0  0  0  0  0  0  0  0  0  0  0
   -5.9954    0.2709   -2.2781 H   0  0  0  0  0  0  0  0  0  0  0  0
   -9.5303   -3.1229   -0.9735 H   0  0  0  0  0  0  0  0  0  0  0  0
   -9.7503   -5.1159    0.4753 H   0  0  0  0  0  0  0  0  0  0  0  0
   -7.7458   -6.4148    1.0718 H   0  0  0  0  0  0  0  0  0  0  0  0
   -5.5702   -5.7452    0.2644 H   0  0  0  0  0  0  0  0  0  0  0  0
   -5.3092   -3.7548   -1.1659 H   0  0  0  0  0  0  0  0  0  0  0  0
   -3.3283    3.7465    2.1252 H   0  0  0  0  0  0  0  0  0  0  0  0
    1.5926    0.0718    2.7366 H   0  0  0  0  0  0  0  0  0  0  0  0
    3.5582   -0.6828    1.5535 H   0  0  0  0  0  0  0  0  0  0  0  0
    4.0791    1.0164   -2.3921 H   0  0  0  0  0  0  0  0  0  0  0  0
    4.6360   -0.5194   -3.1357 H   0  0  0  0  0  0  0  0  0  0  0  0
    6.5123    0.9680   -2.5211 H   0  0  0  0  0  0  0  0  0  0  0  0
    6.0234    0.8633   -0.7936 H   0  0  0  0  0  0  0  0  0  0  0  0
    7.7195    1.4678    0.6477 H   0  0  0  0  0  0  0  0  0  0  0  0
    8.1808    1.7532   -1.1380 H   0  0  0  0  0  0  0  0  0  0  0  0
  1  2  1  0
  2  3  1  0
  2  4  1  0
  4  5  1  0
  5  6  1  0
  6  7  1  0
  7  8  2  0
  8  9  1  0
  9 10  2  0
 10 11  1  0
 10 12  1  0
 12 13  2  0
  6 14  2  0
 14 15  1  0
 15 16  1  0
 16 17  1  0
 17 18  1  0
 18 19  1  0
 19 20  1  0
 20 21  2  0
 21 22  1  0
 22 23  2  0
 23 24  1  0
 24 25  2  0
 24 26  1  0
 26 27  1  0
 27 28  2  0
 27 29  2  0
 27 30  1  0
 30 31  2  0
 31 32  1  0
 32 33  2  0
 33 34  1  0
 34 35  1  0
 35 36  1  0
 36 37  1  0
 37 38  1  0
 38 39  1  0
 39 40  1  0
 40 41  1  0
 41 42  1  0
 42 43  1  0
 35 44  1  0
 44 45  1  0
 45 46  1  0
 46 47  2  0
 47 48  1  0
 48 49  2  0
 49 50  1  0
 50 51  2  0
 33 52  1  0
 52 53  1  0
 53 54  2  0
 53 55  2  0
 53 56  1  0
 56 57  1  0
 56 58  1  0
 56 59  1  0
 52 60  2  0
 23 61  1  0
 61 62  2  0
 19 63  1  0
 63 64  1  0
 14 65  1  0
 65  2  1  0
 13  7  1  0
 64 16  1  0
 62 20  1  0
 60 30  1  0
 43 38  1  0
 51 46  1  0
  1 66  1  0
  1 67  1  0
  1 68  1  0
  3 69  1  0
  3 70  1  0
  3 71  1  0
  4 72  1  0
  4 73  1  0
  5 74  1  0
  5 75  1  0
  8 76  1  0
  9 77  1  0
 12 78  1  0
 13 79  1  0
 15 80  1  0
 15 81  1  0
 17 82  1  0
 17 83  1  0
 18 84  1  0
 18 85  1  0
 21 86  1  0
 22 87  1  0
 26 88  1  0
 31 89  1  0
 32 90  1  0
 34 91  1  0
 35 92  1  6
 36 93  1  0
 36 94  1  0
 37 95  1  0
 37 96  1  0
 39 97  1  0
 39 98  1  0
 40 99  1  0
 40100  1  0
 42101  1  0
 42102  1  0
 43103  1  0
 43104  1  0
 44105  1  0
 44106  1  0
 47107  1  0
 48108  1  0
 49109  1  0
 50110  1  0
 51111  1  0
 60112  1  0
 61113  1  0
 62114  1  0
 63115  1  0
 63116  1  0
 64117  1  0
 64118  1  0
 65119  1  0
 65120  1  0
M  END
$$$$
