
     RDKit          3D

 44 46  0  0  0  0  0  0  0  0999 V2000
   -2.7639   -2.5390    0.3875 O   0  0  0  0  0  0  0  0  0  0  0  0
   -2.5292   -1.2894    0.1833 C   0  0  0  0  0  0  0  0  0  0  0  0
   -3.6148   -0.4280    0.3487 N   0  0  0  0  0  0  0  0  0  0  0  0
   -3.6611    0.9998    0.1974 C   0  0  0  0  0  0  0  0  0  0  0  0
   -4.9408    1.5063    0.9090 C   0  0  0  0  0  0  0  0  0  0  0  0
   -6.0842    0.9934    0.3480 O   0  0  0  0  0  0  0  0  0  0  0  0
   -5.9434   -0.3010   -0.1214 C   0  0  0  0  0  0  0  0  0  0  0  0
   -4.9140   -1.0304    0.7355 C   0  0  0  0  0  0  0  0  0  0  0  0
   -1.2114   -0.9909   -0.1747 N   0  0  0  0  0  0  0  0  0  0  0  0
   -0.2035   -2.0479   -0.2834 C   0  0  0  0  0  0  0  0  0  0  0  0
    1.0528   -1.5550    0.4504 C   0  0  0  0  0  0  0  0  0  0  0  0
    1.5106   -0.3810   -0.3217 N   0  0  0  0  0  0  0  0  0  0  0  0
    2.8594    0.0255   -0.2724 C   0  0  0  0  0  0  0  0  0  0  0  0
    3.3452    0.9974   -1.1062 C   0  0  0  0  0  0  0  0  0  0  0  0
    4.6928    1.3744   -1.0172 C   0  0  0  0  0  0  0  0  0  0  0  0
    5.5288    0.7795   -0.1040 C   0  0  0  0  0  0  0  0  0  0  0  0
    6.9449    1.2285   -0.0648 C   0  0  0  0  0  0  0  0  0  0  0  0
    6.9814    2.3237    0.8003 F   0  0  0  0  0  0  0  0  0  0  0  0
    7.3038    1.7225   -1.3213 F   0  0  0  0  0  0  0  0  0  0  0  0
    7.7744    0.2177    0.3434 F   0  0  0  0  0  0  0  0  0  0  0  0
    5.0364   -0.1950    0.7296 C   0  0  0  0  0  0  0  0  0  0  0  0
    3.7028   -0.5664    0.6402 C   0  0  0  0  0  0  0  0  0  0  0  0
    0.5735    0.3609   -1.1309 C   0  0  0  0  0  0  0  0  0  0  0  0
   -0.7919    0.3551   -0.4479 C   0  0  0  0  0  0  0  0  0  0  0  0
   -3.7542    1.2804   -0.8822 H   0  0  0  0  0  0  0  0  0  0  0  0
   -2.8528    1.5593    0.6634 H   0  0  0  0  0  0  0  0  0  0  0  0
   -4.8588    1.1604    1.9584 H   0  0  0  0  0  0  0  0  0  0  0  0
   -4.9402    2.6249    0.8657 H   0  0  0  0  0  0  0  0  0  0  0  0
   -5.5416   -0.3001   -1.1540 H   0  0  0  0  0  0  0  0  0  0  0  0
   -6.8756   -0.8555   -0.0516 H   0  0  0  0  0  0  0  0  0  0  0  0
   -4.8957   -2.0689    0.3983 H   0  0  0  0  0  0  0  0  0  0  0  0
   -5.0825   -0.8961    1.8071 H   0  0  0  0  0  0  0  0  0  0  0  0
    0.0264   -2.3137   -1.3161 H   0  0  0  0  0  0  0  0  0  0  0  0
   -0.5443   -2.9575    0.2506 H   0  0  0  0  0  0  0  0  0  0  0  0
    0.7098   -1.2535    1.4583 H   0  0  0  0  0  0  0  0  0  0  0  0
    1.8321   -2.3163    0.4316 H   0  0  0  0  0  0  0  0  0  0  0  0
    2.7272    1.4921   -1.8454 H   0  0  0  0  0  0  0  0  0  0  0  0
    5.0130    2.1413   -1.6963 H   0  0  0  0  0  0  0  0  0  0  0  0
    5.7096   -0.6659    1.4561 H   0  0  0  0  0  0  0  0  0  0  0  0
    3.3733   -1.3506    1.3363 H   0  0  0  0  0  0  0  0  0  0  0  0
    0.5093   -0.0291   -2.1628 H   0  0  0  0  0  0  0  0  0  0  0  0
    0.8630    1.4499   -1.1501 H   0  0  0  0  0  0  0  0  0  0  0  0
   -0.6082    0.8344    0.5435 H   0  0  0  0  0  0  0  0  0  0  0  0
   -1.4582    0.9036   -1.1144 H   0  0  0  0  0  0  0  0  0  0  0  0
  1  2  2  0
  2  3  1  0
  3  4  1  0
  4  5  1  0
  5  6  1  0
  6  7  1  0
  7  8  1  0
  2  9  1  0
  9 10  1  0
 10 11  1  0
 11 12  1  0
 12 13  1  0
 13 14  2  0
 14 15  1  0
 15 16  2  0
 16 17  1  0
 17 18  1  0
 17 19  1  0
 17 20  1  0
 16 21  1  0
 21 22  2  0
 12 23  1  0
 23 24  1  0
  8  3  1  0
 24  9  1  0
 22 13  1  0
  4 25  1  0
  4 26  1  0
  5 27  1  0
  5 28  1  0
  7 29  1  0
  7 30  1  0
  8 31  1  0
  8 32  1  0
 10 33  1  0
 10 34  1  0
 11 35  1  0
 11 36  1  0
 14 37  1  0
 15 38  1  0
 21 39  1  0
 22 40  1  0
 23 41  1  0
 23 42  1  0
 24 43  1  0
 24 44  1  0
M  END
$$$$
