
     RDKit          3D

 60 62  0  0  0  0  0  0  0  0999 V2000
   -2.3186   -0.8216   -1.8674 C   0  0  1  0  0  0  0  0  0  0  0  0
   -1.2439   -0.8799   -2.9933 C   0  0  0  0  0  0  0  0  0  0  0  0
   -2.2527   -2.0830   -1.0652 C   0  0  0  0  0  0  0  0  0  0  0  0
   -3.2506   -2.1974    0.0511 C   0  0  0  0  0  0  0  0  0  0  0  0
   -2.0955    0.4437   -1.0997 C   0  0  2  0  0  0  0  0  0  0  0  0
   -0.7643    0.4318   -0.5227 N   0  0  0  0  0  0  0  0  0  0  0  0
    0.2079    1.3577   -0.9855 C   0  0  0  0  0  0  0  0  0  0  0  0
    0.2065    2.2741   -1.8530 O   0  0  0  0  0  0  0  0  0  0  0  0
    1.5945    1.4084   -0.4446 C   0  0  1  0  0  0  0  0  0  0  0  0
    1.8595    0.9534    0.8367 O   0  0  0  0  0  0  0  0  0  0  0  0
    2.2453    0.0592   -0.1325 C   0  0  2  0  0  0  0  0  0  0  0  0
    3.6892   -0.0918   -0.4771 C   0  0  0  0  0  0  0  0  0  0  0  0
    4.0496   -1.2370   -0.8956 O   0  0  0  0  0  0  0  0  0  0  0  0
    4.6367    0.9372   -0.3648 N   0  0  0  0  0  0  0  0  0  0  0  0
    6.0332    0.8865   -0.6701 C   0  0  0  0  0  0  0  0  0  0  0  0
    6.7998    0.1825    0.3647 C   0  0  0  0  0  0  0  0  0  0  0  0
    7.0760   -1.1799    0.3878 C   0  0  0  0  0  0  0  0  0  0  0  0
    7.8029   -1.7866    1.3889 C   0  0  0  0  0  0  0  0  0  0  0  0
    8.2837   -0.9952    2.4277 C   0  0  0  0  0  0  0  0  0  0  0  0
    8.0473    0.3632    2.4687 C   0  0  0  0  0  0  0  0  0  0  0  0
    7.3057    0.9136    1.4256 C   0  0  0  0  0  0  0  0  0  0  0  0
   -3.0724    0.7599   -0.0668 C   0  0  0  0  0  0  0  0  0  0  0  0
   -1.9870    0.8251    0.5565 O   0  0  0  0  0  0  0  0  0  0  0  0
   -4.4626    0.9015    0.0879 N   0  0  0  0  0  0  0  0  0  0  0  0
   -5.5927    0.7743   -0.8155 C   0  0  0  0  0  0  0  0  0  0  0  0
   -6.6435    0.0015   -0.0274 C   0  0  0  0  0  0  0  0  0  0  0  0
   -6.2276    0.1417    1.4218 C   0  0  0  0  0  0  0  0  0  0  0  0
   -5.1580    1.2372    1.2964 C   0  0  1  0  0  0  0  0  0  0  0  0
   -4.3680    1.1595    2.5303 C   0  0  0  0  0  0  0  0  0  0  0  0
   -5.1509    1.5147    3.6349 O   0  0  0  0  0  0  0  0  0  0  0  0
   -3.1945    0.8663    2.8751 O   0  0  0  0  0  0  0  0  0  0  0  0
   -3.2754   -0.7768   -2.3838 H   0  0  0  0  0  0  0  0  0  0  0  0
   -0.3213   -1.3343   -2.5960 H   0  0  0  0  0  0  0  0  0  0  0  0
   -1.6886   -1.4187   -3.8454 H   0  0  0  0  0  0  0  0  0  0  0  0
   -1.0576    0.1656   -3.3005 H   0  0  0  0  0  0  0  0  0  0  0  0
   -2.3150   -2.9720   -1.7563 H   0  0  0  0  0  0  0  0  0  0  0  0
   -1.2497   -2.1224   -0.5885 H   0  0  0  0  0  0  0  0  0  0  0  0
   -3.3701   -3.2750    0.3413 H   0  0  0  0  0  0  0  0  0  0  0  0
   -4.2267   -1.8087   -0.3499 H   0  0  0  0  0  0  0  0  0  0  0  0
   -3.0159   -1.6218    0.9574 H   0  0  0  0  0  0  0  0  0  0  0  0
   -2.0669    1.2632   -1.8842 H   0  0  0  0  0  0  0  0  0  0  0  0
   -0.4046   -0.1978    0.2237 H   0  0  0  0  0  0  0  0  0  0  0  0
    2.2840    2.1482   -0.8506 H   0  0  0  0  0  0  0  0  0  0  0  0
    1.6744   -0.8643   -0.2897 H   0  0  0  0  0  0  0  0  0  0  0  0
    4.2181    1.8280   -0.0105 H   0  0  0  0  0  0  0  0  0  0  0  0
    6.2496    0.3938   -1.6413 H   0  0  0  0  0  0  0  0  0  0  0  0
    6.4381    1.9082   -0.7562 H   0  0  0  0  0  0  0  0  0  0  0  0
    6.7007   -1.7679   -0.4146 H   0  0  0  0  0  0  0  0  0  0  0  0
    7.9783   -2.8621    1.3375 H   0  0  0  0  0  0  0  0  0  0  0  0
    8.8626   -1.4656    3.2285 H   0  0  0  0  0  0  0  0  0  0  0  0
    8.4320    0.9423    3.2837 H   0  0  0  0  0  0  0  0  0  0  0  0
    7.1287    1.9620    1.4662 H   0  0  0  0  0  0  0  0  0  0  0  0
   -5.3696    0.1657   -1.6967 H   0  0  0  0  0  0  0  0  0  0  0  0
   -6.0490    1.7587   -1.0605 H   0  0  0  0  0  0  0  0  0  0  0  0
   -6.7536   -1.0383   -0.3492 H   0  0  0  0  0  0  0  0  0  0  0  0
   -7.6375    0.4873   -0.0988 H   0  0  0  0  0  0  0  0  0  0  0  0
   -7.0295    0.4451    2.0952 H   0  0  0  0  0  0  0  0  0  0  0  0
   -5.7182   -0.8001    1.6835 H   0  0  0  0  0  0  0  0  0  0  0  0
   -5.6475    2.2293    1.1712 H   0  0  0  0  0  0  0  0  0  0  0  0
   -4.8252    1.5078    4.5932 H   0  0  0  0  0  0  0  0  0  0  0  0
  1  2  1  0
  1  3  1  0
  3  4  1  0
  1  5  1  0
  5  6  1  0
  6  7  1  0
  7  8  2  0
  7  9  1  0
  9 10  1  0
 10 11  1  0
 11 12  1  0
 12 13  2  0
 12 14  1  0
 14 15  1  0
 15 16  1  0
 16 17  2  0
 17 18  1  0
 18 19  2  0
 19 20  1  0
 20 21  2  0
  5 22  1  0
 22 23  2  0
 22 24  1  0
 24 25  1  0
 25 26  1  0
 26 27  1  0
 27 28  1  0
 28 29  1  0
 29 30  1  0
 29 31  2  0
 11  9  1  0
 21 16  1  0
 28 24  1  0
  1 32  1  6
  2 33  1  0
  2 34  1  0
  2 35  1  0
  3 36  1  0
  3 37  1  0
  4 38  1  0
  4 39  1  0
  4 40  1  0
  5 41  1  6
  6 42  1  0
  9 43  1  6
 11 44  1  1
 14 45  1  0
 15 46  1  0
 15 47  1  0
 17 48  1  0
 18 49  1  0
 19 50  1  0
 20 51  1  0
 21 52  1  0
 25 53  1  0
 25 54  1  0
 26 55  1  0
 26 56  1  0
 27 57  1  0
 27 58  1  0
 28 59  1  6
 30 60  1  0
M  END
$$$$
