
     RDKit          3D

 69 73  0  0  0  0  0  0  0  0999 V2000
    1.2489   -4.0805    0.4661 C   0  0  0  0  0  0  0  0  0  0  0  0
    0.2463   -3.0314    0.0394 C   0  0  0  0  0  0  0  0  0  0  0  0
    0.4808   -1.7251    0.7451 C   0  0  0  0  0  0  0  0  0  0  0  0
   -0.4658   -0.6683    0.3780 C   0  0  0  0  0  0  0  0  0  0  0  0
   -0.0193    0.3934   -0.1033 O   0  0  0  0  0  0  0  0  0  0  0  0
   -1.8709   -0.7920    0.5430 N   0  0  0  0  0  0  0  0  0  0  0  0
   -2.8074    0.2375    0.1866 C   0  0  1  0  0  0  0  0  0  0  0  0
   -3.7796   -0.1546   -0.8796 C   0  0  0  0  0  0  0  0  0  0  0  0
   -4.7478   -1.2175   -0.4615 C   0  0  0  0  0  0  0  0  0  0  0  0
   -5.5005   -0.7610    0.7570 C   0  0  0  0  0  0  0  0  0  0  0  0
   -4.4814   -0.4326    1.8352 C   0  0  0  0  0  0  0  0  0  0  0  0
   -3.5950    0.6857    1.3925 C   0  0  0  0  0  0  0  0  0  0  0  0
   -4.3800    1.9380    1.0469 C   0  0  0  0  0  0  0  0  0  0  0  0
   -5.3602    1.5799   -0.0455 C   0  0  2  0  0  0  0  0  0  0  0  0
   -6.1401    2.7642   -0.4132 C   0  0  0  0  0  0  0  0  0  0  0  0
   -7.1432    2.8027   -1.3925 N   0  0  0  0  0  0  0  0  0  0  0  0
   -5.8952    3.8585    0.2024 O   0  0  0  0  0  0  0  0  0  0  0  0
   -6.2779    0.5028    0.4982 C   0  0  0  0  0  0  0  0  0  0  0  0
   -4.5814    1.0836   -1.2476 C   0  0  0  0  0  0  0  0  0  0  0  0
    1.8623   -1.3847    0.5691 N   0  0  0  0  0  0  0  0  0  0  0  0
    2.3385   -0.2569    1.2854 C   0  0  0  0  0  0  0  0  0  0  0  0
    3.1781    0.6659    0.4106 C   0  0  0  0  0  0  0  0  0  0  0  0
    4.2497   -0.1202   -0.1336 N   0  0  0  0  0  0  0  0  0  0  0  0
    5.5472    0.4107   -0.2488 C   0  0  0  0  0  0  0  0  0  0  0  0
    5.7871    1.7349    0.0070 C   0  0  0  0  0  0  0  0  0  0  0  0
    7.0658    2.2969   -0.0925 C   0  0  0  0  0  0  0  0  0  0  0  0
    8.1030    1.4986   -0.4560 C   0  0  0  0  0  0  0  0  0  0  0  0
    9.4675    2.0498   -0.5732 C   0  0  0  0  0  0  0  0  0  0  0  0
   10.3929    1.1313   -0.1128 F   0  0  0  0  0  0  0  0  0  0  0  0
    9.6320    3.1969    0.1796 F   0  0  0  0  0  0  0  0  0  0  0  0
    9.7983    2.3649   -1.8714 F   0  0  0  0  0  0  0  0  0  0  0  0
    7.8306    0.1689   -0.7074 C   0  0  0  0  0  0  0  0  0  0  0  0
    6.6047   -0.3564   -0.6089 N   0  0  0  0  0  0  0  0  0  0  0  0
    3.9315   -1.4735   -0.5661 C   0  0  0  0  0  0  0  0  0  0  0  0
    2.4026   -1.5574   -0.7302 C   0  0  0  0  0  0  0  0  0  0  0  0
    2.1444   -3.6737    0.9421 H   0  0  0  0  0  0  0  0  0  0  0  0
    0.8123   -4.8087    1.1828 H   0  0  0  0  0  0  0  0  0  0  0  0
    1.5861   -4.7169   -0.4033 H   0  0  0  0  0  0  0  0  0  0  0  0
    0.2326   -3.0009   -1.0433 H   0  0  0  0  0  0  0  0  0  0  0  0
   -0.7655   -3.4352    0.3462 H   0  0  0  0  0  0  0  0  0  0  0  0
    0.3307   -1.9148    1.8331 H   0  0  0  0  0  0  0  0  0  0  0  0
   -2.1631   -1.7226    0.9553 H   0  0  0  0  0  0  0  0  0  0  0  0
   -2.1997    1.0771   -0.2327 H   0  0  0  0  0  0  0  0  0  0  0  0
   -3.2901   -0.4906   -1.8209 H   0  0  0  0  0  0  0  0  0  0  0  0
   -5.5123   -1.2936   -1.2894 H   0  0  0  0  0  0  0  0  0  0  0  0
   -4.3067   -2.2028   -0.2876 H   0  0  0  0  0  0  0  0  0  0  0  0
   -6.1975   -1.5389    1.1052 H   0  0  0  0  0  0  0  0  0  0  0  0
   -3.8644   -1.3399    1.9823 H   0  0  0  0  0  0  0  0  0  0  0  0
   -4.9945   -0.2158    2.7955 H   0  0  0  0  0  0  0  0  0  0  0  0
   -2.8629    0.8959    2.2026 H   0  0  0  0  0  0  0  0  0  0  0  0
   -3.6616    2.6631    0.6147 H   0  0  0  0  0  0  0  0  0  0  0  0
   -4.8637    2.3008    1.9572 H   0  0  0  0  0  0  0  0  0  0  0  0
   -6.8991    2.6933   -2.3883 H   0  0  0  0  0  0  0  0  0  0  0  0
   -8.1290    2.9402   -1.1231 H   0  0  0  0  0  0  0  0  0  0  0  0
   -6.6276    0.8685    1.5000 H   0  0  0  0  0  0  0  0  0  0  0  0
   -7.1770    0.3508   -0.1148 H   0  0  0  0  0  0  0  0  0  0  0  0
   -5.3305    0.8546   -2.0411 H   0  0  0  0  0  0  0  0  0  0  0  0
   -3.9416    1.9128   -1.5933 H   0  0  0  0  0  0  0  0  0  0  0  0
    1.4732    0.3423    1.6497 H   0  0  0  0  0  0  0  0  0  0  0  0
    2.9811   -0.5585    2.1491 H   0  0  0  0  0  0  0  0  0  0  0  0
    3.5038    1.4788    1.0967 H   0  0  0  0  0  0  0  0  0  0  0  0
    2.5973    1.0561   -0.4483 H   0  0  0  0  0  0  0  0  0  0  0  0
    5.0278    2.4578    0.2996 H   0  0  0  0  0  0  0  0  0  0  0  0
    7.2565    3.3365    0.1081 H   0  0  0  0  0  0  0  0  0  0  0  0
    8.6708   -0.4542   -0.9965 H   0  0  0  0  0  0  0  0  0  0  0  0
    4.2642   -2.1491    0.2515 H   0  0  0  0  0  0  0  0  0  0  0  0
    4.4484   -1.7705   -1.4779 H   0  0  0  0  0  0  0  0  0  0  0  0
    2.1329   -0.7646   -1.4531 H   0  0  0  0  0  0  0  0  0  0  0  0
    2.2024   -2.5303   -1.1630 H   0  0  0  0  0  0  0  0  0  0  0  0
  1  2  1  0
  2  3  1  0
  3  4  1  0
  4  5  2  0
  4  6  1  0
  6  7  1  0
  7  8  1  0
  8  9  1  0
  9 10  1  0
 10 11  1  0
 11 12  1  0
 12 13  1  0
 13 14  1  0
 14 15  1  6
 15 16  1  0
 15 17  2  0
 14 18  1  0
 14 19  1  0
  3 20  1  0
 20 21  1  0
 21 22  1  0
 22 23  1  0
 23 24  1  0
 24 25  2  0
 25 26  1  0
 26 27  2  0
 27 28  1  0
 28 29  1  0
 28 30  1  0
 28 31  1  0
 27 32  1  0
 32 33  2  0
 23 34  1  0
 34 35  1  0
 12  7  1  0
 35 20  1  0
 19  8  1  0
 33 24  1  0
 18 10  1  0
  1 36  1  0
  1 37  1  0
  1 38  1  0
  2 39  1  0
  2 40  1  0
  3 41  1  0
  6 42  1  0
  7 43  1  6
  8 44  1  0
  9 45  1  0
  9 46  1  0
 10 47  1  0
 11 48  1  0
 11 49  1  0
 12 50  1  0
 13 51  1  0
 13 52  1  0
 16 53  1  0
 16 54  1  0
 18 55  1  0
 18 56  1  0
 19 57  1  0
 19 58  1  0
 21 59  1  0
 21 60  1  0
 22 61  1  0
 22 62  1  0
 25 63  1  0
 26 64  1  0
 32 65  1  0
 34 66  1  0
 34 67  1  0
 35 68  1  0
 35 69  1  0
M  END
$$$$
