
     RDKit          3D

 68 71  0  0  0  0  0  0  0  0999 V2000
    0.5688    1.0852    3.8231 C   0  0  0  0  0  0  0  0  0  0  0  0
    0.4092    1.6384    2.3941 C   0  0  0  0  0  0  0  0  0  0  0  0
    0.9622    3.0250    2.3909 C   0  0  0  0  0  0  0  0  0  0  0  0
   -1.0620    1.5975    2.1616 C   0  0  0  0  0  0  0  0  0  0  0  0
   -1.7784    2.3990    2.7934 O   0  0  0  0  0  0  0  0  0  0  0  0
   -1.7280    0.7196    1.2776 N   0  0  0  0  0  0  0  0  0  0  0  0
   -3.1332    0.6809    1.0542 C   0  0  1  0  0  0  0  0  0  0  0  0
   -3.3752    1.1364   -0.3880 C   0  0  0  0  0  0  0  0  0  0  0  0
   -4.8304    1.2864   -0.6891 C   0  0  0  0  0  0  0  0  0  0  0  0
   -5.6996    0.1553   -0.2651 C   0  0  0  0  0  0  0  0  0  0  0  0
   -5.3235   -0.3159    1.0973 C   0  0  0  0  0  0  0  0  0  0  0  0
   -3.8146   -0.6194    1.2049 C   0  0  0  0  0  0  0  0  0  0  0  0
   -3.4741   -1.6529    0.1937 C   0  0  0  0  0  0  0  0  0  0  0  0
   -2.7868   -1.2325   -1.0294 C   0  0  1  0  0  0  0  0  0  0  0  0
   -3.4407   -1.8298   -2.2409 C   0  0  0  0  0  0  0  0  0  0  0  0
   -3.5389   -3.2402   -2.3885 N   0  0  0  0  0  0  0  0  0  0  0  0
   -3.9216   -1.1235   -3.1615 O   0  0  0  0  0  0  0  0  0  0  0  0
   -2.6242    0.2205   -1.2768 C   0  0  0  0  0  0  0  0  0  0  0  0
    1.1186    0.7248    1.5401 N   0  0  0  0  0  0  0  0  0  0  0  0
    2.5074    0.6013    1.9732 C   0  0  0  0  0  0  0  0  0  0  0  0
    3.1487   -0.5151    1.2213 C   0  0  0  0  0  0  0  0  0  0  0  0
    3.0734   -0.2340   -0.1986 N   0  0  0  0  0  0  0  0  0  0  0  0
    4.1682   -0.6225   -1.0284 C   0  0  0  0  0  0  0  0  0  0  0  0
    4.1766   -0.5062   -2.3990 C   0  0  0  0  0  0  0  0  0  0  0  0
    5.2558   -0.8898   -3.1674 C   0  0  0  0  0  0  0  0  0  0  0  0
    6.3620   -1.4064   -2.5433 C   0  0  0  0  0  0  0  0  0  0  0  0
    7.5278   -1.8213   -3.3700 C   0  0  0  0  0  0  0  0  0  0  0  0
    7.8882   -0.7830   -4.2215 F   0  0  0  0  0  0  0  0  0  0  0  0
    8.6164   -2.0749   -2.5669 F   0  0  0  0  0  0  0  0  0  0  0  0
    7.2299   -2.9800   -4.0597 F   0  0  0  0  0  0  0  0  0  0  0  0
    6.3417   -1.5173   -1.1756 C   0  0  0  0  0  0  0  0  0  0  0  0
    5.2701   -1.1322   -0.4606 N   0  0  0  0  0  0  0  0  0  0  0  0
    1.9040    0.4299   -0.7589 C   0  0  0  0  0  0  0  0  0  0  0  0
    1.2315    1.3570    0.2104 C   0  0  0  0  0  0  0  0  0  0  0  0
    1.4576    1.5325    4.3115 H   0  0  0  0  0  0  0  0  0  0  0  0
   -0.3010    1.4297    4.4168 H   0  0  0  0  0  0  0  0  0  0  0  0
    0.5586   -0.0137    3.8280 H   0  0  0  0  0  0  0  0  0  0  0  0
    0.8374    3.5557    1.4392 H   0  0  0  0  0  0  0  0  0  0  0  0
    0.3810    3.6155    3.1577 H   0  0  0  0  0  0  0  0  0  0  0  0
    2.0086    2.9977    2.7022 H   0  0  0  0  0  0  0  0  0  0  0  0
   -1.1385    0.0410    0.7485 H   0  0  0  0  0  0  0  0  0  0  0  0
   -3.6877    1.4417    1.6778 H   0  0  0  0  0  0  0  0  0  0  0  0
   -2.9126    2.1549   -0.4470 H   0  0  0  0  0  0  0  0  0  0  0  0
   -4.9348    1.5412   -1.7536 H   0  0  0  0  0  0  0  0  0  0  0  0
   -5.1801    2.2016   -0.1310 H   0  0  0  0  0  0  0  0  0  0  0  0
   -5.7854   -0.6722   -0.9961 H   0  0  0  0  0  0  0  0  0  0  0  0
   -6.7416    0.5677   -0.1774 H   0  0  0  0  0  0  0  0  0  0  0  0
   -5.8611   -1.2588    1.3167 H   0  0  0  0  0  0  0  0  0  0  0  0
   -5.5476    0.4929    1.8340 H   0  0  0  0  0  0  0  0  0  0  0  0
   -3.7439   -1.0314    2.2566 H   0  0  0  0  0  0  0  0  0  0  0  0
   -4.4188   -2.2117   -0.0848 H   0  0  0  0  0  0  0  0  0  0  0  0
   -2.8845   -2.4555    0.7369 H   0  0  0  0  0  0  0  0  0  0  0  0
   -1.7516   -1.6918   -1.0392 H   0  0  0  0  0  0  0  0  0  0  0  0
   -2.7272   -3.8583   -2.5902 H   0  0  0  0  0  0  0  0  0  0  0  0
   -4.4828   -3.6877   -2.2892 H   0  0  0  0  0  0  0  0  0  0  0  0
   -1.5386    0.5364   -1.2174 H   0  0  0  0  0  0  0  0  0  0  0  0
   -2.8964    0.5030   -2.3389 H   0  0  0  0  0  0  0  0  0  0  0  0
    3.0209    1.5372    1.7099 H   0  0  0  0  0  0  0  0  0  0  0  0
    2.5860    0.3951    3.0567 H   0  0  0  0  0  0  0  0  0  0  0  0
    2.7174   -1.5139    1.4713 H   0  0  0  0  0  0  0  0  0  0  0  0
    4.2255   -0.5854    1.5489 H   0  0  0  0  0  0  0  0  0  0  0  0
    3.3044   -0.1003   -2.8875 H   0  0  0  0  0  0  0  0  0  0  0  0
    5.2549   -0.7945   -4.2544 H   0  0  0  0  0  0  0  0  0  0  0  0
    7.2077   -1.9221   -0.6810 H   0  0  0  0  0  0  0  0  0  0  0  0
    1.2179   -0.2919   -1.2343 H   0  0  0  0  0  0  0  0  0  0  0  0
    2.2913    1.0853   -1.5881 H   0  0  0  0  0  0  0  0  0  0  0  0
    0.2811    1.6912   -0.1824 H   0  0  0  0  0  0  0  0  0  0  0  0
    1.9543    2.2088    0.3855 H   0  0  0  0  0  0  0  0  0  0  0  0
  1  2  1  0
  2  3  1  0
  2  4  1  0
  4  5  2  0
  4  6  1  0
  6  7  1  0
  7  8  1  0
  8  9  1  0
  9 10  1  0
 10 11  1  0
 11 12  1  0
 12 13  1  0
 13 14  1  0
 14 15  1  0
 15 16  1  0
 15 17  2  0
 14 18  1  0
  2 19  1  0
 19 20  1  0
 20 21  1  0
 21 22  1  0
 22 23  1  0
 23 24  2  0
 24 25  1  0
 25 26  2  0
 26 27  1  0
 27 28  1  0
 27 29  1  0
 27 30  1  0
 26 31  1  0
 31 32  2  0
 22 33  1  0
 33 34  1  0
 12  7  1  0
 34 19  1  0
 18  8  1  0
 32 23  1  0
  1 35  1  0
  1 36  1  0
  1 37  1  0
  3 38  1  0
  3 39  1  0
  3 40  1  0
  6 41  1  0
  7 42  1  1
  8 43  1  0
  9 44  1  0
  9 45  1  0
 10 46  1  0
 10 47  1  0
 11 48  1  0
 11 49  1  0
 12 50  1  0
 13 51  1  0
 13 52  1  0
 14 53  1  1
 16 54  1  0
 16 55  1  0
 18 56  1  0
 18 57  1  0
 20 58  1  0
 20 59  1  0
 21 60  1  0
 21 61  1  0
 24 62  1  0
 25 63  1  0
 31 64  1  0
 33 65  1  0
 33 66  1  0
 34 67  1  0
 34 68  1  0
M  END
$$$$
