
     RDKit          3D

 58 61  0  0  0  0  0  0  0  0999 V2000
    2.1069    3.0894   -0.3365 C   0  0  0  0  0  0  0  0  0  0  0  0
    1.3525    1.8392    0.0879 C   0  0  1  0  0  0  0  0  0  0  0  0
    0.5367    1.3771   -0.9300 O   0  0  0  0  0  0  0  0  0  0  0  0
   -0.8099    1.4744   -0.7194 C   0  0  1  0  0  0  0  0  0  0  0  0
   -1.3530    2.3260   -1.6449 O   0  0  0  0  0  0  0  0  0  0  0  0
   -2.1556    1.8056   -2.6064 C   0  0  0  0  0  0  0  0  0  0  0  0
   -3.1438    0.7689   -2.2303 C   0  0  0  0  0  0  0  0  0  0  0  0
   -2.9424    0.3088   -0.8982 N   0  0  0  0  0  0  0  0  0  0  0  0
   -3.5564    1.1279    0.1119 C   0  0  0  0  0  0  0  0  0  0  0  0
   -3.3572    0.6287    1.4946 C   0  0  0  0  0  0  0  0  0  0  0  0
   -2.4180    0.8371    2.4396 N   0  0  0  0  0  0  0  0  0  0  0  0
   -2.6821    0.1523    3.5350 N   0  0  0  0  0  0  0  0  0  0  0  0
   -3.8192   -0.5333    3.3327 C   0  0  0  0  0  0  0  0  0  0  0  0
   -4.2912   -1.2702    4.2319 O   0  0  0  0  0  0  0  0  0  0  0  0
   -4.2131   -0.2296    2.0865 N   0  0  0  0  0  0  0  0  0  0  0  0
   -1.4978    0.1571   -0.7044 C   0  0  1  0  0  0  0  0  0  0  0  0
   -1.0232   -0.8739   -1.6197 C   0  0  0  0  0  0  0  0  0  0  0  0
   -0.0108   -1.0224   -2.5136 C   0  0  0  0  0  0  0  0  0  0  0  0
    0.2430   -2.1348   -3.2746 C   0  0  0  0  0  0  0  0  0  0  0  0
   -0.5740   -3.2343   -3.1625 C   0  0  0  0  0  0  0  0  0  0  0  0
   -0.2613   -4.2805   -3.9380 F   0  0  0  0  0  0  0  0  0  0  0  0
   -1.6179   -3.1519   -2.2764 C   0  0  0  0  0  0  0  0  0  0  0  0
   -1.8492   -2.0070   -1.5173 C   0  0  0  0  0  0  0  0  0  0  0  0
    2.2496    0.8299    0.6736 C   0  0  0  0  0  0  0  0  0  0  0  0
    1.8616   -0.4456    1.0122 C   0  0  0  0  0  0  0  0  0  0  0  0
    2.7304   -1.3663    1.5595 C   0  0  0  0  0  0  0  0  0  0  0  0
    4.0589   -1.0516    1.8008 C   0  0  0  0  0  0  0  0  0  0  0  0
    4.4633    0.2283    1.4649 C   0  0  0  0  0  0  0  0  0  0  0  0
    3.5918    1.1425    0.9192 C   0  0  0  0  0  0  0  0  0  0  0  0
    5.8975    0.5402    1.7349 C   0  0  0  0  0  0  0  0  0  0  0  0
    5.9692    1.8877    2.1105 F   0  0  0  0  0  0  0  0  0  0  0  0
    6.6803    0.4208    0.5986 F   0  0  0  0  0  0  0  0  0  0  0  0
    6.4177   -0.2752    2.7072 F   0  0  0  0  0  0  0  0  0  0  0  0
    2.2223   -2.7372    1.8990 C   0  0  0  0  0  0  0  0  0  0  0  0
    3.1037   -3.3973    2.7276 F   0  0  0  0  0  0  0  0  0  0  0  0
    1.0054   -2.6632    2.5102 F   0  0  0  0  0  0  0  0  0  0  0  0
    2.1895   -3.4211    0.6848 F   0  0  0  0  0  0  0  0  0  0  0  0
    2.4117    3.6103    0.5906 H   0  0  0  0  0  0  0  0  0  0  0  0
    3.0054    2.8821   -0.9109 H   0  0  0  0  0  0  0  0  0  0  0  0
    1.3860    3.7210   -0.8834 H   0  0  0  0  0  0  0  0  0  0  0  0
    0.6795    2.1974    0.8961 H   0  0  0  0  0  0  0  0  0  0  0  0
   -1.0008    1.9335    0.2954 H   0  0  0  0  0  0  0  0  0  0  0  0
   -2.6612    2.5899   -3.2220 H   0  0  0  0  0  0  0  0  0  0  0  0
   -1.4642    1.3146   -3.3579 H   0  0  0  0  0  0  0  0  0  0  0  0
   -3.1716   -0.0961   -2.9301 H   0  0  0  0  0  0  0  0  0  0  0  0
   -4.1711    1.2276   -2.2827 H   0  0  0  0  0  0  0  0  0  0  0  0
   -4.6411    1.1633   -0.1144 H   0  0  0  0  0  0  0  0  0  0  0  0
   -3.2180    2.1852    0.0580 H   0  0  0  0  0  0  0  0  0  0  0  0
   -1.9958    0.2651    4.3117 H   0  0  0  0  0  0  0  0  0  0  0  0
   -5.0980   -0.6674    1.7209 H   0  0  0  0  0  0  0  0  0  0  0  0
   -1.4306   -0.2949    0.3276 H   0  0  0  0  0  0  0  0  0  0  0  0
    0.6107   -0.1459   -2.5860 H   0  0  0  0  0  0  0  0  0  0  0  0
    1.0857   -2.0776   -3.9282 H   0  0  0  0  0  0  0  0  0  0  0  0
   -2.2291   -4.0490   -2.2297 H   0  0  0  0  0  0  0  0  0  0  0  0
   -2.7232   -2.1432   -0.8778 H   0  0  0  0  0  0  0  0  0  0  0  0
    0.8557   -0.7547    0.8539 H   0  0  0  0  0  0  0  0  0  0  0  0
    4.6649   -1.8157    2.2247 H   0  0  0  0  0  0  0  0  0  0  0  0
    4.0009    2.1083    0.6932 H   0  0  0  0  0  0  0  0  0  0  0  0
  1  2  1  0
  2  3  1  0
  3  4  1  0
  4  5  1  0
  5  6  1  0
  6  7  1  0
  7  8  1  0
  8  9  1  0
  9 10  1  0
 10 11  2  0
 11 12  1  0
 12 13  1  0
 13 14  2  0
 13 15  1  0
  8 16  1  0
 16 17  1  0
 17 18  2  0
 18 19  1  0
 19 20  2  0
 20 21  1  0
 20 22  1  0
 22 23  2  0
  2 24  1  0
 24 25  2  0
 25 26  1  0
 26 27  2  0
 27 28  1  0
 28 29  2  0
 28 30  1  0
 30 31  1  0
 30 32  1  0
 30 33  1  0
 26 34  1  0
 34 35  1  0
 34 36  1  0
 34 37  1  0
 16  4  1  0
 23 17  1  0
 29 24  1  0
 15 10  1  0
  1 38  1  0
  1 39  1  0
  1 40  1  0
  2 41  1  1
  4 42  1  1
  6 43  1  0
  6 44  1  0
  7 45  1  0
  7 46  1  0
  9 47  1  0
  9 48  1  0
 12 49  1  0
 15 50  1  0
 16 51  1  1
 18 52  1  0
 19 53  1  0
 22 54  1  0
 23 55  1  0
 25 56  1  0
 27 57  1  0
 29 58  1  0
M  END
$$$$
