
     RDKit          3D

 64 66  0  0  0  0  0  0  0  0999 V2000
    7.4983   -1.2450    0.8252 C   0  0  0  0  0  0  0  0  0  0  0  0
    6.2285   -1.3718    0.0243 C   0  0  0  0  0  0  0  0  0  0  0  0
    5.1111   -1.7694    0.9358 C   0  0  0  0  0  0  0  0  0  0  0  0
    3.5519   -1.9444    0.0678 S   0  0  0  0  0  6  0  0  0  0  0  0
    2.5474   -2.3421    1.1002 O   0  0  0  0  0  0  0  0  0  0  0  0
    3.6735   -2.9652   -1.0253 O   0  0  0  0  0  0  0  0  0  0  0  0
    3.1671   -0.4412   -0.6303 N   0  0  0  0  0  0  0  0  0  0  0  0
    2.9882    0.6292    0.2654 C   0  0  0  0  0  0  0  0  0  0  0  0
    1.6530    1.2957    0.3346 C   0  0  0  0  0  0  0  0  0  0  0  0
    0.4641    0.4792   -0.1152 C   0  0  0  0  0  0  0  0  0  0  0  0
   -0.2783   -0.1230    1.0450 C   0  0  0  0  0  0  0  0  0  0  0  0
   -1.3736   -0.9785    0.7855 N   0  0  0  0  0  0  0  0  0  0  0  0
   -2.6309   -0.7651    0.1999 C   0  0  0  0  0  0  0  0  0  0  0  0
   -2.9102    0.3949   -0.1634 O   0  0  0  0  0  0  0  0  0  0  0  0
   -3.5934   -1.8587    0.0099 C   0  0  0  0  0  0  0  0  0  0  0  0
   -3.0881   -3.0559   -0.4204 C   0  0  0  0  0  0  0  0  0  0  0  0
   -3.9329   -4.1370   -0.6233 C   0  0  0  0  0  0  0  0  0  0  0  0
   -5.2917   -3.9786   -0.3821 C   0  0  0  0  0  0  0  0  0  0  0  0
   -6.1710   -5.0041   -0.5641 F   0  0  0  0  0  0  0  0  0  0  0  0
   -5.7776   -2.7725    0.0476 C   0  0  0  0  0  0  0  0  0  0  0  0
   -4.9260   -1.6731    0.2556 C   0  0  0  0  0  0  0  0  0  0  0  0
   -5.4740   -0.3686    0.7214 C   0  0  0  0  0  0  0  0  0  0  0  0
   -4.9220    0.0361    1.9222 F   0  0  0  0  0  0  0  0  0  0  0  0
   -6.8316   -0.6016    1.0093 F   0  0  0  0  0  0  0  0  0  0  0  0
   -5.4722    0.6036   -0.2470 F   0  0  0  0  0  0  0  0  0  0  0  0
   -0.3908    1.3804   -0.9025 C   0  0  0  0  0  0  0  0  0  0  0  0
   -0.6869    0.9357   -2.0787 O   0  0  0  0  0  0  0  0  0  0  0  0
   -0.9084    2.6359   -0.5423 N   0  0  0  0  0  0  0  0  0  0  0  0
   -0.7645    3.4050    0.6321 C   0  0  0  0  0  0  0  0  0  0  0  0
   -2.1876    3.8473    1.0326 C   0  0  0  0  0  0  0  0  0  0  0  0
   -2.5423    4.8243    0.1470 O   0  0  0  0  0  0  0  0  0  0  0  0
   -2.2161    4.6375   -1.1568 C   0  0  0  0  0  0  0  0  0  0  0  0
   -1.7666    3.2962   -1.5619 C   0  0  0  0  0  0  0  0  0  0  0  0
    0.8707   -0.7239   -0.9653 C   0  0  0  0  0  0  0  0  0  0  0  0
    2.1703   -0.5240   -1.6727 C   0  0  0  0  0  0  0  0  0  0  0  0
    7.5340   -1.9596    1.6652 H   0  0  0  0  0  0  0  0  0  0  0  0
    7.5098   -0.2365    1.2901 H   0  0  0  0  0  0  0  0  0  0  0  0
    8.3895   -1.3224    0.1681 H   0  0  0  0  0  0  0  0  0  0  0  0
    5.9846   -0.3868   -0.4094 H   0  0  0  0  0  0  0  0  0  0  0  0
    6.3471   -2.0980   -0.8273 H   0  0  0  0  0  0  0  0  0  0  0  0
    5.3981   -2.7043    1.4569 H   0  0  0  0  0  0  0  0  0  0  0  0
    5.0246   -1.0020    1.7337 H   0  0  0  0  0  0  0  0  0  0  0  0
    3.8187    1.3586    0.0865 H   0  0  0  0  0  0  0  0  0  0  0  0
    3.2114    0.2416    1.3064 H   0  0  0  0  0  0  0  0  0  0  0  0
    1.7426    2.2251   -0.2538 H   0  0  0  0  0  0  0  0  0  0  0  0
    1.4438    1.6061    1.3868 H   0  0  0  0  0  0  0  0  0  0  0  0
   -0.7159    0.7020    1.7108 H   0  0  0  0  0  0  0  0  0  0  0  0
    0.4924   -0.6666    1.6838 H   0  0  0  0  0  0  0  0  0  0  0  0
   -1.2317   -2.0141    1.0925 H   0  0  0  0  0  0  0  0  0  0  0  0
   -2.0291   -3.1579   -0.6000 H   0  0  0  0  0  0  0  0  0  0  0  0
   -3.5485   -5.0689   -0.9584 H   0  0  0  0  0  0  0  0  0  0  0  0
   -6.8149   -2.6260    0.2386 H   0  0  0  0  0  0  0  0  0  0  0  0
   -0.2545    4.4065    0.4302 H   0  0  0  0  0  0  0  0  0  0  0  0
   -0.3591    2.9941    1.5326 H   0  0  0  0  0  0  0  0  0  0  0  0
   -2.8686    2.9991    1.0213 H   0  0  0  0  0  0  0  0  0  0  0  0
   -2.0764    4.3194    2.0320 H   0  0  0  0  0  0  0  0  0  0  0  0
   -3.1319    4.8898   -1.7693 H   0  0  0  0  0  0  0  0  0  0  0  0
   -1.4518    5.3887   -1.4476 H   0  0  0  0  0  0  0  0  0  0  0  0
   -1.1755    3.2874   -2.4901 H   0  0  0  0  0  0  0  0  0  0  0  0
   -2.6255    2.6133   -1.6949 H   0  0  0  0  0  0  0  0  0  0  0  0
    0.8982   -1.6592   -0.4035 H   0  0  0  0  0  0  0  0  0  0  0  0
    0.0873   -0.8160   -1.7654 H   0  0  0  0  0  0  0  0  0  0  0  0
    2.2122    0.3773   -2.2847 H   0  0  0  0  0  0  0  0  0  0  0  0
    2.4018   -1.4480   -2.2413 H   0  0  0  0  0  0  0  0  0  0  0  0
  1  2  1  0
  2  3  1  0
  3  4  1  0
  4  5  2  0
  4  6  2  0
  4  7  1  0
  7  8  1  0
  8  9  1  0
  9 10  1  0
 10 11  1  0
 11 12  1  0
 12 13  1  0
 13 14  2  0
 13 15  1  0
 15 16  2  0
 16 17  1  0
 17 18  2  0
 18 19  1  0
 18 20  1  0
 20 21  2  0
 21 22  1  0
 22 23  1  0
 22 24  1  0
 22 25  1  0
 10 26  1  0
 26 27  2  0
 26 28  1  0
 28 29  1  0
 29 30  1  0
 30 31  1  0
 31 32  1  0
 32 33  1  0
 10 34  1  0
 34 35  1  0
 35  7  1  0
 21 15  1  0
 33 28  1  0
  1 36  1  0
  1 37  1  0
  1 38  1  0
  2 39  1  0
  2 40  1  0
  3 41  1  0
  3 42  1  0
  8 43  1  0
  8 44  1  0
  9 45  1  0
  9 46  1  0
 11 47  1  0
 11 48  1  0
 12 49  1  0
 16 50  1  0
 17 51  1  0
 20 52  1  0
 29 53  1  0
 29 54  1  0
 30 55  1  0
 30 56  1  0
 32 57  1  0
 32 58  1  0
 33 59  1  0
 33 60  1  0
 34 61  1  0
 34 62  1  0
 35 63  1  0
 35 64  1  0
M  END
$$$$
