
     RDKit          3D

 22 21  0  0  0  0  0  0  0  0999 V2000
   -2.3986    0.6662   -0.6423 C   0  0  0  0  0  0  0  0  0  0  0  0
   -1.4650   -0.4333   -1.0677 C   0  0  0  0  0  0  0  0  0  0  0  0
   -0.8087   -1.0693    0.1494 C   0  0  0  0  0  0  0  0  0  0  0  0
   -0.0237   -0.0732    0.9255 C   0  0  0  0  0  0  0  0  0  0  0  0
    1.0886    0.5821    0.1616 C   0  0  1  0  0  0  0  0  0  0  0  0
    1.7089    1.5104    1.1230 N   0  0  0  0  0  0  0  0  0  0  0  0
    2.1469   -0.4177   -0.1445 C   0  0  0  0  0  0  0  0  0  0  0  0
    2.7220   -1.5265   -0.7369 O   0  0  0  0  0  0  0  0  0  0  0  0
    3.2479   -0.2542    0.4439 O   0  0  0  0  0  0  0  0  0  0  0  0
   -3.1777    0.8169   -1.4103 H   0  0  0  0  0  0  0  0  0  0  0  0
   -2.9020    0.3501    0.2928 H   0  0  0  0  0  0  0  0  0  0  0  0
   -1.8645    1.6412   -0.5584 H   0  0  0  0  0  0  0  0  0  0  0  0
   -0.7238    0.0209   -1.7565 H   0  0  0  0  0  0  0  0  0  0  0  0
   -2.0771   -1.1920   -1.5852 H   0  0  0  0  0  0  0  0  0  0  0  0
   -0.2900   -2.0035   -0.1071 H   0  0  0  0  0  0  0  0  0  0  0  0
   -1.6550   -1.3858    0.8141 H   0  0  0  0  0  0  0  0  0  0  0  0
    0.4153   -0.5630    1.8112 H   0  0  0  0  0  0  0  0  0  0  0  0
   -0.7380    0.6854    1.3043 H   0  0  0  0  0  0  0  0  0  0  0  0
    0.7910    1.1203   -0.7348 H   0  0  0  0  0  0  0  0  0  0  0  0
    1.9226    0.8989    1.9679 H   0  0  0  0  0  0  0  0  0  0  0  0
    0.9382    2.1468    1.4266 H   0  0  0  0  0  0  0  0  0  0  0  0
    3.1424   -1.5206   -1.6764 H   0  0  0  0  0  0  0  0  0  0  0  0
  1  2  1  0
  2  3  1  0
  3  4  1  0
  4  5  1  0
  5  6  1  0
  5  7  1  0
  7  8  1  0
  7  9  2  0
  1 10  1  0
  1 11  1  0
  1 12  1  0
  2 13  1  0
  2 14  1  0
  3 15  1  0
  3 16  1  0
  4 17  1  0
  4 18  1  0
  5 19  1  6
  6 20  1  0
  6 21  1  0
  8 22  1  0
M  END
$$$$
