
     RDKit          3D

 40 43  0  0  0  0  0  0  0  0999 V2000
    7.6350    0.3013   -0.3054 C   0  0  0  0  0  0  0  0  0  0  0  0
    6.2583   -0.2045    0.1466 C   0  0  0  0  0  0  0  0  0  0  0  0
    6.1241   -1.4254    0.6802 N   0  0  0  0  0  0  0  0  0  0  0  0
    4.3051   -1.4217    0.9916 S   0  0  0  0  0  0  0  0  0  0  0  0
    4.0398    0.1385    0.3857 C   0  0  0  0  0  0  0  0  0  0  0  0
    2.7009    0.8595    0.3088 C   0  0  0  0  0  0  0  0  0  0  0  0
    2.4315    2.1251    0.6079 N   0  0  0  0  0  0  0  0  0  0  0  0
    1.1353    2.3782    0.4167 N   0  0  0  0  0  0  0  0  0  0  0  0
    0.5603    1.2297   -0.0211 C   0  0  0  0  0  0  0  0  0  0  0  0
    1.5464    0.3251   -0.0737 N   0  0  0  0  0  0  0  0  0  0  0  0
    1.2607   -1.0506   -0.4944 C   0  0  0  0  0  0  0  0  0  0  0  0
   -0.0365   -1.4842    0.1449 C   0  0  0  0  0  0  0  0  0  0  0  0
   -1.1067   -0.4840   -0.0103 N   0  0  0  0  0  0  0  0  0  0  0  0
   -2.3885   -0.9578    0.2816 C   0  0  0  0  0  0  0  0  0  0  0  0
   -2.3772   -2.2564    0.6409 O   0  0  0  0  0  0  0  0  0  0  0  0
   -3.7050   -0.4361    0.2975 C   0  0  0  0  0  0  0  0  0  0  0  0
   -4.0903    0.7131   -0.3603 C   0  0  0  0  0  0  0  0  0  0  0  0
   -5.4087    1.1056   -0.2826 C   0  0  0  0  0  0  0  0  0  0  0  0
   -5.7602    2.2513   -0.9412 F   0  0  0  0  0  0  0  0  0  0  0  0
   -6.3660    0.3984    0.4289 C   0  0  0  0  0  0  0  0  0  0  0  0
   -6.0108   -0.7534    1.0978 C   0  0  0  0  0  0  0  0  0  0  0  0
   -6.9339   -1.4650    1.7985 F   0  0  0  0  0  0  0  0  0  0  0  0
   -4.7024   -1.1369    1.0161 C   0  0  0  0  0  0  0  0  0  0  0  0
   -0.8275    0.8310   -0.4424 C   0  0  2  0  0  0  0  0  0  0  0  0
   -0.9106    0.9705   -1.9623 C   0  0  0  0  0  0  0  0  0  0  0  0
    5.1813    0.5347    0.0228 N   0  0  0  0  0  0  0  0  0  0  0  0
    7.4833    1.0652   -1.1015 H   0  0  0  0  0  0  0  0  0  0  0  0
    8.1262    0.8304    0.5383 H   0  0  0  0  0  0  0  0  0  0  0  0
    8.2130   -0.5054   -0.7424 H   0  0  0  0  0  0  0  0  0  0  0  0
    1.2951   -1.1822   -1.5881 H   0  0  0  0  0  0  0  0  0  0  0  0
    2.0347   -1.7599   -0.0882 H   0  0  0  0  0  0  0  0  0  0  0  0
    0.1322   -1.6932    1.2392 H   0  0  0  0  0  0  0  0  0  0  0  0
   -0.3459   -2.4496   -0.2998 H   0  0  0  0  0  0  0  0  0  0  0  0
   -3.4078    1.3163   -0.9526 H   0  0  0  0  0  0  0  0  0  0  0  0
   -7.4030    0.7175    0.4800 H   0  0  0  0  0  0  0  0  0  0  0  0
   -4.4611   -2.0551    1.5673 H   0  0  0  0  0  0  0  0  0  0  0  0
   -1.4535    1.6356   -0.0124 H   0  0  0  0  0  0  0  0  0  0  0  0
    0.0076    0.6094   -2.4635 H   0  0  0  0  0  0  0  0  0  0  0  0
   -1.7274    0.3425   -2.3077 H   0  0  0  0  0  0  0  0  0  0  0  0
   -1.0475    2.0428   -2.1693 H   0  0  0  0  0  0  0  0  0  0  0  0
  1  2  1  0
  2  3  2  0
  3  4  1  0
  4  5  1  0
  5  6  1  0
  6  7  2  0
  7  8  1  0
  8  9  2  0
  9 10  1  0
 10 11  1  0
 11 12  1  0
 12 13  1  0
 13 14  1  0
 14 15  2  0
 14 16  1  0
 16 17  2  0
 17 18  1  0
 18 19  1  0
 18 20  2  0
 20 21  1  0
 21 22  1  0
 21 23  2  0
 13 24  1  0
 24 25  1  0
  5 26  2  0
 26  2  1  0
 10  6  1  0
 23 16  1  0
 24  9  1  0
  1 27  1  0
  1 28  1  0
  1 29  1  0
 11 30  1  0
 11 31  1  0
 12 32  1  0
 12 33  1  0
 17 34  1  0
 20 35  1  0
 23 36  1  0
 24 37  1  1
 25 38  1  0
 25 39  1  0
 25 40  1  0
M  END
$$$$
