
     RDKit          3D

 47 52  0  0  0  0  0  0  0  0999 V2000
    2.3753   -1.4604   -3.5845 O   0  0  0  0  0  0  0  0  0  0  0  0
    1.9126   -1.0511   -2.4679 C   0  0  0  0  0  0  0  0  0  0  0  0
    0.5757   -0.9718   -2.2431 N   0  0  0  0  0  0  0  0  0  0  0  0
    0.0871   -0.5403   -1.0659 C   0  0  0  0  0  0  0  0  0  0  0  0
   -1.2721   -0.4713   -0.8687 C   0  0  0  0  0  0  0  0  0  0  0  0
   -1.8019   -0.0296    0.3365 C   0  0  0  0  0  0  0  0  0  0  0  0
   -3.2541    0.0270    0.5039 C   0  0  0  0  0  0  0  0  0  0  0  0
   -3.8459   -0.1729    1.7475 C   0  0  0  0  0  0  0  0  0  0  0  0
   -5.2244   -0.1182    1.8967 C   0  0  0  0  0  0  0  0  0  0  0  0
   -6.0565    0.1350    0.8243 C   0  0  0  0  0  0  0  0  0  0  0  0
   -7.4378    0.1879    0.9852 C   0  0  0  0  0  0  0  0  0  0  0  0
   -8.1846    0.4440   -0.1283 C   0  0  0  0  0  0  0  0  0  0  0  0
   -7.6095    0.6442   -1.3686 C   0  0  0  0  0  0  0  0  0  0  0  0
   -6.2535    0.5908   -1.5186 C   0  0  0  0  0  0  0  0  0  0  0  0
   -5.4719    0.3341   -0.4123 C   0  0  0  0  0  0  0  0  0  0  0  0
   -4.1028    0.2784   -0.5537 C   0  0  0  0  0  0  0  0  0  0  0  0
   -0.9664    0.3486    1.3593 C   0  0  0  0  0  0  0  0  0  0  0  0
    0.4088    0.2831    1.1716 C   0  0  0  0  0  0  0  0  0  0  0  0
    0.9115   -0.1563   -0.0268 C   0  0  0  0  0  0  0  0  0  0  0  0
    2.2636   -0.2273   -0.2292 C   0  0  0  0  0  0  0  0  0  0  0  0
    3.3242    0.0554    0.5340 N   0  0  0  0  0  0  0  0  0  0  0  0
    4.4753   -0.1906   -0.1422 C   0  0  0  0  0  0  0  0  0  0  0  0
    5.7876    0.0290    0.4440 C   0  0  0  0  0  0  0  0  0  0  0  0
    5.8872    0.5046    1.7607 C   0  0  0  0  0  0  0  0  0  0  0  0
    7.0768    0.7396    2.3896 C   0  0  0  0  0  0  0  0  0  0  0  0
    8.2335    0.4922    1.6818 C   0  0  0  0  0  0  0  0  0  0  0  0
    8.1998    0.0282    0.3958 C   0  0  0  0  0  0  0  0  0  0  0  0
    6.9716   -0.1991   -0.2110 C   0  0  0  0  0  0  0  0  0  0  0  0
    7.0175   -0.7913   -1.8576 Cl  0  0  0  0  0  0  0  0  0  0  0  0
    4.1076   -0.6251   -1.3226 N   0  0  0  0  0  0  0  0  0  0  0  0
    2.7518   -0.6728   -1.4444 C   0  0  0  0  0  0  0  0  0  0  0  0
   -0.0817   -1.2546   -3.0078 H   0  0  0  0  0  0  0  0  0  0  0  0
   -1.9441   -0.7614   -1.6539 H   0  0  0  0  0  0  0  0  0  0  0  0
   -3.1787   -0.3698    2.5759 H   0  0  0  0  0  0  0  0  0  0  0  0
   -5.6544   -0.2814    2.8951 H   0  0  0  0  0  0  0  0  0  0  0  0
   -7.8591    0.0303    1.9538 H   0  0  0  0  0  0  0  0  0  0  0  0
   -9.2626    0.4903   -0.0293 H   0  0  0  0  0  0  0  0  0  0  0  0
   -8.2337    0.8448   -2.2257 H   0  0  0  0  0  0  0  0  0  0  0  0
   -5.7551    0.7407   -2.4661 H   0  0  0  0  0  0  0  0  0  0  0  0
   -3.6411    0.4364   -1.5339 H   0  0  0  0  0  0  0  0  0  0  0  0
   -1.4168    0.6854    2.2773 H   0  0  0  0  0  0  0  0  0  0  0  0
    1.0673    0.5760    1.9635 H   0  0  0  0  0  0  0  0  0  0  0  0
    4.9512    0.6917    2.2978 H   0  0  0  0  0  0  0  0  0  0  0  0
    7.1078    1.1112    3.4196 H   0  0  0  0  0  0  0  0  0  0  0  0
    9.1669    0.6866    2.2031 H   0  0  0  0  0  0  0  0  0  0  0  0
    9.1321   -0.1546   -0.1289 H   0  0  0  0  0  0  0  0  0  0  0  0
    4.7158   -0.9155   -2.1149 H   0  0  0  0  0  0  0  0  0  0  0  0
  1  2  2  0
  2  3  1  0
  3  4  1  0
  4  5  2  0
  5  6  1  0
  6  7  1  0
  7  8  2  0
  8  9  1  0
  9 10  2  0
 10 11  1  0
 11 12  2  0
 12 13  1  0
 13 14  2  0
 14 15  1  0
 15 16  2  0
  6 17  2  0
 17 18  1  0
 18 19  2  0
 19 20  1  0
 20 21  1  0
 21 22  2  0
 22 23  1  0
 23 24  2  0
 24 25  1  0
 25 26  2  0
 26 27  1  0
 27 28  2  0
 28 29  1  0
 22 30  1  0
 30 31  1  0
 31  2  1  0
 19  4  1  0
 31 20  2  0
 16  7  1  0
 28 23  1  0
 15 10  1  0
  3 32  1  0
  5 33  1  0
  8 34  1  0
  9 35  1  0
 11 36  1  0
 12 37  1  0
 13 38  1  0
 14 39  1  0
 16 40  1  0
 17 41  1  0
 18 42  1  0
 24 43  1  0
 25 44  1  0
 26 45  1  0
 27 46  1  0
 30 47  1  0
M  END
$$$$
