
     RDKit          3D

 16 16  0  0  0  0  0  0  0  0999 V2000
    2.7871    1.6411   -0.3364 O   0  0  0  0  0  0  0  0  0  0  0  0
    2.2851    0.4922   -0.3185 C   0  0  0  0  0  0  0  0  0  0  0  0
    3.1429   -0.5848   -0.4575 O   0  0  0  0  0  0  0  0  0  0  0  0
    0.8573    0.2567   -0.1595 C   0  0  0  0  0  0  0  0  0  0  0  0
    0.3043   -1.0059   -0.1398 C   0  0  0  0  0  0  0  0  0  0  0  0
   -1.0520   -1.2129    0.0119 C   0  0  0  0  0  0  0  0  0  0  0  0
   -1.9236   -0.1558    0.1519 C   0  0  0  0  0  0  0  0  0  0  0  0
   -3.3049   -0.3532    0.3069 O   0  0  0  0  0  0  0  0  0  0  0  0
   -1.3812    1.1118    0.1336 C   0  0  0  0  0  0  0  0  0  0  0  0
   -0.0233    1.3165   -0.0184 C   0  0  0  0  0  0  0  0  0  0  0  0
    4.0695   -0.5878   -0.0097 H   0  0  0  0  0  0  0  0  0  0  0  0
    0.9973   -1.8354   -0.2507 H   0  0  0  0  0  0  0  0  0  0  0  0
   -1.4668   -2.1999    0.0253 H   0  0  0  0  0  0  0  0  0  0  0  0
   -3.6569   -1.1532    0.8528 H   0  0  0  0  0  0  0  0  0  0  0  0
   -2.0379    1.9517    0.2406 H   0  0  0  0  0  0  0  0  0  0  0  0
    0.4032    2.3191   -0.0326 H   0  0  0  0  0  0  0  0  0  0  0  0
  1  2  2  0
  2  3  1  0
  2  4  1  0
  4  5  2  0
  5  6  1  0
  6  7  2  0
  7  8  1  0
  7  9  1  0
  9 10  2  0
 10  4  1  0
  3 11  1  0
  5 12  1  0
  6 13  1  0
  8 14  1  0
  9 15  1  0
 10 16  1  0
M  END
$$$$
