
     RDKit          3D

 33 36  0  0  0  0  0  0  0  0999 V2000
   -5.2945    1.6479   -0.3949 C   0  0  0  0  0  0  0  0  0  0  0  0
   -4.3505    2.6593   -0.3188 C   0  0  0  0  0  0  0  0  0  0  0  0
   -3.0179    2.3072   -0.2248 C   0  0  0  0  0  0  0  0  0  0  0  0
   -2.6561    0.9800   -0.2086 C   0  0  0  0  0  0  0  0  0  0  0  0
   -1.2997    0.5669   -0.1133 N   0  0  0  0  0  0  0  0  0  0  0  0
   -0.9429   -0.8029   -0.0979 C   0  0  0  0  0  0  0  0  0  0  0  0
   -1.9517   -1.7289   -0.1784 N   0  0  0  0  0  0  0  0  0  0  0  0
   -1.6155   -3.0206   -0.1640 C   0  0  0  0  0  0  0  0  0  0  0  0
   -0.3367   -3.4244   -0.0741 N   0  0  0  0  0  0  0  0  0  0  0  0
    0.6779   -2.5465    0.0065 C   0  0  0  0  0  0  0  0  0  0  0  0
    1.9959   -2.9542    0.0993 C   0  0  0  0  0  0  0  0  0  0  0  0
    3.0241   -2.0325    0.1812 C   0  0  0  0  0  0  0  0  0  0  0  0
    2.7417   -0.6853    0.1711 C   0  0  0  0  0  0  0  0  0  0  0  0
    3.8180    0.3103    0.2572 C   0  0  0  0  0  0  0  0  0  0  0  0
    3.8096    1.6473    0.2669 C   0  0  0  0  0  0  0  0  0  0  0  0
    4.9651    2.2593    0.3558 N   0  0  0  0  0  0  0  0  0  0  0  0
    6.0399    1.7621    0.4302 C   0  0  0  0  0  0  0  0  0  0  0  0
    5.5455   -0.0684    0.3800 S   0  0  0  0  0  0  0  0  0  0  0  0
    1.4180   -0.3006    0.0778 C   0  0  0  0  0  0  0  0  0  0  0  0
    0.3786   -1.1853   -0.0047 C   0  0  0  0  0  0  0  0  0  0  0  0
   -3.5983    0.0263   -0.2841 N   0  0  0  0  0  0  0  0  0  0  0  0
   -4.9003    0.3265   -0.3763 C   0  0  0  0  0  0  0  0  0  0  0  0
   -6.3558    1.8548   -0.4703 H   0  0  0  0  0  0  0  0  0  0  0  0
   -4.6300    3.6863   -0.3313 H   0  0  0  0  0  0  0  0  0  0  0  0
   -2.2377    3.0392   -0.1626 H   0  0  0  0  0  0  0  0  0  0  0  0
   -0.5891    1.2985   -0.0560 H   0  0  0  0  0  0  0  0  0  0  0  0
   -2.4408   -3.7443   -0.2296 H   0  0  0  0  0  0  0  0  0  0  0  0
    2.1883   -4.0235    0.1050 H   0  0  0  0  0  0  0  0  0  0  0  0
    4.0457   -2.3667    0.2530 H   0  0  0  0  0  0  0  0  0  0  0  0
    2.8640    2.2216    0.2025 H   0  0  0  0  0  0  0  0  0  0  0  0
    7.0985    1.9978    0.5091 H   0  0  0  0  0  0  0  0  0  0  0  0
    1.2248    0.7636    0.0720 H   0  0  0  0  0  0  0  0  0  0  0  0
   -5.6179   -0.4705   -0.4344 H   0  0  0  0  0  0  0  0  0  0  0  0
  1  2  2  0
  2  3  1  0
  3  4  2  0
  4  5  1  0
  5  6  1  0
  6  7  2  0
  7  8  1  0
  8  9  2  0
  9 10  1  0
 10 11  2  0
 11 12  1  0
 12 13  2  0
 13 14  1  0
 14 15  2  0
 15 16  1  0
 16 17  2  0
 17 18  1  0
 13 19  1  0
 19 20  2  0
  4 21  1  0
 21 22  2  0
 22  1  1  0
 20  6  1  0
 20 10  1  0
 18 14  1  0
  1 23  1  0
  2 24  1  0
  3 25  1  0
  5 26  1  0
  8 27  1  0
 11 28  1  0
 12 29  1  0
 15 30  1  0
 17 31  1  0
 19 32  1  0
 22 33  1  0
M  END
$$$$
