
     RDKit          3D

 45 47  0  0  0  0  0  0  0  0999 V2000
   -3.4899   -0.4838    1.3769 C   0  0  0  0  0  0  0  0  0  0  0  0
   -2.6483   -0.0866    0.1513 C   0  0  1  0  0  0  0  0  0  0  0  0
   -1.5742    0.7820    0.6732 C   0  0  0  0  0  0  0  0  0  0  0  0
   -0.2222    0.6239    0.4492 C   0  0  0  0  0  0  0  0  0  0  0  0
    0.7441    1.4538    0.9652 C   0  0  0  0  0  0  0  0  0  0  0  0
    2.1408    1.3292    0.7610 N   0  0  0  0  0  0  0  0  0  0  0  0
    2.8106    0.3564    0.0061 C   0  0  0  0  0  0  0  0  0  0  0  0
    2.1329   -0.5372   -0.5813 O   0  0  0  0  0  0  0  0  0  0  0  0
    4.2703    0.3050   -0.1506 C   0  0  0  0  0  0  0  0  0  0  0  0
    4.9290   -0.6477   -0.8902 N   0  0  0  0  0  0  0  0  0  0  0  0
    6.2161   -0.4699   -0.8677 N   0  0  0  0  0  0  0  0  0  0  0  0
    7.2693   -1.2532   -1.5177 C   0  0  0  0  0  0  0  0  0  0  0  0
    7.0062   -2.6199   -1.3632 F   0  0  0  0  0  0  0  0  0  0  0  0
    8.4675   -1.0284   -0.8693 F   0  0  0  0  0  0  0  0  0  0  0  0
    6.4450    0.6086   -0.1104 C   0  0  0  0  0  0  0  0  0  0  0  0
    5.2282    1.1273    0.3627 C   0  0  0  0  0  0  0  0  0  0  0  0
    5.0668    2.5355    1.3893 Cl  0  0  0  0  0  0  0  0  0  0  0  0
    0.2744    2.4994    1.7537 C   0  0  0  0  0  0  0  0  0  0  0  0
   -1.0661    2.6930    2.0024 C   0  0  0  0  0  0  0  0  0  0  0  0
   -1.4154    3.7531    2.7915 F   0  0  0  0  0  0  0  0  0  0  0  0
   -2.0026    1.8460    1.4714 C   0  0  0  0  0  0  0  0  0  0  0  0
   -3.3241    2.0719    1.7339 F   0  0  0  0  0  0  0  0  0  0  0  0
   -2.2365   -1.3099   -0.5644 C   0  0  0  0  0  0  0  0  0  0  0  0
   -3.2096   -1.7974   -1.6053 C   0  0  1  0  0  0  0  0  0  0  0  0
   -3.5850   -3.2438   -1.4546 C   0  0  0  0  0  0  0  0  0  0  0  0
   -4.1740   -3.4768   -0.2428 F   0  0  0  0  0  0  0  0  0  0  0  0
   -2.4684   -4.0603   -1.6450 F   0  0  0  0  0  0  0  0  0  0  0  0
   -4.5168   -3.6239   -2.4250 F   0  0  0  0  0  0  0  0  0  0  0  0
   -4.3900   -1.0242   -1.6658 O   0  0  0  0  0  0  0  0  0  0  0  0
   -4.3502    0.3619   -1.5076 C   0  0  0  0  0  0  0  0  0  0  0  0
   -5.1576    1.2436   -2.2367 N   0  0  0  0  0  0  0  0  0  0  0  0
   -3.5122    0.7848   -0.6365 N   0  0  0  0  0  0  0  0  0  0  0  0
   -3.0384   -0.1009    2.3236 H   0  0  0  0  0  0  0  0  0  0  0  0
   -4.5238   -0.1428    1.3043 H   0  0  0  0  0  0  0  0  0  0  0  0
   -3.5004   -1.5925    1.5142 H   0  0  0  0  0  0  0  0  0  0  0  0
    0.0590   -0.2133   -0.1704 H   0  0  0  0  0  0  0  0  0  0  0  0
    2.7816    2.0449    1.2234 H   0  0  0  0  0  0  0  0  0  0  0  0
    7.3358   -0.9950   -2.5861 H   0  0  0  0  0  0  0  0  0  0  0  0
    7.3860    1.0607    0.1379 H   0  0  0  0  0  0  0  0  0  0  0  0
    1.0339    3.1711    2.1734 H   0  0  0  0  0  0  0  0  0  0  0  0
   -2.1897   -2.1437    0.2013 H   0  0  0  0  0  0  0  0  0  0  0  0
   -1.2582   -1.2600   -1.0387 H   0  0  0  0  0  0  0  0  0  0  0  0
   -2.7533   -1.7046   -2.6347 H   0  0  0  0  0  0  0  0  0  0  0  0
   -6.1780    1.0345   -2.3811 H   0  0  0  0  0  0  0  0  0  0  0  0
   -4.8123    2.1294   -2.6665 H   0  0  0  0  0  0  0  0  0  0  0  0
  2  1  1  1
  2  3  1  0
  3  4  2  0
  4  5  1  0
  5  6  1  0
  6  7  1  0
  7  8  2  0
  7  9  1  0
  9 10  2  0
 10 11  1  0
 11 12  1  0
 12 13  1  0
 12 14  1  0
 11 15  1  0
 15 16  2  0
 16 17  1  0
  5 18  2  0
 18 19  1  0
 19 20  1  0
 19 21  2  0
 21 22  1  0
  2 23  1  0
 23 24  1  0
 24 25  1  0
 25 26  1  0
 25 27  1  0
 25 28  1  0
 24 29  1  0
 29 30  1  0
 30 31  1  0
 30 32  2  0
 32  2  1  0
 21  3  1  0
 16  9  1  0
  1 33  1  0
  1 34  1  0
  1 35  1  0
  4 36  1  0
  6 37  1  0
 12 38  1  0
 15 39  1  0
 18 40  1  0
 23 41  1  0
 23 42  1  0
 24 43  1  6
 31 44  1  0
 31 45  1  0
M  END
$$$$
