
     RDKit          3D

 38 39  0  0  0  0  0  0  0  0999 V2000
    4.7186    1.6191   -1.5980 C   0  0  0  0  0  0  0  0  0  0  0  0
    4.3877    0.4438   -0.8977 O   0  0  0  0  0  0  0  0  0  0  0  0
    3.0615    0.2504   -0.5231 C   0  0  0  0  0  0  0  0  0  0  0  0
    2.1006    1.1524   -0.8131 C   0  0  0  0  0  0  0  0  0  0  0  0
    0.7927    0.9709   -0.4488 C   0  0  0  0  0  0  0  0  0  0  0  0
    0.4096   -0.1651    0.2413 C   0  0  0  0  0  0  0  0  0  0  0  0
   -0.9123   -0.3291    0.5989 C   0  0  0  0  0  0  0  0  0  0  0  0
   -1.8901    0.6881    0.2512 C   0  0  0  0  0  0  0  0  0  0  0  0
   -1.8032    2.1386    0.9794 S   0  0  0  0  0  0  0  0  0  0  0  0
   -2.9146    0.4350   -0.7073 N   0  0  0  0  0  0  0  0  0  0  0  0
   -2.9918   -0.8699   -1.3597 C   0  0  0  0  0  0  0  0  0  0  0  0
   -3.8773    1.4697   -1.0302 C   0  0  0  0  0  0  0  0  0  0  0  0
   -4.7745    1.7355    0.1455 C   0  0  0  0  0  0  0  0  0  0  0  0
   -5.6737    2.6010    0.0355 O   0  0  0  0  0  0  0  0  0  0  0  0
   -4.5638    1.0076    1.3026 O   0  0  0  0  0  0  0  0  0  0  0  0
   -1.2669   -1.4716    1.2865 C   0  0  0  0  0  0  0  0  0  0  0  0
   -0.3331   -2.4248    1.6095 C   0  0  0  0  0  0  0  0  0  0  0  0
    1.0016   -2.2537    1.2453 C   0  0  0  0  0  0  0  0  0  0  0  0
    1.3896   -1.1186    0.5550 C   0  0  0  0  0  0  0  0  0  0  0  0
    2.6858   -0.9237    0.1859 C   0  0  0  0  0  0  0  0  0  0  0  0
    3.7835   -1.8507    0.4621 C   0  0  0  0  0  0  0  0  0  0  0  0
    3.5970   -2.9882    1.1110 F   0  0  0  0  0  0  0  0  0  0  0  0
    4.5559   -2.0432   -0.7212 F   0  0  0  0  0  0  0  0  0  0  0  0
    4.6964   -1.0965    1.2541 F   0  0  0  0  0  0  0  0  0  0  0  0
    4.5986    2.5274   -0.9479 H   0  0  0  0  0  0  0  0  0  0  0  0
    5.8090    1.5592   -1.8370 H   0  0  0  0  0  0  0  0  0  0  0  0
    4.0914    1.7779   -2.4979 H   0  0  0  0  0  0  0  0  0  0  0  0
    2.3436    2.0703   -1.3565 H   0  0  0  0  0  0  0  0  0  0  0  0
    0.0595    1.7157   -0.7007 H   0  0  0  0  0  0  0  0  0  0  0  0
   -3.5940   -1.5576   -0.7289 H   0  0  0  0  0  0  0  0  0  0  0  0
   -1.9841   -1.3135   -1.5164 H   0  0  0  0  0  0  0  0  0  0  0  0
   -3.5141   -0.7413   -2.3311 H   0  0  0  0  0  0  0  0  0  0  0  0
   -4.5320    1.1168   -1.8535 H   0  0  0  0  0  0  0  0  0  0  0  0
   -3.3674    2.3948   -1.3388 H   0  0  0  0  0  0  0  0  0  0  0  0
   -4.8894    1.3889    2.1886 H   0  0  0  0  0  0  0  0  0  0  0  0
   -2.3132   -1.5690    1.5522 H   0  0  0  0  0  0  0  0  0  0  0  0
   -0.5984   -3.3218    2.1464 H   0  0  0  0  0  0  0  0  0  0  0  0
    1.7109   -3.0245    1.5161 H   0  0  0  0  0  0  0  0  0  0  0  0
  1  2  1  0
  2  3  1  0
  3  4  2  0
  4  5  1  0
  5  6  2  0
  6  7  1  0
  7  8  1  0
  8  9  2  0
  8 10  1  0
 10 11  1  0
 10 12  1  0
 12 13  1  0
 13 14  2  0
 13 15  1  0
  7 16  2  0
 16 17  1  0
 17 18  2  0
 18 19  1  0
 19 20  2  0
 20 21  1  0
 21 22  1  0
 21 23  1  0
 21 24  1  0
 20  3  1  0
 19  6  1  0
  1 25  1  0
  1 26  1  0
  1 27  1  0
  4 28  1  0
  5 29  1  0
 11 30  1  0
 11 31  1  0
 11 32  1  0
 12 33  1  0
 12 34  1  0
 15 35  1  0
 16 36  1  0
 17 37  1  0
 18 38  1  0
M  END
$$$$
