
     RDKit          3D

 75 79  0  0  0  0  0  0  0  0999 V2000
   -0.3764   -2.5998   -2.1448 C   0  0  0  0  0  0  0  0  0  0  0  0
    0.4034   -1.7898   -1.2830 O   0  0  0  0  0  0  0  0  0  0  0  0
    1.0639   -1.1142   -0.5574 C   0  0  0  0  0  0  0  0  0  0  0  0
    2.2733   -1.5436    0.0840 C   0  0  0  0  0  0  0  0  0  0  0  0
    3.0082   -0.7586    0.9102 C   0  0  0  0  0  0  0  0  0  0  0  0
    4.1795   -1.3265    1.5221 N   0  0  0  0  0  0  0  0  0  0  0  0
    4.8502   -0.7177    2.6445 C   0  0  0  0  0  0  0  0  0  0  0  0
    6.2639   -0.4353    2.2285 C   0  0  0  0  0  0  0  0  0  0  0  0
    6.8655   -1.5594    1.5976 N   0  0  0  0  0  0  0  0  0  0  0  0
    7.3240   -1.2959    0.2536 C   0  0  0  0  0  0  0  0  0  0  0  0
    8.4571   -0.3274    0.3582 C   0  0  2  0  0  0  0  0  0  0  0  0
    9.0640   -0.0178   -1.0054 C   0  0  0  0  0  0  0  0  0  0  0  0
    9.4624   -0.8946    1.1437 O   0  0  0  0  0  0  0  0  0  0  0  0
    6.0951   -2.7760    1.6351 C   0  0  0  0  0  0  0  0  0  0  0  0
    4.7014   -2.5613    1.0125 C   0  0  0  0  0  0  0  0  0  0  0  0
    2.5923    0.5074    1.1471 C   0  0  0  0  0  0  0  0  0  0  0  0
    1.4103    0.9849    0.5482 C   0  0  0  0  0  0  0  0  0  0  0  0
    0.6402    0.2604   -0.2687 C   0  0  0  0  0  0  0  0  0  0  0  0
   -0.5925    0.6246   -0.8508 N   0  0  0  0  0  0  0  0  0  0  0  0
   -1.4610    1.6299   -0.3402 C   0  0  0  0  0  0  0  0  0  0  0  0
   -1.2022    2.5038    0.6307 N   0  0  0  0  0  0  0  0  0  0  0  0
   -2.1264    3.3190    1.1863 C   0  0  0  0  0  0  0  0  0  0  0  0
   -3.4326    3.2167    0.6860 C   0  0  0  0  0  0  0  0  0  0  0  0
   -4.5999    3.8431    1.0754 C   0  0  0  0  0  0  0  0  0  0  0  0
   -5.5965    3.2855    0.2501 C   0  0  0  0  0  0  0  0  0  0  0  0
   -5.0889    2.3972   -0.5771 C   0  0  0  0  0  0  0  0  0  0  0  0
   -5.5444    1.4602   -1.6045 C   0  0  0  0  0  0  0  0  0  0  0  0
   -5.4052    1.8093   -2.9550 C   0  0  0  0  0  0  0  0  0  0  0  0
   -5.6008    0.8544   -3.9746 C   0  0  0  0  0  0  0  0  0  0  0  0
   -5.9272   -0.4166   -3.6288 C   0  0  0  0  0  0  0  0  0  0  0  0
   -6.0717   -0.7837   -2.3315 C   0  0  0  0  0  0  0  0  0  0  0  0
   -5.8785    0.1802   -1.3000 C   0  0  0  0  0  0  0  0  0  0  0  0
   -6.1603   -0.2986   -0.0051 N   0  0  0  0  0  0  0  0  0  0  0  0
   -5.1044   -0.8390    0.8161 C   0  0  0  0  0  0  0  0  0  0  0  0
   -7.7969   -0.2405    0.4903 S   0  0  0  0  0  6  0  0  0  0  0  0
   -8.4752    1.3618    0.5393 C   0  0  0  0  0  0  0  0  0  0  0  0
   -8.6318   -1.0525   -0.4922 O   0  0  0  0  0  0  0  0  0  0  0  0
   -7.8912   -0.8491    1.8698 O   0  0  0  0  0  0  0  0  0  0  0  0
   -3.7173    2.3657   -0.2784 N   0  0  0  0  0  0  0  0  0  0  0  0
   -2.7679    1.5967   -0.7778 N   0  0  0  0  0  0  0  0  0  0  0  0
    0.3071   -3.2984   -2.6955 H   0  0  0  0  0  0  0  0  0  0  0  0
   -1.0725   -3.2407   -1.5911 H   0  0  0  0  0  0  0  0  0  0  0  0
   -0.8984   -1.9655   -2.8933 H   0  0  0  0  0  0  0  0  0  0  0  0
    2.5609   -2.5887   -0.1387 H   0  0  0  0  0  0  0  0  0  0  0  0
    4.8826   -1.4681    3.4755 H   0  0  0  0  0  0  0  0  0  0  0  0
    4.2913    0.1426    3.0683 H   0  0  0  0  0  0  0  0  0  0  0  0
    6.2004    0.3788    1.4421 H   0  0  0  0  0  0  0  0  0  0  0  0
    6.8769   -0.0004    3.0562 H   0  0  0  0  0  0  0  0  0  0  0  0
    6.4474   -0.8558   -0.2916 H   0  0  0  0  0  0  0  0  0  0  0  0
    7.6180   -2.2026   -0.2631 H   0  0  0  0  0  0  0  0  0  0  0  0
    8.0682    0.6358    0.7556 H   0  0  0  0  0  0  0  0  0  0  0  0
    8.2589    0.3352   -1.6782 H   0  0  0  0  0  0  0  0  0  0  0  0
    9.8505    0.7298   -0.8344 H   0  0  0  0  0  0  0  0  0  0  0  0
    9.4549   -0.9820   -1.4265 H   0  0  0  0  0  0  0  0  0  0  0  0
    9.7556   -0.3131    1.8817 H   0  0  0  0  0  0  0  0  0  0  0  0
    6.0074   -3.2418    2.6328 H   0  0  0  0  0  0  0  0  0  0  0  0
    6.5709   -3.5190    0.9780 H   0  0  0  0  0  0  0  0  0  0  0  0
    4.1141   -3.4422    1.3289 H   0  0  0  0  0  0  0  0  0  0  0  0
    4.8622   -2.5593   -0.0897 H   0  0  0  0  0  0  0  0  0  0  0  0
    3.1447    1.1755    1.7557 H   0  0  0  0  0  0  0  0  0  0  0  0
    1.1089    2.0274    0.7546 H   0  0  0  0  0  0  0  0  0  0  0  0
   -0.8967    0.1192   -1.7335 H   0  0  0  0  0  0  0  0  0  0  0  0
   -1.9033    4.0225    1.9614 H   0  0  0  0  0  0  0  0  0  0  0  0
   -4.7240    4.5835    1.8419 H   0  0  0  0  0  0  0  0  0  0  0  0
   -6.6199    3.6073    0.3247 H   0  0  0  0  0  0  0  0  0  0  0  0
   -5.1393    2.8317   -3.1826 H   0  0  0  0  0  0  0  0  0  0  0  0
   -5.5091    1.1380   -4.9931 H   0  0  0  0  0  0  0  0  0  0  0  0
   -6.0833   -1.1958   -4.4057 H   0  0  0  0  0  0  0  0  0  0  0  0
   -6.3429   -1.7945   -2.0440 H   0  0  0  0  0  0  0  0  0  0  0  0
   -4.6964   -0.1448    1.5611 H   0  0  0  0  0  0  0  0  0  0  0  0
   -5.4516   -1.7884    1.3038 H   0  0  0  0  0  0  0  0  0  0  0  0
   -4.2465   -1.1718    0.1628 H   0  0  0  0  0  0  0  0  0  0  0  0
   -8.1469    1.9725   -0.3047 H   0  0  0  0  0  0  0  0  0  0  0  0
   -9.6094    1.2918    0.5329 H   0  0  0  0  0  0  0  0  0  0  0  0
   -8.2459    1.8812    1.4933 H   0  0  0  0  0  0  0  0  0  0  0  0
  1  2  1  0
  2  3  1  0
  3  4  2  0
  4  5  1  0
  5  6  1  0
  6  7  1  0
  7  8  1  0
  8  9  1  0
  9 10  1  0
 10 11  1  0
 11 12  1  0
 11 13  1  0
  9 14  1  0
 14 15  1  0
  5 16  2  0
 16 17  1  0
 17 18  2  0
 18 19  1  0
 19 20  1  0
 20 21  1  0
 21 22  2  0
 22 23  1  0
 23 24  2  0
 24 25  1  0
 25 26  2  0
 26 27  1  0
 27 28  2  0
 28 29  1  0
 29 30  2  0
 30 31  1  0
 31 32  2  0
 32 33  1  0
 33 34  1  0
 33 35  1  0
 35 36  1  0
 35 37  2  0
 35 38  2  0
 26 39  1  0
 39 40  1  0
 18  3  1  0
 40 20  2  0
 15  6  1  0
 39 23  1  0
 32 27  1  0
  1 41  1  0
  1 42  1  0
  1 43  1  0
  4 44  1  0
  7 45  1  0
  7 46  1  0
  8 47  1  0
  8 48  1  0
 10 49  1  0
 10 50  1  0
 11 51  1  1
 12 52  1  0
 12 53  1  0
 12 54  1  0
 13 55  1  0
 14 56  1  0
 14 57  1  0
 15 58  1  0
 15 59  1  0
 16 60  1  0
 17 61  1  0
 19 62  1  0
 22 63  1  0
 24 64  1  0
 25 65  1  0
 28 66  1  0
 29 67  1  0
 30 68  1  0
 31 69  1  0
 34 70  1  0
 34 71  1  0
 34 72  1  0
 36 73  1  0
 36 74  1  0
 36 75  1  0
M  END
$$$$
