
     RDKit          3D

 66 69  0  0  0  0  0  0  0  0999 V2000
   -0.1060    1.6045   -2.4571 C   0  0  0  0  0  0  0  0  0  0  0  0
    0.1823    0.2017   -1.9011 C   0  0  1  0  0  0  0  0  0  0  0  0
    1.5874    0.0848   -1.4725 C   0  0  0  0  0  0  0  0  0  0  0  0
    2.5734    1.0116   -1.7574 C   0  0  0  0  0  0  0  0  0  0  0  0
    3.8738    0.8839   -1.3477 C   0  0  0  0  0  0  0  0  0  0  0  0
    4.2537   -0.2240   -0.6051 C   0  0  0  0  0  0  0  0  0  0  0  0
    5.6401   -0.3590   -0.1679 C   0  0  0  0  0  0  0  0  0  0  0  0
    6.6645    0.1463   -0.9443 C   0  0  0  0  0  0  0  0  0  0  0  0
    7.9874    0.0191   -0.5293 C   0  0  0  0  0  0  0  0  0  0  0  0
    8.2934   -0.5910    0.6221 N   0  0  0  0  0  0  0  0  0  0  0  0
    9.7099   -0.6906    0.9999 C   0  0  0  0  0  0  0  0  0  0  0  0
    9.8246   -1.2095    2.2779 F   0  0  0  0  0  0  0  0  0  0  0  0
   10.2086    0.6082    0.9406 F   0  0  0  0  0  0  0  0  0  0  0  0
    7.3204   -1.0847    1.3844 C   0  0  0  0  0  0  0  0  0  0  0  0
    7.6254   -1.6591    2.4710 O   0  0  0  0  0  0  0  0  0  0  0  0
    6.0128   -0.9746    1.0028 C   0  0  0  0  0  0  0  0  0  0  0  0
    3.2929   -1.1680   -0.3039 C   0  0  0  0  0  0  0  0  0  0  0  0
    1.9878   -1.0096   -0.7327 C   0  0  0  0  0  0  0  0  0  0  0  0
   -0.7467   -0.1160   -0.8321 N   0  0  0  0  0  0  0  0  0  0  0  0
   -1.6665   -1.2018   -1.0341 C   0  0  0  0  0  0  0  0  0  0  0  0
   -2.5945   -1.4437    0.1191 C   0  0  0  0  0  0  0  0  0  0  0  0
   -3.0194   -0.1927    0.8249 C   0  0  2  0  0  0  0  0  0  0  0  0
   -3.7784   -0.3222    2.0692 C   0  0  0  0  0  0  0  0  0  0  0  0
   -5.0740   -0.9769    2.1627 C   0  0  0  0  0  0  0  0  0  0  0  0
   -5.0390   -2.4229    1.7344 C   0  0  0  0  0  0  0  0  0  0  0  0
   -5.4401   -1.0126    3.6754 C   0  0  0  0  0  0  0  0  0  0  0  0
   -6.1707   -0.3719    1.5873 O   0  0  0  0  0  0  0  0  0  0  0  0
   -3.6653    0.6687   -0.1989 C   0  0  0  0  0  0  0  0  0  0  0  0
   -3.2642    1.9623   -0.4873 C   0  0  0  0  0  0  0  0  0  0  0  0
   -3.8628    2.7380   -1.4570 C   0  0  0  0  0  0  0  0  0  0  0  0
   -4.9129    2.2275   -2.1898 C   0  0  0  0  0  0  0  0  0  0  0  0
   -5.3309    0.9616   -1.9320 C   0  0  0  0  0  0  0  0  0  0  0  0
   -4.7161    0.1855   -0.9473 C   0  0  0  0  0  0  0  0  0  0  0  0
   -1.8348    0.5709    1.2065 O   0  0  0  0  0  0  0  0  0  0  0  0
   -0.7435    0.6148    0.3563 C   0  0  0  0  0  0  0  0  0  0  0  0
    0.2359    1.3353    0.7035 O   0  0  0  0  0  0  0  0  0  0  0  0
   -1.1929    1.7201   -2.6446 H   0  0  0  0  0  0  0  0  0  0  0  0
    0.1391    2.3400   -1.6445 H   0  0  0  0  0  0  0  0  0  0  0  0
    0.4291    1.7859   -3.3858 H   0  0  0  0  0  0  0  0  0  0  0  0
    0.0487   -0.4751   -2.7750 H   0  0  0  0  0  0  0  0  0  0  0  0
    2.2989    1.8842   -2.3357 H   0  0  0  0  0  0  0  0  0  0  0  0
    4.6460    1.6134   -1.5730 H   0  0  0  0  0  0  0  0  0  0  0  0
    6.4467    0.6431   -1.8775 H   0  0  0  0  0  0  0  0  0  0  0  0
    8.7579    0.4389   -1.1852 H   0  0  0  0  0  0  0  0  0  0  0  0
   10.2692   -1.2810    0.2577 H   0  0  0  0  0  0  0  0  0  0  0  0
    5.1951   -1.3755    1.6181 H   0  0  0  0  0  0  0  0  0  0  0  0
    3.5374   -2.0485    0.2714 H   0  0  0  0  0  0  0  0  0  0  0  0
    1.2316   -1.7658   -0.4879 H   0  0  0  0  0  0  0  0  0  0  0  0
   -2.1978   -1.0090   -1.9900 H   0  0  0  0  0  0  0  0  0  0  0  0
   -1.0603   -2.1176   -1.2016 H   0  0  0  0  0  0  0  0  0  0  0  0
   -3.4993   -1.9102   -0.3139 H   0  0  0  0  0  0  0  0  0  0  0  0
   -2.0492   -2.0732    0.8463 H   0  0  0  0  0  0  0  0  0  0  0  0
   -3.1467   -0.7751    2.9084 H   0  0  0  0  0  0  0  0  0  0  0  0
   -3.8982    0.7400    2.4769 H   0  0  0  0  0  0  0  0  0  0  0  0
   -5.6909   -3.0564    2.4143 H   0  0  0  0  0  0  0  0  0  0  0  0
   -5.5292   -2.5680    0.7316 H   0  0  0  0  0  0  0  0  0  0  0  0
   -4.0499   -2.8990    1.8036 H   0  0  0  0  0  0  0  0  0  0  0  0
   -4.7996   -1.7753    4.1893 H   0  0  0  0  0  0  0  0  0  0  0  0
   -5.3000   -0.0172    4.0986 H   0  0  0  0  0  0  0  0  0  0  0  0
   -6.5188   -1.2618    3.7475 H   0  0  0  0  0  0  0  0  0  0  0  0
   -6.7535   -1.0123    1.0900 H   0  0  0  0  0  0  0  0  0  0  0  0
   -2.4266    2.3926    0.0856 H   0  0  0  0  0  0  0  0  0  0  0  0
   -3.4967    3.7439   -1.6296 H   0  0  0  0  0  0  0  0  0  0  0  0
   -5.4105    2.8242   -2.9706 H   0  0  0  0  0  0  0  0  0  0  0  0
   -6.1646    0.5691   -2.5204 H   0  0  0  0  0  0  0  0  0  0  0  0
   -5.1234   -0.7976   -0.8444 H   0  0  0  0  0  0  0  0  0  0  0  0
  1  2  1  0
  2  3  1  0
  3  4  2  0
  4  5  1  0
  5  6  2  0
  6  7  1  0
  7  8  1  0
  8  9  2  0
  9 10  1  0
 10 11  1  0
 11 12  1  0
 11 13  1  0
 10 14  1  0
 14 15  2  0
 14 16  1  0
  6 17  1  0
 17 18  2  0
  2 19  1  0
 19 20  1  0
 20 21  1  0
 21 22  1  0
 22 23  1  1
 23 24  1  0
 24 25  1  0
 24 26  1  0
 24 27  1  0
 22 28  1  0
 28 29  2  0
 29 30  1  0
 30 31  2  0
 31 32  1  0
 32 33  2  0
 22 34  1  0
 34 35  1  0
 35 36  2  0
 18  3  1  0
 35 19  1  0
 16  7  2  0
 33 28  1  0
  1 37  1  0
  1 38  1  0
  1 39  1  0
  2 40  1  6
  4 41  1  0
  5 42  1  0
  8 43  1  0
  9 44  1  0
 11 45  1  0
 16 46  1  0
 17 47  1  0
 18 48  1  0
 20 49  1  0
 20 50  1  0
 21 51  1  0
 21 52  1  0
 23 53  1  0
 23 54  1  0
 25 55  1  0
 25 56  1  0
 25 57  1  0
 26 58  1  0
 26 59  1  0
 26 60  1  0
 27 61  1  0
 29 62  1  0
 30 63  1  0
 31 64  1  0
 32 65  1  0
 33 66  1  0
M  END
$$$$
