
     RDKit          3D

 55 59  0  0  0  0  0  0  0  0999 V2000
   -2.7385   -2.7461    0.3417 C   0  0  0  0  0  0  0  0  0  0  0  0
   -1.3565   -2.6304    0.9498 C   0  0  2  0  0  0  0  0  0  0  0  0
   -0.9541   -1.2609    1.3358 C   0  0  0  0  0  0  0  0  0  0  0  0
   -0.5143   -0.5247    0.1046 N   0  0  0  0  0  0  0  0  0  0  0  0
   -1.2079    0.6641   -0.1527 C   0  0  0  0  0  0  0  0  0  0  0  0
   -1.0400    1.4439   -1.1224 O   0  0  0  0  0  0  0  0  0  0  0  0
   -2.2620    1.0778    0.8138 C   0  0  0  0  0  0  0  0  0  0  0  0
   -1.8264    1.7635    1.9423 C   0  0  0  0  0  0  0  0  0  0  0  0
   -2.7446    2.1622    2.9078 C   0  0  0  0  0  0  0  0  0  0  0  0
   -2.1806    3.0294    4.3312 Cl  0  0  0  0  0  0  0  0  0  0  0  0
   -4.0674    1.8573    2.7042 C   0  0  0  0  0  0  0  0  0  0  0  0
   -4.4757    1.1794    1.5817 C   0  0  0  0  0  0  0  0  0  0  0  0
   -3.5631    0.7729    0.6025 C   0  0  0  0  0  0  0  0  0  0  0  0
   -3.9579    0.0977   -0.5743 N   0  0  0  0  0  0  0  0  0  0  0  0
   -3.2839    0.1211   -1.7101 N   0  0  0  0  0  0  0  0  0  0  0  0
   -3.8902   -0.6010   -2.6498 C   0  0  0  0  0  0  0  0  0  0  0  0
   -5.0270   -1.1110   -2.0505 C   0  0  0  0  0  0  0  0  0  0  0  0
   -5.0255   -0.6577   -0.7848 N   0  0  0  0  0  0  0  0  0  0  0  0
    0.5338   -1.1862   -0.5698 C   0  0  2  0  0  0  0  0  0  0  0  0
    1.3233   -0.6860   -1.6657 C   0  0  0  0  0  0  0  0  0  0  0  0
    2.1722    0.4934   -1.5299 C   0  0  0  0  0  0  0  0  0  0  0  0
    1.9349    1.7338   -2.0113 C   0  0  0  0  0  0  0  0  0  0  0  0
    2.8267    2.7504   -1.7601 C   0  0  0  0  0  0  0  0  0  0  0  0
    3.9711    2.5327   -1.0215 C   0  0  0  0  0  0  0  0  0  0  0  0
    4.2493    1.2741   -0.5124 C   0  0  0  0  0  0  0  0  0  0  0  0
    5.4365    1.0510    0.2525 N   0  0  0  0  0  0  0  0  0  0  0  0
    6.4143    0.2054    0.0279 N   0  0  0  0  0  0  0  0  0  0  0  0
    7.3446    0.3184    0.9989 C   0  0  0  0  0  0  0  0  0  0  0  0
    6.9036    1.2946    1.8683 C   0  0  0  0  0  0  0  0  0  0  0  0
    5.7279    1.7102    1.3623 N   0  0  0  0  0  0  0  0  0  0  0  0
    3.3480    0.2751   -0.7733 C   0  0  0  0  0  0  0  0  0  0  0  0
   -0.0873   -2.5558   -0.9861 C   0  0  0  0  0  0  0  0  0  0  0  0
   -0.3943   -3.2491    0.1812 O   0  0  0  0  0  0  0  0  0  0  0  0
   -3.5025   -2.2320    0.9587 H   0  0  0  0  0  0  0  0  0  0  0  0
   -2.8078   -2.4504   -0.7022 H   0  0  0  0  0  0  0  0  0  0  0  0
   -3.0141   -3.8402    0.3927 H   0  0  0  0  0  0  0  0  0  0  0  0
   -1.4357   -3.2241    1.9145 H   0  0  0  0  0  0  0  0  0  0  0  0
    0.0074   -1.3576    1.9210 H   0  0  0  0  0  0  0  0  0  0  0  0
   -1.6985   -0.6912    1.8879 H   0  0  0  0  0  0  0  0  0  0  0  0
   -0.7931    2.0064    2.1098 H   0  0  0  0  0  0  0  0  0  0  0  0
   -4.8037    2.1475    3.4258 H   0  0  0  0  0  0  0  0  0  0  0  0
   -5.5179    0.9211    1.3887 H   0  0  0  0  0  0  0  0  0  0  0  0
   -3.5311   -0.7315   -3.6550 H   0  0  0  0  0  0  0  0  0  0  0  0
   -5.7349   -1.7457   -2.5645 H   0  0  0  0  0  0  0  0  0  0  0  0
    1.2621   -1.5565    0.2849 H   0  0  0  0  0  0  0  0  0  0  0  0
    2.0376   -1.5148   -2.0022 H   0  0  0  0  0  0  0  0  0  0  0  0
    0.6605   -0.6023   -2.5975 H   0  0  0  0  0  0  0  0  0  0  0  0
    1.0403    1.8915   -2.6163 H   0  0  0  0  0  0  0  0  0  0  0  0
    2.6070    3.7215   -2.1560 H   0  0  0  0  0  0  0  0  0  0  0  0
    4.6766    3.3443   -0.8248 H   0  0  0  0  0  0  0  0  0  0  0  0
    8.2718   -0.2381    1.1027 H   0  0  0  0  0  0  0  0  0  0  0  0
    7.4019    1.6444    2.7621 H   0  0  0  0  0  0  0  0  0  0  0  0
    3.5783   -0.7040   -0.3691 H   0  0  0  0  0  0  0  0  0  0  0  0
   -0.9810   -2.2977   -1.5629 H   0  0  0  0  0  0  0  0  0  0  0  0
    0.6876   -3.0899   -1.5302 H   0  0  0  0  0  0  0  0  0  0  0  0
  1  2  1  0
  2  3  1  0
  3  4  1  0
  4  5  1  0
  5  6  2  0
  5  7  1  0
  7  8  2  0
  8  9  1  0
  9 10  1  0
  9 11  2  0
 11 12  1  0
 12 13  2  0
 13 14  1  0
 14 15  1  0
 15 16  2  0
 16 17  1  0
 17 18  2  0
  4 19  1  0
 19 20  1  0
 20 21  1  0
 21 22  2  0
 22 23  1  0
 23 24  2  0
 24 25  1  0
 25 26  1  0
 26 27  1  0
 27 28  2  0
 28 29  1  0
 29 30  2  0
 25 31  2  0
 19 32  1  0
 32 33  1  0
 33  2  1  0
 13  7  1  0
 18 14  1  0
 31 21  1  0
 30 26  1  0
  1 34  1  0
  1 35  1  0
  1 36  1  0
  2 37  1  1
  3 38  1  0
  3 39  1  0
  8 40  1  0
 11 41  1  0
 12 42  1  0
 16 43  1  0
 17 44  1  0
 19 45  1  1
 20 46  1  0
 20 47  1  0
 22 48  1  0
 23 49  1  0
 24 50  1  0
 28 51  1  0
 29 52  1  0
 31 53  1  0
 32 54  1  0
 32 55  1  0
M  END
$$$$
