
     RDKit          3D

 40 43  0  0  0  0  0  0  0  0999 V2000
   -1.2208   -3.3587    0.5651 C   0  0  0  0  0  0  0  0  0  0  0  0
   -0.6368   -2.3259   -0.3858 C   0  0  2  0  0  0  0  0  0  0  0  0
    0.8248   -2.2401   -0.1565 C   0  0  0  0  0  0  0  0  0  0  0  0
    1.7661   -3.1249    0.2578 N   0  0  0  0  0  0  0  0  0  0  0  0
    2.9473   -2.5364    0.2929 N   0  0  0  0  0  0  0  0  0  0  0  0
    2.8193   -1.2754   -0.0878 C   0  0  0  0  0  0  0  0  0  0  0  0
    3.8588   -0.2111   -0.2100 C   0  0  0  0  0  0  0  0  0  0  0  0
    4.6824    0.3330    0.4497 N   0  0  0  0  0  0  0  0  0  0  0  0
    5.5183    1.2628    0.1622 C   0  0  0  0  0  0  0  0  0  0  0  0
    6.5532    1.9403    1.0256 C   0  0  0  0  0  0  0  0  0  0  0  0
    7.5878    1.0725    1.1870 F   0  0  0  0  0  0  0  0  0  0  0  0
    6.8848    3.1607    0.5119 F   0  0  0  0  0  0  0  0  0  0  0  0
    5.9069    2.1644    2.2493 F   0  0  0  0  0  0  0  0  0  0  0  0
    5.3902    1.6835   -1.2227 N   0  0  0  0  0  0  0  0  0  0  0  0
    4.0239    0.5825   -1.8150 S   0  0  0  0  0  0  0  0  0  0  0  0
    1.4912   -1.1006   -0.3657 N   0  0  0  0  0  0  0  0  0  0  0  0
    0.7497    0.0584   -0.8183 C   0  0  0  0  0  0  0  0  0  0  0  0
   -0.5374    0.1162    0.0160 C   0  0  0  0  0  0  0  0  0  0  0  0
   -1.3107   -1.0604   -0.2734 N   0  0  0  0  0  0  0  0  0  0  0  0
   -2.7017   -0.9609   -0.4412 C   0  0  0  0  0  0  0  0  0  0  0  0
   -3.3490   -2.0286   -0.6959 O   0  0  0  0  0  0  0  0  0  0  0  0
   -3.4267    0.3146   -0.3337 C   0  0  0  0  0  0  0  0  0  0  0  0
   -4.2913    0.7064   -1.3356 C   0  0  0  0  0  0  0  0  0  0  0  0
   -4.9938    1.8907   -1.2941 C   0  0  0  0  0  0  0  0  0  0  0  0
   -4.8495    2.7469   -0.2170 C   0  0  0  0  0  0  0  0  0  0  0  0
   -5.5442    3.9116   -0.1817 F   0  0  0  0  0  0  0  0  0  0  0  0
   -3.9865    2.3644    0.7934 C   0  0  0  0  0  0  0  0  0  0  0  0
   -3.2858    1.1702    0.7397 C   0  0  0  0  0  0  0  0  0  0  0  0
   -1.5571   -2.8642    1.5026 H   0  0  0  0  0  0  0  0  0  0  0  0
   -2.0315   -3.8749    0.0298 H   0  0  0  0  0  0  0  0  0  0  0  0
   -0.4216   -4.0791    0.7812 H   0  0  0  0  0  0  0  0  0  0  0  0
   -0.8268   -2.7127   -1.4314 H   0  0  0  0  0  0  0  0  0  0  0  0
    0.4906   -0.1125   -1.8781 H   0  0  0  0  0  0  0  0  0  0  0  0
    1.3340    0.9842   -0.6403 H   0  0  0  0  0  0  0  0  0  0  0  0
   -0.2543    0.1930    1.0916 H   0  0  0  0  0  0  0  0  0  0  0  0
   -1.0264    1.0556   -0.2805 H   0  0  0  0  0  0  0  0  0  0  0  0
   -4.4362    0.0573   -2.2072 H   0  0  0  0  0  0  0  0  0  0  0  0
   -5.6783    2.2108   -2.0798 H   0  0  0  0  0  0  0  0  0  0  0  0
   -3.8668    3.0383    1.6559 H   0  0  0  0  0  0  0  0  0  0  0  0
   -2.5960    0.8483    1.5252 H   0  0  0  0  0  0  0  0  0  0  0  0
  1  2  1  0
  2  3  1  0
  3  4  2  0
  4  5  1  0
  5  6  2  0
  6  7  1  0
  7  8  2  0
  8  9  1  0
  9 10  1  0
 10 11  1  0
 10 12  1  0
 10 13  1  0
  9 14  2  0
 14 15  1  0
  6 16  1  0
 16 17  1  0
 17 18  1  0
 18 19  1  0
 19 20  1  0
 20 21  2  0
 20 22  1  0
 22 23  2  0
 23 24  1  0
 24 25  2  0
 25 26  1  0
 25 27  1  0
 27 28  2  0
 19  2  1  0
 28 22  1  0
 16  3  1  0
 15  7  1  0
  1 29  1  0
  1 30  1  0
  1 31  1  0
  2 32  1  6
 17 33  1  0
 17 34  1  0
 18 35  1  0
 18 36  1  0
 23 37  1  0
 24 38  1  0
 27 39  1  0
 28 40  1  0
M  END
$$$$
