
     RDKit          3D

 73 79  0  0  0  0  0  0  0  0999 V2000
   -3.2768    7.3291    2.1100 C   0  0  0  0  0  0  0  0  0  0  0  0
   -2.7696    6.0343    1.9811 O   0  0  0  0  0  0  0  0  0  0  0  0
   -2.1309    5.5409    0.8591 C   0  0  0  0  0  0  0  0  0  0  0  0
   -1.6639    4.2532    0.8229 C   0  0  0  0  0  0  0  0  0  0  0  0
   -1.0131    3.7232   -0.2966 C   0  0  0  0  0  0  0  0  0  0  0  0
   -0.5541    2.3854   -0.2613 N   0  0  0  0  0  0  0  0  0  0  0  0
    0.7550    1.9980    0.2135 C   0  0  0  0  0  0  0  0  0  0  0  0
    1.4599    2.5954    1.0698 O   0  0  0  0  0  0  0  0  0  0  0  0
    1.1192    0.7829   -0.4797 N   0  0  0  0  0  0  0  0  0  0  0  0
    2.3164    0.0369   -0.3263 C   0  0  0  0  0  0  0  0  0  0  0  0
    2.4430   -0.9825    0.5984 C   0  0  0  0  0  0  0  0  0  0  0  0
    3.6019   -1.6834    0.7395 C   0  0  0  0  0  0  0  0  0  0  0  0
    4.6908   -1.3900   -0.0460 C   0  0  0  0  0  0  0  0  0  0  0  0
    5.9540   -2.1104    0.0767 C   0  0  0  0  0  0  0  0  0  0  0  0
    5.9894   -3.4400    0.4396 C   0  0  0  0  0  0  0  0  0  0  0  0
    7.2257   -4.0492    0.5440 C   0  0  0  0  0  0  0  0  0  0  0  0
    8.4072   -3.3849    0.3018 C   0  0  0  0  0  0  0  0  0  0  0  0
    9.7211   -3.6809    0.3176 N   0  0  0  0  0  0  0  0  0  0  0  0
   10.4404   -2.6155   -0.0100 N   0  0  0  0  0  0  0  0  0  0  0  0
    9.6229   -1.5790   -0.2538 C   0  0  0  0  0  0  0  0  0  0  0  0
    8.3433   -2.0438   -0.0630 C   0  0  0  0  0  0  0  0  0  0  0  0
    7.1337   -1.4296   -0.1702 C   0  0  0  0  0  0  0  0  0  0  0  0
    4.5757   -0.3752   -0.9723 C   0  0  0  0  0  0  0  0  0  0  0  0
    3.3889    0.3531   -1.1270 C   0  0  0  0  0  0  0  0  0  0  0  0
    0.0082    0.4932   -1.3461 C   0  0  0  0  0  0  0  0  0  0  0  0
    0.0656   -0.1398   -2.4062 O   0  0  0  0  0  0  0  0  0  0  0  0
   -1.1575    1.1377   -0.6386 C   0  0  0  0  0  0  0  0  0  0  0  0
   -2.3903    1.2080   -1.4438 C   0  0  0  0  0  0  0  0  0  0  0  0
   -3.4730    0.2707   -0.9566 C   0  0  0  0  0  0  0  0  0  0  0  0
   -3.0211   -1.0058   -0.5870 N   0  0  0  0  0  0  0  0  0  0  0  0
   -3.6532   -2.1468   -1.1149 C   0  0  0  0  0  0  0  0  0  0  0  0
   -5.0981   -2.2568   -0.7313 C   0  0  0  0  0  0  0  0  0  0  0  0
   -6.0875   -1.9560   -1.5878 N   0  0  0  0  0  0  0  0  0  0  0  0
   -7.3816   -2.0365   -1.2878 C   0  0  0  0  0  0  0  0  0  0  0  0
   -7.7801   -2.4481   -0.0370 C   0  0  0  0  0  0  0  0  0  0  0  0
   -6.8145   -2.7679    0.8770 C   0  0  0  0  0  0  0  0  0  0  0  0
   -5.4792   -2.6754    0.5395 C   0  0  0  0  0  0  0  0  0  0  0  0
   -4.4704   -3.0265    1.5392 C   0  0  0  0  0  0  0  0  0  0  0  0
   -1.7379   -1.1314   -0.0154 C   0  0  0  0  0  0  0  0  0  0  0  0
   -1.3898    0.2401    0.5850 C   0  0  0  0  0  0  0  0  0  0  0  0
   -0.8756    4.5589   -1.3349 N   0  0  0  0  0  0  0  0  0  0  0  0
   -1.3378    5.8310   -1.2976 C   0  0  0  0  0  0  0  0  0  0  0  0
   -1.9678    6.3399   -0.2098 N   0  0  0  0  0  0  0  0  0  0  0  0
   -4.3532    7.2913    2.2869 H   0  0  0  0  0  0  0  0  0  0  0  0
   -2.7650    7.7825    3.0060 H   0  0  0  0  0  0  0  0  0  0  0  0
   -3.0585    7.9359    1.1977 H   0  0  0  0  0  0  0  0  0  0  0  0
   -1.8019    3.6218    1.6919 H   0  0  0  0  0  0  0  0  0  0  0  0
    1.5685   -1.2156    1.2278 H   0  0  0  0  0  0  0  0  0  0  0  0
    3.6842   -2.4722    1.4621 H   0  0  0  0  0  0  0  0  0  0  0  0
    5.0775   -3.9882    0.6360 H   0  0  0  0  0  0  0  0  0  0  0  0
    7.2861   -5.0999    0.8294 H   0  0  0  0  0  0  0  0  0  0  0  0
   10.1267   -4.5957    0.5492 H   0  0  0  0  0  0  0  0  0  0  0  0
    9.8938   -0.5784   -0.5410 H   0  0  0  0  0  0  0  0  0  0  0  0
    7.0810   -0.3959   -0.4518 H   0  0  0  0  0  0  0  0  0  0  0  0
    5.4081   -0.1030   -1.6200 H   0  0  0  0  0  0  0  0  0  0  0  0
    3.3579    1.1352   -1.8680 H   0  0  0  0  0  0  0  0  0  0  0  0
   -2.1880    0.9778   -2.5291 H   0  0  0  0  0  0  0  0  0  0  0  0
   -2.8027    2.2400   -1.4039 H   0  0  0  0  0  0  0  0  0  0  0  0
   -3.9526    0.7666   -0.0729 H   0  0  0  0  0  0  0  0  0  0  0  0
   -4.2449    0.2517   -1.7619 H   0  0  0  0  0  0  0  0  0  0  0  0
   -3.1543   -3.0649   -0.7257 H   0  0  0  0  0  0  0  0  0  0  0  0
   -3.5919   -2.2369   -2.2266 H   0  0  0  0  0  0  0  0  0  0  0  0
   -8.1748   -1.7870   -1.9964 H   0  0  0  0  0  0  0  0  0  0  0  0
   -8.8452   -2.5183    0.2206 H   0  0  0  0  0  0  0  0  0  0  0  0
   -7.1125   -3.0970    1.8760 H   0  0  0  0  0  0  0  0  0  0  0  0
   -4.9277   -3.5598    2.3965 H   0  0  0  0  0  0  0  0  0  0  0  0
   -3.7874   -3.7915    1.0672 H   0  0  0  0  0  0  0  0  0  0  0  0
   -3.8933   -2.1922    1.9498 H   0  0  0  0  0  0  0  0  0  0  0  0
   -1.0006   -1.4020   -0.7741 H   0  0  0  0  0  0  0  0  0  0  0  0
   -1.6562   -1.8926    0.7851 H   0  0  0  0  0  0  0  0  0  0  0  0
   -2.2376    0.6398    1.1650 H   0  0  0  0  0  0  0  0  0  0  0  0
   -0.4627    0.1068    1.1525 H   0  0  0  0  0  0  0  0  0  0  0  0
   -1.2108    6.4854   -2.1572 H   0  0  0  0  0  0  0  0  0  0  0  0
  1  2  1  0
  2  3  1  0
  3  4  2  0
  4  5  1  0
  5  6  1  0
  6  7  1  0
  7  8  2  0
  7  9  1  0
  9 10  1  0
 10 11  2  0
 11 12  1  0
 12 13  2  0
 13 14  1  0
 14 15  2  0
 15 16  1  0
 16 17  2  0
 17 18  1  0
 18 19  1  0
 19 20  2  0
 20 21  1  0
 21 22  2  0
 13 23  1  0
 23 24  2  0
  9 25  1  0
 25 26  2  0
 25 27  1  0
 27 28  1  0
 28 29  1  0
 29 30  1  0
 30 31  1  0
 31 32  1  0
 32 33  2  0
 33 34  1  0
 34 35  2  0
 35 36  1  0
 36 37  2  0
 37 38  1  0
 30 39  1  0
 39 40  1  0
  5 41  2  0
 41 42  1  0
 42 43  2  0
 43  3  1  0
 27  6  1  0
 37 32  1  0
 24 10  1  0
 40 27  1  0
 22 14  1  0
 21 17  1  0
  1 44  1  0
  1 45  1  0
  1 46  1  0
  4 47  1  0
 11 48  1  0
 12 49  1  0
 15 50  1  0
 16 51  1  0
 18 52  1  0
 20 53  1  0
 22 54  1  0
 23 55  1  0
 24 56  1  0
 28 57  1  0
 28 58  1  0
 29 59  1  0
 29 60  1  0
 31 61  1  0
 31 62  1  0
 34 63  1  0
 35 64  1  0
 36 65  1  0
 38 66  1  0
 38 67  1  0
 38 68  1  0
 39 69  1  0
 39 70  1  0
 40 71  1  0
 40 72  1  0
 42 73  1  0
M  END
$$$$
