
     RDKit          3D

 85 90  0  0  0  0  0  0  0  0999 V2000
    1.7711   -0.5299   -0.7682 C   0  0  2  0  0  0  0  0  0  0  0  0
    0.8086   -0.0974   -1.8340 C   0  0  0  0  0  0  0  0  0  0  0  0
   -0.5362    0.0881   -1.1780 C   0  0  0  0  0  0  0  0  0  0  0  0
   -0.7590   -1.2352   -0.4880 C   0  0  2  0  0  0  0  0  0  0  0  0
   -0.2017   -2.2857   -1.2542 O   0  0  0  0  0  0  0  0  0  0  0  0
   -2.2216   -1.4954   -0.4236 C   0  0  0  0  0  0  0  0  0  0  0  0
   -2.8107   -0.4034    0.4283 C   0  0  2  0  0  0  0  0  0  0  0  0
   -2.3163   -0.7161    1.8086 C   0  0  0  0  0  0  0  0  0  0  0  0
   -0.8364   -0.4669    1.8366 C   0  0  1  0  0  0  0  0  0  0  0  0
   -0.4638   -0.5939    3.1476 O   0  0  0  0  0  0  0  0  0  0  0  0
   -0.0286   -1.2433    0.8409 C   0  0  1  0  0  0  0  0  0  0  0  0
    0.0949   -2.6964    1.1726 C   0  0  0  0  0  0  0  0  0  0  0  0
    0.7184   -3.0235    2.3328 O   0  0  0  0  0  0  0  0  0  0  0  0
    1.2600   -0.5224    0.6279 C   0  0  1  0  0  0  0  0  0  0  0  0
    2.4062   -1.0331    1.4899 C   0  0  2  0  0  0  0  0  0  0  0  0
    2.1300   -0.8774    2.8629 O   0  0  0  0  0  0  0  0  0  0  0  0
    3.6156   -0.1905    1.3287 C   0  0  0  0  0  0  0  0  0  0  0  0
    4.1290    0.0398   -0.0370 C   0  0  2  0  0  0  0  0  0  0  0  0
    4.9516   -1.1239   -0.5467 C   0  0  0  0  0  0  0  0  0  0  0  0
    4.9024    1.3435   -0.0059 C   0  0  2  0  0  0  0  0  0  0  0  0
    4.2656    2.2141   -1.0736 C   0  0  0  0  0  0  0  0  0  0  0  0
    2.7979    1.7781   -0.8833 C   0  0  0  0  0  0  0  0  0  0  0  0
    2.9808    0.3065   -0.9680 C   0  0  2  0  0  0  0  0  0  0  0  0
    3.4785    0.0383   -2.2685 O   0  0  0  0  0  0  0  0  0  0  0  0
    6.3486    1.2078   -0.1308 C   0  0  0  0  0  0  0  0  0  0  0  0
    6.9294    1.8250   -1.1454 C   0  0  0  0  0  0  0  0  0  0  0  0
    8.3385    1.4928   -0.9805 C   0  0  0  0  0  0  0  0  0  0  0  0
    9.3610    1.8082   -1.6593 O   0  0  0  0  0  0  0  0  0  0  0  0
    8.5401    0.6895    0.1275 O   0  0  0  0  0  0  0  0  0  0  0  0
    7.3039    0.4810    0.7354 C   0  0  0  0  0  0  0  0  0  0  0  0
   -4.1507   -0.1899    0.3087 O   0  0  0  0  0  0  0  0  0  0  0  0
   -4.5310    1.0380   -0.1555 C   0  0  2  0  0  0  0  0  0  0  0  0
   -5.3924    1.6138    0.7836 O   0  0  0  0  0  0  0  0  0  0  0  0
   -6.2815    0.6132    1.1906 C   0  0  1  0  0  0  0  0  0  0  0  0
   -7.0872    1.0519    2.3976 C   0  0  0  0  0  0  0  0  0  0  0  0
   -7.2340    0.3057    0.0363 C   0  0  2  0  0  0  0  0  0  0  0  0
   -7.1659   -1.0531   -0.2518 O   0  0  0  0  0  0  0  0  0  0  0  0
   -6.8119    1.0770   -1.1868 C   0  0  1  0  0  0  0  0  0  0  0  0
   -7.0322    2.4387   -1.0456 O   0  0  0  0  0  0  0  0  0  0  0  0
   -5.3298    0.8183   -1.4230 C   0  0  1  0  0  0  0  0  0  0  0  0
   -4.8687    1.5736   -2.4917 O   0  0  0  0  0  0  0  0  0  0  0  0
    2.0963   -1.5925   -0.9747 H   0  0  0  0  0  0  0  0  0  0  0  0
    1.1017    0.7615   -2.4298 H   0  0  0  0  0  0  0  0  0  0  0  0
    0.6566   -0.9359   -2.5758 H   0  0  0  0  0  0  0  0  0  0  0  0
   -0.3907    0.9371   -0.4571 H   0  0  0  0  0  0  0  0  0  0  0  0
   -1.2839    0.2818   -1.9520 H   0  0  0  0  0  0  0  0  0  0  0  0
   -0.8823   -2.6336   -1.8839 H   0  0  0  0  0  0  0  0  0  0  0  0
   -2.6229   -1.4015   -1.4286 H   0  0  0  0  0  0  0  0  0  0  0  0
   -2.4104   -2.5064   -0.0636 H   0  0  0  0  0  0  0  0  0  0  0  0
   -2.3105    0.5341    0.0990 H   0  0  0  0  0  0  0  0  0  0  0  0
   -2.7697   -0.0560    2.5488 H   0  0  0  0  0  0  0  0  0  0  0  0
   -2.5134   -1.7785    2.0834 H   0  0  0  0  0  0  0  0  0  0  0  0
   -0.7061    0.6164    1.5570 H   0  0  0  0  0  0  0  0  0  0  0  0
   -0.9976   -1.1988    3.6946 H   0  0  0  0  0  0  0  0  0  0  0  0
   -0.9120   -3.1406    1.1911 H   0  0  0  0  0  0  0  0  0  0  0  0
    0.6115   -3.1760    0.3097 H   0  0  0  0  0  0  0  0  0  0  0  0
    1.2838   -3.8331    2.2969 H   0  0  0  0  0  0  0  0  0  0  0  0
    1.1550    0.5608    0.9234 H   0  0  0  0  0  0  0  0  0  0  0  0
    2.6077   -2.1087    1.2804 H   0  0  0  0  0  0  0  0  0  0  0  0
    2.9210   -1.2578    3.3215 H   0  0  0  0  0  0  0  0  0  0  0  0
    4.4287   -0.6554    1.9420 H   0  0  0  0  0  0  0  0  0  0  0  0
    3.4213    0.8008    1.8346 H   0  0  0  0  0  0  0  0  0  0  0  0
    5.8008   -0.7285   -1.1064 H   0  0  0  0  0  0  0  0  0  0  0  0
    4.3126   -1.6553   -1.3129 H   0  0  0  0  0  0  0  0  0  0  0  0
    5.1755   -1.8590    0.2363 H   0  0  0  0  0  0  0  0  0  0  0  0
    4.7260    1.9226    0.9490 H   0  0  0  0  0  0  0  0  0  0  0  0
    4.5436    1.8943   -2.0869 H   0  0  0  0  0  0  0  0  0  0  0  0
    4.3927    3.2979   -0.8823 H   0  0  0  0  0  0  0  0  0  0  0  0
    2.4817    2.1384    0.1159 H   0  0  0  0  0  0  0  0  0  0  0  0
    2.2528    2.2643   -1.6871 H   0  0  0  0  0  0  0  0  0  0  0  0
    3.0374   -0.7421   -2.6742 H   0  0  0  0  0  0  0  0  0  0  0  0
    6.5754    2.4397   -1.9494 H   0  0  0  0  0  0  0  0  0  0  0  0
    7.3421    1.0262    1.7225 H   0  0  0  0  0  0  0  0  0  0  0  0
    7.0604   -0.5770    0.9077 H   0  0  0  0  0  0  0  0  0  0  0  0
   -3.6980    1.7244   -0.3842 H   0  0  0  0  0  0  0  0  0  0  0  0
   -5.7302   -0.3140    1.4914 H   0  0  0  0  0  0  0  0  0  0  0  0
   -8.0231    1.5758    2.0760 H   0  0  0  0  0  0  0  0  0  0  0  0
   -6.4430    1.7031    3.0231 H   0  0  0  0  0  0  0  0  0  0  0  0
   -7.3428    0.1529    2.9961 H   0  0  0  0  0  0  0  0  0  0  0  0
   -8.2613    0.5899    0.3317 H   0  0  0  0  0  0  0  0  0  0  0  0
   -7.0023   -1.5357    0.5939 H   0  0  0  0  0  0  0  0  0  0  0  0
   -7.3460    0.6883   -2.0771 H   0  0  0  0  0  0  0  0  0  0  0  0
   -7.1123    2.8539   -1.9606 H   0  0  0  0  0  0  0  0  0  0  0  0
   -5.2860   -0.2562   -1.7656 H   0  0  0  0  0  0  0  0  0  0  0  0
   -5.0119    1.1128   -3.3561 H   0  0  0  0  0  0  0  0  0  0  0  0
  1  2  1  0
  2  3  1  0
  3  4  1  0
  4  5  1  6
  4  6  1  0
  6  7  1  0
  7  8  1  0
  8  9  1  0
  9 10  1  0
  9 11  1  0
 11 12  1  1
 12 13  1  0
 11 14  1  0
 14 15  1  0
 15 16  1  0
 15 17  1  0
 17 18  1  0
 18 19  1  6
 18 20  1  0
 20 21  1  0
 21 22  1  0
 22 23  1  0
 23 24  1  6
 20 25  1  0
 25 26  2  0
 26 27  1  0
 27 28  2  0
 27 29  1  0
 29 30  1  0
  7 31  1  0
 31 32  1  0
 32 33  1  0
 33 34  1  0
 34 35  1  0
 34 36  1  0
 36 37  1  0
 36 38  1  0
 38 39  1  0
 38 40  1  0
 40 41  1  0
 14  1  1  0
 23 18  1  0
 30 25  1  0
 40 32  1  0
 23  1  1  0
 11  4  1  0
  1 42  1  6
  2 43  1  0
  2 44  1  0
  3 45  1  0
  3 46  1  0
  5 47  1  0
  6 48  1  0
  6 49  1  0
  7 50  1  6
  8 51  1  0
  8 52  1  0
  9 53  1  6
 10 54  1  0
 12 55  1  0
 12 56  1  0
 13 57  1  0
 14 58  1  1
 15 59  1  1
 16 60  1  0
 17 61  1  0
 17 62  1  0
 19 63  1  0
 19 64  1  0
 19 65  1  0
 20 66  1  1
 21 67  1  0
 21 68  1  0
 22 69  1  0
 22 70  1  0
 24 71  1  0
 26 72  1  0
 30 73  1  0
 30 74  1  0
 32 75  1  6
 34 76  1  1
 35 77  1  0
 35 78  1  0
 35 79  1  0
 36 80  1  1
 37 81  1  0
 38 82  1  6
 39 83  1  0
 40 84  1  6
 41 85  1  0
M  END
$$$$
