
     RDKit          3D

 59 63  0  0  0  0  0  0  0  0999 V2000
    8.3214    2.6263    0.7040 C   0  0  0  0  0  0  0  0  0  0  0  0
    7.6885    1.6500   -0.0747 O   0  0  0  0  0  0  0  0  0  0  0  0
    6.3259    1.3698    0.0691 C   0  0  0  0  0  0  0  0  0  0  0  0
    5.6063    2.0893    1.0122 C   0  0  0  0  0  0  0  0  0  0  0  0
    4.2774    1.8660    1.2024 C   0  0  0  0  0  0  0  0  0  0  0  0
    3.6272    0.9131    0.4523 C   0  0  0  0  0  0  0  0  0  0  0  0
    2.2735    0.6630    0.6235 C   0  0  0  0  0  0  0  0  0  0  0  0
    1.5930   -0.2883   -0.1155 C   0  0  0  0  0  0  0  0  0  0  0  0
    0.1749   -0.5183    0.0965 C   0  0  0  0  0  0  0  0  0  0  0  0
   -0.4590   -1.6669    0.5043 C   0  0  0  0  0  0  0  0  0  0  0  0
    0.2732   -2.8970    0.7963 C   0  0  0  0  0  0  0  0  0  0  0  0
    1.1896   -2.9210    1.8237 C   0  0  0  0  0  0  0  0  0  0  0  0
    1.8749   -4.0926    2.0877 C   0  0  0  0  0  0  0  0  0  0  0  0
    1.6643   -5.2187    1.3571 N   0  0  0  0  0  0  0  0  0  0  0  0
    0.7796   -5.2209    0.3542 C   0  0  0  0  0  0  0  0  0  0  0  0
    0.0971   -4.0660    0.0859 C   0  0  0  0  0  0  0  0  0  0  0  0
   -1.7370   -1.3868    0.5520 N   0  0  0  0  0  0  0  0  0  0  0  0
   -1.9902   -0.0848    0.1898 C   0  0  0  0  0  0  0  0  0  0  0  0
   -3.3323    0.4925    0.1373 C   0  0  0  0  0  0  0  0  0  0  0  0
   -3.6061    1.8141   -0.0488 C   0  0  0  0  0  0  0  0  0  0  0  0
   -4.9006    2.3247   -0.1163 C   0  0  0  0  0  0  0  0  0  0  0  0
   -5.9622    1.4598    0.0107 C   0  0  0  0  0  0  0  0  0  0  0  0
   -7.6204    2.0507   -0.0672 S   0  0  0  0  0  4  0  0  0  0  0  0
   -8.2196    2.0214   -1.7610 C   0  0  0  0  0  0  0  0  0  0  0  0
   -8.5650    1.1860    0.7628 O   0  0  0  0  0  0  0  0  0  0  0  0
   -5.6974    0.1272    0.1990 C   0  0  0  0  0  0  0  0  0  0  0  0
   -4.4284   -0.3716    0.2647 C   0  0  0  0  0  0  0  0  0  0  0  0
   -4.2525   -1.8143    0.4666 C   0  0  0  0  0  0  0  0  0  0  0  0
   -0.8061    0.4351   -0.0878 N   0  0  0  0  0  0  0  0  0  0  0  0
   -0.5005    1.7829   -0.5433 C   0  0  0  0  0  0  0  0  0  0  0  0
    2.3384   -0.9817   -1.0406 C   0  0  0  0  0  0  0  0  0  0  0  0
    3.6841   -0.7671   -1.2448 C   0  0  0  0  0  0  0  0  0  0  0  0
    4.3522    0.1989   -0.4872 C   0  0  0  0  0  0  0  0  0  0  0  0
    5.6951    0.4135   -0.6906 C   0  0  0  0  0  0  0  0  0  0  0  0
    8.1652    2.4654    1.7927 H   0  0  0  0  0  0  0  0  0  0  0  0
    8.0631    3.6581    0.3924 H   0  0  0  0  0  0  0  0  0  0  0  0
    9.4264    2.5178    0.5219 H   0  0  0  0  0  0  0  0  0  0  0  0
    6.0981    2.8528    1.6225 H   0  0  0  0  0  0  0  0  0  0  0  0
    3.6923    2.4281    1.9463 H   0  0  0  0  0  0  0  0  0  0  0  0
    1.7743    1.2690    1.3846 H   0  0  0  0  0  0  0  0  0  0  0  0
    1.4037   -2.0601    2.4425 H   0  0  0  0  0  0  0  0  0  0  0  0
    2.6054   -4.1768    2.8784 H   0  0  0  0  0  0  0  0  0  0  0  0
    0.6374   -6.1321   -0.2049 H   0  0  0  0  0  0  0  0  0  0  0  0
   -0.6218   -4.0826   -0.7354 H   0  0  0  0  0  0  0  0  0  0  0  0
   -2.8436    2.5564   -0.1410 H   0  0  0  0  0  0  0  0  0  0  0  0
   -5.0812    3.3798   -0.2654 H   0  0  0  0  0  0  0  0  0  0  0  0
   -7.7396    2.8642   -2.3136 H   0  0  0  0  0  0  0  0  0  0  0  0
   -7.9590    1.0782   -2.2777 H   0  0  0  0  0  0  0  0  0  0  0  0
   -9.3117    2.1619   -1.7394 H   0  0  0  0  0  0  0  0  0  0  0  0
   -6.5672   -0.5257    0.2954 H   0  0  0  0  0  0  0  0  0  0  0  0
   -3.6946   -2.3292   -0.3452 H   0  0  0  0  0  0  0  0  0  0  0  0
   -5.2583   -2.3233    0.4819 H   0  0  0  0  0  0  0  0  0  0  0  0
   -3.8162   -2.0034    1.4706 H   0  0  0  0  0  0  0  0  0  0  0  0
   -0.6043    2.5580    0.2078 H   0  0  0  0  0  0  0  0  0  0  0  0
    0.5709    1.7821   -0.9568 H   0  0  0  0  0  0  0  0  0  0  0  0
   -1.0893    2.0463   -1.4437 H   0  0  0  0  0  0  0  0  0  0  0  0
    1.8586   -1.7242   -1.6332 H   0  0  0  0  0  0  0  0  0  0  0  0
    4.2558   -1.3187   -1.9738 H   0  0  0  0  0  0  0  0  0  0  0  0
    6.2766   -0.1304   -1.4153 H   0  0  0  0  0  0  0  0  0  0  0  0
  1  2  1  0
  2  3  1  0
  3  4  2  0
  4  5  1  0
  5  6  2  0
  6  7  1  0
  7  8  2  0
  8  9  1  0
  9 10  2  0
 10 11  1  0
 11 12  2  0
 12 13  1  0
 13 14  2  0
 14 15  1  0
 15 16  2  0
 10 17  1  0
 17 18  2  0
 18 19  1  0
 19 20  2  0
 20 21  1  0
 21 22  2  0
 22 23  1  0
 23 24  1  0
 23 25  2  0
 22 26  1  0
 26 27  2  0
 27 28  1  0
 18 29  1  0
 29 30  1  0
  8 31  1  0
 31 32  2  0
 32 33  1  0
 33 34  2  0
 34  3  1  0
 33  6  1  0
 29  9  1  0
 16 11  1  0
 27 19  1  0
  1 35  1  0
  1 36  1  0
  1 37  1  0
  4 38  1  0
  5 39  1  0
  7 40  1  0
 12 41  1  0
 13 42  1  0
 15 43  1  0
 16 44  1  0
 20 45  1  0
 21 46  1  0
 24 47  1  0
 24 48  1  0
 24 49  1  0
 26 50  1  0
 28 51  1  0
 28 52  1  0
 28 53  1  0
 30 54  1  0
 30 55  1  0
 30 56  1  0
 31 57  1  0
 32 58  1  0
 34 59  1  0
M  END
$$$$
