
     RDKit          3D

 18 18  0  0  0  0  0  0  0  0999 V2000
    2.3092    1.6347   -0.2826 O   0  0  0  0  0  0  0  0  0  0  0  0
    2.5374   -0.0228   -0.4204 P   0  0  0  0  0  0  0  0  0  0  0  0
    3.7096   -0.4703    0.7454 O   0  0  0  0  0  0  0  0  0  0  0  0
    3.1376   -0.4090   -1.7455 O   0  0  0  0  0  0  0  0  0  0  0  0
    1.1324   -0.8937   -0.0945 O   0  0  0  0  0  0  0  0  0  0  0  0
   -0.1533   -0.4378   -0.0325 C   0  0  0  0  0  0  0  0  0  0  0  0
   -1.0106   -1.3464    0.5674 C   0  0  0  0  0  0  0  0  0  0  0  0
   -2.3689   -1.0527    0.7195 C   0  0  0  0  0  0  0  0  0  0  0  0
   -2.7838    0.1784    0.2402 C   0  0  0  0  0  0  0  0  0  0  0  0
   -1.9706    1.1201   -0.3657 C   0  0  0  0  0  0  0  0  0  0  0  0
   -0.6315    0.7733   -0.4893 C   0  0  0  0  0  0  0  0  0  0  0  0
    2.6655    2.1648   -1.0228 H   0  0  0  0  0  0  0  0  0  0  0  0
    3.3631   -1.1499    1.3707 H   0  0  0  0  0  0  0  0  0  0  0  0
   -0.7303   -2.3164    0.9550 H   0  0  0  0  0  0  0  0  0  0  0  0
   -3.0942   -1.7170    1.1790 H   0  0  0  0  0  0  0  0  0  0  0  0
   -3.8326    0.4604    0.3321 H   0  0  0  0  0  0  0  0  0  0  0  0
   -2.3549    2.0562   -0.7156 H   0  0  0  0  0  0  0  0  0  0  0  0
    0.0757    1.4280   -0.9405 H   0  0  0  0  0  0  0  0  0  0  0  0
  1  2  1  0
  2  3  1  0
  2  4  2  0
  2  5  1  0
  5  6  1  0
  6  7  2  0
  7  8  1  0
  8  9  2  0
  9 10  1  0
 10 11  2  0
 11  6  1  0
  1 12  1  0
  3 13  1  0
  7 14  1  0
  8 15  1  0
  9 16  1  0
 10 17  1  0
 11 18  1  0
M  END
$$$$
