
     RDKit          3D

 86 92  0  0  0  0  0  0  0  0999 V2000
   -4.0667   -1.8318   -0.0711 C   0  0  2  0  0  0  0  0  0  0  0  0
   -2.8493   -2.6181   -0.4293 C   0  0  0  0  0  0  0  0  0  0  0  0
   -1.6017   -2.2051    0.2119 C   0  0  0  0  0  0  0  0  0  0  0  0
   -1.5201   -1.7676    1.5093 C   0  0  0  0  0  0  0  0  0  0  0  0
   -0.3225   -1.3731    2.0637 C   0  0  0  0  0  0  0  0  0  0  0  0
    0.8177   -1.4199    1.2952 C   0  0  0  0  0  0  0  0  0  0  0  0
    2.0638   -1.0251    1.8136 O   0  0  0  0  0  0  0  0  0  0  0  0
    3.2050   -1.2772    1.0623 C   0  0  0  0  0  0  0  0  0  0  0  0
    3.6977   -0.5098    0.0350 C   0  0  0  0  0  0  0  0  0  0  0  0
    4.8517   -0.9750   -0.5592 C   0  0  0  0  0  0  0  0  0  0  0  0
    5.5146   -0.2622   -1.6957 C   0  0  0  0  0  0  0  0  0  0  0  0
    4.4549    0.5906   -2.3557 C   0  0  0  0  0  0  0  0  0  0  0  0
    3.9020    1.4680   -1.3536 N   0  0  0  0  0  4  0  0  0  0  0  0
    4.9928    2.1757   -0.7298 C   0  0  0  0  0  0  0  0  0  0  0  0
    3.1262    2.4664   -2.0681 C   0  0  0  0  0  0  0  0  0  0  0  0
    3.0429    0.7640   -0.4233 C   0  0  2  0  0  0  0  0  0  0  0  0
    2.6807    1.6509    0.7136 C   0  0  0  0  0  0  0  0  0  0  0  0
    1.2778    2.0491    0.8190 C   0  0  0  0  0  0  0  0  0  0  0  0
    0.3206    2.1247   -0.1630 C   0  0  0  0  0  0  0  0  0  0  0  0
   -0.9448    2.5375    0.1830 C   0  0  0  0  0  0  0  0  0  0  0  0
   -2.0123    2.6573   -0.7306 O   0  0  0  0  0  0  0  0  0  0  0  0
   -3.1622    1.8694   -0.5046 C   0  0  0  0  0  0  0  0  0  0  0  0
   -4.3893    2.4531   -0.3724 C   0  0  0  0  0  0  0  0  0  0  0  0
   -4.5821    3.8195   -0.4541 O   0  0  0  0  0  0  0  0  0  0  0  0
   -5.8635    4.3925   -0.3143 C   0  0  0  0  0  0  0  0  0  0  0  0
   -5.4246    1.5699   -0.1513 C   0  0  0  0  0  0  0  0  0  0  0  0
   -5.2396    0.1894   -0.0682 C   0  0  0  0  0  0  0  0  0  0  0  0
   -6.4913   -0.5695    0.1819 C   0  0  0  0  0  0  0  0  0  0  0  0
   -6.4028   -2.0092   -0.1916 C   0  0  0  0  0  0  0  0  0  0  0  0
   -5.1658   -2.3776   -0.8565 N   0  0  0  0  0  0  0  0  0  0  0  0
   -5.1738   -1.8062   -2.1802 C   0  0  0  0  0  0  0  0  0  0  0  0
   -3.9778   -0.3864   -0.2069 C   0  0  0  0  0  0  0  0  0  0  0  0
   -2.9693    0.5102   -0.4257 C   0  0  0  0  0  0  0  0  0  0  0  0
   -1.3307    2.8872    1.4680 C   0  0  0  0  0  0  0  0  0  0  0  0
   -2.5986    3.3051    1.8420 O   0  0  0  0  0  0  0  0  0  0  0  0
   -0.3796    2.8161    2.4658 C   0  0  0  0  0  0  0  0  0  0  0  0
    0.8735    2.4056    2.1127 C   0  0  0  0  0  0  0  0  0  0  0  0
    5.5150   -2.1272   -0.1907 C   0  0  0  0  0  0  0  0  0  0  0  0
    4.9944   -2.8735    0.8440 C   0  0  0  0  0  0  0  0  0  0  0  0
    5.6375   -4.0477    1.2476 O   0  0  0  0  0  0  0  0  0  0  0  0
    6.8037   -4.5289    0.6572 C   0  0  0  0  0  0  0  0  0  0  0  0
    3.8527   -2.4310    1.4450 C   0  0  0  0  0  0  0  0  0  0  0  0
    3.3854   -3.2506    2.4926 O   0  0  0  0  0  0  0  0  0  0  0  0
    0.7457   -1.8596   -0.0101 C   0  0  0  0  0  0  0  0  0  0  0  0
   -0.4439   -2.2568   -0.5765 C   0  0  0  0  0  0  0  0  0  0  0  0
   -4.3078   -2.0753    0.9869 H   0  0  0  0  0  0  0  0  0  0  0  0
   -2.9916   -3.6974   -0.1925 H   0  0  0  0  0  0  0  0  0  0  0  0
   -2.7579   -2.5963   -1.5514 H   0  0  0  0  0  0  0  0  0  0  0  0
   -2.4366   -1.7461    2.0766 H   0  0  0  0  0  0  0  0  0  0  0  0
   -0.2928   -1.0351    3.0886 H   0  0  0  0  0  0  0  0  0  0  0  0
    5.8438   -0.9823   -2.4792 H   0  0  0  0  0  0  0  0  0  0  0  0
    6.4067    0.2759   -1.3851 H   0  0  0  0  0  0  0  0  0  0  0  0
    5.0081    1.2547   -3.0678 H   0  0  0  0  0  0  0  0  0  0  0  0
    3.7242   -0.0704   -2.8485 H   0  0  0  0  0  0  0  0  0  0  0  0
    5.8515    2.2209   -1.4642 H   0  0  0  0  0  0  0  0  0  0  0  0
    5.3884    1.6941    0.1616 H   0  0  0  0  0  0  0  0  0  0  0  0
    4.7672    3.2744   -0.5722 H   0  0  0  0  0  0  0  0  0  0  0  0
    2.3418    1.9434   -2.6700 H   0  0  0  0  0  0  0  0  0  0  0  0
    2.7278    3.2579   -1.4177 H   0  0  0  0  0  0  0  0  0  0  0  0
    3.7625    2.9739   -2.8240 H   0  0  0  0  0  0  0  0  0  0  0  0
    2.1450    0.4681   -0.9979 H   0  0  0  0  0  0  0  0  0  0  0  0
    3.2643    2.6146    0.6123 H   0  0  0  0  0  0  0  0  0  0  0  0
    3.0518    1.2295    1.6770 H   0  0  0  0  0  0  0  0  0  0  0  0
    0.4402    1.8913   -1.2099 H   0  0  0  0  0  0  0  0  0  0  0  0
   -6.3557    3.9723    0.5971 H   0  0  0  0  0  0  0  0  0  0  0  0
   -5.8157    5.4885   -0.1527 H   0  0  0  0  0  0  0  0  0  0  0  0
   -6.4753    4.1721   -1.1971 H   0  0  0  0  0  0  0  0  0  0  0  0
   -6.4152    2.0375   -0.0434 H   0  0  0  0  0  0  0  0  0  0  0  0
   -7.3160   -0.0948   -0.3795 H   0  0  0  0  0  0  0  0  0  0  0  0
   -6.6887   -0.5078    1.2770 H   0  0  0  0  0  0  0  0  0  0  0  0
   -6.5109   -2.6721    0.6953 H   0  0  0  0  0  0  0  0  0  0  0  0
   -7.2515   -2.2868   -0.8619 H   0  0  0  0  0  0  0  0  0  0  0  0
   -4.5382   -0.9065   -2.2039 H   0  0  0  0  0  0  0  0  0  0  0  0
   -6.2030   -1.5160   -2.4768 H   0  0  0  0  0  0  0  0  0  0  0  0
   -4.8496   -2.5768   -2.9168 H   0  0  0  0  0  0  0  0  0  0  0  0
   -1.9868    0.1243   -0.5484 H   0  0  0  0  0  0  0  0  0  0  0  0
   -2.7779    4.2899    1.9647 H   0  0  0  0  0  0  0  0  0  0  0  0
   -0.6400    3.0806    3.4838 H   0  0  0  0  0  0  0  0  0  0  0  0
    1.5805    2.3717    2.9555 H   0  0  0  0  0  0  0  0  0  0  0  0
    6.4203   -2.4898   -0.6586 H   0  0  0  0  0  0  0  0  0  0  0  0
    7.6343   -3.8441    0.9415 H   0  0  0  0  0  0  0  0  0  0  0  0
    6.6944   -4.6342   -0.4257 H   0  0  0  0  0  0  0  0  0  0  0  0
    6.9826   -5.5491    1.0811 H   0  0  0  0  0  0  0  0  0  0  0  0
    2.5302   -3.7790    2.3837 H   0  0  0  0  0  0  0  0  0  0  0  0
    1.6616   -1.8945   -0.6138 H   0  0  0  0  0  0  0  0  0  0  0  0
   -0.4597   -2.5945   -1.5995 H   0  0  0  0  0  0  0  0  0  0  0  0
  1  2  1  0
  2  3  1  0
  3  4  2  0
  4  5  1  0
  5  6  2  0
  6  7  1  0
  7  8  1  0
  8  9  2  0
  9 10  1  0
 10 11  1  0
 11 12  1  0
 12 13  1  0
 13 14  1  0
 13 15  1  0
 13 16  1  0
 16 17  1  0
 17 18  1  0
 18 19  2  0
 19 20  1  0
 20 21  1  0
 21 22  1  0
 22 23  2  0
 23 24  1  0
 24 25  1  0
 23 26  1  0
 26 27  2  0
 27 28  1  0
 28 29  1  0
 29 30  1  0
 30 31  1  0
 27 32  1  0
 32 33  2  0
 20 34  2  0
 34 35  1  0
 34 36  1  0
 36 37  2  0
 10 38  2  0
 38 39  1  0
 39 40  1  0
 40 41  1  0
 39 42  2  0
 42 43  1  0
  6 44  1  0
 44 45  2  0
 30  1  1  0
 32  1  1  0
 45  3  1  0
 42  8  1  0
 16  9  1  0
 37 18  1  0
 33 22  1  0
  1 46  1  1
  2 47  1  0
  2 48  1  0
  4 49  1  0
  5 50  1  0
 11 51  1  0
 11 52  1  0
 12 53  1  0
 12 54  1  0
 14 55  1  0
 14 56  1  0
 14 57  1  0
 15 58  1  0
 15 59  1  0
 15 60  1  0
 16 61  1  6
 17 62  1  0
 17 63  1  0
 19 64  1  0
 25 65  1  0
 25 66  1  0
 25 67  1  0
 26 68  1  0
 28 69  1  0
 28 70  1  0
 29 71  1  0
 29 72  1  0
 31 73  1  0
 31 74  1  0
 31 75  1  0
 33 76  1  0
 35 77  1  0
 36 78  1  0
 37 79  1  0
 38 80  1  0
 41 81  1  0
 41 82  1  0
 41 83  1  0
 43 84  1  0
 44 85  1  0
 45 86  1  0
M  CHG  1  13   1
M  END
$$$$
