
     RDKit          3D

 44 46  0  0  0  0  0  0  0  0999 V2000
    4.1427    1.3031    0.6075 C   0  0  1  0  0  0  0  0  0  0  0  0
    4.3000    1.2396    1.9727 O   0  0  0  0  0  0  0  0  0  0  0  0
    5.2423    0.5201   -0.0105 C   0  0  0  0  0  0  0  0  0  0  0  0
    5.5721   -0.7300    0.4424 C   0  0  0  0  0  0  0  0  0  0  0  0
    6.6117   -1.4234   -0.1635 C   0  0  0  0  0  0  0  0  0  0  0  0
    7.2853   -0.8647   -1.1871 N   0  0  0  0  0  0  0  0  0  0  0  0
    6.9471    0.3669   -1.6207 C   0  0  0  0  0  0  0  0  0  0  0  0
    5.9318    1.0906   -1.0579 C   0  0  0  0  0  0  0  0  0  0  0  0
    2.8265    0.7690    0.1764 C   0  0  0  0  0  0  0  0  0  0  0  0
    1.7809    1.1986    0.9607 C   0  0  0  0  0  0  0  0  0  0  0  0
    0.4515    0.8155    0.7348 C   0  0  0  0  0  0  0  0  0  0  0  0
    0.2619   -0.0427   -0.3561 C   0  0  0  0  0  0  0  0  0  0  0  0
   -0.9471   -0.5675   -0.7904 O   0  0  0  0  0  0  0  0  0  0  0  0
   -2.1191   -0.2097   -0.0767 C   0  0  0  0  0  0  0  0  0  0  0  0
   -3.3263   -0.9025   -0.6451 C   0  0  0  0  0  0  0  0  0  0  0  0
   -4.5654   -0.5672    0.0412 N   0  0  0  0  0  0  0  0  0  0  0  0
   -5.5615   -1.4776   -0.5692 C   0  0  0  0  0  0  0  0  0  0  0  0
   -6.8273   -0.8473   -0.0166 C   0  0  0  0  0  0  0  0  0  0  0  0
   -6.5987    0.5996   -0.4554 C   0  0  0  0  0  0  0  0  0  0  0  0
   -5.0712    0.7376   -0.3729 C   0  0  0  0  0  0  0  0  0  0  0  0
    1.3036   -0.4776   -1.1472 C   0  0  0  0  0  0  0  0  0  0  0  0
    2.6005   -0.0749   -0.8882 C   0  0  0  0  0  0  0  0  0  0  0  0
    4.1796    2.3674    0.2714 H   0  0  0  0  0  0  0  0  0  0  0  0
    4.0426    0.3714    2.3319 H   0  0  0  0  0  0  0  0  0  0  0  0
    5.0215   -1.1762    1.2730 H   0  0  0  0  0  0  0  0  0  0  0  0
    6.8924   -2.4201    0.1779 H   0  0  0  0  0  0  0  0  0  0  0  0
    7.5468    0.7322   -2.4475 H   0  0  0  0  0  0  0  0  0  0  0  0
    5.6900    2.0593   -1.4216 H   0  0  0  0  0  0  0  0  0  0  0  0
    1.8989    1.8733    1.8237 H   0  0  0  0  0  0  0  0  0  0  0  0
   -0.4310    1.0870    1.2767 H   0  0  0  0  0  0  0  0  0  0  0  0
   -2.0130   -0.5301    0.9936 H   0  0  0  0  0  0  0  0  0  0  0  0
   -2.2020    0.8831   -0.0850 H   0  0  0  0  0  0  0  0  0  0  0  0
   -3.4229   -0.7032   -1.7318 H   0  0  0  0  0  0  0  0  0  0  0  0
   -3.2251   -2.0055   -0.5370 H   0  0  0  0  0  0  0  0  0  0  0  0
   -5.3612   -2.4652   -0.1654 H   0  0  0  0  0  0  0  0  0  0  0  0
   -5.4588   -1.3475   -1.6451 H   0  0  0  0  0  0  0  0  0  0  0  0
   -7.6922   -1.3113   -0.5032 H   0  0  0  0  0  0  0  0  0  0  0  0
   -6.7944   -0.9413    1.0797 H   0  0  0  0  0  0  0  0  0  0  0  0
   -6.9752    0.7591   -1.4817 H   0  0  0  0  0  0  0  0  0  0  0  0
   -7.1103    1.2595    0.2429 H   0  0  0  0  0  0  0  0  0  0  0  0
   -4.8575    1.4994    0.3800 H   0  0  0  0  0  0  0  0  0  0  0  0
   -4.6569    1.0685   -1.3398 H   0  0  0  0  0  0  0  0  0  0  0  0
    1.2296   -1.1329   -1.9956 H   0  0  0  0  0  0  0  0  0  0  0  0
    3.4576   -0.3822   -1.4668 H   0  0  0  0  0  0  0  0  0  0  0  0
  1  2  1  0
  1  3  1  0
  3  4  2  0
  4  5  1  0
  5  6  2  0
  6  7  1  0
  7  8  2  0
  1  9  1  0
  9 10  2  0
 10 11  1  0
 11 12  2  0
 12 13  1  0
 13 14  1  0
 14 15  1  0
 15 16  1  0
 16 17  1  0
 17 18  1  0
 18 19  1  0
 19 20  1  0
 12 21  1  0
 21 22  2  0
  8  3  1  0
 22  9  1  0
 20 16  1  0
  1 23  1  6
  2 24  1  0
  4 25  1  0
  5 26  1  0
  7 27  1  0
  8 28  1  0
 10 29  1  0
 11 30  1  0
 14 31  1  0
 14 32  1  0
 15 33  1  0
 15 34  1  0
 17 35  1  0
 17 36  1  0
 18 37  1  0
 18 38  1  0
 19 39  1  0
 19 40  1  0
 20 41  1  0
 20 42  1  0
 21 43  1  0
 22 44  1  0
M  END
$$$$
