
     RDKit          3D

 42 44  0  0  0  0  0  0  0  0999 V2000
   -2.6851    1.5626   -1.3143 O   0  0  0  0  0  0  0  0  0  0  0  0
   -2.3736    0.3817   -1.0200 C   0  0  0  0  0  0  0  0  0  0  0  0
   -3.3674   -0.4863   -0.6293 O   0  0  0  0  0  0  0  0  0  0  0  0
   -4.7307   -0.2039   -0.5139 C   0  0  0  0  0  0  0  0  0  0  0  0
   -5.0680    0.8643    0.4569 C   0  0  0  0  0  0  0  0  0  0  0  0
   -5.2182    0.5389    1.8116 C   0  0  0  0  0  0  0  0  0  0  0  0
   -5.5455    1.5037    2.7348 C   0  0  0  0  0  0  0  0  0  0  0  0
   -5.7422    2.8195    2.3992 C   0  0  0  0  0  0  0  0  0  0  0  0
   -5.5988    3.1589    1.0700 C   0  0  0  0  0  0  0  0  0  0  0  0
   -5.2671    2.1855    0.1261 C   0  0  0  0  0  0  0  0  0  0  0  0
   -0.9896   -0.0288   -1.0998 N   0  0  0  0  0  0  0  0  0  0  0  0
   -0.6781   -1.3741   -0.7558 C   0  0  0  0  0  0  0  0  0  0  0  0
    0.7536   -1.5395   -0.3849 C   0  0  0  0  0  0  0  0  0  0  0  0
    1.7021   -0.7864   -0.9153 C   0  0  0  0  0  0  0  0  0  0  0  0
    3.0545   -1.0108   -0.5044 C   0  0  0  0  0  0  0  0  0  0  0  0
    4.2055   -1.2009   -0.1622 C   0  0  0  0  0  0  0  0  0  0  0  0
    5.5628   -1.4321    0.2264 C   0  0  0  0  0  0  0  0  0  0  0  0
    6.3801   -0.4017    0.6593 C   0  0  0  0  0  0  0  0  0  0  0  0
    7.6831   -0.6448    1.0317 C   0  0  0  0  0  0  0  0  0  0  0  0
    8.1288   -1.9462    0.9537 C   0  0  0  0  0  0  0  0  0  0  0  0
    7.3148   -2.9559    0.5251 C   0  0  0  0  0  0  0  0  0  0  0  0
    6.0458   -2.6811    0.1688 N   0  0  0  0  0  0  0  0  0  0  0  0
    1.3054    0.2534   -1.9094 C   0  0  0  0  0  0  0  0  0  0  0  0
    0.0027    0.9105   -1.5144 C   0  0  0  0  0  0  0  0  0  0  0  0
   -5.2195   -1.1758   -0.2027 H   0  0  0  0  0  0  0  0  0  0  0  0
   -5.2055    0.0037   -1.5161 H   0  0  0  0  0  0  0  0  0  0  0  0
   -5.0732   -0.4770    2.1100 H   0  0  0  0  0  0  0  0  0  0  0  0
   -5.6577    1.2315    3.7789 H   0  0  0  0  0  0  0  0  0  0  0  0
   -5.9979    3.5534    3.1495 H   0  0  0  0  0  0  0  0  0  0  0  0
   -5.7485    4.1845    0.7846 H   0  0  0  0  0  0  0  0  0  0  0  0
   -5.1746    2.4867   -0.9158 H   0  0  0  0  0  0  0  0  0  0  0  0
   -0.8771   -2.0936   -1.5823 H   0  0  0  0  0  0  0  0  0  0  0  0
   -1.2904   -1.6409    0.1408 H   0  0  0  0  0  0  0  0  0  0  0  0
    0.9922   -2.3063    0.3407 H   0  0  0  0  0  0  0  0  0  0  0  0
    6.0251    0.6147    0.7182 H   0  0  0  0  0  0  0  0  0  0  0  0
    8.2850    0.1759    1.3608 H   0  0  0  0  0  0  0  0  0  0  0  0
    9.1523   -2.1325    1.2474 H   0  0  0  0  0  0  0  0  0  0  0  0
    7.6794   -3.9747    0.4696 H   0  0  0  0  0  0  0  0  0  0  0  0
    2.0923    1.0552   -1.8228 H   0  0  0  0  0  0  0  0  0  0  0  0
    1.3234   -0.1047   -2.9383 H   0  0  0  0  0  0  0  0  0  0  0  0
    0.1835    1.6475   -0.7044 H   0  0  0  0  0  0  0  0  0  0  0  0
   -0.3634    1.4661   -2.4257 H   0  0  0  0  0  0  0  0  0  0  0  0
  1  2  2  0
  2  3  1  0
  3  4  1  0
  4  5  1  0
  5  6  2  0
  6  7  1  0
  7  8  2  0
  8  9  1  0
  9 10  2  0
  2 11  1  0
 11 12  1  0
 12 13  1  0
 13 14  2  0
 14 15  1  0
 15 16  3  0
 16 17  1  0
 17 18  2  0
 18 19  1  0
 19 20  2  0
 20 21  1  0
 21 22  2  0
 14 23  1  0
 23 24  1  0
 10  5  1  0
 24 11  1  0
 22 17  1  0
  4 25  1  0
  4 26  1  0
  6 27  1  0
  7 28  1  0
  8 29  1  0
  9 30  1  0
 10 31  1  0
 12 32  1  0
 12 33  1  0
 13 34  1  0
 18 35  1  0
 19 36  1  0
 20 37  1  0
 21 38  1  0
 23 39  1  0
 23 40  1  0
 24 41  1  0
 24 42  1  0
M  END
$$$$
