
     RDKit          3D

 45 45  0  0  0  0  0  0  0  0999 V2000
    3.7585   -0.5743   -0.3904 C   0  0  0  0  0  0  0  0  0  0  0  0
    4.7328    0.2123   -1.1917 C   0  0  0  0  0  0  0  0  0  0  0  0
    6.0072    0.8976   -0.0950 P   0  0  0  0  0  0  0  0  0  0  0  0
    7.3425   -0.1362   -0.0151 O   0  0  0  0  0  0  0  0  0  0  0  0
    6.4592    2.4077   -0.6955 O   0  0  0  0  0  0  0  0  0  0  0  0
    5.3996    1.1003    1.2941 O   0  0  0  0  0  0  0  0  0  0  0  0
    2.4801   -0.3362   -0.3050 C   0  0  0  0  0  0  0  0  0  0  0  0
    1.6000   -1.1621    0.5075 C   0  0  0  0  0  0  0  0  0  0  0  0
    0.3343   -0.9755    0.6262 N   0  0  0  0  0  0  0  0  0  0  0  0
   -0.2817    0.1053   -0.0726 C   0  0  0  0  0  0  0  0  0  0  0  0
   -1.6743    0.3636    0.3713 C   0  0  0  0  0  0  0  0  0  0  0  0
   -2.7297   -0.4848   -0.0110 C   0  0  0  0  0  0  0  0  0  0  0  0
   -2.3615   -1.6169   -0.8548 C   0  0  0  0  0  0  0  0  0  0  0  0
   -3.4813   -2.2878   -1.3008 O   0  0  0  0  0  0  0  0  0  0  0  0
   -4.5211   -1.4045   -2.2619 P   0  0  0  0  0  0  0  0  0  0  0  0
   -4.2661    0.2452   -2.2436 O   0  0  0  0  0  0  0  0  0  0  0  0
   -6.1415   -1.7771   -1.8462 O   0  0  0  0  0  0  0  0  0  0  0  0
   -4.3932   -1.8860   -3.7193 O   0  0  0  0  0  0  0  0  0  0  0  0
   -3.9377   -0.0968    0.4992 C   0  0  0  0  0  0  0  0  0  0  0  0
   -4.1568    0.9822    1.2931 N   0  0  0  0  0  0  0  0  0  0  0  0
   -3.1412    1.7681    1.6380 C   0  0  0  0  0  0  0  0  0  0  0  0
   -3.3962    2.9425    2.5080 C   0  0  0  0  0  0  0  0  0  0  0  0
   -1.8718    1.4844    1.1899 C   0  0  0  0  0  0  0  0  0  0  0  0
   -0.7941    2.2869    1.5347 O   0  0  0  0  0  0  0  0  0  0  0  0
    2.1011   -2.2992    1.2667 C   0  0  0  0  0  0  0  0  0  0  0  0
    3.2748   -2.9721    1.5319 O   0  0  0  0  0  0  0  0  0  0  0  0
    1.3934   -3.0496    1.9846 O   0  0  0  0  0  0  0  0  0  0  0  0
    4.2432   -1.3880    0.1285 H   0  0  0  0  0  0  0  0  0  0  0  0
    5.2166   -0.5011   -1.8962 H   0  0  0  0  0  0  0  0  0  0  0  0
    4.1820    1.0021   -1.7501 H   0  0  0  0  0  0  0  0  0  0  0  0
    7.1316   -0.9334    0.5243 H   0  0  0  0  0  0  0  0  0  0  0  0
    5.8245    3.0589   -0.3425 H   0  0  0  0  0  0  0  0  0  0  0  0
    2.0993    0.4885   -0.8547 H   0  0  0  0  0  0  0  0  0  0  0  0
    0.3102    1.0378    0.0168 H   0  0  0  0  0  0  0  0  0  0  0  0
   -0.3041   -0.1204   -1.1561 H   0  0  0  0  0  0  0  0  0  0  0  0
   -1.8601   -1.2328   -1.7743 H   0  0  0  0  0  0  0  0  0  0  0  0
   -1.7316   -2.3732   -0.3367 H   0  0  0  0  0  0  0  0  0  0  0  0
   -4.2146    0.5976   -3.1649 H   0  0  0  0  0  0  0  0  0  0  0  0
   -6.6171   -0.9276   -1.6859 H   0  0  0  0  0  0  0  0  0  0  0  0
   -4.7822   -0.7087    0.2599 H   0  0  0  0  0  0  0  0  0  0  0  0
   -4.3846    2.8422    2.9956 H   0  0  0  0  0  0  0  0  0  0  0  0
   -2.5914    2.9268    3.2758 H   0  0  0  0  0  0  0  0  0  0  0  0
   -3.3303    3.9038    1.9794 H   0  0  0  0  0  0  0  0  0  0  0  0
   -0.4484    2.4149    2.4707 H   0  0  0  0  0  0  0  0  0  0  0  0
    3.5218   -3.8241    1.0089 H   0  0  0  0  0  0  0  0  0  0  0  0
  1  2  1  0
  2  3  1  0
  3  4  1  0
  3  5  1  0
  3  6  2  0
  1  7  2  0
  7  8  1  0
  8  9  2  0
  9 10  1  0
 10 11  1  0
 11 12  2  0
 12 13  1  0
 13 14  1  0
 14 15  1  0
 15 16  1  0
 15 17  1  0
 15 18  2  0
 12 19  1  0
 19 20  2  0
 20 21  1  0
 21 22  1  0
 21 23  2  0
 23 24  1  0
  8 25  1  0
 25 26  1  0
 25 27  2  0
 23 11  1  0
  1 28  1  0
  2 29  1  0
  2 30  1  0
  4 31  1  0
  5 32  1  0
  7 33  1  0
 10 34  1  0
 10 35  1  0
 13 36  1  0
 13 37  1  0
 16 38  1  0
 17 39  1  0
 19 40  1  0
 22 41  1  0
 22 42  1  0
 22 43  1  0
 24 44  1  0
 26 45  1  0
M  END
$$$$
