
     RDKit          3D

 46 47  0  0  0  0  0  0  0  0999 V2000
   -4.0624   -0.5608    0.4809 C   0  0  0  0  0  0  0  0  0  0  0  0
   -3.2575    0.6585    0.8876 C   0  0  0  0  0  0  0  0  0  0  0  0
   -3.3954    1.7398   -0.1230 C   0  0  0  0  0  0  0  0  0  0  0  0
   -3.8325    1.1563    2.1971 C   0  0  0  0  0  0  0  0  0  0  0  0
   -1.8377    0.2272    1.1452 C   0  0  0  0  0  0  0  0  0  0  0  0
   -1.1718   -0.3676   -0.0009 C   0  0  0  0  0  0  0  0  0  0  0  0
   -1.8432   -0.6066   -1.0251 O   0  0  0  0  0  0  0  0  0  0  0  0
    0.1978   -0.6985    0.0150 N   0  0  0  0  0  0  0  0  0  0  0  0
    1.1645   -0.2740    0.9501 C   0  0  0  0  0  0  0  0  0  0  0  0
    2.0833    0.8315    0.6655 C   0  0  0  0  0  0  0  0  0  0  0  0
    3.4670    0.4797    0.6058 C   0  0  0  0  0  0  0  0  0  0  0  0
    4.4585    1.3900    0.4125 C   0  0  0  0  0  0  0  0  0  0  0  0
    4.1961    2.7345    0.2582 C   0  0  0  0  0  0  0  0  0  0  0  0
    5.4887    3.8950    0.0117 Cl  0  0  0  0  0  0  0  0  0  0  0  0
    2.8831    3.1031    0.3094 C   0  0  0  0  0  0  0  0  0  0  0  0
    1.8499    2.1570    0.5098 C   0  0  0  0  0  0  0  0  0  0  0  0
    0.2178    2.7796    0.5058 Cl  0  0  0  0  0  0  0  0  0  0  0  0
    0.5994   -1.6254   -1.0309 C   0  0  1  0  0  0  0  0  0  0  0  0
    1.5510   -1.0684   -2.0578 C   0  0  0  0  0  0  0  0  0  0  0  0
    1.7723   -2.3831   -2.8529 C   0  0  0  0  0  0  0  0  0  0  0  0
    1.7010   -3.4387   -1.8721 N   0  0  0  0  0  0  0  0  0  0  0  0
    1.3177   -2.8387   -0.5915 C   0  0  0  0  0  0  0  0  0  0  0  0
   -3.6238   -1.4860    0.9584 H   0  0  0  0  0  0  0  0  0  0  0  0
   -4.1569   -0.6758   -0.6131 H   0  0  0  0  0  0  0  0  0  0  0  0
   -5.1062   -0.5139    0.8873 H   0  0  0  0  0  0  0  0  0  0  0  0
   -3.5237    2.7547    0.3122 H   0  0  0  0  0  0  0  0  0  0  0  0
   -2.5855    1.7946   -0.8716 H   0  0  0  0  0  0  0  0  0  0  0  0
   -4.3392    1.5421   -0.7104 H   0  0  0  0  0  0  0  0  0  0  0  0
   -4.3387    0.3214    2.7641 H   0  0  0  0  0  0  0  0  0  0  0  0
   -3.0274    1.5197    2.8721 H   0  0  0  0  0  0  0  0  0  0  0  0
   -4.5855    1.9569    2.0377 H   0  0  0  0  0  0  0  0  0  0  0  0
   -1.9617   -0.6849    1.8762 H   0  0  0  0  0  0  0  0  0  0  0  0
   -1.2711    0.9046    1.7776 H   0  0  0  0  0  0  0  0  0  0  0  0
    1.7122   -1.1875    1.3149 H   0  0  0  0  0  0  0  0  0  0  0  0
    0.5592   -0.0015    1.9029 H   0  0  0  0  0  0  0  0  0  0  0  0
    3.6972   -0.5711    0.7231 H   0  0  0  0  0  0  0  0  0  0  0  0
    5.5117    1.1011    0.3686 H   0  0  0  0  0  0  0  0  0  0  0  0
    2.6258    4.1452    0.1949 H   0  0  0  0  0  0  0  0  0  0  0  0
   -0.2865   -1.9560   -1.6519 H   0  0  0  0  0  0  0  0  0  0  0  0
    1.0817   -0.2988   -2.7070 H   0  0  0  0  0  0  0  0  0  0  0  0
    2.5178   -0.7534   -1.6606 H   0  0  0  0  0  0  0  0  0  0  0  0
    0.9329   -2.4462   -3.5842 H   0  0  0  0  0  0  0  0  0  0  0  0
    2.7252   -2.3765   -3.3797 H   0  0  0  0  0  0  0  0  0  0  0  0
    0.9732   -4.1271   -2.1746 H   0  0  0  0  0  0  0  0  0  0  0  0
    0.7040   -3.5821   -0.0643 H   0  0  0  0  0  0  0  0  0  0  0  0
    2.2172   -2.6696    0.0267 H   0  0  0  0  0  0  0  0  0  0  0  0
  1  2  1  0
  2  3  1  0
  2  4  1  0
  2  5  1  0
  5  6  1  0
  6  7  2  0
  6  8  1  0
  8  9  1  0
  9 10  1  0
 10 11  2  0
 11 12  1  0
 12 13  2  0
 13 14  1  0
 13 15  1  0
 15 16  2  0
 16 17  1  0
  8 18  1  0
 18 19  1  0
 19 20  1  0
 20 21  1  0
 21 22  1  0
 16 10  1  0
 22 18  1  0
  1 23  1  0
  1 24  1  0
  1 25  1  0
  3 26  1  0
  3 27  1  0
  3 28  1  0
  4 29  1  0
  4 30  1  0
  4 31  1  0
  5 32  1  0
  5 33  1  0
  9 34  1  0
  9 35  1  0
 11 36  1  0
 12 37  1  0
 15 38  1  0
 18 39  1  6
 19 40  1  0
 19 41  1  0
 20 42  1  0
 20 43  1  0
 21 44  1  0
 22 45  1  0
 22 46  1  0
M  END
$$$$
