
     RDKit          3D

 46 49  0  0  0  0  0  0  0  0999 V2000
    3.9630   -2.6115   -0.7589 C   0  0  0  0  0  0  0  0  0  0  0  0
    4.5213   -1.2624   -1.0186 C   0  0  0  0  0  0  0  0  0  0  0  0
    5.7554   -1.1851   -1.6649 C   0  0  0  0  0  0  0  0  0  0  0  0
    6.2651    0.0675   -1.9015 C   0  0  0  0  0  0  0  0  0  0  0  0
    7.5362    0.2664   -2.5642 C   0  0  0  0  0  0  0  0  0  0  0  0
    8.5642    0.4109   -3.1128 N   0  0  0  0  0  0  0  0  0  0  0  0
    5.5444    1.1691   -1.4957 C   0  0  0  0  0  0  0  0  0  0  0  0
    4.3596    1.0608   -0.8761 N   0  0  0  0  0  0  0  0  0  0  0  0
    3.8211   -0.1710   -0.6238 C   0  0  0  0  0  0  0  0  0  0  0  0
    2.5379   -0.2854    0.0474 C   0  0  0  0  0  0  0  0  0  0  0  0
    2.0693   -1.4245    0.2657 O   0  0  0  0  0  0  0  0  0  0  0  0
    1.7710    0.8196    0.4773 N   0  0  0  0  0  0  0  0  0  0  0  0
    0.5144    0.7228    1.1350 C   0  0  0  0  0  0  0  0  0  0  0  0
    0.4347    0.6478    2.5186 C   0  0  0  0  0  0  0  0  0  0  0  0
   -0.7745    0.5534    3.1757 C   0  0  0  0  0  0  0  0  0  0  0  0
   -1.9629    0.5303    2.4646 C   0  0  0  0  0  0  0  0  0  0  0  0
   -3.1478    0.4353    3.1110 F   0  0  0  0  0  0  0  0  0  0  0  0
   -1.8966    0.6034    1.1047 C   0  0  0  0  0  0  0  0  0  0  0  0
   -3.1603    0.5840    0.3019 C   0  0  1  0  0  0  0  0  0  0  0  0
   -3.8696    1.8855    0.6603 C   0  0  0  0  0  0  0  0  0  0  0  0
   -5.0690    2.0290   -0.0096 F   0  0  0  0  0  0  0  0  0  0  0  0
   -3.0417    2.8998    0.1564 F   0  0  0  0  0  0  0  0  0  0  0  0
   -2.8491    0.6680   -1.1035 N   0  0  0  0  0  0  0  0  0  0  0  0
   -3.7281    0.3000   -1.9626 C   0  0  0  0  0  0  0  0  0  0  0  0
   -3.5073    0.3496   -3.3797 N   0  0  0  0  0  0  0  0  0  0  0  0
   -4.9510   -0.1679   -1.4271 O   0  0  0  0  0  0  0  0  0  0  0  0
   -4.9163   -1.0824   -0.3338 C   0  0  2  0  0  0  0  0  0  0  0  0
   -5.3573   -0.6108    1.0128 C   0  0  0  0  0  0  0  0  0  0  0  0
   -3.9098   -0.6407    0.6940 C   0  0  2  0  0  0  0  0  0  0  0  0
   -0.6752    0.6990    0.4364 C   0  0  0  0  0  0  0  0  0  0  0  0
    3.8854   -2.8536    0.3258 H   0  0  0  0  0  0  0  0  0  0  0  0
    4.6830   -3.3577   -1.1596 H   0  0  0  0  0  0  0  0  0  0  0  0
    3.0189   -2.8105   -1.3223 H   0  0  0  0  0  0  0  0  0  0  0  0
    6.3087   -2.0597   -1.9772 H   0  0  0  0  0  0  0  0  0  0  0  0
    5.9399    2.1615   -1.6788 H   0  0  0  0  0  0  0  0  0  0  0  0
    2.1595    1.7702    0.2965 H   0  0  0  0  0  0  0  0  0  0  0  0
    1.3636    0.6661    3.0712 H   0  0  0  0  0  0  0  0  0  0  0  0
   -0.8582    0.4943    4.2473 H   0  0  0  0  0  0  0  0  0  0  0  0
   -3.9471    2.0695    1.7299 H   0  0  0  0  0  0  0  0  0  0  0  0
   -2.9832   -0.4610   -3.7872 H   0  0  0  0  0  0  0  0  0  0  0  0
   -3.8571    1.1537   -3.9454 H   0  0  0  0  0  0  0  0  0  0  0  0
   -4.9932   -2.1544   -0.6121 H   0  0  0  0  0  0  0  0  0  0  0  0
   -5.9345    0.2968    1.1758 H   0  0  0  0  0  0  0  0  0  0  0  0
   -5.7062   -1.4393    1.7013 H   0  0  0  0  0  0  0  0  0  0  0  0
   -3.3042   -1.4937    1.0926 H   0  0  0  0  0  0  0  0  0  0  0  0
   -0.6164    0.7571   -0.6396 H   0  0  0  0  0  0  0  0  0  0  0  0
  1  2  1  0
  2  3  2  0
  3  4  1  0
  4  5  1  0
  5  6  3  0
  4  7  2  0
  7  8  1  0
  8  9  2  0
  9 10  1  0
 10 11  2  0
 10 12  1  0
 12 13  1  0
 13 14  2  0
 14 15  1  0
 15 16  2  0
 16 17  1  0
 16 18  1  0
 18 19  1  0
 19 20  1  1
 20 21  1  0
 20 22  1  0
 19 23  1  0
 23 24  2  0
 24 25  1  0
 24 26  1  0
 26 27  1  0
 27 28  1  0
 28 29  1  0
 18 30  2  0
  9  2  1  0
 30 13  1  0
 29 19  1  0
 29 27  1  0
  1 31  1  0
  1 32  1  0
  1 33  1  0
  3 34  1  0
  7 35  1  0
 12 36  1  0
 14 37  1  0
 15 38  1  0
 20 39  1  0
 25 40  1  0
 25 41  1  0
 27 42  1  6
 28 43  1  0
 28 44  1  0
 29 45  1  1
 30 46  1  0
M  END
$$$$
