
     RDKit          3D

 47 48  0  0  0  0  0  0  0  0999 V2000
    4.9631   -0.9527   -2.9798 C   0  0  0  0  0  0  0  0  0  0  0  0
    4.0204   -0.7062   -1.9567 O   0  0  0  0  0  0  0  0  0  0  0  0
    4.4847   -0.6062   -0.6591 C   0  0  0  0  0  0  0  0  0  0  0  0
    5.8463   -0.7468   -0.3837 C   0  0  0  0  0  0  0  0  0  0  0  0
    6.2460   -0.6340    0.9504 C   0  0  0  0  0  0  0  0  0  0  0  0
    5.3548   -0.3941    1.9741 C   0  0  0  0  0  0  0  0  0  0  0  0
    5.8078   -0.2960    3.2445 F   0  0  0  0  0  0  0  0  0  0  0  0
    4.0081   -0.2618    1.6470 C   0  0  0  0  0  0  0  0  0  0  0  0
    3.5717   -0.3661    0.3435 C   0  0  0  0  0  0  0  0  0  0  0  0
    2.1539   -0.2290   -0.0188 C   0  0  0  0  0  0  0  0  0  0  0  0
    1.2551    0.0288    1.1374 C   0  0  0  0  0  0  0  0  0  0  0  0
   -0.1680    0.1470    0.6998 C   0  0  0  0  0  0  0  0  0  0  0  0
   -0.4564    1.2402   -0.2687 C   0  0  0  0  0  0  0  0  0  0  0  0
   -1.9271    1.2566   -0.6108 C   0  0  0  0  0  0  0  0  0  0  0  0
   -2.3147   -0.0377   -1.2275 C   0  0  0  0  0  0  0  0  0  0  0  0
   -3.2774   -0.6228   -0.1918 C   0  0  0  0  0  0  0  0  0  0  0  0
   -3.7706    0.6122    0.4816 C   0  0  0  0  0  0  0  0  0  0  0  0
   -4.9722    1.2257   -0.2118 C   0  0  0  0  0  0  0  0  0  0  0  0
   -6.1302    0.2597   -0.2500 C   0  0  0  0  0  0  0  0  0  0  0  0
   -6.5442   -0.1264    1.0851 N   0  0  0  0  0  0  0  0  0  0  0  0
   -2.6963    1.4574    0.5174 O   0  0  0  0  0  0  0  0  0  0  0  0
    5.5651   -1.8754   -2.7675 H   0  0  0  0  0  0  0  0  0  0  0  0
    4.5080   -1.0874   -3.9663 H   0  0  0  0  0  0  0  0  0  0  0  0
    5.6924   -0.1097   -2.9805 H   0  0  0  0  0  0  0  0  0  0  0  0
    6.5610   -0.9353   -1.1723 H   0  0  0  0  0  0  0  0  0  0  0  0
    7.2872   -0.7433    1.1466 H   0  0  0  0  0  0  0  0  0  0  0  0
    3.3085   -0.0747    2.4402 H   0  0  0  0  0  0  0  0  0  0  0  0
    2.0664    0.6474   -0.7260 H   0  0  0  0  0  0  0  0  0  0  0  0
    1.8498   -1.1194   -0.6123 H   0  0  0  0  0  0  0  0  0  0  0  0
    1.2923   -0.8208    1.8704 H   0  0  0  0  0  0  0  0  0  0  0  0
    1.6178    0.9450    1.6538 H   0  0  0  0  0  0  0  0  0  0  0  0
   -0.4722   -0.8268    0.2663 H   0  0  0  0  0  0  0  0  0  0  0  0
   -0.8365    0.3183    1.5967 H   0  0  0  0  0  0  0  0  0  0  0  0
   -0.1077    2.2340    0.0823 H   0  0  0  0  0  0  0  0  0  0  0  0
    0.1557    1.0415   -1.1965 H   0  0  0  0  0  0  0  0  0  0  0  0
   -2.1364    2.1343   -1.2898 H   0  0  0  0  0  0  0  0  0  0  0  0
   -1.4907   -0.7261   -1.4536 H   0  0  0  0  0  0  0  0  0  0  0  0
   -2.9255    0.1727   -2.1498 H   0  0  0  0  0  0  0  0  0  0  0  0
   -4.0719   -1.2092   -0.6969 H   0  0  0  0  0  0  0  0  0  0  0  0
   -2.7982   -1.2901    0.5224 H   0  0  0  0  0  0  0  0  0  0  0  0
   -4.0907    0.4076    1.5365 H   0  0  0  0  0  0  0  0  0  0  0  0
   -5.3130    2.1141    0.3544 H   0  0  0  0  0  0  0  0  0  0  0  0
   -4.7495    1.5336   -1.2469 H   0  0  0  0  0  0  0  0  0  0  0  0
   -5.9942   -0.5839   -0.9342 H   0  0  0  0  0  0  0  0  0  0  0  0
   -6.9989    0.8469   -0.6693 H   0  0  0  0  0  0  0  0  0  0  0  0
   -5.8652   -0.7715    1.5388 H   0  0  0  0  0  0  0  0  0  0  0  0
   -7.5083   -0.4695    1.1386 H   0  0  0  0  0  0  0  0  0  0  0  0
  1  2  1  0
  2  3  1  0
  3  4  2  0
  4  5  1  0
  5  6  2  0
  6  7  1  0
  6  8  1  0
  8  9  2  0
  9 10  1  0
 10 11  1  0
 11 12  1  0
 12 13  1  0
 13 14  1  0
 14 15  1  0
 15 16  1  0
 16 17  1  0
 17 18  1  0
 18 19  1  0
 19 20  1  0
 17 21  1  0
  9  3  1  0
 21 14  1  0
  1 22  1  0
  1 23  1  0
  1 24  1  0
  4 25  1  0
  5 26  1  0
  8 27  1  0
 10 28  1  0
 10 29  1  0
 11 30  1  0
 11 31  1  0
 12 32  1  0
 12 33  1  0
 13 34  1  0
 13 35  1  0
 14 36  1  0
 15 37  1  0
 15 38  1  0
 16 39  1  0
 16 40  1  0
 17 41  1  0
 18 42  1  0
 18 43  1  0
 19 44  1  0
 19 45  1  0
 20 46  1  0
 20 47  1  0
M  END
$$$$
