
     RDKit          3D

 40 42  0  0  0  0  0  0  0  0999 V2000
    4.4976    0.2073    1.1497 C   0  0  0  0  0  0  0  0  0  0  0  0
    3.1936   -0.2405    0.6162 N   0  0  0  0  0  0  0  0  0  0  0  0
    3.5595   -1.1449   -0.4728 C   0  0  0  0  0  0  0  0  0  0  0  0
    2.5724    0.9573    0.0598 C   0  0  0  0  0  0  0  0  0  0  0  0
    1.1848    0.7366   -0.4431 C   0  0  0  0  0  0  0  0  0  0  0  0
    0.2773    0.2919    0.6795 C   0  0  0  0  0  0  0  0  0  0  0  0
   -1.0922    0.0615    0.2337 N   0  0  0  0  0  0  0  0  0  0  0  0
   -1.3429   -1.1605   -0.4542 C   0  0  0  0  0  0  0  0  0  0  0  0
   -0.3038   -2.0873   -0.6343 C   0  0  0  0  0  0  0  0  0  0  0  0
   -0.4862   -3.2896   -1.2863 C   0  0  0  0  0  0  0  0  0  0  0  0
   -1.7090   -3.6377   -1.7946 C   0  0  0  0  0  0  0  0  0  0  0  0
   -2.7299   -2.7504   -1.6286 C   0  0  0  0  0  0  0  0  0  0  0  0
   -2.5446   -1.5563   -0.9796 C   0  0  0  0  0  0  0  0  0  0  0  0
   -3.9569   -0.4546   -0.7989 S   0  0  0  0  0  0  0  0  0  0  0  0
   -3.3762    0.9549    0.0754 C   0  0  0  0  0  0  0  0  0  0  0  0
   -4.2621    1.9381    0.3287 C   0  0  0  0  0  0  0  0  0  0  0  0
   -3.9514    3.1096    0.9958 C   0  0  0  0  0  0  0  0  0  0  0  0
   -2.6446    3.2278    1.4044 C   0  0  0  0  0  0  0  0  0  0  0  0
   -2.1351    4.6754    2.2622 Cl  0  0  0  0  0  0  0  0  0  0  0  0
   -1.7055    2.2227    1.1543 C   0  0  0  0  0  0  0  0  0  0  0  0
   -2.0695    1.0598    0.4780 C   0  0  0  0  0  0  0  0  0  0  0  0
    4.9098    0.9312    0.4352 H   0  0  0  0  0  0  0  0  0  0  0  0
    5.1529   -0.6876    1.1593 H   0  0  0  0  0  0  0  0  0  0  0  0
    4.3753    0.5931    2.1785 H   0  0  0  0  0  0  0  0  0  0  0  0
    3.8890   -2.0874    0.0023 H   0  0  0  0  0  0  0  0  0  0  0  0
    4.4500   -0.6842   -0.9692 H   0  0  0  0  0  0  0  0  0  0  0  0
    2.7630   -1.3207   -1.1952 H   0  0  0  0  0  0  0  0  0  0  0  0
    2.5758    1.7451    0.8287 H   0  0  0  0  0  0  0  0  0  0  0  0
    3.2426    1.3047   -0.7537 H   0  0  0  0  0  0  0  0  0  0  0  0
    0.7997    1.7563   -0.7664 H   0  0  0  0  0  0  0  0  0  0  0  0
    1.0923    0.1235   -1.3328 H   0  0  0  0  0  0  0  0  0  0  0  0
    0.7069   -0.6332    1.1919 H   0  0  0  0  0  0  0  0  0  0  0  0
    0.3312    1.0156    1.5162 H   0  0  0  0  0  0  0  0  0  0  0  0
    0.6781   -1.8408   -0.2286 H   0  0  0  0  0  0  0  0  0  0  0  0
    0.3419   -3.9748   -1.4048 H   0  0  0  0  0  0  0  0  0  0  0  0
   -1.8634   -4.5954   -2.3174 H   0  0  0  0  0  0  0  0  0  0  0  0
   -3.7291   -2.9787   -2.0152 H   0  0  0  0  0  0  0  0  0  0  0  0
   -5.3158    1.8681    0.0110 H   0  0  0  0  0  0  0  0  0  0  0  0
   -4.6550    3.9019    1.2028 H   0  0  0  0  0  0  0  0  0  0  0  0
   -0.7206    2.4423    1.5122 H   0  0  0  0  0  0  0  0  0  0  0  0
  1  2  1  0
  2  3  1  0
  2  4  1  0
  4  5  1  0
  5  6  1  0
  6  7  1  0
  7  8  1  0
  8  9  2  0
  9 10  1  0
 10 11  2  0
 11 12  1  0
 12 13  2  0
 13 14  1  0
 14 15  1  0
 15 16  2  0
 16 17  1  0
 17 18  2  0
 18 19  1  0
 18 20  1  0
 20 21  2  0
 21  7  1  0
 13  8  1  0
 21 15  1  0
  1 22  1  0
  1 23  1  0
  1 24  1  0
  3 25  1  0
  3 26  1  0
  3 27  1  0
  4 28  1  0
  4 29  1  0
  5 30  1  0
  5 31  1  0
  6 32  1  0
  6 33  1  0
  9 34  1  0
 10 35  1  0
 11 36  1  0
 12 37  1  0
 16 38  1  0
 17 39  1  0
 20 40  1  0
M  END
$$$$
