
     RDKit          3D

 59 62  0  0  0  0  0  0  0  0999 V2000
   -9.5607   -3.1542    0.6181 F   0  0  0  0  0  0  0  0  0  0  0  0
   -8.3108   -2.6346    0.5031 C   0  0  0  0  0  0  0  0  0  0  0  0
   -8.0946   -1.8231   -0.5742 C   0  0  0  0  0  0  0  0  0  0  0  0
   -9.3263   -1.4589   -1.7506 Cl  0  0  0  0  0  0  0  0  0  0  0  0
   -6.8602   -1.2605   -0.7568 C   0  0  0  0  0  0  0  0  0  0  0  0
   -5.7744   -1.4487    0.0836 C   0  0  0  0  0  0  0  0  0  0  0  0
   -4.4839   -0.8903   -0.0429 N   0  0  0  0  0  0  0  0  0  0  0  0
   -3.2757   -1.1868    0.6055 C   0  0  0  0  0  0  0  0  0  0  0  0
   -3.1629   -2.1829    1.4908 N   0  0  0  0  0  0  0  0  0  0  0  0
   -2.0256   -2.4711    2.1150 C   0  0  0  0  0  0  0  0  0  0  0  0
   -0.9108   -1.7687    1.8885 N   0  0  0  0  0  0  0  0  0  0  0  0
   -1.0012   -0.7593    0.9995 C   0  0  0  0  0  0  0  0  0  0  0  0
    0.1702   -0.0690    0.8016 C   0  0  0  0  0  0  0  0  0  0  0  0
    0.2682    0.9841   -0.0620 C   0  0  0  0  0  0  0  0  0  0  0  0
    1.2667    1.8028   -0.4246 O   0  0  0  0  0  0  0  0  0  0  0  0
    2.5857    1.9432   -0.1120 C   0  0  0  0  0  0  0  0  0  0  0  0
    3.3671    0.7043   -0.4741 C   0  0  0  0  0  0  0  0  0  0  0  0
    4.8440    0.8586   -0.1769 C   0  0  0  0  0  0  0  0  0  0  0  0
    5.4811   -0.3860   -0.5603 N   0  0  0  0  0  0  0  0  0  0  0  0
    6.9115   -0.3171   -0.4916 C   0  0  0  0  0  0  0  0  0  0  0  0
    7.5954   -1.4220    0.2273 C   0  0  0  0  0  0  0  0  0  0  0  0
    7.0312   -2.6150   -0.2411 O   0  0  0  0  0  0  0  0  0  0  0  0
    5.7798   -2.6751    0.3718 C   0  0  0  0  0  0  0  0  0  0  0  0
    4.8885   -1.5322    0.0506 C   0  0  0  0  0  0  0  0  0  0  0  0
   -0.9134    1.3199   -0.7401 C   0  0  0  0  0  0  0  0  0  0  0  0
   -1.0205    2.3992   -1.6978 N   0  0  0  0  0  0  0  0  0  0  0  0
   -1.3564    3.6062   -1.0312 C   0  0  0  0  0  0  0  0  0  0  0  0
   -1.5022    3.5690    0.2062 O   0  0  0  0  0  0  0  0  0  0  0  0
   -1.5169    4.8297   -1.8051 C   0  0  0  0  0  0  0  0  0  0  0  0
   -1.8208    5.9292   -1.1618 C   0  0  0  0  0  0  0  0  0  0  0  0
   -2.1103    0.6180   -0.5406 C   0  0  0  0  0  0  0  0  0  0  0  0
   -2.1601   -0.4363    0.3391 C   0  0  0  0  0  0  0  0  0  0  0  0
   -6.0355   -2.2760    1.1609 C   0  0  0  0  0  0  0  0  0  0  0  0
   -7.2796   -2.8670    1.3811 C   0  0  0  0  0  0  0  0  0  0  0  0
   -6.6767   -0.6154   -1.6131 H   0  0  0  0  0  0  0  0  0  0  0  0
   -4.5542   -0.1467   -0.7596 H   0  0  0  0  0  0  0  0  0  0  0  0
   -1.9848   -3.3012    2.8345 H   0  0  0  0  0  0  0  0  0  0  0  0
    1.0770   -0.2990    1.3091 H   0  0  0  0  0  0  0  0  0  0  0  0
    3.0174    2.7668   -0.7283 H   0  0  0  0  0  0  0  0  0  0  0  0
    2.7487    2.2206    0.9622 H   0  0  0  0  0  0  0  0  0  0  0  0
    3.0263   -0.2201    0.0024 H   0  0  0  0  0  0  0  0  0  0  0  0
    3.2779    0.5385   -1.5824 H   0  0  0  0  0  0  0  0  0  0  0  0
    5.3219    1.6844   -0.7304 H   0  0  0  0  0  0  0  0  0  0  0  0
    4.9833    1.0943    0.8982 H   0  0  0  0  0  0  0  0  0  0  0  0
    7.2241    0.6943   -0.1651 H   0  0  0  0  0  0  0  0  0  0  0  0
    7.2558   -0.3897   -1.5759 H   0  0  0  0  0  0  0  0  0  0  0  0
    7.5243   -1.2998    1.3060 H   0  0  0  0  0  0  0  0  0  0  0  0
    8.6742   -1.4206   -0.0773 H   0  0  0  0  0  0  0  0  0  0  0  0
    5.3102   -3.6314    0.0662 H   0  0  0  0  0  0  0  0  0  0  0  0
    5.9572   -2.7779    1.4892 H   0  0  0  0  0  0  0  0  0  0  0  0
    4.0410   -1.8746   -0.5902 H   0  0  0  0  0  0  0  0  0  0  0  0
    4.4036   -1.2409    1.0313 H   0  0  0  0  0  0  0  0  0  0  0  0
   -0.9121    2.4956   -2.7289 H   0  0  0  0  0  0  0  0  0  0  0  0
   -1.4161    4.8978   -2.8631 H   0  0  0  0  0  0  0  0  0  0  0  0
   -2.0023    6.2254   -0.1497 H   0  0  0  0  0  0  0  0  0  0  0  0
   -2.0658    6.8594   -0.7144 H   0  0  0  0  0  0  0  0  0  0  0  0
   -2.9921    0.8998   -1.0722 H   0  0  0  0  0  0  0  0  0  0  0  0
   -5.3760   -2.5717    1.9441 H   0  0  0  0  0  0  0  0  0  0  0  0
   -7.5491   -3.5174    2.1948 H   0  0  0  0  0  0  0  0  0  0  0  0
  1  2  1  0
  2  3  2  0
  3  4  1  0
  3  5  1  0
  5  6  2  0
  6  7  1  0
  7  8  1  0
  8  9  2  0
  9 10  1  0
 10 11  2  0
 11 12  1  0
 12 13  2  0
 13 14  1  0
 14 15  1  0
 15 16  1  0
 16 17  1  0
 17 18  1  0
 18 19  1  0
 19 20  1  0
 20 21  1  0
 21 22  1  0
 22 23  1  0
 23 24  1  0
 14 25  2  0
 25 26  1  0
 26 27  1  0
 27 28  2  0
 27 29  1  0
 29 30  2  0
 25 31  1  0
 31 32  2  0
  6 33  1  0
 33 34  2  0
 34  2  1  0
 32  8  1  0
 32 12  1  0
 24 19  1  0
  5 35  1  0
  7 36  1  0
 10 37  1  0
 13 38  1  0
 16 39  1  0
 16 40  1  0
 17 41  1  0
 17 42  1  0
 18 43  1  0
 18 44  1  0
 20 45  1  0
 20 46  1  0
 21 47  1  0
 21 48  1  0
 23 49  1  0
 23 50  1  0
 24 51  1  0
 24 52  1  0
 26 53  1  0
 29 54  1  0
 30 55  1  0
 30 56  1  0
 31 57  1  0
 33 58  1  0
 34 59  1  0
M  END
$$$$
