
     RDKit          3D

 35 37  0  0  0  0  0  0  0  0999 V2000
   -5.7777    1.1170    1.2745 N   0  0  0  0  0  0  0  0  0  0  0  0
   -4.8332    0.8592    0.2012 C   0  0  2  0  0  0  0  0  0  0  0  0
   -5.1645   -0.1225   -0.8605 C   0  0  0  0  0  0  0  0  0  0  0  0
   -4.2484   -0.5480    0.2302 C   0  0  1  0  0  0  0  0  0  0  0  0
   -2.7829   -0.5627    0.0108 C   0  0  0  0  0  0  0  0  0  0  0  0
   -2.1823    0.3006   -0.8783 C   0  0  0  0  0  0  0  0  0  0  0  0
   -0.8066    0.2472   -1.0479 C   0  0  0  0  0  0  0  0  0  0  0  0
   -0.0238   -0.6655   -0.3333 C   0  0  0  0  0  0  0  0  0  0  0  0
    1.4030   -0.6933   -0.5345 N   0  0  0  0  0  0  0  0  0  0  0  0
    2.2474    0.1136    0.2592 C   0  0  0  0  0  0  0  0  0  0  0  0
    1.7265    0.8667    1.1562 O   0  0  0  0  0  0  0  0  0  0  0  0
    3.6879    0.1179    0.0919 C   0  0  0  0  0  0  0  0  0  0  0  0
    4.4560    0.9324    0.9034 C   0  0  0  0  0  0  0  0  0  0  0  0
    5.8202    0.9821    0.7956 C   0  0  0  0  0  0  0  0  0  0  0  0
    6.4728    0.2100   -0.1387 C   0  0  0  0  0  0  0  0  0  0  0  0
    5.7198   -0.6023   -0.9496 C   0  0  0  0  0  0  0  0  0  0  0  0
    4.3385   -0.6502   -0.8377 C   0  0  0  0  0  0  0  0  0  0  0  0
   -0.6392   -1.5231    0.5530 C   0  0  0  0  0  0  0  0  0  0  0  0
   -2.0269   -1.4676    0.7225 C   0  0  0  0  0  0  0  0  0  0  0  0
   -6.4430    0.3230    1.2828 H   0  0  0  0  0  0  0  0  0  0  0  0
   -5.2343    1.2389    2.1466 H   0  0  0  0  0  0  0  0  0  0  0  0
   -4.1744    1.7169   -0.0058 H   0  0  0  0  0  0  0  0  0  0  0  0
   -6.1930   -0.5112   -0.8450 H   0  0  0  0  0  0  0  0  0  0  0  0
   -4.7876    0.0894   -1.8861 H   0  0  0  0  0  0  0  0  0  0  0  0
   -4.6630   -1.2679    0.9579 H   0  0  0  0  0  0  0  0  0  0  0  0
   -2.7455    1.0225   -1.4525 H   0  0  0  0  0  0  0  0  0  0  0  0
   -0.2702    0.8927   -1.7266 H   0  0  0  0  0  0  0  0  0  0  0  0
    1.7759   -1.3153   -1.2685 H   0  0  0  0  0  0  0  0  0  0  0  0
    3.9713    1.5562    1.6533 H   0  0  0  0  0  0  0  0  0  0  0  0
    6.4000    1.6169    1.4304 H   0  0  0  0  0  0  0  0  0  0  0  0
    7.5601    0.2370   -0.2387 H   0  0  0  0  0  0  0  0  0  0  0  0
    6.1585   -1.2460   -1.7160 H   0  0  0  0  0  0  0  0  0  0  0  0
    3.7576   -1.3051   -1.4947 H   0  0  0  0  0  0  0  0  0  0  0  0
   -0.0479   -2.2311    1.1099 H   0  0  0  0  0  0  0  0  0  0  0  0
   -2.4511   -2.1690    1.4347 H   0  0  0  0  0  0  0  0  0  0  0  0
  1  2  1  0
  2  3  1  0
  3  4  1  0
  4  5  1  0
  5  6  2  0
  6  7  1  0
  7  8  2  0
  8  9  1  0
  9 10  1  0
 10 11  2  0
 10 12  1  0
 12 13  2  0
 13 14  1  0
 14 15  2  0
 15 16  1  0
 16 17  2  0
  8 18  1  0
 18 19  2  0
  4  2  1  0
 19  5  1  0
 17 12  1  0
  1 20  1  0
  1 21  1  0
  2 22  1  6
  3 23  1  0
  3 24  1  0
  4 25  1  1
  6 26  1  0
  7 27  1  0
  9 28  1  0
 13 29  1  0
 14 30  1  0
 15 31  1  0
 16 32  1  0
 17 33  1  0
 18 34  1  0
 19 35  1  0
M  END
$$$$
