
     RDKit          3D

 52 56  0  0  0  0  0  0  0  0999 V2000
    3.9852   -2.7286    0.7186 C   0  0  0  0  0  0  0  0  0  0  0  0
    4.2637   -1.2759    0.3544 C   0  0  0  0  0  0  0  0  0  0  0  0
    3.4473   -0.9117   -0.8396 C   0  0  0  0  0  0  0  0  0  0  0  0
    3.8910   -0.7847   -2.0899 N   0  0  0  0  0  0  0  0  0  0  0  0
    2.9218   -0.4531   -2.9220 N   0  0  0  0  0  0  0  0  0  0  0  0
    3.0163   -0.2292   -4.3367 C   0  0  0  0  0  0  0  0  0  0  0  0
    1.7918   -0.3611   -2.1719 C   0  0  0  0  0  0  0  0  0  0  0  0
    2.1150   -0.6453   -0.8710 C   0  0  0  0  0  0  0  0  0  0  0  0
    0.9227   -0.5342    0.0113 C   0  0  0  0  0  0  0  0  0  0  0  0
    1.0632    0.6066    0.9399 C   0  0  0  0  0  0  0  0  0  0  0  0
    1.3574    0.3855    2.2585 C   0  0  0  0  0  0  0  0  0  0  0  0
    1.4992    1.4311    3.1678 C   0  0  0  0  0  0  0  0  0  0  0  0
    1.3323    2.7115    2.6943 C   0  0  0  0  0  0  0  0  0  0  0  0
    1.4943    4.0858    3.7743 Cl  0  0  0  0  0  0  0  0  0  0  0  0
    1.0342    2.9823    1.3693 C   0  0  0  0  0  0  0  0  0  0  0  0
    0.9032    1.8950    0.5007 C   0  0  0  0  0  0  0  0  0  0  0  0
   -0.2000   -0.2379   -0.8746 N   0  0  0  0  0  0  0  0  0  0  0  0
   -1.5498   -0.1187   -0.4384 C   0  0  0  0  0  0  0  0  0  0  0  0
   -2.5668    0.2531   -1.2865 C   0  0  0  0  0  0  0  0  0  0  0  0
   -3.8959    0.3506   -0.8390 C   0  0  0  0  0  0  0  0  0  0  0  0
   -4.9241    0.7204   -1.6721 O   0  0  0  0  0  0  0  0  0  0  0  0
   -4.8401    1.0445   -3.0224 C   0  0  0  0  0  0  0  0  0  0  0  0
   -4.1980    0.0699    0.4761 C   0  0  0  0  0  0  0  0  0  0  0  0
   -5.3362    0.0703    1.1932 N   0  0  0  0  0  0  0  0  0  0  0  0
   -5.0806   -0.2815    2.4414 N   0  0  0  0  0  0  0  0  0  0  0  0
   -3.7599   -0.5083    2.5164 C   0  0  0  0  0  0  0  0  0  0  0  0
   -2.9746   -0.9311    3.7160 C   0  0  0  0  0  0  0  0  0  0  0  0
   -3.2090   -0.2930    1.3054 N   0  0  0  0  0  0  0  0  0  0  0  0
   -1.9191   -0.3854    0.8617 C   0  0  0  0  0  0  0  0  0  0  0  0
    0.3559   -0.1064   -2.1681 C   0  0  0  0  0  0  0  0  0  0  0  0
   -0.3081    0.1968   -3.2078 O   0  0  0  0  0  0  0  0  0  0  0  0
    3.2904   -3.1767   -0.0374 H   0  0  0  0  0  0  0  0  0  0  0  0
    3.4858   -2.7892    1.7008 H   0  0  0  0  0  0  0  0  0  0  0  0
    4.9090   -3.3478    0.6716 H   0  0  0  0  0  0  0  0  0  0  0  0
    4.0294   -0.5954    1.1894 H   0  0  0  0  0  0  0  0  0  0  0  0
    5.3513   -1.2072    0.1187 H   0  0  0  0  0  0  0  0  0  0  0  0
    2.8385   -1.1245   -4.9441 H   0  0  0  0  0  0  0  0  0  0  0  0
    4.0767    0.0961   -4.5344 H   0  0  0  0  0  0  0  0  0  0  0  0
    2.3598    0.6135   -4.6339 H   0  0  0  0  0  0  0  0  0  0  0  0
    0.7530   -1.4853    0.5621 H   0  0  0  0  0  0  0  0  0  0  0  0
    1.4865   -0.6364    2.6184 H   0  0  0  0  0  0  0  0  0  0  0  0
    1.7311    1.2668    4.2096 H   0  0  0  0  0  0  0  0  0  0  0  0
    0.9052    3.9833    1.0064 H   0  0  0  0  0  0  0  0  0  0  0  0
    0.6701    2.1475   -0.5250 H   0  0  0  0  0  0  0  0  0  0  0  0
   -2.3685    0.4831   -2.3274 H   0  0  0  0  0  0  0  0  0  0  0  0
   -5.5606    1.8919   -3.2087 H   0  0  0  0  0  0  0  0  0  0  0  0
   -5.2002    0.2168   -3.6815 H   0  0  0  0  0  0  0  0  0  0  0  0
   -3.8668    1.3811   -3.3763 H   0  0  0  0  0  0  0  0  0  0  0  0
   -2.6608   -1.9770    3.6048 H   0  0  0  0  0  0  0  0  0  0  0  0
   -3.6192   -0.7667    4.5972 H   0  0  0  0  0  0  0  0  0  0  0  0
   -2.0765   -0.3017    3.8612 H   0  0  0  0  0  0  0  0  0  0  0  0
   -1.1665   -0.6896    1.5691 H   0  0  0  0  0  0  0  0  0  0  0  0
  1  2  1  0
  2  3  1  0
  3  4  2  0
  4  5  1  0
  5  6  1  0
  5  7  1  0
  7  8  2  0
  8  9  1  0
  9 10  1  0
 10 11  2  0
 11 12  1  0
 12 13  2  0
 13 14  1  0
 13 15  1  0
 15 16  2  0
  9 17  1  0
 17 18  1  0
 18 19  1  0
 19 20  2  0
 20 21  1  0
 21 22  1  0
 20 23  1  0
 23 24  2  0
 24 25  1  0
 25 26  2  0
 26 27  1  0
 26 28  1  0
 28 29  1  0
 17 30  1  0
 30 31  2  0
  8  3  1  0
 16 10  1  0
 29 18  2  0
 30  7  1  0
 28 23  1  0
  1 32  1  0
  1 33  1  0
  1 34  1  0
  2 35  1  0
  2 36  1  0
  6 37  1  0
  6 38  1  0
  6 39  1  0
  9 40  1  0
 11 41  1  0
 12 42  1  0
 15 43  1  0
 16 44  1  0
 19 45  1  0
 22 46  1  0
 22 47  1  0
 22 48  1  0
 27 49  1  0
 27 50  1  0
 27 51  1  0
 29 52  1  0
M  END
$$$$
