
     RDKit          3D

 41 43  0  0  0  0  0  0  0  0999 V2000
   -2.2527   -0.2662   -0.5647 C   0  0  1  0  0  0  0  0  0  0  0  0
   -2.8053    0.5260    0.5920 C   0  0  0  0  0  0  0  0  0  0  0  0
   -2.2266    1.8934    0.7037 C   0  0  0  0  0  0  0  0  0  0  0  0
   -0.9552    2.2086    0.3772 C   0  0  0  0  0  0  0  0  0  0  0  0
   -0.4561    3.5662    0.7711 C   0  0  0  0  0  0  0  0  0  0  0  0
   -0.2748    1.0840   -0.3448 C   0  0  2  0  0  0  0  0  0  0  0  0
   -1.3004    0.6067   -1.3423 C   0  0  0  0  0  0  0  0  0  0  0  0
    0.1960    0.0371    0.5889 C   0  0  1  0  0  0  0  0  0  0  0  0
   -0.2620   -1.2254    0.4198 O   0  0  0  0  0  0  0  0  0  0  0  0
   -1.4623   -1.4612   -0.1232 C   0  0  0  0  0  0  0  0  0  0  0  0
   -2.2993   -2.2565    0.8816 C   0  0  0  0  0  0  0  0  0  0  0  0
   -1.2995   -2.3788   -1.3180 C   0  0  0  0  0  0  0  0  0  0  0  0
    1.6941   -0.0520    0.4743 C   0  0  0  0  0  0  0  0  0  0  0  0
    2.1215   -0.8359   -0.5966 C   0  0  0  0  0  0  0  0  0  0  0  0
    3.4597   -1.0433   -0.8738 C   0  0  0  0  0  0  0  0  0  0  0  0
    4.4111   -0.4503   -0.0571 C   0  0  0  0  0  0  0  0  0  0  0  0
    5.7681   -0.6322   -0.2994 O   0  0  0  0  0  0  0  0  0  0  0  0
    3.9731    0.3213    0.9968 C   0  0  0  0  0  0  0  0  0  0  0  0
    2.6346    0.5240    1.2676 C   0  0  0  0  0  0  0  0  0  0  0  0
   -3.0487   -0.6261   -1.2523 H   0  0  0  0  0  0  0  0  0  0  0  0
   -2.6812   -0.0427    1.5455 H   0  0  0  0  0  0  0  0  0  0  0  0
   -3.9039    0.6309    0.4550 H   0  0  0  0  0  0  0  0  0  0  0  0
   -2.8699    2.7101    1.0765 H   0  0  0  0  0  0  0  0  0  0  0  0
    0.6208    3.6206    0.5353 H   0  0  0  0  0  0  0  0  0  0  0  0
   -0.6255    3.7666    1.8401 H   0  0  0  0  0  0  0  0  0  0  0  0
   -1.0103    4.3437    0.1707 H   0  0  0  0  0  0  0  0  0  0  0  0
    0.5527    1.5184   -0.9505 H   0  0  0  0  0  0  0  0  0  0  0  0
   -0.8567    0.1006   -2.2094 H   0  0  0  0  0  0  0  0  0  0  0  0
   -1.8694    1.4775   -1.7274 H   0  0  0  0  0  0  0  0  0  0  0  0
   -0.0021    0.3603    1.6324 H   0  0  0  0  0  0  0  0  0  0  0  0
   -2.2134   -3.3637    0.7005 H   0  0  0  0  0  0  0  0  0  0  0  0
   -1.9037   -2.1238    1.9277 H   0  0  0  0  0  0  0  0  0  0  0  0
   -3.3649   -2.0036    0.8306 H   0  0  0  0  0  0  0  0  0  0  0  0
   -0.7469   -1.9361   -2.1511 H   0  0  0  0  0  0  0  0  0  0  0  0
   -0.7730   -3.3094   -0.9977 H   0  0  0  0  0  0  0  0  0  0  0  0
   -2.2890   -2.7070   -1.6655 H   0  0  0  0  0  0  0  0  0  0  0  0
    1.4353   -1.3353   -1.2837 H   0  0  0  0  0  0  0  0  0  0  0  0
    3.8076   -1.6466   -1.6978 H   0  0  0  0  0  0  0  0  0  0  0  0
    6.1532   -1.5063    0.0801 H   0  0  0  0  0  0  0  0  0  0  0  0
    4.6911    0.7903    1.6425 H   0  0  0  0  0  0  0  0  0  0  0  0
    2.2342    1.1162    2.0763 H   0  0  0  0  0  0  0  0  0  0  0  0
  1  2  1  0
  2  3  1  0
  3  4  2  0
  4  5  1  0
  4  6  1  0
  6  7  1  0
  6  8  1  0
  8  9  1  0
  9 10  1  0
 10 11  1  0
 10 12  1  0
  8 13  1  0
 13 14  2  0
 14 15  1  0
 15 16  2  0
 16 17  1  0
 16 18  1  0
 18 19  2  0
  7  1  1  0
 19 13  1  0
 10  1  1  0
  1 20  1  6
  2 21  1  0
  2 22  1  0
  3 23  1  0
  5 24  1  0
  5 25  1  0
  5 26  1  0
  6 27  1  6
  7 28  1  0
  7 29  1  0
  8 30  1  1
 11 31  1  0
 11 32  1  0
 11 33  1  0
 12 34  1  0
 12 35  1  0
 12 36  1  0
 14 37  1  0
 15 38  1  0
 17 39  1  0
 18 40  1  0
 19 41  1  0
M  END
$$$$
