
     RDKit          3D

 55 57  0  0  0  0  0  0  0  0999 V2000
   -4.1842   -2.9750   -1.7035 C   0  0  0  0  0  0  0  0  0  0  0  0
   -4.2931   -1.6835   -0.9677 N   0  0  0  0  0  0  0  0  0  0  0  0
   -3.2794   -0.7497   -1.1798 C   0  0  0  0  0  0  0  0  0  0  0  0
   -1.9721   -0.9480   -0.4198 C   0  0  0  0  0  0  0  0  0  0  0  0
   -1.5123   -2.2178   -0.8687 O   0  0  0  0  0  0  0  0  0  0  0  0
   -0.9543    0.0452   -0.9154 C   0  0  0  0  0  0  0  0  0  0  0  0
    0.3510   -0.2624   -0.4575 N   0  0  0  0  0  0  0  0  0  0  0  0
    1.4981    0.5503   -0.7718 C   0  0  0  0  0  0  0  0  0  0  0  0
    1.3263    1.5692   -1.4791 O   0  0  0  0  0  0  0  0  0  0  0  0
    2.8179    0.1877   -0.2749 C   0  0  0  0  0  0  0  0  0  0  0  0
    3.1622   -0.8904    0.5081 C   0  0  0  0  0  0  0  0  0  0  0  0
    4.4755   -0.8246    0.7184 N   0  0  0  0  0  0  0  0  0  0  0  0
    5.0135    0.2334    0.1194 N   0  0  0  0  0  0  0  0  0  0  0  0
    6.3766    0.6478    0.1074 C   0  0  0  0  0  0  0  0  0  0  0  0
    6.8589    1.6110    0.9738 C   0  0  0  0  0  0  0  0  0  0  0  0
    8.1800    2.0053    0.9549 C   0  0  0  0  0  0  0  0  0  0  0  0
    9.0847    1.4577    0.0702 C   0  0  0  0  0  0  0  0  0  0  0  0
   10.3908    1.8516    0.0552 F   0  0  0  0  0  0  0  0  0  0  0  0
    8.6107    0.4959   -0.7975 C   0  0  0  0  0  0  0  0  0  0  0  0
    7.2883    0.1040   -0.7756 C   0  0  0  0  0  0  0  0  0  0  0  0
    3.9992    0.8630   -0.4951 C   0  0  0  0  0  0  0  0  0  0  0  0
    4.1484    2.0505   -1.2551 N   0  0  0  0  0  0  0  0  0  0  0  0
   -2.0925   -0.9769    1.0420 C   0  0  0  0  0  0  0  0  0  0  0  0
   -2.9055   -1.9942    1.5122 F   0  0  0  0  0  0  0  0  0  0  0  0
   -2.6934    0.2229    1.4397 F   0  0  0  0  0  0  0  0  0  0  0  0
   -0.8962   -1.1322    1.7111 F   0  0  0  0  0  0  0  0  0  0  0  0
   -5.3790   -1.5897   -0.1028 C   0  0  0  0  0  0  0  0  0  0  0  0
   -6.1971   -2.5674    0.0783 O   0  0  0  0  0  0  0  0  0  0  0  0
   -5.7109   -0.4139    0.6656 C   0  0  0  0  0  0  0  0  0  0  0  0
   -6.0278    0.7572    0.0085 C   0  0  0  0  0  0  0  0  0  0  0  0
   -6.0532    0.7837   -1.3571 F   0  0  0  0  0  0  0  0  0  0  0  0
   -6.3572    1.9111    0.6490 C   0  0  0  0  0  0  0  0  0  0  0  0
   -6.3804    1.9242    2.0189 C   0  0  0  0  0  0  0  0  0  0  0  0
   -6.0730    0.7785    2.7161 C   0  0  0  0  0  0  0  0  0  0  0  0
   -5.7369   -0.3972    2.0375 C   0  0  0  0  0  0  0  0  0  0  0  0
   -5.4671   -1.5146    2.7608 F   0  0  0  0  0  0  0  0  0  0  0  0
   -4.1266   -3.8134   -1.0021 H   0  0  0  0  0  0  0  0  0  0  0  0
   -5.0771   -3.0074   -2.3630 H   0  0  0  0  0  0  0  0  0  0  0  0
   -3.2989   -2.9979   -2.3462 H   0  0  0  0  0  0  0  0  0  0  0  0
   -3.0179   -0.7103   -2.2818 H   0  0  0  0  0  0  0  0  0  0  0  0
   -3.5430    0.3221   -0.9606 H   0  0  0  0  0  0  0  0  0  0  0  0
   -1.1601   -2.7387   -0.1072 H   0  0  0  0  0  0  0  0  0  0  0  0
   -0.9420   -0.0408   -2.0448 H   0  0  0  0  0  0  0  0  0  0  0  0
   -1.2708    1.0943   -0.6945 H   0  0  0  0  0  0  0  0  0  0  0  0
    0.5690   -1.0968    0.1159 H   0  0  0  0  0  0  0  0  0  0  0  0
    2.4355   -1.6290    0.8583 H   0  0  0  0  0  0  0  0  0  0  0  0
    6.1483    2.0564    1.6851 H   0  0  0  0  0  0  0  0  0  0  0  0
    8.5469    2.7695    1.6473 H   0  0  0  0  0  0  0  0  0  0  0  0
    9.3266    0.0716   -1.4876 H   0  0  0  0  0  0  0  0  0  0  0  0
    6.9170   -0.6610   -1.4682 H   0  0  0  0  0  0  0  0  0  0  0  0
    4.5848    2.8719   -0.8092 H   0  0  0  0  0  0  0  0  0  0  0  0
    3.8343    2.1232   -2.2445 H   0  0  0  0  0  0  0  0  0  0  0  0
   -6.6082    2.8412    0.1314 H   0  0  0  0  0  0  0  0  0  0  0  0
   -6.6429    2.8444    2.5481 H   0  0  0  0  0  0  0  0  0  0  0  0
   -6.0915    0.7881    3.8058 H   0  0  0  0  0  0  0  0  0  0  0  0
  1  2  1  0
  2  3  1  0
  3  4  1  0
  4  5  1  0
  4  6  1  0
  6  7  1  0
  7  8  1  0
  8  9  2  0
  8 10  1  0
 10 11  1  0
 11 12  2  0
 12 13  1  0
 13 14  1  0
 14 15  2  0
 15 16  1  0
 16 17  2  0
 17 18  1  0
 17 19  1  0
 19 20  2  0
 13 21  1  0
 21 22  1  0
  4 23  1  0
 23 24  1  0
 23 25  1  0
 23 26  1  0
  2 27  1  0
 27 28  2  0
 27 29  1  0
 29 30  2  0
 30 31  1  0
 30 32  1  0
 32 33  2  0
 33 34  1  0
 34 35  2  0
 35 36  1  0
 21 10  2  0
 35 29  1  0
 20 14  1  0
  1 37  1  0
  1 38  1  0
  1 39  1  0
  3 40  1  0
  3 41  1  0
  5 42  1  0
  6 43  1  0
  6 44  1  0
  7 45  1  0
 11 46  1  0
 15 47  1  0
 16 48  1  0
 19 49  1  0
 20 50  1  0
 22 51  1  0
 22 52  1  0
 32 53  1  0
 33 54  1  0
 34 55  1  0
M  END
$$$$
