
     RDKit          3D

 63 66  0  0  0  0  0  0  0  0999 V2000
   -6.5474   -0.0141    4.3919 C   0  0  0  0  0  0  0  0  0  0  0  0
   -5.5861   -0.7409    3.6539 O   0  0  0  0  0  0  0  0  0  0  0  0
   -5.2180   -0.2664    2.4076 C   0  0  0  0  0  0  0  0  0  0  0  0
   -5.7720    0.8854    1.8941 C   0  0  0  0  0  0  0  0  0  0  0  0
   -5.3688    1.3211    0.6367 C   0  0  0  0  0  0  0  0  0  0  0  0
   -4.4289    0.6221   -0.0990 C   0  0  0  0  0  0  0  0  0  0  0  0
   -3.8693   -0.5315    0.4072 C   0  0  0  0  0  0  0  0  0  0  0  0
   -2.8969   -1.2846   -0.3140 N   0  0  0  0  0  0  0  0  0  0  0  0
   -2.4297   -0.9155   -1.5915 C   0  0  0  0  0  0  0  0  0  0  0  0
   -3.1000   -1.4085   -2.7108 C   0  0  0  0  0  0  0  0  0  0  0  0
   -4.2565   -2.2842   -2.5856 C   0  0  0  0  0  0  0  0  0  0  0  0
   -4.8739   -2.7371   -3.7796 N   0  0  0  0  0  0  0  0  0  0  0  0
   -4.7380   -2.6609   -1.4931 O   0  0  0  0  0  0  0  0  0  0  0  0
   -2.6009   -1.0163   -3.9344 C   0  0  0  0  0  0  0  0  0  0  0  0
   -1.5329   -0.2077   -4.0515 N   0  0  0  0  0  0  0  0  0  0  0  0
   -0.8669    0.2829   -2.9913 C   0  0  0  0  0  0  0  0  0  0  0  0
    0.2214    1.1079   -3.1672 C   0  0  0  0  0  0  0  0  0  0  0  0
    0.7147    1.4972   -4.5188 C   0  0  0  0  0  0  0  0  0  0  0  0
    0.8824    1.5943   -2.0714 C   0  0  0  0  0  0  0  0  0  0  0  0
    0.4428    1.2467   -0.8092 C   0  0  0  0  0  0  0  0  0  0  0  0
    1.2574    1.8444    0.6308 S   0  0  0  0  0  6  0  0  0  0  0  0
    0.2966    1.9839    1.7775 O   0  0  0  0  0  0  0  0  0  0  0  0
    1.9039    3.1752    0.3825 O   0  0  0  0  0  0  0  0  0  0  0  0
    2.4999    0.7122    1.0721 C   0  0  0  0  0  0  0  0  0  0  0  0
    2.2165   -0.3257    1.9316 C   0  0  0  0  0  0  0  0  0  0  0  0
    3.2126   -1.2381    2.2888 C   0  0  0  0  0  0  0  0  0  0  0  0
    4.4944   -1.1290    1.7977 C   0  0  0  0  0  0  0  0  0  0  0  0
    4.7885   -0.1039    0.9442 C   0  0  0  0  0  0  0  0  0  0  0  0
    6.1416    0.0207    0.4192 C   0  0  0  0  0  0  0  0  0  0  0  0
    6.3128    0.0005   -0.8236 O   0  0  0  0  0  0  0  0  0  0  0  0
    7.2554    0.1625    1.2726 N   0  0  0  0  0  0  0  0  0  0  0  0
    7.0588    0.1858    2.7089 C   0  0  0  0  0  0  0  0  0  0  0  0
    8.6125    0.2888    0.7788 C   0  0  0  0  0  0  0  0  0  0  0  0
    3.7880    0.7937    0.5995 C   0  0  0  0  0  0  0  0  0  0  0  0
   -0.6557    0.4143   -0.6541 C   0  0  0  0  0  0  0  0  0  0  0  0
   -1.3361   -0.0869   -1.7479 C   0  0  0  0  0  0  0  0  0  0  0  0
   -4.2769   -0.9527    1.6537 C   0  0  0  0  0  0  0  0  0  0  0  0
   -6.8268   -0.5356    5.3320 H   0  0  0  0  0  0  0  0  0  0  0  0
   -7.4371    0.1957    3.7562 H   0  0  0  0  0  0  0  0  0  0  0  0
   -6.0702    0.9787    4.6221 H   0  0  0  0  0  0  0  0  0  0  0  0
   -6.5089    1.4535    2.4449 H   0  0  0  0  0  0  0  0  0  0  0  0
   -5.8081    2.2298    0.2354 H   0  0  0  0  0  0  0  0  0  0  0  0
   -4.1222    0.9797   -1.0890 H   0  0  0  0  0  0  0  0  0  0  0  0
   -2.5011   -2.1515    0.1056 H   0  0  0  0  0  0  0  0  0  0  0  0
   -5.4219   -2.1294   -4.4229 H   0  0  0  0  0  0  0  0  0  0  0  0
   -4.7461   -3.7666   -3.9959 H   0  0  0  0  0  0  0  0  0  0  0  0
   -3.0897   -1.3750   -4.8230 H   0  0  0  0  0  0  0  0  0  0  0  0
    0.0365    2.2490   -4.9658 H   0  0  0  0  0  0  0  0  0  0  0  0
    0.6186    0.5791   -5.1515 H   0  0  0  0  0  0  0  0  0  0  0  0
    1.7674    1.8130   -4.4825 H   0  0  0  0  0  0  0  0  0  0  0  0
    1.7477    2.2500   -2.1977 H   0  0  0  0  0  0  0  0  0  0  0  0
    1.2239   -0.4313    2.3275 H   0  0  0  0  0  0  0  0  0  0  0  0
    3.0022   -2.0637    2.9679 H   0  0  0  0  0  0  0  0  0  0  0  0
    5.2778   -1.8495    2.0808 H   0  0  0  0  0  0  0  0  0  0  0  0
    6.0372    0.5495    2.8998 H   0  0  0  0  0  0  0  0  0  0  0  0
    7.1952   -0.8410    3.1462 H   0  0  0  0  0  0  0  0  0  0  0  0
    7.7865    0.8516    3.2162 H   0  0  0  0  0  0  0  0  0  0  0  0
    8.6480    0.7153   -0.2463 H   0  0  0  0  0  0  0  0  0  0  0  0
    9.0885   -0.7156    0.7189 H   0  0  0  0  0  0  0  0  0  0  0  0
    9.1973    0.8787    1.4962 H   0  0  0  0  0  0  0  0  0  0  0  0
    4.0099    1.6080   -0.0746 H   0  0  0  0  0  0  0  0  0  0  0  0
   -1.0047    0.1386    0.3316 H   0  0  0  0  0  0  0  0  0  0  0  0
   -3.8454   -1.8468    2.0497 H   0  0  0  0  0  0  0  0  0  0  0  0
  1  2  1  0
  2  3  1  0
  3  4  2  0
  4  5  1  0
  5  6  2  0
  6  7  1  0
  7  8  1  0
  8  9  1  0
  9 10  2  0
 10 11  1  0
 11 12  1  0
 11 13  2  0
 10 14  1  0
 14 15  2  0
 15 16  1  0
 16 17  2  0
 17 18  1  0
 17 19  1  0
 19 20  2  0
 20 21  1  0
 21 22  2  0
 21 23  2  0
 21 24  1  0
 24 25  2  0
 25 26  1  0
 26 27  2  0
 27 28  1  0
 28 29  1  0
 29 30  2  0
 29 31  1  0
 31 32  1  0
 31 33  1  0
 28 34  2  0
 20 35  1  0
 35 36  2  0
  7 37  2  0
 37  3  1  0
 36  9  1  0
 36 16  1  0
 34 24  1  0
  1 38  1  0
  1 39  1  0
  1 40  1  0
  4 41  1  0
  5 42  1  0
  6 43  1  0
  8 44  1  0
 12 45  1  0
 12 46  1  0
 14 47  1  0
 18 48  1  0
 18 49  1  0
 18 50  1  0
 19 51  1  0
 25 52  1  0
 26 53  1  0
 27 54  1  0
 32 55  1  0
 32 56  1  0
 32 57  1  0
 33 58  1  0
 33 59  1  0
 33 60  1  0
 34 61  1  0
 35 62  1  0
 37 63  1  0
M  END
$$$$
