
     RDKit          3D

 59 63  0  0  0  0  0  0  0  0999 V2000
   -9.1156    0.8562   -1.0612 C   0  0  0  0  0  0  0  0  0  0  0  0
   -8.6205   -0.7226   -0.3665 S   0  0  0  0  0  6  0  0  0  0  0  0
   -9.1651   -1.7750   -1.2635 O   0  0  0  0  0  0  0  0  0  0  0  0
   -9.1595   -0.7965    1.0302 O   0  0  0  0  0  0  0  0  0  0  0  0
   -6.8753   -0.7942   -0.3706 C   0  0  0  0  0  0  0  0  0  0  0  0
   -6.2149   -1.2741   -1.5099 C   0  0  0  0  0  0  0  0  0  0  0  0
   -4.8429   -1.3506   -1.5567 C   0  0  0  0  0  0  0  0  0  0  0  0
   -4.0901   -0.9511   -0.4695 C   0  0  0  0  0  0  0  0  0  0  0  0
   -4.7240   -0.4678    0.6826 C   0  0  0  0  0  0  0  0  0  0  0  0
   -6.0771   -0.4154    0.6699 C   0  0  0  0  0  0  0  0  0  0  0  0
   -3.8405   -0.0668    1.8046 C   0  0  0  0  0  0  0  0  0  0  0  0
   -2.6123    0.6229    1.3122 C   0  0  0  0  0  0  0  0  0  0  0  0
   -1.8741   -0.0908    0.2113 C   0  0  0  0  0  0  0  0  0  0  0  0
   -1.4003    0.9489   -0.7785 C   0  0  0  0  0  0  0  0  0  0  0  0
   -0.0369    0.6426   -1.3294 C   0  0  0  0  0  0  0  0  0  0  0  0
    0.9318    0.5210   -0.2497 N   0  0  0  0  0  0  0  0  0  0  0  0
    2.2970    0.8105   -0.5049 C   0  0  0  0  0  0  0  0  0  0  0  0
    2.6538    1.1788   -1.6556 O   0  0  0  0  0  0  0  0  0  0  0  0
    3.3178    0.7101    0.4754 N   0  0  0  0  0  0  0  0  0  0  0  0
    4.6853    1.0151    0.1698 C   0  0  1  0  0  0  0  0  0  0  0  0
    5.5546    1.7345    1.1256 C   0  0  0  0  0  0  0  0  0  0  0  0
    5.7175    0.2315    0.8694 C   0  0  2  0  0  0  0  0  0  0  0  0
    7.0012   -0.1109    0.2687 C   0  0  0  0  0  0  0  0  0  0  0  0
    7.4751    0.4838   -0.8673 C   0  0  0  0  0  0  0  0  0  0  0  0
    8.6904    0.1709   -1.4453 C   0  0  0  0  0  0  0  0  0  0  0  0
    9.4710   -0.7963   -0.8437 C   0  0  0  0  0  0  0  0  0  0  0  0
    9.0342   -1.4089    0.2851 C   0  0  0  0  0  0  0  0  0  0  0  0
    7.7979   -1.0729    0.8506 C   0  0  0  0  0  0  0  0  0  0  0  0
    0.4319    0.1123    1.0446 C   0  0  0  0  0  0  0  0  0  0  0  0
   -0.7086   -0.8483    0.8181 C   0  0  0  0  0  0  0  0  0  0  0  0
   -2.7094   -1.0015   -0.4526 O   0  0  0  0  0  0  0  0  0  0  0  0
  -10.1130    1.1486   -0.6782 H   0  0  0  0  0  0  0  0  0  0  0  0
   -8.3960    1.6450   -0.7105 H   0  0  0  0  0  0  0  0  0  0  0  0
   -9.0634    0.8237   -2.1620 H   0  0  0  0  0  0  0  0  0  0  0  0
   -6.7931   -1.5919   -2.3646 H   0  0  0  0  0  0  0  0  0  0  0  0
   -4.3330   -1.7175   -2.4331 H   0  0  0  0  0  0  0  0  0  0  0  0
   -6.5702   -0.0382    1.5630 H   0  0  0  0  0  0  0  0  0  0  0  0
   -3.6270   -0.9133    2.4887 H   0  0  0  0  0  0  0  0  0  0  0  0
   -4.3973    0.6789    2.4364 H   0  0  0  0  0  0  0  0  0  0  0  0
   -1.9099    0.7594    2.1650 H   0  0  0  0  0  0  0  0  0  0  0  0
   -2.9155    1.6249    0.9300 H   0  0  0  0  0  0  0  0  0  0  0  0
   -1.3795    1.9353   -0.2925 H   0  0  0  0  0  0  0  0  0  0  0  0
   -2.1235    0.9816   -1.6079 H   0  0  0  0  0  0  0  0  0  0  0  0
   -0.0268   -0.2174   -2.0150 H   0  0  0  0  0  0  0  0  0  0  0  0
    0.2898    1.5196   -1.9287 H   0  0  0  0  0  0  0  0  0  0  0  0
    3.0918    0.4065    1.4522 H   0  0  0  0  0  0  0  0  0  0  0  0
    4.8525    1.2994   -0.9052 H   0  0  0  0  0  0  0  0  0  0  0  0
    5.2706    1.9625    2.1600 H   0  0  0  0  0  0  0  0  0  0  0  0
    6.3155    2.4315    0.7292 H   0  0  0  0  0  0  0  0  0  0  0  0
    5.4019   -0.4458    1.7123 H   0  0  0  0  0  0  0  0  0  0  0  0
    6.8974    1.2536   -1.3810 H   0  0  0  0  0  0  0  0  0  0  0  0
    9.0643    0.6377   -2.3397 H   0  0  0  0  0  0  0  0  0  0  0  0
   10.4365   -1.0966   -1.2379 H   0  0  0  0  0  0  0  0  0  0  0  0
    9.6349   -2.1708    0.7669 H   0  0  0  0  0  0  0  0  0  0  0  0
    7.5261   -1.6074    1.7474 H   0  0  0  0  0  0  0  0  0  0  0  0
    0.0022    1.0422    1.5096 H   0  0  0  0  0  0  0  0  0  0  0  0
    1.2234   -0.3265    1.6879 H   0  0  0  0  0  0  0  0  0  0  0  0
   -0.9772   -1.3366    1.7665 H   0  0  0  0  0  0  0  0  0  0  0  0
   -0.3740   -1.5835    0.0484 H   0  0  0  0  0  0  0  0  0  0  0  0
  1  2  1  0
  2  3  2  0
  2  4  2  0
  2  5  1  0
  5  6  2  0
  6  7  1  0
  7  8  2  0
  8  9  1  0
  9 10  2  0
  9 11  1  0
 11 12  1  0
 12 13  1  0
 13 14  1  0
 14 15  1  0
 15 16  1  0
 16 17  1  0
 17 18  2  0
 17 19  1  0
 19 20  1  0
 20 21  1  0
 21 22  1  0
 22 23  1  0
 23 24  2  0
 24 25  1  0
 25 26  2  0
 26 27  1  0
 27 28  2  0
 16 29  1  0
 29 30  1  0
 13 31  1  0
 10  5  1  0
 30 13  1  0
 31  8  1  0
 22 20  1  0
 28 23  1  0
  1 32  1  0
  1 33  1  0
  1 34  1  0
  6 35  1  0
  7 36  1  0
 10 37  1  0
 11 38  1  0
 11 39  1  0
 12 40  1  0
 12 41  1  0
 14 42  1  0
 14 43  1  0
 15 44  1  0
 15 45  1  0
 19 46  1  0
 20 47  1  6
 21 48  1  0
 21 49  1  0
 22 50  1  1
 24 51  1  0
 25 52  1  0
 26 53  1  0
 27 54  1  0
 28 55  1  0
 29 56  1  0
 29 57  1  0
 30 58  1  0
 30 59  1  0
M  END
$$$$
