
     RDKit          3D

 64 67  0  0  0  0  0  0  0  0999 V2000
   -0.0720   -0.0470   -0.8727 C   0  0  2  0  0  0  0  0  0  0  0  0
   -0.7692    0.2041   -2.1623 C   0  0  0  0  0  0  0  0  0  0  0  0
   -2.2074    0.3433   -1.6264 C   0  0  2  0  0  0  0  0  0  0  0  0
   -2.9649    1.1653   -2.5972 C   0  0  0  0  0  0  0  0  0  0  0  0
   -2.1084    0.8478   -0.2325 C   0  0  2  0  0  0  0  0  0  0  0  0
   -2.3373   -0.2006    0.7316 O   0  0  0  0  0  0  0  0  0  0  0  0
   -3.5158   -0.9079    0.7603 C   0  0  0  0  0  0  0  0  0  0  0  0
   -4.4526   -0.6629   -0.0752 O   0  0  0  0  0  0  0  0  0  0  0  0
   -3.8285   -1.9942    1.7230 C   0  0  0  0  0  0  0  0  0  0  0  0
   -5.2206   -2.5273    1.4270 C   0  0  0  0  0  0  0  0  0  0  0  0
   -2.9548    1.9590    0.1501 C   0  0  0  0  0  0  0  0  0  0  0  0
   -3.3451    1.3532    1.1373 O   0  0  0  0  0  0  0  0  0  0  0  0
   -3.5159    3.2980   -0.0322 C   0  0  0  0  0  0  0  0  0  0  0  0
   -5.0800    3.2549   -0.8747 Cl  0  0  0  0  0  0  0  0  0  0  0  0
   -0.6211    1.0933   -0.0381 C   0  0  2  0  0  0  0  0  0  0  0  0
   -0.1217    2.3816   -0.5604 C   0  0  0  0  0  0  0  0  0  0  0  0
   -0.1837    0.7755    1.3708 C   0  0  0  0  0  0  0  0  0  0  0  0
    1.3223    0.7071    1.4642 C   0  0  2  0  0  0  0  0  0  0  0  0
    1.9032    1.9710    1.4511 O   0  0  0  0  0  0  0  0  0  0  0  0
    1.8998   -0.2746    0.5220 C   0  0  1  0  0  0  0  0  0  0  0  0
    1.4757   -1.5393    0.9601 F   0  0  0  0  0  0  0  0  0  0  0  0
    1.3991   -0.1708   -0.8948 C   0  0  1  0  0  0  0  0  0  0  0  0
    1.7670   -1.4201   -1.6408 C   0  0  0  0  0  0  0  0  0  0  0  0
    3.1295   -1.9682   -1.4050 C   0  0  0  0  0  0  0  0  0  0  0  0
    3.7020   -1.6631   -0.0957 C   0  0  0  0  0  0  0  0  0  0  0  0
    4.4435   -2.5504    0.5427 C   0  0  0  0  0  0  0  0  0  0  0  0
    5.0043   -2.2331    1.8511 C   0  0  0  0  0  0  0  0  0  0  0  0
    5.6945   -3.1076    2.4026 O   0  0  0  0  0  0  0  0  0  0  0  0
    4.7551   -0.9416    2.4684 C   0  0  0  0  0  0  0  0  0  0  0  0
    4.0033   -0.0825    1.7826 C   0  0  0  0  0  0  0  0  0  0  0  0
    3.3863   -0.2942    0.4436 C   0  0  2  0  0  0  0  0  0  0  0  0
    3.9448    0.6930   -0.5616 C   0  0  0  0  0  0  0  0  0  0  0  0
   -0.4938   -1.0018   -0.4655 H   0  0  0  0  0  0  0  0  0  0  0  0
   -0.6874   -0.6370   -2.8858 H   0  0  0  0  0  0  0  0  0  0  0  0
   -0.4608    1.1099   -2.6920 H   0  0  0  0  0  0  0  0  0  0  0  0
   -2.5918   -0.7077   -1.6887 H   0  0  0  0  0  0  0  0  0  0  0  0
   -4.0542    1.0082   -2.5915 H   0  0  0  0  0  0  0  0  0  0  0  0
   -2.8017    2.2518   -2.5063 H   0  0  0  0  0  0  0  0  0  0  0  0
   -2.6215    0.9194   -3.6454 H   0  0  0  0  0  0  0  0  0  0  0  0
   -3.1013   -2.8027    1.6259 H   0  0  0  0  0  0  0  0  0  0  0  0
   -3.8021   -1.6218    2.7781 H   0  0  0  0  0  0  0  0  0  0  0  0
   -5.1545   -3.4814    0.8523 H   0  0  0  0  0  0  0  0  0  0  0  0
   -5.7445   -1.8230    0.7494 H   0  0  0  0  0  0  0  0  0  0  0  0
   -5.8390   -2.6526    2.3287 H   0  0  0  0  0  0  0  0  0  0  0  0
   -3.6934    3.7691    0.9554 H   0  0  0  0  0  0  0  0  0  0  0  0
   -2.8787    4.0026   -0.5818 H   0  0  0  0  0  0  0  0  0  0  0  0
   -0.0432    3.1845    0.2328 H   0  0  0  0  0  0  0  0  0  0  0  0
   -0.7556    2.7201   -1.4020 H   0  0  0  0  0  0  0  0  0  0  0  0
    0.9080    2.3547   -0.9723 H   0  0  0  0  0  0  0  0  0  0  0  0
   -0.5884    1.4123    2.1495 H   0  0  0  0  0  0  0  0  0  0  0  0
   -0.5586   -0.2544    1.5842 H   0  0  0  0  0  0  0  0  0  0  0  0
    1.5251    0.3105    2.5006 H   0  0  0  0  0  0  0  0  0  0  0  0
    1.4219    2.4833    2.1670 H   0  0  0  0  0  0  0  0  0  0  0  0
    1.9296    0.6580   -1.3891 H   0  0  0  0  0  0  0  0  0  0  0  0
    1.0402   -2.2433   -1.3776 H   0  0  0  0  0  0  0  0  0  0  0  0
    1.5801   -1.2511   -2.7411 H   0  0  0  0  0  0  0  0  0  0  0  0
    3.1581   -3.0941   -1.5687 H   0  0  0  0  0  0  0  0  0  0  0  0
    3.8124   -1.5916   -2.1880 H   0  0  0  0  0  0  0  0  0  0  0  0
    4.6001   -3.4940    0.0462 H   0  0  0  0  0  0  0  0  0  0  0  0
    5.1513   -0.6803    3.4287 H   0  0  0  0  0  0  0  0  0  0  0  0
    3.8122    0.8735    2.2332 H   0  0  0  0  0  0  0  0  0  0  0  0
    3.4724    1.6781   -0.5479 H   0  0  0  0  0  0  0  0  0  0  0  0
    3.9087    0.3092   -1.5950 H   0  0  0  0  0  0  0  0  0  0  0  0
    5.0190    0.8299   -0.3122 H   0  0  0  0  0  0  0  0  0  0  0  0
  1  2  1  0
  2  3  1  0
  3  4  1  0
  3  5  1  0
  5  6  1  1
  6  7  1  0
  7  8  2  0
  7  9  1  0
  9 10  1  0
  5 11  1  0
 11 12  2  0
 11 13  1  0
 13 14  1  0
  5 15  1  0
 15 16  1  6
 15 17  1  0
 17 18  1  0
 18 19  1  0
 18 20  1  0
 20 21  1  1
 20 22  1  0
 22 23  1  0
 23 24  1  0
 24 25  1  0
 25 26  2  0
 26 27  1  0
 27 28  2  0
 27 29  1  0
 29 30  2  0
 30 31  1  0
 31 32  1  6
 15  1  1  0
 31 20  1  0
 22  1  1  0
 31 25  1  0
  1 33  1  1
  2 34  1  0
  2 35  1  0
  3 36  1  1
  4 37  1  0
  4 38  1  0
  4 39  1  0
  9 40  1  0
  9 41  1  0
 10 42  1  0
 10 43  1  0
 10 44  1  0
 13 45  1  0
 13 46  1  0
 16 47  1  0
 16 48  1  0
 16 49  1  0
 17 50  1  0
 17 51  1  0
 18 52  1  1
 19 53  1  0
 22 54  1  6
 23 55  1  0
 23 56  1  0
 24 57  1  0
 24 58  1  0
 26 59  1  0
 29 60  1  0
 30 61  1  0
 32 62  1  0
 32 63  1  0
 32 64  1  0
M  END
$$$$
