
     RDKit          3D

 45 48  0  0  0  0  0  0  0  0999 V2000
   -7.8142    2.7997   -1.3659 C   0  0  0  0  0  0  0  0  0  0  0  0
   -7.3349    1.4923   -0.9665 N   0  0  0  0  0  0  0  0  0  0  0  0
   -6.0936    1.2520   -0.5121 C   0  0  0  0  0  0  0  0  0  0  0  0
   -5.9485   -0.0867   -0.2154 C   0  0  0  0  0  0  0  0  0  0  0  0
   -4.7310   -0.7127    0.3017 C   0  0  0  0  0  0  0  0  0  0  0  0
   -4.8000   -1.8069    1.1412 C   0  0  0  0  0  0  0  0  0  0  0  0
   -3.6682   -2.3728    1.6147 N   0  0  0  0  0  0  0  0  0  0  0  0
   -2.4350   -1.9219    1.3091 C   0  0  0  0  0  0  0  0  0  0  0  0
   -1.2955   -2.5112    1.8045 C   0  0  0  0  0  0  0  0  0  0  0  0
   -0.0397   -1.9922    1.4503 C   0  0  0  0  0  0  0  0  0  0  0  0
    0.0458   -0.9116    0.6210 C   0  0  0  0  0  0  0  0  0  0  0  0
    1.2916   -0.3398    0.2460 N   0  0  0  0  0  0  0  0  0  0  0  0
    2.5664   -0.6597    0.6964 C   0  0  0  0  0  0  0  0  0  0  0  0
    2.7109   -1.5445    1.5666 O   0  0  0  0  0  0  0  0  0  0  0  0
    3.7600   -0.0094    0.2018 N   0  0  0  0  0  0  0  0  0  0  0  0
    5.0432   -0.4082    0.7390 C   0  0  0  0  0  0  0  0  0  0  0  0
    6.1732    0.2110    0.0706 C   0  0  0  0  0  0  0  0  0  0  0  0
    6.6852    1.4191    0.4821 C   0  0  0  0  0  0  0  0  0  0  0  0
    7.7777    1.9968   -0.1730 C   0  0  0  0  0  0  0  0  0  0  0  0
    8.3584    1.3674   -1.2377 C   0  0  0  0  0  0  0  0  0  0  0  0
    7.8559    0.1575   -1.6600 C   0  0  0  0  0  0  0  0  0  0  0  0
    6.7683   -0.4105   -1.0032 C   0  0  0  0  0  0  0  0  0  0  0  0
   -1.1054   -0.3695    0.1613 N   0  0  0  0  0  0  0  0  0  0  0  0
   -2.3157   -0.8322    0.4743 C   0  0  0  0  0  0  0  0  0  0  0  0
   -3.4764   -0.2422   -0.0187 C   0  0  0  0  0  0  0  0  0  0  0  0
   -7.1766   -0.6355   -0.5189 C   0  0  0  0  0  0  0  0  0  0  0  0
   -7.9844    0.3408   -0.9669 N   0  0  0  0  0  0  0  0  0  0  0  0
   -7.1161    3.2392   -2.1207 H   0  0  0  0  0  0  0  0  0  0  0  0
   -8.7881    2.6807   -1.8574 H   0  0  0  0  0  0  0  0  0  0  0  0
   -7.8300    3.5117   -0.5141 H   0  0  0  0  0  0  0  0  0  0  0  0
   -5.2901    1.9668   -0.3787 H   0  0  0  0  0  0  0  0  0  0  0  0
   -5.7706   -2.2218    1.4281 H   0  0  0  0  0  0  0  0  0  0  0  0
   -1.3582   -3.3750    2.4670 H   0  0  0  0  0  0  0  0  0  0  0  0
    0.8368   -2.5049    1.8689 H   0  0  0  0  0  0  0  0  0  0  0  0
    1.2733    0.4408   -0.5024 H   0  0  0  0  0  0  0  0  0  0  0  0
    3.6353    0.7205   -0.5241 H   0  0  0  0  0  0  0  0  0  0  0  0
    4.9940   -0.1640    1.8400 H   0  0  0  0  0  0  0  0  0  0  0  0
    5.0641   -1.5242    0.7142 H   0  0  0  0  0  0  0  0  0  0  0  0
    6.2361    1.9314    1.3243 H   0  0  0  0  0  0  0  0  0  0  0  0
    8.1764    2.9431    0.1513 H   0  0  0  0  0  0  0  0  0  0  0  0
    9.2111    1.8210   -1.7462 H   0  0  0  0  0  0  0  0  0  0  0  0
    8.3350   -0.3164   -2.5028 H   0  0  0  0  0  0  0  0  0  0  0  0
    6.4049   -1.3595   -1.3646 H   0  0  0  0  0  0  0  0  0  0  0  0
   -3.3902    0.6152   -0.6761 H   0  0  0  0  0  0  0  0  0  0  0  0
   -7.4411   -1.6734   -0.4133 H   0  0  0  0  0  0  0  0  0  0  0  0
  1  2  1  0
  2  3  1  0
  3  4  2  0
  4  5  1  0
  5  6  2  0
  6  7  1  0
  7  8  2  0
  8  9  1  0
  9 10  2  0
 10 11  1  0
 11 12  1  0
 12 13  1  0
 13 14  2  0
 13 15  1  0
 15 16  1  0
 16 17  1  0
 17 18  2  0
 18 19  1  0
 19 20  2  0
 20 21  1  0
 21 22  2  0
 11 23  2  0
 23 24  1  0
 24 25  2  0
  4 26  1  0
 26 27  2  0
 27  2  1  0
 25  5  1  0
 24  8  1  0
 22 17  1  0
  1 28  1  0
  1 29  1  0
  1 30  1  0
  3 31  1  0
  6 32  1  0
  9 33  1  0
 10 34  1  0
 12 35  1  0
 15 36  1  0
 16 37  1  0
 16 38  1  0
 18 39  1  0
 19 40  1  0
 20 41  1  0
 21 42  1  0
 22 43  1  0
 25 44  1  0
 26 45  1  0
M  END
$$$$
