
     RDKit          3D

 41 43  0  0  0  0  0  0  0  0999 V2000
    3.0791   -1.1132    0.2755 C   0  0  1  0  0  0  0  0  0  0  0  0
    4.2881   -0.2555    0.2998 C   0  0  0  0  0  0  0  0  0  0  0  0
    5.3432   -1.1774    0.6346 N   0  0  0  0  0  0  0  0  0  0  0  0
    4.8464   -2.4466    1.1051 C   0  0  0  0  0  0  0  0  0  0  0  0
    5.6494   -3.3989    1.1968 O   0  0  0  0  0  0  0  0  0  0  0  0
    3.3965   -2.1632    1.3469 C   0  0  0  0  0  0  0  0  0  0  0  0
    1.8070   -0.4457    0.5710 C   0  0  0  0  0  0  0  0  0  0  0  0
    1.7624    0.2338    1.7755 C   0  0  0  0  0  0  0  0  0  0  0  0
    0.6162    0.8876    2.1372 C   0  0  0  0  0  0  0  0  0  0  0  0
   -0.4967    0.8851    1.3284 C   0  0  0  0  0  0  0  0  0  0  0  0
   -1.7138    1.5015    1.5708 O   0  0  0  0  0  0  0  0  0  0  0  0
   -1.9442    2.2356    2.7402 C   0  0  0  0  0  0  0  0  0  0  0  0
   -0.5105    0.2258    0.1186 C   0  0  0  0  0  0  0  0  0  0  0  0
   -1.4234    0.0363   -0.8860 O   0  0  0  0  0  0  0  0  0  0  0  0
   -2.7209    0.4783   -1.0194 C   0  0  0  0  0  0  0  0  0  0  0  0
   -3.7067   -0.6303   -1.3401 C   0  0  0  0  0  0  0  0  0  0  0  0
   -3.5273   -0.7353   -2.8480 C   0  0  0  0  0  0  0  0  0  0  0  0
   -3.6818    0.7303   -3.2293 C   0  0  0  0  0  0  0  0  0  0  0  0
   -2.7491    1.4013   -2.2456 C   0  0  0  0  0  0  0  0  0  0  0  0
    0.6707   -0.4419   -0.2431 C   0  0  0  0  0  0  0  0  0  0  0  0
    3.0045   -1.6233   -0.7071 H   0  0  0  0  0  0  0  0  0  0  0  0
    4.4657    0.1502   -0.7167 H   0  0  0  0  0  0  0  0  0  0  0  0
    4.2326    0.6101    0.9816 H   0  0  0  0  0  0  0  0  0  0  0  0
    6.3445   -0.8594    0.5124 H   0  0  0  0  0  0  0  0  0  0  0  0
    3.3202   -1.7092    2.3475 H   0  0  0  0  0  0  0  0  0  0  0  0
    2.7723   -3.0630    1.2108 H   0  0  0  0  0  0  0  0  0  0  0  0
    2.5852    0.2828    2.4591 H   0  0  0  0  0  0  0  0  0  0  0  0
    0.4475    1.4535    3.0451 H   0  0  0  0  0  0  0  0  0  0  0  0
   -1.4417    3.2253    2.7351 H   0  0  0  0  0  0  0  0  0  0  0  0
   -1.5249    1.6791    3.6069 H   0  0  0  0  0  0  0  0  0  0  0  0
   -3.0186    2.3584    2.9640 H   0  0  0  0  0  0  0  0  0  0  0  0
   -3.1062    1.0863   -0.1919 H   0  0  0  0  0  0  0  0  0  0  0  0
   -4.7391   -0.2598   -1.1734 H   0  0  0  0  0  0  0  0  0  0  0  0
   -3.4663   -1.5659   -0.8064 H   0  0  0  0  0  0  0  0  0  0  0  0
   -2.4920   -1.0265   -3.0880 H   0  0  0  0  0  0  0  0  0  0  0  0
   -4.3081   -1.3737   -3.3024 H   0  0  0  0  0  0  0  0  0  0  0  0
   -3.3951    0.9307   -4.2798 H   0  0  0  0  0  0  0  0  0  0  0  0
   -4.7123    1.0483   -2.9919 H   0  0  0  0  0  0  0  0  0  0  0  0
   -3.0752    2.4269   -1.9915 H   0  0  0  0  0  0  0  0  0  0  0  0
   -1.7629    1.4465   -2.7538 H   0  0  0  0  0  0  0  0  0  0  0  0
    0.8851   -1.0247   -1.1487 H   0  0  0  0  0  0  0  0  0  0  0  0
  1  2  1  0
  2  3  1  0
  3  4  1  0
  4  5  2  0
  4  6  1  0
  1  7  1  0
  7  8  2  0
  8  9  1  0
  9 10  2  0
 10 11  1  0
 11 12  1  0
 10 13  1  0
 13 14  1  0
 14 15  1  0
 15 16  1  0
 16 17  1  0
 17 18  1  0
 18 19  1  0
 13 20  2  0
  6  1  1  0
 20  7  1  0
 19 15  1  0
  1 21  1  6
  2 22  1  0
  2 23  1  0
  3 24  1  0
  6 25  1  0
  6 26  1  0
  8 27  1  0
  9 28  1  0
 12 29  1  0
 12 30  1  0
 12 31  1  0
 15 32  1  0
 16 33  1  0
 16 34  1  0
 17 35  1  0
 17 36  1  0
 18 37  1  0
 18 38  1  0
 19 39  1  0
 19 40  1  0
 20 41  1  0
M  END
$$$$
