
     RDKit          3D

 52 55  0  0  0  0  0  0  0  0999 V2000
    6.4070   -1.6639   -3.0502 C   0  0  0  0  0  0  0  0  0  0  0  0
    6.3740   -1.1518   -1.7590 O   0  0  0  0  0  0  0  0  0  0  0  0
    5.2470   -0.8553   -1.0354 C   0  0  0  0  0  0  0  0  0  0  0  0
    3.9826   -1.0526   -1.5609 C   0  0  0  0  0  0  0  0  0  0  0  0
    2.8469   -0.7426   -0.8036 C   0  0  0  0  0  0  0  0  0  0  0  0
    1.6045   -0.9338   -1.3133 F   0  0  0  0  0  0  0  0  0  0  0  0
    2.9780   -0.2378    0.4729 C   0  0  0  0  0  0  0  0  0  0  0  0
    1.7866    0.0857    1.2632 C   0  0  0  0  0  0  0  0  0  0  0  0
    0.5012   -0.0436    0.9094 N   0  0  0  0  0  0  0  0  0  0  0  0
   -0.2893    0.3718    1.9403 C   0  0  0  0  0  0  0  0  0  0  0  0
   -1.6424    0.4493    2.1067 C   0  0  0  0  0  0  0  0  0  0  0  0
   -2.5036    0.0470    1.0736 N   0  0  0  0  0  0  0  0  0  0  0  0
   -2.9420    0.9830    0.0819 C   0  0  0  0  0  0  0  0  0  0  0  0
   -3.8553    0.2743   -0.8862 C   0  0  0  0  0  0  0  0  0  0  0  0
   -5.0406   -0.2751   -0.1664 C   0  0  0  0  0  0  0  0  0  0  0  0
   -5.6555   -1.3513   -1.0504 C   0  0  0  0  0  0  0  0  0  0  0  0
   -5.6571   -0.8211   -2.4015 N   0  0  0  0  0  0  0  0  0  0  0  0
   -5.7084    0.6331   -2.4201 C   0  0  0  0  0  0  0  0  0  0  0  0
   -4.3662    1.2076   -1.9722 C   0  0  0  0  0  0  0  0  0  0  0  0
   -2.1491    0.9222    3.2886 C   0  0  0  0  0  0  0  0  0  0  0  0
   -3.8950    1.0221    3.5031 Cl  0  0  0  0  0  0  0  0  0  0  0  0
   -1.3132    1.3195    4.3087 C   0  0  0  0  0  0  0  0  0  0  0  0
    0.0101    1.2336    4.1203 N   0  0  0  0  0  0  0  0  0  0  0  0
    0.5179    0.7714    2.9655 C   0  0  0  0  0  0  0  0  0  0  0  0
    1.7873    0.5805    2.5112 N   0  0  0  0  0  0  0  0  0  0  0  0
    4.2510   -0.0547    0.9626 C   0  0  0  0  0  0  0  0  0  0  0  0
    5.3856   -0.3495    0.2436 C   0  0  0  0  0  0  0  0  0  0  0  0
    6.6654   -0.1608    0.7477 O   0  0  0  0  0  0  0  0  0  0  0  0
    6.7739    0.3576    2.0579 C   0  0  0  0  0  0  0  0  0  0  0  0
    7.3407   -2.2941   -3.1301 H   0  0  0  0  0  0  0  0  0  0  0  0
    5.5453   -2.2676   -3.3434 H   0  0  0  0  0  0  0  0  0  0  0  0
    6.6018   -0.8018   -3.7472 H   0  0  0  0  0  0  0  0  0  0  0  0
    3.8481   -1.4471   -2.5591 H   0  0  0  0  0  0  0  0  0  0  0  0
   -2.7921   -0.9763    1.0882 H   0  0  0  0  0  0  0  0  0  0  0  0
   -3.5398    1.7909    0.5544 H   0  0  0  0  0  0  0  0  0  0  0  0
   -2.0973    1.4593   -0.4677 H   0  0  0  0  0  0  0  0  0  0  0  0
   -3.3134   -0.5835   -1.3471 H   0  0  0  0  0  0  0  0  0  0  0  0
   -4.7800   -0.6374    0.8342 H   0  0  0  0  0  0  0  0  0  0  0  0
   -5.8319    0.4969   -0.0276 H   0  0  0  0  0  0  0  0  0  0  0  0
   -6.6612   -1.6543   -0.7050 H   0  0  0  0  0  0  0  0  0  0  0  0
   -5.0044   -2.2539   -0.9784 H   0  0  0  0  0  0  0  0  0  0  0  0
   -6.5608   -1.1484   -2.8453 H   0  0  0  0  0  0  0  0  0  0  0  0
   -6.5501    1.0436   -1.8613 H   0  0  0  0  0  0  0  0  0  0  0  0
   -5.8304    0.9287   -3.4765 H   0  0  0  0  0  0  0  0  0  0  0  0
   -3.6693    1.0886   -2.8403 H   0  0  0  0  0  0  0  0  0  0  0  0
   -4.4427    2.2300   -1.6037 H   0  0  0  0  0  0  0  0  0  0  0  0
   -1.7490    1.6909    5.2360 H   0  0  0  0  0  0  0  0  0  0  0  0
    2.6078    0.8196    3.1317 H   0  0  0  0  0  0  0  0  0  0  0  0
    4.3361    0.3415    1.9642 H   0  0  0  0  0  0  0  0  0  0  0  0
    6.4484    1.4352    2.1097 H   0  0  0  0  0  0  0  0  0  0  0  0
    6.1469   -0.1860    2.7849 H   0  0  0  0  0  0  0  0  0  0  0  0
    7.8460    0.3605    2.3330 H   0  0  0  0  0  0  0  0  0  0  0  0
  1  2  1  0
  2  3  1  0
  3  4  2  0
  4  5  1  0
  5  6  1  0
  5  7  2  0
  7  8  1  0
  8  9  2  0
  9 10  1  0
 10 11  2  0
 11 12  1  0
 12 13  1  0
 13 14  1  0
 14 15  1  0
 15 16  1  0
 16 17  1  0
 17 18  1  0
 18 19  1  0
 11 20  1  0
 20 21  1  0
 20 22  2  0
 22 23  1  0
 23 24  2  0
 24 25  1  0
  7 26  1  0
 26 27  2  0
 27 28  1  0
 28 29  1  0
 27  3  1  0
 25  8  1  0
 24 10  1  0
 19 14  1  0
  1 30  1  0
  1 31  1  0
  1 32  1  0
  4 33  1  0
 12 34  1  0
 13 35  1  0
 13 36  1  0
 14 37  1  0
 15 38  1  0
 15 39  1  0
 16 40  1  0
 16 41  1  0
 17 42  1  0
 18 43  1  0
 18 44  1  0
 19 45  1  0
 19 46  1  0
 22 47  1  0
 25 48  1  0
 26 49  1  0
 29 50  1  0
 29 51  1  0
 29 52  1  0
M  END
$$$$
