
     RDKit          3D

 53 56  0  0  0  0  0  0  0  0999 V2000
   -5.1423   -2.9531    0.9921 C   0  0  0  0  0  0  0  0  0  0  0  0
   -5.6267   -1.8925    0.2304 O   0  0  0  0  0  0  0  0  0  0  0  0
   -4.9080   -0.7395   -0.0469 C   0  0  0  0  0  0  0  0  0  0  0  0
   -3.6276   -0.5320    0.4017 C   0  0  0  0  0  0  0  0  0  0  0  0
   -2.8811    0.5973    0.1506 C   0  0  0  0  0  0  0  0  0  0  0  0
   -3.4937    1.5815   -0.6149 C   0  0  0  0  0  0  0  0  0  0  0  0
   -4.7818    1.4038   -1.0824 C   0  0  0  0  0  0  0  0  0  0  0  0
   -5.5109    0.2640   -0.8189 C   0  0  0  0  0  0  0  0  0  0  0  0
   -6.7983    0.0517   -1.2705 O   0  0  0  0  0  0  0  0  0  0  0  0
   -7.4840    0.9955   -2.0513 C   0  0  0  0  0  0  0  0  0  0  0  0
   -2.5129    2.6528   -0.7315 C   0  0  0  0  0  0  0  0  0  0  0  0
   -2.6531    3.7402   -1.3442 O   0  0  0  0  0  0  0  0  0  0  0  0
   -1.3153    2.2692   -0.0169 C   0  0  0  0  0  0  0  0  0  0  0  0
   -0.1630    2.9027    0.1701 C   0  0  0  0  0  0  0  0  0  0  0  0
    0.8714    2.2398    0.9480 C   0  0  0  0  0  0  0  0  0  0  0  0
    1.5461    2.8653    1.9681 C   0  0  0  0  0  0  0  0  0  0  0  0
    2.5409    2.2530    2.6987 C   0  0  0  0  0  0  0  0  0  0  0  0
    2.9225    0.9423    2.4350 C   0  0  0  0  0  0  0  0  0  0  0  0
    2.2496    0.3124    1.4119 C   0  0  0  0  0  0  0  0  0  0  0  0
    2.6210   -1.0799    1.0754 C   0  0  0  0  0  0  0  0  0  0  0  0
    3.6553   -1.2394    0.1497 N   0  0  0  0  0  0  0  0  0  0  0  0
    3.5050   -0.6840   -1.1363 C   0  0  0  0  0  0  0  0  0  0  0  0
    4.8673   -0.3379   -1.7241 C   0  0  0  0  0  0  0  0  0  0  0  0
    5.7450   -1.5448   -1.8344 C   0  0  0  0  0  0  0  0  0  0  0  0
    5.4003   -2.5971   -0.8023 C   0  0  0  0  0  0  0  0  0  0  0  0
    4.8005   -1.9854    0.4542 C   0  0  0  0  0  0  0  0  0  0  0  0
    1.2631    0.9158    0.6876 C   0  0  0  0  0  0  0  0  0  0  0  0
   -1.5842    1.0040    0.5068 O   0  0  0  0  0  0  0  0  0  0  0  0
   -5.7401   -3.8753    0.7937 H   0  0  0  0  0  0  0  0  0  0  0  0
   -5.2566   -2.6585    2.0713 H   0  0  0  0  0  0  0  0  0  0  0  0
   -4.1155   -3.1697    0.6935 H   0  0  0  0  0  0  0  0  0  0  0  0
   -3.1508   -1.3095    1.0086 H   0  0  0  0  0  0  0  0  0  0  0  0
   -5.2470    2.1876   -1.6823 H   0  0  0  0  0  0  0  0  0  0  0  0
   -8.5887    0.7843   -2.0658 H   0  0  0  0  0  0  0  0  0  0  0  0
   -7.1202    1.0050   -3.1137 H   0  0  0  0  0  0  0  0  0  0  0  0
   -7.3900    2.0267   -1.6499 H   0  0  0  0  0  0  0  0  0  0  0  0
   -0.0461    3.9003   -0.2728 H   0  0  0  0  0  0  0  0  0  0  0  0
    1.2873    3.8955    2.2211 H   0  0  0  0  0  0  0  0  0  0  0  0
    3.0673    2.7623    3.5057 H   0  0  0  0  0  0  0  0  0  0  0  0
    3.7056    0.4545    3.0070 H   0  0  0  0  0  0  0  0  0  0  0  0
    1.7208   -1.6265    0.7246 H   0  0  0  0  0  0  0  0  0  0  0  0
    2.9062   -1.5809    2.0471 H   0  0  0  0  0  0  0  0  0  0  0  0
    2.9640   -1.4302   -1.7881 H   0  0  0  0  0  0  0  0  0  0  0  0
    2.8961    0.2348   -1.1462 H   0  0  0  0  0  0  0  0  0  0  0  0
    5.3286    0.3683   -1.0149 H   0  0  0  0  0  0  0  0  0  0  0  0
    4.7465    0.1186   -2.7096 H   0  0  0  0  0  0  0  0  0  0  0  0
    5.6980   -2.0044   -2.8413 H   0  0  0  0  0  0  0  0  0  0  0  0
    6.8089   -1.1999   -1.7048 H   0  0  0  0  0  0  0  0  0  0  0  0
    4.7563   -3.3620   -1.2497 H   0  0  0  0  0  0  0  0  0  0  0  0
    6.3595   -3.1063   -0.5291 H   0  0  0  0  0  0  0  0  0  0  0  0
    4.5461   -2.8431    1.1119 H   0  0  0  0  0  0  0  0  0  0  0  0
    5.6253   -1.4145    0.9395 H   0  0  0  0  0  0  0  0  0  0  0  0
    0.7332    0.4374   -0.1129 H   0  0  0  0  0  0  0  0  0  0  0  0
  1  2  1  0
  2  3  1  0
  3  4  2  0
  4  5  1  0
  5  6  2  0
  6  7  1  0
  7  8  2  0
  8  9  1  0
  9 10  1  0
  6 11  1  0
 11 12  2  0
 11 13  1  0
 13 14  2  0
 14 15  1  0
 15 16  2  0
 16 17  1  0
 17 18  2  0
 18 19  1  0
 19 20  1  0
 20 21  1  0
 21 22  1  0
 22 23  1  0
 23 24  1  0
 24 25  1  0
 25 26  1  0
 19 27  2  0
 13 28  1  0
  8  3  1  0
 27 15  1  0
 28  5  1  0
 26 21  1  0
  1 29  1  0
  1 30  1  0
  1 31  1  0
  4 32  1  0
  7 33  1  0
 10 34  1  0
 10 35  1  0
 10 36  1  0
 14 37  1  0
 16 38  1  0
 17 39  1  0
 18 40  1  0
 20 41  1  0
 20 42  1  0
 22 43  1  0
 22 44  1  0
 23 45  1  0
 23 46  1  0
 24 47  1  0
 24 48  1  0
 25 49  1  0
 25 50  1  0
 26 51  1  0
 26 52  1  0
 27 53  1  0
M  END
$$$$
