
     RDKit          3D

 67 72  0  0  0  0  0  0  0  0999 V2000
    4.6957   -1.8072   -1.0380 C   0  0  0  0  0  0  0  0  0  0  0  0
    4.0666   -0.6870   -0.2902 C   0  0  0  0  0  0  0  0  0  0  0  0
    2.6756   -0.5610   -0.2717 C   0  0  0  0  0  0  0  0  0  0  0  0
    2.0707    0.4506    0.4202 C   0  0  0  0  0  0  0  0  0  0  0  0
    0.6269    0.6345    0.3997 C   0  0  0  0  0  0  0  0  0  0  0  0
    0.0228    1.8909    0.3535 C   0  0  0  0  0  0  0  0  0  0  0  0
   -1.2805    1.6804    0.3383 N   0  0  0  0  0  0  0  0  0  0  0  0
   -1.5843    0.4039    0.3707 N   0  0  0  0  0  0  0  0  0  0  0  0
   -2.7827   -0.2589    0.3635 C   0  0  0  0  0  0  0  0  0  0  0  0
   -3.9074    0.5870    0.3066 N   0  0  0  0  0  0  0  0  0  0  0  0
   -4.6991    0.8497   -0.8512 C   0  0  0  0  0  0  0  0  0  0  0  0
   -5.3799    2.2062   -0.7991 C   0  0  0  0  0  0  0  0  0  0  0  0
   -4.3441    3.3158   -0.7342 C   0  0  0  0  0  0  0  0  0  0  0  0
   -5.0340    4.6346   -0.6938 C   0  0  0  0  0  0  0  0  0  0  0  0
   -5.8357    4.7536    0.4407 O   0  0  0  0  0  0  0  0  0  0  0  0
   -5.8413    3.6025    1.2035 C   0  0  0  0  0  0  0  0  0  0  0  0
   -6.2640    2.3737    0.3914 C   0  0  0  0  0  0  0  0  0  0  0  0
   -2.7512   -1.5872    0.3949 N   0  0  0  0  0  0  0  0  0  0  0  0
   -1.6153   -2.3058    0.4318 C   0  0  0  0  0  0  0  0  0  0  0  0
   -1.4530   -3.6319    0.4627 O   0  0  0  0  0  0  0  0  0  0  0  0
   -2.1971   -4.7333    0.4639 C   0  0  0  0  0  0  0  0  0  0  0  0
   -2.1169   -5.6572    1.4926 C   0  0  0  0  0  0  0  0  0  0  0  0
   -2.8777   -6.8154    1.5198 C   0  0  0  0  0  0  0  0  0  0  0  0
   -3.7535   -7.1012    0.5170 C   0  0  0  0  0  0  0  0  0  0  0  0
   -3.8688   -6.2097   -0.5286 C   0  0  0  0  0  0  0  0  0  0  0  0
   -4.7405   -6.5141   -1.5073 F   0  0  0  0  0  0  0  0  0  0  0  0
   -3.1049   -5.0479   -0.5534 C   0  0  0  0  0  0  0  0  0  0  0  0
   -3.2785   -4.2364   -1.5956 F   0  0  0  0  0  0  0  0  0  0  0  0
   -0.4522   -1.5731    0.4373 N   0  0  0  0  0  0  0  0  0  0  0  0
   -0.4108   -0.2552    0.4082 C   0  0  0  0  0  0  0  0  0  0  0  0
    2.8828    1.3484    1.1075 C   0  0  0  0  0  0  0  0  0  0  0  0
    4.2344    1.2204    1.0871 C   0  0  0  0  0  0  0  0  0  0  0  0
    4.8588    0.2116    0.3942 C   0  0  0  0  0  0  0  0  0  0  0  0
    6.3348    0.1312    0.3635 C   0  0  0  0  0  0  0  0  0  0  0  0
    6.9115   -0.8430    0.8514 O   0  0  0  0  0  0  0  0  0  0  0  0
    7.1039    1.1743   -0.2283 N   0  0  0  0  0  0  0  0  0  0  0  0
    8.5513    1.1776   -0.3010 C   0  0  0  0  0  0  0  0  0  0  0  0
    9.1275    1.9474   -1.5253 C   0  0  0  0  0  0  0  0  0  0  0  0
    9.1817    2.5654   -0.1894 C   0  0  0  0  0  0  0  0  0  0  0  0
    5.2257   -2.5099   -0.3244 H   0  0  0  0  0  0  0  0  0  0  0  0
    3.8893   -2.4370   -1.4660 H   0  0  0  0  0  0  0  0  0  0  0  0
    5.3180   -1.4832   -1.8764 H   0  0  0  0  0  0  0  0  0  0  0  0
    2.0914   -1.2776   -0.8114 H   0  0  0  0  0  0  0  0  0  0  0  0
    0.4995    2.8463    0.3371 H   0  0  0  0  0  0  0  0  0  0  0  0
   -4.1880    1.0667    1.1966 H   0  0  0  0  0  0  0  0  0  0  0  0
   -4.0195    0.7956   -1.7419 H   0  0  0  0  0  0  0  0  0  0  0  0
   -5.4791    0.0893   -1.0210 H   0  0  0  0  0  0  0  0  0  0  0  0
   -5.9680    2.3311   -1.7183 H   0  0  0  0  0  0  0  0  0  0  0  0
   -3.7322    3.2776   -1.6758 H   0  0  0  0  0  0  0  0  0  0  0  0
   -3.7263    3.1627    0.1614 H   0  0  0  0  0  0  0  0  0  0  0  0
   -4.2539    5.4437   -0.7161 H   0  0  0  0  0  0  0  0  0  0  0  0
   -5.6347    4.7483   -1.6303 H   0  0  0  0  0  0  0  0  0  0  0  0
   -6.6520    3.7617    1.9742 H   0  0  0  0  0  0  0  0  0  0  0  0
   -4.9238    3.4247    1.7701 H   0  0  0  0  0  0  0  0  0  0  0  0
   -6.2375    1.5040    1.0824 H   0  0  0  0  0  0  0  0  0  0  0  0
   -7.3363    2.5532    0.1235 H   0  0  0  0  0  0  0  0  0  0  0  0
   -1.4399   -5.4718    2.3035 H   0  0  0  0  0  0  0  0  0  0  0  0
   -2.7631   -7.4963    2.3600 H   0  0  0  0  0  0  0  0  0  0  0  0
   -4.3413   -8.0089    0.5447 H   0  0  0  0  0  0  0  0  0  0  0  0
    2.3651    2.1471    1.6615 H   0  0  0  0  0  0  0  0  0  0  0  0
    4.8062    1.9614    1.6479 H   0  0  0  0  0  0  0  0  0  0  0  0
    6.5456    1.9852   -0.6306 H   0  0  0  0  0  0  0  0  0  0  0  0
    9.1227    0.3207    0.0663 H   0  0  0  0  0  0  0  0  0  0  0  0
   10.0664    1.4992   -1.9077 H   0  0  0  0  0  0  0  0  0  0  0  0
    8.3969    2.3097   -2.2740 H   0  0  0  0  0  0  0  0  0  0  0  0
   10.1268    2.6883    0.3454 H   0  0  0  0  0  0  0  0  0  0  0  0
    8.4706    3.4342   -0.0560 H   0  0  0  0  0  0  0  0  0  0  0  0
  1  2  1  0
  2  3  2  0
  3  4  1  0
  4  5  1  0
  5  6  1  0
  6  7  2  0
  7  8  1  0
  8  9  1  0
  9 10  1  0
 10 11  1  0
 11 12  1  0
 12 13  1  0
 13 14  1  0
 14 15  1  0
 15 16  1  0
 16 17  1  0
  9 18  2  0
 18 19  1  0
 19 20  1  0
 20 21  1  0
 21 22  2  0
 22 23  1  0
 23 24  2  0
 24 25  1  0
 25 26  1  0
 25 27  2  0
 27 28  1  0
 19 29  2  0
 29 30  1  0
  4 31  2  0
 31 32  1  0
 32 33  2  0
 33 34  1  0
 34 35  2  0
 34 36  1  0
 36 37  1  0
 37 38  1  0
 38 39  1  0
 33  2  1  0
 39 37  1  0
 30  5  2  0
 30  8  1  0
 17 12  1  0
 27 21  1  0
  1 40  1  0
  1 41  1  0
  1 42  1  0
  3 43  1  0
  6 44  1  0
 10 45  1  0
 11 46  1  0
 11 47  1  0
 12 48  1  0
 13 49  1  0
 13 50  1  0
 14 51  1  0
 14 52  1  0
 16 53  1  0
 16 54  1  0
 17 55  1  0
 17 56  1  0
 22 57  1  0
 23 58  1  0
 24 59  1  0
 31 60  1  0
 32 61  1  0
 36 62  1  0
 37 63  1  0
 38 64  1  0
 38 65  1  0
 39 66  1  0
 39 67  1  0
M  END
$$$$
