
     RDKit          3D

 56 59  0  0  0  0  0  0  0  0999 V2000
   -3.7606    4.0435   -1.1641 C   0  0  0  0  0  0  0  0  0  0  0  0
   -2.5141    3.3200   -1.1561 N   0  0  0  0  0  0  0  0  0  0  0  0
   -2.3673    2.3121   -0.2733 C   0  0  0  0  0  0  0  0  0  0  0  0
   -3.2801    2.0193    0.5109 O   0  0  0  0  0  0  0  0  0  0  0  0
   -1.2092    1.5704   -0.1996 C   0  0  0  0  0  0  0  0  0  0  0  0
   -0.2175    1.9536   -1.1071 C   0  0  0  0  0  0  0  0  0  0  0  0
    0.8296    1.1080   -0.8535 C   0  0  0  0  0  0  0  0  0  0  0  0
    0.4867    0.2465    0.1658 C   0  0  0  0  0  0  0  0  0  0  0  0
    1.4132   -0.6955    0.6807 N   0  0  0  0  0  0  0  0  0  0  0  0
    1.8492   -0.5760    2.0715 C   0  0  0  0  0  0  0  0  0  0  0  0
    3.3494   -0.3404    2.0579 C   0  0  0  0  0  0  0  0  0  0  0  0
    3.9367   -0.4978    0.6710 C   0  0  0  0  0  0  0  0  0  0  0  0
    3.5050   -1.7674    0.0059 C   0  0  1  0  0  0  0  0  0  0  0  0
    4.1296   -1.8901   -1.3405 C   0  0  0  0  0  0  0  0  0  0  0  0
    3.9399   -2.8794    0.8273 N   0  0  0  0  0  0  0  0  0  0  0  0
    1.9889   -1.7392   -0.1240 C   0  0  0  0  0  0  0  0  0  0  0  0
   -0.7963    0.5522    0.5588 N   0  0  0  0  0  0  0  0  0  0  0  0
   -1.4309   -0.2145    1.5956 C   0  0  0  0  0  0  0  0  0  0  0  0
   -2.2891   -1.3249    1.1884 C   0  0  0  0  0  0  0  0  0  0  0  0
   -1.7551   -2.4314    0.5387 C   0  0  0  0  0  0  0  0  0  0  0  0
   -2.5421   -3.4596    0.0237 C   0  0  0  0  0  0  0  0  0  0  0  0
   -2.0016   -4.5297   -0.6062 F   0  0  0  0  0  0  0  0  0  0  0  0
   -3.9057   -3.3574    0.1749 C   0  0  0  0  0  0  0  0  0  0  0  0
   -4.4765   -2.2710    0.8187 C   0  0  0  0  0  0  0  0  0  0  0  0
   -3.6525   -1.2849    1.3102 C   0  0  0  0  0  0  0  0  0  0  0  0
   -4.3216   -0.2589    2.0951 C   0  0  0  0  0  0  0  0  0  0  0  0
   -4.8728    0.5514    2.7148 N   0  0  0  0  0  0  0  0  0  0  0  0
   -0.4164    2.9731   -1.9727 N   0  0  0  0  0  0  0  0  0  0  0  0
    0.6584    3.3075   -2.8827 C   0  0  0  0  0  0  0  0  0  0  0  0
   -1.5454    3.6586   -2.0103 C   0  0  0  0  0  0  0  0  0  0  0  0
   -1.7201    4.6146   -2.8291 O   0  0  0  0  0  0  0  0  0  0  0  0
   -3.6556    4.9541   -1.7766 H   0  0  0  0  0  0  0  0  0  0  0  0
   -4.6006    3.4466   -1.5987 H   0  0  0  0  0  0  0  0  0  0  0  0
   -4.0277    4.3792   -0.1291 H   0  0  0  0  0  0  0  0  0  0  0  0
    1.7777    1.1413   -1.3977 H   0  0  0  0  0  0  0  0  0  0  0  0
    1.3984    0.3260    2.5611 H   0  0  0  0  0  0  0  0  0  0  0  0
    1.5524   -1.4434    2.6827 H   0  0  0  0  0  0  0  0  0  0  0  0
    3.8441   -0.9605    2.8171 H   0  0  0  0  0  0  0  0  0  0  0  0
    3.5243    0.7114    2.3614 H   0  0  0  0  0  0  0  0  0  0  0  0
    5.0439   -0.4587    0.7978 H   0  0  0  0  0  0  0  0  0  0  0  0
    3.6514    0.3525    0.0232 H   0  0  0  0  0  0  0  0  0  0  0  0
    3.5169   -2.5582   -1.9676 H   0  0  0  0  0  0  0  0  0  0  0  0
    4.3158   -0.9211   -1.8526 H   0  0  0  0  0  0  0  0  0  0  0  0
    5.1172   -2.4109   -1.1984 H   0  0  0  0  0  0  0  0  0  0  0  0
    4.3393   -2.6089    1.7320 H   0  0  0  0  0  0  0  0  0  0  0  0
    4.4471   -3.6104    0.3197 H   0  0  0  0  0  0  0  0  0  0  0  0
    1.5685   -2.7347    0.1267 H   0  0  0  0  0  0  0  0  0  0  0  0
    1.7768   -1.5020   -1.2047 H   0  0  0  0  0  0  0  0  0  0  0  0
   -1.9779    0.5207    2.2506 H   0  0  0  0  0  0  0  0  0  0  0  0
   -0.6788   -0.6592    2.3051 H   0  0  0  0  0  0  0  0  0  0  0  0
   -0.7018   -2.5608    0.3960 H   0  0  0  0  0  0  0  0  0  0  0  0
   -4.5372   -4.1356   -0.2140 H   0  0  0  0  0  0  0  0  0  0  0  0
   -5.5309   -2.2169    0.9223 H   0  0  0  0  0  0  0  0  0  0  0  0
    0.8164    2.5222   -3.6566 H   0  0  0  0  0  0  0  0  0  0  0  0
    1.6101    3.4717   -2.3369 H   0  0  0  0  0  0  0  0  0  0  0  0
    0.3988    4.2430   -3.4537 H   0  0  0  0  0  0  0  0  0  0  0  0
  1  2  1  0
  2  3  1  0
  3  4  2  0
  3  5  1  0
  5  6  2  0
  6  7  1  0
  7  8  2  0
  8  9  1  0
  9 10  1  0
 10 11  1  0
 11 12  1  0
 12 13  1  0
 13 14  1  0
 13 15  1  1
 13 16  1  0
  8 17  1  0
 17 18  1  0
 18 19  1  0
 19 20  2  0
 20 21  1  0
 21 22  1  0
 21 23  2  0
 23 24  1  0
 24 25  2  0
 25 26  1  0
 26 27  3  0
  6 28  1  0
 28 29  1  0
 28 30  1  0
 30 31  2  0
 30  2  1  0
 17  5  1  0
 25 19  1  0
 16  9  1  0
  1 32  1  0
  1 33  1  0
  1 34  1  0
  7 35  1  0
 10 36  1  0
 10 37  1  0
 11 38  1  0
 11 39  1  0
 12 40  1  0
 12 41  1  0
 14 42  1  0
 14 43  1  0
 14 44  1  0
 15 45  1  0
 15 46  1  0
 16 47  1  0
 16 48  1  0
 18 49  1  0
 18 50  1  0
 20 51  1  0
 23 52  1  0
 24 53  1  0
 29 54  1  0
 29 55  1  0
 29 56  1  0
M  END
$$$$
