
     RDKit          3D

 53 57  0  0  0  0  0  0  0  0999 V2000
    1.3999   -1.6707   -0.9870 O   0  0  0  0  0  0  0  0  0  0  0  0
    1.1485   -0.5310   -0.5127 C   0  0  0  0  0  0  0  0  0  0  0  0
    2.2424    0.3918   -0.4358 N   0  0  0  0  0  0  0  0  0  0  0  0
    3.5842    0.0371   -0.8818 C   0  0  1  0  0  0  0  0  0  0  0  0
    4.3847    1.0335   -1.6359 C   0  0  0  0  0  0  0  0  0  0  0  0
    4.7774    0.6004   -0.2048 C   0  0  2  0  0  0  0  0  0  0  0  0
    6.0219   -0.1601   -0.0746 C   0  0  0  0  0  0  0  0  0  0  0  0
    6.3768   -1.1346   -0.9926 C   0  0  0  0  0  0  0  0  0  0  0  0
    7.5317   -1.8557   -0.8910 C   0  0  0  0  0  0  0  0  0  0  0  0
    8.3853   -1.6226    0.1500 C   0  0  0  0  0  0  0  0  0  0  0  0
    8.0780   -0.6577    1.0977 C   0  0  0  0  0  0  0  0  0  0  0  0
    6.8963    0.0597    0.9679 C   0  0  0  0  0  0  0  0  0  0  0  0
   -0.1626   -0.2089   -0.0854 N   0  0  0  0  0  0  0  0  0  0  0  0
   -0.5339    1.0683    0.4704 C   0  0  0  0  0  0  0  0  0  0  0  0
   -1.7852    1.0013    1.3036 C   0  0  0  0  0  0  0  0  0  0  0  0
   -2.9569    0.4199    0.5647 C   0  0  0  0  0  0  0  0  0  0  0  0
   -2.5589   -0.6067   -0.4602 C   0  0  0  0  0  0  0  0  0  0  0  0
   -1.2019   -1.2010   -0.2056 C   0  0  0  0  0  0  0  0  0  0  0  0
   -3.6056    1.5647   -0.1929 C   0  0  0  0  0  0  0  0  0  0  0  0
   -4.9093    1.1823   -0.8035 C   0  0  0  0  0  0  0  0  0  0  0  0
   -5.6269    2.3681   -1.0424 O   0  0  0  0  0  0  0  0  0  0  0  0
   -5.7620    0.3190    0.0203 C   0  0  0  0  0  0  0  0  0  0  0  0
   -7.0455    0.1635   -0.3289 N   0  0  0  0  0  0  0  0  0  0  0  0
   -7.9156   -0.5976    0.3440 C   0  0  0  0  0  0  0  0  0  0  0  0
   -7.4372   -1.2550    1.4666 C   0  0  0  0  0  0  0  0  0  0  0  0
   -6.1116   -1.1112    1.8506 C   0  0  0  0  0  0  0  0  0  0  0  0
   -5.2386   -0.3092    1.1222 C   0  0  0  0  0  0  0  0  0  0  0  0
   -3.9193   -0.1240    1.4461 O   0  0  0  0  0  0  0  0  0  0  0  0
    2.0234    1.3315   -0.0429 H   0  0  0  0  0  0  0  0  0  0  0  0
    3.6493   -1.0007   -1.2721 H   0  0  0  0  0  0  0  0  0  0  0  0
    4.0695    2.0823   -1.7347 H   0  0  0  0  0  0  0  0  0  0  0  0
    5.0288    0.6898   -2.4642 H   0  0  0  0  0  0  0  0  0  0  0  0
    4.6017    1.3629    0.5965 H   0  0  0  0  0  0  0  0  0  0  0  0
    5.7200   -1.3285   -1.8116 H   0  0  0  0  0  0  0  0  0  0  0  0
    7.8056   -2.6193   -1.6140 H   0  0  0  0  0  0  0  0  0  0  0  0
    9.3116   -2.1588    0.2845 H   0  0  0  0  0  0  0  0  0  0  0  0
    8.7625   -0.4680    1.9360 H   0  0  0  0  0  0  0  0  0  0  0  0
    6.6644    0.8093    1.7102 H   0  0  0  0  0  0  0  0  0  0  0  0
    0.2937    1.5803    0.9902 H   0  0  0  0  0  0  0  0  0  0  0  0
   -0.7911    1.7309   -0.4089 H   0  0  0  0  0  0  0  0  0  0  0  0
   -1.9867    2.0156    1.7007 H   0  0  0  0  0  0  0  0  0  0  0  0
   -1.5769    0.3490    2.1754 H   0  0  0  0  0  0  0  0  0  0  0  0
   -2.5741   -0.2074   -1.4969 H   0  0  0  0  0  0  0  0  0  0  0  0
   -3.3020   -1.4282   -0.4247 H   0  0  0  0  0  0  0  0  0  0  0  0
   -0.9625   -1.8489   -1.0750 H   0  0  0  0  0  0  0  0  0  0  0  0
   -1.1990   -1.8656    0.6975 H   0  0  0  0  0  0  0  0  0  0  0  0
   -3.6555    2.4844    0.4225 H   0  0  0  0  0  0  0  0  0  0  0  0
   -2.8944    1.8077   -1.0301 H   0  0  0  0  0  0  0  0  0  0  0  0
   -4.7492    0.6795   -1.7823 H   0  0  0  0  0  0  0  0  0  0  0  0
   -5.4919    3.0347   -0.3363 H   0  0  0  0  0  0  0  0  0  0  0  0
   -8.9588   -0.7074    0.0374 H   0  0  0  0  0  0  0  0  0  0  0  0
   -8.1240   -1.8770    2.0275 H   0  0  0  0  0  0  0  0  0  0  0  0
   -5.7201   -1.6117    2.7173 H   0  0  0  0  0  0  0  0  0  0  0  0
  1  2  2  0
  2  3  1  0
  3  4  1  0
  4  5  1  0
  5  6  1  0
  6  7  1  0
  7  8  2  0
  8  9  1  0
  9 10  2  0
 10 11  1  0
 11 12  2  0
  2 13  1  0
 13 14  1  0
 14 15  1  0
 15 16  1  0
 16 17  1  0
 17 18  1  0
 16 19  1  0
 19 20  1  0
 20 21  1  0
 20 22  1  0
 22 23  2  0
 23 24  1  0
 24 25  2  0
 25 26  1  0
 26 27  2  0
 27 28  1  0
  6  4  1  0
 12  7  1  0
 18 13  1  0
 27 22  1  0
 28 16  1  0
  3 29  1  0
  4 30  1  6
  5 31  1  0
  5 32  1  0
  6 33  1  1
  8 34  1  0
  9 35  1  0
 10 36  1  0
 11 37  1  0
 12 38  1  0
 14 39  1  0
 14 40  1  0
 15 41  1  0
 15 42  1  0
 17 43  1  0
 17 44  1  0
 18 45  1  0
 18 46  1  0
 19 47  1  0
 19 48  1  0
 20 49  1  0
 21 50  1  0
 24 51  1  0
 25 52  1  0
 26 53  1  0
M  END
$$$$
