
     RDKit          3D

 49 53  0  0  0  0  0  0  0  0999 V2000
    5.4735    1.2679    1.8941 N   0  0  0  0  0  0  0  0  0  0  0  0
    4.1471    1.0068    1.4556 C   0  0  0  0  0  0  0  0  0  0  0  0
    3.2113    1.5793    2.0527 O   0  0  0  0  0  0  0  0  0  0  0  0
    3.9095    0.0988    0.3460 C   0  0  0  0  0  0  0  0  0  0  0  0
    4.9022   -0.5783   -0.3682 C   0  0  0  0  0  0  0  0  0  0  0  0
    4.2800   -1.3096   -1.3054 N   0  0  0  0  0  0  0  0  0  0  0  0
    2.9471   -1.1344   -1.2260 C   0  0  0  0  0  0  0  0  0  0  0  0
    1.8627   -1.6253   -1.9210 C   0  0  0  0  0  0  0  0  0  0  0  0
    0.5992   -1.2153   -1.5541 C   0  0  0  0  0  0  0  0  0  0  0  0
    0.3815   -0.3322   -0.5172 C   0  0  0  0  0  0  0  0  0  0  0  0
   -0.9690    0.0591   -0.1828 C   0  0  0  0  0  0  0  0  0  0  0  0
   -1.4881    1.3575   -0.2106 C   0  0  0  0  0  0  0  0  0  0  0  0
   -0.7531    2.5608   -0.5833 C   0  0  0  0  0  0  0  0  0  0  0  0
   -0.5615    3.6251    0.2977 C   0  0  0  0  0  0  0  0  0  0  0  0
    0.1379    4.7520   -0.0781 C   0  0  0  0  0  0  0  0  0  0  0  0
    0.6767    4.8733   -1.3401 C   0  0  0  0  0  0  0  0  0  0  0  0
    1.3704    5.9705   -1.7386 F   0  0  0  0  0  0  0  0  0  0  0  0
    0.4945    3.8251   -2.2251 C   0  0  0  0  0  0  0  0  0  0  0  0
   -0.2103    2.6908   -1.8448 C   0  0  0  0  0  0  0  0  0  0  0  0
   -2.7782    1.2976    0.1665 N   0  0  0  0  0  0  0  0  0  0  0  0
   -3.0993    0.0390    0.4292 C   0  0  0  0  0  0  0  0  0  0  0  0
   -1.9991   -0.7080    0.2160 N   0  0  0  0  0  0  0  0  0  0  0  0
   -1.9763   -2.1463    0.4047 C   0  0  0  0  0  0  0  0  0  0  0  0
   -2.6404   -2.4680    1.7080 C   0  0  0  0  0  0  0  0  0  0  0  0
   -3.6937   -3.5014    1.4546 C   0  0  0  0  0  0  0  0  0  0  0  0
   -4.0800   -3.2751    0.0259 C   0  0  0  0  0  0  0  0  0  0  0  0
   -2.7969   -2.8718   -0.6277 C   0  0  0  0  0  0  0  0  0  0  0  0
    1.5009    0.1319    0.1492 C   0  0  0  0  0  0  0  0  0  0  0  0
    2.7464   -0.2749   -0.2157 N   0  0  0  0  0  0  0  0  0  0  0  0
    5.7371    2.2595    2.1546 H   0  0  0  0  0  0  0  0  0  0  0  0
    6.2177    0.5546    1.9812 H   0  0  0  0  0  0  0  0  0  0  0  0
    5.9562   -0.5006   -0.1715 H   0  0  0  0  0  0  0  0  0  0  0  0
    2.0295   -2.3241   -2.7420 H   0  0  0  0  0  0  0  0  0  0  0  0
   -0.2684   -1.6004   -2.1008 H   0  0  0  0  0  0  0  0  0  0  0  0
   -0.9933    3.5148    1.2926 H   0  0  0  0  0  0  0  0  0  0  0  0
    0.2826    5.5722    0.6089 H   0  0  0  0  0  0  0  0  0  0  0  0
    0.9242    3.9265   -3.2255 H   0  0  0  0  0  0  0  0  0  0  0  0
   -0.3132    1.9076   -2.5939 H   0  0  0  0  0  0  0  0  0  0  0  0
   -4.0822   -0.2811    0.7537 H   0  0  0  0  0  0  0  0  0  0  0  0
   -0.9342   -2.5140    0.4462 H   0  0  0  0  0  0  0  0  0  0  0  0
   -3.1167   -1.5726    2.1469 H   0  0  0  0  0  0  0  0  0  0  0  0
   -1.9242   -2.8694    2.4673 H   0  0  0  0  0  0  0  0  0  0  0  0
   -4.6039   -3.3186    2.0828 H   0  0  0  0  0  0  0  0  0  0  0  0
   -3.3251   -4.5354    1.5498 H   0  0  0  0  0  0  0  0  0  0  0  0
   -4.4412   -4.2109   -0.4708 H   0  0  0  0  0  0  0  0  0  0  0  0
   -4.8880   -2.5212   -0.0629 H   0  0  0  0  0  0  0  0  0  0  0  0
   -2.9179   -2.2162   -1.4988 H   0  0  0  0  0  0  0  0  0  0  0  0
   -2.2615   -3.7891   -1.0041 H   0  0  0  0  0  0  0  0  0  0  0  0
    1.3274    0.8230    0.9612 H   0  0  0  0  0  0  0  0  0  0  0  0
  1  2  1  0
  2  3  2  0
  2  4  1  0
  4  5  2  0
  5  6  1  0
  6  7  2  0
  7  8  1  0
  8  9  2  0
  9 10  1  0
 10 11  1  0
 11 12  2  0
 12 13  1  0
 13 14  2  0
 14 15  1  0
 15 16  2  0
 16 17  1  0
 16 18  1  0
 18 19  2  0
 12 20  1  0
 20 21  2  0
 21 22  1  0
 22 23  1  0
 23 24  1  0
 24 25  1  0
 25 26  1  0
 26 27  1  0
 10 28  2  0
 28 29  1  0
 29  4  1  0
 29  7  1  0
 22 11  1  0
 27 23  1  0
 19 13  1  0
  1 30  1  0
  1 31  1  0
  5 32  1  0
  8 33  1  0
  9 34  1  0
 14 35  1  0
 15 36  1  0
 18 37  1  0
 19 38  1  0
 21 39  1  0
 23 40  1  0
 24 41  1  0
 24 42  1  0
 25 43  1  0
 25 44  1  0
 26 45  1  0
 26 46  1  0
 27 47  1  0
 27 48  1  0
 28 49  1  0
M  END
$$$$
