
     RDKit          3D

 88 93  0  0  0  0  0  0  0  0999 V2000
   -8.6916   -0.2980    2.9159 C   0  0  0  0  0  0  0  0  0  0  0  0
   -8.8737   -1.0752    1.6142 C   0  0  0  0  0  0  0  0  0  0  0  0
   -9.2047   -0.1466    0.5063 C   0  0  0  0  0  0  0  0  0  0  0  0
  -10.4935   -0.0489    0.0325 C   0  0  0  0  0  0  0  0  0  0  0  0
  -10.8432    0.8052   -0.9946 C   0  0  0  0  0  0  0  0  0  0  0  0
   -9.8516    1.5879   -1.5620 C   0  0  0  0  0  0  0  0  0  0  0  0
   -8.5480    1.4977   -1.0924 C   0  0  0  0  0  0  0  0  0  0  0  0
   -7.4508    2.3176   -1.6732 C   0  0  0  0  0  0  0  0  0  0  0  0
   -7.1395    3.4348   -0.7234 C   0  0  0  0  0  0  0  0  0  0  0  0
   -8.2244    0.6323   -0.0602 C   0  0  0  0  0  0  0  0  0  0  0  0
   -6.9003    0.5229    0.4373 N   0  0  0  0  0  0  0  0  0  0  0  0
   -6.0050   -0.4034   -0.1302 C   0  0  0  0  0  0  0  0  0  0  0  0
   -6.4341   -1.1162   -1.0803 O   0  0  0  0  0  0  0  0  0  0  0  0
   -4.6438   -0.5721    0.3140 C   0  0  0  0  0  0  0  0  0  0  0  0
   -4.0214    0.0719    1.3117 N   0  0  0  0  0  0  0  0  0  0  0  0
   -2.7639   -0.3357    1.4216 N   0  0  0  0  0  0  0  0  0  0  0  0
   -1.7701    0.1157    2.3730 C   0  0  0  0  0  0  0  0  0  0  0  0
   -2.5420   -1.2691    0.4798 C   0  0  0  0  0  0  0  0  0  0  0  0
   -3.6981   -1.4418   -0.2300 C   0  0  0  0  0  0  0  0  0  0  0  0
   -3.8479   -2.3923   -1.3249 C   0  0  0  0  0  0  0  0  0  0  0  0
   -2.6432   -3.1106   -1.7569 C   0  0  0  0  0  0  0  0  0  0  0  0
   -1.4501   -2.9168   -0.9474 C   0  0  0  0  0  0  0  0  0  0  0  0
   -0.3014   -3.6745   -1.3018 C   0  0  0  0  0  0  0  0  0  0  0  0
    0.7938   -3.4905   -0.5906 N   0  0  0  0  0  0  0  0  0  0  0  0
    0.8624   -2.6181    0.4508 C   0  0  0  0  0  0  0  0  0  0  0  0
    2.1396   -2.5495    1.0820 N   0  0  0  0  0  0  0  0  0  0  0  0
    3.0271   -1.5535    0.5925 C   0  0  0  0  0  0  0  0  0  0  0  0
    2.6024   -0.6234   -0.3672 C   0  0  0  0  0  0  0  0  0  0  0  0
    3.4623    0.3587   -0.8086 C   0  0  0  0  0  0  0  0  0  0  0  0
    4.7477    0.4594   -0.3311 C   0  0  0  0  0  0  0  0  0  0  0  0
    5.6553    1.4929   -0.7900 C   0  0  0  0  0  0  0  0  0  0  0  0
    5.1875    2.3800   -1.5616 O   0  0  0  0  0  0  0  0  0  0  0  0
    7.0267    1.5868   -0.4431 N   0  0  0  0  0  0  0  0  0  0  0  0
    7.8891    2.6465   -0.9342 C   0  0  0  0  0  0  0  0  0  0  0  0
    8.5812    3.2963    0.2195 C   0  0  0  0  0  0  0  0  0  0  0  0
    9.6084    2.3881    0.8643 C   0  0  0  0  0  0  0  0  0  0  0  0
   10.5891    1.9530   -0.0881 N   0  0  0  0  0  0  0  0  0  0  0  0
   11.4595    0.9896    0.5680 C   0  0  0  0  0  0  0  0  0  0  0  0
   10.0101    1.3286   -1.2360 C   0  0  0  0  0  0  0  0  0  0  0  0
    8.9277    2.1113   -1.8977 C   0  0  0  0  0  0  0  0  0  0  0  0
    5.1454   -0.4647    0.6111 C   0  0  0  0  0  0  0  0  0  0  0  0
    4.3055   -1.4629    1.0745 C   0  0  0  0  0  0  0  0  0  0  0  0
    4.7211   -2.3903    2.0212 O   0  0  0  0  0  0  0  0  0  0  0  0
    5.3589   -3.5507    1.5235 C   0  0  0  0  0  0  0  0  0  0  0  0
    4.4988   -4.2125    0.6807 F   0  0  0  0  0  0  0  0  0  0  0  0
    5.8239   -4.3735    2.5270 F   0  0  0  0  0  0  0  0  0  0  0  0
    6.4213   -3.1241    0.7117 F   0  0  0  0  0  0  0  0  0  0  0  0
   -0.2078   -1.8962    0.8011 N   0  0  0  0  0  0  0  0  0  0  0  0
   -1.3673   -2.0492    0.0963 C   0  0  0  0  0  0  0  0  0  0  0  0
   -9.3771   -0.7115    3.6985 H   0  0  0  0  0  0  0  0  0  0  0  0
   -8.9318    0.7587    2.7078 H   0  0  0  0  0  0  0  0  0  0  0  0
   -7.6547   -0.4323    3.3189 H   0  0  0  0  0  0  0  0  0  0  0  0
   -9.6556   -1.8556    1.7413 H   0  0  0  0  0  0  0  0  0  0  0  0
   -7.9256   -1.6160    1.4069 H   0  0  0  0  0  0  0  0  0  0  0  0
  -11.2785   -0.6447    0.4553 H   0  0  0  0  0  0  0  0  0  0  0  0
  -11.8767    0.8727   -1.3631 H   0  0  0  0  0  0  0  0  0  0  0  0
  -10.0651    2.2694   -2.3628 H   0  0  0  0  0  0  0  0  0  0  0  0
   -6.5755    1.6166   -1.7818 H   0  0  0  0  0  0  0  0  0  0  0  0
   -7.7819    2.6917   -2.6729 H   0  0  0  0  0  0  0  0  0  0  0  0
   -7.7521    4.3243   -1.0278 H   0  0  0  0  0  0  0  0  0  0  0  0
   -7.4097    3.2358    0.3264 H   0  0  0  0  0  0  0  0  0  0  0  0
   -6.0716    3.7528   -0.7815 H   0  0  0  0  0  0  0  0  0  0  0  0
   -6.5499    1.1262    1.2387 H   0  0  0  0  0  0  0  0  0  0  0  0
   -0.9971    0.7095    1.8648 H   0  0  0  0  0  0  0  0  0  0  0  0
   -1.3795   -0.7073    2.9901 H   0  0  0  0  0  0  0  0  0  0  0  0
   -2.2807    0.8202    3.0864 H   0  0  0  0  0  0  0  0  0  0  0  0
   -4.6247   -3.1655   -1.0426 H   0  0  0  0  0  0  0  0  0  0  0  0
   -4.3242   -1.8297   -2.1997 H   0  0  0  0  0  0  0  0  0  0  0  0
   -2.3768   -2.7228   -2.7964 H   0  0  0  0  0  0  0  0  0  0  0  0
   -2.8531   -4.2197   -1.8794 H   0  0  0  0  0  0  0  0  0  0  0  0
   -0.3387   -4.3717   -2.1254 H   0  0  0  0  0  0  0  0  0  0  0  0
    2.3652   -3.1933    1.8487 H   0  0  0  0  0  0  0  0  0  0  0  0
    1.5877   -0.7033   -0.7439 H   0  0  0  0  0  0  0  0  0  0  0  0
    3.0827    1.0548   -1.5537 H   0  0  0  0  0  0  0  0  0  0  0  0
    7.4071    0.8528    0.1915 H   0  0  0  0  0  0  0  0  0  0  0  0
    7.3330    3.4183   -1.4974 H   0  0  0  0  0  0  0  0  0  0  0  0
    8.9880    4.2913   -0.0017 H   0  0  0  0  0  0  0  0  0  0  0  0
    7.7984    3.4667    1.0156 H   0  0  0  0  0  0  0  0  0  0  0  0
    9.0618    1.4854    1.2130 H   0  0  0  0  0  0  0  0  0  0  0  0
   10.0936    2.9514    1.6723 H   0  0  0  0  0  0  0  0  0  0  0  0
   11.4152    1.1480    1.6631 H   0  0  0  0  0  0  0  0  0  0  0  0
   10.9996   -0.0220    0.3773 H   0  0  0  0  0  0  0  0  0  0  0  0
   12.4860    1.0016    0.1553 H   0  0  0  0  0  0  0  0  0  0  0  0
   10.8288    1.2004   -1.9966 H   0  0  0  0  0  0  0  0  0  0  0  0
    9.7108    0.3000   -0.9599 H   0  0  0  0  0  0  0  0  0  0  0  0
    9.3866    3.0010   -2.3896 H   0  0  0  0  0  0  0  0  0  0  0  0
    8.4746    1.4932   -2.6923 H   0  0  0  0  0  0  0  0  0  0  0  0
    6.1342   -0.4642    1.0436 H   0  0  0  0  0  0  0  0  0  0  0  0
  1  2  1  0
  2  3  1  0
  3  4  2  0
  4  5  1  0
  5  6  2  0
  6  7  1  0
  7  8  1  0
  8  9  1  0
  7 10  2  0
 10 11  1  0
 11 12  1  0
 12 13  2  0
 12 14  1  0
 14 15  2  0
 15 16  1  0
 16 17  1  0
 16 18  1  0
 18 19  2  0
 19 20  1  0
 20 21  1  0
 21 22  1  0
 22 23  2  0
 23 24  1  0
 24 25  2  0
 25 26  1  0
 26 27  1  0
 27 28  2  0
 28 29  1  0
 29 30  2  0
 30 31  1  0
 31 32  2  0
 31 33  1  0
 33 34  1  0
 34 35  1  0
 35 36  1  0
 36 37  1  0
 37 38  1  0
 37 39  1  0
 39 40  1  0
 30 41  1  0
 41 42  2  0
 42 43  1  0
 43 44  1  0
 44 45  1  0
 44 46  1  0
 44 47  1  0
 25 48  1  0
 48 49  2  0
 10  3  1  0
 19 14  1  0
 49 22  1  0
 49 18  1  0
 42 27  1  0
 40 34  1  0
  1 50  1  0
  1 51  1  0
  1 52  1  0
  2 53  1  0
  2 54  1  0
  4 55  1  0
  5 56  1  0
  6 57  1  0
  8 58  1  0
  8 59  1  0
  9 60  1  0
  9 61  1  0
  9 62  1  0
 11 63  1  0
 17 64  1  0
 17 65  1  0
 17 66  1  0
 20 67  1  0
 20 68  1  0
 21 69  1  0
 21 70  1  0
 23 71  1  0
 26 72  1  0
 28 73  1  0
 29 74  1  0
 33 75  1  0
 34 76  1  0
 35 77  1  0
 35 78  1  0
 36 79  1  0
 36 80  1  0
 38 81  1  0
 38 82  1  0
 38 83  1  0
 39 84  1  0
 39 85  1  0
 40 86  1  0
 40 87  1  0
 41 88  1  0
M  END
$$$$
