
     RDKit          3D

 45 48  0  0  0  0  0  0  0  0999 V2000
   -1.2145    0.2919    1.0278 O   0  0  0  0  0  0  0  0  0  0  0  0
   -1.6081   -0.4524    0.0938 C   0  0  0  0  0  0  0  0  0  0  0  0
   -0.7531   -1.5866   -0.3964 C   0  0  0  0  0  0  0  0  0  0  0  0
    0.4955   -1.6015    0.3908 C   0  0  0  0  0  0  0  0  0  0  0  0
    1.5625   -0.8821   -0.0502 N   0  0  0  0  0  0  0  0  0  0  0  0
    2.7113   -0.8763    0.6444 C   0  0  0  0  0  0  0  0  0  0  0  0
    3.8126   -0.1313    0.1853 N   0  0  0  0  0  0  0  0  0  0  0  0
    3.8285    0.6599   -1.0084 C   0  0  0  0  0  0  0  0  0  0  0  0
    5.1849    0.5036   -1.6692 C   0  0  0  0  0  0  0  0  0  0  0  0
    6.2224    0.8875   -0.8621 O   0  0  0  0  0  0  0  0  0  0  0  0
    5.8628    1.0452    0.4693 C   0  0  0  0  0  0  0  0  0  0  0  0
    5.0535   -0.1504    0.9742 C   0  0  0  0  0  0  0  0  0  0  0  0
    2.7723   -1.6145    1.8045 C   0  0  0  0  0  0  0  0  0  0  0  0
    1.6739   -2.3542    2.2571 C   0  0  0  0  0  0  0  0  0  0  0  0
    1.7942   -3.0084    3.3259 O   0  0  0  0  0  0  0  0  0  0  0  0
    0.5446   -2.3288    1.5271 N   0  0  0  0  0  0  0  0  0  0  0  0
   -2.8616   -0.2278   -0.5046 N   0  0  0  0  0  0  0  0  0  0  0  0
   -3.4584   -0.9748   -1.5714 C   0  0  0  0  0  0  0  0  0  0  0  0
   -4.9364   -0.7438   -1.3826 C   0  0  0  0  0  0  0  0  0  0  0  0
   -5.0202    0.5351   -0.6543 C   0  0  0  0  0  0  0  0  0  0  0  0
   -6.0585    1.4332   -0.4144 C   0  0  0  0  0  0  0  0  0  0  0  0
   -7.6161    1.0129   -1.1017 Cl  0  0  0  0  0  0  0  0  0  0  0  0
   -5.9136    2.5871    0.3099 C   0  0  0  0  0  0  0  0  0  0  0  0
   -4.6632    2.8497    0.8174 C   0  0  0  0  0  0  0  0  0  0  0  0
   -3.6231    1.9823    0.5961 C   0  0  0  0  0  0  0  0  0  0  0  0
   -3.7718    0.8030   -0.1444 C   0  0  0  0  0  0  0  0  0  0  0  0
   -0.5557   -1.4989   -1.4828 H   0  0  0  0  0  0  0  0  0  0  0  0
   -1.2759   -2.5505   -0.2233 H   0  0  0  0  0  0  0  0  0  0  0  0
    3.0839    0.2792   -1.7665 H   0  0  0  0  0  0  0  0  0  0  0  0
    3.6274    1.7228   -0.8272 H   0  0  0  0  0  0  0  0  0  0  0  0
    5.3137   -0.5656   -1.9784 H   0  0  0  0  0  0  0  0  0  0  0  0
    5.1843    1.1337   -2.5833 H   0  0  0  0  0  0  0  0  0  0  0  0
    5.1933    1.9326    0.5276 H   0  0  0  0  0  0  0  0  0  0  0  0
    6.7618    1.1757    1.0873 H   0  0  0  0  0  0  0  0  0  0  0  0
    5.5991   -1.0913    0.8643 H   0  0  0  0  0  0  0  0  0  0  0  0
    4.7728    0.1001    2.0166 H   0  0  0  0  0  0  0  0  0  0  0  0
    3.6978   -1.6019    2.3520 H   0  0  0  0  0  0  0  0  0  0  0  0
   -0.2915   -2.8746    1.8455 H   0  0  0  0  0  0  0  0  0  0  0  0
   -3.1389   -0.6126   -2.5830 H   0  0  0  0  0  0  0  0  0  0  0  0
   -3.1986   -2.0574   -1.5498 H   0  0  0  0  0  0  0  0  0  0  0  0
   -5.4603   -0.6258   -2.3703 H   0  0  0  0  0  0  0  0  0  0  0  0
   -5.3924   -1.5874   -0.8255 H   0  0  0  0  0  0  0  0  0  0  0  0
   -6.7738    3.2295    0.4484 H   0  0  0  0  0  0  0  0  0  0  0  0
   -4.5396    3.7560    1.3891 H   0  0  0  0  0  0  0  0  0  0  0  0
   -2.6281    2.1836    0.9953 H   0  0  0  0  0  0  0  0  0  0  0  0
  1  2  2  0
  2  3  1  0
  3  4  1  0
  4  5  2  0
  5  6  1  0
  6  7  1  0
  7  8  1  0
  8  9  1  0
  9 10  1  0
 10 11  1  0
 11 12  1  0
  6 13  2  0
 13 14  1  0
 14 15  2  0
 14 16  1  0
  2 17  1  0
 17 18  1  0
 18 19  1  0
 19 20  1  0
 20 21  2  0
 21 22  1  0
 21 23  1  0
 23 24  2  0
 24 25  1  0
 25 26  2  0
 16  4  1  0
 26 17  1  0
 12  7  1  0
 26 20  1  0
  3 27  1  0
  3 28  1  0
  8 29  1  0
  8 30  1  0
  9 31  1  0
  9 32  1  0
 11 33  1  0
 11 34  1  0
 12 35  1  0
 12 36  1  0
 13 37  1  0
 16 38  1  0
 18 39  1  0
 18 40  1  0
 19 41  1  0
 19 42  1  0
 23 43  1  0
 24 44  1  0
 25 45  1  0
M  END
$$$$
