
     RDKit          3D

 56 60  0  0  0  0  0  0  0  0999 V2000
    6.2838   -0.0114   -0.6241 C   0  0  0  0  0  0  0  0  0  0  0  0
    5.4722   -1.4990   -1.2998 S   0  0  0  0  0  0  0  0  0  0  0  0
    4.4539   -2.1670    0.0373 C   0  0  0  0  0  0  0  0  0  0  0  0
    5.0089   -3.0871    0.9005 C   0  0  0  0  0  0  0  0  0  0  0  0
    4.2338   -3.5959    1.9467 C   0  0  0  0  0  0  0  0  0  0  0  0
    2.9339   -3.1429    2.0619 C   0  0  0  0  0  0  0  0  0  0  0  0
    2.3815   -2.2154    1.1883 C   0  0  0  0  0  0  0  0  0  0  0  0
    3.1617   -1.7328    0.1719 C   0  0  0  0  0  0  0  0  0  0  0  0
    2.6664   -0.7779   -0.7579 N   0  0  0  0  0  0  0  0  0  0  0  0
    1.3704   -0.2301   -0.6685 C   0  0  0  0  0  0  0  0  0  0  0  0
    1.1801    1.0373   -0.2804 N   0  0  0  0  0  0  0  0  0  0  0  0
   -0.0499    1.5765   -0.1656 C   0  0  0  0  0  0  0  0  0  0  0  0
   -0.1478    2.9394    0.2324 N   0  0  0  0  0  0  0  0  0  0  0  0
   -1.2334    3.3961    1.0792 C   0  0  0  0  0  0  0  0  0  0  0  0
   -1.6625    4.7965    0.8111 C   0  0  0  0  0  0  0  0  0  0  0  0
   -0.5801    5.7292    0.6938 N   0  0  0  0  0  0  0  0  0  0  0  0
    0.7302    5.1301    0.6577 C   0  0  0  0  0  0  0  0  0  0  0  0
    0.8238    3.9253   -0.2171 C   0  0  0  0  0  0  0  0  0  0  0  0
   -1.1241    0.8264   -0.4483 N   0  0  0  0  0  0  0  0  0  0  0  0
   -1.0138   -0.4449   -0.8415 C   0  0  0  0  0  0  0  0  0  0  0  0
   -2.1319   -1.2198   -1.1250 C   0  0  0  0  0  0  0  0  0  0  0  0
   -3.3950   -0.6072   -1.0094 N   0  0  0  0  0  0  0  0  0  0  0  0
   -4.5900   -1.3704   -1.2881 C   0  0  0  0  0  0  0  0  0  0  0  0
   -4.7169   -2.5543   -0.3364 C   0  0  0  0  0  0  0  0  0  0  0  0
   -4.7936   -2.2557    1.1422 C   0  0  0  0  0  0  0  0  0  0  0  0
   -6.0378   -2.6203    0.4297 C   0  0  0  0  0  0  0  0  0  0  0  0
   -1.9313   -2.4868   -1.5018 N   0  0  0  0  0  0  0  0  0  0  0  0
   -0.7092   -3.0454   -1.6219 C   0  0  0  0  0  0  0  0  0  0  0  0
    0.3542   -2.2779   -1.3437 N   0  0  0  0  0  0  0  0  0  0  0  0
    0.2568   -1.0021   -0.9589 C   0  0  0  0  0  0  0  0  0  0  0  0
    7.2628   -0.3526   -0.1901 H   0  0  0  0  0  0  0  0  0  0  0  0
    6.4254    0.7730   -1.3971 H   0  0  0  0  0  0  0  0  0  0  0  0
    5.7085    0.3615    0.2465 H   0  0  0  0  0  0  0  0  0  0  0  0
    6.0250   -3.4328    0.8022 H   0  0  0  0  0  0  0  0  0  0  0  0
    4.6274   -4.3235    2.6464 H   0  0  0  0  0  0  0  0  0  0  0  0
    2.3128   -3.5173    2.8624 H   0  0  0  0  0  0  0  0  0  0  0  0
    1.3602   -1.8641    1.2801 H   0  0  0  0  0  0  0  0  0  0  0  0
    3.2610   -0.4278   -1.5689 H   0  0  0  0  0  0  0  0  0  0  0  0
   -2.0938    2.7153    0.9016 H   0  0  0  0  0  0  0  0  0  0  0  0
   -0.9463    3.3339    2.1612 H   0  0  0  0  0  0  0  0  0  0  0  0
   -2.3105    4.8998   -0.0993 H   0  0  0  0  0  0  0  0  0  0  0  0
   -2.2686    5.1292    1.7027 H   0  0  0  0  0  0  0  0  0  0  0  0
   -0.7504    6.4171   -0.0815 H   0  0  0  0  0  0  0  0  0  0  0  0
    1.0873    4.9827    1.6889 H   0  0  0  0  0  0  0  0  0  0  0  0
    1.4305    5.9010    0.2035 H   0  0  0  0  0  0  0  0  0  0  0  0
    0.4471    4.2425   -1.2300 H   0  0  0  0  0  0  0  0  0  0  0  0
    1.8598    3.5581   -0.2284 H   0  0  0  0  0  0  0  0  0  0  0  0
   -3.4725    0.3920   -0.7250 H   0  0  0  0  0  0  0  0  0  0  0  0
   -5.5075   -0.7370   -1.2286 H   0  0  0  0  0  0  0  0  0  0  0  0
   -4.4580   -1.8008   -2.3028 H   0  0  0  0  0  0  0  0  0  0  0  0
   -4.3549   -3.5293   -0.6977 H   0  0  0  0  0  0  0  0  0  0  0  0
   -4.3594   -3.0075    1.8189 H   0  0  0  0  0  0  0  0  0  0  0  0
   -4.5835   -1.1856    1.3987 H   0  0  0  0  0  0  0  0  0  0  0  0
   -6.4848   -3.6148    0.5971 H   0  0  0  0  0  0  0  0  0  0  0  0
   -6.8099   -1.8315    0.2137 H   0  0  0  0  0  0  0  0  0  0  0  0
   -0.6015   -4.0939   -1.9371 H   0  0  0  0  0  0  0  0  0  0  0  0
  1  2  1  0
  2  3  1  0
  3  4  2  0
  4  5  1  0
  5  6  2  0
  6  7  1  0
  7  8  2  0
  8  9  1  0
  9 10  1  0
 10 11  2  0
 11 12  1  0
 12 13  1  0
 13 14  1  0
 14 15  1  0
 15 16  1  0
 16 17  1  0
 17 18  1  0
 12 19  2  0
 19 20  1  0
 20 21  2  0
 21 22  1  0
 22 23  1  0
 23 24  1  0
 24 25  1  0
 25 26  1  0
 21 27  1  0
 27 28  2  0
 28 29  1  0
 29 30  2  0
  8  3  1  0
 30 10  1  0
 18 13  1  0
 30 20  1  0
 26 24  1  0
  1 31  1  0
  1 32  1  0
  1 33  1  0
  4 34  1  0
  5 35  1  0
  6 36  1  0
  7 37  1  0
  9 38  1  0
 14 39  1  0
 14 40  1  0
 15 41  1  0
 15 42  1  0
 16 43  1  0
 17 44  1  0
 17 45  1  0
 18 46  1  0
 18 47  1  0
 22 48  1  0
 23 49  1  0
 23 50  1  0
 24 51  1  0
 25 52  1  0
 25 53  1  0
 26 54  1  0
 26 55  1  0
 28 56  1  0
M  END
$$$$
