
     RDKit          3D

 56 61  0  0  0  0  0  0  0  0999 V2000
   -6.7061    2.5063    4.6550 C   0  0  0  0  0  0  0  0  0  0  0  0
   -6.6095    1.6842    3.3680 C   0  0  0  0  0  0  0  0  0  0  0  0
   -5.3108    1.9009    2.8471 O   0  0  0  0  0  0  0  0  0  0  0  0
   -4.8822    1.2996    1.6744 C   0  0  0  0  0  0  0  0  0  0  0  0
   -5.7069    0.5502    1.0957 O   0  0  0  0  0  0  0  0  0  0  0  0
   -3.5441    1.5319    1.1510 C   0  0  0  0  0  0  0  0  0  0  0  0
   -2.5658    2.2983    1.6544 N   0  0  0  0  0  0  0  0  0  0  0  0
   -1.5011    2.2240    0.8532 C   0  0  0  0  0  0  0  0  0  0  0  0
   -1.7658    1.3713   -0.2414 C   0  0  0  0  0  0  0  0  0  0  0  0
   -3.0442    0.9519   -0.0347 C   0  0  0  0  0  0  0  0  0  0  0  0
   -3.6592    0.0608   -0.9542 N   0  0  0  0  0  0  0  0  0  0  0  0
   -2.8750   -0.3504   -2.0678 C   0  0  0  0  0  0  0  0  0  0  0  0
   -1.6488    0.0418   -2.2788 C   0  0  0  0  0  0  0  0  0  0  0  0
   -0.9334   -0.4647   -3.4872 C   0  0  0  0  0  0  0  0  0  0  0  0
   -0.1059    0.2467   -4.0980 O   0  0  0  0  0  0  0  0  0  0  0  0
   -1.2110   -1.8377   -3.9697 C   0  0  0  0  0  0  0  0  0  0  0  0
   -2.4819   -2.3816   -3.3297 C   0  0  0  0  0  0  0  0  0  0  0  0
   -3.4790   -1.2889   -3.0895 C   0  0  0  0  0  0  0  0  0  0  0  0
   -0.9642    0.9598   -1.3769 C   0  0  0  0  0  0  0  0  0  0  0  0
    0.3832    0.4783   -0.9881 C   0  0  0  0  0  0  0  0  0  0  0  0
    1.4818    1.2765   -0.8516 C   0  0  0  0  0  0  0  0  0  0  0  0
    2.5173    0.4418   -0.4823 C   0  0  0  0  0  0  0  0  0  0  0  0
    1.9728   -0.8210   -0.4185 C   0  0  0  0  0  0  0  0  0  0  0  0
    2.8825   -2.3177    0.0218 S   0  0  0  0  0  0  0  0  0  0  0  0
    4.5938   -1.9120    0.3625 C   0  0  0  0  0  0  0  0  0  0  0  0
    5.5295   -1.9164   -0.5945 N   0  0  0  0  0  0  0  0  0  0  0  0
    6.7146   -1.5746   -0.0512 C   0  0  0  0  0  0  0  0  0  0  0  0
    7.9949   -1.4221   -0.5597 C   0  0  0  0  0  0  0  0  0  0  0  0
    9.0577   -1.0553    0.2319 C   0  0  0  0  0  0  0  0  0  0  0  0
    8.8187   -0.8373    1.5722 C   0  0  0  0  0  0  0  0  0  0  0  0
    9.8781   -0.4767    2.3358 F   0  0  0  0  0  0  0  0  0  0  0  0
    7.5456   -0.9898    2.0737 C   0  0  0  0  0  0  0  0  0  0  0  0
    7.3298   -0.7721    3.3893 F   0  0  0  0  0  0  0  0  0  0  0  0
    6.4576   -1.3607    1.2865 C   0  0  0  0  0  0  0  0  0  0  0  0
    5.1638   -1.5711    1.5159 N   0  0  0  0  0  0  0  0  0  0  0  0
    0.6890   -0.7602   -0.7286 O   0  0  0  0  0  0  0  0  0  0  0  0
   -7.6390    2.2151    5.1812 H   0  0  0  0  0  0  0  0  0  0  0  0
   -5.8228    2.3350    5.3037 H   0  0  0  0  0  0  0  0  0  0  0  0
   -6.7601    3.5807    4.4410 H   0  0  0  0  0  0  0  0  0  0  0  0
   -6.8498    0.6339    3.5435 H   0  0  0  0  0  0  0  0  0  0  0  0
   -7.3967    2.0968    2.6921 H   0  0  0  0  0  0  0  0  0  0  0  0
   -2.6889    2.8385    2.5367 H   0  0  0  0  0  0  0  0  0  0  0  0
   -0.5509    2.7155    0.9668 H   0  0  0  0  0  0  0  0  0  0  0  0
   -4.6312   -0.2579   -0.7977 H   0  0  0  0  0  0  0  0  0  0  0  0
   -1.2367   -1.9162   -5.0742 H   0  0  0  0  0  0  0  0  0  0  0  0
   -0.3825   -2.4874   -3.6192 H   0  0  0  0  0  0  0  0  0  0  0  0
   -2.9361   -3.1187   -4.0176 H   0  0  0  0  0  0  0  0  0  0  0  0
   -2.2742   -2.8643   -2.3523 H   0  0  0  0  0  0  0  0  0  0  0  0
   -4.3723   -1.7307   -2.6449 H   0  0  0  0  0  0  0  0  0  0  0  0
   -3.7097   -0.7215   -4.0091 H   0  0  0  0  0  0  0  0  0  0  0  0
   -0.8101    1.9183   -1.9949 H   0  0  0  0  0  0  0  0  0  0  0  0
    1.5840    2.3567   -0.9916 H   0  0  0  0  0  0  0  0  0  0  0  0
    3.5651    0.7168   -0.2785 H   0  0  0  0  0  0  0  0  0  0  0  0
    8.1536   -1.5968   -1.6010 H   0  0  0  0  0  0  0  0  0  0  0  0
   10.0620   -0.9418   -0.1985 H   0  0  0  0  0  0  0  0  0  0  0  0
    4.6802   -1.4861    2.4287 H   0  0  0  0  0  0  0  0  0  0  0  0
  1  2  1  0
  2  3  1  0
  3  4  1  0
  4  5  2  0
  4  6  1  0
  6  7  1  0
  7  8  1  0
  8  9  2  0
  9 10  1  0
 10 11  1  0
 11 12  1  0
 12 13  2  0
 13 14  1  0
 14 15  2  0
 14 16  1  0
 16 17  1  0
 17 18  1  0
 13 19  1  0
 19 20  1  0
 20 21  2  0
 21 22  1  0
 22 23  2  0
 23 24  1  0
 24 25  1  0
 25 26  2  0
 26 27  1  0
 27 28  2  0
 28 29  1  0
 29 30  2  0
 30 31  1  0
 30 32  1  0
 32 33  1  0
 32 34  2  0
 34 35  1  0
 23 36  1  0
 10  6  2  0
 18 12  1  0
 36 20  1  0
 19  9  1  0
 35 25  1  0
 34 27  1  0
  1 37  1  0
  1 38  1  0
  1 39  1  0
  2 40  1  0
  2 41  1  0
  7 42  1  0
  8 43  1  0
 11 44  1  0
 16 45  1  0
 16 46  1  0
 17 47  1  0
 17 48  1  0
 18 49  1  0
 18 50  1  0
 19 51  1  0
 21 52  1  0
 22 53  1  0
 28 54  1  0
 29 55  1  0
 35 56  1  0
M  END
$$$$
