
     RDKit          3D

 86 88  0  0  0  0  0  0  0  0999 V2000
    0.9715   -3.2804   -5.0963 C   0  0  0  0  0  0  0  0  0  0  0  0
    1.5264   -3.4575   -3.6987 C   0  0  0  0  0  0  0  0  0  0  0  0
    0.4465   -3.9845   -2.7823 C   0  0  0  0  0  0  0  0  0  0  0  0
   -0.7446   -3.1006   -2.6600 C   0  0  0  0  0  0  0  0  0  0  0  0
   -0.4119   -1.7453   -2.1051 C   0  0  2  0  0  0  0  0  0  0  0  0
    0.1633   -1.8026   -0.7930 N   0  0  0  0  0  0  0  0  0  0  0  0
    1.4273   -1.2677   -0.4331 C   0  0  0  0  0  0  0  0  0  0  0  0
    2.1132   -0.6851   -1.3180 O   0  0  0  0  0  0  0  0  0  0  0  0
    1.9768   -1.3588    0.9139 C   0  0  2  0  0  0  0  0  0  0  0  0
    1.2296   -0.7666    2.0226 C   0  0  0  0  0  0  0  0  0  0  0  0
    2.0400    0.4235    2.5001 C   0  0  0  0  0  0  0  0  0  0  0  0
    3.0525    0.6103    1.3741 C   0  0  0  0  0  0  0  0  0  0  0  0
    3.3162   -0.7343    0.9840 N   0  0  0  0  0  0  0  0  0  0  0  0
    4.4965   -1.3957    0.7039 C   0  0  0  0  0  0  0  0  0  0  0  0
    4.3802   -2.6421    0.3551 O   0  0  0  0  0  0  0  0  0  0  0  0
    5.8884   -0.9319    0.7274 C   0  0  2  0  0  0  0  0  0  0  0  0
    6.7803   -1.8667    1.5202 C   0  0  0  0  0  0  0  0  0  0  0  0
    6.0654    0.3947    1.2418 N   0  0  0  0  0  0  0  0  0  0  0  0
    6.3875    1.4679    0.3439 C   0  0  0  0  0  0  0  0  0  0  0  0
    6.5078    1.2224   -0.8901 O   0  0  0  0  0  0  0  0  0  0  0  0
    6.5704    2.8377    0.8897 C   0  0  0  0  0  0  0  0  0  0  0  0
    6.3774    2.8173    2.3278 N   0  0  0  0  0  0  0  0  0  0  0  0
    7.3105    2.4859    3.0866 N   0  0  0  0  0  4  0  0  0  0  0  0
    8.2517    1.9200    3.6462 N   0  0  0  0  0  2  0  0  0  0  0  0
   -1.5887   -0.8205   -2.1924 C   0  0  0  0  0  0  0  0  0  0  0  0
   -2.1667   -0.7173   -3.3161 O   0  0  0  0  0  0  0  0  0  0  0  0
   -2.0947   -0.0619   -1.1195 N   0  0  0  0  0  0  0  0  0  0  0  0
   -3.2515    0.8262   -1.2667 C   0  0  1  0  0  0  0  0  0  0  0  0
   -4.4219    0.3311   -0.5038 C   0  0  0  0  0  0  0  0  0  0  0  0
   -4.2603    0.1636    0.9724 C   0  0  0  0  0  0  0  0  0  0  0  0
   -5.6007   -0.3642    1.4696 C   0  0  0  0  0  0  0  0  0  0  0  0
   -5.6487   -0.4324    2.9732 C   0  0  0  0  0  0  0  0  0  0  0  0
   -5.4730    0.9934    3.4982 C   0  0  0  0  0  0  0  0  0  0  0  0
   -4.0685    1.4070    3.1350 C   0  0  0  0  0  0  0  0  0  0  0  0
   -3.8950    1.4517    1.6201 C   0  0  0  0  0  0  0  0  0  0  0  0
   -2.8846    2.2365   -1.1355 C   0  0  0  0  0  0  0  0  0  0  0  0
   -1.7283    2.5648   -0.8299 O   0  0  0  0  0  0  0  0  0  0  0  0
   -3.8183    3.3580   -1.3504 C   0  0  1  0  0  0  0  0  0  0  0  0
   -3.4797    4.7130   -0.7534 C   0  0  0  0  0  0  0  0  0  0  0  0
   -4.5017    3.3720   -2.7215 C   0  0  0  0  0  0  0  0  0  0  0  0
   -5.1854    3.1389   -1.5419 O   0  0  0  0  0  0  0  0  0  0  0  0
    0.2232   -4.0552   -5.2857 H   0  0  0  0  0  0  0  0  0  0  0  0
    1.8252   -3.3305   -5.7997 H   0  0  0  0  0  0  0  0  0  0  0  0
    0.5028   -2.3017   -5.2347 H   0  0  0  0  0  0  0  0  0  0  0  0
    1.9535   -2.5236   -3.3156 H   0  0  0  0  0  0  0  0  0  0  0  0
    2.3017   -4.2497   -3.7696 H   0  0  0  0  0  0  0  0  0  0  0  0
    0.9412   -4.1842   -1.8048 H   0  0  0  0  0  0  0  0  0  0  0  0
    0.1676   -4.9886   -3.1951 H   0  0  0  0  0  0  0  0  0  0  0  0
   -1.4987   -3.6418   -2.0531 H   0  0  0  0  0  0  0  0  0  0  0  0
   -1.1886   -2.9882   -3.6746 H   0  0  0  0  0  0  0  0  0  0  0  0
    0.3355   -1.2877   -2.7943 H   0  0  0  0  0  0  0  0  0  0  0  0
   -0.3542   -2.2700    0.0083 H   0  0  0  0  0  0  0  0  0  0  0  0
    2.1019   -2.4660    1.1179 H   0  0  0  0  0  0  0  0  0  0  0  0
    0.1752   -0.4974    1.8313 H   0  0  0  0  0  0  0  0  0  0  0  0
    1.1998   -1.4670    2.8995 H   0  0  0  0  0  0  0  0  0  0  0  0
    1.4462    1.3202    2.6816 H   0  0  0  0  0  0  0  0  0  0  0  0
    2.6325    0.2058    3.4107 H   0  0  0  0  0  0  0  0  0  0  0  0
    3.8741    1.2261    1.7048 H   0  0  0  0  0  0  0  0  0  0  0  0
    2.5498    1.1763    0.5480 H   0  0  0  0  0  0  0  0  0  0  0  0
    6.2463   -0.9558   -0.3468 H   0  0  0  0  0  0  0  0  0  0  0  0
    7.4427   -1.3004    2.2088 H   0  0  0  0  0  0  0  0  0  0  0  0
    6.1921   -2.5838    2.1420 H   0  0  0  0  0  0  0  0  0  0  0  0
    7.4331   -2.4334    0.8454 H   0  0  0  0  0  0  0  0  0  0  0  0
    5.9886    0.6092    2.2703 H   0  0  0  0  0  0  0  0  0  0  0  0
    5.7987    3.5063    0.4130 H   0  0  0  0  0  0  0  0  0  0  0  0
    7.5713    3.1986    0.6144 H   0  0  0  0  0  0  0  0  0  0  0  0
   -1.6069   -0.1551   -0.1950 H   0  0  0  0  0  0  0  0  0  0  0  0
   -3.5578    0.7083   -2.3612 H   0  0  0  0  0  0  0  0  0  0  0  0
   -5.2635    1.0603   -0.6368 H   0  0  0  0  0  0  0  0  0  0  0  0
   -4.7561   -0.6234   -0.9952 H   0  0  0  0  0  0  0  0  0  0  0  0
   -3.5118   -0.6195    1.2439 H   0  0  0  0  0  0  0  0  0  0  0  0
   -6.4538    0.2294    1.1221 H   0  0  0  0  0  0  0  0  0  0  0  0
   -5.7224   -1.3939    1.0779 H   0  0  0  0  0  0  0  0  0  0  0  0
   -6.6523   -0.7589    3.2681 H   0  0  0  0  0  0  0  0  0  0  0  0
   -4.8784   -1.0796    3.4054 H   0  0  0  0  0  0  0  0  0  0  0  0
   -5.5915    1.0379    4.5857 H   0  0  0  0  0  0  0  0  0  0  0  0
   -6.1930    1.6675    3.0193 H   0  0  0  0  0  0  0  0  0  0  0  0
   -3.7677    2.3777    3.5269 H   0  0  0  0  0  0  0  0  0  0  0  0
   -3.3777    0.6424    3.5371 H   0  0  0  0  0  0  0  0  0  0  0  0
   -2.8130    1.6375    1.4753 H   0  0  0  0  0  0  0  0  0  0  0  0
   -4.4492    2.3085    1.2145 H   0  0  0  0  0  0  0  0  0  0  0  0
   -2.4038    4.9233   -0.9166 H   0  0  0  0  0  0  0  0  0  0  0  0
   -4.1011    5.4607   -1.2903 H   0  0  0  0  0  0  0  0  0  0  0  0
   -3.7900    4.7068    0.2952 H   0  0  0  0  0  0  0  0  0  0  0  0
   -4.6646    4.3312   -3.2198 H   0  0  0  0  0  0  0  0  0  0  0  0
   -4.3620    2.5017   -3.3770 H   0  0  0  0  0  0  0  0  0  0  0  0
  1  2  1  0
  2  3  1  0
  3  4  1  0
  4  5  1  0
  5  6  1  0
  6  7  1  0
  7  8  2  0
  7  9  1  0
  9 10  1  0
 10 11  1  0
 11 12  1  0
 12 13  1  0
 13 14  1  0
 14 15  2  0
 14 16  1  0
 16 17  1  0
 16 18  1  0
 18 19  1  0
 19 20  2  0
 19 21  1  0
 21 22  1  0
 22 23  2  0
 23 24  2  0
  5 25  1  0
 25 26  2  0
 25 27  1  0
 27 28  1  0
 28 29  1  0
 29 30  1  0
 30 31  1  0
 31 32  1  0
 32 33  1  0
 33 34  1  0
 34 35  1  0
 28 36  1  0
 36 37  2  0
 36 38  1  0
 38 39  1  1
 38 40  1  0
 40 41  1  0
 13  9  1  0
 35 30  1  0
 41 38  1  0
  1 42  1  0
  1 43  1  0
  1 44  1  0
  2 45  1  0
  2 46  1  0
  3 47  1  0
  3 48  1  0
  4 49  1  0
  4 50  1  0
  5 51  1  6
  6 52  1  0
  9 53  1  1
 10 54  1  0
 10 55  1  0
 11 56  1  0
 11 57  1  0
 12 58  1  0
 12 59  1  0
 16 60  1  6
 17 61  1  0
 17 62  1  0
 17 63  1  0
 18 64  1  0
 21 65  1  0
 21 66  1  0
 27 67  1  0
 28 68  1  6
 29 69  1  0
 29 70  1  0
 30 71  1  0
 31 72  1  0
 31 73  1  0
 32 74  1  0
 32 75  1  0
 33 76  1  0
 33 77  1  0
 34 78  1  0
 34 79  1  0
 35 80  1  0
 35 81  1  0
 39 82  1  0
 39 83  1  0
 39 84  1  0
 40 85  1  0
 40 86  1  0
M  CHG  2  23   1  24  -1
M  END
$$$$
