
     RDKit          3D

 38 41  0  0  0  0  0  0  0  0999 V2000
   -4.1091   -1.8667    3.2400 N   0  0  0  0  0  0  0  0  0  0  0  0
   -3.7724   -1.9310    2.1181 C   0  0  0  0  0  0  0  0  0  0  0  0
   -3.3711   -2.0012    0.7421 C   0  0  0  0  0  0  0  0  0  0  0  0
   -3.9901   -2.8332   -0.1985 C   0  0  0  0  0  0  0  0  0  0  0  0
   -3.3608   -2.6403   -1.3720 N   0  0  0  0  0  0  0  0  0  0  0  0
   -2.3845   -1.7272   -1.1896 C   0  0  0  0  0  0  0  0  0  0  0  0
   -1.4374   -1.1491   -2.0183 C   0  0  0  0  0  0  0  0  0  0  0  0
   -0.5259   -0.2021   -1.5421 C   0  0  0  0  0  0  0  0  0  0  0  0
   -0.5824    0.1534   -0.2193 C   0  0  0  0  0  0  0  0  0  0  0  0
    0.3438    1.1275    0.3174 C   0  0  0  0  0  0  0  0  0  0  0  0
    1.6853    0.9291    0.4964 C   0  0  0  0  0  0  0  0  0  0  0  0
    2.5321   -0.2239    0.2230 C   0  0  0  0  0  0  0  0  0  0  0  0
    2.8870   -0.6425   -1.0323 C   0  0  0  0  0  0  0  0  0  0  0  0
    3.6886   -1.7465   -1.2245 C   0  0  0  0  0  0  0  0  0  0  0  0
    4.1433   -2.4447   -0.1311 C   0  0  0  0  0  0  0  0  0  0  0  0
    3.8069   -2.0529    1.1402 C   0  0  0  0  0  0  0  0  0  0  0  0
    3.0034   -0.9452    1.3050 C   0  0  0  0  0  0  0  0  0  0  0  0
    2.1562    2.0894    1.0194 N   0  0  0  0  0  0  0  0  0  0  0  0
    1.1497    2.9619    1.1556 C   0  0  0  0  0  0  0  0  0  0  0  0
    0.0421    2.3680    0.7245 N   0  0  0  0  0  0  0  0  0  0  0  0
   -1.2915    2.9235    0.6802 C   0  0  0  0  0  0  0  0  0  0  0  0
   -1.5815    3.6283   -0.6210 C   0  0  0  0  0  0  0  0  0  0  0  0
   -0.7439    4.6701   -0.8807 F   0  0  0  0  0  0  0  0  0  0  0  0
   -2.8676    4.1279   -0.5445 F   0  0  0  0  0  0  0  0  0  0  0  0
   -1.5275   -0.4363    0.5656 N   0  0  0  0  0  0  0  0  0  0  0  0
   -2.3855   -1.3282    0.1146 N   0  0  0  0  0  0  0  0  0  0  0  0
   -4.8229   -3.5012    0.0067 H   0  0  0  0  0  0  0  0  0  0  0  0
   -1.3778   -1.4189   -3.0684 H   0  0  0  0  0  0  0  0  0  0  0  0
    0.2078    0.2524   -2.1825 H   0  0  0  0  0  0  0  0  0  0  0  0
    2.5338   -0.0894   -1.8986 H   0  0  0  0  0  0  0  0  0  0  0  0
    3.9716   -2.0806   -2.2217 H   0  0  0  0  0  0  0  0  0  0  0  0
    4.7810   -3.3235   -0.2867 H   0  0  0  0  0  0  0  0  0  0  0  0
    4.1633   -2.6015    2.0035 H   0  0  0  0  0  0  0  0  0  0  0  0
    2.7124   -0.5999    2.3028 H   0  0  0  0  0  0  0  0  0  0  0  0
    1.2818    3.9751    1.5592 H   0  0  0  0  0  0  0  0  0  0  0  0
   -2.0295    2.1063    0.7851 H   0  0  0  0  0  0  0  0  0  0  0  0
   -1.4049    3.5985    1.5605 H   0  0  0  0  0  0  0  0  0  0  0  0
   -1.5235    2.8747   -1.4282 H   0  0  0  0  0  0  0  0  0  0  0  0
  1  2  3  0
  2  3  1  0
  3  4  2  0
  4  5  1  0
  5  6  2  0
  6  7  1  0
  7  8  2  0
  8  9  1  0
  9 10  1  0
 10 11  2  0
 11 12  1  0
 12 13  2  0
 13 14  1  0
 14 15  2  0
 15 16  1  0
 16 17  2  0
 11 18  1  0
 18 19  2  0
 19 20  1  0
 20 21  1  0
 21 22  1  0
 22 23  1  0
 22 24  1  0
  9 25  2  0
 25 26  1  0
 26  3  1  0
 26  6  1  0
 20 10  1  0
 17 12  1  0
  4 27  1  0
  7 28  1  0
  8 29  1  0
 13 30  1  0
 14 31  1  0
 15 32  1  0
 16 33  1  0
 17 34  1  0
 19 35  1  0
 21 36  1  0
 21 37  1  0
 22 38  1  0
M  END
$$$$
