
     RDKit          3D

 61 68  0  0  0  0  0  0  0  0999 V2000
   -4.8326   -0.7659    1.5513 C   0  0  0  0  0  0  0  0  0  0  0  0
   -3.4451   -1.0302    1.4994 N   0  0  0  0  0  0  0  0  0  0  0  0
   -2.8260   -1.1295    0.2059 C   0  0  2  0  0  0  0  0  0  0  0  0
   -1.5173   -1.8613    0.4691 C   0  0  0  0  0  0  0  0  0  0  0  0
   -0.7500   -1.9740   -0.8291 C   0  0  1  0  0  0  0  0  0  0  0  0
   -0.9652   -1.0328   -1.7199 O   0  0  0  0  0  0  0  0  0  0  0  0
   -1.3616    0.2585   -1.3419 C   0  0  1  0  0  0  0  0  0  0  0  0
   -1.7377    0.8695   -2.7196 C   0  0  0  0  0  0  0  0  0  0  0  0
   -2.5926    0.1524   -0.5273 C   0  0  2  0  0  0  0  0  0  0  0  0
   -2.8759    1.2059    0.2888 O   0  0  0  0  0  0  0  0  0  0  0  0
   -3.9568    1.9811   -0.0236 C   0  0  0  0  0  0  0  0  0  0  0  0
   -0.2311    0.9796   -0.8007 N   0  0  0  0  0  0  0  0  0  0  0  0
   -0.0800    2.3049   -0.7672 C   0  0  0  0  0  0  0  0  0  0  0  0
   -0.8581    3.3751   -1.1417 C   0  0  0  0  0  0  0  0  0  0  0  0
   -0.4610    4.6873   -1.0083 C   0  0  0  0  0  0  0  0  0  0  0  0
    0.7688    5.0005   -0.4794 C   0  0  0  0  0  0  0  0  0  0  0  0
    1.5708    3.9698   -0.0964 C   0  0  0  0  0  0  0  0  0  0  0  0
    1.1713    2.6518   -0.2306 C   0  0  0  0  0  0  0  0  0  0  0  0
    1.7826    1.4834    0.0627 C   0  0  0  0  0  0  0  0  0  0  0  0
    3.0183    1.1445    0.5726 C   0  0  0  0  0  0  0  0  0  0  0  0
    3.4310   -0.1810    0.7494 C   0  0  0  0  0  0  0  0  0  0  0  0
    2.5524   -1.1915    0.3957 C   0  0  0  0  0  0  0  0  0  0  0  0
    2.6138   -2.5670    0.4421 C   0  0  0  0  0  0  0  0  0  0  0  0
    3.5455   -3.4892    0.8319 C   0  0  0  0  0  0  0  0  0  0  0  0
    3.2946   -4.8421    0.7519 C   0  0  0  0  0  0  0  0  0  0  0  0
    2.0743   -5.2596    0.2668 C   0  0  0  0  0  0  0  0  0  0  0  0
    1.1197   -4.3498   -0.1321 C   0  0  0  0  0  0  0  0  0  0  0  0
    1.3824   -3.0053   -0.0472 C   0  0  0  0  0  0  0  0  0  0  0  0
    0.6402   -1.9464   -0.3628 N   0  0  0  0  0  0  0  0  0  0  0  0
    1.3129   -0.8146   -0.1143 C   0  0  0  0  0  0  0  0  0  0  0  0
    0.9360    0.4972   -0.2800 C   0  0  0  0  0  0  0  0  0  0  0  0
    4.7583   -0.1906    1.2928 C   0  0  0  0  0  0  0  0  0  0  0  0
    5.5046   -1.1251    1.6038 O   0  0  0  0  0  0  0  0  0  0  0  0
    5.1718    1.1645    1.4540 N   0  0  0  0  0  0  0  0  0  0  0  0
    4.1268    2.0191    1.0240 C   0  0  0  0  0  0  0  0  0  0  0  0
   -5.4179   -1.5486    2.0980 H   0  0  0  0  0  0  0  0  0  0  0  0
   -5.0099    0.2377    1.9813 H   0  0  0  0  0  0  0  0  0  0  0  0
   -5.2282   -0.7638    0.5096 H   0  0  0  0  0  0  0  0  0  0  0  0
   -3.2183   -1.8280    2.1287 H   0  0  0  0  0  0  0  0  0  0  0  0
   -3.4500   -1.8687   -0.3798 H   0  0  0  0  0  0  0  0  0  0  0  0
   -0.9845   -1.3046    1.2468 H   0  0  0  0  0  0  0  0  0  0  0  0
   -1.7505   -2.8706    0.8518 H   0  0  0  0  0  0  0  0  0  0  0  0
   -0.9724   -2.9748   -1.2512 H   0  0  0  0  0  0  0  0  0  0  0  0
   -2.7640    1.3115   -2.6752 H   0  0  0  0  0  0  0  0  0  0  0  0
   -0.9567    1.5476   -3.0819 H   0  0  0  0  0  0  0  0  0  0  0  0
   -1.8461    0.0936   -3.5064 H   0  0  0  0  0  0  0  0  0  0  0  0
   -3.4451    0.1810   -1.3030 H   0  0  0  0  0  0  0  0  0  0  0  0
   -4.0066    2.7867    0.7671 H   0  0  0  0  0  0  0  0  0  0  0  0
   -4.9407    1.5074   -0.0467 H   0  0  0  0  0  0  0  0  0  0  0  0
   -3.8974    2.5525   -0.9731 H   0  0  0  0  0  0  0  0  0  0  0  0
   -1.8022    3.1772   -1.5633 H   0  0  0  0  0  0  0  0  0  0  0  0
   -1.1197    5.4958   -1.3219 H   0  0  0  0  0  0  0  0  0  0  0  0
    1.0520    6.0349   -0.3871 H   0  0  0  0  0  0  0  0  0  0  0  0
    2.5423    4.1899    0.3220 H   0  0  0  0  0  0  0  0  0  0  0  0
    4.4930   -3.2072    1.2087 H   0  0  0  0  0  0  0  0  0  0  0  0
    4.0337   -5.5900    1.0614 H   0  0  0  0  0  0  0  0  0  0  0  0
    1.8668   -6.3086    0.1996 H   0  0  0  0  0  0  0  0  0  0  0  0
    0.1493   -4.6642   -0.5181 H   0  0  0  0  0  0  0  0  0  0  0  0
    6.0914    1.4999    1.8266 H   0  0  0  0  0  0  0  0  0  0  0  0
    4.5152    2.6030    0.1451 H   0  0  0  0  0  0  0  0  0  0  0  0
    3.7812    2.7214    1.8206 H   0  0  0  0  0  0  0  0  0  0  0  0
  1  2  1  0
  2  3  1  0
  3  4  1  0
  4  5  1  0
  5  6  1  0
  6  7  1  0
  7  8  1  6
  7  9  1  0
  9 10  1  0
 10 11  1  0
  7 12  1  0
 12 13  1  0
 13 14  2  0
 14 15  1  0
 15 16  2  0
 16 17  1  0
 17 18  2  0
 18 19  1  0
 19 20  2  0
 20 21  1  0
 21 22  2  0
 22 23  1  0
 23 24  2  0
 24 25  1  0
 25 26  2  0
 26 27  1  0
 27 28  2  0
 28 29  1  0
 29 30  1  0
 30 31  2  0
 21 32  1  0
 32 33  2  0
 32 34  1  0
 34 35  1  0
  9  3  1  0
 31 12  1  0
 29  5  1  0
 18 13  1  0
 31 19  1  0
 35 20  1  0
 30 22  1  0
 28 23  1  0
  1 36  1  0
  1 37  1  0
  1 38  1  0
  2 39  1  0
  3 40  1  6
  4 41  1  0
  4 42  1  0
  5 43  1  6
  8 44  1  0
  8 45  1  0
  8 46  1  0
  9 47  1  6
 11 48  1  0
 11 49  1  0
 11 50  1  0
 14 51  1  0
 15 52  1  0
 16 53  1  0
 17 54  1  0
 24 55  1  0
 25 56  1  0
 26 57  1  0
 27 58  1  0
 34 59  1  0
 35 60  1  0
 35 61  1  0
M  END
$$$$
