
     RDKit          3D

 18 17  0  0  0  0  0  0  0  0999 V2000
   -3.0889    0.5437    0.1429 N   0  0  0  0  0  0  0  0  0  0  0  0
   -2.0596   -0.4249   -0.1991 C   0  0  0  0  0  0  0  0  0  0  0  0
   -0.7069    0.0039    0.2862 C   0  0  0  0  0  0  0  0  0  0  0  0
   -0.6650    1.0677    0.8781 O   0  0  0  0  0  0  0  0  0  0  0  0
    0.3140   -1.0148   -0.0847 C   0  0  0  0  0  0  0  0  0  0  0  0
    1.6787   -0.5906    0.4006 C   0  0  0  0  0  0  0  0  0  0  0  0
    2.1105    0.7183   -0.1889 C   0  0  0  0  0  0  0  0  0  0  0  0
    3.3855    1.0764    0.2887 O   0  0  0  0  0  0  0  0  0  0  0  0
    1.6364    1.5839   -0.9982 O   0  0  0  0  0  0  0  0  0  0  0  0
   -3.8178    0.6028   -0.6131 H   0  0  0  0  0  0  0  0  0  0  0  0
   -2.6355    1.4794    0.2225 H   0  0  0  0  0  0  0  0  0  0  0  0
   -2.2826   -1.3702    0.3392 H   0  0  0  0  0  0  0  0  0  0  0  0
   -2.0336   -0.6647   -1.2792 H   0  0  0  0  0  0  0  0  0  0  0  0
    0.2887   -1.2858   -1.1387 H   0  0  0  0  0  0  0  0  0  0  0  0
    0.0523   -1.9143    0.5122 H   0  0  0  0  0  0  0  0  0  0  0  0
    1.6435   -0.5170    1.5103 H   0  0  0  0  0  0  0  0  0  0  0  0
    2.4332   -1.3323    0.0748 H   0  0  0  0  0  0  0  0  0  0  0  0
    3.7470    2.0384    0.2063 H   0  0  0  0  0  0  0  0  0  0  0  0
  1  2  1  0
  2  3  1  0
  3  4  2  0
  3  5  1  0
  5  6  1  0
  6  7  1  0
  7  8  1  0
  7  9  2  0
  1 10  1  0
  1 11  1  0
  2 12  1  0
  2 13  1  0
  5 14  1  0
  5 15  1  0
  6 16  1  0
  6 17  1  0
  8 18  1  0
M  END
$$$$
