
     RDKit          3D

 35 36  0  0  0  0  0  0  0  0999 V2000
   -5.5028    0.1129   -0.5621 N   0  0  0  0  0  0  0  0  0  0  0  0
   -4.1221   -0.1872   -0.4129 C   0  0  0  0  0  0  0  0  0  0  0  0
   -3.6123   -0.9902   -1.2531 N   0  0  0  0  0  0  0  0  0  0  0  0
   -3.3193    0.3677    0.6176 N   0  0  0  0  0  0  0  0  0  0  0  0
   -1.9454    0.5271    0.4087 N   0  0  0  0  0  0  0  0  0  0  0  0
   -1.0160   -0.5016    0.7434 C   0  0  0  0  0  0  0  0  0  0  0  0
   -1.7324   -1.4471    1.2137 O   0  0  0  0  0  0  0  0  0  0  0  0
    0.3675   -0.2265    0.4850 N   0  0  0  0  0  0  0  0  0  0  0  0
    0.7943    1.0082   -0.0765 C   0  0  0  0  0  0  0  0  0  0  0  0
    1.1591    2.1822    0.5667 C   0  0  0  0  0  0  0  0  0  0  0  0
    1.5397    3.2557   -0.1942 C   0  0  0  0  0  0  0  0  0  0  0  0
    1.5690    3.1982   -1.5781 C   0  0  0  0  0  0  0  0  0  0  0  0
    1.2074    2.0323   -2.2372 C   0  0  0  0  0  0  0  0  0  0  0  0
    0.8253    0.9553   -1.4667 C   0  0  0  0  0  0  0  0  0  0  0  0
    1.4007   -1.1643    0.7709 C   0  0  0  0  0  0  0  0  0  0  0  0
    2.7528   -0.9054    0.5225 C   0  0  0  0  0  0  0  0  0  0  0  0
    3.7534   -1.8024    0.7947 C   0  0  0  0  0  0  0  0  0  0  0  0
    3.4597   -3.0237    1.3367 C   0  0  0  0  0  0  0  0  0  0  0  0
    2.1602   -3.3285    1.5989 C   0  0  0  0  0  0  0  0  0  0  0  0
    1.1758   -2.4121    1.3169 C   0  0  0  0  0  0  0  0  0  0  0  0
   -5.9348    0.6989    0.1639 H   0  0  0  0  0  0  0  0  0  0  0  0
   -6.1053    0.6889    0.0716 H   0  0  0  0  0  0  0  0  0  0  0  0
   -4.0853   -1.4516   -2.0340 H   0  0  0  0  0  0  0  0  0  0  0  0
   -3.8102    0.6426    1.5202 H   0  0  0  0  0  0  0  0  0  0  0  0
   -1.7164    1.4764   -0.0127 H   0  0  0  0  0  0  0  0  0  0  0  0
    1.0966    2.1049    1.6285 H   0  0  0  0  0  0  0  0  0  0  0  0
    1.8111    4.1383    0.3706 H   0  0  0  0  0  0  0  0  0  0  0  0
    1.8714    4.0548   -2.1465 H   0  0  0  0  0  0  0  0  0  0  0  0
    1.2435    2.0280   -3.3137 H   0  0  0  0  0  0  0  0  0  0  0  0
    0.5590    0.0833   -2.0775 H   0  0  0  0  0  0  0  0  0  0  0  0
    2.9810    0.0629    0.0933 H   0  0  0  0  0  0  0  0  0  0  0  0
    4.7718   -1.4898    0.5584 H   0  0  0  0  0  0  0  0  0  0  0  0
    4.3011   -3.6592    1.5159 H   0  0  0  0  0  0  0  0  0  0  0  0
    1.9230   -4.3080    2.0337 H   0  0  0  0  0  0  0  0  0  0  0  0
    0.1789   -2.7211    1.5495 H   0  0  0  0  0  0  0  0  0  0  0  0
  1  2  1  0
  2  3  2  3
  2  4  1  0
  4  5  1  0
  5  6  1  0
  6  7  2  0
  6  8  1  0
  8  9  1  0
  9 10  2  0
 10 11  1  0
 11 12  2  0
 12 13  1  0
 13 14  2  0
  8 15  1  0
 15 16  2  0
 16 17  1  0
 17 18  2  0
 18 19  1  0
 19 20  2  0
 14  9  1  0
 20 15  1  0
  1 21  1  0
  1 22  1  0
  3 23  1  0
  4 24  1  0
  5 25  1  0
 10 26  1  0
 11 27  1  0
 12 28  1  0
 13 29  1  0
 14 30  1  0
 16 31  1  0
 17 32  1  0
 18 33  1  0
 19 34  1  0
 20 35  1  0
M  END
$$$$
