
     RDKit          3D

 56 61  0  0  0  0  0  0  0  0999 V2000
   -7.6449    2.4314    0.2561 C   0  0  0  0  0  0  0  0  0  0  0  0
   -6.7384    2.1275    1.4499 C   0  0  0  0  0  0  0  0  0  0  0  0
   -5.5589    1.5255    0.8925 O   0  0  0  0  0  0  0  0  0  0  0  0
   -4.7663    2.1909   -0.0151 C   0  0  0  0  0  0  0  0  0  0  0  0
   -5.1129    3.3500   -0.3406 O   0  0  0  0  0  0  0  0  0  0  0  0
   -3.5643    1.6252   -0.6069 C   0  0  0  0  0  0  0  0  0  0  0  0
   -2.7850    2.2694   -1.4942 N   0  0  0  0  0  0  0  0  0  0  0  0
   -1.7696    1.4551   -1.8266 C   0  0  0  0  0  0  0  0  0  0  0  0
   -1.9032    0.2575   -1.1329 C   0  0  0  0  0  0  0  0  0  0  0  0
   -3.0245    0.3686   -0.3732 C   0  0  0  0  0  0  0  0  0  0  0  0
   -3.4332   -0.6978    0.4551 N   0  0  0  0  0  0  0  0  0  0  0  0
   -2.6445   -1.8784    0.4700 C   0  0  0  0  0  0  0  0  0  0  0  0
   -1.5585   -1.9988   -0.2593 C   0  0  0  0  0  0  0  0  0  0  0  0
   -0.8401   -3.2731   -0.1466 C   0  0  0  0  0  0  0  0  0  0  0  0
    0.3387   -3.3419   -0.5747 O   0  0  0  0  0  0  0  0  0  0  0  0
   -1.4327   -4.4871    0.4470 C   0  0  0  0  0  0  0  0  0  0  0  0
   -2.9253   -4.2897    0.6056 C   0  0  0  0  0  0  0  0  0  0  0  0
   -3.1147   -2.9881    1.3647 C   0  0  0  0  0  0  0  0  0  0  0  0
   -1.0562   -0.9505   -1.1466 C   0  0  0  0  0  0  0  0  0  0  0  0
    0.3541   -0.5932   -0.8705 C   0  0  0  0  0  0  0  0  0  0  0  0
    1.0191   -0.5505    0.3374 C   0  0  0  0  0  0  0  0  0  0  0  0
    2.3103   -0.1611    0.0608 C   0  0  0  0  0  0  0  0  0  0  0  0
    2.3821    0.0168   -1.2909 C   0  0  0  0  0  0  0  0  0  0  0  0
    3.7894    0.5221   -2.2835 S   0  0  0  0  0  0  0  0  0  0  0  0
    5.2151    0.7933   -1.2311 C   0  0  0  0  0  0  0  0  0  0  0  0
    5.3464    0.6758    0.0833 N   0  0  0  0  0  0  0  0  0  0  0  0
    6.6062    0.9807    0.4558 C   0  0  0  0  0  0  0  0  0  0  0  0
    7.3036    1.0345    1.6444 C   0  0  0  0  0  0  0  0  0  0  0  0
    8.6280    1.3930    1.7108 C   0  0  0  0  0  0  0  0  0  0  0  0
    9.2870    1.7133    0.5309 C   0  0  0  0  0  0  0  0  0  0  0  0
   10.5860    2.0706    0.5468 F   0  0  0  0  0  0  0  0  0  0  0  0
    8.6249    1.6710   -0.6733 C   0  0  0  0  0  0  0  0  0  0  0  0
    9.2584    1.9811   -1.8268 F   0  0  0  0  0  0  0  0  0  0  0  0
    7.2947    1.3064   -0.7013 C   0  0  0  0  0  0  0  0  0  0  0  0
    6.4092    1.1794   -1.7086 N   0  0  0  0  0  0  0  0  0  0  0  0
    1.2157   -0.2476   -1.7880 O   0  0  0  0  0  0  0  0  0  0  0  0
   -8.6777    2.0254    0.4627 H   0  0  0  0  0  0  0  0  0  0  0  0
   -7.3106    1.9232   -0.6599 H   0  0  0  0  0  0  0  0  0  0  0  0
   -7.6866    3.5168    0.0399 H   0  0  0  0  0  0  0  0  0  0  0  0
   -6.4906    3.0897    1.9150 H   0  0  0  0  0  0  0  0  0  0  0  0
   -7.2600    1.4462    2.1193 H   0  0  0  0  0  0  0  0  0  0  0  0
   -2.9298    3.2271   -1.8661 H   0  0  0  0  0  0  0  0  0  0  0  0
   -0.9737    1.7035   -2.5289 H   0  0  0  0  0  0  0  0  0  0  0  0
   -4.3009   -0.6104    1.0423 H   0  0  0  0  0  0  0  0  0  0  0  0
   -0.9494   -4.7705    1.4047 H   0  0  0  0  0  0  0  0  0  0  0  0
   -1.2734   -5.3169   -0.2575 H   0  0  0  0  0  0  0  0  0  0  0  0
   -3.3289   -4.1152   -0.4183 H   0  0  0  0  0  0  0  0  0  0  0  0
   -3.4129   -5.1375    1.0970 H   0  0  0  0  0  0  0  0  0  0  0  0
   -4.1878   -2.8888    1.5780 H   0  0  0  0  0  0  0  0  0  0  0  0
   -2.5444   -3.0252    2.2946 H   0  0  0  0  0  0  0  0  0  0  0  0
   -1.0943   -1.3370   -2.2014 H   0  0  0  0  0  0  0  0  0  0  0  0
    0.5807   -0.7842    1.2987 H   0  0  0  0  0  0  0  0  0  0  0  0
    3.1059   -0.0218    0.7505 H   0  0  0  0  0  0  0  0  0  0  0  0
    6.7696    0.7803    2.5553 H   0  0  0  0  0  0  0  0  0  0  0  0
    9.2002    1.4445    2.6230 H   0  0  0  0  0  0  0  0  0  0  0  0
    6.6688    1.3695   -2.7203 H   0  0  0  0  0  0  0  0  0  0  0  0
  1  2  1  0
  2  3  1  0
  3  4  1  0
  4  5  2  0
  4  6  1  0
  6  7  1  0
  7  8  1  0
  8  9  2  0
  9 10  1  0
 10 11  1  0
 11 12  1  0
 12 13  2  0
 13 14  1  0
 14 15  2  0
 14 16  1  0
 16 17  1  0
 17 18  1  0
 13 19  1  0
 19 20  1  0
 20 21  2  0
 21 22  1  0
 22 23  2  0
 23 24  1  0
 24 25  1  0
 25 26  2  0
 26 27  1  0
 27 28  2  0
 28 29  1  0
 29 30  2  0
 30 31  1  0
 30 32  1  0
 32 33  1  0
 32 34  2  0
 34 35  1  0
 23 36  1  0
 10  6  2  0
 18 12  1  0
 36 20  1  0
 19  9  1  0
 35 25  1  0
 34 27  1  0
  1 37  1  0
  1 38  1  0
  1 39  1  0
  2 40  1  0
  2 41  1  0
  7 42  1  0
  8 43  1  0
 11 44  1  0
 16 45  1  0
 16 46  1  0
 17 47  1  0
 17 48  1  0
 18 49  1  0
 18 50  1  0
 19 51  1  0
 21 52  1  0
 22 53  1  0
 28 54  1  0
 29 55  1  0
 35 56  1  0
M  END
$$$$
