
     RDKit          3D

 54 57  0  0  0  0  0  0  0  0999 V2000
   -4.4634    5.3691   -2.9246 C   0  0  0  0  0  0  0  0  0  0  0  0
   -3.5180    4.4620   -2.2473 C   0  0  0  0  0  0  0  0  0  0  0  0
   -2.2213    4.5963   -1.9032 C   0  0  0  0  0  0  0  0  0  0  0  0
   -1.6628    3.5777   -1.2985 N   0  0  0  0  0  0  0  0  0  0  0  0
   -2.1465    2.5426   -1.0091 C   0  0  0  0  0  0  0  0  0  0  0  0
   -1.8358    1.2547   -0.3668 C   0  0  0  0  0  0  0  0  0  0  0  0
   -2.7700    0.2894   -0.2465 C   0  0  0  0  0  0  0  0  0  0  0  0
   -2.4924   -0.9422    0.3617 C   0  0  0  0  0  0  0  0  0  0  0  0
   -3.4738   -1.8659    0.4497 O   0  0  0  0  0  0  0  0  0  0  0  0
   -3.4635   -3.1391    0.9928 C   0  0  2  0  0  0  0  0  0  0  0  0
   -3.8069   -4.1220   -0.1329 C   0  0  0  0  0  0  0  0  0  0  0  0
   -4.4917   -5.2206    0.6644 C   0  0  0  0  0  0  0  0  0  0  0  0
   -5.2990   -4.4862    1.5125 O   0  0  0  0  0  0  0  0  0  0  0  0
   -4.5943   -3.3987    1.9575 C   0  0  0  0  0  0  0  0  0  0  0  0
   -1.2248   -1.1424    0.8389 C   0  0  0  0  0  0  0  0  0  0  0  0
   -0.2396   -0.1728    0.7325 C   0  0  0  0  0  0  0  0  0  0  0  0
    1.0767   -0.4448    1.2552 C   0  0  0  0  0  0  0  0  0  0  0  0
    1.3317   -1.5654    1.8090 O   0  0  0  0  0  0  0  0  0  0  0  0
    2.1496    0.4847    1.1933 N   0  0  0  0  0  0  0  0  0  0  0  0
    3.4526    0.1108    1.7550 C   0  0  2  0  0  0  0  0  0  0  0  0
    3.9148    1.1082    2.7758 C   0  0  0  0  0  0  0  0  0  0  0  0
    4.4455    0.1107    0.6345 C   0  0  0  0  0  0  0  0  0  0  0  0
    4.4695    1.1509   -0.2799 C   0  0  0  0  0  0  0  0  0  0  0  0
    5.3668    1.1242   -1.2697 N   0  0  0  0  0  0  0  0  0  0  0  0
    6.2524    0.1243   -1.4162 C   0  0  0  0  0  0  0  0  0  0  0  0
    7.2563    0.0772   -2.5090 C   0  0  0  0  0  0  0  0  0  0  0  0
    8.4435   -0.3526   -1.9490 F   0  0  0  0  0  0  0  0  0  0  0  0
    7.4810    1.3228   -3.0669 F   0  0  0  0  0  0  0  0  0  0  0  0
    6.7879   -0.8112   -3.4586 F   0  0  0  0  0  0  0  0  0  0  0  0
    6.2283   -0.8785   -0.5336 N   0  0  0  0  0  0  0  0  0  0  0  0
    5.3489   -0.9216    0.4957 C   0  0  0  0  0  0  0  0  0  0  0  0
   -0.5739    1.0176    0.1243 C   0  0  0  0  0  0  0  0  0  0  0  0
   -3.8982    2.8050   -1.6622 S   0  0  0  0  0  0  0  0  0  0  0  0
   -4.0119    5.8815   -3.7944 H   0  0  0  0  0  0  0  0  0  0  0  0
   -4.8236    6.1007   -2.1672 H   0  0  0  0  0  0  0  0  0  0  0  0
   -5.3708    4.8042   -3.2476 H   0  0  0  0  0  0  0  0  0  0  0  0
   -1.6704    5.5335   -2.1303 H   0  0  0  0  0  0  0  0  0  0  0  0
   -3.7640    0.4421   -0.6189 H   0  0  0  0  0  0  0  0  0  0  0  0
   -2.4811   -3.3842    1.4007 H   0  0  0  0  0  0  0  0  0  0  0  0
   -4.5473   -3.6919   -0.8228 H   0  0  0  0  0  0  0  0  0  0  0  0
   -2.8915   -4.4845   -0.6277 H   0  0  0  0  0  0  0  0  0  0  0  0
   -3.7734   -5.8639    1.1833 H   0  0  0  0  0  0  0  0  0  0  0  0
   -5.0918   -5.8244   -0.0492 H   0  0  0  0  0  0  0  0  0  0  0  0
   -5.2047   -2.5177    2.1655 H   0  0  0  0  0  0  0  0  0  0  0  0
   -4.1108   -3.6943    2.9281 H   0  0  0  0  0  0  0  0  0  0  0  0
   -0.9492   -2.0632    1.3146 H   0  0  0  0  0  0  0  0  0  0  0  0
    2.0034    1.4167    0.7531 H   0  0  0  0  0  0  0  0  0  0  0  0
    3.4222   -0.8991    2.1730 H   0  0  0  0  0  0  0  0  0  0  0  0
    3.2113    1.9487    2.9269 H   0  0  0  0  0  0  0  0  0  0  0  0
    4.8958    1.5667    2.5153 H   0  0  0  0  0  0  0  0  0  0  0  0
    4.0724    0.6272    3.7734 H   0  0  0  0  0  0  0  0  0  0  0  0
    3.7509    1.9629   -0.1615 H   0  0  0  0  0  0  0  0  0  0  0  0
    5.3495   -1.7443    1.1967 H   0  0  0  0  0  0  0  0  0  0  0  0
    0.1552    1.8190    0.0101 H   0  0  0  0  0  0  0  0  0  0  0  0
  1  2  1  0
  2  3  2  0
  3  4  1  0
  4  5  2  0
  5  6  1  0
  6  7  2  0
  7  8  1  0
  8  9  1  0
  9 10  1  0
 10 11  1  0
 11 12  1  0
 12 13  1  0
 13 14  1  0
  8 15  2  0
 15 16  1  0
 16 17  1  0
 17 18  2  0
 17 19  1  0
 19 20  1  0
 20 21  1  0
 20 22  1  0
 22 23  2  0
 23 24  1  0
 24 25  2  0
 25 26  1  0
 26 27  1  0
 26 28  1  0
 26 29  1  0
 25 30  1  0
 30 31  2  0
 16 32  2  0
  5 33  1  0
 33  2  1  0
 32  6  1  0
 14 10  1  0
 31 22  1  0
  1 34  1  0
  1 35  1  0
  1 36  1  0
  3 37  1  0
  7 38  1  0
 10 39  1  1
 11 40  1  0
 11 41  1  0
 12 42  1  0
 12 43  1  0
 14 44  1  0
 14 45  1  0
 15 46  1  0
 19 47  1  0
 20 48  1  1
 21 49  1  0
 21 50  1  0
 21 51  1  0
 23 52  1  0
 31 53  1  0
 32 54  1  0
M  END
$$$$
