
     RDKit          3D

 77 81  0  0  0  0  0  0  0  0999 V2000
   -8.3503    4.4227   -0.5042 C   0  0  0  0  0  0  0  0  0  0  0  0
   -8.8981    3.0905   -0.0205 C   0  0  0  0  0  0  0  0  0  0  0  0
   -7.9324    2.0568   -0.0619 O   0  0  0  0  0  0  0  0  0  0  0  0
   -8.2591    0.7494    0.2583 C   0  0  0  0  0  0  0  0  0  0  0  0
   -9.4416    0.2477    0.5998 N   0  0  0  0  0  0  0  0  0  0  0  0
   -9.3870   -1.0342    0.8300 N   0  0  0  0  0  0  0  0  0  0  0  0
  -10.4728   -1.9420    1.2273 C   0  0  0  0  0  0  0  0  0  0  0  0
   -8.0720   -1.3840    0.6218 C   0  0  0  0  0  0  0  0  0  0  0  0
   -7.3152   -0.3049    0.2643 C   0  0  0  0  0  0  0  0  0  0  0  0
   -5.9397   -0.1294    0.0898 N   0  0  0  0  0  0  0  0  0  0  0  0
   -4.8368   -0.9297    0.4027 C   0  0  0  0  0  0  0  0  0  0  0  0
   -4.9137   -2.1328    1.0466 C   0  0  0  0  0  0  0  0  0  0  0  0
   -3.7855   -2.8522    1.3880 N   0  0  0  0  0  0  0  0  0  0  0  0
   -2.6001   -2.3447    1.0764 C   0  0  0  0  0  0  0  0  0  0  0  0
   -1.3739   -3.1125    1.4315 C   0  0  0  0  0  0  0  0  0  0  0  0
   -2.4520   -1.1343    0.4283 C   0  0  0  0  0  0  0  0  0  0  0  0
   -1.1149   -0.6320    0.1622 C   0  0  0  0  0  0  0  0  0  0  0  0
   -0.1551   -0.3505    1.1614 C   0  0  0  0  0  0  0  0  0  0  0  0
    0.9547    0.1288    0.5744 N   0  0  0  0  0  0  0  0  0  0  0  0
    0.7930    0.1833   -0.7545 C   0  0  0  0  0  0  0  0  0  0  0  0
    1.6569    0.5945   -1.7455 C   0  0  0  0  0  0  0  0  0  0  0  0
    2.9454    1.0868   -1.3832 N   0  0  0  0  0  0  0  0  0  0  0  0
    4.0739    0.2500   -1.1763 C   0  0  0  0  0  0  0  0  0  0  0  0
    3.8354   -0.9981   -1.3424 O   0  0  0  0  0  0  0  0  0  0  0  0
    5.4285    0.7394   -0.8006 C   0  0  1  0  0  0  0  0  0  0  0  0
    5.3663    1.5207    0.4952 C   0  0  0  0  0  0  0  0  0  0  0  0
    4.5251    2.6179    0.4114 O   0  0  0  0  0  0  0  0  0  0  0  0
    4.5084    3.3031    1.6145 C   0  0  0  0  0  0  0  0  0  0  0  0
    6.2868   -0.3767   -0.7329 N   0  0  0  0  0  0  0  0  0  0  0  0
    6.0424   -1.3924    0.2065 C   0  0  0  0  0  0  0  0  0  0  0  0
    7.2972   -1.9218    0.8707 C   0  0  0  0  0  0  0  0  0  0  0  0
    8.5054   -1.3113    0.4050 N   0  0  0  0  0  0  0  0  0  0  0  0
    8.9368   -0.1645    1.1487 C   0  0  0  0  0  0  0  0  0  0  0  0
    8.5975   -1.1397   -1.0203 C   0  0  0  0  0  0  0  0  0  0  0  0
    7.3720   -0.4851   -1.6121 C   0  0  0  0  0  0  0  0  0  0  0  0
    1.1955    0.5208   -3.0452 C   0  0  0  0  0  0  0  0  0  0  0  0
   -0.0699    0.0599   -3.3580 C   0  0  0  0  0  0  0  0  0  0  0  0
   -0.8883   -0.3374   -2.3160 C   0  0  0  0  0  0  0  0  0  0  0  0
   -0.4825   -0.2865   -1.0023 C   0  0  0  0  0  0  0  0  0  0  0  0
   -3.5629   -0.4723    0.1133 N   0  0  0  0  0  0  0  0  0  0  0  0
   -7.4169    4.6013    0.0857 H   0  0  0  0  0  0  0  0  0  0  0  0
   -8.1520    4.4503   -1.5745 H   0  0  0  0  0  0  0  0  0  0  0  0
   -9.0609    5.2238   -0.1651 H   0  0  0  0  0  0  0  0  0  0  0  0
   -9.1927    3.1943    1.0418 H   0  0  0  0  0  0  0  0  0  0  0  0
   -9.7769    2.8858   -0.6936 H   0  0  0  0  0  0  0  0  0  0  0  0
  -11.1294   -2.0942    0.3465 H   0  0  0  0  0  0  0  0  0  0  0  0
  -10.0203   -2.9247    1.4639 H   0  0  0  0  0  0  0  0  0  0  0  0
  -10.9833   -1.5815    2.1221 H   0  0  0  0  0  0  0  0  0  0  0  0
   -7.7736   -2.4130    0.7202 H   0  0  0  0  0  0  0  0  0  0  0  0
   -5.6568    0.8061   -0.3941 H   0  0  0  0  0  0  0  0  0  0  0  0
   -5.8578   -2.5452    1.3270 H   0  0  0  0  0  0  0  0  0  0  0  0
   -0.4717   -2.7423    0.9501 H   0  0  0  0  0  0  0  0  0  0  0  0
   -1.5915   -4.1848    1.1643 H   0  0  0  0  0  0  0  0  0  0  0  0
   -1.2951   -3.1245    2.5470 H   0  0  0  0  0  0  0  0  0  0  0  0
   -0.3259   -0.5071    2.2149 H   0  0  0  0  0  0  0  0  0  0  0  0
    1.8444    0.4279    1.0747 H   0  0  0  0  0  0  0  0  0  0  0  0
    3.0559    2.1261   -1.2727 H   0  0  0  0  0  0  0  0  0  0  0  0
    5.8560    1.4472   -1.5601 H   0  0  0  0  0  0  0  0  0  0  0  0
    5.0153    0.8978    1.3428 H   0  0  0  0  0  0  0  0  0  0  0  0
    6.3638    1.9139    0.7794 H   0  0  0  0  0  0  0  0  0  0  0  0
    4.1650    2.6992    2.4686 H   0  0  0  0  0  0  0  0  0  0  0  0
    5.5180    3.7063    1.8845 H   0  0  0  0  0  0  0  0  0  0  0  0
    3.7776    4.1453    1.5024 H   0  0  0  0  0  0  0  0  0  0  0  0
    5.2737   -1.0782    0.9406 H   0  0  0  0  0  0  0  0  0  0  0  0
    5.5763   -2.2642   -0.3275 H   0  0  0  0  0  0  0  0  0  0  0  0
    7.3095   -3.0247    0.8647 H   0  0  0  0  0  0  0  0  0  0  0  0
    7.1979   -1.6410    1.9591 H   0  0  0  0  0  0  0  0  0  0  0  0
   10.0276   -0.3199    1.3941 H   0  0  0  0  0  0  0  0  0  0  0  0
    8.9247    0.7590    0.5250 H   0  0  0  0  0  0  0  0  0  0  0  0
    8.3175   -0.0949    2.0580 H   0  0  0  0  0  0  0  0  0  0  0  0
    8.6801   -2.1577   -1.4540 H   0  0  0  0  0  0  0  0  0  0  0  0
    9.5100   -0.5919   -1.2680 H   0  0  0  0  0  0  0  0  0  0  0  0
    7.0742   -1.0441   -2.5476 H   0  0  0  0  0  0  0  0  0  0  0  0
    7.6798    0.5208   -1.9675 H   0  0  0  0  0  0  0  0  0  0  0  0
    1.8490    0.8342   -3.8278 H   0  0  0  0  0  0  0  0  0  0  0  0
   -0.4465   -0.0064   -4.3556 H   0  0  0  0  0  0  0  0  0  0  0  0
   -1.8821   -0.7021   -2.5074 H   0  0  0  0  0  0  0  0  0  0  0  0
  1  2  1  0
  2  3  1  0
  3  4  1  0
  4  5  2  0
  5  6  1  0
  6  7  1  0
  6  8  1  0
  8  9  2  0
  9 10  1  0
 10 11  1  0
 11 12  2  0
 12 13  1  0
 13 14  2  0
 14 15  1  0
 14 16  1  0
 16 17  1  0
 17 18  2  0
 18 19  1  0
 19 20  1  0
 20 21  2  0
 21 22  1  0
 22 23  1  0
 23 24  2  0
 23 25  1  0
 25 26  1  0
 26 27  1  0
 27 28  1  0
 25 29  1  0
 29 30  1  0
 30 31  1  0
 31 32  1  0
 32 33  1  0
 32 34  1  0
 34 35  1  0
 21 36  1  0
 36 37  2  0
 37 38  1  0
 38 39  2  0
 16 40  2  0
  9  4  1  0
 40 11  1  0
 39 17  1  0
 39 20  1  0
 35 29  1  0
  1 41  1  0
  1 42  1  0
  1 43  1  0
  2 44  1  0
  2 45  1  0
  7 46  1  0
  7 47  1  0
  7 48  1  0
  8 49  1  0
 10 50  1  0
 12 51  1  0
 15 52  1  0
 15 53  1  0
 15 54  1  0
 18 55  1  0
 19 56  1  0
 22 57  1  0
 25 58  1  6
 26 59  1  0
 26 60  1  0
 28 61  1  0
 28 62  1  0
 28 63  1  0
 30 64  1  0
 30 65  1  0
 31 66  1  0
 31 67  1  0
 33 68  1  0
 33 69  1  0
 33 70  1  0
 34 71  1  0
 34 72  1  0
 35 73  1  0
 35 74  1  0
 36 75  1  0
 37 76  1  0
 38 77  1  0
M  END
$$$$
