
     RDKit          3D

 53 53  0  0  0  0  0  0  0  0999 V2000
   -1.4834   -0.2944   -0.7193 C   0  0  2  0  0  0  0  0  0  0  0  0
   -1.6535    1.2038   -0.6093 C   0  0  0  0  0  0  0  0  0  0  0  0
   -0.4159    1.8167   -0.7444 O   0  0  0  0  0  0  0  0  0  0  0  0
   -2.6826   -1.0457   -0.5941 N   0  0  0  0  0  0  0  0  0  0  0  0
   -3.4933   -1.0794    0.3955 C   0  0  0  0  0  0  0  0  0  0  0  0
   -3.3262   -0.3612    1.5497 O   0  0  0  0  0  0  0  0  0  0  0  0
   -4.6857   -1.9667    0.2507 C   0  0  0  0  0  0  0  0  0  0  0  0
   -5.9760   -1.1552    0.3645 C   0  0  0  0  0  0  0  0  0  0  0  0
   -6.0444   -0.1511   -0.6516 N   0  0  0  0  0  0  0  0  0  0  0  0
   -6.5745    1.0008   -0.5540 C   0  0  0  0  0  0  0  0  0  0  0  0
   -6.4627    1.7280   -1.7409 O   0  0  0  0  0  0  0  0  0  0  0  0
   -7.2599    1.6302    0.6065 C   0  0  0  0  0  0  0  0  0  0  0  0
   -6.3216    3.2449    1.1019 Br  0  0  0  0  0  0  0  0  0  0  0  0
   -0.4794   -0.8184    0.2510 C   0  0  0  0  0  0  0  0  0  0  0  0
    0.1718   -1.0931    1.4279 O   0  0  0  0  0  0  0  0  0  0  0  0
    0.5911   -1.5198    0.1140 N   0  0  0  0  0  0  0  0  0  0  0  0
    0.9860   -1.9346   -1.2106 C   0  0  0  0  0  0  0  0  0  0  0  0
    1.8557   -0.8810   -1.8767 C   0  0  0  0  0  0  0  0  0  0  0  0
    3.0890   -0.6285   -1.0965 C   0  0  0  0  0  0  0  0  0  0  0  0
    4.2627   -1.3311   -1.2984 C   0  0  0  0  0  0  0  0  0  0  0  0
    5.3996   -1.0561   -0.5371 C   0  0  0  0  0  0  0  0  0  0  0  0
    5.3749   -0.0670    0.4428 C   0  0  0  0  0  0  0  0  0  0  0  0
    4.1960    0.6246    0.6315 C   0  0  0  0  0  0  0  0  0  0  0  0
    3.0831    0.3592   -0.1098 C   0  0  0  0  0  0  0  0  0  0  0  0
    6.6189    0.0515    1.0929 N   0  0  0  0  0  0  0  0  0  0  0  0
    7.4721    0.9008    0.6482 C   0  0  0  0  0  0  0  0  0  0  0  0
    8.6723    0.9910    1.3033 O   0  0  0  0  0  0  0  0  0  0  0  0
    7.1925    1.7376   -0.4989 C   0  0  0  0  0  0  0  0  0  0  0  0
    5.9935    1.6808   -1.1921 O   0  0  0  0  0  0  0  0  0  0  0  0
    8.0510    2.5602   -0.9092 O   0  0  0  0  0  0  0  0  0  0  0  0
   -1.0646   -0.4880   -1.7411 H   0  0  0  0  0  0  0  0  0  0  0  0
   -2.2720    1.5176   -1.4805 H   0  0  0  0  0  0  0  0  0  0  0  0
   -2.1421    1.5170    0.3109 H   0  0  0  0  0  0  0  0  0  0  0  0
   -0.4883    2.7413   -1.0888 H   0  0  0  0  0  0  0  0  0  0  0  0
   -2.3807   -0.2276    1.9099 H   0  0  0  0  0  0  0  0  0  0  0  0
   -4.6937   -2.5049   -0.7126 H   0  0  0  0  0  0  0  0  0  0  0  0
   -4.6327   -2.7299    1.0373 H   0  0  0  0  0  0  0  0  0  0  0  0
   -6.8126   -1.8638    0.2021 H   0  0  0  0  0  0  0  0  0  0  0  0
   -6.0877   -0.7539    1.3971 H   0  0  0  0  0  0  0  0  0  0  0  0
   -6.5248    1.2660   -2.6417 H   0  0  0  0  0  0  0  0  0  0  0  0
   -8.3267    1.8024    0.3759 H   0  0  0  0  0  0  0  0  0  0  0  0
   -7.2087    0.9513    1.4832 H   0  0  0  0  0  0  0  0  0  0  0  0
   -0.0456   -0.5811    2.2846 H   0  0  0  0  0  0  0  0  0  0  0  0
    0.1028   -2.1382   -1.8462 H   0  0  0  0  0  0  0  0  0  0  0  0
    1.5332   -2.9072   -1.1442 H   0  0  0  0  0  0  0  0  0  0  0  0
    2.1181   -1.2062   -2.9087 H   0  0  0  0  0  0  0  0  0  0  0  0
    1.2674    0.0499   -1.9867 H   0  0  0  0  0  0  0  0  0  0  0  0
    4.2465   -2.0925   -2.0678 H   0  0  0  0  0  0  0  0  0  0  0  0
    6.2515   -1.6782   -0.7960 H   0  0  0  0  0  0  0  0  0  0  0  0
    4.2782    1.3712    1.4143 H   0  0  0  0  0  0  0  0  0  0  0  0
    2.1937    0.9560    0.1077 H   0  0  0  0  0  0  0  0  0  0  0  0
    8.9042    0.3399    2.0380 H   0  0  0  0  0  0  0  0  0  0  0  0
    5.6336    2.5123   -1.6555 H   0  0  0  0  0  0  0  0  0  0  0  0
  1  2  1  0
  2  3  1  0
  1  4  1  0
  4  5  2  3
  5  6  1  0
  5  7  1  0
  7  8  1  0
  8  9  1  0
  9 10  2  3
 10 11  1  0
 10 12  1  0
 12 13  1  0
  1 14  1  0
 14 15  1  0
 14 16  2  3
 16 17  1  0
 17 18  1  0
 18 19  1  0
 19 20  2  0
 20 21  1  0
 21 22  2  0
 22 23  1  0
 23 24  2  0
 22 25  1  0
 25 26  2  3
 26 27  1  0
 26 28  1  0
 28 29  1  0
 28 30  2  0
 24 19  1  0
  1 31  1  6
  2 32  1  0
  2 33  1  0
  3 34  1  0
  6 35  1  0
  7 36  1  0
  7 37  1  0
  8 38  1  0
  8 39  1  0
 11 40  1  0
 12 41  1  0
 12 42  1  0
 15 43  1  0
 17 44  1  0
 17 45  1  0
 18 46  1  0
 18 47  1  0
 20 48  1  0
 21 49  1  0
 23 50  1  0
 24 51  1  0
 27 52  1  0
 29 53  1  0
M  END
$$$$
