
     RDKit          3D

 29 30  0  0  0  0  0  0  0  0999 V2000
   -3.2794    1.3043   -1.9099 C   0  0  0  0  0  0  0  0  0  0  0  0
   -3.4514    0.6875   -0.6722 O   0  0  0  0  0  0  0  0  0  0  0  0
   -2.4418    0.2582    0.1460 C   0  0  0  0  0  0  0  0  0  0  0  0
   -2.9480   -0.3192    1.3171 C   0  0  0  0  0  0  0  0  0  0  0  0
   -2.1223   -0.8274    2.2986 C   0  0  0  0  0  0  0  0  0  0  0  0
   -0.7514   -0.7836    2.1592 C   0  0  0  0  0  0  0  0  0  0  0  0
    0.3071   -1.1632    2.8737 N   0  0  0  0  0  0  0  0  0  0  0  0
    1.4472   -0.8557    2.2143 C   0  0  0  0  0  0  0  0  0  0  0  0
    1.1483   -0.2384    0.9950 C   0  0  0  0  0  0  0  0  0  0  0  0
    2.0859    0.2568   -0.0297 C   0  0  0  0  0  0  0  0  0  0  0  0
    2.1720   -0.6565   -1.2306 C   0  0  0  0  0  0  0  0  0  0  0  0
    3.1519   -0.0383   -2.1842 C   0  0  0  0  0  0  0  0  0  0  0  0
    3.8386    1.1486   -1.9831 O   0  0  0  0  0  0  0  0  0  0  0  0
    3.4568   -0.5509   -3.2944 O   0  0  0  0  0  0  0  0  0  0  0  0
   -0.2418   -0.2132    1.0017 C   0  0  0  0  0  0  0  0  0  0  0  0
   -1.0664    0.2954    0.0191 C   0  0  0  0  0  0  0  0  0  0  0  0
   -3.5589    2.3770   -1.8612 H   0  0  0  0  0  0  0  0  0  0  0  0
   -2.2318    1.2559   -2.2072 H   0  0  0  0  0  0  0  0  0  0  0  0
   -3.9378    0.8401   -2.6740 H   0  0  0  0  0  0  0  0  0  0  0  0
   -3.9981   -0.4273    1.5729 H   0  0  0  0  0  0  0  0  0  0  0  0
   -2.4706   -1.2798    3.2159 H   0  0  0  0  0  0  0  0  0  0  0  0
    0.2714   -1.6295    3.8073 H   0  0  0  0  0  0  0  0  0  0  0  0
    2.4630   -1.0498    2.5626 H   0  0  0  0  0  0  0  0  0  0  0  0
    1.9215    1.3114   -0.3305 H   0  0  0  0  0  0  0  0  0  0  0  0
    3.1144    0.2296    0.4267 H   0  0  0  0  0  0  0  0  0  0  0  0
    2.6126   -1.6286   -0.9265 H   0  0  0  0  0  0  0  0  0  0  0  0
    1.2001   -0.8810   -1.6954 H   0  0  0  0  0  0  0  0  0  0  0  0
    4.0678    1.8216   -2.7023 H   0  0  0  0  0  0  0  0  0  0  0  0
   -0.7590    0.7561   -0.9089 H   0  0  0  0  0  0  0  0  0  0  0  0
  1  2  1  0
  2  3  1  0
  3  4  2  0
  4  5  1  0
  5  6  2  0
  6  7  1  0
  7  8  1  0
  8  9  2  0
  9 10  1  0
 10 11  1  0
 11 12  1  0
 12 13  1  0
 12 14  2  0
  9 15  1  0
 15 16  2  0
 16  3  1  0
 15  6  1  0
  1 17  1  0
  1 18  1  0
  1 19  1  0
  4 20  1  0
  5 21  1  0
  7 22  1  0
  8 23  1  0
 10 24  1  0
 10 25  1  0
 11 26  1  0
 11 27  1  0
 13 28  1  0
 16 29  1  0
M  END
$$$$
