
     RDKit          3D

153153  0  0  0  0  0  0  0  0999 V2000
   -0.7154    2.0350    2.5596 C   0  0  0  0  0  0  0  0  0  0  0  0
   -0.8038    2.8122    1.2886 C   0  0  0  0  0  0  0  0  0  0  0  0
   -1.5100    2.0794    0.1580 C   0  0  0  0  0  0  0  0  0  0  0  0
   -0.7897    0.8005   -0.2113 C   0  0  2  0  0  0  0  0  0  0  0  0
    0.5514    1.0735   -0.6593 N   0  0  0  0  0  0  0  0  0  0  0  0
    1.6634    0.5750    0.0752 C   0  0  0  0  0  0  0  0  0  0  0  0
    1.7380   -0.1356    1.1028 O   0  0  0  0  0  0  0  0  0  0  0  0
    3.1326    0.7566   -0.1420 C   0  0  1  0  0  0  0  0  0  0  0  0
    3.9585    0.2121    0.8968 N   0  0  0  0  0  0  0  0  0  0  0  0
    3.8272    0.6421    2.2711 C   0  0  0  0  0  0  0  0  0  0  0  0
    2.9730    1.4594    2.6910 O   0  0  0  0  0  0  0  0  0  0  0  0
    4.7608    0.1173    3.3468 C   0  0  2  0  0  0  0  0  0  0  0  0
    6.0537   -0.1284    2.6052 N   0  0  0  0  0  0  0  0  0  0  0  0
    6.8285    1.0598    2.4088 C   0  0  0  0  0  0  0  0  0  0  0  0
    6.2665    2.1014    2.9290 O   0  0  0  0  0  0  0  0  0  0  0  0
    8.0403    1.6048    1.8362 C   0  0  1  0  0  0  0  0  0  0  0  0
    8.9518    0.7750    1.1819 N   0  0  0  0  0  0  0  0  0  0  0  0
   10.0010    0.1340    0.5692 C   0  0  0  0  0  0  0  0  0  0  0  0
   10.9196    1.0125    0.6528 O   0  0  0  0  0  0  0  0  0  0  0  0
   10.4729   -1.0785   -0.1090 C   0  0  0  0  0  0  0  0  0  0  0  0
   11.8393   -0.8228   -0.5941 N   0  0  0  0  0  0  0  0  0  0  0  0
   12.3686   -1.9915   -1.2109 C   0  0  0  0  0  0  0  0  0  0  0  0
   11.4665   -2.8152   -1.0795 O   0  0  0  0  0  0  0  0  0  0  0  0
   13.7569   -1.7775   -1.7505 C   0  0  0  0  0  0  0  0  0  0  0  0
   14.1991   -0.4462   -1.5747 N   0  0  0  0  0  0  0  0  0  0  0  0
   14.9538    0.2740   -0.6038 C   0  0  0  0  0  0  0  0  0  0  0  0
   13.8782    0.4946   -2.6243 C   0  0  0  0  0  0  0  0  0  0  0  0
   13.9609    1.8436   -3.1972 C   0  0  0  0  0  0  0  0  0  0  0  0
   13.3067   -0.5281   -3.0565 O   0  0  0  0  0  0  0  0  0  0  0  0
    7.6521    2.7849    0.8579 C   0  0  0  0  0  0  0  0  0  0  0  0
    6.7955    2.3090   -0.2487 C   0  0  0  0  0  0  0  0  0  0  0  0
    8.9442    3.4262    0.4216 C   0  0  0  0  0  0  0  0  0  0  0  0
    4.4102   -1.2165    3.8802 C   0  0  1  0  0  0  0  0  0  0  0  0
    5.3402   -1.6586    4.9654 C   0  0  0  0  0  0  0  0  0  0  0  0
    2.9988   -1.5806    4.0803 C   0  0  0  0  0  0  0  0  0  0  0  0
    2.1597   -0.7663    4.9909 C   0  0  0  0  0  0  0  0  0  0  0  0
    3.6380    0.3156   -1.4497 C   0  0  1  0  0  0  0  0  0  0  0  0
    3.6781   -1.2079   -1.5697 C   0  0  0  0  0  0  0  0  0  0  0  0
    2.9440    0.8514   -2.5372 O   0  0  0  0  0  0  0  0  0  0  0  0
   -1.5070   -0.0571   -1.1362 C   0  0  0  0  0  0  0  0  0  0  0  0
   -1.2831   -0.5894   -2.2488 O   0  0  0  0  0  0  0  0  0  0  0  0
   -2.8003   -0.3052   -0.5281 N   0  0  0  0  0  0  0  0  0  0  0  0
   -3.9945   -1.0444   -0.8695 C   0  0  1  0  0  0  0  0  0  0  0  0
   -4.1561   -2.2300    0.0663 C   0  0  1  0  0  0  0  0  0  0  0  0
   -2.9579   -3.1226   -0.1006 C   0  0  0  0  0  0  0  0  0  0  0  0
   -4.2911   -1.8204    1.5037 C   0  0  0  0  0  0  0  0  0  0  0  0
   -4.4293   -3.0795    2.3381 C   0  0  0  0  0  0  0  0  0  0  0  0
   -5.2028   -0.1938   -0.9103 C   0  0  0  0  0  0  0  0  0  0  0  0
   -5.0437    1.0367   -0.5773 O   0  0  0  0  0  0  0  0  0  0  0  0
   -6.4640   -0.6933   -1.2887 N   0  0  0  0  0  0  0  0  0  0  0  0
   -7.8195   -0.2439   -1.4427 C   0  0  1  0  0  0  0  0  0  0  0  0
   -8.2234   -0.4030   -2.8701 C   0  0  0  0  0  0  0  0  0  0  0  0
   -8.1625   -1.6892   -3.5566 C   0  0  0  0  0  0  0  0  0  0  0  0
   -8.9241   -2.8792   -3.2046 C   0  0  0  0  0  0  0  0  0  0  0  0
   -8.6238   -3.4508   -1.9387 N   0  0  0  0  0  0  0  0  0  0  0  0
   -9.5095   -3.9722   -1.1682 C   0  0  0  0  0  0  0  0  0  0  0  0
  -10.8713   -4.0629   -1.4381 N   0  0  0  0  0  0  0  0  0  0  0  0
   -8.6372   -4.3335   -0.1298 N   0  0  0  0  0  0  0  0  0  0  0  0
   -8.8111   -0.7241   -0.4914 C   0  0  0  0  0  0  0  0  0  0  0  0
   -7.6843   -1.1561   -0.5517 O   0  0  0  0  0  0  0  0  0  0  0  0
  -10.0261    0.0075   -0.6913 N   0  0  0  0  0  0  0  0  0  0  0  0
  -11.1971   -0.4556    0.0478 C   0  0  0  0  0  0  0  0  0  0  0  0
  -12.3691   -0.3590   -0.9150 C   0  0  0  0  0  0  0  0  0  0  0  0
  -11.9136    0.7077   -1.9049 C   0  0  0  0  0  0  0  0  0  0  0  0
  -10.6348    1.1737   -1.2777 C   0  0  1  0  0  0  0  0  0  0  0  0
  -10.9613    2.1761   -0.1763 C   0  0  0  0  0  0  0  0  0  0  0  0
  -11.0621    2.5480    1.0400 O   0  0  0  0  0  0  0  0  0  0  0  0
  -11.4118    3.4172   -0.7838 N   0  0  0  0  0  0  0  0  0  0  0  0
  -11.7494    4.4912    0.1631 C   0  0  0  0  0  0  0  0  0  0  0  0
  -10.5624    4.9002    0.9868 C   0  0  0  0  0  0  0  0  0  0  0  0
   -0.7885    2.6803    3.4540 H   0  0  0  0  0  0  0  0  0  0  0  0
    0.2453    1.5335    2.6097 H   0  0  0  0  0  0  0  0  0  0  0  0
   -1.4872    1.2406    2.6442 H   0  0  0  0  0  0  0  0  0  0  0  0
   -1.2704    3.7760    1.4936 H   0  0  0  0  0  0  0  0  0  0  0  0
    0.2620    3.0444    0.9684 H   0  0  0  0  0  0  0  0  0  0  0  0
   -1.4954    2.8387   -0.6873 H   0  0  0  0  0  0  0  0  0  0  0  0
   -2.5541    1.9523    0.4343 H   0  0  0  0  0  0  0  0  0  0  0  0
   -0.6562    0.2551    0.7578 H   0  0  0  0  0  0  0  0  0  0  0  0
    0.9960    1.5778   -1.4528 H   0  0  0  0  0  0  0  0  0  0  0  0
    3.2641    1.8842   -0.0451 H   0  0  0  0  0  0  0  0  0  0  0  0
    4.7031   -0.5068    0.7761 H   0  0  0  0  0  0  0  0  0  0  0  0
    4.9439    0.9213    4.0290 H   0  0  0  0  0  0  0  0  0  0  0  0
    6.6699   -0.8616    2.1429 H   0  0  0  0  0  0  0  0  0  0  0  0
    8.6143    2.1977    2.6108 H   0  0  0  0  0  0  0  0  0  0  0  0
    8.2801   -0.0707    1.0102 H   0  0  0  0  0  0  0  0  0  0  0  0
    9.8435   -1.3426   -0.9570 H   0  0  0  0  0  0  0  0  0  0  0  0
   10.5656   -1.8850    0.6781 H   0  0  0  0  0  0  0  0  0  0  0  0
   12.2832    0.1446   -0.4559 H   0  0  0  0  0  0  0  0  0  0  0  0
   14.4697   -2.4158   -1.1308 H   0  0  0  0  0  0  0  0  0  0  0  0
   13.8816   -2.2107   -2.7671 H   0  0  0  0  0  0  0  0  0  0  0  0
   15.1836   -0.4008    0.2514 H   0  0  0  0  0  0  0  0  0  0  0  0
   15.9119    0.6221   -1.0674 H   0  0  0  0  0  0  0  0  0  0  0  0
   14.4100    1.1554   -0.2498 H   0  0  0  0  0  0  0  0  0  0  0  0
   13.0977    2.0625   -3.8584 H   0  0  0  0  0  0  0  0  0  0  0  0
   13.9477    2.6342   -2.4193 H   0  0  0  0  0  0  0  0  0  0  0  0
   14.8827    1.9527   -3.8236 H   0  0  0  0  0  0  0  0  0  0  0  0
    7.0688    3.5249    1.4727 H   0  0  0  0  0  0  0  0  0  0  0  0
    6.6250    1.2000   -0.2490 H   0  0  0  0  0  0  0  0  0  0  0  0
    7.1714    2.6281   -1.2559 H   0  0  0  0  0  0  0  0  0  0  0  0
    5.7495    2.7338   -0.2195 H   0  0  0  0  0  0  0  0  0  0  0  0
    8.8439    4.5085    0.1890 H   0  0  0  0  0  0  0  0  0  0  0  0
    9.3247    2.9309   -0.4967 H   0  0  0  0  0  0  0  0  0  0  0  0
    9.7057    3.3523    1.2561 H   0  0  0  0  0  0  0  0  0  0  0  0
    4.7235   -1.9397    2.9818 H   0  0  0  0  0  0  0  0  0  0  0  0
    5.8882   -0.8154    5.4372 H   0  0  0  0  0  0  0  0  0  0  0  0
    6.0734   -2.3987    4.6307 H   0  0  0  0  0  0  0  0  0  0  0  0
    4.7370   -2.1621    5.7597 H   0  0  0  0  0  0  0  0  0  0  0  0
    2.4770   -1.7581    3.0914 H   0  0  0  0  0  0  0  0  0  0  0  0
    3.0083   -2.6388    4.5143 H   0  0  0  0  0  0  0  0  0  0  0  0
    2.6406   -0.2803    5.8357 H   0  0  0  0  0  0  0  0  0  0  0  0
    1.5296   -0.0643    4.3741 H   0  0  0  0  0  0  0  0  0  0  0  0
    1.3612   -1.4290    5.4700 H   0  0  0  0  0  0  0  0  0  0  0  0
    4.6927    0.6294   -1.5375 H   0  0  0  0  0  0  0  0  0  0  0  0
    4.3655   -1.6728   -0.8375 H   0  0  0  0  0  0  0  0  0  0  0  0
    4.0837   -1.4583   -2.5692 H   0  0  0  0  0  0  0  0  0  0  0  0
    2.6843   -1.6607   -1.3563 H   0  0  0  0  0  0  0  0  0  0  0  0
    2.8720    0.1519   -3.2374 H   0  0  0  0  0  0  0  0  0  0  0  0
   -3.1751    0.0434    0.4021 H   0  0  0  0  0  0  0  0  0  0  0  0
   -3.9092   -1.4986   -1.8741 H   0  0  0  0  0  0  0  0  0  0  0  0
   -5.0494   -2.7878   -0.2714 H   0  0  0  0  0  0  0  0  0  0  0  0
   -2.2165   -2.9240    0.7055 H   0  0  0  0  0  0  0  0  0  0  0  0
   -3.2257   -4.1980   -0.1492 H   0  0  0  0  0  0  0  0  0  0  0  0
   -2.4481   -2.8766   -1.0565 H   0  0  0  0  0  0  0  0  0  0  0  0
   -3.4072   -1.3083    1.8960 H   0  0  0  0  0  0  0  0  0  0  0  0
   -5.2536   -1.2779    1.6273 H   0  0  0  0  0  0  0  0  0  0  0  0
   -4.8724   -2.7586    3.3199 H   0  0  0  0  0  0  0  0  0  0  0  0
   -5.1465   -3.7603    1.8577 H   0  0  0  0  0  0  0  0  0  0  0  0
   -3.4644   -3.5502    2.5782 H   0  0  0  0  0  0  0  0  0  0  0  0
   -6.3584   -1.7286   -1.5582 H   0  0  0  0  0  0  0  0  0  0  0  0
   -7.7598    0.9086   -1.2904 H   0  0  0  0  0  0  0  0  0  0  0  0
   -9.2806   -0.0324   -3.0303 H   0  0  0  0  0  0  0  0  0  0  0  0
   -7.6335    0.3813   -3.4489 H   0  0  0  0  0  0  0  0  0  0  0  0
   -7.0517   -1.9699   -3.7806 H   0  0  0  0  0  0  0  0  0  0  0  0
   -8.4699   -1.4438   -4.6513 H   0  0  0  0  0  0  0  0  0  0  0  0
  -10.0301   -2.6760   -3.3274 H   0  0  0  0  0  0  0  0  0  0  0  0
   -8.7067   -3.7116   -3.9638 H   0  0  0  0  0  0  0  0  0  0  0  0
  -11.8175   -3.6716   -1.2575 H   0  0  0  0  0  0  0  0  0  0  0  0
  -11.5263   -4.6388   -2.0094 H   0  0  0  0  0  0  0  0  0  0  0  0
   -8.0134   -5.1578   -0.0044 H   0  0  0  0  0  0  0  0  0  0  0  0
   -8.6215   -3.6356    0.6565 H   0  0  0  0  0  0  0  0  0  0  0  0
  -11.4170    0.2537    0.8644 H   0  0  0  0  0  0  0  0  0  0  0  0
  -11.1008   -1.4588    0.4619 H   0  0  0  0  0  0  0  0  0  0  0  0
  -13.3173   -0.0978   -0.4261 H   0  0  0  0  0  0  0  0  0  0  0  0
  -12.4601   -1.3150   -1.4631 H   0  0  0  0  0  0  0  0  0  0  0  0
  -12.6814    1.4832   -1.9139 H   0  0  0  0  0  0  0  0  0  0  0  0
  -11.8149    0.3304   -2.9308 H   0  0  0  0  0  0  0  0  0  0  0  0
  -10.0429    1.7344   -1.9954 H   0  0  0  0  0  0  0  0  0  0  0  0
  -11.5218    3.6270   -1.8223 H   0  0  0  0  0  0  0  0  0  0  0  0
  -12.0875    5.3736   -0.4052 H   0  0  0  0  0  0  0  0  0  0  0  0
  -12.5604    4.1672    0.8544 H   0  0  0  0  0  0  0  0  0  0  0  0
  -10.3040    5.9815    0.7993 H   0  0  0  0  0  0  0  0  0  0  0  0
   -9.6692    4.2780    0.7579 H   0  0  0  0  0  0  0  0  0  0  0  0
  -10.7420    4.7658    2.0783 H   0  0  0  0  0  0  0  0  0  0  0  0
  1  2  1  0
  2  3  1  0
  3  4  1  0
  4  5  1  0
  5  6  1  0
  6  7  2  0
  6  8  1  0
  8  9  1  0
  9 10  1  0
 10 11  2  0
 10 12  1  0
 12 13  1  0
 13 14  1  0
 14 15  2  0
 14 16  1  0
 16 17  1  0
 17 18  1  0
 18 19  2  0
 18 20  1  0
 20 21  1  0
 21 22  1  0
 22 23  2  0
 22 24  1  0
 24 25  1  0
 25 26  1  0
 25 27  1  0
 27 28  1  0
 27 29  2  0
 16 30  1  0
 30 31  1  0
 30 32  1  0
 12 33  1  0
 33 34  1  0
 33 35  1  0
 35 36  1  0
  8 37  1  0
 37 38  1  0
 37 39  1  0
  4 40  1  0
 40 41  2  0
 40 42  1  0
 42 43  1  0
 43 44  1  0
 44 45  1  0
 44 46  1  0
 46 47  1  0
 43 48  1  0
 48 49  2  0
 48 50  1  0
 50 51  1  0
 51 52  1  0
 52 53  1  0
 53 54  1  0
 54 55  1  0
 55 56  2  3
 56 57  1  0
 56 58  1  0
 51 59  1  0
 59 60  2  0
 59 61  1  0
 61 62  1  0
 62 63  1  0
 63 64  1  0
 64 65  1  0
 65 66  1  0
 66 67  2  0
 66 68  1  0
 68 69  1  0
 69 70  1  0
 65 61  1  0
  1 71  1  0
  1 72  1  0
  1 73  1  0
  2 74  1  0
  2 75  1  0
  3 76  1  0
  3 77  1  0
  4 78  1  1
  5 79  1  0
  8 80  1  6
  9 81  1  0
 12 82  1  1
 13 83  1  0
 16 84  1  1
 17 85  1  0
 20 86  1  0
 20 87  1  0
 21 88  1  0
 24 89  1  0
 24 90  1  0
 26 91  1  0
 26 92  1  0
 26 93  1  0
 28 94  1  0
 28 95  1  0
 28 96  1  0
 30 97  1  0
 31 98  1  0
 31 99  1  0
 31100  1  0
 32101  1  0
 32102  1  0
 32103  1  0
 33104  1  6
 34105  1  0
 34106  1  0
 34107  1  0
 35108  1  0
 35109  1  0
 36110  1  0
 36111  1  0
 36112  1  0
 37113  1  6
 38114  1  0
 38115  1  0
 38116  1  0
 39117  1  0
 42118  1  0
 43119  1  6
 44120  1  6
 45121  1  0
 45122  1  0
 45123  1  0
 46124  1  0
 46125  1  0
 47126  1  0
 47127  1  0
 47128  1  0
 50129  1  0
 51130  1  1
 52131  1  0
 52132  1  0
 53133  1  0
 53134  1  0
 54135  1  0
 54136  1  0
 57137  1  0
 57138  1  0
 58139  1  0
 58140  1  0
 62141  1  0
 62142  1  0
 63143  1  0
 63144  1  0
 64145  1  0
 64146  1  0
 65147  1  6
 68148  1  0
 69149  1  0
 69150  1  0
 70151  1  0
 70152  1  0
 70153  1  0
M  END
$$$$
