
     RDKit          3D

 54 57  0  0  0  0  0  0  0  0999 V2000
   -0.7550   -2.8383    0.4317 O   0  0  0  0  0  0  0  0  0  0  0  0
   -0.4130   -1.6901    0.8711 C   0  0  0  0  0  0  0  0  0  0  0  0
   -1.1603   -1.2041    1.9678 N   0  0  0  0  0  0  0  0  0  0  0  0
   -2.2288   -1.9433    2.5512 C   0  0  0  0  0  0  0  0  0  0  0  0
   -2.0917   -2.8379    3.5826 C   0  0  0  0  0  0  0  0  0  0  0  0
   -3.1568   -3.5322    4.1165 C   0  0  0  0  0  0  0  0  0  0  0  0
   -4.4176   -3.3405    3.6154 C   0  0  0  0  0  0  0  0  0  0  0  0
   -5.7633   -4.2267    4.3000 Cl  0  0  0  0  0  0  0  0  0  0  0  0
   -4.5916   -2.4346    2.5630 C   0  0  0  0  0  0  0  0  0  0  0  0
   -3.5100   -1.7511    2.0449 C   0  0  0  0  0  0  0  0  0  0  0  0
   -3.7450   -0.8213    0.9518 C   0  0  0  0  0  0  0  0  0  0  0  0
   -2.7400   -0.2007    0.4863 O   0  0  0  0  0  0  0  0  0  0  0  0
   -4.9841   -0.5357    0.3508 N   0  0  0  0  0  0  0  0  0  0  0  0
   -5.1335    0.3935   -0.7222 C   0  0  0  0  0  0  0  0  0  0  0  0
   -6.3926    0.5986   -1.2375 C   0  0  0  0  0  0  0  0  0  0  0  0
   -6.6224    1.4892   -2.2855 C   0  0  0  0  0  0  0  0  0  0  0  0
   -5.5394    2.1791   -2.8111 C   0  0  0  0  0  0  0  0  0  0  0  0
   -5.7262    3.3216   -4.1312 Cl  0  0  0  0  0  0  0  0  0  0  0  0
   -4.2935    1.9555   -2.2781 C   0  0  0  0  0  0  0  0  0  0  0  0
   -4.1131    1.0762   -1.2538 N   0  0  0  0  0  0  0  0  0  0  0  0
    0.6989   -0.9623    0.2356 C   0  0  0  0  0  0  0  0  0  0  0  0
    1.1145    0.2722    0.6593 C   0  0  0  0  0  0  0  0  0  0  0  0
    2.1697    0.9179    0.0253 C   0  0  0  0  0  0  0  0  0  0  0  0
    2.8437    0.3699   -1.0392 C   0  0  0  0  0  0  0  0  0  0  0  0
    3.9547    1.0957   -1.6684 C   0  0  0  0  0  0  0  0  0  0  0  0
    5.2501    0.8210   -1.1516 N   0  0  0  0  0  0  0  0  0  0  0  0
    5.4757    1.1276    0.2216 C   0  0  0  0  0  0  0  0  0  0  0  0
    6.9054    1.6778    0.2938 C   0  0  0  0  0  0  0  0  0  0  0  0
    6.9310    2.4365   -1.0411 C   0  0  0  0  0  0  0  0  0  0  0  0
    6.2527    1.4419   -1.9520 C   0  0  0  0  0  0  0  0  0  0  0  0
    2.4119   -0.8750   -1.4536 C   0  0  0  0  0  0  0  0  0  0  0  0
    1.3687   -1.5316   -0.8394 C   0  0  0  0  0  0  0  0  0  0  0  0
   -0.8853   -0.2496    2.3425 H   0  0  0  0  0  0  0  0  0  0  0  0
   -1.1228   -3.0152    4.0012 H   0  0  0  0  0  0  0  0  0  0  0  0
   -3.0358   -4.2326    4.9271 H   0  0  0  0  0  0  0  0  0  0  0  0
   -5.6073   -2.3363    2.2221 H   0  0  0  0  0  0  0  0  0  0  0  0
   -5.8225   -1.0335    0.7169 H   0  0  0  0  0  0  0  0  0  0  0  0
   -7.2591    0.0721   -0.8454 H   0  0  0  0  0  0  0  0  0  0  0  0
   -7.5923    1.6623   -2.6994 H   0  0  0  0  0  0  0  0  0  0  0  0
   -3.4343    2.4986   -2.6903 H   0  0  0  0  0  0  0  0  0  0  0  0
    0.6169    0.7426    1.4905 H   0  0  0  0  0  0  0  0  0  0  0  0
    2.4705    1.8945    0.3836 H   0  0  0  0  0  0  0  0  0  0  0  0
    3.7580    2.1903   -1.5064 H   0  0  0  0  0  0  0  0  0  0  0  0
    3.9961    0.9551   -2.7701 H   0  0  0  0  0  0  0  0  0  0  0  0
    4.8406    2.0246    0.4825 H   0  0  0  0  0  0  0  0  0  0  0  0
    5.3059    0.3123    0.9235 H   0  0  0  0  0  0  0  0  0  0  0  0
    7.6189    0.8577    0.2019 H   0  0  0  0  0  0  0  0  0  0  0  0
    7.0468    2.3425    1.1457 H   0  0  0  0  0  0  0  0  0  0  0  0
    7.9611    2.6792   -1.3495 H   0  0  0  0  0  0  0  0  0  0  0  0
    6.2976    3.3466   -0.8836 H   0  0  0  0  0  0  0  0  0  0  0  0
    5.8331    1.9666   -2.8464 H   0  0  0  0  0  0  0  0  0  0  0  0
    7.0370    0.7146   -2.2675 H   0  0  0  0  0  0  0  0  0  0  0  0
    2.9247   -1.3258   -2.2868 H   0  0  0  0  0  0  0  0  0  0  0  0
    1.0528   -2.5156   -1.1928 H   0  0  0  0  0  0  0  0  0  0  0  0
  1  2  2  0
  2  3  1  0
  3  4  1  0
  4  5  2  0
  5  6  1  0
  6  7  2  0
  7  8  1  0
  7  9  1  0
  9 10  2  0
 10 11  1  0
 11 12  2  0
 11 13  1  0
 13 14  1  0
 14 15  2  0
 15 16  1  0
 16 17  2  0
 17 18  1  0
 17 19  1  0
 19 20  2  0
  2 21  1  0
 21 22  2  0
 22 23  1  0
 23 24  2  0
 24 25  1  0
 25 26  1  0
 26 27  1  0
 27 28  1  0
 28 29  1  0
 29 30  1  0
 24 31  1  0
 31 32  2  0
 10  4  1  0
 20 14  1  0
 32 21  1  0
 30 26  1  0
  3 33  1  0
  5 34  1  0
  6 35  1  0
  9 36  1  0
 13 37  1  0
 15 38  1  0
 16 39  1  0
 19 40  1  0
 22 41  1  0
 23 42  1  0
 25 43  1  0
 25 44  1  0
 27 45  1  0
 27 46  1  0
 28 47  1  0
 28 48  1  0
 29 49  1  0
 29 50  1  0
 30 51  1  0
 30 52  1  0
 31 53  1  0
 32 54  1  0
M  END
$$$$
