
     RDKit          3D

 54 57  0  0  0  0  0  0  0  0999 V2000
   -9.7036    2.2778    1.3967 C   0  0  0  0  0  0  0  0  0  0  0  0
   -9.5044    0.8808    1.4986 O   0  0  0  0  0  0  0  0  0  0  0  0
   -8.3591    0.2962    0.9609 C   0  0  0  0  0  0  0  0  0  0  0  0
   -7.4129    1.0387    0.3319 C   0  0  0  0  0  0  0  0  0  0  0  0
   -6.2646    0.4457   -0.2077 C   0  0  0  0  0  0  0  0  0  0  0  0
   -6.1105   -0.9185   -0.0862 C   0  0  0  0  0  0  0  0  0  0  0  0
   -4.9206   -1.5303   -0.6600 C   0  0  0  0  0  0  0  0  0  0  0  0
   -4.5881   -2.8331   -0.6260 N   0  0  0  0  0  0  0  0  0  0  0  0
   -3.4414   -3.0215   -1.2473 N   0  0  0  0  0  0  0  0  0  0  0  0
   -3.0225   -1.8266   -1.6927 C   0  0  0  0  0  0  0  0  0  0  0  0
   -1.7971   -1.5536   -2.4407 C   0  0  0  0  0  0  0  0  0  0  0  0
   -1.9632   -1.1774   -3.6375 O   0  0  0  0  0  0  0  0  0  0  0  0
   -0.5367   -1.6945   -1.8930 N   0  0  0  0  0  0  0  0  0  0  0  0
    0.0095   -2.0799   -0.5977 C   0  0  0  0  0  0  0  0  0  0  0  0
    1.1244   -1.1069   -0.8854 C   0  0  0  0  0  0  0  0  0  0  0  0
    2.3427   -1.5482   -0.3581 O   0  0  0  0  0  0  0  0  0  0  0  0
    3.3403   -0.7443    0.1386 C   0  0  0  0  0  0  0  0  0  0  0  0
    3.2607    0.6302    0.1900 C   0  0  0  0  0  0  0  0  0  0  0  0
    4.2940    1.3853    0.6926 C   0  0  0  0  0  0  0  0  0  0  0  0
    5.4524    0.7719    1.1644 C   0  0  0  0  0  0  0  0  0  0  0  0
    6.5767    1.6417    1.6548 C   0  0  0  0  0  0  0  0  0  0  0  0
    7.5129    1.8034    0.6061 N   0  0  0  0  0  0  0  0  0  0  0  0
    8.6099    2.6821    0.8217 C   0  0  0  0  0  0  0  0  0  0  0  0
    7.6680    0.7866   -0.3580 C   0  0  0  0  0  0  0  0  0  0  0  0
    5.5602   -0.5863    1.1305 C   0  0  0  0  0  0  0  0  0  0  0  0
    6.6767   -1.2322    1.5924 F   0  0  0  0  0  0  0  0  0  0  0  0
    4.4901   -1.3273    0.6117 C   0  0  0  0  0  0  0  0  0  0  0  0
    0.8568   -1.5503   -2.3185 C   0  0  0  0  0  0  0  0  0  0  0  0
   -3.9424   -0.9581   -1.3167 O   0  0  0  0  0  0  0  0  0  0  0  0
   -7.0866   -1.6449    0.5582 C   0  0  0  0  0  0  0  0  0  0  0  0
   -8.2164   -1.0639    1.0888 C   0  0  0  0  0  0  0  0  0  0  0  0
  -10.7068    2.5503    1.7959 H   0  0  0  0  0  0  0  0  0  0  0  0
   -9.6246    2.6316    0.3436 H   0  0  0  0  0  0  0  0  0  0  0  0
   -8.9304    2.7463    2.0417 H   0  0  0  0  0  0  0  0  0  0  0  0
   -7.5186    2.1032    0.2320 H   0  0  0  0  0  0  0  0  0  0  0  0
   -5.5491    1.0904   -0.6940 H   0  0  0  0  0  0  0  0  0  0  0  0
   -0.6162   -1.8939    0.2832 H   0  0  0  0  0  0  0  0  0  0  0  0
    0.3533   -3.1570   -0.7153 H   0  0  0  0  0  0  0  0  0  0  0  0
    0.8380   -0.0659   -0.7837 H   0  0  0  0  0  0  0  0  0  0  0  0
    2.3506    1.1312   -0.1779 H   0  0  0  0  0  0  0  0  0  0  0  0
    4.2664    2.4617    0.7508 H   0  0  0  0  0  0  0  0  0  0  0  0
    7.0324    1.1539    2.5718 H   0  0  0  0  0  0  0  0  0  0  0  0
    6.1792    2.6021    2.0291 H   0  0  0  0  0  0  0  0  0  0  0  0
    8.4260    3.3688    1.6771 H   0  0  0  0  0  0  0  0  0  0  0  0
    9.5932    2.1587    0.9323 H   0  0  0  0  0  0  0  0  0  0  0  0
    8.7541    3.3671   -0.0693 H   0  0  0  0  0  0  0  0  0  0  0  0
    8.1593    1.2373   -1.2798 H   0  0  0  0  0  0  0  0  0  0  0  0
    8.3777   -0.0287   -0.0624 H   0  0  0  0  0  0  0  0  0  0  0  0
    6.6994    0.3992   -0.7292 H   0  0  0  0  0  0  0  0  0  0  0  0
    4.6490   -2.4179    0.6127 H   0  0  0  0  0  0  0  0  0  0  0  0
    1.2986   -2.5204   -2.5953 H   0  0  0  0  0  0  0  0  0  0  0  0
    0.9750   -0.7608   -3.0895 H   0  0  0  0  0  0  0  0  0  0  0  0
   -6.9723   -2.7108    0.6582 H   0  0  0  0  0  0  0  0  0  0  0  0
   -8.9393   -1.6889    1.5840 H   0  0  0  0  0  0  0  0  0  0  0  0
  1  2  1  0
  2  3  1  0
  3  4  2  0
  4  5  1  0
  5  6  2  0
  6  7  1  0
  7  8  2  0
  8  9  1  0
  9 10  2  0
 10 11  1  0
 11 12  2  0
 11 13  1  0
 13 14  1  0
 14 15  1  0
 15 16  1  0
 16 17  1  0
 17 18  2  0
 18 19  1  0
 19 20  2  0
 20 21  1  0
 21 22  1  0
 22 23  1  0
 22 24  1  0
 20 25  1  0
 25 26  1  0
 25 27  2  0
 15 28  1  0
 10 29  1  0
  6 30  1  0
 30 31  2  0
 31  3  1  0
 29  7  1  0
 28 13  1  0
 27 17  1  0
  1 32  1  0
  1 33  1  0
  1 34  1  0
  4 35  1  0
  5 36  1  0
 14 37  1  0
 14 38  1  0
 15 39  1  0
 18 40  1  0
 19 41  1  0
 21 42  1  0
 21 43  1  0
 23 44  1  0
 23 45  1  0
 23 46  1  0
 24 47  1  0
 24 48  1  0
 24 49  1  0
 27 50  1  0
 28 51  1  0
 28 52  1  0
 30 53  1  0
 31 54  1  0
M  END
$$$$
