
     RDKit          3D

 66 70  0  0  0  0  0  0  0  0999 V2000
   -5.1857   -1.7265   -0.8484 C   0  0  0  0  0  0  0  0  0  0  0  0
   -4.2736   -0.9516    0.0773 C   0  0  1  0  0  0  0  0  0  0  0  0
   -3.9743    0.3158   -0.4088 O   0  0  0  0  0  0  0  0  0  0  0  0
   -2.7676    0.8372   -0.7585 C   0  0  0  0  0  0  0  0  0  0  0  0
   -1.5467    0.2029   -0.7044 C   0  0  0  0  0  0  0  0  0  0  0  0
   -0.3619    0.8072   -1.0806 C   0  0  0  0  0  0  0  0  0  0  0  0
    0.8711    0.0363   -0.9809 C   0  0  0  0  0  0  0  0  0  0  0  0
    1.0568   -1.3166   -1.1359 C   0  0  0  0  0  0  0  0  0  0  0  0
    2.3332   -1.6001   -0.9624 N   0  0  0  0  0  0  0  0  0  0  0  0
    3.0038   -0.4983   -0.6994 N   0  0  0  0  0  0  0  0  0  0  0  0
    4.4009   -0.4069   -0.4542 C   0  0  0  0  0  0  0  0  0  0  0  0
    4.7098    0.3921    0.8197 C   0  0  0  0  0  0  0  0  0  0  0  0
    6.1122   -0.1292    1.1045 C   0  0  0  0  0  0  0  0  0  0  0  0
    7.0818    0.8655    0.5055 C   0  0  0  0  0  0  0  0  0  0  0  0
    6.3778   -0.1848    2.5948 C   0  0  0  0  0  0  0  0  0  0  0  0
    6.2239   -1.3683    0.5491 O   0  0  0  0  0  0  0  0  0  0  0  0
    5.0596   -1.7098   -0.0933 C   0  0  0  0  0  0  0  0  0  0  0  0
    4.2328   -2.5422    0.8495 C   0  0  0  0  0  0  0  0  0  0  0  0
    5.4317   -2.5121   -1.3206 C   0  0  0  0  0  0  0  0  0  0  0  0
    2.1472    0.5317   -0.7005 C   0  0  0  0  0  0  0  0  0  0  0  0
   -0.4028    2.0960   -1.5276 C   0  0  0  0  0  0  0  0  0  0  0  0
   -1.5975    2.7777   -1.6018 C   0  0  0  0  0  0  0  0  0  0  0  0
   -1.9272    4.0106   -1.9897 N   0  0  0  0  0  0  0  0  0  0  0  0
   -3.2287    4.1972   -1.8757 N   0  0  0  0  0  0  0  0  0  0  0  0
   -3.9348    5.4199   -2.2084 C   0  0  0  0  0  0  0  0  0  0  0  0
   -3.7791    3.0744   -1.4049 C   0  0  0  0  0  0  0  0  0  0  0  0
   -5.1016    2.9089   -1.1643 F   0  0  0  0  0  0  0  0  0  0  0  0
   -2.7560    2.1558   -1.2232 C   0  0  0  0  0  0  0  0  0  0  0  0
   -4.8708   -0.8067    1.4586 C   0  0  1  0  0  0  0  0  0  0  0  0
   -6.1818   -0.0875    1.4654 C   0  0  0  0  0  0  0  0  0  0  0  0
   -7.1995   -1.1079    1.3408 N   0  0  0  0  0  0  0  0  0  0  0  0
   -6.6221   -2.3165    1.8169 C   0  0  0  0  0  0  0  0  0  0  0  0
   -7.2812   -3.3762    1.9652 O   0  0  0  0  0  0  0  0  0  0  0  0
   -5.1889   -2.1347    2.0963 C   0  0  0  0  0  0  0  0  0  0  0  0
   -4.5776   -2.0767   -1.7344 H   0  0  0  0  0  0  0  0  0  0  0  0
   -5.9670   -1.0772   -1.2665 H   0  0  0  0  0  0  0  0  0  0  0  0
   -5.5854   -2.6296   -0.3911 H   0  0  0  0  0  0  0  0  0  0  0  0
   -3.3449   -1.5436    0.1721 H   0  0  0  0  0  0  0  0  0  0  0  0
   -1.5291   -0.8164   -0.3489 H   0  0  0  0  0  0  0  0  0  0  0  0
    0.2729   -2.0153   -1.3625 H   0  0  0  0  0  0  0  0  0  0  0  0
    4.9749    0.0460   -1.2886 H   0  0  0  0  0  0  0  0  0  0  0  0
    4.0092    0.0652    1.6155 H   0  0  0  0  0  0  0  0  0  0  0  0
    4.7144    1.4689    0.6459 H   0  0  0  0  0  0  0  0  0  0  0  0
    6.8251    1.8880    0.8825 H   0  0  0  0  0  0  0  0  0  0  0  0
    7.0778    0.8646   -0.5917 H   0  0  0  0  0  0  0  0  0  0  0  0
    8.1241    0.6757    0.8955 H   0  0  0  0  0  0  0  0  0  0  0  0
    5.8163    0.6147    3.1309 H   0  0  0  0  0  0  0  0  0  0  0  0
    6.1884   -1.1798    3.0225 H   0  0  0  0  0  0  0  0  0  0  0  0
    7.4559    0.0282    2.7422 H   0  0  0  0  0  0  0  0  0  0  0  0
    4.7907   -2.8476    1.7488 H   0  0  0  0  0  0  0  0  0  0  0  0
    3.9130   -3.4518    0.3089 H   0  0  0  0  0  0  0  0  0  0  0  0
    3.3115   -2.0352    1.1968 H   0  0  0  0  0  0  0  0  0  0  0  0
    4.5915   -2.6990   -1.9885 H   0  0  0  0  0  0  0  0  0  0  0  0
    6.2015   -1.9410   -1.8709 H   0  0  0  0  0  0  0  0  0  0  0  0
    5.8355   -3.4792   -0.9603 H   0  0  0  0  0  0  0  0  0  0  0  0
    2.3526    1.5829   -0.5221 H   0  0  0  0  0  0  0  0  0  0  0  0
    0.5021    2.6036   -1.8308 H   0  0  0  0  0  0  0  0  0  0  0  0
   -3.2669    6.0873   -2.7899 H   0  0  0  0  0  0  0  0  0  0  0  0
   -4.8077    5.1986   -2.8381 H   0  0  0  0  0  0  0  0  0  0  0  0
   -4.2071    5.9154   -1.2702 H   0  0  0  0  0  0  0  0  0  0  0  0
   -4.1806   -0.2509    2.1300 H   0  0  0  0  0  0  0  0  0  0  0  0
   -6.3267    0.3755    2.4809 H   0  0  0  0  0  0  0  0  0  0  0  0
   -6.2651    0.7219    0.7427 H   0  0  0  0  0  0  0  0  0  0  0  0
   -8.1628   -0.9722    0.9731 H   0  0  0  0  0  0  0  0  0  0  0  0
   -4.5634   -2.9425    1.6625 H   0  0  0  0  0  0  0  0  0  0  0  0
   -5.0336   -2.0315    3.2037 H   0  0  0  0  0  0  0  0  0  0  0  0
  1  2  1  0
  2  3  1  0
  3  4  1  0
  4  5  2  0
  5  6  1  0
  6  7  1  0
  7  8  1  0
  8  9  2  0
  9 10  1  0
 10 11  1  0
 11 12  1  0
 12 13  1  0
 13 14  1  0
 13 15  1  0
 13 16  1  0
 16 17  1  0
 17 18  1  0
 17 19  1  0
 10 20  1  0
  6 21  2  0
 21 22  1  0
 22 23  2  0
 23 24  1  0
 24 25  1  0
 24 26  1  0
 26 27  1  0
 26 28  2  0
  2 29  1  0
 29 30  1  0
 30 31  1  0
 31 32  1  0
 32 33  2  0
 32 34  1  0
 28  4  1  0
 34 29  1  0
 20  7  2  0
 28 22  1  0
 17 11  1  0
  1 35  1  0
  1 36  1  0
  1 37  1  0
  2 38  1  1
  5 39  1  0
  8 40  1  0
 11 41  1  0
 12 42  1  0
 12 43  1  0
 14 44  1  0
 14 45  1  0
 14 46  1  0
 15 47  1  0
 15 48  1  0
 15 49  1  0
 18 50  1  0
 18 51  1  0
 18 52  1  0
 19 53  1  0
 19 54  1  0
 19 55  1  0
 20 56  1  0
 21 57  1  0
 25 58  1  0
 25 59  1  0
 25 60  1  0
 29 61  1  1
 30 62  1  0
 30 63  1  0
 31 64  1  0
 34 65  1  0
 34 66  1  0
M  END
$$$$
