
     RDKit          3D

 66 70  0  0  0  0  0  0  0  0999 V2000
    8.5539   -3.1484   -0.5434 C   0  0  0  0  0  0  0  0  0  0  0  0
    8.9126   -1.7160   -0.7115 C   0  0  0  0  0  0  0  0  0  0  0  0
   10.1087   -1.1521   -0.8881 N   0  0  0  0  0  0  0  0  0  0  0  0
   10.0186    0.1462   -0.9960 N   0  0  0  0  0  0  0  0  0  0  0  0
   11.0858    1.0930   -1.1940 C   0  0  0  0  0  0  0  0  0  0  0  0
    8.7179    0.4638   -0.8881 C   0  0  0  0  0  0  0  0  0  0  0  0
    7.9793   -0.6696   -0.7081 C   0  0  0  0  0  0  0  0  0  0  0  0
    6.5820   -0.8226   -0.5486 N   0  0  0  0  0  0  0  0  0  0  0  0
    5.7048    0.2968   -0.5477 C   0  0  0  0  0  0  0  0  0  0  0  0
    6.1320    1.5577   -0.6926 N   0  0  0  0  0  0  0  0  0  0  0  0
    5.2933    2.5978   -0.6878 C   0  0  0  0  0  0  0  0  0  0  0  0
    3.9111    2.3753   -0.5259 C   0  0  0  0  0  0  0  0  0  0  0  0
    3.4464    1.1083   -0.3751 C   0  0  0  0  0  0  0  0  0  0  0  0
    2.0416    0.7505   -0.2511 C   0  0  0  0  0  0  0  0  0  0  0  0
    1.5558   -0.5285   -0.5654 C   0  0  0  0  0  0  0  0  0  0  0  0
    0.2378   -0.5848   -0.3197 N   0  0  0  0  0  0  0  0  0  0  0  0
   -0.1827    0.5954    0.1455 C   0  0  0  0  0  0  0  0  0  0  0  0
   -1.4525    1.0081    0.5505 C   0  0  0  0  0  0  0  0  0  0  0  0
   -2.4919    0.0615    0.4438 N   0  0  0  0  0  0  0  0  0  0  0  0
   -3.8467    0.2463    0.8083 C   0  0  0  0  0  0  0  0  0  0  0  0
   -4.1970    1.3353    1.2740 O   0  0  0  0  0  0  0  0  0  0  0  0
   -4.8009   -0.8865    0.6141 C   0  0  1  0  0  0  0  0  0  0  0  0
   -4.3369   -2.1196    1.3268 C   0  0  0  0  0  0  0  0  0  0  0  0
   -6.1540   -0.5696    0.9607 N   0  0  0  0  0  0  0  0  0  0  0  0
   -7.0468   -1.6755    0.8340 C   0  0  0  0  0  0  0  0  0  0  0  0
   -8.4825   -1.3596    0.6407 C   0  0  0  0  0  0  0  0  0  0  0  0
   -8.5843   -0.3978   -0.4474 N   0  0  0  0  0  0  0  0  0  0  0  0
  -10.0038   -0.1369   -0.6260 C   0  0  0  0  0  0  0  0  0  0  0  0
   -8.0035    0.8283    0.0699 C   0  0  0  0  0  0  0  0  0  0  0  0
   -6.6098    0.6985    0.5624 C   0  0  0  0  0  0  0  0  0  0  0  0
   -1.5630    2.2951    1.0087 C   0  0  0  0  0  0  0  0  0  0  0  0
   -0.4437    3.1416    1.0616 C   0  0  0  0  0  0  0  0  0  0  0  0
    0.7964    2.7102    0.6561 C   0  0  0  0  0  0  0  0  0  0  0  0
    0.9320    1.4201    0.1890 C   0  0  0  0  0  0  0  0  0  0  0  0
    4.3885    0.1263   -0.3962 N   0  0  0  0  0  0  0  0  0  0  0  0
    8.5876   -3.6174   -1.5539 H   0  0  0  0  0  0  0  0  0  0  0  0
    7.5547   -3.2337   -0.0749 H   0  0  0  0  0  0  0  0  0  0  0  0
    9.2886   -3.6476    0.1312 H   0  0  0  0  0  0  0  0  0  0  0  0
   11.9808    0.7178   -0.6635 H   0  0  0  0  0  0  0  0  0  0  0  0
   10.7670    2.0955   -0.8612 H   0  0  0  0  0  0  0  0  0  0  0  0
   11.3608    1.1296   -2.2794 H   0  0  0  0  0  0  0  0  0  0  0  0
    8.3714    1.4789   -0.9439 H   0  0  0  0  0  0  0  0  0  0  0  0
    6.1533   -1.7902   -0.4242 H   0  0  0  0  0  0  0  0  0  0  0  0
    5.6524    3.5970   -0.8047 H   0  0  0  0  0  0  0  0  0  0  0  0
    3.2640    3.2259   -0.5573 H   0  0  0  0  0  0  0  0  0  0  0  0
    2.2037   -1.3068   -0.9469 H   0  0  0  0  0  0  0  0  0  0  0  0
   -0.3691   -1.4331   -0.4720 H   0  0  0  0  0  0  0  0  0  0  0  0
   -2.2961   -0.9192    0.0517 H   0  0  0  0  0  0  0  0  0  0  0  0
   -4.7878   -1.1009   -0.4849 H   0  0  0  0  0  0  0  0  0  0  0  0
   -3.3808   -2.4585    0.8353 H   0  0  0  0  0  0  0  0  0  0  0  0
   -5.0612   -2.9355    1.1234 H   0  0  0  0  0  0  0  0  0  0  0  0
   -4.1247   -1.9925    2.3871 H   0  0  0  0  0  0  0  0  0  0  0  0
   -6.9444   -2.3492    1.7069 H   0  0  0  0  0  0  0  0  0  0  0  0
   -6.7019   -2.2792   -0.0525 H   0  0  0  0  0  0  0  0  0  0  0  0
   -9.0213   -1.0523    1.5430 H   0  0  0  0  0  0  0  0  0  0  0  0
   -8.9770   -2.2956    0.2452 H   0  0  0  0  0  0  0  0  0  0  0  0
  -10.5214   -1.1104   -0.8358 H   0  0  0  0  0  0  0  0  0  0  0  0
  -10.1725    0.5830   -1.4261 H   0  0  0  0  0  0  0  0  0  0  0  0
  -10.3715    0.2076    0.3769 H   0  0  0  0  0  0  0  0  0  0  0  0
   -8.7076    1.2423    0.8430 H   0  0  0  0  0  0  0  0  0  0  0  0
   -8.0350    1.5667   -0.7561 H   0  0  0  0  0  0  0  0  0  0  0  0
   -6.4913    1.4490    1.4010 H   0  0  0  0  0  0  0  0  0  0  0  0
   -5.9186    1.0753   -0.2459 H   0  0  0  0  0  0  0  0  0  0  0  0
   -2.5194    2.6577    1.3301 H   0  0  0  0  0  0  0  0  0  0  0  0
   -0.5886    4.1300    1.4267 H   0  0  0  0  0  0  0  0  0  0  0  0
    1.6069    3.4073    0.7482 H   0  0  0  0  0  0  0  0  0  0  0  0
  1  2  1  0
  2  3  2  0
  3  4  1  0
  4  5  1  0
  4  6  1  0
  6  7  2  0
  7  8  1  0
  8  9  1  0
  9 10  2  0
 10 11  1  0
 11 12  2  0
 12 13  1  0
 13 14  1  0
 14 15  2  0
 15 16  1  0
 16 17  1  0
 17 18  2  0
 18 19  1  0
 19 20  1  0
 20 21  2  0
 20 22  1  0
 22 23  1  0
 22 24  1  0
 24 25  1  0
 25 26  1  0
 26 27  1  0
 27 28  1  0
 27 29  1  0
 29 30  1  0
 18 31  1  0
 31 32  2  0
 32 33  1  0
 33 34  2  0
 13 35  2  0
  7  2  1  0
 35  9  1  0
 34 14  1  0
 34 17  1  0
 30 24  1  0
  1 36  1  0
  1 37  1  0
  1 38  1  0
  5 39  1  0
  5 40  1  0
  5 41  1  0
  6 42  1  0
  8 43  1  0
 11 44  1  0
 12 45  1  0
 15 46  1  0
 16 47  1  0
 19 48  1  0
 22 49  1  6
 23 50  1  0
 23 51  1  0
 23 52  1  0
 25 53  1  0
 25 54  1  0
 26 55  1  0
 26 56  1  0
 28 57  1  0
 28 58  1  0
 28 59  1  0
 29 60  1  0
 29 61  1  0
 30 62  1  0
 30 63  1  0
 31 64  1  0
 32 65  1  0
 33 66  1  0
M  END
$$$$
