
     RDKit          3D

 37 39  0  0  0  0  0  0  0  0999 V2000
    1.4757    0.9059   -1.5534 O   0  0  0  0  0  0  0  0  0  0  0  0
    2.0882    0.2459   -0.6766 C   0  0  0  0  0  0  0  0  0  0  0  0
    1.4119   -0.8172   -0.0409 N   0  0  0  0  0  0  0  0  0  0  0  0
    0.0666   -1.0900   -0.4248 C   0  0  0  0  0  0  0  0  0  0  0  0
   -1.0034   -0.4942    0.2027 C   0  0  0  0  0  0  0  0  0  0  0  0
   -2.3191   -0.7784   -0.1913 C   0  0  0  0  0  0  0  0  0  0  0  0
   -3.4188   -0.1226    0.5036 C   0  0  0  0  0  0  0  0  0  0  0  0
   -3.2225    1.1494    0.9984 C   0  0  0  0  0  0  0  0  0  0  0  0
   -4.2154    1.8378    1.6692 C   0  0  0  0  0  0  0  0  0  0  0  0
   -5.4548    1.2676    1.8698 C   0  0  0  0  0  0  0  0  0  0  0  0
   -5.6646   -0.0069    1.3790 C   0  0  0  0  0  0  0  0  0  0  0  0
   -4.6563   -0.6976    0.7014 C   0  0  0  0  0  0  0  0  0  0  0  0
   -2.5390   -1.6682   -1.2227 C   0  0  0  0  0  0  0  0  0  0  0  0
   -1.4788   -2.2732   -1.8614 C   0  0  0  0  0  0  0  0  0  0  0  0
   -0.1913   -1.9717   -1.4490 C   0  0  0  0  0  0  0  0  0  0  0  0
    0.8837   -2.5685   -2.0774 O   0  0  0  0  0  0  0  0  0  0  0  0
    3.4633    0.5847   -0.3380 C   0  0  0  0  0  0  0  0  0  0  0  0
    4.1115    1.6350   -0.9847 C   0  0  0  0  0  0  0  0  0  0  0  0
    5.4079    1.9374   -0.6498 C   0  0  0  0  0  0  0  0  0  0  0  0
    6.1205    1.2486    0.3085 C   0  0  0  0  0  0  0  0  0  0  0  0
    5.4955    0.2116    0.9542 C   0  0  0  0  0  0  0  0  0  0  0  0
    4.1857   -0.0858    0.6085 C   0  0  0  0  0  0  0  0  0  0  0  0
    1.8645   -1.4219    0.7112 H   0  0  0  0  0  0  0  0  0  0  0  0
   -0.7964    0.1991    1.0073 H   0  0  0  0  0  0  0  0  0  0  0  0
   -2.2619    1.6127    0.8523 H   0  0  0  0  0  0  0  0  0  0  0  0
   -4.0691    2.8397    2.0618 H   0  0  0  0  0  0  0  0  0  0  0  0
   -6.2572    1.7871    2.3954 H   0  0  0  0  0  0  0  0  0  0  0  0
   -6.6269   -0.4670    1.5282 H   0  0  0  0  0  0  0  0  0  0  0  0
   -4.8250   -1.6836    0.3236 H   0  0  0  0  0  0  0  0  0  0  0  0
   -3.5623   -1.8971   -1.5382 H   0  0  0  0  0  0  0  0  0  0  0  0
   -1.6089   -2.9734   -2.6714 H   0  0  0  0  0  0  0  0  0  0  0  0
    1.2205   -2.1034   -2.9253 H   0  0  0  0  0  0  0  0  0  0  0  0
    3.5640    2.1898   -1.7441 H   0  0  0  0  0  0  0  0  0  0  0  0
    5.9332    2.7530   -1.1414 H   0  0  0  0  0  0  0  0  0  0  0  0
    7.1595    1.5178    0.5520 H   0  0  0  0  0  0  0  0  0  0  0  0
    5.9962   -0.3621    1.7094 H   0  0  0  0  0  0  0  0  0  0  0  0
    3.7233   -0.9270    1.1536 H   0  0  0  0  0  0  0  0  0  0  0  0
  1  2  2  0
  2  3  1  0
  3  4  1  0
  4  5  2  0
  5  6  1  0
  6  7  1  0
  7  8  2  0
  8  9  1  0
  9 10  2  0
 10 11  1  0
 11 12  2  0
  6 13  2  0
 13 14  1  0
 14 15  2  0
 15 16  1  0
  2 17  1  0
 17 18  2  0
 18 19  1  0
 19 20  2  0
 20 21  1  0
 21 22  2  0
 15  4  1  0
 22 17  1  0
 12  7  1  0
  3 23  1  0
  5 24  1  0
  8 25  1  0
  9 26  1  0
 10 27  1  0
 11 28  1  0
 12 29  1  0
 13 30  1  0
 14 31  1  0
 16 32  1  0
 18 33  1  0
 19 34  1  0
 20 35  1  0
 21 36  1  0
 22 37  1  0
M  END
$$$$
