
     RDKit          3D

 77 81  0  0  0  0  0  0  0  0999 V2000
   -4.3637    5.0024    2.0612 O   0  0  0  0  0  0  0  0  0  0  0  0
   -3.9435    4.6013    0.8277 C   0  0  0  0  0  0  0  0  0  0  0  0
   -4.8499    3.9068    1.3881 O   0  0  0  0  0  0  0  0  0  0  0  0
   -3.1244    4.7043   -0.3841 C   0  0  0  0  0  0  0  0  0  0  0  0
   -3.4542    3.5966   -1.3343 C   0  0  0  0  0  0  0  0  0  0  0  0
   -2.7266    3.5244   -2.6316 C   0  0  0  0  0  0  0  0  0  0  0  0
   -4.1126    4.0478   -2.6477 C   0  0  0  0  0  0  0  0  0  0  0  0
   -4.0840    2.3533   -0.7754 C   0  0  0  0  0  0  0  0  0  0  0  0
   -3.0071    1.6023    0.4583 S   0  0  0  0  0  0  0  0  0  0  0  0
   -1.5062    0.9977   -0.3257 C   0  0  2  0  0  0  0  0  0  0  0  0
   -1.8919   -0.1541   -1.2698 C   0  0  0  0  0  0  0  0  0  0  0  0
   -2.5416   -1.2743   -0.4898 C   0  0  0  0  0  0  0  0  0  0  0  0
   -2.9150   -2.3746   -1.4336 C   0  0  0  0  0  0  0  0  0  0  0  0
   -2.6934   -2.2914   -2.7920 C   0  0  0  0  0  0  0  0  0  0  0  0
   -3.0158   -3.2648   -3.7045 C   0  0  0  0  0  0  0  0  0  0  0  0
   -3.6087   -4.4203   -3.2281 C   0  0  0  0  0  0  0  0  0  0  0  0
   -3.8401   -4.5270   -1.8741 C   0  0  0  0  0  0  0  0  0  0  0  0
   -3.5142   -3.5388   -0.9388 C   0  0  0  0  0  0  0  0  0  0  0  0
   -3.7800   -3.6976    0.5125 C   0  0  0  0  0  0  0  0  0  0  0  0
   -4.6320   -2.7109    1.0204 O   0  0  0  0  0  0  0  0  0  0  0  0
   -4.5672   -5.0062    0.6681 C   0  0  0  0  0  0  0  0  0  0  0  0
   -2.5507   -3.8135    1.3530 C   0  0  0  0  0  0  0  0  0  0  0  0
   -0.4798    0.5693    0.6318 C   0  0  0  0  0  0  0  0  0  0  0  0
   -0.8280   -0.0835    1.8161 C   0  0  0  0  0  0  0  0  0  0  0  0
    0.1090   -0.5129    2.7349 C   0  0  0  0  0  0  0  0  0  0  0  0
    1.4311   -0.2663    2.4312 C   0  0  0  0  0  0  0  0  0  0  0  0
    1.8613    0.3680    1.2923 C   0  0  0  0  0  0  0  0  0  0  0  0
    3.2526    0.6289    0.9592 C   0  0  0  0  0  0  0  0  0  0  0  0
    4.2758    0.2821    1.7107 C   0  0  0  0  0  0  0  0  0  0  0  0
    5.6870    0.5121    1.4356 C   0  0  0  0  0  0  0  0  0  0  0  0
    6.6805    0.1301    2.2495 N   0  0  0  0  0  0  0  0  0  0  0  0
    7.9747    0.3466    1.9841 C   0  0  0  0  0  0  0  0  0  0  0  0
    8.4162    0.9867    0.8418 C   0  0  0  0  0  0  0  0  0  0  0  0
    9.7528    1.2017    0.5810 C   0  0  0  0  0  0  0  0  0  0  0  0
   10.6457    0.7470    1.5167 C   0  0  0  0  0  0  0  0  0  0  0  0
   10.2407    0.1038    2.6671 C   0  0  0  0  0  0  0  0  0  0  0  0
   11.4571   -0.4338    3.7894 Cl  0  0  0  0  0  0  0  0  0  0  0  0
    8.8958   -0.0968    2.9009 C   0  0  0  0  0  0  0  0  0  0  0  0
    7.4228    1.3972   -0.0250 C   0  0  0  0  0  0  0  0  0  0  0  0
    6.1055    1.1533    0.2890 C   0  0  0  0  0  0  0  0  0  0  0  0
    0.8683    0.7625    0.4315 C   0  0  0  0  0  0  0  0  0  0  0  0
   -4.0596    5.8814    2.4863 H   0  0  0  0  0  0  0  0  0  0  0  0
   -2.0430    4.6785   -0.1097 H   0  0  0  0  0  0  0  0  0  0  0  0
   -3.2785    5.6965   -0.9003 H   0  0  0  0  0  0  0  0  0  0  0  0
   -1.9161    4.2813   -2.7635 H   0  0  0  0  0  0  0  0  0  0  0  0
   -2.4896    2.5112   -2.9856 H   0  0  0  0  0  0  0  0  0  0  0  0
   -4.8707    3.4153   -3.1153 H   0  0  0  0  0  0  0  0  0  0  0  0
   -4.2639    5.1388   -2.7764 H   0  0  0  0  0  0  0  0  0  0  0  0
   -5.0935    2.4929   -0.3607 H   0  0  0  0  0  0  0  0  0  0  0  0
   -4.2066    1.6364   -1.6537 H   0  0  0  0  0  0  0  0  0  0  0  0
   -1.0372    1.7495   -1.0193 H   0  0  0  0  0  0  0  0  0  0  0  0
   -2.5614    0.2321   -2.0688 H   0  0  0  0  0  0  0  0  0  0  0  0
   -0.9289   -0.5143   -1.7067 H   0  0  0  0  0  0  0  0  0  0  0  0
   -1.7327   -1.6760    0.1690 H   0  0  0  0  0  0  0  0  0  0  0  0
   -3.4186   -0.8997    0.0369 H   0  0  0  0  0  0  0  0  0  0  0  0
   -2.2330   -1.4135   -3.2196 H   0  0  0  0  0  0  0  0  0  0  0  0
   -2.8235   -3.1595   -4.7682 H   0  0  0  0  0  0  0  0  0  0  0  0
   -3.8955   -5.2401   -3.8833 H   0  0  0  0  0  0  0  0  0  0  0  0
   -4.3056   -5.4456   -1.5298 H   0  0  0  0  0  0  0  0  0  0  0  0
   -5.2789   -2.4849    0.2992 H   0  0  0  0  0  0  0  0  0  0  0  0
   -3.8981   -5.8584    0.4280 H   0  0  0  0  0  0  0  0  0  0  0  0
   -4.8238   -5.1471    1.7544 H   0  0  0  0  0  0  0  0  0  0  0  0
   -5.5044   -4.9989    0.1021 H   0  0  0  0  0  0  0  0  0  0  0  0
   -2.4599   -2.9519    2.0645 H   0  0  0  0  0  0  0  0  0  0  0  0
   -1.6106   -3.9916    0.7768 H   0  0  0  0  0  0  0  0  0  0  0  0
   -2.6069   -4.7049    2.0438 H   0  0  0  0  0  0  0  0  0  0  0  0
   -1.8698   -0.2870    2.0868 H   0  0  0  0  0  0  0  0  0  0  0  0
   -0.2004   -1.0143    3.6403 H   0  0  0  0  0  0  0  0  0  0  0  0
    2.1534   -0.6056    3.1551 H   0  0  0  0  0  0  0  0  0  0  0  0
    3.4912    1.1402    0.0394 H   0  0  0  0  0  0  0  0  0  0  0  0
    4.0674   -0.2274    2.6317 H   0  0  0  0  0  0  0  0  0  0  0  0
   10.0384    1.7034   -0.3202 H   0  0  0  0  0  0  0  0  0  0  0  0
   11.7077    0.9068    1.3309 H   0  0  0  0  0  0  0  0  0  0  0  0
    8.5874   -0.5974    3.7988 H   0  0  0  0  0  0  0  0  0  0  0  0
    7.7436    1.9032   -0.9327 H   0  0  0  0  0  0  0  0  0  0  0  0
    5.4198    1.5160   -0.4561 H   0  0  0  0  0  0  0  0  0  0  0  0
    1.1558    1.2752   -0.4947 H   0  0  0  0  0  0  0  0  0  0  0  0
  1  2  1  0
  2  3  2  0
  2  4  1  0
  4  5  1  0
  5  6  1  0
  6  7  1  0
  5  8  1  0
  8  9  1  0
  9 10  1  0
 10 11  1  0
 11 12  1  0
 12 13  1  0
 13 14  2  0
 14 15  1  0
 15 16  2  0
 16 17  1  0
 17 18  2  0
 18 19  1  0
 19 20  1  0
 19 21  1  0
 19 22  1  0
 10 23  1  0
 23 24  2  0
 24 25  1  0
 25 26  2  0
 26 27  1  0
 27 28  1  0
 28 29  2  0
 29 30  1  0
 30 31  2  0
 31 32  1  0
 32 33  2  0
 33 34  1  0
 34 35  2  0
 35 36  1  0
 36 37  1  0
 36 38  2  0
 33 39  1  0
 39 40  2  0
 27 41  2  0
  7  5  1  0
 18 13  1  0
 41 23  1  0
 40 30  1  0
 38 32  1  0
  1 42  1  0
  4 43  1  0
  4 44  1  0
  6 45  1  0
  6 46  1  0
  7 47  1  0
  7 48  1  0
  8 49  1  0
  8 50  1  0
 10 51  1  6
 11 52  1  0
 11 53  1  0
 12 54  1  0
 12 55  1  0
 14 56  1  0
 15 57  1  0
 16 58  1  0
 17 59  1  0
 20 60  1  0
 21 61  1  0
 21 62  1  0
 21 63  1  0
 22 64  1  0
 22 65  1  0
 22 66  1  0
 24 67  1  0
 25 68  1  0
 26 69  1  0
 28 70  1  0
 29 71  1  0
 34 72  1  0
 35 73  1  0
 38 74  1  0
 39 75  1  0
 40 76  1  0
 41 77  1  0
M  END
$$$$
