
     RDKit          3D

 48 49  0  0  0  0  0  0  0  0999 V2000
    7.5265    0.0665    0.5685 C   0  0  0  0  0  0  0  0  0  0  0  0
    6.8656   -0.6229   -0.4104 O   0  0  0  0  0  0  0  0  0  0  0  0
    5.5587   -0.9557   -0.1564 C   0  0  0  0  0  0  0  0  0  0  0  0
    4.6942    0.2124   -0.0122 C   0  0  0  0  0  0  0  0  0  0  0  0
    5.1638    1.3621   -0.1897 O   0  0  0  0  0  0  0  0  0  0  0  0
    3.3117    0.1235    0.3273 N   0  0  0  0  0  0  0  0  0  0  0  0
    2.6243   -1.1187    0.5627 C   0  0  0  0  0  0  0  0  0  0  0  0
    1.4495   -1.2210   -0.3155 C   0  0  0  0  0  0  0  0  0  0  0  0
    0.7542    0.0108   -0.7848 C   0  0  0  0  0  0  0  0  0  0  0  0
   -0.7259   -0.0274   -0.7935 C   0  0  0  0  0  0  0  0  0  0  0  0
   -1.4388   -0.3560   -1.9680 C   0  0  0  0  0  0  0  0  0  0  0  0
   -2.8070   -0.4064   -2.0402 C   0  0  0  0  0  0  0  0  0  0  0  0
   -3.5560   -0.1251   -0.9178 C   0  0  0  0  0  0  0  0  0  0  0  0
   -5.0332   -0.1789   -0.9944 C   0  0  0  0  0  0  0  0  0  0  0  0
   -5.5824   -0.4818   -2.0900 O   0  0  0  0  0  0  0  0  0  0  0  0
   -5.8126    0.0973    0.1142 N   0  0  0  0  0  0  0  0  0  0  0  0
   -7.2561    0.0545    0.0760 C   0  0  0  0  0  0  0  0  0  0  0  0
   -7.9217   -0.2283   -0.9340 N   0  0  0  0  0  0  0  0  0  0  0  0
   -7.9818    0.3622    1.2991 N   0  0  0  0  0  0  0  0  0  0  0  0
   -2.8778    0.1924    0.2189 C   0  0  0  0  0  0  0  0  0  0  0  0
   -1.4691    0.2519    0.3228 C   0  0  0  0  0  0  0  0  0  0  0  0
   -0.8696    0.6032    1.5882 C   0  0  0  0  0  0  0  0  0  0  0  0
    0.0140   -0.3286    2.1350 F   0  0  0  0  0  0  0  0  0  0  0  0
   -0.5354    1.8954    1.8347 F   0  0  0  0  0  0  0  0  0  0  0  0
   -1.9165    0.4441    2.5716 F   0  0  0  0  0  0  0  0  0  0  0  0
    1.3931    1.3301   -0.5581 C   0  0  0  0  0  0  0  0  0  0  0  0
    2.5084    1.3183    0.4553 C   0  0  0  0  0  0  0  0  0  0  0  0
    8.5803    0.2709    0.2280 H   0  0  0  0  0  0  0  0  0  0  0  0
    7.6158   -0.5875    1.4730 H   0  0  0  0  0  0  0  0  0  0  0  0
    7.0719    1.0028    0.9214 H   0  0  0  0  0  0  0  0  0  0  0  0
    5.1961   -1.6675   -0.9355 H   0  0  0  0  0  0  0  0  0  0  0  0
    5.5732   -1.4775    0.8470 H   0  0  0  0  0  0  0  0  0  0  0  0
    3.3550   -1.9575    0.3198 H   0  0  0  0  0  0  0  0  0  0  0  0
    2.4234   -1.2929    1.6431 H   0  0  0  0  0  0  0  0  0  0  0  0
    1.7961   -1.9011   -1.1721 H   0  0  0  0  0  0  0  0  0  0  0  0
    0.6390   -1.9086    0.1067 H   0  0  0  0  0  0  0  0  0  0  0  0
    0.9853   -0.0993   -1.9301 H   0  0  0  0  0  0  0  0  0  0  0  0
   -0.8161   -0.5784   -2.8485 H   0  0  0  0  0  0  0  0  0  0  0  0
   -3.3290   -0.6581   -2.9422 H   0  0  0  0  0  0  0  0  0  0  0  0
   -5.3838    0.3531    1.0426 H   0  0  0  0  0  0  0  0  0  0  0  0
   -7.7014   -0.4708   -1.8677 H   0  0  0  0  0  0  0  0  0  0  0  0
   -8.8115   -0.2250    1.5067 H   0  0  0  0  0  0  0  0  0  0  0  0
   -7.6315    1.1407    1.8842 H   0  0  0  0  0  0  0  0  0  0  0  0
   -3.4331    0.4211    1.1154 H   0  0  0  0  0  0  0  0  0  0  0  0
    0.6424    2.1039   -0.4021 H   0  0  0  0  0  0  0  0  0  0  0  0
    1.9400    1.7512   -1.4772 H   0  0  0  0  0  0  0  0  0  0  0  0
    2.0537    1.2979    1.4609 H   0  0  0  0  0  0  0  0  0  0  0  0
    3.1539    2.2087    0.4021 H   0  0  0  0  0  0  0  0  0  0  0  0
  1  2  1  0
  2  3  1  0
  3  4  1  0
  4  5  2  0
  4  6  1  0
  6  7  1  0
  7  8  1  0
  8  9  1  0
  9 10  1  0
 10 11  2  0
 11 12  1  0
 12 13  2  0
 13 14  1  0
 14 15  2  0
 14 16  1  0
 16 17  1  0
 17 18  2  3
 17 19  1  0
 13 20  1  0
 20 21  2  0
 21 22  1  0
 22 23  1  0
 22 24  1  0
 22 25  1  0
  9 26  1  0
 26 27  1  0
 27  6  1  0
 21 10  1  0
  1 28  1  0
  1 29  1  0
  1 30  1  0
  3 31  1  0
  3 32  1  0
  7 33  1  0
  7 34  1  0
  8 35  1  0
  8 36  1  0
  9 37  1  0
 11 38  1  0
 12 39  1  0
 16 40  1  0
 18 41  1  0
 19 42  1  0
 19 43  1  0
 20 44  1  0
 26 45  1  0
 26 46  1  0
 27 47  1  0
 27 48  1  0
M  END
$$$$
