
     RDKit          3D

 66 70  0  0  0  0  0  0  0  0999 V2000
   -8.0636   -0.0445    4.0567 C   0  0  0  0  0  0  0  0  0  0  0  0
   -8.2597    0.3974    2.6393 C   0  0  0  0  0  0  0  0  0  0  0  0
   -9.2381    1.1988    2.1700 N   0  0  0  0  0  0  0  0  0  0  0  0
   -9.1197    1.3951    0.8685 N   0  0  0  0  0  0  0  0  0  0  0  0
   -9.9922    2.1938    0.0214 C   0  0  0  0  0  0  0  0  0  0  0  0
   -8.0261    0.6964    0.4835 C   0  0  0  0  0  0  0  0  0  0  0  0
   -7.4695    0.0634    1.5696 C   0  0  0  0  0  0  0  0  0  0  0  0
   -6.3349   -0.7755    1.6248 N   0  0  0  0  0  0  0  0  0  0  0  0
   -5.5090   -1.1127    0.5187 C   0  0  0  0  0  0  0  0  0  0  0  0
   -6.0604   -1.8975   -0.4321 N   0  0  0  0  0  0  0  0  0  0  0  0
   -5.3874   -2.3102   -1.5062 C   0  0  0  0  0  0  0  0  0  0  0  0
   -4.0582   -1.9123   -1.6496 C   0  0  0  0  0  0  0  0  0  0  0  0
   -3.5053   -1.1255   -0.6928 C   0  0  0  0  0  0  0  0  0  0  0  0
   -2.1413   -0.6294   -0.7642 C   0  0  0  0  0  0  0  0  0  0  0  0
   -1.6985    0.5727   -0.1770 C   0  0  0  0  0  0  0  0  0  0  0  0
   -0.3821    0.6880   -0.3621 N   0  0  0  0  0  0  0  0  0  0  0  0
    0.0821   -0.3819   -1.0467 C   0  0  0  0  0  0  0  0  0  0  0  0
    1.3922   -0.7069   -1.4455 C   0  0  0  0  0  0  0  0  0  0  0  0
    2.4064    0.2096   -1.1369 N   0  0  0  0  0  0  0  0  0  0  0  0
    3.7768   -0.0711   -1.2371 C   0  0  0  0  0  0  0  0  0  0  0  0
    4.2273   -1.1767   -1.6086 O   0  0  0  0  0  0  0  0  0  0  0  0
    4.7688    1.0038   -0.8789 C   0  0  1  0  0  0  0  0  0  0  0  0
    4.2897    1.7784    0.3228 C   0  0  0  0  0  0  0  0  0  0  0  0
    6.0539    0.4341   -0.7499 N   0  0  0  0  0  0  0  0  0  0  0  0
    6.2806   -0.4791    0.3046 C   0  0  0  0  0  0  0  0  0  0  0  0
    7.7220   -0.9434    0.2737 C   0  0  0  0  0  0  0  0  0  0  0  0
    8.5478    0.2042    0.5218 N   0  0  0  0  0  0  0  0  0  0  0  0
    8.3717    0.6325    1.9177 C   0  0  0  0  0  0  0  0  0  0  0  0
    8.3260    1.2999   -0.3748 C   0  0  0  0  0  0  0  0  0  0  0  0
    7.1563    1.1090   -1.3097 C   0  0  0  0  0  0  0  0  0  0  0  0
    1.6156   -1.8744   -2.1079 C   0  0  0  0  0  0  0  0  0  0  0  0
    0.5295   -2.7181   -2.3700 C   0  0  0  0  0  0  0  0  0  0  0  0
   -0.7409   -2.3727   -1.9668 C   0  0  0  0  0  0  0  0  0  0  0  0
   -1.0031   -1.1840   -1.2890 C   0  0  0  0  0  0  0  0  0  0  0  0
   -4.2379   -0.7307    0.3835 N   0  0  0  0  0  0  0  0  0  0  0  0
   -7.5454    0.7385    4.6474 H   0  0  0  0  0  0  0  0  0  0  0  0
   -9.0638   -0.2999    4.4501 H   0  0  0  0  0  0  0  0  0  0  0  0
   -7.4612   -0.9865    4.0755 H   0  0  0  0  0  0  0  0  0  0  0  0
  -11.0398    1.8808    0.1998 H   0  0  0  0  0  0  0  0  0  0  0  0
   -9.8272    3.2687    0.1515 H   0  0  0  0  0  0  0  0  0  0  0  0
   -9.7619    1.9057   -1.0451 H   0  0  0  0  0  0  0  0  0  0  0  0
   -7.6376    0.6362   -0.5220 H   0  0  0  0  0  0  0  0  0  0  0  0
   -6.0691   -1.1853    2.5599 H   0  0  0  0  0  0  0  0  0  0  0  0
   -5.8001   -2.9324   -2.2814 H   0  0  0  0  0  0  0  0  0  0  0  0
   -3.5291   -2.2363   -2.5621 H   0  0  0  0  0  0  0  0  0  0  0  0
   -2.3577    1.2585    0.3309 H   0  0  0  0  0  0  0  0  0  0  0  0
    0.1842    1.4729   -0.0344 H   0  0  0  0  0  0  0  0  0  0  0  0
    2.1661    1.2001   -0.8048 H   0  0  0  0  0  0  0  0  0  0  0  0
    4.7912    1.7188   -1.7442 H   0  0  0  0  0  0  0  0  0  0  0  0
    5.1283    2.3115    0.7952 H   0  0  0  0  0  0  0  0  0  0  0  0
    3.5691    2.5424   -0.0373 H   0  0  0  0  0  0  0  0  0  0  0  0
    3.7386    1.1298    1.0493 H   0  0  0  0  0  0  0  0  0  0  0  0
    6.0012   -0.0959    1.3115 H   0  0  0  0  0  0  0  0  0  0  0  0
    5.6650   -1.3873    0.1645 H   0  0  0  0  0  0  0  0  0  0  0  0
    7.9024   -1.3508   -0.7389 H   0  0  0  0  0  0  0  0  0  0  0  0
    7.9294   -1.6944    1.0539 H   0  0  0  0  0  0  0  0  0  0  0  0
    8.0283   -0.2465    2.4759 H   0  0  0  0  0  0  0  0  0  0  0  0
    7.6465    1.4558    1.9045 H   0  0  0  0  0  0  0  0  0  0  0  0
    9.3834    0.9489    2.2688 H   0  0  0  0  0  0  0  0  0  0  0  0
    8.2886    2.2663    0.1719 H   0  0  0  0  0  0  0  0  0  0  0  0
    9.2430    1.3632   -1.0250 H   0  0  0  0  0  0  0  0  0  0  0  0
    7.5107    0.5181   -2.1901 H   0  0  0  0  0  0  0  0  0  0  0  0
    6.8849    2.1266   -1.6946 H   0  0  0  0  0  0  0  0  0  0  0  0
    2.5847   -2.2012   -2.4632 H   0  0  0  0  0  0  0  0  0  0  0  0
    0.7100   -3.6375   -2.8904 H   0  0  0  0  0  0  0  0  0  0  0  0
   -1.5816   -3.0368   -2.1476 H   0  0  0  0  0  0  0  0  0  0  0  0
  1  2  1  0
  2  3  2  0
  3  4  1  0
  4  5  1  0
  4  6  1  0
  6  7  2  0
  7  8  1  0
  8  9  1  0
  9 10  2  0
 10 11  1  0
 11 12  2  0
 12 13  1  0
 13 14  1  0
 14 15  2  0
 15 16  1  0
 16 17  1  0
 17 18  2  0
 18 19  1  0
 19 20  1  0
 20 21  2  0
 20 22  1  0
 22 23  1  0
 22 24  1  0
 24 25  1  0
 25 26  1  0
 26 27  1  0
 27 28  1  0
 27 29  1  0
 29 30  1  0
 18 31  1  0
 31 32  2  0
 32 33  1  0
 33 34  2  0
 13 35  2  0
  7  2  1  0
 35  9  1  0
 34 14  1  0
 34 17  1  0
 30 24  1  0
  1 36  1  0
  1 37  1  0
  1 38  1  0
  5 39  1  0
  5 40  1  0
  5 41  1  0
  6 42  1  0
  8 43  1  0
 11 44  1  0
 12 45  1  0
 15 46  1  0
 16 47  1  0
 19 48  1  0
 22 49  1  6
 23 50  1  0
 23 51  1  0
 23 52  1  0
 25 53  1  0
 25 54  1  0
 26 55  1  0
 26 56  1  0
 28 57  1  0
 28 58  1  0
 28 59  1  0
 29 60  1  0
 29 61  1  0
 30 62  1  0
 30 63  1  0
 31 64  1  0
 32 65  1  0
 33 66  1  0
M  END
$$$$
