
     RDKit          3D

 38 41  0  0  0  0  0  0  0  0999 V2000
   -4.2785   -1.4238   -2.7434 O   0  0  0  0  0  0  0  0  0  0  0  0
   -3.7912   -0.9220   -1.7162 C   0  0  0  0  0  0  0  0  0  0  0  0
   -2.4911   -1.0981   -1.4244 N   0  0  0  0  0  0  0  0  0  0  0  0
   -1.9199   -0.5794   -0.3326 C   0  0  0  0  0  0  0  0  0  0  0  0
   -0.5136   -0.7759   -0.0267 C   0  0  0  0  0  0  0  0  0  0  0  0
    0.0142   -0.1983    1.1411 C   0  0  0  0  0  0  0  0  0  0  0  0
    1.3360   -0.3487    1.4840 C   0  0  0  0  0  0  0  0  0  0  0  0
    2.1963   -1.0768    0.6886 C   0  0  0  0  0  0  0  0  0  0  0  0
    3.5091   -1.1965    1.0772 O   0  0  0  0  0  0  0  0  0  0  0  0
    4.4678   -0.2692    0.6681 C   0  0  0  0  0  0  0  0  0  0  0  0
    4.1691    0.8094   -0.1382 C   0  0  0  0  0  0  0  0  0  0  0  0
    5.1423    1.7259   -0.5365 C   0  0  0  0  0  0  0  0  0  0  0  0
    6.4491    1.5703   -0.1247 C   0  0  0  0  0  0  0  0  0  0  0  0
    7.6980    2.7023   -0.6057 Cl  0  0  0  0  0  0  0  0  0  0  0  0
    6.7528    0.4909    0.6834 C   0  0  0  0  0  0  0  0  0  0  0  0
    5.7793   -0.4137    1.0735 C   0  0  0  0  0  0  0  0  0  0  0  0
    6.1874   -1.7728    2.0969 Cl  0  0  0  0  0  0  0  0  0  0  0  0
    1.6923   -1.6571   -0.4730 C   0  0  0  0  0  0  0  0  0  0  0  0
    0.3624   -1.4989   -0.8070 C   0  0  0  0  0  0  0  0  0  0  0  0
   -2.6814    0.1466    0.5032 N   0  0  0  0  0  0  0  0  0  0  0  0
   -3.9970    0.3599    0.2646 C   0  0  0  0  0  0  0  0  0  0  0  0
   -4.7819    1.0994    1.1119 C   0  0  0  0  0  0  0  0  0  0  0  0
   -6.1135    1.3008    0.8469 C   0  0  0  0  0  0  0  0  0  0  0  0
   -6.7182    0.7621   -0.2920 C   0  0  0  0  0  0  0  0  0  0  0  0
   -5.9219    0.0253   -1.1299 C   0  0  0  0  0  0  0  0  0  0  0  0
   -4.5690   -0.1825   -0.8658 C   0  0  0  0  0  0  0  0  0  0  0  0
   -1.9474   -1.6721   -2.1111 H   0  0  0  0  0  0  0  0  0  0  0  0
   -0.6555    0.3824    1.7828 H   0  0  0  0  0  0  0  0  0  0  0  0
    1.7305    0.1056    2.3934 H   0  0  0  0  0  0  0  0  0  0  0  0
    3.1307    0.9294   -0.4628 H   0  0  0  0  0  0  0  0  0  0  0  0
    4.8693    2.5680   -1.1753 H   0  0  0  0  0  0  0  0  0  0  0  0
    7.7848    0.3757    1.0033 H   0  0  0  0  0  0  0  0  0  0  0  0
    2.3574   -2.2316   -1.1068 H   0  0  0  0  0  0  0  0  0  0  0  0
   -0.0054   -1.9566   -1.7100 H   0  0  0  0  0  0  0  0  0  0  0  0
   -4.3376    1.5225    1.9929 H   0  0  0  0  0  0  0  0  0  0  0  0
   -6.7745    1.8806    1.4909 H   0  0  0  0  0  0  0  0  0  0  0  0
   -7.7718    0.9192   -0.5053 H   0  0  0  0  0  0  0  0  0  0  0  0
   -6.3596   -0.4024   -2.0154 H   0  0  0  0  0  0  0  0  0  0  0  0
  1  2  2  0
  2  3  1  0
  3  4  1  0
  4  5  1  0
  5  6  2  0
  6  7  1  0
  7  8  2  0
  8  9  1  0
  9 10  1  0
 10 11  2  0
 11 12  1  0
 12 13  2  0
 13 14  1  0
 13 15  1  0
 15 16  2  0
 16 17  1  0
  8 18  1  0
 18 19  2  0
  4 20  2  0
 20 21  1  0
 21 22  2  0
 22 23  1  0
 23 24  2  0
 24 25  1  0
 25 26  2  0
 26  2  1  0
 19  5  1  0
 26 21  1  0
 16 10  1  0
  3 27  1  0
  6 28  1  0
  7 29  1  0
 11 30  1  0
 12 31  1  0
 15 32  1  0
 18 33  1  0
 19 34  1  0
 22 35  1  0
 23 36  1  0
 24 37  1  0
 25 38  1  0
M  END
$$$$
