
     RDKit          3D

 26 27  0  0  0  0  0  0  0  0999 V2000
   -3.3394    2.2005    1.3264 O   0  0  0  0  0  0  0  0  0  0  0  0
   -2.2871    1.5466    0.9750 C   0  0  0  0  0  0  0  0  0  0  0  0
   -1.1048    2.1139    1.3867 O   0  0  0  0  0  0  0  0  0  0  0  0
   -2.4021    0.3286    0.2145 C   0  0  0  0  0  0  0  0  0  0  0  0
   -3.6980   -0.0927   -0.1126 C   0  0  0  0  0  0  0  0  0  0  0  0
   -3.9268   -1.2361   -0.8326 C   0  0  0  0  0  0  0  0  0  0  0  0
   -2.8524   -1.9591   -1.2258 N   0  0  0  0  0  0  0  0  0  0  0  0
   -1.5992   -1.5745   -0.9237 C   0  0  0  0  0  0  0  0  0  0  0  0
   -1.3446   -0.4065   -0.1871 C   0  0  0  0  0  0  0  0  0  0  0  0
    0.0002   -0.0805    0.0834 N   0  0  0  0  0  0  0  0  0  0  0  0
    1.0904   -0.9351   -0.3906 C   0  0  0  0  0  0  0  0  0  0  0  0
    2.4202   -0.4080    0.0036 C   0  0  0  0  0  0  0  0  0  0  0  0
    3.1619    0.4740   -0.7724 C   0  0  0  0  0  0  0  0  0  0  0  0
    4.3361    0.7447   -0.0947 C   0  0  0  0  0  0  0  0  0  0  0  0
    4.2545    0.0102    1.0705 C   0  0  0  0  0  0  0  0  0  0  0  0
    3.1150   -0.6518    1.0890 O   0  0  0  0  0  0  0  0  0  0  0  0
   -0.9336    3.1232    1.2607 H   0  0  0  0  0  0  0  0  0  0  0  0
   -4.5512    0.4940    0.2075 H   0  0  0  0  0  0  0  0  0  0  0  0
   -4.9382   -1.5719   -1.0922 H   0  0  0  0  0  0  0  0  0  0  0  0
   -0.7657   -2.1819   -1.2576 H   0  0  0  0  0  0  0  0  0  0  0  0
    0.2907    0.7499    0.6127 H   0  0  0  0  0  0  0  0  0  0  0  0
    1.0076   -1.0103   -1.4994 H   0  0  0  0  0  0  0  0  0  0  0  0
    0.9853   -1.9547    0.0060 H   0  0  0  0  0  0  0  0  0  0  0  0
    2.8887    0.8846   -1.7324 H   0  0  0  0  0  0  0  0  0  0  0  0
    5.1558    1.3861   -0.3876 H   0  0  0  0  0  0  0  0  0  0  0  0
    5.0367    0.0068    1.8332 H   0  0  0  0  0  0  0  0  0  0  0  0
  1  2  2  0
  2  3  1  0
  2  4  1  0
  4  5  2  0
  5  6  1  0
  6  7  2  0
  7  8  1  0
  8  9  2  0
  9 10  1  0
 10 11  1  0
 11 12  1  0
 12 13  2  0
 13 14  1  0
 14 15  2  0
 15 16  1  0
  9  4  1  0
 16 12  1  0
  3 17  1  0
  5 18  1  0
  6 19  1  0
  8 20  1  0
 10 21  1  0
 11 22  1  0
 11 23  1  0
 13 24  1  0
 14 25  1  0
 15 26  1  0
M  END
$$$$
