
     RDKit          3D

 59 61  0  0  0  0  0  0  0  0999 V2000
    4.1493   -1.7042    0.6027 N   0  0  0  0  0  0  0  0  0  0  0  0
    4.3803   -0.5514   -0.1807 C   0  0  0  0  0  0  0  0  0  0  0  0
    3.4611    0.0452   -0.9828 C   0  0  0  0  0  0  0  0  0  0  0  0
    2.0477   -0.3440   -1.2258 C   0  0  0  0  0  0  0  0  0  0  0  0
    1.6232   -1.3603   -0.6367 O   0  0  0  0  0  0  0  0  0  0  0  0
    1.2182    0.3906   -2.0759 N   0  0  0  0  0  0  0  0  0  0  0  0
   -0.1315    0.1412   -2.3793 C   0  0  0  0  0  0  0  0  0  0  0  0
   -1.1148    0.2223   -1.2079 C   0  0  0  0  0  0  0  0  0  0  0  0
   -0.7602   -0.7706   -0.2654 O   0  0  0  0  0  0  0  0  0  0  0  0
   -2.4463   -0.0971   -1.7499 C   0  0  0  0  0  0  0  0  0  0  0  0
   -3.5972   -0.1670   -0.8992 N   0  0  0  0  0  0  0  0  0  0  0  0
   -3.9893   -1.3596   -0.2052 C   0  0  0  0  0  0  0  0  0  0  0  0
   -3.4644   -1.6291    1.1500 C   0  0  0  0  0  0  0  0  0  0  0  0
   -3.7270   -0.7041    2.1272 O   0  0  0  0  0  0  0  0  0  0  0  0
   -4.4032    0.9952   -0.7823 C   0  0  0  0  0  0  0  0  0  0  0  0
   -4.1342    2.0827   -1.3951 O   0  0  0  0  0  0  0  0  0  0  0  0
   -5.5988    1.0308    0.0378 C   0  0  0  0  0  0  0  0  0  0  0  0
   -6.7848    0.4680   -0.4510 C   0  0  0  0  0  0  0  0  0  0  0  0
   -6.7540   -0.0758   -1.6909 F   0  0  0  0  0  0  0  0  0  0  0  0
   -7.9584    0.4954    0.2926 C   0  0  0  0  0  0  0  0  0  0  0  0
   -7.9226    1.0915    1.5204 C   0  0  0  0  0  0  0  0  0  0  0  0
   -6.7748    1.6590    2.0374 C   0  0  0  0  0  0  0  0  0  0  0  0
   -5.6123    1.6219    1.2814 C   0  0  0  0  0  0  0  0  0  0  0  0
   -4.5014    2.1948    1.8038 F   0  0  0  0  0  0  0  0  0  0  0  0
   -1.0354    1.5763   -0.5710 C   0  0  0  0  0  0  0  0  0  0  0  0
   -1.3167    2.6192   -1.4141 F   0  0  0  0  0  0  0  0  0  0  0  0
   -1.8940    1.6293    0.5035 F   0  0  0  0  0  0  0  0  0  0  0  0
    0.2827    1.8241   -0.1331 F   0  0  0  0  0  0  0  0  0  0  0  0
    4.0890    1.1273   -1.5579 C   0  0  0  0  0  0  0  0  0  0  0  0
    5.3514    1.1343   -1.0791 N   0  0  0  0  0  0  0  0  0  0  0  0
    5.5494    0.1431   -0.2559 N   0  0  0  0  0  0  0  0  0  0  0  0
    6.7295   -0.2312    0.4870 C   0  0  0  0  0  0  0  0  0  0  0  0
    7.9591   -0.1835   -0.1191 C   0  0  0  0  0  0  0  0  0  0  0  0
    9.0744   -0.5437    0.6121 C   0  0  0  0  0  0  0  0  0  0  0  0
    8.9424   -0.9425    1.9271 C   0  0  0  0  0  0  0  0  0  0  0  0
   10.0384   -1.2979    2.6590 F   0  0  0  0  0  0  0  0  0  0  0  0
    7.6965   -0.9866    2.5266 C   0  0  0  0  0  0  0  0  0  0  0  0
    6.6077   -0.6277    1.7895 C   0  0  0  0  0  0  0  0  0  0  0  0
    3.5727   -1.6961    1.4681 H   0  0  0  0  0  0  0  0  0  0  0  0
    4.5726   -2.6036    0.3067 H   0  0  0  0  0  0  0  0  0  0  0  0
    1.7106    1.2453   -2.5351 H   0  0  0  0  0  0  0  0  0  0  0  0
   -0.3304   -0.8575   -2.8349 H   0  0  0  0  0  0  0  0  0  0  0  0
   -0.5137    0.8688   -3.1244 H   0  0  0  0  0  0  0  0  0  0  0  0
   -1.0866   -1.6310   -0.6769 H   0  0  0  0  0  0  0  0  0  0  0  0
   -2.6814    0.5444   -2.6717 H   0  0  0  0  0  0  0  0  0  0  0  0
   -2.3987   -1.1354   -2.2443 H   0  0  0  0  0  0  0  0  0  0  0  0
   -5.1301   -1.3809   -0.1851 H   0  0  0  0  0  0  0  0  0  0  0  0
   -3.7835   -2.2781   -0.8542 H   0  0  0  0  0  0  0  0  0  0  0  0
   -4.0733   -2.5549    1.4977 H   0  0  0  0  0  0  0  0  0  0  0  0
   -2.4363   -1.9803    1.2474 H   0  0  0  0  0  0  0  0  0  0  0  0
   -3.2498   -0.8776    2.9754 H   0  0  0  0  0  0  0  0  0  0  0  0
   -8.8422    0.0428   -0.1367 H   0  0  0  0  0  0  0  0  0  0  0  0
   -8.8293    1.1193    2.1097 H   0  0  0  0  0  0  0  0  0  0  0  0
   -6.8086    2.1149    3.0120 H   0  0  0  0  0  0  0  0  0  0  0  0
    3.7033    1.8624   -2.2603 H   0  0  0  0  0  0  0  0  0  0  0  0
    8.0581    0.1324   -1.1579 H   0  0  0  0  0  0  0  0  0  0  0  0
   10.0600   -0.5174    0.1625 H   0  0  0  0  0  0  0  0  0  0  0  0
    7.5951   -1.3036    3.5672 H   0  0  0  0  0  0  0  0  0  0  0  0
    5.6128   -0.6521    2.2351 H   0  0  0  0  0  0  0  0  0  0  0  0
  1  2  1  0
  2  3  2  0
  3  4  1  0
  4  5  2  0
  4  6  1  0
  6  7  1  0
  7  8  1  0
  8  9  1  0
  8 10  1  0
 10 11  1  0
 11 12  1  0
 12 13  1  0
 13 14  1  0
 11 15  1  0
 15 16  2  0
 15 17  1  0
 17 18  2  0
 18 19  1  0
 18 20  1  0
 20 21  2  0
 21 22  1  0
 22 23  2  0
 23 24  1  0
  8 25  1  0
 25 26  1  0
 25 27  1  0
 25 28  1  0
  3 29  1  0
 29 30  2  0
 30 31  1  0
 31 32  1  0
 32 33  2  0
 33 34  1  0
 34 35  2  0
 35 36  1  0
 35 37  1  0
 37 38  2  0
 31  2  1  0
 38 32  1  0
 23 17  1  0
  1 39  1  0
  1 40  1  0
  6 41  1  0
  7 42  1  0
  7 43  1  0
  9 44  1  0
 10 45  1  0
 10 46  1  0
 12 47  1  0
 12 48  1  0
 13 49  1  0
 13 50  1  0
 14 51  1  0
 20 52  1  0
 21 53  1  0
 22 54  1  0
 29 55  1  0
 33 56  1  0
 34 57  1  0
 37 58  1  0
 38 59  1  0
M  END
$$$$
