
     RDKit          3D

178179  0  0  0  0  0  0  0  0999 V2000
   10.9968   -4.4036    1.4433 C   0  0  0  0  0  0  0  0  0  0  0  0
   11.8070   -3.4380    0.8286 O   0  0  0  0  0  0  0  0  0  0  0  0
   11.7362   -2.0843    1.1565 C   0  0  0  0  0  0  0  0  0  0  0  0
   10.9335   -1.7028    2.0246 O   0  0  0  0  0  0  0  0  0  0  0  0
   12.6555   -1.1931    0.4151 C   0  0  2  0  0  0  0  0  0  0  0  0
   14.1288   -1.5728    0.7537 C   0  0  0  0  0  0  0  0  0  0  0  0
   14.3053   -0.8207    2.0393 C   0  0  0  0  0  0  0  0  0  0  0  0
   13.4701    0.4109    1.9110 C   0  0  0  0  0  0  0  0  0  0  0  0
   12.5742    0.1790    0.7615 N   0  0  0  0  0  0  0  0  0  0  0  0
   11.8487    1.2154    0.1887 C   0  0  0  0  0  0  0  0  0  0  0  0
   12.1715    2.4027    0.6653 O   0  0  0  0  0  0  0  0  0  0  0  0
   10.7960    1.2927   -0.8244 C   0  0  1  0  0  0  0  0  0  0  0  0
   11.0874    2.0796   -2.0369 C   0  0  0  0  0  0  0  0  0  0  0  0
   12.2363    1.6493   -2.8311 C   0  0  0  0  0  0  0  0  0  0  0  0
   12.0863    0.8314   -3.9503 C   0  0  0  0  0  0  0  0  0  0  0  0
   13.1590    0.4434   -4.6795 C   0  0  0  0  0  0  0  0  0  0  0  0
   14.4140    0.8697   -4.2996 C   0  0  0  0  0  0  0  0  0  0  0  0
   14.5799    1.6844   -3.1882 C   0  0  0  0  0  0  0  0  0  0  0  0
   13.5133    2.0754   -2.4565 C   0  0  0  0  0  0  0  0  0  0  0  0
    9.9230    0.2032   -1.0183 N   0  0  0  0  0  0  0  0  0  0  0  0
   10.1118   -0.9849   -1.7546 C   0  0  0  0  0  0  0  0  0  0  0  0
    8.6066    0.3331   -0.3884 C   0  0  0  0  0  0  0  0  0  0  0  0
    8.3199    1.3928    0.2218 O   0  0  0  0  0  0  0  0  0  0  0  0
    7.6007   -0.7586   -0.4413 C   0  0  2  0  0  0  0  0  0  0  0  0
    6.9997   -0.9593   -1.7731 C   0  0  0  0  0  0  0  0  0  0  0  0
    6.5465   -0.2827    0.5174 N   0  0  0  0  0  0  0  0  0  0  0  0
    6.8420   -0.3410    1.8961 C   0  0  0  0  0  0  0  0  0  0  0  0
    7.9780   -0.8023    2.2336 O   0  0  0  0  0  0  0  0  0  0  0  0
    5.8784    0.1262    2.9028 C   0  0  1  0  0  0  0  0  0  0  0  0
    4.5585    0.3092    2.4082 N   0  0  0  0  0  0  0  0  0  0  0  0
    4.0737    1.4299    1.6722 C   0  0  0  0  0  0  0  0  0  0  0  0
    4.8814    2.3334    1.3797 O   0  0  0  0  0  0  0  0  0  0  0  0
    2.6250    1.4788    1.2891 C   0  0  0  0  0  0  0  0  0  0  0  0
    2.2723    2.4491    0.2436 C   0  0  2  0  0  0  0  0  0  0  0  0
    2.6439    3.7822    0.4894 O   0  0  0  0  0  0  0  0  0  0  0  0
    0.8002    2.4951   -0.0743 C   0  0  2  0  0  0  0  0  0  0  0  0
    0.0724    3.4866    0.7790 C   0  0  0  0  0  0  0  0  0  0  0  0
    0.0506    3.3349    2.2391 C   0  0  0  0  0  0  0  0  0  0  0  0
   -0.5625    2.0862    2.7877 C   0  0  0  0  0  0  0  0  0  0  0  0
   -0.8525    4.4886    2.7632 C   0  0  0  0  0  0  0  0  0  0  0  0
    0.1905    1.2204   -0.2113 N   0  0  0  0  0  0  0  0  0  0  0  0
   -1.1567    1.1000   -0.6588 C   0  0  0  0  0  0  0  0  0  0  0  0
   -1.8737    2.0670   -0.9622 O   0  0  0  0  0  0  0  0  0  0  0  0
   -1.7408   -0.2849   -0.7478 C   0  0  2  0  0  0  0  0  0  0  0  0
   -1.5417   -0.8964   -2.0975 C   0  0  0  0  0  0  0  0  0  0  0  0
   -2.1508   -0.1275   -3.1880 C   0  0  0  0  0  0  0  0  0  0  0  0
   -3.0500   -0.7189   -4.1500 N   0  0  0  0  0  0  0  0  0  0  0  0
   -1.9390    1.0973   -3.3630 O   0  0  0  0  0  0  0  0  0  0  0  0
   -3.2001   -0.1189   -0.5819 N   0  0  0  0  0  0  0  0  0  0  0  0
   -3.6579   -0.3255    0.7350 C   0  0  0  0  0  0  0  0  0  0  0  0
   -2.8049   -0.6390    1.6157 O   0  0  0  0  0  0  0  0  0  0  0  0
   -5.0736   -0.1969    1.1870 C   0  0  2  0  0  0  0  0  0  0  0  0
   -5.4404   -1.2479    2.1302 C   0  0  0  0  0  0  0  0  0  0  0  0
   -5.4169   -2.6669    1.7273 C   0  0  0  0  0  0  0  0  0  0  0  0
   -4.0934   -3.2151    1.2549 C   0  0  0  0  0  0  0  0  0  0  0  0
   -6.4609   -3.0779    0.7246 C   0  0  0  0  0  0  0  0  0  0  0  0
   -5.9574    0.1147    0.1384 N   0  0  0  0  0  0  0  0  0  0  0  0
   -6.1013    1.3757   -0.4296 C   0  0  0  0  0  0  0  0  0  0  0  0
   -5.4160    2.3196   -0.0566 O   0  0  0  0  0  0  0  0  0  0  0  0
   -7.1217    1.6048   -1.5293 C   0  0  2  0  0  0  0  0  0  0  0  0
   -7.9597    0.4360   -1.5193 O   0  0  0  0  0  0  0  0  0  0  0  0
   -9.2885    0.5284   -1.1340 C   0  0  0  0  0  0  0  0  0  0  0  0
   -9.7465    1.6492   -0.8189 O   0  0  0  0  0  0  0  0  0  0  0  0
  -10.1895   -0.6666   -1.0693 C   0  0  1  0  0  0  0  0  0  0  0  0
  -11.4624   -0.3154   -0.6128 O   0  0  0  0  0  0  0  0  0  0  0  0
  -11.9227   -0.6607    0.6720 C   0  0  0  0  0  0  0  0  0  0  0  0
  -11.1131   -1.3117    1.3873 O   0  0  0  0  0  0  0  0  0  0  0  0
  -13.2749   -0.2832    1.1657 C   0  0  2  0  0  0  0  0  0  0  0  0
  -13.9117   -1.3056    2.0507 C   0  0  0  0  0  0  0  0  0  0  0  0
  -13.0488   -1.5181    3.2732 C   0  0  0  0  0  0  0  0  0  0  0  0
  -14.1177   -2.6541    1.4263 C   0  0  0  0  0  0  0  0  0  0  0  0
  -14.1147    0.3049    0.1732 N   0  0  0  0  0  0  0  0  0  0  0  0
  -14.3919   -0.4797   -0.9799 C   0  0  0  0  0  0  0  0  0  0  0  0
  -13.7059    1.6561   -0.1577 C   0  0  0  0  0  0  0  0  0  0  0  0
  -10.1268   -1.5207   -2.2795 C   0  0  0  0  0  0  0  0  0  0  0  0
  -10.5160   -0.8532   -3.5570 C   0  0  0  0  0  0  0  0  0  0  0  0
  -10.8945   -2.8240   -2.0336 C   0  0  0  0  0  0  0  0  0  0  0  0
   -6.4687    1.6617   -2.8770 C   0  0  0  0  0  0  0  0  0  0  0  0
   -5.4492    2.7548   -3.0245 C   0  0  0  0  0  0  0  0  0  0  0  0
   -7.5178    1.8785   -3.9527 C   0  0  0  0  0  0  0  0  0  0  0  0
    5.9600   -0.5888    4.2245 C   0  0  1  0  0  0  0  0  0  0  0  0
    5.2780   -1.9195    4.2357 C   0  0  0  0  0  0  0  0  0  0  0  0
    7.3207   -0.6814    4.5822 O   0  0  0  0  0  0  0  0  0  0  0  0
   11.3570   -5.4024    1.0820 H   0  0  0  0  0  0  0  0  0  0  0  0
    9.9347   -4.3372    1.2024 H   0  0  0  0  0  0  0  0  0  0  0  0
   11.2012   -4.3972    2.5351 H   0  0  0  0  0  0  0  0  0  0  0  0
   12.6131   -1.4145   -0.6783 H   0  0  0  0  0  0  0  0  0  0  0  0
   14.2041   -2.6586    0.8349 H   0  0  0  0  0  0  0  0  0  0  0  0
   14.7625   -1.2077   -0.0605 H   0  0  0  0  0  0  0  0  0  0  0  0
   13.9876   -1.4836    2.8885 H   0  0  0  0  0  0  0  0  0  0  0  0
   15.3629   -0.5489    2.2678 H   0  0  0  0  0  0  0  0  0  0  0  0
   14.0625    1.3336    1.8112 H   0  0  0  0  0  0  0  0  0  0  0  0
   12.7793    0.4621    2.8035 H   0  0  0  0  0  0  0  0  0  0  0  0
   10.0572    2.0701   -0.2329 H   0  0  0  0  0  0  0  0  0  0  0  0
   10.1961    2.0759   -2.7488 H   0  0  0  0  0  0  0  0  0  0  0  0
   11.1672    3.1990   -1.8085 H   0  0  0  0  0  0  0  0  0  0  0  0
   11.0876    0.4868   -4.2538 H   0  0  0  0  0  0  0  0  0  0  0  0
   12.9978   -0.1967   -5.5495 H   0  0  0  0  0  0  0  0  0  0  0  0
   15.2761    0.5674   -4.8702 H   0  0  0  0  0  0  0  0  0  0  0  0
   15.5685    2.0241   -2.8888 H   0  0  0  0  0  0  0  0  0  0  0  0
   13.6149    2.7307   -1.5723 H   0  0  0  0  0  0  0  0  0  0  0  0
    9.9023   -1.9152   -1.1518 H   0  0  0  0  0  0  0  0  0  0  0  0
    9.3859   -1.1017   -2.6264 H   0  0  0  0  0  0  0  0  0  0  0  0
   11.0895   -1.0188   -2.2353 H   0  0  0  0  0  0  0  0  0  0  0  0
    8.0171   -1.6628    0.0714 H   0  0  0  0  0  0  0  0  0  0  0  0
    7.2488   -0.1290   -2.4666 H   0  0  0  0  0  0  0  0  0  0  0  0
    7.2175   -1.9683   -2.1986 H   0  0  0  0  0  0  0  0  0  0  0  0
    5.8727   -0.8846   -1.6590 H   0  0  0  0  0  0  0  0  0  0  0  0
    5.6647    0.0612    0.1182 H   0  0  0  0  0  0  0  0  0  0  0  0
    6.3176    1.1894    3.1558 H   0  0  0  0  0  0  0  0  0  0  0  0
    3.8222   -0.4472    2.5841 H   0  0  0  0  0  0  0  0  0  0  0  0
    2.0789    1.5358    2.2265 H   0  0  0  0  0  0  0  0  0  0  0  0
    2.4375    0.4055    0.9315 H   0  0  0  0  0  0  0  0  0  0  0  0
    2.7885    2.1517   -0.7026 H   0  0  0  0  0  0  0  0  0  0  0  0
    3.1744    4.1478   -0.2580 H   0  0  0  0  0  0  0  0  0  0  0  0
    0.6592    2.9732   -1.1281 H   0  0  0  0  0  0  0  0  0  0  0  0
    0.5666    4.4823    0.5536 H   0  0  0  0  0  0  0  0  0  0  0  0
   -0.9705    3.6415    0.4143 H   0  0  0  0  0  0  0  0  0  0  0  0
    1.0236    3.5381    2.7326 H   0  0  0  0  0  0  0  0  0  0  0  0
   -0.4302    1.2062    2.1262 H   0  0  0  0  0  0  0  0  0  0  0  0
    0.0141    1.8059    3.7189 H   0  0  0  0  0  0  0  0  0  0  0  0
   -1.5845    2.2390    3.1219 H   0  0  0  0  0  0  0  0  0  0  0  0
   -0.6044    5.4220    2.2272 H   0  0  0  0  0  0  0  0  0  0  0  0
   -1.9197    4.1980    2.6784 H   0  0  0  0  0  0  0  0  0  0  0  0
   -0.6170    4.6034    3.8353 H   0  0  0  0  0  0  0  0  0  0  0  0
    0.7046    0.3516    0.0060 H   0  0  0  0  0  0  0  0  0  0  0  0
   -1.3134   -0.9098    0.0307 H   0  0  0  0  0  0  0  0  0  0  0  0
   -0.4464   -1.0515   -2.2741 H   0  0  0  0  0  0  0  0  0  0  0  0
   -2.0337   -1.8932   -2.0960 H   0  0  0  0  0  0  0  0  0  0  0  0
   -4.0495   -0.4355   -4.0753 H   0  0  0  0  0  0  0  0  0  0  0  0
   -2.7855   -1.3748   -4.8821 H   0  0  0  0  0  0  0  0  0  0  0  0
   -3.7656    0.1248   -1.3716 H   0  0  0  0  0  0  0  0  0  0  0  0
   -5.0001    0.7876    1.7924 H   0  0  0  0  0  0  0  0  0  0  0  0
   -6.3965   -0.9721    2.6797 H   0  0  0  0  0  0  0  0  0  0  0  0
   -4.6989   -1.1753    2.9983 H   0  0  0  0  0  0  0  0  0  0  0  0
   -5.6287   -3.2981    2.6635 H   0  0  0  0  0  0  0  0  0  0  0  0
   -3.8053   -2.7629    0.2865 H   0  0  0  0  0  0  0  0  0  0  0  0
   -3.3100   -3.2622    2.0134 H   0  0  0  0  0  0  0  0  0  0  0  0
   -4.2709   -4.3152    0.9897 H   0  0  0  0  0  0  0  0  0  0  0  0
   -6.6510   -4.1813    0.8896 H   0  0  0  0  0  0  0  0  0  0  0  0
   -6.0575   -3.0181   -0.3035 H   0  0  0  0  0  0  0  0  0  0  0  0
   -7.4464   -2.6018    0.8672 H   0  0  0  0  0  0  0  0  0  0  0  0
   -6.5538   -0.6749   -0.2419 H   0  0  0  0  0  0  0  0  0  0  0  0
   -7.6277    2.5253   -1.2802 H   0  0  0  0  0  0  0  0  0  0  0  0
   -9.7190   -1.2823   -0.2265 H   0  0  0  0  0  0  0  0  0  0  0  0
  -13.0432    0.5891    1.8826 H   0  0  0  0  0  0  0  0  0  0  0  0
  -14.9004   -0.9017    2.3815 H   0  0  0  0  0  0  0  0  0  0  0  0
  -13.7165   -1.5492    4.1587 H   0  0  0  0  0  0  0  0  0  0  0  0
  -12.5685   -2.5242    3.2158 H   0  0  0  0  0  0  0  0  0  0  0  0
  -12.2531   -0.7376    3.3689 H   0  0  0  0  0  0  0  0  0  0  0  0
  -15.0346   -3.1031    1.9128 H   0  0  0  0  0  0  0  0  0  0  0  0
  -14.2999   -2.6675    0.3542 H   0  0  0  0  0  0  0  0  0  0  0  0
  -13.3017   -3.3687    1.7369 H   0  0  0  0  0  0  0  0  0  0  0  0
  -14.5526    0.2628   -1.8270 H   0  0  0  0  0  0  0  0  0  0  0  0
  -15.4020   -0.9838   -0.9154 H   0  0  0  0  0  0  0  0  0  0  0  0
  -13.5928   -1.1305   -1.3316 H   0  0  0  0  0  0  0  0  0  0  0  0
  -14.0680    1.8935   -1.1983 H   0  0  0  0  0  0  0  0  0  0  0  0
  -14.0988    2.3774    0.5595 H   0  0  0  0  0  0  0  0  0  0  0  0
  -12.5919    1.6697   -0.2257 H   0  0  0  0  0  0  0  0  0  0  0  0
   -9.0492   -1.8657   -2.3669 H   0  0  0  0  0  0  0  0  0  0  0  0
   -9.6717   -0.9015   -4.2882 H   0  0  0  0  0  0  0  0  0  0  0  0
  -11.3737   -1.4199   -3.9837 H   0  0  0  0  0  0  0  0  0  0  0  0
  -10.7942    0.1932   -3.3140 H   0  0  0  0  0  0  0  0  0  0  0  0
  -10.6322   -3.1219   -0.9899 H   0  0  0  0  0  0  0  0  0  0  0  0
  -10.4772   -3.5696   -2.7251 H   0  0  0  0  0  0  0  0  0  0  0  0
  -11.9744   -2.6840   -2.1838 H   0  0  0  0  0  0  0  0  0  0  0  0
   -5.9902    0.6642   -3.1391 H   0  0  0  0  0  0  0  0  0  0  0  0
   -5.6316    3.3942   -3.9312 H   0  0  0  0  0  0  0  0  0  0  0  0
   -5.4063    3.4589   -2.1796 H   0  0  0  0  0  0  0  0  0  0  0  0
   -4.4380    2.2882   -3.2180 H   0  0  0  0  0  0  0  0  0  0  0  0
   -7.8231    0.8816   -4.3965 H   0  0  0  0  0  0  0  0  0  0  0  0
   -7.1146    2.5328   -4.7546 H   0  0  0  0  0  0  0  0  0  0  0  0
   -8.4677    2.2909   -3.5498 H   0  0  0  0  0  0  0  0  0  0  0  0
    5.5089    0.1058    4.9755 H   0  0  0  0  0  0  0  0  0  0  0  0
    4.8229   -2.1944    3.2692 H   0  0  0  0  0  0  0  0  0  0  0  0
    4.5372   -1.9851    5.0774 H   0  0  0  0  0  0  0  0  0  0  0  0
    6.0693   -2.6856    4.4615 H   0  0  0  0  0  0  0  0  0  0  0  0
    7.5993    0.2459    4.8162 H   0  0  0  0  0  0  0  0  0  0  0  0
  1  2  1  0
  2  3  1  0
  3  4  2  0
  3  5  1  0
  5  6  1  0
  6  7  1  0
  7  8  1  0
  8  9  1  0
  9 10  1  0
 10 11  2  0
 10 12  1  0
 12 13  1  0
 13 14  1  0
 14 15  2  0
 15 16  1  0
 16 17  2  0
 17 18  1  0
 18 19  2  0
 12 20  1  0
 20 21  1  0
 20 22  1  0
 22 23  2  0
 22 24  1  0
 24 25  1  0
 24 26  1  0
 26 27  1  0
 27 28  2  0
 27 29  1  0
 29 30  1  0
 30 31  1  0
 31 32  2  0
 31 33  1  0
 33 34  1  0
 34 35  1  0
 34 36  1  0
 36 37  1  0
 37 38  1  0
 38 39  1  0
 38 40  1  0
 36 41  1  0
 41 42  1  0
 42 43  2  0
 42 44  1  0
 44 45  1  0
 45 46  1  0
 46 47  1  0
 46 48  2  0
 44 49  1  0
 49 50  1  0
 50 51  2  0
 50 52  1  0
 52 53  1  0
 53 54  1  0
 54 55  1  0
 54 56  1  0
 52 57  1  0
 57 58  1  0
 58 59  2  0
 58 60  1  0
 60 61  1  0
 61 62  1  0
 62 63  2  0
 62 64  1  0
 64 65  1  0
 65 66  1  0
 66 67  2  0
 66 68  1  0
 68 69  1  0
 69 70  1  0
 69 71  1  0
 68 72  1  0
 72 73  1  0
 72 74  1  0
 64 75  1  0
 75 76  1  0
 75 77  1  0
 60 78  1  0
 78 79  1  0
 78 80  1  0
 29 81  1  0
 81 82  1  0
 81 83  1  0
  9  5  1  0
 19 14  1  0
  1 84  1  0
  1 85  1  0
  1 86  1  0
  5 87  1  6
  6 88  1  0
  6 89  1  0
  7 90  1  0
  7 91  1  0
  8 92  1  0
  8 93  1  0
 12 94  1  1
 13 95  1  0
 13 96  1  0
 15 97  1  0
 16 98  1  0
 17 99  1  0
 18100  1  0
 19101  1  0
 21102  1  0
 21103  1  0
 21104  1  0
 24105  1  1
 25106  1  0
 25107  1  0
 25108  1  0
 26109  1  0
 29110  1  1
 30111  1  0
 33112  1  0
 33113  1  0
 34114  1  6
 35115  1  0
 36116  1  6
 37117  1  0
 37118  1  0
 38119  1  0
 39120  1  0
 39121  1  0
 39122  1  0
 40123  1  0
 40124  1  0
 40125  1  0
 41126  1  0
 44127  1  1
 45128  1  0
 45129  1  0
 47130  1  0
 47131  1  0
 49132  1  0
 52133  1  1
 53134  1  0
 53135  1  0
 54136  1  0
 55137  1  0
 55138  1  0
 55139  1  0
 56140  1  0
 56141  1  0
 56142  1  0
 57143  1  0
 60144  1  1
 64145  1  1
 68146  1  1
 69147  1  0
 70148  1  0
 70149  1  0
 70150  1  0
 71151  1  0
 71152  1  0
 71153  1  0
 73154  1  0
 73155  1  0
 73156  1  0
 74157  1  0
 74158  1  0
 74159  1  0
 75160  1  0
 76161  1  0
 76162  1  0
 76163  1  0
 77164  1  0
 77165  1  0
 77166  1  0
 78167  1  0
 79168  1  0
 79169  1  0
 79170  1  0
 80171  1  0
 80172  1  0
 80173  1  0
 81174  1  1
 82175  1  0
 82176  1  0
 82177  1  0
 83178  1  0
M  END
$$$$
