
     RDKit          3D

220227  0  0  0  0  0  0  0  0999 V2000
   -7.8759    4.5731    2.9162 C   0  0  0  0  0  0  0  0  0  0  0  0
   -6.4036    4.6051    2.4887 C   0  0  0  0  0  0  0  0  0  0  0  0
   -5.8498    6.0137    2.6755 C   0  0  0  0  0  0  0  0  0  0  0  0
   -5.6741    3.6553    3.3780 C   0  0  0  0  0  0  0  0  0  0  0  0
   -4.1733    3.5682    3.0835 C   0  0  2  0  0  0  0  0  0  0  0  0
   -3.8933    3.1157    1.7592 N   0  0  0  0  0  0  0  0  0  0  0  0
   -3.3323    3.7676    0.6355 C   0  0  0  0  0  0  0  0  0  0  0  0
   -2.9880    4.9753    0.7453 O   0  0  0  0  0  0  0  0  0  0  0  0
   -3.0430    3.3333   -0.7168 C   0  0  1  0  0  0  0  0  0  0  0  0
   -1.6151    3.7383   -1.0769 C   0  0  0  0  0  0  0  0  0  0  0  0
   -1.2954    3.3948   -2.4690 C   0  0  0  0  0  0  0  0  0  0  0  0
   -0.6847    2.3832   -3.1609 C   0  0  0  0  0  0  0  0  0  0  0  0
   -0.5985    2.3568   -4.5299 C   0  0  0  0  0  0  0  0  0  0  0  0
   -1.1096    3.3310   -5.3412 C   0  0  0  0  0  0  0  0  0  0  0  0
   -0.9463    3.1376   -6.7298 N   0  0  0  0  0  0  0  0  0  0  0  0
   -1.4260    3.9901   -7.7175 C   0  0  0  0  0  0  0  0  0  0  0  0
   -1.3541    3.9469   -9.1285 N   0  0  0  0  0  0  0  0  0  0  0  0
   -2.0619    5.0433   -7.5255 O   0  0  0  0  0  0  0  0  0  0  0  0
   -1.7258    4.3629   -4.7044 C   0  0  0  0  0  0  0  0  0  0  0  0
   -1.8246    4.4093   -3.3050 C   0  0  0  0  0  0  0  0  0  0  0  0
   -3.3744    1.9789   -0.9578 N   0  0  0  0  0  0  0  0  0  0  0  0
   -3.6954    1.0312   -1.9058 C   0  0  0  0  0  0  0  0  0  0  0  0
   -3.7087    1.4180   -3.1151 O   0  0  0  0  0  0  0  0  0  0  0  0
   -4.0668   -0.3507   -2.1574 C   0  0  2  0  0  0  0  0  0  0  0  0
   -3.7107   -1.3934   -1.1819 C   0  0  0  0  0  0  0  0  0  0  0  0
   -2.2972   -1.6533   -0.8898 C   0  0  0  0  0  0  0  0  0  0  0  0
   -1.6881   -2.6615   -1.6459 C   0  0  0  0  0  0  0  0  0  0  0  0
   -0.3780   -3.1027   -1.5137 C   0  0  0  0  0  0  0  0  0  0  0  0
    0.3780   -2.4735   -0.5399 C   0  0  0  0  0  0  0  0  0  0  0  0
    1.7007   -3.0327   -0.4592 N   0  0  0  0  0  0  0  0  0  0  0  0
    1.7229   -4.0037    0.5972 C   0  0  0  0  0  0  0  0  0  0  0  0
    0.7039   -4.2617    1.3083 O   0  0  0  0  0  0  0  0  0  0  0  0
    2.9907   -4.7376    0.8782 C   0  0  2  0  0  0  0  0  0  0  0  0
    3.2223   -5.7759   -0.2414 C   0  0  0  0  0  0  0  0  0  0  0  0
    2.0592   -6.7318   -0.1584 C   0  0  0  0  0  0  0  0  0  0  0  0
    1.3108   -6.9603   -1.1424 O   0  0  0  0  0  0  0  0  0  0  0  0
    1.7696   -7.4144    1.0602 N   0  0  0  0  0  0  0  0  0  0  0  0
    2.1870   -6.7827    2.2554 C   0  0  0  0  0  0  0  0  0  0  0  0
    1.9719   -7.3104    3.3544 O   0  0  0  0  0  0  0  0  0  0  0  0
    2.8443   -5.5453    2.0789 N   0  0  0  0  0  0  0  0  0  0  0  0
   -0.1713   -1.4857    0.2178 C   0  0  0  0  0  0  0  0  0  0  0  0
   -1.4733   -1.0764    0.0570 C   0  0  0  0  0  0  0  0  0  0  0  0
   -3.8242   -0.7770   -3.5016 N   0  0  0  0  0  0  0  0  0  0  0  0
   -4.2740   -1.0265   -4.7854 C   0  0  0  0  0  0  0  0  0  0  0  0
   -5.5142   -0.7650   -4.9185 O   0  0  0  0  0  0  0  0  0  0  0  0
   -3.5162   -1.5357   -5.9537 C   0  0  2  0  0  0  0  0  0  0  0  0
   -4.1643   -2.7245   -6.5883 C   0  0  0  0  0  0  0  0  0  0  0  0
   -5.4804   -2.4683   -6.9878 O   0  0  0  0  0  0  0  0  0  0  0  0
   -2.1787   -1.8629   -5.5728 N   0  0  0  0  0  0  0  0  0  0  0  0
   -0.8983   -1.2612   -5.8871 C   0  0  0  0  0  0  0  0  0  0  0  0
   -1.1854   -0.2798   -6.6337 O   0  0  0  0  0  0  0  0  0  0  0  0
    0.2987   -1.9742   -5.2436 C   0  0  1  0  0  0  0  0  0  0  0  0
    0.3683   -3.3146   -5.9313 C   0  0  0  0  0  0  0  0  0  0  0  0
    1.4613   -4.1951   -5.5035 C   0  0  0  0  0  0  0  0  0  0  0  0
    1.4788   -5.1457   -4.5138 C   0  0  0  0  0  0  0  0  0  0  0  0
    2.6303   -5.8750   -4.2722 C   0  0  0  0  0  0  0  0  0  0  0  0
    3.8030   -5.7092   -4.9795 C   0  0  0  0  0  0  0  0  0  0  0  0
    3.8013   -4.7887   -5.9452 N   0  0  0  0  0  0  0  0  0  0  0  0
    2.6786   -4.0606   -6.1982 C   0  0  0  0  0  0  0  0  0  0  0  0
    1.4904   -1.2244   -5.4208 N   0  0  0  0  0  0  0  0  0  0  0  0
    2.1760   -0.3202   -4.6441 C   0  0  0  0  0  0  0  0  0  0  0  0
    1.6842   -0.0068   -3.4909 O   0  0  0  0  0  0  0  0  0  0  0  0
    3.3105    0.5364   -4.4994 C   0  0  1  0  0  0  0  0  0  0  0  0
    4.0705    0.9959   -5.7044 C   0  0  0  0  0  0  0  0  0  0  0  0
    4.7003   -0.0800   -6.5001 C   0  0  0  0  0  0  0  0  0  0  0  0
    4.4337   -0.8017   -7.6361 C   0  0  0  0  0  0  0  0  0  0  0  0
    5.2243   -1.8146   -8.1080 C   0  0  0  0  0  0  0  0  0  0  0  0
    6.3761   -2.1831   -7.4466 C   0  0  0  0  0  0  0  0  0  0  0  0
    7.2990   -3.4828   -8.1211 Cl  0  0  0  0  0  0  0  0  0  0  0  0
    6.7322   -1.5029   -6.2767 C   0  0  0  0  0  0  0  0  0  0  0  0
    5.8855   -0.4780   -5.8438 C   0  0  0  0  0  0  0  0  0  0  0  0
    3.1982    1.4979   -3.4536 N   0  0  0  0  0  0  0  0  0  0  0  0
    4.0774    1.7509   -2.4016 C   0  0  0  0  0  0  0  0  0  0  0  0
    5.1382    1.0193   -2.3558 O   0  0  0  0  0  0  0  0  0  0  0  0
    4.6034    2.3765   -1.2167 C   0  0  1  0  0  0  0  0  0  0  0  0
    3.7853    2.0614    0.0290 C   0  0  0  0  0  0  0  0  0  0  0  0
    4.3854    2.7296    1.2199 C   0  0  0  0  0  0  0  0  0  0  0  0
    4.0454    3.9700    1.7283 C   0  0  0  0  0  0  0  0  0  0  0  0
    4.7104    4.4924    2.8345 C   0  0  0  0  0  0  0  0  0  0  0  0
    5.7273    3.8036    3.4674 C   0  0  0  0  0  0  0  0  0  0  0  0
    6.3593    4.3578    4.5602 C   0  0  0  0  0  0  0  0  0  0  0  0
    7.3836    3.6275    5.1721 C   0  0  0  0  0  0  0  0  0  0  0  0
    7.7487    2.3817    4.6896 C   0  0  0  0  0  0  0  0  0  0  0  0
    7.0860    1.8706    3.5936 C   0  0  0  0  0  0  0  0  0  0  0  0
    6.0832    2.5669    2.9812 C   0  0  0  0  0  0  0  0  0  0  0  0
    5.4211    2.0737    1.8979 C   0  0  0  0  0  0  0  0  0  0  0  0
    5.9168    1.7624   -0.9139 N   0  0  0  0  0  0  0  0  0  0  0  0
    7.0359    2.6502   -0.7943 C   0  0  0  0  0  0  0  0  0  0  0  0
    8.4148    2.1864   -0.4920 C   0  0  0  0  0  0  0  0  0  0  0  0
    6.8637    3.8871   -0.9475 O   0  0  0  0  0  0  0  0  0  0  0  0
   -3.6079    2.7198    4.1571 C   0  0  0  0  0  0  0  0  0  0  0  0
   -3.9456    3.2242    5.2565 O   0  0  0  0  0  0  0  0  0  0  0  0
   -2.8052    1.5217    4.1012 N   0  0  0  0  0  0  0  0  0  0  0  0
   -2.4978    1.0390    5.4561 C   0  0  1  0  0  0  0  0  0  0  0  0
   -2.6843   -0.4733    5.4300 C   0  0  0  0  0  0  0  0  0  0  0  0
   -4.1387   -0.7994    5.0409 C   0  0  0  0  0  0  0  0  0  0  0  0
   -4.2251   -2.2846    5.0068 C   0  0  0  0  0  0  0  0  0  0  0  0
   -5.5399   -2.9104    4.7261 C   0  0  0  0  0  0  0  0  0  0  0  0
   -6.2380   -2.6832    3.5484 N   0  0  0  0  0  0  0  0  0  0  0  0
   -6.8651   -1.4808    3.2174 C   0  0  0  0  0  0  0  0  0  0  0  0
   -7.7013   -1.7306    1.9444 C   0  0  0  0  0  0  0  0  0  0  0  0
   -7.8820   -1.0504    4.2847 C   0  0  0  0  0  0  0  0  0  0  0  0
   -1.0305    1.3072    5.6446 C   0  0  0  0  0  0  0  0  0  0  0  0
   -0.6709    1.6163    4.4790 O   0  0  0  0  0  0  0  0  0  0  0  0
   -0.3618    1.1965    6.8979 N   0  0  0  0  0  0  0  0  0  0  0  0
   -0.7453    0.8882    8.2704 C   0  0  0  0  0  0  0  0  0  0  0  0
    0.6071    0.8247    8.9909 C   0  0  0  0  0  0  0  0  0  0  0  0
    1.5206    1.7172    8.1669 C   0  0  0  0  0  0  0  0  0  0  0  0
    1.0781    1.4297    6.7510 C   0  0  1  0  0  0  0  0  0  0  0  0
    1.7244    0.1936    6.2127 C   0  0  0  0  0  0  0  0  0  0  0  0
    1.1528   -0.8971    6.0712 O   0  0  0  0  0  0  0  0  0  0  0  0
    3.1058    0.3844    5.8573 N   0  0  0  0  0  0  0  0  0  0  0  0
    3.7195   -0.8409    5.3154 C   0  0  2  0  0  0  0  0  0  0  0  0
    5.1479   -0.8924    5.7553 C   0  0  0  0  0  0  0  0  0  0  0  0
    3.6455   -0.7541    3.8120 C   0  0  0  0  0  0  0  0  0  0  0  0
    4.1774   -1.9763    3.3090 N   0  0  0  0  0  0  0  0  0  0  0  0
    3.4512   -0.3802    2.6278 O   0  0  0  0  0  0  0  0  0  0  0  0
   -8.4622    4.9574    2.0789 H   0  0  0  0  0  0  0  0  0  0  0  0
   -7.9945    5.1922    3.8338 H   0  0  0  0  0  0  0  0  0  0  0  0
   -8.1170    3.4986    3.0938 H   0  0  0  0  0  0  0  0  0  0  0  0
   -6.3835    4.3690    1.4252 H   0  0  0  0  0  0  0  0  0  0  0  0
   -6.7137    6.6726    2.8924 H   0  0  0  0  0  0  0  0  0  0  0  0
   -5.2855    6.3210    1.7919 H   0  0  0  0  0  0  0  0  0  0  0  0
   -5.2067    6.0336    3.5963 H   0  0  0  0  0  0  0  0  0  0  0  0
   -5.7984    3.9698    4.4365 H   0  0  0  0  0  0  0  0  0  0  0  0
   -6.0964    2.6282    3.3105 H   0  0  0  0  0  0  0  0  0  0  0  0
   -3.8064    4.6222    3.2166 H   0  0  0  0  0  0  0  0  0  0  0  0
   -4.1459    2.1270    1.5902 H   0  0  0  0  0  0  0  0  0  0  0  0
   -3.6414    3.9508   -1.4528 H   0  0  0  0  0  0  0  0  0  0  0  0
   -1.5244    4.8151   -0.9175 H   0  0  0  0  0  0  0  0  0  0  0  0
   -0.8660    3.2630   -0.4037 H   0  0  0  0  0  0  0  0  0  0  0  0
   -0.3119    1.6679   -2.4652 H   0  0  0  0  0  0  0  0  0  0  0  0
   -0.0877    1.4896   -4.9069 H   0  0  0  0  0  0  0  0  0  0  0  0
   -0.4482    2.3261   -7.1404 H   0  0  0  0  0  0  0  0  0  0  0  0
   -1.5385    3.1106   -9.7525 H   0  0  0  0  0  0  0  0  0  0  0  0
   -1.1345    4.6539   -9.8572 H   0  0  0  0  0  0  0  0  0  0  0  0
   -2.1374    5.1548   -5.3104 H   0  0  0  0  0  0  0  0  0  0  0  0
   -2.3438    5.3040   -2.9797 H   0  0  0  0  0  0  0  0  0  0  0  0
   -3.4218    1.3466   -0.0974 H   0  0  0  0  0  0  0  0  0  0  0  0
   -5.2485   -0.2958   -2.1521 H   0  0  0  0  0  0  0  0  0  0  0  0
   -4.1626   -2.3602   -1.5801 H   0  0  0  0  0  0  0  0  0  0  0  0
   -4.2776   -1.2778   -0.2050 H   0  0  0  0  0  0  0  0  0  0  0  0
   -2.2907   -3.1650   -2.4214 H   0  0  0  0  0  0  0  0  0  0  0  0
   -0.0290   -3.8877   -2.1533 H   0  0  0  0  0  0  0  0  0  0  0  0
    2.5656   -2.8319   -1.0265 H   0  0  0  0  0  0  0  0  0  0  0  0
    3.8812   -4.1092    0.9140 H   0  0  0  0  0  0  0  0  0  0  0  0
    3.2881   -5.3240   -1.2266 H   0  0  0  0  0  0  0  0  0  0  0  0
    4.1194   -6.3468    0.0425 H   0  0  0  0  0  0  0  0  0  0  0  0
    1.2782   -8.3298    1.0771 H   0  0  0  0  0  0  0  0  0  0  0  0
    3.3029   -5.1368    2.9427 H   0  0  0  0  0  0  0  0  0  0  0  0
    0.4820   -1.0612    0.9443 H   0  0  0  0  0  0  0  0  0  0  0  0
   -1.9109   -0.3024    0.6560 H   0  0  0  0  0  0  0  0  0  0  0  0
   -2.7899   -0.9938   -3.4423 H   0  0  0  0  0  0  0  0  0  0  0  0
   -3.5192   -0.7028   -6.7241 H   0  0  0  0  0  0  0  0  0  0  0  0
   -3.5588   -3.0124   -7.4559 H   0  0  0  0  0  0  0  0  0  0  0  0
   -4.1824   -3.5948   -5.8931 H   0  0  0  0  0  0  0  0  0  0  0  0
   -6.0825   -2.7151   -6.2399 H   0  0  0  0  0  0  0  0  0  0  0  0
   -2.2572   -2.7192   -4.9439 H   0  0  0  0  0  0  0  0  0  0  0  0
   -0.0416   -2.1129   -4.2100 H   0  0  0  0  0  0  0  0  0  0  0  0
   -0.6287   -3.8247   -5.8604 H   0  0  0  0  0  0  0  0  0  0  0  0
    0.4835   -3.1243   -7.0403 H   0  0  0  0  0  0  0  0  0  0  0  0
    0.5517   -5.2593   -3.9815 H   0  0  0  0  0  0  0  0  0  0  0  0
    2.6389   -6.6148   -3.5010 H   0  0  0  0  0  0  0  0  0  0  0  0
    4.6807   -6.3067   -4.7508 H   0  0  0  0  0  0  0  0  0  0  0  0
    2.8999   -3.3810   -7.0207 H   0  0  0  0  0  0  0  0  0  0  0  0
    2.0614   -1.2776   -6.2816 H   0  0  0  0  0  0  0  0  0  0  0  0
    4.1264   -0.1824   -4.0258 H   0  0  0  0  0  0  0  0  0  0  0  0
    4.8505    1.7373   -5.4768 H   0  0  0  0  0  0  0  0  0  0  0  0
    3.3115    1.4656   -6.3917 H   0  0  0  0  0  0  0  0  0  0  0  0
    3.5001   -0.4009   -8.0493 H   0  0  0  0  0  0  0  0  0  0  0  0
    4.8507   -2.2608   -9.0172 H   0  0  0  0  0  0  0  0  0  0  0  0
    7.6238   -1.8162   -5.8030 H   0  0  0  0  0  0  0  0  0  0  0  0
    6.3078   -0.0515   -4.9202 H   0  0  0  0  0  0  0  0  0  0  0  0
    2.4871    2.2513   -3.1601 H   0  0  0  0  0  0  0  0  0  0  0  0
    4.7533    3.4843   -1.3145 H   0  0  0  0  0  0  0  0  0  0  0  0
    2.7546    2.3943   -0.1660 H   0  0  0  0  0  0  0  0  0  0  0  0
    3.8949    0.9714    0.2000 H   0  0  0  0  0  0  0  0  0  0  0  0
    3.2444    4.4865    1.2046 H   0  0  0  0  0  0  0  0  0  0  0  0
    4.4169    5.4564    3.1987 H   0  0  0  0  0  0  0  0  0  0  0  0
    6.1073    5.3378    4.9708 H   0  0  0  0  0  0  0  0  0  0  0  0
    7.9288    3.9822    6.0278 H   0  0  0  0  0  0  0  0  0  0  0  0
    8.5501    1.7732    5.1368 H   0  0  0  0  0  0  0  0  0  0  0  0
    7.3783    0.8927    3.2236 H   0  0  0  0  0  0  0  0  0  0  0  0
    5.7396    1.1009    1.5506 H   0  0  0  0  0  0  0  0  0  0  0  0
    6.1107    0.7490   -0.7736 H   0  0  0  0  0  0  0  0  0  0  0  0
    8.3489    1.3402    0.2550 H   0  0  0  0  0  0  0  0  0  0  0  0
    9.0373    2.9567   -0.0442 H   0  0  0  0  0  0  0  0  0  0  0  0
    8.9042    1.7137   -1.3750 H   0  0  0  0  0  0  0  0  0  0  0  0
   -2.6212    1.2575    3.1299 H   0  0  0  0  0  0  0  0  0  0  0  0
   -3.0614    1.5204    6.2268 H   0  0  0  0  0  0  0  0  0  0  0  0
   -2.5266   -0.9049    6.4313 H   0  0  0  0  0  0  0  0  0  0  0  0
   -2.0392   -0.9642    4.6905 H   0  0  0  0  0  0  0  0  0  0  0  0
   -4.3108   -0.3336    4.0409 H   0  0  0  0  0  0  0  0  0  0  0  0
   -4.8482   -0.3761    5.7662 H   0  0  0  0  0  0  0  0  0  0  0  0
   -3.4670   -2.6386    4.2289 H   0  0  0  0  0  0  0  0  0  0  0  0
   -3.7765   -2.7244    5.9578 H   0  0  0  0  0  0  0  0  0  0  0  0
   -5.3832   -4.0483    4.8088 H   0  0  0  0  0  0  0  0  0  0  0  0
   -6.2068   -2.7358    5.6408 H   0  0  0  0  0  0  0  0  0  0  0  0
   -5.8486   -3.1688    2.7352 H   0  0  0  0  0  0  0  0  0  0  0  0
   -6.1988   -0.6470    2.9960 H   0  0  0  0  0  0  0  0  0  0  0  0
   -8.1517   -2.7566    2.0895 H   0  0  0  0  0  0  0  0  0  0  0  0
   -7.0350   -1.7381    1.0510 H   0  0  0  0  0  0  0  0  0  0  0  0
   -8.4766   -0.9558    1.8511 H   0  0  0  0  0  0  0  0  0  0  0  0
   -8.6590   -0.4690    3.7561 H   0  0  0  0  0  0  0  0  0  0  0  0
   -8.3042   -1.9968    4.7080 H   0  0  0  0  0  0  0  0  0  0  0  0
   -7.4320   -0.4301    5.0741 H   0  0  0  0  0  0  0  0  0  0  0  0
   -1.2967   -0.0644    8.3374 H   0  0  0  0  0  0  0  0  0  0  0  0
   -1.3452    1.7301    8.6907 H   0  0  0  0  0  0  0  0  0  0  0  0
    0.5199    1.2266   10.0278 H   0  0  0  0  0  0  0  0  0  0  0  0
    0.9720   -0.2077    9.0477 H   0  0  0  0  0  0  0  0  0  0  0  0
    1.2750    2.8043    8.3770 H   0  0  0  0  0  0  0  0  0  0  0  0
    2.5669    1.4758    8.3262 H   0  0  0  0  0  0  0  0  0  0  0  0
    1.2875    2.3197    6.1333 H   0  0  0  0  0  0  0  0  0  0  0  0
    3.6743    1.2571    5.9466 H   0  0  0  0  0  0  0  0  0  0  0  0
    3.1098   -1.7206    5.6053 H   0  0  0  0  0  0  0  0  0  0  0  0
    5.4306    0.0632    6.2242 H   0  0  0  0  0  0  0  0  0  0  0  0
    5.3412   -1.7566    6.4511 H   0  0  0  0  0  0  0  0  0  0  0  0
    5.8528   -1.0666    4.8950 H   0  0  0  0  0  0  0  0  0  0  0  0
    4.6260   -2.7735    2.8091 H   0  0  0  0  0  0  0  0  0  0  0  0
    4.2503   -2.9985    3.4912 H   0  0  0  0  0  0  0  0  0  0  0  0
  1  2  1  0
  2  3  1  0
  2  4  1  0
  4  5  1  0
  5  6  1  0
  6  7  1  0
  7  8  2  0
  7  9  1  0
  9 10  1  0
 10 11  1  0
 11 12  2  0
 12 13  1  0
 13 14  2  0
 14 15  1  0
 15 16  1  0
 16 17  1  0
 16 18  2  0
 14 19  1  0
 19 20  2  0
  9 21  1  0
 21 22  1  0
 22 23  2  0
 22 24  1  0
 24 25  1  0
 25 26  1  0
 26 27  2  0
 27 28  1  0
 28 29  2  0
 29 30  1  0
 30 31  1  0
 31 32  2  0
 31 33  1  0
 33 34  1  0
 34 35  1  0
 35 36  2  0
 35 37  1  0
 37 38  1  0
 38 39  2  0
 38 40  1  0
 29 41  1  0
 41 42  2  0
 24 43  1  0
 43 44  1  0
 44 45  2  0
 44 46  1  0
 46 47  1  0
 47 48  1  0
 46 49  1  0
 49 50  1  0
 50 51  2  0
 50 52  1  0
 52 53  1  0
 53 54  1  0
 54 55  2  0
 55 56  1  0
 56 57  2  0
 57 58  1  0
 58 59  2  0
 52 60  1  0
 60 61  1  0
 61 62  2  0
 61 63  1  0
 63 64  1  0
 64 65  1  0
 65 66  2  0
 66 67  1  0
 67 68  2  0
 68 69  1  0
 68 70  1  0
 70 71  2  0
 63 72  1  0
 72 73  1  0
 73 74  2  0
 73 75  1  0
 75 76  1  0
 76 77  1  0
 77 78  2  0
 78 79  1  0
 79 80  2  0
 80 81  1  0
 81 82  2  0
 82 83  1  0
 83 84  2  0
 84 85  1  0
 85 86  2  0
 75 87  1  0
 87 88  1  0
 88 89  1  0
 88 90  2  0
  5 91  1  0
 91 92  2  0
 91 93  1  0
 93 94  1  0
 94 95  1  0
 95 96  1  0
 96 97  1  0
 97 98  1  0
 98 99  1  0
 99100  1  0
100101  1  0
100102  1  0
 94103  1  0
103104  2  0
103105  1  0
105106  1  0
106107  1  0
107108  1  0
108109  1  0
109110  1  0
110111  2  0
110112  1  0
112113  1  0
113114  1  0
113115  1  0
115116  1  0
115117  2  0
 20 11  1  0
 42 26  1  0
 59 54  1  0
 71 65  1  0
 86 77  1  0
109105  1  0
 40 33  1  0
 85 80  1  0
  1118  1  0
  1119  1  0
  1120  1  0
  2121  1  0
  3122  1  0
  3123  1  0
  3124  1  0
  4125  1  0
  4126  1  0
  5127  1  6
  6128  1  0
  9129  1  6
 10130  1  0
 10131  1  0
 12132  1  0
 13133  1  0
 15134  1  0
 17135  1  0
 17136  1  0
 19137  1  0
 20138  1  0
 21139  1  0
 24140  1  6
 25141  1  0
 25142  1  0
 27143  1  0
 28144  1  0
 30145  1  0
 33146  1  1
 34147  1  0
 34148  1  0
 37149  1  0
 40150  1  0
 41151  1  0
 42152  1  0
 43153  1  0
 46154  1  6
 47155  1  0
 47156  1  0
 48157  1  0
 49158  1  0
 52159  1  1
 53160  1  0
 53161  1  0
 55162  1  0
 56163  1  0
 57164  1  0
 59165  1  0
 60166  1  0
 63167  1  1
 64168  1  0
 64169  1  0
 66170  1  0
 67171  1  0
 70172  1  0
 71173  1  0
 72174  1  0
 75175  1  6
 76176  1  0
 76177  1  0
 78178  1  0
 79179  1  0
 81180  1  0
 82181  1  0
 83182  1  0
 84183  1  0
 86184  1  0
 87185  1  0
 89186  1  0
 89187  1  0
 89188  1  0
 93189  1  0
 94190  1  1
 95191  1  0
 95192  1  0
 96193  1  0
 96194  1  0
 97195  1  0
 97196  1  0
 98197  1  0
 98198  1  0
 99199  1  0
100200  1  0
101201  1  0
101202  1  0
101203  1  0
102204  1  0
102205  1  0
102206  1  0
106207  1  0
106208  1  0
107209  1  0
107210  1  0
108211  1  0
108212  1  0
109213  1  6
112214  1  0
113215  1  1
114216  1  0
114217  1  0
114218  1  0
116219  1  0
116220  1  0
M  END
$$$$
