
     RDKit          3D

 19 19  0  0  0  0  0  0  0  0999 V2000
   -4.3685    0.0481    0.1353 C   0  0  0  0  0  0  0  0  0  0  0  0
   -2.9770   -0.2271   -0.2745 C   0  0  0  0  0  0  0  0  0  0  0  0
   -2.6926   -0.4178   -1.4792 O   0  0  0  0  0  0  0  0  0  0  0  0
   -1.9097   -0.2854    0.6848 N   0  0  0  0  0  0  0  0  0  0  0  0
   -0.5677   -0.5518    0.2812 C   0  0  0  0  0  0  0  0  0  0  0  0
    0.1859   -1.4691    0.1075 N   0  0  0  0  0  0  0  0  0  0  0  0
    1.4147   -1.3320   -0.2882 N   0  0  0  0  0  0  0  0  0  0  0  0
    1.9785   -0.3557   -0.5325 C   0  0  0  0  0  0  0  0  0  0  0  0
    3.4398    0.4428   -1.0384 S   0  0  0  0  0  6  0  0  0  0  0  0
    4.3443    0.8265    0.3766 N   0  0  0  0  0  0  0  0  0  0  0  0
    3.1958    1.7056   -1.8058 O   0  0  0  0  0  0  0  0  0  0  0  0
    4.2082   -0.5449   -1.9090 O   0  0  0  0  0  0  0  0  0  0  0  0
    0.5818    0.8834   -0.1787 S   0  0  0  0  0  0  0  0  0  0  0  0
   -4.8833   -0.8010    0.5890 H   0  0  0  0  0  0  0  0  0  0  0  0
   -4.4418    0.8937    0.8585 H   0  0  0  0  0  0  0  0  0  0  0  0
   -4.9548    0.3414   -0.7692 H   0  0  0  0  0  0  0  0  0  0  0  0
   -2.1788   -0.1219    1.6833 H   0  0  0  0  0  0  0  0  0  0  0  0
    5.3660    0.8894    0.1185 H   0  0  0  0  0  0  0  0  0  0  0  0
    4.2590    0.0759    1.1127 H   0  0  0  0  0  0  0  0  0  0  0  0
  1  2  1  0
  2  3  2  0
  2  4  1  0
  4  5  1  0
  5  6  2  0
  6  7  1  0
  7  8  2  0
  8  9  1  0
  9 10  1  0
  9 11  2  0
  9 12  2  0
  8 13  1  0
 13  5  1  0
  1 14  1  0
  1 15  1  0
  1 16  1  0
  4 17  1  0
 10 18  1  0
 10 19  1  0
M  END
$$$$
