
     RDKit          3D

 45 49  0  0  0  0  0  0  0  0999 V2000
   -5.3195    0.9630    0.5919 C   0  0  2  0  0  0  0  0  0  0  0  0
   -5.6650    1.9372   -0.5432 C   0  0  0  0  0  0  0  0  0  0  0  0
   -3.8997    1.0907    1.0071 C   0  0  0  0  0  0  0  0  0  0  0  0
   -2.9596    0.4686    0.0596 N   0  0  0  0  0  0  0  0  0  0  0  0
   -2.6683   -0.9081   -0.1225 C   0  0  0  0  0  0  0  0  0  0  0  0
   -3.8257   -1.7607   -0.2450 C   0  0  0  0  0  0  0  0  0  0  0  0
   -3.2064   -3.3768   -0.5761 S   0  0  0  0  0  0  0  0  0  0  0  0
   -1.4126   -2.8832   -0.5411 C   0  0  0  0  0  0  0  0  0  0  0  0
   -1.4764   -1.5037   -0.2727 C   0  0  0  0  0  0  0  0  0  0  0  0
   -0.2253   -0.9775   -0.1981 C   0  0  0  0  0  0  0  0  0  0  0  0
    0.8913   -1.7429   -0.3787 C   0  0  0  0  0  0  0  0  0  0  0  0
    0.8963   -3.1080   -0.6493 C   0  0  0  0  0  0  0  0  0  0  0  0
   -0.3567   -3.6748   -0.7255 C   0  0  0  0  0  0  0  0  0  0  0  0
    2.1649   -1.2528   -0.2767 N   0  0  0  0  0  0  0  0  0  0  0  0
    2.4208    0.0326    0.0156 C   0  0  0  0  0  0  0  0  0  0  0  0
    1.3374    0.8484    0.2123 C   0  0  0  0  0  0  0  0  0  0  0  0
    0.0680    0.3208    0.1007 C   0  0  0  0  0  0  0  0  0  0  0  0
    3.8103    0.4604    0.1012 C   0  0  0  0  0  0  0  0  0  0  0  0
    4.7808   -0.4939   -0.1263 C   0  0  0  0  0  0  0  0  0  0  0  0
    6.1058   -0.1997   -0.0707 N   0  0  0  0  0  0  0  0  0  0  0  0
    6.5173    1.0526    0.2126 C   0  0  0  0  0  0  0  0  0  0  0  0
    7.9727    1.3703    0.2723 C   0  0  0  0  0  0  0  0  0  0  0  0
    5.5660    2.0233    0.4436 C   0  0  0  0  0  0  0  0  0  0  0  0
    4.2171    1.7430    0.3915 C   0  0  0  0  0  0  0  0  0  0  0  0
   -5.2630   -1.5890   -0.1445 C   0  0  0  0  0  0  0  0  0  0  0  0
   -5.9579   -2.5485   -0.4905 O   0  0  0  0  0  0  0  0  0  0  0  0
   -5.8240   -0.3422    0.3413 N   0  0  0  0  0  0  0  0  0  0  0  0
   -5.9102    1.3807    1.4617 H   0  0  0  0  0  0  0  0  0  0  0  0
   -6.7620    2.0650   -0.6072 H   0  0  0  0  0  0  0  0  0  0  0  0
   -5.3193    1.4796   -1.4914 H   0  0  0  0  0  0  0  0  0  0  0  0
   -5.1861    2.8990   -0.3715 H   0  0  0  0  0  0  0  0  0  0  0  0
   -3.7850    0.6880    2.0280 H   0  0  0  0  0  0  0  0  0  0  0  0
   -3.6793    2.1770    1.0983 H   0  0  0  0  0  0  0  0  0  0  0  0
   -2.3769    1.0328   -0.6555 H   0  0  0  0  0  0  0  0  0  0  0  0
    1.7671   -3.6984   -0.7918 H   0  0  0  0  0  0  0  0  0  0  0  0
   -0.4751   -4.7208   -0.9272 H   0  0  0  0  0  0  0  0  0  0  0  0
    1.5631    1.8690    0.4457 H   0  0  0  0  0  0  0  0  0  0  0  0
   -0.6529    1.0751    0.3267 H   0  0  0  0  0  0  0  0  0  0  0  0
    4.6043   -1.5415   -0.3648 H   0  0  0  0  0  0  0  0  0  0  0  0
    8.5024    0.9617   -0.6157 H   0  0  0  0  0  0  0  0  0  0  0  0
    8.1067    2.4563    0.3092 H   0  0  0  0  0  0  0  0  0  0  0  0
    8.4423    0.8684    1.1596 H   0  0  0  0  0  0  0  0  0  0  0  0
    5.8479    3.0294    0.6716 H   0  0  0  0  0  0  0  0  0  0  0  0
    3.4855    2.4979    0.5711 H   0  0  0  0  0  0  0  0  0  0  0  0
   -6.8614   -0.4682    0.5498 H   0  0  0  0  0  0  0  0  0  0  0  0
  1  2  1  0
  1  3  1  0
  3  4  1  0
  4  5  1  0
  5  6  2  0
  6  7  1  0
  7  8  1  0
  8  9  2  0
  9 10  1  0
 10 11  2  0
 11 12  1  0
 12 13  2  0
 11 14  1  0
 14 15  2  0
 15 16  1  0
 16 17  2  0
 15 18  1  0
 18 19  2  0
 19 20  1  0
 20 21  2  0
 21 22  1  0
 21 23  1  0
 23 24  2  0
  6 25  1  0
 25 26  2  0
 25 27  1  0
 27  1  1  0
  9  5  1  0
 17 10  1  0
 24 18  1  0
 13  8  1  0
  1 28  1  1
  2 29  1  0
  2 30  1  0
  2 31  1  0
  3 32  1  0
  3 33  1  0
  4 34  1  0
 12 35  1  0
 13 36  1  0
 16 37  1  0
 17 38  1  0
 19 39  1  0
 22 40  1  0
 22 41  1  0
 22 42  1  0
 23 43  1  0
 24 44  1  0
 27 45  1  0
M  END
$$$$
