
     RDKit          3D

 65 67  0  0  0  0  0  0  0  0999 V2000
   -8.5178    1.5049    0.4886 C   0  0  0  0  0  0  0  0  0  0  0  0
   -8.0716    0.5357   -0.4376 O   0  0  0  0  0  0  0  0  0  0  0  0
   -6.7287    0.2708   -0.5430 C   0  0  0  0  0  0  0  0  0  0  0  0
   -5.8192    0.9395    0.2443 C   0  0  0  0  0  0  0  0  0  0  0  0
   -4.4728    0.6968    0.1627 C   0  0  0  0  0  0  0  0  0  0  0  0
   -4.0074   -0.2578   -0.7468 C   0  0  0  0  0  0  0  0  0  0  0  0
   -2.6274   -0.5085   -0.8310 O   0  0  0  0  0  0  0  0  0  0  0  0
   -1.9550   -1.4520   -0.0262 C   0  0  0  0  0  0  0  0  0  0  0  0
   -2.0982   -1.0834    1.4358 C   0  0  0  0  0  0  0  0  0  0  0  0
   -2.5965   -2.8267   -0.1665 C   0  0  0  0  0  0  0  0  0  0  0  0
   -0.5095   -1.5839   -0.4409 C   0  0  0  0  0  0  0  0  0  0  0  0
    0.1120   -2.5239    0.3730 O   0  0  0  0  0  0  0  0  0  0  0  0
    1.5039   -2.4388    0.1258 C   0  0  0  0  0  0  0  0  0  0  0  0
    1.8948   -1.1535    0.9091 C   0  0  0  0  0  0  0  0  0  0  0  0
    3.3658   -1.0594    1.0273 C   0  0  0  0  0  0  0  0  0  0  0  0
    4.1509   -1.0018   -0.1928 C   0  0  0  0  0  0  0  0  0  0  0  0
    5.0037   -0.0444   -0.5229 C   0  0  0  0  0  0  0  0  0  0  0  0
    5.2606    1.1155    0.3525 C   0  0  0  0  0  0  0  0  0  0  0  0
    6.7360    1.1152    0.7318 C   0  0  0  0  0  0  0  0  0  0  0  0
    7.5990    1.2623   -0.4558 C   0  0  0  0  0  0  0  0  0  0  0  0
    8.8405    1.1231   -0.2894 O   0  0  0  0  0  0  0  0  0  0  0  0
    7.0502    1.5427   -1.6876 O   0  0  0  0  0  0  0  0  0  0  0  0
    1.0813   -0.0731    0.3907 C   0  0  0  0  0  0  0  0  0  0  0  0
    1.7181    1.1727   -0.0779 C   0  0  0  0  0  0  0  0  0  0  0  0
    1.9511    2.2500    0.7667 C   0  0  0  0  0  0  0  0  0  0  0  0
    2.5050    3.4339    0.3054 C   0  0  0  0  0  0  0  0  0  0  0  0
    2.8398    3.5626   -1.0252 C   0  0  0  0  0  0  0  0  0  0  0  0
    2.6193    2.5339   -1.8354 N   0  0  0  0  0  0  0  0  0  0  0  0
    2.0861    1.3843   -1.4080 C   0  0  0  0  0  0  0  0  0  0  0  0
    0.1693   -0.4256   -0.6054 O   0  0  0  0  0  0  0  0  0  0  0  0
   -4.9344   -0.9114   -1.5230 C   0  0  0  0  0  0  0  0  0  0  0  0
   -4.4932   -1.8801   -2.4874 N   0  0  0  0  0  4  0  0  0  0  0  0
   -3.3935   -1.7286   -3.0585 O   0  0  0  0  0  0  0  0  0  0  0  0
   -5.2692   -2.9570   -2.8020 O   0  0  0  0  0  1  0  0  0  0  0  0
   -6.3063   -0.6751   -1.4499 C   0  0  0  0  0  0  0  0  0  0  0  0
   -8.1673    1.1941    1.4983 H   0  0  0  0  0  0  0  0  0  0  0  0
   -8.1737    2.5277    0.2437 H   0  0  0  0  0  0  0  0  0  0  0  0
   -9.6085    1.5202    0.5079 H   0  0  0  0  0  0  0  0  0  0  0  0
   -6.2064    1.6752    0.9404 H   0  0  0  0  0  0  0  0  0  0  0  0
   -3.7461    1.2334    0.7913 H   0  0  0  0  0  0  0  0  0  0  0  0
   -1.9284   -0.0355    1.6638 H   0  0  0  0  0  0  0  0  0  0  0  0
   -3.1378   -1.3341    1.7301 H   0  0  0  0  0  0  0  0  0  0  0  0
   -1.4490   -1.7816    2.0035 H   0  0  0  0  0  0  0  0  0  0  0  0
   -2.1953   -3.4117    0.7161 H   0  0  0  0  0  0  0  0  0  0  0  0
   -3.6675   -2.7120    0.0385 H   0  0  0  0  0  0  0  0  0  0  0  0
   -2.3373   -3.3303   -1.1070 H   0  0  0  0  0  0  0  0  0  0  0  0
   -0.5520   -2.0815   -1.4602 H   0  0  0  0  0  0  0  0  0  0  0  0
    2.0517   -3.2654    0.5819 H   0  0  0  0  0  0  0  0  0  0  0  0
    1.7219   -2.3100   -0.9326 H   0  0  0  0  0  0  0  0  0  0  0  0
    1.5452   -1.4581    1.9702 H   0  0  0  0  0  0  0  0  0  0  0  0
    3.6826   -2.0362    1.5426 H   0  0  0  0  0  0  0  0  0  0  0  0
    3.6077   -0.2991    1.7963 H   0  0  0  0  0  0  0  0  0  0  0  0
    4.0469   -1.8148   -0.9245 H   0  0  0  0  0  0  0  0  0  0  0  0
    5.5368   -0.1295   -1.4958 H   0  0  0  0  0  0  0  0  0  0  0  0
    5.1103    2.0372   -0.2777 H   0  0  0  0  0  0  0  0  0  0  0  0
    4.6106    1.2379    1.2080 H   0  0  0  0  0  0  0  0  0  0  0  0
    7.0117    0.1145    1.1813 H   0  0  0  0  0  0  0  0  0  0  0  0
    6.9676    1.9119    1.4798 H   0  0  0  0  0  0  0  0  0  0  0  0
    7.5887    2.0531   -2.3645 H   0  0  0  0  0  0  0  0  0  0  0  0
    0.3995    0.2900    1.2459 H   0  0  0  0  0  0  0  0  0  0  0  0
    1.7079    2.2023    1.8176 H   0  0  0  0  0  0  0  0  0  0  0  0
    2.6937    4.2824    0.9466 H   0  0  0  0  0  0  0  0  0  0  0  0
    3.2684    4.4976   -1.3529 H   0  0  0  0  0  0  0  0  0  0  0  0
    1.9347    0.5866   -2.1256 H   0  0  0  0  0  0  0  0  0  0  0  0
   -7.0034   -1.2229   -2.0879 H   0  0  0  0  0  0  0  0  0  0  0  0
  1  2  1  0
  2  3  1  0
  3  4  2  0
  4  5  1  0
  5  6  2  0
  6  7  1  0
  7  8  1  0
  8  9  1  0
  8 10  1  0
  8 11  1  0
 11 12  1  0
 12 13  1  0
 13 14  1  0
 14 15  1  0
 15 16  1  0
 16 17  2  0
 17 18  1  0
 18 19  1  0
 19 20  1  0
 20 21  2  0
 20 22  1  0
 14 23  1  0
 23 24  1  0
 24 25  2  0
 25 26  1  0
 26 27  2  0
 27 28  1  0
 28 29  2  0
 23 30  1  0
  6 31  1  0
 31 32  1  0
 32 33  2  0
 32 34  1  0
 31 35  2  0
 35  3  1  0
 30 11  1  0
 29 24  1  0
  1 36  1  0
  1 37  1  0
  1 38  1  0
  4 39  1  0
  5 40  1  0
  9 41  1  0
  9 42  1  0
  9 43  1  0
 10 44  1  0
 10 45  1  0
 10 46  1  0
 11 47  1  0
 13 48  1  0
 13 49  1  0
 14 50  1  0
 15 51  1  0
 15 52  1  0
 16 53  1  0
 17 54  1  0
 18 55  1  0
 18 56  1  0
 19 57  1  0
 19 58  1  0
 22 59  1  0
 23 60  1  0
 25 61  1  0
 26 62  1  0
 27 63  1  0
 29 64  1  0
 35 65  1  0
M  CHG  2  32   1  34  -1
M  END
$$$$
