
     RDKit          3D

 62 65  0  0  0  0  0  0  0  0999 V2000
   -6.9655   -1.4758    1.6734 C   0  0  0  0  0  0  0  0  0  0  0  0
   -6.2843   -0.3557    1.1761 O   0  0  0  0  0  0  0  0  0  0  0  0
   -4.9408   -0.6619    1.0413 C   0  0  0  0  0  0  0  0  0  0  0  0
   -4.1630    0.5083    0.5108 C   0  0  2  0  0  0  0  0  0  0  0  0
   -4.5633    1.7100    1.3815 C   0  0  0  0  0  0  0  0  0  0  0  0
   -4.1500    2.8591    0.5005 C   0  0  0  0  0  0  0  0  0  0  0  0
   -4.0398    2.2940   -0.9226 C   0  0  0  0  0  0  0  0  0  0  0  0
   -4.5957    0.9623   -0.7683 N   0  0  0  0  0  0  0  0  0  0  0  0
   -4.2677   -0.0566   -2.0839 S   0  0  0  0  0  6  0  0  0  0  0  0
   -4.8825    0.6040   -3.3135 O   0  0  0  0  0  0  0  0  0  0  0  0
   -5.0304   -1.3382   -1.9079 O   0  0  0  0  0  0  0  0  0  0  0  0
   -2.5571   -0.3431   -2.3507 C   0  0  0  0  0  0  0  0  0  0  0  0
   -1.9200   -1.4035   -1.7393 C   0  0  0  0  0  0  0  0  0  0  0  0
   -0.5712   -1.6524   -1.9356 C   0  0  0  0  0  0  0  0  0  0  0  0
    0.1979   -0.8398   -2.7605 C   0  0  0  0  0  0  0  0  0  0  0  0
   -0.4365    0.2185   -3.3710 C   0  0  0  0  0  0  0  0  0  0  0  0
   -1.7988    0.4622   -3.1669 C   0  0  0  0  0  0  0  0  0  0  0  0
    0.5792    0.9003   -4.1691 C   0  0  0  0  0  0  0  0  0  0  0  0
    0.3679    1.9208   -4.8713 O   0  0  0  0  0  0  0  0  0  0  0  0
    1.8252    0.1699   -3.9776 C   0  0  0  0  0  0  0  0  0  0  0  0
    2.9479    0.4440   -4.5017 O   0  0  0  0  0  0  0  0  0  0  0  0
    1.5732   -0.9064   -3.1019 N   0  0  0  0  0  0  0  0  0  0  0  0
    2.5782   -1.8695   -2.6701 C   0  0  0  0  0  0  0  0  0  0  0  0
    3.2539   -1.4192   -1.4435 C   0  0  0  0  0  0  0  0  0  0  0  0
    2.8495   -1.7068   -0.1767 C   0  0  0  0  0  0  0  0  0  0  0  0
    3.5708   -1.2242    0.8941 C   0  0  0  0  0  0  0  0  0  0  0  0
    4.7063   -0.4476    0.7618 C   0  0  0  0  0  0  0  0  0  0  0  0
    5.4284    0.0353    1.8526 O   0  0  0  0  0  0  0  0  0  0  0  0
    5.0347   -0.2476    3.1754 C   0  0  0  0  0  0  0  0  0  0  0  0
    6.0500    0.4412    4.0792 C   0  0  0  0  0  0  0  0  0  0  0  0
    7.3434   -0.0280    3.8565 O   0  0  0  0  0  0  0  0  0  0  0  0
    6.0411    1.9188    3.7263 C   0  0  0  0  0  0  0  0  0  0  0  0
    4.7744    2.4210    3.9401 F   0  0  0  0  0  0  0  0  0  0  0  0
    5.1133   -0.1580   -0.5245 C   0  0  0  0  0  0  0  0  0  0  0  0
    4.3976   -0.6369   -1.6012 C   0  0  0  0  0  0  0  0  0  0  0  0
   -8.0343   -1.2900    1.8000 H   0  0  0  0  0  0  0  0  0  0  0  0
   -6.7392   -2.3957    1.0913 H   0  0  0  0  0  0  0  0  0  0  0  0
   -6.5469   -1.6774    2.6992 H   0  0  0  0  0  0  0  0  0  0  0  0
   -4.7366   -1.5341    0.3899 H   0  0  0  0  0  0  0  0  0  0  0  0
   -4.5539   -0.9806    2.0534 H   0  0  0  0  0  0  0  0  0  0  0  0
   -3.0827    0.4016    0.6307 H   0  0  0  0  0  0  0  0  0  0  0  0
   -5.6899    1.7192    1.4154 H   0  0  0  0  0  0  0  0  0  0  0  0
   -4.0958    1.6904    2.3623 H   0  0  0  0  0  0  0  0  0  0  0  0
   -4.9450    3.6583    0.4756 H   0  0  0  0  0  0  0  0  0  0  0  0
   -3.2031    3.3154    0.7964 H   0  0  0  0  0  0  0  0  0  0  0  0
   -4.6858    2.8488   -1.6229 H   0  0  0  0  0  0  0  0  0  0  0  0
   -3.0046    2.3007   -1.2771 H   0  0  0  0  0  0  0  0  0  0  0  0
   -2.4883   -2.0627   -1.0861 H   0  0  0  0  0  0  0  0  0  0  0  0
   -0.0633   -2.4819   -1.4597 H   0  0  0  0  0  0  0  0  0  0  0  0
   -2.2611    1.2992   -3.6608 H   0  0  0  0  0  0  0  0  0  0  0  0
    3.3224   -1.9640   -3.4887 H   0  0  0  0  0  0  0  0  0  0  0  0
    2.1223   -2.8762   -2.5648 H   0  0  0  0  0  0  0  0  0  0  0  0
    1.9592   -2.3163   -0.0483 H   0  0  0  0  0  0  0  0  0  0  0  0
    3.2270   -1.4678    1.8748 H   0  0  0  0  0  0  0  0  0  0  0  0
    4.0480    0.1618    3.4154 H   0  0  0  0  0  0  0  0  0  0  0  0
    5.0521   -1.3485    3.3273 H   0  0  0  0  0  0  0  0  0  0  0  0
    5.7246    0.3064    5.1358 H   0  0  0  0  0  0  0  0  0  0  0  0
    7.2716   -0.9811    3.6067 H   0  0  0  0  0  0  0  0  0  0  0  0
    6.7856    2.4490    4.3589 H   0  0  0  0  0  0  0  0  0  0  0  0
    6.3627    2.0394    2.6766 H   0  0  0  0  0  0  0  0  0  0  0  0
    6.0084    0.4542   -0.6656 H   0  0  0  0  0  0  0  0  0  0  0  0
    4.7804   -0.3666   -2.5833 H   0  0  0  0  0  0  0  0  0  0  0  0
  1  2  1  0
  2  3  1  0
  3  4  1  0
  4  5  1  0
  5  6  1  0
  6  7  1  0
  7  8  1  0
  8  9  1  0
  9 10  2  0
  9 11  2  0
  9 12  1  0
 12 13  2  0
 13 14  1  0
 14 15  2  0
 15 16  1  0
 16 17  2  0
 16 18  1  0
 18 19  2  0
 18 20  1  0
 20 21  2  0
 20 22  1  0
 22 23  1  0
 23 24  1  0
 24 25  2  0
 25 26  1  0
 26 27  2  0
 27 28  1  0
 28 29  1  0
 29 30  1  0
 30 31  1  0
 30 32  1  0
 32 33  1  0
 27 34  1  0
 34 35  2  0
  8  4  1  0
 17 12  1  0
 35 24  1  0
 22 15  1  0
  1 36  1  0
  1 37  1  0
  1 38  1  0
  3 39  1  0
  3 40  1  0
  4 41  1  6
  5 42  1  0
  5 43  1  0
  6 44  1  0
  6 45  1  0
  7 46  1  0
  7 47  1  0
 13 48  1  0
 14 49  1  0
 17 50  1  0
 23 51  1  0
 23 52  1  0
 25 53  1  0
 26 54  1  0
 29 55  1  0
 29 56  1  0
 30 57  1  0
 31 58  1  0
 32 59  1  0
 32 60  1  0
 34 61  1  0
 35 62  1  0
M  END
$$$$
