
     RDKit          3D

 36 38  0  0  0  0  0  0  0  0999 V2000
    0.1242   -2.5876    0.7769 O   0  0  0  0  0  0  0  0  0  0  0  0
    0.0438   -1.4477    0.3215 C   0  0  0  0  0  0  0  0  0  0  0  0
    1.2735   -0.6685    0.0492 C   0  0  0  0  0  0  0  0  0  0  0  0
    2.3758   -0.8552    0.7191 C   0  0  0  0  0  0  0  0  0  0  0  0
    3.6115   -0.1368    0.5186 C   0  0  0  0  0  0  0  0  0  0  0  0
    4.8627   -0.7460    0.5413 C   0  0  0  0  0  0  0  0  0  0  0  0
    6.0367   -0.0366    0.3775 C   0  0  0  0  0  0  0  0  0  0  0  0
    5.9879    1.3229    0.1850 C   0  0  0  0  0  0  0  0  0  0  0  0
    4.7405    1.9286    0.1639 C   0  0  0  0  0  0  0  0  0  0  0  0
    3.6364    1.1969    0.3264 N   0  0  0  0  0  0  0  0  0  0  0  0
    1.1735    0.3339   -1.0407 C   0  0  0  0  0  0  0  0  0  0  0  0
   -0.0447    0.1668   -1.8002 N   0  0  0  0  0  0  0  0  0  0  0  0
   -1.2625    0.2296   -1.0225 C   0  0  0  0  0  0  0  0  0  0  0  0
   -1.2518   -0.7957    0.0280 C   0  0  0  0  0  0  0  0  0  0  0  0
   -2.3235   -1.1254    0.7191 C   0  0  0  0  0  0  0  0  0  0  0  0
   -3.6247   -0.5345    0.4996 C   0  0  0  0  0  0  0  0  0  0  0  0
   -4.3624   -0.1695    1.6285 C   0  0  0  0  0  0  0  0  0  0  0  0
   -5.6099    0.4005    1.5203 C   0  0  0  0  0  0  0  0  0  0  0  0
   -6.1531    0.6209    0.2731 C   0  0  0  0  0  0  0  0  0  0  0  0
   -5.4105    0.2526   -0.8242 C   0  0  0  0  0  0  0  0  0  0  0  0
   -4.1799   -0.3079   -0.6852 N   0  0  0  0  0  0  0  0  0  0  0  0
    2.3619   -1.6120    1.4908 H   0  0  0  0  0  0  0  0  0  0  0  0
    4.9054   -1.8014    0.6886 H   0  0  0  0  0  0  0  0  0  0  0  0
    6.9908   -0.5718    0.4038 H   0  0  0  0  0  0  0  0  0  0  0  0
    6.8913    1.9292    0.0492 H   0  0  0  0  0  0  0  0  0  0  0  0
    4.6952    3.0103    0.0140 H   0  0  0  0  0  0  0  0  0  0  0  0
    1.2493    1.3636   -0.6924 H   0  0  0  0  0  0  0  0  0  0  0  0
    1.9971    0.0715   -1.7539 H   0  0  0  0  0  0  0  0  0  0  0  0
   -0.0486   -0.7605   -2.2945 H   0  0  0  0  0  0  0  0  0  0  0  0
   -2.0878    0.1096   -1.7527 H   0  0  0  0  0  0  0  0  0  0  0  0
   -1.2713    1.2654   -0.5730 H   0  0  0  0  0  0  0  0  0  0  0  0
   -2.1811   -1.9076    1.4960 H   0  0  0  0  0  0  0  0  0  0  0  0
   -3.9440   -0.3361    2.6228 H   0  0  0  0  0  0  0  0  0  0  0  0
   -6.1974    0.6945    2.3786 H   0  0  0  0  0  0  0  0  0  0  0  0
   -7.1545    1.0754    0.1642 H   0  0  0  0  0  0  0  0  0  0  0  0
   -5.8500    0.4286   -1.7948 H   0  0  0  0  0  0  0  0  0  0  0  0
  1  2  2  0
  2  3  1  0
  3  4  2  0
  4  5  1  0
  5  6  2  0
  6  7  1  0
  7  8  2  0
  8  9  1  0
  9 10  2  0
  3 11  1  0
 11 12  1  0
 12 13  1  0
 13 14  1  0
 14 15  2  0
 15 16  1  0
 16 17  2  0
 17 18  1  0
 18 19  2  0
 19 20  1  0
 20 21  2  0
 14  2  1  0
 21 16  1  0
 10  5  1  0
  4 22  1  0
  6 23  1  0
  7 24  1  0
  8 25  1  0
  9 26  1  0
 11 27  1  0
 11 28  1  0
 12 29  1  0
 13 30  1  0
 13 31  1  0
 15 32  1  0
 17 33  1  0
 18 34  1  0
 19 35  1  0
 20 36  1  0
M  END
$$$$
