
     RDKit          3D

 55 59  0  0  0  0  0  0  0  0999 V2000
    4.6611    2.7465   -1.2484 C   0  0  0  0  0  0  0  0  0  0  0  0
    4.2056    2.9409    0.1111 N   0  0  0  0  0  0  0  0  0  0  0  0
    2.7786    3.0518    0.2115 C   0  0  0  0  0  0  0  0  0  0  0  0
    2.0423    1.7898   -0.0957 C   0  0  0  0  0  0  0  0  0  0  0  0
    2.4132    0.6623    0.8335 C   0  0  0  0  0  0  0  0  0  0  0  0
    1.6533   -0.5174    0.4614 N   0  0  0  0  0  0  0  0  0  0  0  0
    0.4265   -0.8627    0.9119 C   0  0  0  0  0  0  0  0  0  0  0  0
    0.0411   -2.0525    0.3124 C   0  0  0  0  0  0  0  0  0  0  0  0
   -1.2351   -2.7425    0.5210 C   0  0  0  0  0  0  0  0  0  0  0  0
   -2.4071   -2.0805    0.5086 C   0  0  0  0  0  0  0  0  0  0  0  0
   -2.5280   -0.6432    0.2889 C   0  0  0  0  0  0  0  0  0  0  0  0
   -1.8812    0.0793   -0.7034 C   0  0  0  0  0  0  0  0  0  0  0  0
   -2.1994    1.3771   -0.6078 N   0  0  0  0  0  0  0  0  0  0  0  0
   -1.7667    2.4944   -1.4206 C   0  0  0  0  0  0  0  0  0  0  0  0
   -3.0434    1.4848    0.4397 C   0  0  0  0  0  0  0  0  0  0  0  0
   -3.6727    2.5869    0.9870 C   0  0  0  0  0  0  0  0  0  0  0  0
   -4.5029    2.4383    2.0889 C   0  0  0  0  0  0  0  0  0  0  0  0
   -4.7126    1.1941    2.6526 C   0  0  0  0  0  0  0  0  0  0  0  0
   -4.0946    0.0841    2.1201 C   0  0  0  0  0  0  0  0  0  0  0  0
   -3.2672    0.2499    1.0171 C   0  0  0  0  0  0  0  0  0  0  0  0
   -3.4477   -3.0393    0.7378 C   0  0  0  0  0  0  0  0  0  0  0  0
   -4.7127   -2.8345    0.7998 O   0  0  0  0  0  0  0  0  0  0  0  0
   -2.8708   -4.3255    0.8963 N   0  0  0  0  0  0  0  0  0  0  0  0
   -1.4785   -4.1487    0.7620 C   0  0  0  0  0  0  0  0  0  0  0  0
   -0.5754   -5.0604    0.8381 O   0  0  0  0  0  0  0  0  0  0  0  0
    1.0776   -2.4020   -0.5079 C   0  0  0  0  0  0  0  0  0  0  0  0
    1.3206   -3.4450   -1.3679 C   0  0  0  0  0  0  0  0  0  0  0  0
    2.4755   -3.5796   -2.1135 C   0  0  0  0  0  0  0  0  0  0  0  0
    3.4577   -2.6239   -2.0061 C   0  0  0  0  0  0  0  0  0  0  0  0
    3.2427   -1.5660   -1.1530 C   0  0  0  0  0  0  0  0  0  0  0  0
    2.0873   -1.4434   -0.4162 C   0  0  0  0  0  0  0  0  0  0  0  0
    4.3814    3.6470   -1.8282 H   0  0  0  0  0  0  0  0  0  0  0  0
    5.7639    2.6560   -1.2241 H   0  0  0  0  0  0  0  0  0  0  0  0
    4.2654    1.8294   -1.7185 H   0  0  0  0  0  0  0  0  0  0  0  0
    4.6348    2.3104    0.7964 H   0  0  0  0  0  0  0  0  0  0  0  0
    2.5338    3.4060    1.2434 H   0  0  0  0  0  0  0  0  0  0  0  0
    2.4567    3.8569   -0.4847 H   0  0  0  0  0  0  0  0  0  0  0  0
    0.9470    2.0203    0.0661 H   0  0  0  0  0  0  0  0  0  0  0  0
    2.1404    1.5484   -1.1584 H   0  0  0  0  0  0  0  0  0  0  0  0
    2.2274    0.9818    1.8633 H   0  0  0  0  0  0  0  0  0  0  0  0
    3.5074    0.4590    0.6456 H   0  0  0  0  0  0  0  0  0  0  0  0
   -0.1897   -0.3246    1.6247 H   0  0  0  0  0  0  0  0  0  0  0  0
   -1.2210   -0.3184   -1.4482 H   0  0  0  0  0  0  0  0  0  0  0  0
   -2.4280    2.6040   -2.3209 H   0  0  0  0  0  0  0  0  0  0  0  0
   -1.8508    3.4110   -0.8238 H   0  0  0  0  0  0  0  0  0  0  0  0
   -0.7015    2.3882   -1.7258 H   0  0  0  0  0  0  0  0  0  0  0  0
   -3.5093    3.5708    0.5469 H   0  0  0  0  0  0  0  0  0  0  0  0
   -4.9802    3.3217    2.4921 H   0  0  0  0  0  0  0  0  0  0  0  0
   -5.3677    1.0749    3.5243 H   0  0  0  0  0  0  0  0  0  0  0  0
   -4.2548   -0.8934    2.5718 H   0  0  0  0  0  0  0  0  0  0  0  0
   -3.3518   -5.2223    1.0740 H   0  0  0  0  0  0  0  0  0  0  0  0
    0.5202   -4.2003   -1.4501 H   0  0  0  0  0  0  0  0  0  0  0  0
    2.5613   -4.4316   -2.7518 H   0  0  0  0  0  0  0  0  0  0  0  0
    4.3920   -2.7007   -2.5870 H   0  0  0  0  0  0  0  0  0  0  0  0
    4.0359   -0.8077   -1.0765 H   0  0  0  0  0  0  0  0  0  0  0  0
  1  2  1  0
  2  3  1  0
  3  4  1  0
  4  5  1  0
  5  6  1  0
  6  7  1  0
  7  8  2  0
  8  9  1  0
  9 10  2  0
 10 11  1  0
 11 12  2  0
 12 13  1  0
 13 14  1  0
 13 15  1  0
 15 16  2  0
 16 17  1  0
 17 18  2  0
 18 19  1  0
 19 20  2  0
 10 21  1  0
 21 22  2  0
 21 23  1  0
 23 24  1  0
 24 25  2  0
  8 26  1  0
 26 27  2  0
 27 28  1  0
 28 29  2  0
 29 30  1  0
 30 31  2  0
 31  6  1  0
 24  9  1  0
 31 26  1  0
 20 11  1  0
 20 15  1  0
  1 32  1  0
  1 33  1  0
  1 34  1  0
  2 35  1  0
  3 36  1  0
  3 37  1  0
  4 38  1  0
  4 39  1  0
  5 40  1  0
  5 41  1  0
  7 42  1  0
 12 43  1  0
 14 44  1  0
 14 45  1  0
 14 46  1  0
 16 47  1  0
 17 48  1  0
 18 49  1  0
 19 50  1  0
 23 51  1  0
 27 52  1  0
 28 53  1  0
 29 54  1  0
 30 55  1  0
M  END
$$$$
