
     RDKit          3D

 45 46  0  0  0  0  0  0  0  0999 V2000
   -6.5070    0.8593   -2.0543 C   0  0  0  0  0  0  0  0  0  0  0  0
   -6.0678    1.0330   -0.6217 C   0  0  0  0  0  0  0  0  0  0  0  0
   -6.4430    2.3871   -0.0706 C   0  0  0  0  0  0  0  0  0  0  0  0
   -4.6993    0.8706   -0.4351 O   0  0  0  0  0  0  0  0  0  0  0  0
   -4.0774   -0.0859    0.3513 C   0  0  0  0  0  0  0  0  0  0  0  0
   -2.6891    0.0813    0.2769 C   0  0  0  0  0  0  0  0  0  0  0  0
   -1.8290   -0.7630    0.9840 C   0  0  0  0  0  0  0  0  0  0  0  0
   -0.4124   -0.6362    0.9429 N   0  0  0  0  0  0  0  0  0  0  0  0
    0.4350   -1.2829    0.0146 C   0  0  0  0  0  0  0  0  0  0  0  0
   -0.1023   -2.0296   -0.8436 O   0  0  0  0  0  0  0  0  0  0  0  0
    1.8844   -1.1260    0.0066 C   0  0  0  0  0  0  0  0  0  0  0  0
    2.5016   -0.3158    0.9326 C   0  0  0  0  0  0  0  0  0  0  0  0
    3.8637   -0.1477    0.9507 C   0  0  0  0  0  0  0  0  0  0  0  0
    4.7317    0.8386    2.1013 Cl  0  0  0  0  0  0  0  0  0  0  0  0
    4.7075   -0.7644    0.0596 C   0  0  0  0  0  0  0  0  0  0  0  0
    6.0488   -0.8306   -0.2177 O   0  0  0  0  0  0  0  0  0  0  0  0
    6.8069   -0.0788   -1.0907 C   0  0  0  0  0  0  0  0  0  0  0  0
    6.8786    1.3940   -0.8356 C   0  0  0  0  0  0  0  0  0  0  0  0
    7.4526    1.6938    0.4428 N   0  0  0  0  0  0  0  0  0  0  0  0
    4.0767   -1.5939   -0.8880 C   0  0  0  0  0  0  0  0  0  0  0  0
    4.8395   -2.5425   -2.1814 Cl  0  0  0  0  0  0  0  0  0  0  0  0
    2.6846   -1.7704   -0.9120 C   0  0  0  0  0  0  0  0  0  0  0  0
   -2.3482   -1.7746    1.7661 C   0  0  0  0  0  0  0  0  0  0  0  0
   -3.6983   -1.9183    1.8235 C   0  0  0  0  0  0  0  0  0  0  0  0
   -4.5738   -1.1032    1.1388 C   0  0  0  0  0  0  0  0  0  0  0  0
   -5.8080    1.2881   -2.7921 H   0  0  0  0  0  0  0  0  0  0  0  0
   -7.5051    1.3048   -2.1542 H   0  0  0  0  0  0  0  0  0  0  0  0
   -6.6067   -0.2322   -2.2348 H   0  0  0  0  0  0  0  0  0  0  0  0
   -6.6044    0.2631   -0.0324 H   0  0  0  0  0  0  0  0  0  0  0  0
   -7.3088    2.3056    0.6244 H   0  0  0  0  0  0  0  0  0  0  0  0
   -6.6775    3.0757   -0.9199 H   0  0  0  0  0  0  0  0  0  0  0  0
   -5.6224    2.8407    0.5264 H   0  0  0  0  0  0  0  0  0  0  0  0
   -2.1374    0.8362   -0.2999 H   0  0  0  0  0  0  0  0  0  0  0  0
   -0.0240   -0.0063    1.6760 H   0  0  0  0  0  0  0  0  0  0  0  0
    1.9858    0.2391    1.6991 H   0  0  0  0  0  0  0  0  0  0  0  0
    6.5078   -0.2003   -2.1620 H   0  0  0  0  0  0  0  0  0  0  0  0
    7.8500   -0.5301   -1.0749 H   0  0  0  0  0  0  0  0  0  0  0  0
    7.4925    1.9127   -1.6074 H   0  0  0  0  0  0  0  0  0  0  0  0
    5.8561    1.8298   -0.8992 H   0  0  0  0  0  0  0  0  0  0  0  0
    7.5488    0.8603    1.0579 H   0  0  0  0  0  0  0  0  0  0  0  0
    6.9891    2.4709    0.9598 H   0  0  0  0  0  0  0  0  0  0  0  0
    2.1342   -2.3872   -1.6051 H   0  0  0  0  0  0  0  0  0  0  0  0
   -1.7096   -2.4580    2.3361 H   0  0  0  0  0  0  0  0  0  0  0  0
   -4.1701   -2.6834    2.4116 H   0  0  0  0  0  0  0  0  0  0  0  0
   -5.6541   -1.1235    1.1095 H   0  0  0  0  0  0  0  0  0  0  0  0
  1  2  1  0
  2  3  1  0
  2  4  1  0
  4  5  1  0
  5  6  2  0
  6  7  1  0
  7  8  1  0
  8  9  1  0
  9 10  2  0
  9 11  1  0
 11 12  2  0
 12 13  1  0
 13 14  1  0
 13 15  2  0
 15 16  1  0
 16 17  1  0
 17 18  1  0
 18 19  1  0
 15 20  1  0
 20 21  1  0
 20 22  2  0
  7 23  2  0
 23 24  1  0
 24 25  2  0
 25  5  1  0
 22 11  1  0
  1 26  1  0
  1 27  1  0
  1 28  1  0
  2 29  1  0
  3 30  1  0
  3 31  1  0
  3 32  1  0
  6 33  1  0
  8 34  1  0
 12 35  1  0
 17 36  1  0
 17 37  1  0
 18 38  1  0
 18 39  1  0
 19 40  1  0
 19 41  1  0
 22 42  1  0
 23 43  1  0
 24 44  1  0
 25 45  1  0
M  END
$$$$
