
     RDKit          3D

 52 56  0  0  0  0  0  0  0  0999 V2000
   -1.4723   -0.9865    1.7105 O   0  0  0  0  0  0  0  0  0  0  0  0
   -1.9605   -0.0824    1.0045 C   0  0  0  0  0  0  0  0  0  0  0  0
   -3.3473    0.2850    1.2716 C   0  0  0  0  0  0  0  0  0  0  0  0
   -3.6615    1.2835    2.1948 C   0  0  0  0  0  0  0  0  0  0  0  0
   -4.9980    1.5936    2.4108 C   0  0  0  0  0  0  0  0  0  0  0  0
   -5.3218    2.5616    3.3048 F   0  0  0  0  0  0  0  0  0  0  0  0
   -5.9896    0.9232    1.7223 C   0  0  0  0  0  0  0  0  0  0  0  0
   -5.6703   -0.0627    0.8111 C   0  0  0  0  0  0  0  0  0  0  0  0
   -4.3340   -0.3874    0.5814 C   0  0  0  0  0  0  0  0  0  0  0  0
   -3.9940   -1.4027   -0.3563 N   0  0  0  0  0  0  0  0  0  0  0  0
   -2.9653   -2.2212   -0.3166 N   0  0  0  0  0  0  0  0  0  0  0  0
   -2.9580   -3.0473   -1.3634 C   0  0  0  0  0  0  0  0  0  0  0  0
   -4.0629   -2.7222   -2.1131 C   0  0  0  0  0  0  0  0  0  0  0  0
   -4.6697   -1.7029   -1.4517 N   0  0  0  0  0  0  0  0  0  0  0  0
   -1.2406    0.5873   -0.0226 N   0  0  0  0  0  0  0  0  0  0  0  0
   -1.8869    1.6301   -0.7987 C   0  0  0  0  0  0  0  0  0  0  0  0
   -0.7808    2.4189   -1.4816 C   0  0  0  0  0  0  0  0  0  0  0  0
    0.2645    2.6926   -0.6334 O   0  0  0  0  0  0  0  0  0  0  0  0
    0.9358    1.5616   -0.1983 C   0  0  0  0  0  0  0  0  0  0  0  0
    0.1208    0.3002   -0.3612 C   0  0  1  0  0  0  0  0  0  0  0  0
    0.7247   -0.8319    0.4295 C   0  0  0  0  0  0  0  0  0  0  0  0
    2.1249   -0.9971   -0.0418 C   0  0  0  0  0  0  0  0  0  0  0  0
    2.3611   -1.8581   -1.0902 C   0  0  0  0  0  0  0  0  0  0  0  0
    3.6251   -2.0864   -1.6076 C   0  0  0  0  0  0  0  0  0  0  0  0
    4.6771   -1.4207   -1.0430 C   0  0  0  0  0  0  0  0  0  0  0  0
    4.4820   -0.5522    0.0059 C   0  0  0  0  0  0  0  0  0  0  0  0
    5.5880    0.1358    0.5857 N   0  0  0  0  0  0  0  0  0  0  0  0
    6.8562   -0.2179    0.4524 N   0  0  0  0  0  0  0  0  0  0  0  0
    7.6503    0.6405    1.1232 C   0  0  0  0  0  0  0  0  0  0  0  0
    6.8172    1.5649    1.6941 C   0  0  0  0  0  0  0  0  0  0  0  0
    5.5747    1.2151    1.3383 N   0  0  0  0  0  0  0  0  0  0  0  0
    3.1974   -0.3409    0.5076 C   0  0  0  0  0  0  0  0  0  0  0  0
   -2.8514    1.7727    2.7022 H   0  0  0  0  0  0  0  0  0  0  0  0
   -7.0368    1.1504    1.8766 H   0  0  0  0  0  0  0  0  0  0  0  0
   -6.4465   -0.5937    0.2663 H   0  0  0  0  0  0  0  0  0  0  0  0
   -2.2630   -3.8345   -1.6356 H   0  0  0  0  0  0  0  0  0  0  0  0
   -4.3630   -3.1964   -3.0349 H   0  0  0  0  0  0  0  0  0  0  0  0
   -2.4939    1.0929   -1.5765 H   0  0  0  0  0  0  0  0  0  0  0  0
   -2.5379    2.2709   -0.1868 H   0  0  0  0  0  0  0  0  0  0  0  0
   -1.2288    3.3887   -1.7853 H   0  0  0  0  0  0  0  0  0  0  0  0
   -0.4549    1.9146   -2.4213 H   0  0  0  0  0  0  0  0  0  0  0  0
    1.1238    1.7005    0.8909 H   0  0  0  0  0  0  0  0  0  0  0  0
    1.9107    1.4826   -0.7299 H   0  0  0  0  0  0  0  0  0  0  0  0
    0.1273    0.0053   -1.4492 H   0  0  0  0  0  0  0  0  0  0  0  0
    0.2097   -1.7807    0.2955 H   0  0  0  0  0  0  0  0  0  0  0  0
    0.7948   -0.4834    1.4842 H   0  0  0  0  0  0  0  0  0  0  0  0
    1.5191   -2.3754   -1.5240 H   0  0  0  0  0  0  0  0  0  0  0  0
    3.7409   -2.7855   -2.4437 H   0  0  0  0  0  0  0  0  0  0  0  0
    5.6845   -1.5724   -1.4202 H   0  0  0  0  0  0  0  0  0  0  0  0
    8.7243    0.6383    1.2181 H   0  0  0  0  0  0  0  0  0  0  0  0
    7.1079    2.4023    2.3051 H   0  0  0  0  0  0  0  0  0  0  0  0
    3.0468    0.3296    1.3175 H   0  0  0  0  0  0  0  0  0  0  0  0
  1  2  2  0
  2  3  1  0
  3  4  2  0
  4  5  1  0
  5  6  1  0
  5  7  2  0
  7  8  1  0
  8  9  2  0
  9 10  1  0
 10 11  1  0
 11 12  2  0
 12 13  1  0
 13 14  2  0
  2 15  1  0
 15 16  1  0
 16 17  1  0
 17 18  1  0
 18 19  1  0
 19 20  1  0
 20 21  1  0
 21 22  1  0
 22 23  2  0
 23 24  1  0
 24 25  2  0
 25 26  1  0
 26 27  1  0
 27 28  1  0
 28 29  2  0
 29 30  1  0
 30 31  2  0
 26 32  2  0
  9  3  1  0
 14 10  1  0
 20 15  1  0
 32 22  1  0
 31 27  1  0
  4 33  1  0
  7 34  1  0
  8 35  1  0
 12 36  1  0
 13 37  1  0
 16 38  1  0
 16 39  1  0
 17 40  1  0
 17 41  1  0
 19 42  1  0
 19 43  1  0
 20 44  1  6
 21 45  1  0
 21 46  1  0
 23 47  1  0
 24 48  1  0
 25 49  1  0
 29 50  1  0
 30 51  1  0
 32 52  1  0
M  END
$$$$
