
     RDKit          3D

 46 49  0  0  0  0  0  0  0  0999 V2000
    4.2495   -1.2450    0.1060 C   0  0  1  0  0  0  0  0  0  0  0  0
    5.7557   -1.2738   -0.0235 C   0  0  0  0  0  0  0  0  0  0  0  0
    3.8248   -1.9756    1.1868 O   0  0  0  0  0  0  0  0  0  0  0  0
    3.7651    0.1813    0.1237 C   0  0  0  0  0  0  0  0  0  0  0  0
    2.3120    0.2901    0.1218 N   0  0  0  0  0  0  0  0  0  0  0  0
    1.7037    1.5748    0.1280 C   0  0  0  0  0  0  0  0  0  0  0  0
    0.3405    1.7737    0.1297 C   0  0  0  0  0  0  0  0  0  0  0  0
   -0.1830    3.0421    0.1277 C   0  0  0  0  0  0  0  0  0  0  0  0
   -1.5034    2.8432    0.1297 N   0  0  0  0  0  0  0  0  0  0  0  0
   -1.8241    1.5201    0.1332 C   0  0  0  0  0  0  0  0  0  0  0  0
   -0.6233    0.8154    0.1333 C   0  0  0  0  0  0  0  0  0  0  0  0
   -0.6625   -0.6301    0.1358 C   0  0  0  0  0  0  0  0  0  0  0  0
   -0.7172   -1.2974   -1.0942 C   0  0  0  0  0  0  0  0  0  0  0  0
   -0.7671   -2.6815   -1.2011 C   0  0  0  0  0  0  0  0  0  0  0  0
   -0.7627   -3.4448   -0.0342 C   0  0  0  0  0  0  0  0  0  0  0  0
   -0.7097   -2.8235    1.2022 C   0  0  0  0  0  0  0  0  0  0  0  0
   -0.6615   -1.4574    1.2669 C   0  0  0  0  0  0  0  0  0  0  0  0
   -3.2097    1.0218    0.1383 C   0  0  0  0  0  0  0  0  0  0  0  0
   -3.6612    0.2882    1.2179 C   0  0  0  0  0  0  0  0  0  0  0  0
   -4.9587   -0.1847    1.2335 C   0  0  0  0  0  0  0  0  0  0  0  0
   -5.8503    0.0536    0.1804 C   0  0  0  0  0  0  0  0  0  0  0  0
   -5.3839    0.7880   -0.8908 C   0  0  0  0  0  0  0  0  0  0  0  0
   -4.0765    1.2657   -0.9084 C   0  0  0  0  0  0  0  0  0  0  0  0
    0.6111    4.1225    0.1244 N   0  0  0  0  0  0  0  0  0  0  0  0
    1.9393    3.9253    0.1230 C   0  0  0  0  0  0  0  0  0  0  0  0
    2.4812    2.6732    0.1247 N   0  0  0  0  0  0  0  0  0  0  0  0
    3.8239   -1.7058   -0.8211 H   0  0  0  0  0  0  0  0  0  0  0  0
    6.1490   -0.6685    0.8188 H   0  0  0  0  0  0  0  0  0  0  0  0
    6.1595   -2.2838   -0.0701 H   0  0  0  0  0  0  0  0  0  0  0  0
    6.0601   -0.7625   -0.9658 H   0  0  0  0  0  0  0  0  0  0  0  0
    4.4871   -2.0017    1.8950 H   0  0  0  0  0  0  0  0  0  0  0  0
    4.2155    0.6553    1.0446 H   0  0  0  0  0  0  0  0  0  0  0  0
    4.1428    0.7652   -0.7174 H   0  0  0  0  0  0  0  0  0  0  0  0
    1.8201   -0.6240    0.1134 H   0  0  0  0  0  0  0  0  0  0  0  0
   -2.2109    3.6341    0.1289 H   0  0  0  0  0  0  0  0  0  0  0  0
   -0.7222   -0.7385   -2.0149 H   0  0  0  0  0  0  0  0  0  0  0  0
   -0.8086   -3.1435   -2.1822 H   0  0  0  0  0  0  0  0  0  0  0  0
   -0.8013   -4.5204   -0.1151 H   0  0  0  0  0  0  0  0  0  0  0  0
   -0.7053   -3.4023    2.1345 H   0  0  0  0  0  0  0  0  0  0  0  0
   -0.6194   -0.9464    2.2181 H   0  0  0  0  0  0  0  0  0  0  0  0
   -3.0400    0.0541    2.0805 H   0  0  0  0  0  0  0  0  0  0  0  0
   -5.3217   -0.7672    2.0884 H   0  0  0  0  0  0  0  0  0  0  0  0
   -6.8738   -0.3209    0.1955 H   0  0  0  0  0  0  0  0  0  0  0  0
   -6.0683    0.9776   -1.7114 H   0  0  0  0  0  0  0  0  0  0  0  0
   -3.7031    1.8359   -1.7319 H   0  0  0  0  0  0  0  0  0  0  0  0
    2.5885    4.7981    0.1205 H   0  0  0  0  0  0  0  0  0  0  0  0
  1  2  1  0
  1  3  1  0
  1  4  1  0
  4  5  1  0
  5  6  1  0
  6  7  2  0
  7  8  1  0
  8  9  1  0
  9 10  1  0
 10 11  2  0
 11 12  1  0
 12 13  2  0
 13 14  1  0
 14 15  2  0
 15 16  1  0
 16 17  2  0
 10 18  1  0
 18 19  2  0
 19 20  1  0
 20 21  2  0
 21 22  1  0
 22 23  2  0
  8 24  2  0
 24 25  1  0
 25 26  2  0
 26  6  1  0
 11  7  1  0
 17 12  1  0
 23 18  1  0
  1 27  1  6
  2 28  1  0
  2 29  1  0
  2 30  1  0
  3 31  1  0
  4 32  1  0
  4 33  1  0
  5 34  1  0
  9 35  1  0
 13 36  1  0
 14 37  1  0
 15 38  1  0
 16 39  1  0
 17 40  1  0
 19 41  1  0
 20 42  1  0
 21 43  1  0
 22 44  1  0
 23 45  1  0
 25 46  1  0
M  END
$$$$
