
     RDKit          3D

 63 65  0  0  0  0  0  0  0  0999 V2000
   -3.8045    4.6255   -2.2885 C   0  0  0  0  0  0  0  0  0  0  0  0
   -2.6703    3.7844   -2.1858 O   0  0  0  0  0  0  0  0  0  0  0  0
   -2.3921    3.2125   -0.9375 C   0  0  0  0  0  0  0  0  0  0  0  0
   -3.1824    3.4582    0.1408 C   0  0  0  0  0  0  0  0  0  0  0  0
   -2.8757    2.8756    1.3473 C   0  0  0  0  0  0  0  0  0  0  0  0
   -3.6280    3.0750    2.5013 O   0  0  0  0  0  0  0  0  0  0  0  0
   -4.7495    3.9251    2.3990 C   0  0  0  0  0  0  0  0  0  0  0  0
   -1.7547    2.0420    1.4344 C   0  0  0  0  0  0  0  0  0  0  0  0
   -0.9565    1.7937    0.3465 C   0  0  0  0  0  0  0  0  0  0  0  0
    0.2040    0.9346    0.4117 C   0  0  0  0  0  0  0  0  0  0  0  0
    1.4324    1.4004   -0.0685 C   0  0  0  0  0  0  0  0  0  0  0  0
    2.5634    0.6414   -0.0173 C   0  0  0  0  0  0  0  0  0  0  0  0
    3.8012    1.1044   -0.4822 C   0  0  0  0  0  0  0  0  0  0  0  0
    4.8819    0.3127   -0.3905 N   0  0  0  0  0  0  0  0  0  0  0  0
    4.8005   -0.9031    0.1317 C   0  0  0  0  0  0  0  0  0  0  0  0
    5.9101   -1.7546    0.2705 N   0  0  0  0  0  0  0  0  0  0  0  0
    6.5934   -2.2451   -0.9012 C   0  0  0  0  0  0  0  0  0  0  0  0
    7.2398   -1.0700   -1.5960 C   0  0  0  0  0  0  0  0  0  0  0  0
    8.1998   -0.4303   -0.6100 C   0  0  0  0  0  0  0  0  0  0  0  0
    9.1802   -1.3248   -0.2093 O   0  0  0  0  0  0  0  0  0  0  0  0
    3.6163   -1.3489    0.5773 N   0  0  0  0  0  0  0  0  0  0  0  0
    2.4869   -0.6239    0.5260 C   0  0  0  0  0  0  0  0  0  0  0  0
    1.3014   -1.0771    0.9921 N   0  0  0  0  0  0  0  0  0  0  0  0
    0.1798   -0.3346    0.9448 C   0  0  0  0  0  0  0  0  0  0  0  0
   -1.0147   -0.9145    1.4601 N   0  0  0  0  0  0  0  0  0  0  0  0
   -1.8776   -1.6658    0.6435 C   0  0  0  0  0  0  0  0  0  0  0  0
   -1.5494   -1.8016   -0.5721 O   0  0  0  0  0  0  0  0  0  0  0  0
   -3.0796   -2.2781    1.0811 N   0  0  0  0  0  0  0  0  0  0  0  0
   -3.8809   -3.0456    0.1205 C   0  0  0  0  0  0  0  0  0  0  0  0
   -5.0997   -3.5820    0.8334 C   0  0  0  0  0  0  0  0  0  0  0  0
   -4.3356   -2.2017   -1.0216 C   0  0  0  0  0  0  0  0  0  0  0  0
   -3.0697   -4.2063   -0.4216 C   0  0  0  0  0  0  0  0  0  0  0  0
   -1.2882    2.3904   -0.8464 C   0  0  0  0  0  0  0  0  0  0  0  0
   -3.6532    5.5922   -1.8071 H   0  0  0  0  0  0  0  0  0  0  0  0
   -3.9691    4.8013   -3.3777 H   0  0  0  0  0  0  0  0  0  0  0  0
   -4.6829    4.0698   -1.8556 H   0  0  0  0  0  0  0  0  0  0  0  0
   -4.0590    4.1062    0.0765 H   0  0  0  0  0  0  0  0  0  0  0  0
   -5.5058    3.4113    1.7791 H   0  0  0  0  0  0  0  0  0  0  0  0
   -4.3781    4.8795    1.9220 H   0  0  0  0  0  0  0  0  0  0  0  0
   -5.1608    4.1807    3.4124 H   0  0  0  0  0  0  0  0  0  0  0  0
   -1.4980    1.5775    2.3777 H   0  0  0  0  0  0  0  0  0  0  0  0
    1.4836    2.3965   -0.4957 H   0  0  0  0  0  0  0  0  0  0  0  0
    3.8309    2.0928   -0.9005 H   0  0  0  0  0  0  0  0  0  0  0  0
    6.2063   -2.0073    1.2464 H   0  0  0  0  0  0  0  0  0  0  0  0
    5.7877   -2.6639   -1.5740 H   0  0  0  0  0  0  0  0  0  0  0  0
    7.3341   -3.0344   -0.6575 H   0  0  0  0  0  0  0  0  0  0  0  0
    6.4858   -0.3490   -1.9215 H   0  0  0  0  0  0  0  0  0  0  0  0
    7.8169   -1.4227   -2.4981 H   0  0  0  0  0  0  0  0  0  0  0  0
    7.6584   -0.0909    0.2994 H   0  0  0  0  0  0  0  0  0  0  0  0
    8.6718    0.4738   -1.0365 H   0  0  0  0  0  0  0  0  0  0  0  0
    9.9691   -1.1572   -0.7734 H   0  0  0  0  0  0  0  0  0  0  0  0
   -1.2636   -0.7895    2.4626 H   0  0  0  0  0  0  0  0  0  0  0  0
   -3.3725   -2.1724    2.0724 H   0  0  0  0  0  0  0  0  0  0  0  0
   -4.7354   -4.1993    1.6829 H   0  0  0  0  0  0  0  0  0  0  0  0
   -5.7341   -2.7836    1.2456 H   0  0  0  0  0  0  0  0  0  0  0  0
   -5.6514   -4.2714    0.1540 H   0  0  0  0  0  0  0  0  0  0  0  0
   -4.4987   -1.1498   -0.7514 H   0  0  0  0  0  0  0  0  0  0  0  0
   -3.6021   -2.3178   -1.8545 H   0  0  0  0  0  0  0  0  0  0  0  0
   -5.2936   -2.6333   -1.3970 H   0  0  0  0  0  0  0  0  0  0  0  0
   -2.1490   -4.3759    0.1711 H   0  0  0  0  0  0  0  0  0  0  0  0
   -3.6908   -5.1199   -0.3639 H   0  0  0  0  0  0  0  0  0  0  0  0
   -2.8454   -4.0311   -1.4736 H   0  0  0  0  0  0  0  0  0  0  0  0
   -0.6830    2.2199   -1.7209 H   0  0  0  0  0  0  0  0  0  0  0  0
  1  2  1  0
  2  3  1  0
  3  4  2  0
  4  5  1  0
  5  6  1  0
  6  7  1  0
  5  8  2  0
  8  9  1  0
  9 10  1  0
 10 11  2  0
 11 12  1  0
 12 13  2  0
 13 14  1  0
 14 15  2  0
 15 16  1  0
 16 17  1  0
 17 18  1  0
 18 19  1  0
 19 20  1  0
 15 21  1  0
 21 22  2  0
 22 23  1  0
 23 24  2  0
 24 25  1  0
 25 26  1  0
 26 27  2  0
 26 28  1  0
 28 29  1  0
 29 30  1  0
 29 31  1  0
 29 32  1  0
  9 33  2  0
 33  3  1  0
 24 10  1  0
 22 12  1  0
  1 34  1  0
  1 35  1  0
  1 36  1  0
  4 37  1  0
  7 38  1  0
  7 39  1  0
  7 40  1  0
  8 41  1  0
 11 42  1  0
 13 43  1  0
 16 44  1  0
 17 45  1  0
 17 46  1  0
 18 47  1  0
 18 48  1  0
 19 49  1  0
 19 50  1  0
 20 51  1  0
 25 52  1  0
 28 53  1  0
 30 54  1  0
 30 55  1  0
 30 56  1  0
 31 57  1  0
 31 58  1  0
 31 59  1  0
 32 60  1  0
 32 61  1  0
 32 62  1  0
 33 63  1  0
M  END
$$$$
