
     RDKit          3D

 52 57  0  0  0  0  0  0  0  0999 V2000
   -3.7277   -0.7634    2.2567 C   0  0  0  0  0  0  0  0  0  0  0  0
   -3.1142   -1.2131    0.9755 C   0  0  0  0  0  0  0  0  0  0  0  0
   -3.6800   -1.9381   -0.0083 N   0  0  0  0  0  0  0  0  0  0  0  0
   -2.7976   -2.1221   -0.9717 N   0  0  0  0  0  0  0  0  0  0  0  0
   -3.0533   -2.8539   -2.1850 C   0  0  0  0  0  0  0  0  0  0  0  0
   -3.8733   -4.0900   -2.1620 C   0  0  0  0  0  0  0  0  0  0  0  0
   -4.5355   -2.8475   -2.6314 C   0  0  0  0  0  0  0  0  0  0  0  0
   -1.6280   -1.5297   -0.6591 C   0  0  0  0  0  0  0  0  0  0  0  0
   -1.8331   -0.9573    0.5688 C   0  0  0  0  0  0  0  0  0  0  0  0
   -0.5934   -0.2357    1.0200 C   0  0  0  0  0  0  0  0  0  0  0  0
   -0.8977    1.2203    1.1629 C   0  0  0  0  0  0  0  0  0  0  0  0
   -1.0947    1.7814    2.4058 C   0  0  0  0  0  0  0  0  0  0  0  0
   -1.3932    3.1110    2.5704 C   0  0  0  0  0  0  0  0  0  0  0  0
   -1.5092    3.9465    1.4926 C   0  0  0  0  0  0  0  0  0  0  0  0
   -1.8884    5.6173    1.7683 Cl  0  0  0  0  0  0  0  0  0  0  0  0
   -1.3170    3.4152    0.2243 C   0  0  0  0  0  0  0  0  0  0  0  0
   -1.0147    2.0636    0.0750 C   0  0  0  0  0  0  0  0  0  0  0  0
   -0.8315    1.5647   -1.1618 F   0  0  0  0  0  0  0  0  0  0  0  0
    0.4040   -0.4764    0.0031 N   0  0  0  0  0  0  0  0  0  0  0  0
    1.7528   -0.0294    0.0403 C   0  0  0  0  0  0  0  0  0  0  0  0
    2.1980    0.6214    1.1681 C   0  0  0  0  0  0  0  0  0  0  0  0
    3.4919    1.0888    1.2640 C   0  0  0  0  0  0  0  0  0  0  0  0
    3.9165    1.7812    2.4999 C   0  0  0  0  0  0  0  0  0  0  0  0
    4.3263    0.8825    0.1919 C   0  0  0  0  0  0  0  0  0  0  0  0
    5.6069    1.2082   -0.0189 N   0  0  0  0  0  0  0  0  0  0  0  0
    5.9641    0.7904   -1.2134 N   0  0  0  0  0  0  0  0  0  0  0  0
    4.9316    0.1799   -1.8204 C   0  0  0  0  0  0  0  0  0  0  0  0
    4.8783   -0.4350   -3.1542 C   0  0  0  0  0  0  0  0  0  0  0  0
    3.9069    0.2443   -0.9259 N   0  0  0  0  0  0  0  0  0  0  0  0
    2.6373   -0.2054   -1.0005 C   0  0  0  0  0  0  0  0  0  0  0  0
   -0.2424   -1.2344   -1.0202 C   0  0  0  0  0  0  0  0  0  0  0  0
    0.2854   -1.6088   -2.0932 O   0  0  0  0  0  0  0  0  0  0  0  0
   -4.0635    0.2951    2.0675 H   0  0  0  0  0  0  0  0  0  0  0  0
   -4.5997   -1.4106    2.4898 H   0  0  0  0  0  0  0  0  0  0  0  0
   -2.9930   -0.7121    3.0819 H   0  0  0  0  0  0  0  0  0  0  0  0
   -2.3030   -2.7908   -2.9803 H   0  0  0  0  0  0  0  0  0  0  0  0
   -4.2122   -4.5007   -1.1729 H   0  0  0  0  0  0  0  0  0  0  0  0
   -3.6072   -4.9056   -2.8768 H   0  0  0  0  0  0  0  0  0  0  0  0
   -5.2585   -2.3516   -1.9558 H   0  0  0  0  0  0  0  0  0  0  0  0
   -4.6995   -2.6526   -3.7202 H   0  0  0  0  0  0  0  0  0  0  0  0
   -0.2830   -0.6286    2.0039 H   0  0  0  0  0  0  0  0  0  0  0  0
   -1.0081    1.1344    3.2922 H   0  0  0  0  0  0  0  0  0  0  0  0
   -1.5305    3.4580    3.5961 H   0  0  0  0  0  0  0  0  0  0  0  0
   -1.4123    4.0852   -0.6052 H   0  0  0  0  0  0  0  0  0  0  0  0
    1.5262    0.7763    2.0256 H   0  0  0  0  0  0  0  0  0  0  0  0
    4.1518    0.9700    3.2429 H   0  0  0  0  0  0  0  0  0  0  0  0
    3.1153    2.3819    2.9564 H   0  0  0  0  0  0  0  0  0  0  0  0
    4.8326    2.3816    2.3706 H   0  0  0  0  0  0  0  0  0  0  0  0
    4.2475    0.1429   -3.8743 H   0  0  0  0  0  0  0  0  0  0  0  0
    5.9012   -0.4410   -3.5845 H   0  0  0  0  0  0  0  0  0  0  0  0
    4.5638   -1.5093   -3.1178 H   0  0  0  0  0  0  0  0  0  0  0  0
    2.3569   -0.6996   -1.9005 H   0  0  0  0  0  0  0  0  0  0  0  0
  1  2  1  0
  2  3  2  0
  3  4  1  0
  4  5  1  0
  5  6  1  0
  6  7  1  0
  4  8  1  0
  8  9  2  0
  9 10  1  0
 10 11  1  0
 11 12  2  0
 12 13  1  0
 13 14  2  0
 14 15  1  0
 14 16  1  0
 16 17  2  0
 17 18  1  0
 10 19  1  0
 19 20  1  0
 20 21  1  0
 21 22  2  0
 22 23  1  0
 22 24  1  0
 24 25  2  0
 25 26  1  0
 26 27  2  0
 27 28  1  0
 27 29  1  0
 29 30  1  0
 19 31  1  0
 31 32  2  0
  9  2  1  0
 17 11  1  0
 30 20  2  0
  7  5  1  0
 31  8  1  0
 29 24  1  0
  1 33  1  0
  1 34  1  0
  1 35  1  0
  5 36  1  0
  6 37  1  0
  6 38  1  0
  7 39  1  0
  7 40  1  0
 10 41  1  0
 12 42  1  0
 13 43  1  0
 16 44  1  0
 21 45  1  0
 23 46  1  0
 23 47  1  0
 23 48  1  0
 28 49  1  0
 28 50  1  0
 28 51  1  0
 30 52  1  0
M  END
$$$$
