
     RDKit          3D

 52 56  0  0  0  0  0  0  0  0999 V2000
   -4.6188    1.8975    1.1315 F   0  0  0  0  0  0  0  0  0  0  0  0
   -5.6075    1.4258    0.3267 C   0  0  0  0  0  0  0  0  0  0  0  0
   -6.7292    2.2282    0.5962 F   0  0  0  0  0  0  0  0  0  0  0  0
   -5.3475    1.6525   -1.0186 F   0  0  0  0  0  0  0  0  0  0  0  0
   -5.9344    0.0295    0.6055 C   0  0  0  0  0  0  0  0  0  0  0  0
   -7.2513   -0.2782    1.0039 C   0  0  0  0  0  0  0  0  0  0  0  0
   -7.6347   -1.5683    1.2540 C   0  0  0  0  0  0  0  0  0  0  0  0
   -6.7113   -2.5917    1.1131 C   0  0  0  0  0  0  0  0  0  0  0  0
   -5.4405   -2.2820    0.7277 C   0  0  0  0  0  0  0  0  0  0  0  0
   -5.0159   -0.9696    0.4642 C   0  0  0  0  0  0  0  0  0  0  0  0
   -3.6519   -0.6905    0.0868 C   0  0  0  0  0  0  0  0  0  0  0  0
   -3.2251   -1.0078   -1.2102 C   0  0  0  0  0  0  0  0  0  0  0  0
   -1.9369   -0.8032   -1.6409 C   0  0  0  0  0  0  0  0  0  0  0  0
   -1.5258   -1.1539   -3.0252 C   0  0  0  0  0  0  0  0  0  0  0  0
   -0.5065   -2.0998   -2.9740 F   0  0  0  0  0  0  0  0  0  0  0  0
   -2.5889   -1.7645   -3.6540 F   0  0  0  0  0  0  0  0  0  0  0  0
   -1.1124   -0.0402   -3.7297 F   0  0  0  0  0  0  0  0  0  0  0  0
   -1.0009   -0.2721   -0.8076 C   0  0  0  0  0  0  0  0  0  0  0  0
    0.3214    0.0501   -0.9146 N   0  0  0  0  0  0  0  0  0  0  0  0
    0.7582    0.5531    0.2400 C   0  0  0  0  0  0  0  0  0  0  0  0
    2.1172    1.0305    0.5686 C   0  0  0  0  0  0  0  0  0  0  0  0
    2.4091    1.8398    1.5269 N   0  0  0  0  0  0  0  0  0  0  0  0
    3.7272    2.1185    1.6143 O   0  0  0  0  0  0  0  0  0  0  0  0
    4.4379    1.1856    0.7879 C   0  0  0  0  0  0  0  0  0  0  0  0
    5.0442    0.1401    1.6629 C   0  0  0  0  0  0  0  0  0  0  0  0
    6.4968   -0.0312    1.2761 C   0  0  0  0  0  0  0  0  0  0  0  0
    6.5806   -0.1753   -0.2287 C   0  0  0  0  0  0  0  0  0  0  0  0
    6.2074    1.1152   -0.9405 C   0  0  0  0  0  0  0  0  0  0  0  0
    5.4746    2.0010    0.0406 C   0  0  0  0  0  0  0  0  0  0  0  0
    3.3619    0.6766   -0.1244 C   0  0  0  0  0  0  0  0  0  0  0  0
   -0.2894    0.5475    1.0739 N   0  0  0  0  0  0  0  0  0  0  0  0
   -1.3884    0.0515    0.4780 C   0  0  0  0  0  0  0  0  0  0  0  0
   -2.6974   -0.1584    0.9113 C   0  0  0  0  0  0  0  0  0  0  0  0
   -7.9810    0.5200    1.1164 H   0  0  0  0  0  0  0  0  0  0  0  0
   -8.6449   -1.8403    1.5637 H   0  0  0  0  0  0  0  0  0  0  0  0
   -7.0036   -3.5948    1.3055 H   0  0  0  0  0  0  0  0  0  0  0  0
   -4.6850   -3.0459    0.6042 H   0  0  0  0  0  0  0  0  0  0  0  0
   -3.9550   -1.4281   -1.8786 H   0  0  0  0  0  0  0  0  0  0  0  0
    0.8998   -0.0799   -1.7742 H   0  0  0  0  0  0  0  0  0  0  0  0
    4.5180   -0.8307    1.6514 H   0  0  0  0  0  0  0  0  0  0  0  0
    5.0539    0.4694    2.7431 H   0  0  0  0  0  0  0  0  0  0  0  0
    7.0344    0.8764    1.6424 H   0  0  0  0  0  0  0  0  0  0  0  0
    6.9681   -0.9108    1.7316 H   0  0  0  0  0  0  0  0  0  0  0  0
    7.5989   -0.4305   -0.5543 H   0  0  0  0  0  0  0  0  0  0  0  0
    5.8606   -0.9700   -0.5174 H   0  0  0  0  0  0  0  0  0  0  0  0
    5.5512    0.8886   -1.7974 H   0  0  0  0  0  0  0  0  0  0  0  0
    7.1120    1.6596   -1.2800 H   0  0  0  0  0  0  0  0  0  0  0  0
    6.1330    2.4896    0.7605 H   0  0  0  0  0  0  0  0  0  0  0  0
    4.9140    2.7649   -0.5364 H   0  0  0  0  0  0  0  0  0  0  0  0
    3.4445   -0.4318   -0.2486 H   0  0  0  0  0  0  0  0  0  0  0  0
    3.4161    1.1525   -1.1365 H   0  0  0  0  0  0  0  0  0  0  0  0
   -2.9566    0.0859    1.9258 H   0  0  0  0  0  0  0  0  0  0  0  0
  1  2  1  0
  2  3  1  0
  2  4  1  0
  2  5  1  0
  5  6  2  0
  6  7  1  0
  7  8  2  0
  8  9  1  0
  9 10  2  0
 10 11  1  0
 11 12  2  0
 12 13  1  0
 13 14  1  0
 14 15  1  0
 14 16  1  0
 14 17  1  0
 13 18  2  0
 18 19  1  0
 19 20  1  0
 20 21  1  0
 21 22  2  0
 22 23  1  0
 23 24  1  0
 24 25  1  0
 25 26  1  0
 26 27  1  0
 27 28  1  0
 28 29  1  0
 24 30  1  0
 20 31  2  0
 31 32  1  0
 32 33  2  0
 10  5  1  0
 33 11  1  0
 32 18  1  0
 30 21  1  0
 29 24  1  0
  6 34  1  0
  7 35  1  0
  8 36  1  0
  9 37  1  0
 12 38  1  0
 19 39  1  0
 25 40  1  0
 25 41  1  0
 26 42  1  0
 26 43  1  0
 27 44  1  0
 27 45  1  0
 28 46  1  0
 28 47  1  0
 29 48  1  0
 29 49  1  0
 30 50  1  0
 30 51  1  0
 33 52  1  0
M  END
$$$$
