
     RDKit          3D

 30 32  0  0  0  0  0  0  0  0999 V2000
   -1.0857    2.8778    1.2797 O   0  0  0  0  0  0  0  0  0  0  0  0
   -0.7151    1.7815    0.7938 C   0  0  0  0  0  0  0  0  0  0  0  0
    0.6335    1.4757    0.7661 C   0  0  0  0  0  0  0  0  0  0  0  0
    1.0070    0.2709    0.2292 C   0  0  0  0  0  0  0  0  0  0  0  0
    2.4040   -0.1523    0.1501 C   0  0  0  0  0  0  0  0  0  0  0  0
    2.7338   -1.3918   -0.4069 C   0  0  0  0  0  0  0  0  0  0  0  0
    4.0405   -1.8082   -0.4906 C   0  0  0  0  0  0  0  0  0  0  0  0
    5.0888   -1.0373   -0.0357 C   0  0  0  0  0  0  0  0  0  0  0  0
    4.7862    0.1878    0.5169 C   0  0  0  0  0  0  0  0  0  0  0  0
    3.4569    0.6018    0.5975 C   0  0  0  0  0  0  0  0  0  0  0  0
    0.0980   -0.5715   -0.2474 O   0  0  0  0  0  0  0  0  0  0  0  0
   -1.1873   -0.3420   -0.2501 C   0  0  0  0  0  0  0  0  0  0  0  0
   -2.0732   -1.2715   -0.7659 C   0  0  0  0  0  0  0  0  0  0  0  0
   -3.4162   -0.9614   -0.7356 C   0  0  0  0  0  0  0  0  0  0  0  0
   -4.3345   -1.8704   -1.2444 O   0  0  0  0  0  0  0  0  0  0  0  0
   -3.8907    0.2245   -0.2164 C   0  0  0  0  0  0  0  0  0  0  0  0
   -5.2418    0.5417   -0.1834 O   0  0  0  0  0  0  0  0  0  0  0  0
   -2.9673    1.1214    0.2872 C   0  0  0  0  0  0  0  0  0  0  0  0
   -3.3584    2.3429    0.8304 O   0  0  0  0  0  0  0  0  0  0  0  0
   -1.5997    0.8613    0.2826 C   0  0  0  0  0  0  0  0  0  0  0  0
    1.3793    2.1720    1.1595 H   0  0  0  0  0  0  0  0  0  0  0  0
    1.9298   -2.0223   -0.7743 H   0  0  0  0  0  0  0  0  0  0  0  0
    4.2927   -2.7857   -0.9306 H   0  0  0  0  0  0  0  0  0  0  0  0
    6.1245   -1.3857   -0.1107 H   0  0  0  0  0  0  0  0  0  0  0  0
    5.5910    0.8123    0.8815 H   0  0  0  0  0  0  0  0  0  0  0  0
    3.2703    1.5856    1.0461 H   0  0  0  0  0  0  0  0  0  0  0  0
   -1.7452   -2.2114   -1.1815 H   0  0  0  0  0  0  0  0  0  0  0  0
   -5.2532   -1.9754   -0.8304 H   0  0  0  0  0  0  0  0  0  0  0  0
   -5.8358    0.0975    0.5240 H   0  0  0  0  0  0  0  0  0  0  0  0
   -4.1323    2.8324    0.3669 H   0  0  0  0  0  0  0  0  0  0  0  0
  1  2  2  0
  2  3  1  0
  3  4  2  0
  4  5  1  0
  5  6  2  0
  6  7  1  0
  7  8  2  0
  8  9  1  0
  9 10  2  0
  4 11  1  0
 11 12  1  0
 12 13  2  0
 13 14  1  0
 14 15  1  0
 14 16  2  0
 16 17  1  0
 16 18  1  0
 18 19  1  0
 18 20  2  0
 20  2  1  0
 10  5  1  0
 20 12  1  0
  3 21  1  0
  6 22  1  0
  7 23  1  0
  8 24  1  0
  9 25  1  0
 10 26  1  0
 13 27  1  0
 15 28  1  0
 17 29  1  0
 19 30  1  0
M  END
$$$$
