
     RDKit          3D

 56 60  0  0  0  0  0  0  0  0999 V2000
    5.3838    2.3438   -3.7764 C   0  0  0  0  0  0  0  0  0  0  0  0
    4.1313    1.7396   -3.5941 O   0  0  0  0  0  0  0  0  0  0  0  0
    3.1110    2.2916   -2.8346 C   0  0  0  0  0  0  0  0  0  0  0  0
    3.2402    3.4982   -2.1825 C   0  0  0  0  0  0  0  0  0  0  0  0
    2.1910    4.0129   -1.4322 C   0  0  0  0  0  0  0  0  0  0  0  0
    0.9854    3.3265   -1.3190 C   0  0  0  0  0  0  0  0  0  0  0  0
   -0.0768    3.8997   -0.5547 N   0  0  0  0  0  0  0  0  0  0  0  0
   -0.6613    3.4464    0.5280 N   0  0  0  0  0  0  0  0  0  0  0  0
   -1.6238    4.2852    0.9484 C   0  0  0  0  0  0  0  0  0  0  0  0
   -1.6421    5.3407    0.0630 C   0  0  0  0  0  0  0  0  0  0  0  0
   -0.6863    5.0654   -0.8338 N   0  0  0  0  0  0  0  0  0  0  0  0
    0.8717    2.1293   -1.9710 C   0  0  0  0  0  0  0  0  0  0  0  0
   -0.3592    1.3746   -1.8811 C   0  0  0  0  0  0  0  0  0  0  0  0
   -1.4063    1.8294   -2.4087 O   0  0  0  0  0  0  0  0  0  0  0  0
   -0.4064    0.1103   -1.2028 N   0  0  0  0  0  0  0  0  0  0  0  0
    0.7741   -0.4190   -0.5628 C   0  0  0  0  0  0  0  0  0  0  0  0
    0.9778   -1.8667   -1.0412 C   0  0  0  0  0  0  0  0  0  0  0  0
   -0.1728   -2.6071   -0.7701 O   0  0  0  0  0  0  0  0  0  0  0  0
   -1.2689   -2.1597   -1.4781 C   0  0  0  0  0  0  0  0  0  0  0  0
   -1.5941   -0.6845   -1.1854 C   0  0  1  0  0  0  0  0  0  0  0  0
   -2.5229   -0.5429   -0.0431 C   0  0  0  0  0  0  0  0  0  0  0  0
   -2.0236   -0.8502    1.2896 C   0  0  0  0  0  0  0  0  0  0  0  0
   -1.5450    0.1378    2.1106 C   0  0  0  0  0  0  0  0  0  0  0  0
   -1.0604   -0.1473    3.3920 C   0  0  0  0  0  0  0  0  0  0  0  0
   -1.0715   -1.4373    3.8162 C   0  0  0  0  0  0  0  0  0  0  0  0
   -1.5467   -2.4832    3.0237 C   0  0  0  0  0  0  0  0  0  0  0  0
   -1.5498   -3.8217    3.4827 N   0  0  0  0  0  0  0  0  0  0  0  0
   -2.5141   -4.3670    4.1942 N   0  0  0  0  0  0  0  0  0  0  0  0
   -2.2118   -5.6470    4.4685 C   0  0  0  0  0  0  0  0  0  0  0  0
   -0.9898   -5.8905    3.8871 C   0  0  0  0  0  0  0  0  0  0  0  0
   -0.6222   -4.7389    3.2923 N   0  0  0  0  0  0  0  0  0  0  0  0
   -2.0173   -2.1457    1.7591 C   0  0  0  0  0  0  0  0  0  0  0  0
    1.9249    1.6033   -2.7310 C   0  0  0  0  0  0  0  0  0  0  0  0
    1.7879    0.4091   -3.3942 F   0  0  0  0  0  0  0  0  0  0  0  0
    5.2208    3.4335   -3.9159 H   0  0  0  0  0  0  0  0  0  0  0  0
    5.9273    1.9089   -4.6625 H   0  0  0  0  0  0  0  0  0  0  0  0
    6.0723    2.2090   -2.9137 H   0  0  0  0  0  0  0  0  0  0  0  0
    4.1759    4.0268   -2.2724 H   0  0  0  0  0  0  0  0  0  0  0  0
    2.2949    4.9693   -0.9161 H   0  0  0  0  0  0  0  0  0  0  0  0
   -2.2796    4.1939    1.8053 H   0  0  0  0  0  0  0  0  0  0  0  0
   -2.2800    6.2267    0.0596 H   0  0  0  0  0  0  0  0  0  0  0  0
    1.6852    0.1433   -0.7687 H   0  0  0  0  0  0  0  0  0  0  0  0
    0.7016   -0.4989    0.5394 H   0  0  0  0  0  0  0  0  0  0  0  0
    1.8142   -2.3047   -0.4569 H   0  0  0  0  0  0  0  0  0  0  0  0
    1.2813   -1.9015   -2.1057 H   0  0  0  0  0  0  0  0  0  0  0  0
   -1.1308   -2.2925   -2.5910 H   0  0  0  0  0  0  0  0  0  0  0  0
   -2.1462   -2.7587   -1.2149 H   0  0  0  0  0  0  0  0  0  0  0  0
   -2.1928   -0.3761   -2.1075 H   0  0  0  0  0  0  0  0  0  0  0  0
   -3.3989   -1.2118   -0.2367 H   0  0  0  0  0  0  0  0  0  0  0  0
   -2.9578    0.4985   -0.1090 H   0  0  0  0  0  0  0  0  0  0  0  0
   -1.5068    1.1807    1.8416 H   0  0  0  0  0  0  0  0  0  0  0  0
   -0.6891    0.6173    4.0300 H   0  0  0  0  0  0  0  0  0  0  0  0
   -0.7100   -1.7398    4.8059 H   0  0  0  0  0  0  0  0  0  0  0  0
   -2.8311   -6.3398    5.0432 H   0  0  0  0  0  0  0  0  0  0  0  0
   -0.4705   -6.8379    3.9292 H   0  0  0  0  0  0  0  0  0  0  0  0
   -2.3861   -2.9885    1.1576 H   0  0  0  0  0  0  0  0  0  0  0  0
  1  2  1  0
  2  3  1  0
  3  4  2  0
  4  5  1  0
  5  6  2  0
  6  7  1  0
  7  8  1  0
  8  9  2  0
  9 10  1  0
 10 11  2  0
  6 12  1  0
 12 13  1  0
 13 14  2  0
 13 15  1  0
 15 16  1  0
 16 17  1  0
 17 18  1  0
 18 19  1  0
 19 20  1  0
 20 21  1  0
 21 22  1  0
 22 23  2  0
 23 24  1  0
 24 25  2  0
 25 26  1  0
 26 27  1  0
 27 28  1  0
 28 29  2  0
 29 30  1  0
 30 31  2  0
 26 32  2  0
 12 33  2  0
 33 34  1  0
 33  3  1  0
 11  7  1  0
 20 15  1  0
 32 22  1  0
 31 27  1  0
  1 35  1  0
  1 36  1  0
  1 37  1  0
  4 38  1  0
  5 39  1  0
  9 40  1  0
 10 41  1  0
 16 42  1  0
 16 43  1  0
 17 44  1  0
 17 45  1  0
 19 46  1  0
 19 47  1  0
 20 48  1  6
 21 49  1  0
 21 50  1  0
 23 51  1  0
 24 52  1  0
 25 53  1  0
 29 54  1  0
 30 55  1  0
 32 56  1  0
M  END
$$$$
