
     RDKit          3D

 52 54  0  0  0  0  0  0  0  0999 V2000
   -6.6587   -1.1487    0.1097 C   0  0  0  0  0  0  0  0  0  0  0  0
   -6.1936   -0.7400    1.4550 C   0  0  0  0  0  0  0  0  0  0  0  0
   -5.9733    0.7284    1.6355 C   0  0  0  0  0  0  0  0  0  0  0  0
   -4.9337    1.3313    0.7205 C   0  0  0  0  0  0  0  0  0  0  0  0
   -3.5843    0.7315    0.9058 C   0  0  0  0  0  0  0  0  0  0  0  0
   -2.5304    1.3165    0.0039 C   0  0  0  0  0  0  0  0  0  0  0  0
   -2.9248    1.0674   -1.4307 C   0  0  0  0  0  0  0  0  0  0  0  0
   -1.6319    1.7652   -2.5177 S   0  0  0  0  0  0  0  0  0  0  0  0
   -0.1319    0.8216   -2.1689 C   0  0  0  0  0  0  0  0  0  0  0  0
    0.1125   -0.3273   -2.8293 N   0  0  0  0  0  0  0  0  0  0  0  0
    1.2271   -1.0508   -2.6037 C   0  0  0  0  0  0  0  0  0  0  0  0
    1.5220   -2.5533   -3.4886 Cl  0  0  0  0  0  0  0  0  0  0  0  0
    2.1421   -0.5964   -1.6669 C   0  0  0  0  0  0  0  0  0  0  0  0
    1.8611    0.5934   -1.0016 C   0  0  0  0  0  0  0  0  0  0  0  0
    2.7624    1.1155   -0.0369 N   0  0  0  0  0  0  0  0  0  0  0  0
    3.8932    0.4020    0.3894 C   0  0  0  0  0  0  0  0  0  0  0  0
    3.7603   -0.8875    0.8471 C   0  0  0  0  0  0  0  0  0  0  0  0
    4.8338   -1.6413    1.2645 C   0  0  0  0  0  0  0  0  0  0  0  0
    6.0753   -1.0481    1.2076 C   0  0  0  0  0  0  0  0  0  0  0  0
    7.1786   -1.7232    1.5942 N   0  0  0  0  0  0  0  0  0  0  0  0
    8.4072   -1.1700    1.5448 C   0  0  0  0  0  0  0  0  0  0  0  0
    8.6072    0.1108    1.0986 C   0  0  0  0  0  0  0  0  0  0  0  0
    7.5207    0.8386    0.6948 C   0  0  0  0  0  0  0  0  0  0  0  0
    6.2789    0.2442    0.7581 C   0  0  0  0  0  0  0  0  0  0  0  0
    5.1413    0.9560    0.3481 C   0  0  0  0  0  0  0  0  0  0  0  0
    0.7317    1.2776   -1.2649 N   0  0  0  0  0  0  0  0  0  0  0  0
   -3.1778   -0.3469   -1.7167 C   0  0  0  0  0  0  0  0  0  0  0  0
   -4.3294   -0.7324   -2.1208 O   0  0  0  0  0  0  0  0  0  0  0  0
   -2.2401   -1.3538   -1.5822 O   0  0  0  0  0  0  0  0  0  0  0  0
   -6.0331   -1.9905   -0.2753 H   0  0  0  0  0  0  0  0  0  0  0  0
   -6.7817   -0.3231   -0.6202 H   0  0  0  0  0  0  0  0  0  0  0  0
   -7.6899   -1.6112    0.1762 H   0  0  0  0  0  0  0  0  0  0  0  0
   -5.2337   -1.2585    1.6818 H   0  0  0  0  0  0  0  0  0  0  0  0
   -6.9085   -1.1077    2.2184 H   0  0  0  0  0  0  0  0  0  0  0  0
   -6.9296    1.2486    1.4211 H   0  0  0  0  0  0  0  0  0  0  0  0
   -5.6961    0.9764    2.6782 H   0  0  0  0  0  0  0  0  0  0  0  0
   -5.2825    1.3069   -0.3445 H   0  0  0  0  0  0  0  0  0  0  0  0
   -4.8722    2.4068    0.9906 H   0  0  0  0  0  0  0  0  0  0  0  0
   -3.2389    0.7588    1.9619 H   0  0  0  0  0  0  0  0  0  0  0  0
   -3.6240   -0.3757    0.6626 H   0  0  0  0  0  0  0  0  0  0  0  0
   -1.5733    0.7514    0.1813 H   0  0  0  0  0  0  0  0  0  0  0  0
   -2.3749    2.3950    0.2054 H   0  0  0  0  0  0  0  0  0  0  0  0
   -3.8530    1.6510   -1.7044 H   0  0  0  0  0  0  0  0  0  0  0  0
    3.0422   -1.1306   -1.4548 H   0  0  0  0  0  0  0  0  0  0  0  0
    2.5803    2.0533    0.3638 H   0  0  0  0  0  0  0  0  0  0  0  0
    2.7782   -1.3831    0.9038 H   0  0  0  0  0  0  0  0  0  0  0  0
    4.7439   -2.6486    1.6227 H   0  0  0  0  0  0  0  0  0  0  0  0
    9.2468   -1.7543    1.8677 H   0  0  0  0  0  0  0  0  0  0  0  0
    9.5847    0.5608    1.0559 H   0  0  0  0  0  0  0  0  0  0  0  0
    7.6010    1.8573    0.3290 H   0  0  0  0  0  0  0  0  0  0  0  0
    5.3121    1.9619    0.0010 H   0  0  0  0  0  0  0  0  0  0  0  0
   -2.5435   -2.3253   -1.4670 H   0  0  0  0  0  0  0  0  0  0  0  0
  1  2  1  0
  2  3  1  0
  3  4  1  0
  4  5  1  0
  5  6  1  0
  6  7  1  0
  7  8  1  0
  8  9  1  0
  9 10  2  0
 10 11  1  0
 11 12  1  0
 11 13  2  0
 13 14  1  0
 14 15  1  0
 15 16  1  0
 16 17  2  0
 17 18  1  0
 18 19  2  0
 19 20  1  0
 20 21  2  0
 21 22  1  0
 22 23  2  0
 23 24  1  0
 24 25  2  0
 14 26  2  0
  7 27  1  0
 27 28  2  0
 27 29  1  0
 26  9  1  0
 25 16  1  0
 24 19  1  0
  1 30  1  0
  1 31  1  0
  1 32  1  0
  2 33  1  0
  2 34  1  0
  3 35  1  0
  3 36  1  0
  4 37  1  0
  4 38  1  0
  5 39  1  0
  5 40  1  0
  6 41  1  0
  6 42  1  0
  7 43  1  0
 13 44  1  0
 15 45  1  0
 17 46  1  0
 18 47  1  0
 21 48  1  0
 22 49  1  0
 23 50  1  0
 25 51  1  0
 29 52  1  0
M  END
$$$$
