
     RDKit          3D

 19 20  0  0  0  0  0  0  0  0999 V2000
   -3.3027    0.2798   -0.3072 N   0  0  0  0  0  0  0  0  0  0  0  0
   -1.9369   -0.0976   -0.1560 C   0  0  0  0  0  0  0  0  0  0  0  0
   -1.5482   -1.4131   -0.0025 C   0  0  0  0  0  0  0  0  0  0  0  0
   -0.2255   -1.7764    0.1438 C   0  0  0  0  0  0  0  0  0  0  0  0
    0.7778   -0.8319    0.1431 C   0  0  0  0  0  0  0  0  0  0  0  0
    2.0594   -1.2048    0.2868 N   0  0  0  0  0  0  0  0  0  0  0  0
    3.0366   -0.2589    0.2838 C   0  0  0  0  0  0  0  0  0  0  0  0
    2.7265    1.0761    0.1353 C   0  0  0  0  0  0  0  0  0  0  0  0
    1.4029    1.4313   -0.0103 C   0  0  0  0  0  0  0  0  0  0  0  0
    0.3934    0.4846   -0.0101 C   0  0  0  0  0  0  0  0  0  0  0  0
   -0.9272    0.8574   -0.1570 C   0  0  0  0  0  0  0  0  0  0  0  0
   -3.6751    1.1977    0.0175 H   0  0  0  0  0  0  0  0  0  0  0  0
   -3.9551   -0.3771   -0.7552 H   0  0  0  0  0  0  0  0  0  0  0  0
   -2.3246   -2.1872    0.0019 H   0  0  0  0  0  0  0  0  0  0  0  0
    0.0320   -2.8382    0.2628 H   0  0  0  0  0  0  0  0  0  0  0  0
    4.0854   -0.5154    0.3969 H   0  0  0  0  0  0  0  0  0  0  0  0
    3.4985    1.8201    0.1332 H   0  0  0  0  0  0  0  0  0  0  0  0
    1.1078    2.4584   -0.1294 H   0  0  0  0  0  0  0  0  0  0  0  0
   -1.2250    1.8953   -0.2773 H   0  0  0  0  0  0  0  0  0  0  0  0
  1  2  1  0
  2  3  2  0
  3  4  1  0
  4  5  2  0
  5  6  1  0
  6  7  2  0
  7  8  1  0
  8  9  2  0
  9 10  1  0
 10 11  2  0
 11  2  1  0
 10  5  1  0
  1 12  1  0
  1 13  1  0
  3 14  1  0
  4 15  1  0
  7 16  1  0
  8 17  1  0
  9 18  1  0
 11 19  1  0
M  END
$$$$
