
     RDKit          3D

 72 76  0  0  0  0  0  0  0  0999 V2000
    6.7104   -1.8845   -0.5430 C   0  0  0  0  0  0  0  0  0  0  0  0
    7.6883   -0.7837   -0.3608 C   0  0  0  0  0  0  0  0  0  0  0  0
    9.0291   -1.1362   -0.3440 C   0  0  0  0  0  0  0  0  0  0  0  0
    9.5024   -2.8294   -0.5459 Cl  0  0  0  0  0  0  0  0  0  0  0  0
    9.9884   -0.1642   -0.1698 C   0  0  0  0  0  0  0  0  0  0  0  0
    9.6866    1.1510   -0.0099 C   0  0  0  0  0  0  0  0  0  0  0  0
    8.3543    1.5042   -0.0265 C   0  0  0  0  0  0  0  0  0  0  0  0
    7.3563    0.5297   -0.2031 C   0  0  0  0  0  0  0  0  0  0  0  0
    6.0151    0.9464   -0.2190 N   0  0  0  0  0  0  0  0  0  0  0  0
    5.2214    0.8168   -1.4085 C   0  0  0  0  0  0  0  0  0  0  0  0
    3.7768    0.6665   -0.9850 C   0  0  0  0  0  0  0  0  0  0  0  0
    3.5627    0.1149    0.2884 N   0  0  0  0  0  0  0  0  0  0  0  0
    2.8915   -1.1256    0.3918 C   0  0  0  0  0  0  0  0  0  0  0  0
    1.4276   -0.9191   -0.0169 C   0  0  0  0  0  0  0  0  0  0  0  0
    0.8469    0.0911    0.9325 C   0  0  0  0  0  0  0  0  0  0  0  0
   -0.5283    0.3746    0.6655 N   0  0  0  0  0  0  0  0  0  0  0  0
   -1.5017   -0.6525    0.7239 C   0  0  0  0  0  0  0  0  0  0  0  0
   -1.1704   -1.8235    1.0086 O   0  0  0  0  0  0  0  0  0  0  0  0
   -2.8868   -0.3129    0.4471 C   0  0  0  0  0  0  0  0  0  0  0  0
   -3.4443    0.8557    0.1301 N   0  0  0  0  0  0  0  0  0  0  0  0
   -4.7787    0.7382   -0.0430 C   0  0  0  0  0  0  0  0  0  0  0  0
   -5.6885    1.8341   -0.3957 C   0  0  0  0  0  0  0  0  0  0  0  0
   -6.7447    2.2150    0.4050 C   0  0  0  0  0  0  0  0  0  0  0  0
   -7.5776    3.2681    0.0171 C   0  0  0  0  0  0  0  0  0  0  0  0
   -7.3457    3.9347   -1.1747 C   0  0  0  0  0  0  0  0  0  0  0  0
   -6.2979    3.5651   -1.9803 C   0  0  0  0  0  0  0  0  0  0  0  0
   -5.4989    2.5284   -1.5722 C   0  0  0  0  0  0  0  0  0  0  0  0
   -5.0710   -0.5525    0.1732 N   0  0  0  0  0  0  0  0  0  0  0  0
   -6.3533   -1.1545    0.1071 C   0  0  0  0  0  0  0  0  0  0  0  0
   -7.0917   -1.1824   -1.0612 C   0  0  0  0  0  0  0  0  0  0  0  0
   -8.3368   -1.7783   -1.0882 C   0  0  0  0  0  0  0  0  0  0  0  0
   -8.8965   -2.3679    0.0382 C   0  0  0  0  0  0  0  0  0  0  0  0
   -8.1471   -2.3317    1.1955 C   0  0  0  0  0  0  0  0  0  0  0  0
   -6.9019   -1.7428    1.2478 C   0  0  0  0  0  0  0  0  0  0  0  0
   -3.9485   -1.2246    0.4737 C   0  0  0  0  0  0  0  0  0  0  0  0
   -3.7776   -2.6792    0.7904 C   0  0  0  0  0  0  0  0  0  0  0  0
    4.3144    0.5734    1.3863 C   0  0  0  0  0  0  0  0  0  0  0  0
    5.4182    1.5199    0.9931 C   0  0  0  0  0  0  0  0  0  0  0  0
    7.1179   -2.7555    0.0311 H   0  0  0  0  0  0  0  0  0  0  0  0
    5.6978   -1.6165   -0.1797 H   0  0  0  0  0  0  0  0  0  0  0  0
    6.6156   -2.1668   -1.6050 H   0  0  0  0  0  0  0  0  0  0  0  0
   11.0359   -0.4612   -0.1591 H   0  0  0  0  0  0  0  0  0  0  0  0
   10.4182    1.9364    0.1292 H   0  0  0  0  0  0  0  0  0  0  0  0
    8.0365    2.5299    0.0941 H   0  0  0  0  0  0  0  0  0  0  0  0
    5.5130   -0.0809   -1.9791 H   0  0  0  0  0  0  0  0  0  0  0  0
    5.2961    1.7191   -2.0659 H   0  0  0  0  0  0  0  0  0  0  0  0
    3.2790    1.6761   -1.0629 H   0  0  0  0  0  0  0  0  0  0  0  0
    3.2399    0.0370   -1.7383 H   0  0  0  0  0  0  0  0  0  0  0  0
    3.3044   -1.8345   -0.3702 H   0  0  0  0  0  0  0  0  0  0  0  0
    2.9479   -1.5873    1.3981 H   0  0  0  0  0  0  0  0  0  0  0  0
    0.9038   -1.8746   -0.0288 H   0  0  0  0  0  0  0  0  0  0  0  0
    1.3781   -0.5058   -1.0430 H   0  0  0  0  0  0  0  0  0  0  0  0
    0.8822   -0.3163    1.9874 H   0  0  0  0  0  0  0  0  0  0  0  0
    1.4766    1.0067    0.9838 H   0  0  0  0  0  0  0  0  0  0  0  0
   -0.7951    1.3791    0.4228 H   0  0  0  0  0  0  0  0  0  0  0  0
   -6.9228    1.6947    1.3317 H   0  0  0  0  0  0  0  0  0  0  0  0
   -8.4025    3.5742    0.6306 H   0  0  0  0  0  0  0  0  0  0  0  0
   -7.9721    4.7565   -1.5066 H   0  0  0  0  0  0  0  0  0  0  0  0
   -6.1298    4.1043   -2.9197 H   0  0  0  0  0  0  0  0  0  0  0  0
   -4.6692    2.2249   -2.1959 H   0  0  0  0  0  0  0  0  0  0  0  0
   -6.6816   -0.7277   -1.9670 H   0  0  0  0  0  0  0  0  0  0  0  0
   -8.9437   -1.8193   -1.9839 H   0  0  0  0  0  0  0  0  0  0  0  0
   -9.8834   -2.8325   -0.0116 H   0  0  0  0  0  0  0  0  0  0  0  0
   -8.5405   -2.7788    2.1037 H   0  0  0  0  0  0  0  0  0  0  0  0
   -6.3486   -1.7429    2.1981 H   0  0  0  0  0  0  0  0  0  0  0  0
   -3.4334   -2.7826    1.8311 H   0  0  0  0  0  0  0  0  0  0  0  0
   -4.7377   -3.2054    0.6134 H   0  0  0  0  0  0  0  0  0  0  0  0
   -3.0132   -3.0481    0.0522 H   0  0  0  0  0  0  0  0  0  0  0  0
    3.6250    1.1558    2.0610 H   0  0  0  0  0  0  0  0  0  0  0  0
    4.7204   -0.3185    1.9300 H   0  0  0  0  0  0  0  0  0  0  0  0
    5.0396    2.5379    0.8267 H   0  0  0  0  0  0  0  0  0  0  0  0
    6.1433    1.5401    1.8201 H   0  0  0  0  0  0  0  0  0  0  0  0
  1  2  1  0
  2  3  2  0
  3  4  1  0
  3  5  1  0
  5  6  2  0
  6  7  1  0
  7  8  2  0
  8  9  1  0
  9 10  1  0
 10 11  1  0
 11 12  1  0
 12 13  1  0
 13 14  1  0
 14 15  1  0
 15 16  1  0
 16 17  1  0
 17 18  2  0
 17 19  1  0
 19 20  1  0
 20 21  2  0
 21 22  1  0
 22 23  2  0
 23 24  1  0
 24 25  2  0
 25 26  1  0
 26 27  2  0
 21 28  1  0
 28 29  1  0
 29 30  2  0
 30 31  1  0
 31 32  2  0
 32 33  1  0
 33 34  2  0
 28 35  1  0
 35 36  1  0
 12 37  1  0
 37 38  1  0
  8  2  1  0
 38  9  1  0
 35 19  2  0
 27 22  1  0
 34 29  1  0
  1 39  1  0
  1 40  1  0
  1 41  1  0
  5 42  1  0
  6 43  1  0
  7 44  1  0
 10 45  1  0
 10 46  1  0
 11 47  1  0
 11 48  1  0
 13 49  1  0
 13 50  1  0
 14 51  1  0
 14 52  1  0
 15 53  1  0
 15 54  1  0
 16 55  1  0
 23 56  1  0
 24 57  1  0
 25 58  1  0
 26 59  1  0
 27 60  1  0
 30 61  1  0
 31 62  1  0
 32 63  1  0
 33 64  1  0
 34 65  1  0
 36 66  1  0
 36 67  1  0
 36 68  1  0
 37 69  1  0
 37 70  1  0
 38 71  1  0
 38 72  1  0
M  END
$$$$
