
     RDKit          3D

258257  0  0  0  0  0  0  0  0999 V2000
   -1.6445    6.4279    1.9974 C   0  0  0  0  0  0  0  0  0  0  0  0
   -1.9030    6.7552    0.5470 C   0  0  0  0  0  0  0  0  0  0  0  0
   -1.0160    7.9094    0.0877 C   0  0  0  0  0  0  0  0  0  0  0  0
   -1.2805    8.2355   -1.3775 C   0  0  0  0  0  0  0  0  0  0  0  0
   -1.0070    7.0766   -2.2653 C   0  0  0  0  0  0  0  0  0  0  0  0
   -1.2945    7.4369   -3.7250 C   0  0  0  0  0  0  0  0  0  0  0  0
   -1.0084    6.2006   -4.5902 C   0  0  0  0  0  0  0  0  0  0  0  0
   -1.2997    6.3926   -6.0377 C   0  0  0  0  0  0  0  0  0  0  0  0
   -0.9693    5.1376   -6.8500 C   0  0  0  0  0  0  0  0  0  0  0  0
   -1.7246    3.9859   -6.3181 C   0  0  0  0  0  0  0  0  0  0  0  0
   -1.4978    2.6457   -7.0661 C   0  0  0  0  0  0  0  0  0  0  0  0
   -2.2981    1.5965   -6.3243 C   0  0  0  0  0  0  0  0  0  0  0  0
   -2.1435    0.2452   -6.9060 C   0  0  0  0  0  0  0  0  0  0  0  0
   -2.8972   -0.7718   -6.0217 C   0  0  0  0  0  0  0  0  0  0  0  0
   -4.3367   -0.4846   -5.9474 C   0  0  0  0  0  0  0  0  0  0  0  0
   -5.1314   -1.3538   -4.9576 C   0  0  0  0  0  0  0  0  0  0  0  0
   -4.5860   -1.1049   -3.5551 C   0  0  0  0  0  0  0  0  0  0  0  0
   -5.3294   -1.7731   -2.4869 C   0  0  0  0  0  0  0  0  0  0  0  0
   -6.2299   -2.5469   -2.0901 O   0  0  0  0  0  0  0  0  0  0  0  0
   -4.7684   -1.3243   -1.3361 O   0  0  0  0  0  0  0  0  0  0  0  0
   -5.1259   -1.6096    0.0030 C   0  0  0  0  0  0  0  0  0  0  0  0
   -4.2130   -0.8523    0.9313 C   0  0  2  0  0  0  0  0  0  0  0  0
   -3.9888    0.5489    0.2038 C   0  0  0  0  0  0  0  0  0  0  0  0
   -3.0190    1.2159    0.8983 O   0  0  0  0  0  0  0  0  0  0  0  0
   -1.7544    1.7497   -0.1006 P   0  0  1  0  0  5  0  0  0  0  0  0
   -2.3090    2.4192   -1.5423 O   0  0  0  0  0  0  0  0  0  0  0  0
   -1.0190    2.8340    0.6564 O   0  0  0  0  0  0  0  0  0  0  0  0
   -0.6587    0.5155   -0.4390 O   0  0  0  0  0  0  0  0  0  0  0  0
   -0.7267    0.0264   -1.7227 C   0  0  0  0  0  0  0  0  0  0  0  0
    0.0674   -1.2438   -1.8676 C   0  0  0  0  0  0  0  0  0  0  0  0
    1.3857   -1.0093   -1.5583 O   0  0  0  0  0  0  0  0  0  0  0  0
   -0.4347   -2.3553   -0.9610 C   0  0  0  0  0  0  0  0  0  0  0  0
    0.2863   -3.5192   -1.1841 O   0  0  0  0  0  0  0  0  0  0  0  0
   -0.1737   -4.8082   -0.2105 P   0  0  2  0  0  5  0  0  0  0  0  0
   -0.9509   -5.9281   -1.2475 O   0  0  0  0  0  0  0  0  0  0  0  0
   -1.1237   -4.3604    0.8521 O   0  0  0  0  0  0  0  0  0  0  0  0
    1.2039   -5.5538    0.4809 O   0  0  0  0  0  0  0  0  0  0  0  0
    1.2611   -5.2165    1.8223 C   0  0  0  0  0  0  0  0  0  0  0  0
    2.5606   -5.7274    2.4612 C   0  0  1  0  0  0  0  0  0  0  0  0
    2.5961   -7.2392    2.2979 C   0  0  0  0  0  0  0  0  0  0  0  0
    2.5399   -7.5734    0.9151 O   0  0  0  0  0  0  0  0  0  0  0  0
    2.6154   -8.8977    0.5353 C   0  0  0  0  0  0  0  0  0  0  0  0
    2.7385   -9.6895    1.5202 O   0  0  0  0  0  0  0  0  0  0  0  0
    2.5562   -9.2936   -0.8711 C   0  0  0  0  0  0  0  0  0  0  0  0
    3.8949   -9.1059   -1.5302 C   0  0  0  0  0  0  0  0  0  0  0  0
    3.8457   -9.5234   -2.9792 C   0  0  0  0  0  0  0  0  0  0  0  0
    2.8623   -8.7700   -3.7991 C   0  0  0  0  0  0  0  0  0  0  0  0
    3.2261   -7.2872   -3.7941 C   0  0  0  0  0  0  0  0  0  0  0  0
    2.1722   -6.5987   -4.6154 C   0  0  0  0  0  0  0  0  0  0  0  0
    2.4527   -5.0964   -4.7173 C   0  0  0  0  0  0  0  0  0  0  0  0
    3.7528   -4.7844   -5.3688 C   0  0  0  0  0  0  0  0  0  0  0  0
    4.0070   -3.2696   -5.5576 C   0  0  0  0  0  0  0  0  0  0  0  0
    4.0062   -2.5989   -4.2535 C   0  0  0  0  0  0  0  0  0  0  0  0
    4.1534   -1.1492   -4.1406 C   0  0  0  0  0  0  0  0  0  0  0  0
    5.1848   -0.2440   -4.4954 C   0  0  0  0  0  0  0  0  0  0  0  0
    5.7364    0.1712   -5.7974 C   0  0  0  0  0  0  0  0  0  0  0  0
    6.3195   -0.8748   -6.6410 C   0  0  0  0  0  0  0  0  0  0  0  0
    7.0647   -0.4237   -7.8470 C   0  0  0  0  0  0  0  0  0  0  0  0
    6.3184    0.2923   -8.9020 C   0  0  0  0  0  0  0  0  0  0  0  0
    5.6981    1.6055   -8.5792 C   0  0  0  0  0  0  0  0  0  0  0  0
    3.6827   -5.1422    1.8245 O   0  0  0  0  0  0  0  0  0  0  0  0
    4.5746   -4.3354    2.4849 C   0  0  0  0  0  0  0  0  0  0  0  0
    4.5431   -3.9897    3.7122 O   0  0  0  0  0  0  0  0  0  0  0  0
    5.5688   -3.9731    1.4321 C   0  0  0  0  0  0  0  0  0  0  0  0
    4.9158   -3.2646    0.2767 C   0  0  0  0  0  0  0  0  0  0  0  0
    4.2458   -1.9883    0.6809 C   0  0  0  0  0  0  0  0  0  0  0  0
    5.1877   -0.9615    1.2430 C   0  0  0  0  0  0  0  0  0  0  0  0
    4.3817    0.2690    1.6233 C   0  0  0  0  0  0  0  0  0  0  0  0
    5.2762    1.3626    2.1558 C   0  0  0  0  0  0  0  0  0  0  0  0
    4.4711    2.5826    2.5490 C   0  0  0  0  0  0  0  0  0  0  0  0
    5.3762    3.7281    3.0357 C   0  0  0  0  0  0  0  0  0  0  0  0
    4.4526    4.8409    3.3979 C   0  0  0  0  0  0  0  0  0  0  0  0
    5.1445    6.1075    3.8640 C   0  0  0  0  0  0  0  0  0  0  0  0
    6.0381    6.6222    2.7232 C   0  0  0  0  0  0  0  0  0  0  0  0
    6.7455    7.8781    3.0625 C   0  0  0  0  0  0  0  0  0  0  0  0
    7.6459    8.4702    2.0285 C   0  0  0  0  0  0  0  0  0  0  0  0
    7.0823    8.9467    0.7669 C   0  0  0  0  0  0  0  0  0  0  0  0
    6.3298    8.0944   -0.1512 C   0  0  0  0  0  0  0  0  0  0  0  0
    6.9668    6.8666   -0.6830 C   0  0  0  0  0  0  0  0  0  0  0  0
    5.9332    6.1786   -1.5834 C   0  0  0  0  0  0  0  0  0  0  0  0
   -2.8975   -1.4372    0.9305 O   0  0  0  0  0  0  0  0  0  0  0  0
   -2.3111   -1.6718    2.2006 C   0  0  0  0  0  0  0  0  0  0  0  0
   -3.1145   -1.3075    3.0810 O   0  0  0  0  0  0  0  0  0  0  0  0
   -1.4702   -2.0146    3.4431 C   0  0  0  0  0  0  0  0  0  0  0  0
   -2.2671   -1.6438    4.6321 C   0  0  0  0  0  0  0  0  0  0  0  0
   -1.5204   -1.8750    5.9320 C   0  0  0  0  0  0  0  0  0  0  0  0
   -2.4833   -1.3992    7.0359 C   0  0  0  0  0  0  0  0  0  0  0  0
   -1.8706   -1.5166    8.3767 C   0  0  0  0  0  0  0  0  0  0  0  0
   -2.8859   -0.9368    9.3616 C   0  0  0  0  0  0  0  0  0  0  0  0
   -4.1967   -1.6440    9.3777 C   0  0  0  0  0  0  0  0  0  0  0  0
   -5.1114   -0.8486   10.3223 C   0  0  0  0  0  0  0  0  0  0  0  0
   -6.4792   -1.4983   10.4360 C   0  0  0  0  0  0  0  0  0  0  0  0
   -7.1535   -1.7108    9.1147 C   0  0  0  0  0  0  0  0  0  0  0  0
   -8.5413   -2.3418    9.2815 C   0  0  0  0  0  0  0  0  0  0  0  0
   -9.0546   -2.6161    7.9148 C   0  0  0  0  0  0  0  0  0  0  0  0
   -9.2040   -1.5361    6.9332 C   0  0  0  0  0  0  0  0  0  0  0  0
  -10.1615   -0.4347    7.0839 C   0  0  0  0  0  0  0  0  0  0  0  0
  -10.0676    0.4829    8.2478 C   0  0  0  0  0  0  0  0  0  0  0  0
  -11.1360    1.6041    8.1185 C   0  0  0  0  0  0  0  0  0  0  0  0
  -12.5142    0.9933    8.0702 C   0  0  0  0  0  0  0  0  0  0  0  0
   -0.6873    5.9016    2.1477 H   0  0  0  0  0  0  0  0  0  0  0  0
   -2.4831    5.7529    2.3266 H   0  0  0  0  0  0  0  0  0  0  0  0
   -1.6895    7.3024    2.6691 H   0  0  0  0  0  0  0  0  0  0  0  0
   -1.6923    5.8248   -0.0314 H   0  0  0  0  0  0  0  0  0  0  0  0
   -2.9615    7.0741    0.4626 H   0  0  0  0  0  0  0  0  0  0  0  0
   -1.3419    8.8004    0.6504 H   0  0  0  0  0  0  0  0  0  0  0  0
    0.0345    7.7282    0.2896 H   0  0  0  0  0  0  0  0  0  0  0  0
   -2.3095    8.5912   -1.4730 H   0  0  0  0  0  0  0  0  0  0  0  0
   -0.5821    9.0910   -1.6070 H   0  0  0  0  0  0  0  0  0  0  0  0
   -0.0076    6.6464   -2.1233 H   0  0  0  0  0  0  0  0  0  0  0  0
   -1.7418    6.2637   -1.9775 H   0  0  0  0  0  0  0  0  0  0  0  0
   -2.3582    7.6765   -3.8447 H   0  0  0  0  0  0  0  0  0  0  0  0
   -0.6724    8.2784   -4.0359 H   0  0  0  0  0  0  0  0  0  0  0  0
    0.0262    5.8930   -4.3725 H   0  0  0  0  0  0  0  0  0  0  0  0
   -1.6492    5.3649   -4.2154 H   0  0  0  0  0  0  0  0  0  0  0  0
   -0.6577    7.2346   -6.4005 H   0  0  0  0  0  0  0  0  0  0  0  0
   -2.3469    6.7088   -6.1847 H   0  0  0  0  0  0  0  0  0  0  0  0
    0.1467    4.9926   -6.8177 H   0  0  0  0  0  0  0  0  0  0  0  0
   -1.2293    5.3260   -7.8912 H   0  0  0  0  0  0  0  0  0  0  0  0
   -2.8045    4.2183   -6.3033 H   0  0  0  0  0  0  0  0  0  0  0  0
   -1.3586    3.7827   -5.2614 H   0  0  0  0  0  0  0  0  0  0  0  0
   -0.4114    2.4532   -7.0378 H   0  0  0  0  0  0  0  0  0  0  0  0
   -1.8101    2.8297   -8.0915 H   0  0  0  0  0  0  0  0  0  0  0  0
   -1.9898    1.6810   -5.2638 H   0  0  0  0  0  0  0  0  0  0  0  0
   -3.3733    1.9144   -6.4628 H   0  0  0  0  0  0  0  0  0  0  0  0
   -1.0817   -0.0509   -6.8895 H   0  0  0  0  0  0  0  0  0  0  0  0
   -2.4902    0.2101   -7.9400 H   0  0  0  0  0  0  0  0  0  0  0  0
   -2.3447   -0.8634   -5.0748 H   0  0  0  0  0  0  0  0  0  0  0  0
   -2.7631   -1.7517   -6.5615 H   0  0  0  0  0  0  0  0  0  0  0  0
   -4.8577   -0.6816   -6.9297 H   0  0  0  0  0  0  0  0  0  0  0  0
   -4.6214    0.5586   -5.7023 H   0  0  0  0  0  0  0  0  0  0  0  0
   -6.1860   -1.0375   -5.0137 H   0  0  0  0  0  0  0  0  0  0  0  0
   -4.9917   -2.4060   -5.2450 H   0  0  0  0  0  0  0  0  0  0  0  0
   -3.4940   -1.3808   -3.5332 H   0  0  0  0  0  0  0  0  0  0  0  0
   -4.6253   -0.0115   -3.4214 H   0  0  0  0  0  0  0  0  0  0  0  0
   -5.1020   -2.6974    0.1887 H   0  0  0  0  0  0  0  0  0  0  0  0
   -6.1856   -1.2897    0.1482 H   0  0  0  0  0  0  0  0  0  0  0  0
   -4.6054   -0.7035    1.8843 H   0  0  0  0  0  0  0  0  0  0  0  0
   -3.8252    0.3818   -0.8630 H   0  0  0  0  0  0  0  0  0  0  0  0
   -4.9587    1.0611    0.3408 H   0  0  0  0  0  0  0  0  0  0  0  0
   -1.6197    2.8700   -2.0487 H   0  0  0  0  0  0  0  0  0  0  0  0
   -0.3404    0.8214   -2.4110 H   0  0  0  0  0  0  0  0  0  0  0  0
   -1.7777   -0.1941   -2.0163 H   0  0  0  0  0  0  0  0  0  0  0  0
   -0.0181   -1.6179   -2.9217 H   0  0  0  0  0  0  0  0  0  0  0  0
    1.7775   -0.2051   -1.9777 H   0  0  0  0  0  0  0  0  0  0  0  0
   -0.3132   -2.0876    0.1160 H   0  0  0  0  0  0  0  0  0  0  0  0
   -1.5099   -2.5401   -1.1623 H   0  0  0  0  0  0  0  0  0  0  0  0
   -1.7292   -6.2938   -0.7256 H   0  0  0  0  0  0  0  0  0  0  0  0
    1.2267   -4.1177    1.9853 H   0  0  0  0  0  0  0  0  0  0  0  0
    0.4228   -5.6419    2.4109 H   0  0  0  0  0  0  0  0  0  0  0  0
    2.5201   -5.4881    3.5219 H   0  0  0  0  0  0  0  0  0  0  0  0
    3.4888   -7.6571    2.7754 H   0  0  0  0  0  0  0  0  0  0  0  0
    1.6855   -7.6183    2.7980 H   0  0  0  0  0  0  0  0  0  0  0  0
    2.3732  -10.4075   -0.8735 H   0  0  0  0  0  0  0  0  0  0  0  0
    1.7069   -8.8356   -1.4307 H   0  0  0  0  0  0  0  0  0  0  0  0
    4.6112   -9.7795   -1.0150 H   0  0  0  0  0  0  0  0  0  0  0  0
    4.2024   -8.0663   -1.3624 H   0  0  0  0  0  0  0  0  0  0  0  0
    4.8632   -9.3176   -3.3945 H   0  0  0  0  0  0  0  0  0  0  0  0
    3.6515  -10.6306   -2.9775 H   0  0  0  0  0  0  0  0  0  0  0  0
    2.9217   -9.1048   -4.8675 H   0  0  0  0  0  0  0  0  0  0  0  0
    1.8122   -8.8438   -3.4748 H   0  0  0  0  0  0  0  0  0  0  0  0
    3.1694   -6.9427   -2.7558 H   0  0  0  0  0  0  0  0  0  0  0  0
    4.2124   -7.1335   -4.2579 H   0  0  0  0  0  0  0  0  0  0  0  0
    2.0860   -6.9944   -5.6383 H   0  0  0  0  0  0  0  0  0  0  0  0
    1.1725   -6.7081   -4.1168 H   0  0  0  0  0  0  0  0  0  0  0  0
    2.4569   -4.7270   -3.6523 H   0  0  0  0  0  0  0  0  0  0  0  0
    1.6266   -4.6496   -5.2982 H   0  0  0  0  0  0  0  0  0  0  0  0
    4.5812   -5.2032   -4.7324 H   0  0  0  0  0  0  0  0  0  0  0  0
    3.8289   -5.1917   -6.4047 H   0  0  0  0  0  0  0  0  0  0  0  0
    5.0673   -3.2321   -5.9996 H   0  0  0  0  0  0  0  0  0  0  0  0
    3.3548   -2.8370   -6.3153 H   0  0  0  0  0  0  0  0  0  0  0  0
    3.0502   -2.9354   -3.7211 H   0  0  0  0  0  0  0  0  0  0  0  0
    4.7923   -3.0604   -3.5540 H   0  0  0  0  0  0  0  0  0  0  0  0
    3.9963   -0.9700   -2.9726 H   0  0  0  0  0  0  0  0  0  0  0  0
    3.1375   -0.6651   -4.5394 H   0  0  0  0  0  0  0  0  0  0  0  0
    6.1201   -0.4981   -3.7969 H   0  0  0  0  0  0  0  0  0  0  0  0
    4.9712    0.8065   -3.9802 H   0  0  0  0  0  0  0  0  0  0  0  0
    4.9284    0.7432   -6.3674 H   0  0  0  0  0  0  0  0  0  0  0  0
    6.5150    1.0013   -5.6559 H   0  0  0  0  0  0  0  0  0  0  0  0
    5.4089   -1.4127   -7.1486 H   0  0  0  0  0  0  0  0  0  0  0  0
    6.8423   -1.6808   -6.1136 H   0  0  0  0  0  0  0  0  0  0  0  0
    7.9127    0.2280   -7.4663 H   0  0  0  0  0  0  0  0  0  0  0  0
    7.6324   -1.3147   -8.2642 H   0  0  0  0  0  0  0  0  0  0  0  0
    6.9716    0.4345   -9.8308 H   0  0  0  0  0  0  0  0  0  0  0  0
    5.4725   -0.3594   -9.2991 H   0  0  0  0  0  0  0  0  0  0  0  0
    5.8615    2.3513   -9.4394 H   0  0  0  0  0  0  0  0  0  0  0  0
    4.6040    1.5745   -8.4556 H   0  0  0  0  0  0  0  0  0  0  0  0
    6.2030    2.1072   -7.7393 H   0  0  0  0  0  0  0  0  0  0  0  0
    6.2730   -3.2626    1.9057 H   0  0  0  0  0  0  0  0  0  0  0  0
    6.1372   -4.8573    1.0880 H   0  0  0  0  0  0  0  0  0  0  0  0
    4.2286   -3.9645   -0.2380 H   0  0  0  0  0  0  0  0  0  0  0  0
    5.7494   -2.9938   -0.4328 H   0  0  0  0  0  0  0  0  0  0  0  0
    3.4461   -2.2537    1.4168 H   0  0  0  0  0  0  0  0  0  0  0  0
    3.7059   -1.6034   -0.2214 H   0  0  0  0  0  0  0  0  0  0  0  0
    5.5909   -1.3566    2.2004 H   0  0  0  0  0  0  0  0  0  0  0  0
    5.9592   -0.7064    0.5197 H   0  0  0  0  0  0  0  0  0  0  0  0
    3.7674    0.6282    0.7819 H   0  0  0  0  0  0  0  0  0  0  0  0
    3.6655   -0.0287    2.4358 H   0  0  0  0  0  0  0  0  0  0  0  0
    6.0602    1.5877    1.4386 H   0  0  0  0  0  0  0  0  0  0  0  0
    5.7234    0.9962    3.1253 H   0  0  0  0  0  0  0  0  0  0  0  0
    3.9271    2.8987    1.6371 H   0  0  0  0  0  0  0  0  0  0  0  0
    3.7358    2.3749    3.3288 H   0  0  0  0  0  0  0  0  0  0  0  0
    5.9933    3.3954    3.8909 H   0  0  0  0  0  0  0  0  0  0  0  0
    6.0557    3.9400    2.1899 H   0  0  0  0  0  0  0  0  0  0  0  0
    3.8306    4.5155    4.2615 H   0  0  0  0  0  0  0  0  0  0  0  0
    3.7368    5.0246    2.5709 H   0  0  0  0  0  0  0  0  0  0  0  0
    5.6925    5.9250    4.7853 H   0  0  0  0  0  0  0  0  0  0  0  0
    4.3668    6.8663    4.0206 H   0  0  0  0  0  0  0  0  0  0  0  0
    5.4301    6.5704    1.8468 H   0  0  0  0  0  0  0  0  0  0  0  0
    6.8527    5.8338    2.6112 H   0  0  0  0  0  0  0  0  0  0  0  0
    7.3423    7.7869    4.0207 H   0  0  0  0  0  0  0  0  0  0  0  0
    5.9747    8.6736    3.3552 H   0  0  0  0  0  0  0  0  0  0  0  0
    8.0805    9.4020    2.5459 H   0  0  0  0  0  0  0  0  0  0  0  0
    8.5843    7.8525    1.9048 H   0  0  0  0  0  0  0  0  0  0  0  0
    6.4415    9.8655    1.0268 H   0  0  0  0  0  0  0  0  0  0  0  0
    7.8923    9.4612    0.1356 H   0  0  0  0  0  0  0  0  0  0  0  0
    6.1446    8.7200   -1.1399 H   0  0  0  0  0  0  0  0  0  0  0  0
    5.2819    7.9068    0.1327 H   0  0  0  0  0  0  0  0  0  0  0  0
    7.7835    7.1573   -1.3959 H   0  0  0  0  0  0  0  0  0  0  0  0
    7.3017    6.1302    0.0388 H   0  0  0  0  0  0  0  0  0  0  0  0
    6.3763    5.8233   -2.5323 H   0  0  0  0  0  0  0  0  0  0  0  0
    5.5685    5.2606   -1.0539 H   0  0  0  0  0  0  0  0  0  0  0  0
    5.0387    6.8222   -1.7365 H   0  0  0  0  0  0  0  0  0  0  0  0
   -0.5718   -1.3980    3.3664 H   0  0  0  0  0  0  0  0  0  0  0  0
   -1.2443   -3.0863    3.3856 H   0  0  0  0  0  0  0  0  0  0  0  0
   -2.4555   -0.5269    4.6106 H   0  0  0  0  0  0  0  0  0  0  0  0
   -3.2587   -2.1755    4.6725 H   0  0  0  0  0  0  0  0  0  0  0  0
   -1.3187   -2.9423    6.1366 H   0  0  0  0  0  0  0  0  0  0  0  0
   -0.5564   -1.3410    5.9692 H   0  0  0  0  0  0  0  0  0  0  0  0
   -3.3649   -2.1236    7.0292 H   0  0  0  0  0  0  0  0  0  0  0  0
   -2.8440   -0.4199    6.7586 H   0  0  0  0  0  0  0  0  0  0  0  0
   -0.9415   -0.8783    8.4590 H   0  0  0  0  0  0  0  0  0  0  0  0
   -1.5587   -2.5391    8.6309 H   0  0  0  0  0  0  0  0  0  0  0  0
   -2.3605   -0.9918   10.3550 H   0  0  0  0  0  0  0  0  0  0  0  0
   -2.9593    0.1467    9.1267 H   0  0  0  0  0  0  0  0  0  0  0  0
   -4.6853   -1.7634    8.3902 H   0  0  0  0  0  0  0  0  0  0  0  0
   -4.0519   -2.6654    9.7936 H   0  0  0  0  0  0  0  0  0  0  0  0
   -4.6182   -0.8485   11.3070 H   0  0  0  0  0  0  0  0  0  0  0  0
   -5.2016    0.2034    9.9762 H   0  0  0  0  0  0  0  0  0  0  0  0
   -6.3317   -2.4447   10.9935 H   0  0  0  0  0  0  0  0  0  0  0  0
   -7.0869   -0.7852   11.0686 H   0  0  0  0  0  0  0  0  0  0  0  0
   -7.3457   -0.7466    8.5834 H   0  0  0  0  0  0  0  0  0  0  0  0
   -6.5782   -2.4417    8.5235 H   0  0  0  0  0  0  0  0  0  0  0  0
   -8.3778   -3.3698    9.7562 H   0  0  0  0  0  0  0  0  0  0  0  0
   -9.1732   -1.7691    9.9487 H   0  0  0  0  0  0  0  0  0  0  0  0
   -8.3076   -3.3606    7.4710 H   0  0  0  0  0  0  0  0  0  0  0  0
  -10.0036   -3.2580    7.9661 H   0  0  0  0  0  0  0  0  0  0  0  0
   -9.3250   -1.9900    5.8694 H   0  0  0  0  0  0  0  0  0  0  0  0
   -8.1601   -1.0350    6.7588 H   0  0  0  0  0  0  0  0  0  0  0  0
  -11.2090   -0.9131    7.0518 H   0  0  0  0  0  0  0  0  0  0  0  0
  -10.1893    0.1705    6.0985 H   0  0  0  0  0  0  0  0  0  0  0  0
   -9.0706    0.9571    8.3161 H   0  0  0  0  0  0  0  0  0  0  0  0
  -10.3068   -0.0527    9.1856 H   0  0  0  0  0  0  0  0  0  0  0  0
  -11.0424    2.2213    9.0077 H   0  0  0  0  0  0  0  0  0  0  0  0
  -10.9190    2.2034    7.2171 H   0  0  0  0  0  0  0  0  0  0  0  0
  -12.5892    0.1408    8.7883 H   0  0  0  0  0  0  0  0  0  0  0  0
  -12.7464    0.6200    7.0276 H   0  0  0  0  0  0  0  0  0  0  0  0
  -13.2929    1.7461    8.2941 H   0  0  0  0  0  0  0  0  0  0  0  0
  1  2  1  0
  2  3  1  0
  3  4  1  0
  4  5  1  0
  5  6  1  0
  6  7  1  0
  7  8  1  0
  8  9  1  0
  9 10  1  0
 10 11  1  0
 11 12  1  0
 12 13  1  0
 13 14  1  0
 14 15  1  0
 15 16  1  0
 16 17  1  0
 17 18  1  0
 18 19  2  0
 18 20  1  0
 20 21  1  0
 21 22  1  0
 22 23  1  0
 23 24  1  0
 25 24  1  1
 25 26  1  0
 25 27  2  0
 25 28  1  0
 28 29  1  0
 29 30  1  0
 30 31  1  0
 30 32  1  0
 32 33  1  0
 34 33  1  6
 34 35  1  0
 34 36  2  0
 34 37  1  0
 37 38  1  0
 38 39  1  0
 39 40  1  0
 40 41  1  0
 41 42  1  0
 42 43  2  0
 42 44  1  0
 44 45  1  0
 45 46  1  0
 46 47  1  0
 47 48  1  0
 48 49  1  0
 49 50  1  0
 50 51  1  0
 51 52  1  0
 52 53  1  0
 53 54  1  0
 54 55  1  0
 55 56  1  0
 56 57  1  0
 57 58  1  0
 58 59  1  0
 59 60  1  0
 39 61  1  0
 61 62  1  0
 62 63  2  0
 62 64  1  0
 64 65  1  0
 65 66  1  0
 66 67  1  0
 67 68  1  0
 68 69  1  0
 69 70  1  0
 70 71  1  0
 71 72  1  0
 72 73  1  0
 73 74  1  0
 74 75  1  0
 75 76  1  0
 76 77  1  0
 77 78  1  0
 78 79  1  0
 79 80  1  0
 22 81  1  0
 81 82  1  0
 82 83  2  0
 82 84  1  0
 84 85  1  0
 85 86  1  0
 86 87  1  0
 87 88  1  0
 88 89  1  0
 89 90  1  0
 90 91  1  0
 91 92  1  0
 92 93  1  0
 93 94  1  0
 94 95  1  0
 95 96  1  0
 96 97  1  0
 97 98  1  0
 98 99  1  0
 99100  1  0
  1101  1  0
  1102  1  0
  1103  1  0
  2104  1  0
  2105  1  0
  3106  1  0
  3107  1  0
  4108  1  0
  4109  1  0
  5110  1  0
  5111  1  0
  6112  1  0
  6113  1  0
  7114  1  0
  7115  1  0
  8116  1  0
  8117  1  0
  9118  1  0
  9119  1  0
 10120  1  0
 10121  1  0
 11122  1  0
 11123  1  0
 12124  1  0
 12125  1  0
 13126  1  0
 13127  1  0
 14128  1  0
 14129  1  0
 15130  1  0
 15131  1  0
 16132  1  0
 16133  1  0
 17134  1  0
 17135  1  0
 21136  1  0
 21137  1  0
 22138  1  1
 23139  1  0
 23140  1  0
 26141  1  0
 29142  1  0
 29143  1  0
 30144  1  0
 31145  1  0
 32146  1  0
 32147  1  0
 35148  1  0
 38149  1  0
 38150  1  0
 39151  1  1
 40152  1  0
 40153  1  0
 44154  1  0
 44155  1  0
 45156  1  0
 45157  1  0
 46158  1  0
 46159  1  0
 47160  1  0
 47161  1  0
 48162  1  0
 48163  1  0
 49164  1  0
 49165  1  0
 50166  1  0
 50167  1  0
 51168  1  0
 51169  1  0
 52170  1  0
 52171  1  0
 53172  1  0
 53173  1  0
 54174  1  0
 54175  1  0
 55176  1  0
 55177  1  0
 56178  1  0
 56179  1  0
 57180  1  0
 57181  1  0
 58182  1  0
 58183  1  0
 59184  1  0
 59185  1  0
 60186  1  0
 60187  1  0
 60188  1  0
 64189  1  0
 64190  1  0
 65191  1  0
 65192  1  0
 66193  1  0
 66194  1  0
 67195  1  0
 67196  1  0
 68197  1  0
 68198  1  0
 69199  1  0
 69200  1  0
 70201  1  0
 70202  1  0
 71203  1  0
 71204  1  0
 72205  1  0
 72206  1  0
 73207  1  0
 73208  1  0
 74209  1  0
 74210  1  0
 75211  1  0
 75212  1  0
 76213  1  0
 76214  1  0
 77215  1  0
 77216  1  0
 78217  1  0
 78218  1  0
 79219  1  0
 79220  1  0
 80221  1  0
 80222  1  0
 80223  1  0
 84224  1  0
 84225  1  0
 85226  1  0
 85227  1  0
 86228  1  0
 86229  1  0
 87230  1  0
 87231  1  0
 88232  1  0
 88233  1  0
 89234  1  0
 89235  1  0
 90236  1  0
 90237  1  0
 91238  1  0
 91239  1  0
 92240  1  0
 92241  1  0
 93242  1  0
 93243  1  0
 94244  1  0
 94245  1  0
 95246  1  0
 95247  1  0
 96248  1  0
 96249  1  0
 97250  1  0
 97251  1  0
 98252  1  0
 98253  1  0
 99254  1  0
 99255  1  0
100256  1  0
100257  1  0
100258  1  0
M  END
$$$$
