
     RDKit          3D

 66 66  0  0  0  0  0  0  0  0999 V2000
    5.9043   -2.9471   -1.9681 C   0  0  0  0  0  0  0  0  0  0  0  0
    5.1176   -1.9419   -1.1458 C   0  0  0  0  0  0  0  0  0  0  0  0
    5.7048   -1.1131   -0.4397 O   0  0  0  0  0  0  0  0  0  0  0  0
    3.7058   -1.9491   -1.1904 N   0  0  0  0  0  0  0  0  0  0  0  0
    2.8549   -1.0482   -0.4904 C   0  0  1  0  0  0  0  0  0  0  0  0
    2.2682    0.0032   -1.3940 C   0  0  0  0  0  0  0  0  0  0  0  0
    3.3267    0.8314   -2.0017 C   0  0  0  0  0  0  0  0  0  0  0  0
    3.8192    2.0155   -1.4335 C   0  0  0  0  0  0  0  0  0  0  0  0
    4.7986    2.7483   -1.9966 C   0  0  0  0  0  0  0  0  0  0  0  0
    5.3855    2.3672   -3.1876 C   0  0  0  0  0  0  0  0  0  0  0  0
    4.9183    1.1923   -3.7795 C   0  0  0  0  0  0  0  0  0  0  0  0
    3.9266    0.4758   -3.1819 C   0  0  0  0  0  0  0  0  0  0  0  0
    1.9547   -1.6068    0.5271 C   0  0  0  0  0  0  0  0  0  0  0  0
    2.0076   -2.8564    0.6818 O   0  0  0  0  0  0  0  0  0  0  0  0
    1.0971   -0.7902    1.2798 N   0  0  0  0  0  0  0  0  0  0  0  0
    0.2147   -1.2436    2.2951 C   0  0  2  0  0  0  0  0  0  0  0  0
   -1.1958   -0.8393    2.0186 C   0  0  0  0  0  0  0  0  0  0  0  0
   -2.0065   -0.6339    2.9926 O   0  0  0  0  0  0  0  0  0  0  0  0
   -1.7158   -0.6705    0.7416 N   0  0  0  0  0  0  0  0  0  0  0  0
   -3.0751   -0.2403    0.3874 C   0  0  2  0  0  0  0  0  0  0  0  0
   -4.0383   -1.0019    1.2691 C   0  0  0  0  0  0  0  0  0  0  0  0
   -5.2366   -0.7132    1.1225 O   0  0  0  0  0  0  0  0  0  0  0  0
   -3.2977   -0.6736   -1.0207 C   0  0  0  0  0  0  0  0  0  0  0  0
   -4.5982   -0.3500   -1.6472 C   0  0  0  0  0  0  0  0  0  0  0  0
   -4.9061    1.0968   -1.8425 C   0  0  0  0  0  0  0  0  0  0  0  0
   -4.9180    1.8939   -0.6678 N   0  0  0  0  0  0  0  0  0  0  0  0
   -5.8640    2.6050   -0.2127 C   0  0  0  0  0  0  0  0  0  0  0  0
   -7.1416    2.7290   -0.8270 N   0  0  0  0  0  0  0  0  0  0  0  0
   -5.6730    3.3547    0.9876 N   0  0  0  0  0  0  0  0  0  0  0  0
    0.6122   -0.8905    3.6937 C   0  0  0  0  0  0  0  0  0  0  0  0
   -0.4033   -1.4627    4.6562 C   0  0  0  0  0  0  0  0  0  0  0  0
    0.8632    0.5678    3.9258 C   0  0  0  0  0  0  0  0  0  0  0  0
    5.2316   -3.7086   -2.3861 H   0  0  0  0  0  0  0  0  0  0  0  0
    6.4591   -2.3549   -2.7315 H   0  0  0  0  0  0  0  0  0  0  0  0
    6.6359   -3.3889   -1.2684 H   0  0  0  0  0  0  0  0  0  0  0  0
    3.2685   -2.7039   -1.8121 H   0  0  0  0  0  0  0  0  0  0  0  0
    3.5941   -0.4169    0.1498 H   0  0  0  0  0  0  0  0  0  0  0  0
    1.5295    0.6555   -0.9374 H   0  0  0  0  0  0  0  0  0  0  0  0
    1.7499   -0.5073   -2.2426 H   0  0  0  0  0  0  0  0  0  0  0  0
    3.3441    2.2998   -0.4903 H   0  0  0  0  0  0  0  0  0  0  0  0
    5.1454    3.6652   -1.5228 H   0  0  0  0  0  0  0  0  0  0  0  0
    6.1603    2.9081   -3.6733 H   0  0  0  0  0  0  0  0  0  0  0  0
    5.3842    0.8892   -4.7163 H   0  0  0  0  0  0  0  0  0  0  0  0
    3.5725   -0.4391   -3.6668 H   0  0  0  0  0  0  0  0  0  0  0  0
    1.1162    0.2390    1.0645 H   0  0  0  0  0  0  0  0  0  0  0  0
    0.2942   -2.3848    2.2655 H   0  0  0  0  0  0  0  0  0  0  0  0
   -1.0453   -0.8847   -0.0656 H   0  0  0  0  0  0  0  0  0  0  0  0
   -3.2706    0.8038    0.6129 H   0  0  0  0  0  0  0  0  0  0  0  0
   -3.8016   -1.7407    1.9776 H   0  0  0  0  0  0  0  0  0  0  0  0
   -3.2132   -1.8067   -1.0488 H   0  0  0  0  0  0  0  0  0  0  0  0
   -2.5023   -0.2927   -1.7097 H   0  0  0  0  0  0  0  0  0  0  0  0
   -5.4621   -0.8990   -1.1791 H   0  0  0  0  0  0  0  0  0  0  0  0
   -4.5682   -0.7939   -2.6893 H   0  0  0  0  0  0  0  0  0  0  0  0
   -4.1684    1.5587   -2.5705 H   0  0  0  0  0  0  0  0  0  0  0  0
   -5.9372    1.2065   -2.3157 H   0  0  0  0  0  0  0  0  0  0  0  0
   -7.2768    2.7299   -1.8675 H   0  0  0  0  0  0  0  0  0  0  0  0
   -7.9990    2.8249   -0.2382 H   0  0  0  0  0  0  0  0  0  0  0  0
   -5.9855    4.3385    1.1112 H   0  0  0  0  0  0  0  0  0  0  0  0
   -5.1824    2.8506    1.7745 H   0  0  0  0  0  0  0  0  0  0  0  0
    1.5812   -1.4092    3.9694 H   0  0  0  0  0  0  0  0  0  0  0  0
    0.1005   -1.9536    5.5351 H   0  0  0  0  0  0  0  0  0  0  0  0
   -0.9915   -2.3051    4.2163 H   0  0  0  0  0  0  0  0  0  0  0  0
   -1.0258   -0.6675    5.0964 H   0  0  0  0  0  0  0  0  0  0  0  0
    0.1866    1.2273    3.3520 H   0  0  0  0  0  0  0  0  0  0  0  0
    0.7383    0.7780    4.9948 H   0  0  0  0  0  0  0  0  0  0  0  0
    1.9278    0.7739    3.6663 H   0  0  0  0  0  0  0  0  0  0  0  0
  1  2  1  0
  2  3  2  0
  2  4  1  0
  4  5  1  0
  5  6  1  0
  6  7  1  0
  7  8  2  0
  8  9  1  0
  9 10  2  0
 10 11  1  0
 11 12  2  0
  5 13  1  0
 13 14  2  0
 13 15  1  0
 15 16  1  0
 16 17  1  0
 17 18  2  0
 17 19  1  0
 19 20  1  0
 20 21  1  0
 21 22  2  0
 20 23  1  0
 23 24  1  0
 24 25  1  0
 25 26  1  0
 26 27  2  3
 27 28  1  0
 27 29  1  0
 16 30  1  0
 30 31  1  0
 30 32  1  0
 12  7  1  0
  1 33  1  0
  1 34  1  0
  1 35  1  0
  4 36  1  0
  5 37  1  1
  6 38  1  0
  6 39  1  0
  8 40  1  0
  9 41  1  0
 10 42  1  0
 11 43  1  0
 12 44  1  0
 15 45  1  0
 16 46  1  1
 19 47  1  0
 20 48  1  6
 21 49  1  0
 23 50  1  0
 23 51  1  0
 24 52  1  0
 24 53  1  0
 25 54  1  0
 25 55  1  0
 28 56  1  0
 28 57  1  0
 29 58  1  0
 29 59  1  0
 30 60  1  0
 31 61  1  0
 31 62  1  0
 31 63  1  0
 32 64  1  0
 32 65  1  0
 32 66  1  0
M  END
$$$$
