
     RDKit          3D

 30 31  0  0  0  0  0  0  0  0999 V2000
    1.4580    2.1816   -2.0922 C   0  0  0  0  0  0  0  0  0  0  0  0
    0.3957    1.4012   -1.3501 C   0  0  0  0  0  0  0  0  0  0  0  0
    1.1140    0.4303   -0.4631 C   0  0  0  0  0  0  0  0  0  0  0  0
    2.4568    0.3528   -0.4152 N   0  0  0  0  0  0  0  0  0  0  0  0
    3.0883   -0.5245    0.3867 C   0  0  0  0  0  0  0  0  0  0  0  0
    4.5115   -0.5848    0.4172 N   0  0  0  0  0  0  0  0  0  0  0  0
    2.3168   -1.3261    1.1435 N   0  0  0  0  0  0  0  0  0  0  0  0
    0.9718   -1.2811    1.1258 C   0  0  0  0  0  0  0  0  0  0  0  0
    0.1652   -2.1380    1.9345 N   0  0  0  0  0  0  0  0  0  0  0  0
    0.3108   -0.3863    0.3082 C   0  0  0  0  0  0  0  0  0  0  0  0
   -1.1480   -0.3207    0.2735 C   0  0  0  0  0  0  0  0  0  0  0  0
   -1.9102   -1.0754   -0.5948 C   0  0  0  0  0  0  0  0  0  0  0  0
   -3.2873   -1.0228   -0.6377 C   0  0  0  0  0  0  0  0  0  0  0  0
   -3.9329   -0.1779    0.2260 C   0  0  0  0  0  0  0  0  0  0  0  0
   -5.6814   -0.1060    0.1770 Cl  0  0  0  0  0  0  0  0  0  0  0  0
   -3.2010    0.6011    1.1182 C   0  0  0  0  0  0  0  0  0  0  0  0
   -3.9978    1.6749    2.2175 Cl  0  0  0  0  0  0  0  0  0  0  0  0
   -1.8155    0.5259    1.1373 C   0  0  0  0  0  0  0  0  0  0  0  0
    2.0986    1.5538   -2.7247 H   0  0  0  0  0  0  0  0  0  0  0  0
    2.1176    2.6492   -1.3062 H   0  0  0  0  0  0  0  0  0  0  0  0
    0.9415    2.9947   -2.6433 H   0  0  0  0  0  0  0  0  0  0  0  0
   -0.1953    0.8573   -2.1036 H   0  0  0  0  0  0  0  0  0  0  0  0
   -0.1929    2.1295   -0.7636 H   0  0  0  0  0  0  0  0  0  0  0  0
    4.9904   -0.7986    1.3180 H   0  0  0  0  0  0  0  0  0  0  0  0
    5.1326   -0.4299   -0.4045 H   0  0  0  0  0  0  0  0  0  0  0  0
    0.5122   -2.3771    2.8830 H   0  0  0  0  0  0  0  0  0  0  0  0
   -0.7378   -2.5348    1.6399 H   0  0  0  0  0  0  0  0  0  0  0  0
   -1.4031   -1.7438   -1.2783 H   0  0  0  0  0  0  0  0  0  0  0  0
   -3.8657   -1.6385   -1.3429 H   0  0  0  0  0  0  0  0  0  0  0  0
   -1.2128    1.1137    1.8142 H   0  0  0  0  0  0  0  0  0  0  0  0
  1  2  1  0
  2  3  1  0
  3  4  2  0
  4  5  1  0
  5  6  1  0
  5  7  2  0
  7  8  1  0
  8  9  1  0
  8 10  2  0
 10 11  1  0
 11 12  2  0
 12 13  1  0
 13 14  2  0
 14 15  1  0
 14 16  1  0
 16 17  1  0
 16 18  2  0
 10  3  1  0
 18 11  1  0
  1 19  1  0
  1 20  1  0
  1 21  1  0
  2 22  1  0
  2 23  1  0
  6 24  1  0
  6 25  1  0
  9 26  1  0
  9 27  1  0
 12 28  1  0
 13 29  1  0
 18 30  1  0
M  END
$$$$
