
     RDKit          3D

 65 69  0  0  0  0  0  0  0  0999 V2000
    1.0130   -2.4070    2.3392 C   0  0  0  0  0  0  0  0  0  0  0  0
    1.6001   -1.3589    1.4649 C   0  0  0  0  0  0  0  0  0  0  0  0
    2.9535   -1.3260    1.1685 C   0  0  0  0  0  0  0  0  0  0  0  0
    3.4989   -0.3541    0.3572 C   0  0  0  0  0  0  0  0  0  0  0  0
    4.9131   -0.2409   -0.0120 C   0  0  0  0  0  0  0  0  0  0  0  0
    5.1384   -0.2872   -1.5049 C   0  0  0  0  0  0  0  0  0  0  0  0
    6.1027    0.7904   -1.9549 C   0  0  0  0  0  0  0  0  0  0  0  0
    7.2245    0.9523   -1.0879 N   0  0  0  0  0  0  0  0  0  0  0  0
    8.2404   -0.0474   -1.2572 C   0  0  0  0  0  0  0  0  0  0  0  0
    6.9136    1.2647    0.2698 C   0  0  0  0  0  0  0  0  0  0  0  0
    5.4258    1.1047    0.4766 C   0  0  0  0  0  0  0  0  0  0  0  0
    2.6282    0.6077   -0.1614 C   0  0  0  0  0  0  0  0  0  0  0  0
    1.2766    0.5908    0.1230 C   0  0  0  0  0  0  0  0  0  0  0  0
    0.2253    1.3983   -0.2483 N   0  0  0  0  0  0  0  0  0  0  0  0
   -0.9143    0.9472    0.3062 C   0  0  0  0  0  0  0  0  0  0  0  0
   -2.2352    1.5485    0.1362 C   0  0  0  0  0  0  0  0  0  0  0  0
   -3.3630    1.0346    0.7352 C   0  0  0  0  0  0  0  0  0  0  0  0
   -3.3231   -0.0659    1.6144 N   0  0  0  0  0  0  0  0  0  0  0  0
   -4.4837   -0.6822    2.2369 C   0  0  0  0  0  0  0  0  0  0  0  0
   -5.1276   -1.7471    1.4283 C   0  0  1  0  0  0  0  0  0  0  0  0
   -6.2351   -2.2417    2.1621 O   0  0  0  0  0  0  0  0  0  0  0  0
   -5.5511   -1.4353    0.0759 C   0  0  0  0  0  0  0  0  0  0  0  0
   -6.7712   -0.8918   -0.2852 C   0  0  0  0  0  0  0  0  0  0  0  0
   -7.0837   -0.6279   -1.5973 C   0  0  0  0  0  0  0  0  0  0  0  0
   -6.1985   -0.8910   -2.6201 C   0  0  0  0  0  0  0  0  0  0  0  0
   -4.9873   -1.4274   -2.2932 C   0  0  0  0  0  0  0  0  0  0  0  0
   -3.8335   -1.7741   -3.5831 Cl  0  0  0  0  0  0  0  0  0  0  0  0
   -4.6839   -1.6875   -0.9807 C   0  0  0  0  0  0  0  0  0  0  0  0
   -4.6264    1.6214    0.5438 C   0  0  0  0  0  0  0  0  0  0  0  0
   -4.7693    2.7296   -0.2517 C   0  0  0  0  0  0  0  0  0  0  0  0
   -3.6760    3.2195   -0.8261 N   0  0  0  0  0  0  0  0  0  0  0  0
   -2.4393    2.6648   -0.6525 C   0  0  0  0  0  0  0  0  0  0  0  0
   -1.4552    3.1864   -1.2285 O   0  0  0  0  0  0  0  0  0  0  0  0
   -0.5579   -0.1432    1.0216 N   0  0  0  0  0  0  0  0  0  0  0  0
    0.7588   -0.3804    0.9280 C   0  0  0  0  0  0  0  0  0  0  0  0
   -0.0028   -2.1123    2.6354 H   0  0  0  0  0  0  0  0  0  0  0  0
    0.9280   -3.3253    1.6991 H   0  0  0  0  0  0  0  0  0  0  0  0
    1.6728   -2.6730    3.1882 H   0  0  0  0  0  0  0  0  0  0  0  0
    3.6315   -2.0680    1.5675 H   0  0  0  0  0  0  0  0  0  0  0  0
    5.4911   -1.0405    0.4707 H   0  0  0  0  0  0  0  0  0  0  0  0
    4.2200   -0.1878   -2.0832 H   0  0  0  0  0  0  0  0  0  0  0  0
    5.5995   -1.2636   -1.7484 H   0  0  0  0  0  0  0  0  0  0  0  0
    6.5184    0.4133   -2.9367 H   0  0  0  0  0  0  0  0  0  0  0  0
    5.5786    1.7269   -2.2210 H   0  0  0  0  0  0  0  0  0  0  0  0
    8.0347   -0.5490   -2.2441 H   0  0  0  0  0  0  0  0  0  0  0  0
    9.2116    0.4633   -1.3857 H   0  0  0  0  0  0  0  0  0  0  0  0
    8.2445   -0.7678   -0.4238 H   0  0  0  0  0  0  0  0  0  0  0  0
    7.1231    2.3619    0.4131 H   0  0  0  0  0  0  0  0  0  0  0  0
    7.5004    0.6871    1.0129 H   0  0  0  0  0  0  0  0  0  0  0  0
    4.9324    1.9239   -0.0870 H   0  0  0  0  0  0  0  0  0  0  0  0
    5.1425    1.2586    1.5475 H   0  0  0  0  0  0  0  0  0  0  0  0
    2.9896    1.3979   -0.8048 H   0  0  0  0  0  0  0  0  0  0  0  0
    0.4047    2.2024   -0.8639 H   0  0  0  0  0  0  0  0  0  0  0  0
   -2.4207   -0.5008    1.8699 H   0  0  0  0  0  0  0  0  0  0  0  0
   -5.2182    0.0698    2.6043 H   0  0  0  0  0  0  0  0  0  0  0  0
   -4.1150   -1.1804    3.1813 H   0  0  0  0  0  0  0  0  0  0  0  0
   -4.4003   -2.6174    1.3484 H   0  0  0  0  0  0  0  0  0  0  0  0
   -5.9283   -2.6792    2.9944 H   0  0  0  0  0  0  0  0  0  0  0  0
   -7.4730   -0.6805    0.4980 H   0  0  0  0  0  0  0  0  0  0  0  0
   -8.0531   -0.2005   -1.8380 H   0  0  0  0  0  0  0  0  0  0  0  0
   -6.4718   -0.6722   -3.6483 H   0  0  0  0  0  0  0  0  0  0  0  0
   -3.6990   -2.1157   -0.7850 H   0  0  0  0  0  0  0  0  0  0  0  0
   -5.5123    1.2458    1.0229 H   0  0  0  0  0  0  0  0  0  0  0  0
   -5.7651    3.1799   -0.3942 H   0  0  0  0  0  0  0  0  0  0  0  0
   -3.7616    4.0595   -1.4325 H   0  0  0  0  0  0  0  0  0  0  0  0
  1  2  1  0
  2  3  2  0
  3  4  1  0
  4  5  1  0
  5  6  1  0
  6  7  1  0
  7  8  1  0
  8  9  1  0
  8 10  1  0
 10 11  1  0
  4 12  2  0
 12 13  1  0
 13 14  1  0
 14 15  1  0
 15 16  1  0
 16 17  2  0
 17 18  1  0
 18 19  1  0
 19 20  1  0
 20 21  1  0
 20 22  1  0
 22 23  2  0
 23 24  1  0
 24 25  2  0
 25 26  1  0
 26 27  1  0
 26 28  2  0
 17 29  1  0
 29 30  2  0
 30 31  1  0
 31 32  1  0
 32 33  2  0
 15 34  2  0
 34 35  1  0
 35  2  1  0
 11  5  1  0
 35 13  2  0
 32 16  1  0
 28 22  1  0
  1 36  1  0
  1 37  1  0
  1 38  1  0
  3 39  1  0
  5 40  1  0
  6 41  1  0
  6 42  1  0
  7 43  1  0
  7 44  1  0
  9 45  1  0
  9 46  1  0
  9 47  1  0
 10 48  1  0
 10 49  1  0
 11 50  1  0
 11 51  1  0
 12 52  1  0
 14 53  1  0
 18 54  1  0
 19 55  1  0
 19 56  1  0
 20 57  1  6
 21 58  1  0
 23 59  1  0
 24 60  1  0
 25 61  1  0
 28 62  1  0
 29 63  1  0
 30 64  1  0
 31 65  1  0
M  END
$$$$
