
     RDKit          3D

 52 54  0  0  0  0  0  0  0  0999 V2000
    2.8994   -2.2571    0.2632 C   0  0  0  0  0  0  0  0  0  0  0  0
    1.9625   -1.3164   -0.4959 C   0  0  0  0  0  0  0  0  0  0  0  0
    2.1759    0.0854   -0.0380 C   0  0  0  0  0  0  0  0  0  0  0  0
    3.5800    0.5649   -0.3065 C   0  0  0  0  0  0  0  0  0  0  0  0
    4.5787    0.3494    0.6553 C   0  0  0  0  0  0  0  0  0  0  0  0
    5.8957    0.7272    0.5864 C   0  0  0  0  0  0  0  0  0  0  0  0
    6.2628    1.3982   -0.5772 C   0  0  0  0  0  0  0  0  0  0  0  0
    5.3225    1.6318   -1.5447 C   0  0  0  0  0  0  0  0  0  0  0  0
    4.0077    1.2334   -1.4319 C   0  0  0  0  0  0  0  0  0  0  0  0
    0.6611   -1.7612   -0.6162 N   0  0  0  0  0  0  0  0  0  0  0  0
   -0.2498   -1.9549    0.4044 C   0  0  0  0  0  0  0  0  0  0  0  0
   -0.8347   -0.6958    0.9887 C   0  0  0  0  0  0  0  0  0  0  0  0
   -1.6048    0.0813   -0.0599 C   0  0  0  0  0  0  0  0  0  0  0  0
   -2.1498    1.3117    0.5565 C   0  0  0  0  0  0  0  0  0  0  0  0
   -2.4161    1.6392    1.8658 C   0  0  0  0  0  0  0  0  0  0  0  0
   -2.9388    2.8791    2.2125 C   0  0  0  0  0  0  0  0  0  0  0  0
   -3.2120    3.8325    1.2522 C   0  0  0  0  0  0  0  0  0  0  0  0
   -2.9515    3.5262   -0.0893 C   0  0  0  0  0  0  0  0  0  0  0  0
   -2.4338    2.2891   -0.3902 C   0  0  0  0  0  0  0  0  0  0  0  0
   -2.7338   -0.7639   -0.6002 C   0  0  0  0  0  0  0  0  0  0  0  0
   -3.1368   -0.7587   -1.9153 C   0  0  0  0  0  0  0  0  0  0  0  0
   -4.1825   -1.5517   -2.3834 C   0  0  0  0  0  0  0  0  0  0  0  0
   -4.8145   -2.3661   -1.4414 C   0  0  0  0  0  0  0  0  0  0  0  0
   -4.4518   -2.4112   -0.1118 C   0  0  0  0  0  0  0  0  0  0  0  0
   -3.3943   -1.5951    0.3106 C   0  0  0  0  0  0  0  0  0  0  0  0
    2.8060   -2.1471    1.3520 H   0  0  0  0  0  0  0  0  0  0  0  0
    3.9392   -1.9792   -0.0080 H   0  0  0  0  0  0  0  0  0  0  0  0
    2.7426   -3.2802   -0.1201 H   0  0  0  0  0  0  0  0  0  0  0  0
    2.4182   -1.3646   -1.5617 H   0  0  0  0  0  0  0  0  0  0  0  0
    2.1238    0.1137    1.1011 H   0  0  0  0  0  0  0  0  0  0  0  0
    1.4487    0.8178   -0.4038 H   0  0  0  0  0  0  0  0  0  0  0  0
    4.2627   -0.1822    1.5611 H   0  0  0  0  0  0  0  0  0  0  0  0
    6.5701    0.5047    1.3917 H   0  0  0  0  0  0  0  0  0  0  0  0
    7.2995    1.7026   -0.6394 H   0  0  0  0  0  0  0  0  0  0  0  0
    5.6211    2.1675   -2.4626 H   0  0  0  0  0  0  0  0  0  0  0  0
    3.2551    1.4151   -2.1988 H   0  0  0  0  0  0  0  0  0  0  0  0
    0.3120   -1.9000   -1.5972 H   0  0  0  0  0  0  0  0  0  0  0  0
    0.1345   -2.5278    1.2941 H   0  0  0  0  0  0  0  0  0  0  0  0
   -1.1296   -2.5557   -0.0112 H   0  0  0  0  0  0  0  0  0  0  0  0
   -0.0332   -0.0395    1.3279 H   0  0  0  0  0  0  0  0  0  0  0  0
   -1.4412   -0.9126    1.9009 H   0  0  0  0  0  0  0  0  0  0  0  0
   -0.9080    0.2999   -0.8674 H   0  0  0  0  0  0  0  0  0  0  0  0
   -2.1768    0.8400    2.5548 H   0  0  0  0  0  0  0  0  0  0  0  0
   -3.1040    3.0126    3.2834 H   0  0  0  0  0  0  0  0  0  0  0  0
   -3.6240    4.7931    1.5855 H   0  0  0  0  0  0  0  0  0  0  0  0
   -3.1850    4.3088   -0.7940 H   0  0  0  0  0  0  0  0  0  0  0  0
   -2.2830    2.1859   -1.4724 H   0  0  0  0  0  0  0  0  0  0  0  0
   -2.5875   -0.0876   -2.5947 H   0  0  0  0  0  0  0  0  0  0  0  0
   -4.4762   -1.5238   -3.4225 H   0  0  0  0  0  0  0  0  0  0  0  0
   -5.6405   -3.0051   -1.7766 H   0  0  0  0  0  0  0  0  0  0  0  0
   -4.9923   -3.0744    0.5691 H   0  0  0  0  0  0  0  0  0  0  0  0
   -3.1931   -1.6990    1.3489 H   0  0  0  0  0  0  0  0  0  0  0  0
  1  2  1  0
  2  3  1  0
  3  4  1  0
  4  5  2  0
  5  6  1  0
  6  7  2  0
  7  8  1  0
  8  9  2  0
  2 10  1  0
 10 11  1  0
 11 12  1  0
 12 13  1  0
 13 14  1  0
 14 15  2  0
 15 16  1  0
 16 17  2  0
 17 18  1  0
 18 19  2  0
 13 20  1  0
 20 21  2  0
 21 22  1  0
 22 23  2  0
 23 24  1  0
 24 25  2  0
  9  4  1  0
 19 14  1  0
 25 20  1  0
  1 26  1  0
  1 27  1  0
  1 28  1  0
  2 29  1  0
  3 30  1  0
  3 31  1  0
  5 32  1  0
  6 33  1  0
  7 34  1  0
  8 35  1  0
  9 36  1  0
 10 37  1  0
 11 38  1  0
 11 39  1  0
 12 40  1  0
 12 41  1  0
 13 42  1  0
 15 43  1  0
 16 44  1  0
 17 45  1  0
 18 46  1  0
 19 47  1  0
 21 48  1  0
 22 49  1  0
 23 50  1  0
 24 51  1  0
 25 52  1  0
M  END
$$$$
