
     RDKit          3D

 32 34  0  0  0  0  0  0  0  0999 V2000
    2.0807   -2.8634    0.1847 O   0  0  0  0  0  0  0  0  0  0  0  0
    1.5735   -1.7018    0.1924 C   0  0  0  0  0  0  0  0  0  0  0  0
    0.1788   -1.5314    0.1064 C   0  0  0  0  0  0  0  0  0  0  0  0
   -0.5627   -2.6840    0.0166 O   0  0  0  0  0  0  0  0  0  0  0  0
   -0.2911   -0.2593    0.1205 C   0  0  0  0  0  0  0  0  0  0  0  0
   -1.7240    0.0282    0.0361 C   0  0  0  0  0  0  0  0  0  0  0  0
   -2.1321    1.3613    0.0565 C   0  0  0  0  0  0  0  0  0  0  0  0
   -3.4478    1.7427   -0.0168 C   0  0  0  0  0  0  0  0  0  0  0  0
   -4.4245    0.7644   -0.1160 C   0  0  0  0  0  0  0  0  0  0  0  0
   -5.7345    1.1716   -0.1880 O   0  0  0  0  0  0  0  0  0  0  0  0
   -4.0795   -0.5645   -0.1403 C   0  0  0  0  0  0  0  0  0  0  0  0
   -5.0684   -1.5210   -0.2395 O   0  0  0  0  0  0  0  0  0  0  0  0
   -2.7225   -0.8889   -0.0623 C   0  0  0  0  0  0  0  0  0  0  0  0
    0.5612    0.7680    0.2132 O   0  0  0  0  0  0  0  0  0  0  0  0
    1.8468    0.6483    0.2938 C   0  0  0  0  0  0  0  0  0  0  0  0
    2.6394    1.7823    0.3864 C   0  0  0  0  0  0  0  0  0  0  0  0
    4.0208    1.6704    0.4736 C   0  0  0  0  0  0  0  0  0  0  0  0
    4.7975    2.8108    0.5653 O   0  0  0  0  0  0  0  0  0  0  0  0
    4.5995    0.4039    0.4669 C   0  0  0  0  0  0  0  0  0  0  0  0
    3.7769   -0.6978    0.3735 C   0  0  0  0  0  0  0  0  0  0  0  0
    4.3674   -1.9513    0.3680 O   0  0  0  0  0  0  0  0  0  0  0  0
    2.4049   -0.6140    0.2859 C   0  0  0  0  0  0  0  0  0  0  0  0
   -0.7420   -3.3117    0.8071 H   0  0  0  0  0  0  0  0  0  0  0  0
   -1.3543    2.1057    0.1342 H   0  0  0  0  0  0  0  0  0  0  0  0
   -3.6848    2.7906    0.0047 H   0  0  0  0  0  0  0  0  0  0  0  0
   -6.5075    0.6020   -0.4604 H   0  0  0  0  0  0  0  0  0  0  0  0
   -4.8807   -2.4916   -0.4822 H   0  0  0  0  0  0  0  0  0  0  0  0
   -2.4933   -1.9335   -0.0842 H   0  0  0  0  0  0  0  0  0  0  0  0
    2.2361    2.7847    0.3953 H   0  0  0  0  0  0  0  0  0  0  0  0
    4.4929    3.7033    0.2045 H   0  0  0  0  0  0  0  0  0  0  0  0
    5.6629    0.3243    0.5342 H   0  0  0  0  0  0  0  0  0  0  0  0
    4.6104   -2.4486   -0.4719 H   0  0  0  0  0  0  0  0  0  0  0  0
  1  2  2  0
  2  3  1  0
  3  4  1  0
  3  5  2  0
  5  6  1  0
  6  7  2  0
  7  8  1  0
  8  9  2  0
  9 10  1  0
  9 11  1  0
 11 12  1  0
 11 13  2  0
  5 14  1  0
 14 15  1  0
 15 16  2  0
 16 17  1  0
 17 18  1  0
 17 19  2  0
 19 20  1  0
 20 21  1  0
 20 22  2  0
 22  2  1  0
 13  6  1  0
 22 15  1  0
  4 23  1  0
  7 24  1  0
  8 25  1  0
 10 26  1  0
 12 27  1  0
 13 28  1  0
 16 29  1  0
 18 30  1  0
 19 31  1  0
 21 32  1  0
M  END
$$$$
