
     RDKit          3D

 22 21  0  0  0  0  0  0  0  0999 V2000
   -0.6949    0.1817    0.3187 C   0  0  2  0  0  0  0  0  0  0  0  0
   -0.6476   -0.8734    1.3000 N   0  0  0  0  0  0  0  0  0  0  0  0
   -1.7656   -0.0206   -0.7122 C   0  0  0  0  0  0  0  0  0  0  0  0
   -3.1567   -0.0892   -0.1369 C   0  0  0  0  0  0  0  0  0  0  0  0
    0.6282    0.1621   -0.4554 C   0  0  0  0  0  0  0  0  0  0  0  0
    1.7860    0.3869    0.4907 C   0  0  0  0  0  0  0  0  0  0  0  0
    3.0279    0.3563   -0.3164 C   0  0  0  0  0  0  0  0  0  0  0  0
    4.3309    0.5093    0.0780 O   0  0  0  0  0  0  0  0  0  0  0  0
    2.8702    0.1591   -1.5619 O   0  0  0  0  0  0  0  0  0  0  0  0
   -0.7958    1.1393    0.8349 H   0  0  0  0  0  0  0  0  0  0  0  0
   -1.5883   -1.1834    1.6043 H   0  0  0  0  0  0  0  0  0  0  0  0
   -0.0141   -1.6578    1.0373 H   0  0  0  0  0  0  0  0  0  0  0  0
   -1.5302   -0.9288   -1.2824 H   0  0  0  0  0  0  0  0  0  0  0  0
   -1.7325    0.8565   -1.3904 H   0  0  0  0  0  0  0  0  0  0  0  0
   -3.3206    0.7449    0.5575 H   0  0  0  0  0  0  0  0  0  0  0  0
   -3.8588    0.0277   -0.9968 H   0  0  0  0  0  0  0  0  0  0  0  0
   -3.3162   -1.0652    0.3609 H   0  0  0  0  0  0  0  0  0  0  0  0
    0.5474    0.9968   -1.1818 H   0  0  0  0  0  0  0  0  0  0  0  0
    0.6722   -0.7974   -0.9802 H   0  0  0  0  0  0  0  0  0  0  0  0
    1.7975   -0.3397    1.3031 H   0  0  0  0  0  0  0  0  0  0  0  0
    1.6762    1.4165    0.9044 H   0  0  0  0  0  0  0  0  0  0  0  0
    5.0847    0.0184   -0.3797 H   0  0  0  0  0  0  0  0  0  0  0  0
  1  2  1  0
  1  3  1  0
  3  4  1  0
  1  5  1  0
  5  6  1  0
  6  7  1  0
  7  8  1  0
  7  9  2  0
  1 10  1  1
  2 11  1  0
  2 12  1  0
  3 13  1  0
  3 14  1  0
  4 15  1  0
  4 16  1  0
  4 17  1  0
  5 18  1  0
  5 19  1  0
  6 20  1  0
  6 21  1  0
  8 22  1  0
M  END
$$$$
