
     RDKit          3D

 37 40  0  0  0  0  0  0  0  0999 V2000
   -2.9631    2.8757    1.6335 O   0  0  0  0  0  0  0  0  0  0  0  0
   -1.9733    2.1843    1.2871 C   0  0  0  0  0  0  0  0  0  0  0  0
   -0.7262    2.5168    1.6656 N   0  0  0  0  0  0  0  0  0  0  0  0
    0.3654    1.8170    1.3261 C   0  0  0  0  0  0  0  0  0  0  0  0
    0.2025    0.7109    0.5570 N   0  0  0  0  0  0  0  0  0  0  0  0
    1.2713    0.0065    0.2115 N   0  0  0  0  0  0  0  0  0  0  0  0
    1.1735   -1.0908   -0.5435 C   0  0  0  0  0  0  0  0  0  0  0  0
    2.6303   -2.0365   -1.0048 S   0  0  0  0  0  0  0  0  0  0  0  0
    4.0808   -1.2820   -0.3154 C   0  0  0  0  0  0  0  0  0  0  0  0
    4.7619   -0.3272   -1.0284 C   0  0  0  0  0  0  0  0  0  0  0  0
    5.8982    0.2649   -0.4901 C   0  0  0  0  0  0  0  0  0  0  0  0
    6.3581   -0.0905    0.7551 C   0  0  0  0  0  0  0  0  0  0  0  0
    7.4742    0.4721    1.3165 F   0  0  0  0  0  0  0  0  0  0  0  0
    5.6748   -1.0462    1.4663 C   0  0  0  0  0  0  0  0  0  0  0  0
    4.5417   -1.6349    0.9266 C   0  0  0  0  0  0  0  0  0  0  0  0
    3.9211   -2.5751    1.6975 F   0  0  0  0  0  0  0  0  0  0  0  0
   -0.0695   -1.4925   -0.9685 C   0  0  0  0  0  0  0  0  0  0  0  0
   -1.1858   -0.7651   -0.6132 C   0  0  0  0  0  0  0  0  0  0  0  0
   -1.0206    0.3487    0.1613 C   0  0  0  0  0  0  0  0  0  0  0  0
   -2.1668    1.0650    0.5053 C   0  0  0  0  0  0  0  0  0  0  0  0
   -3.4880    0.6401    0.0551 C   0  0  0  0  0  0  0  0  0  0  0  0
   -4.0362    1.0769   -1.1337 C   0  0  0  0  0  0  0  0  0  0  0  0
   -3.0835    2.1806   -2.1120 Cl  0  0  0  0  0  0  0  0  0  0  0  0
   -5.2885    0.6554   -1.5298 C   0  0  0  0  0  0  0  0  0  0  0  0
   -6.0457   -0.2136   -0.7656 C   0  0  0  0  0  0  0  0  0  0  0  0
   -5.5020   -0.6523    0.4223 C   0  0  0  0  0  0  0  0  0  0  0  0
   -4.2539   -0.2315    0.8158 C   0  0  0  0  0  0  0  0  0  0  0  0
   -3.6124   -0.8142    2.3239 Cl  0  0  0  0  0  0  0  0  0  0  0  0
    1.3675    2.1095    1.6474 H   0  0  0  0  0  0  0  0  0  0  0  0
    4.4384   -0.0148   -2.0118 H   0  0  0  0  0  0  0  0  0  0  0  0
    6.4040    0.9971   -1.0595 H   0  0  0  0  0  0  0  0  0  0  0  0
    6.0309   -1.3378    2.4589 H   0  0  0  0  0  0  0  0  0  0  0  0
   -0.1350   -2.3712   -1.5716 H   0  0  0  0  0  0  0  0  0  0  0  0
   -2.1874   -1.0571   -0.9342 H   0  0  0  0  0  0  0  0  0  0  0  0
   -5.7156    0.9944   -2.4538 H   0  0  0  0  0  0  0  0  0  0  0  0
   -7.0316   -0.5487   -1.0722 H   0  0  0  0  0  0  0  0  0  0  0  0
   -6.1095   -1.3337    1.0095 H   0  0  0  0  0  0  0  0  0  0  0  0
  1  2  2  0
  2  3  1  0
  3  4  2  0
  4  5  1  0
  5  6  1  0
  6  7  2  0
  7  8  1  0
  8  9  1  0
  9 10  2  0
 10 11  1  0
 11 12  2  0
 12 13  1  0
 12 14  1  0
 14 15  2  0
 15 16  1  0
  7 17  1  0
 17 18  2  0
 18 19  1  0
 19 20  2  0
 20 21  1  0
 21 22  2  0
 22 23  1  0
 22 24  1  0
 24 25  2  0
 25 26  1  0
 26 27  2  0
 27 28  1  0
 20  2  1  0
 27 21  1  0
 19  5  1  0
 15  9  1  0
  4 29  1  0
 10 30  1  0
 11 31  1  0
 14 32  1  0
 17 33  1  0
 18 34  1  0
 24 35  1  0
 25 36  1  0
 26 37  1  0
M  END
$$$$
