
     RDKit          3D

 56 57  0  0  0  0  0  0  0  0999 V2000
    7.9874   -0.7274   -0.9163 C   0  0  0  0  0  0  0  0  0  0  0  0
    7.2021   -0.7528    0.3806 C   0  0  0  0  0  0  0  0  0  0  0  0
    7.9078    0.0697    1.4527 C   0  0  0  0  0  0  0  0  0  0  0  0
    5.9343   -0.1331    0.1534 N   0  0  0  0  0  0  0  0  0  0  0  0
    4.7415   -0.8297    0.4837 C   0  0  0  0  0  0  0  0  0  0  0  0
    4.7392   -1.9919    0.9776 O   0  0  0  0  0  0  0  0  0  0  0  0
    3.4713   -0.1585    0.2349 C   0  0  0  0  0  0  0  0  0  0  0  0
    3.2871    1.0685   -0.3006 N   0  0  0  0  0  0  0  0  0  0  0  0
    2.0096    1.2728   -0.3374 O   0  0  0  0  0  0  0  0  0  0  0  0
    1.3590    0.2506    0.1428 C   0  0  0  0  0  0  0  0  0  0  0  0
   -0.1489    0.2237    0.2182 C   0  0  2  0  0  0  0  0  0  0  0  0
   -0.6241    0.2237   -1.2115 C   0  0  0  0  0  0  0  0  0  0  0  0
   -2.1280    0.2092   -1.3068 C   0  0  0  0  0  0  0  0  0  0  0  0
   -2.6466   -1.0229   -0.6307 C   0  0  0  0  0  0  0  0  0  0  0  0
   -4.1410   -1.0824   -0.7331 C   0  0  0  0  0  0  0  0  0  0  0  0
   -4.7435    0.1233   -0.0779 C   0  0  0  0  0  0  0  0  0  0  0  0
   -6.2493   -0.0415    0.0909 C   0  0  0  0  0  0  0  0  0  0  0  0
   -6.7923   -1.0020   -0.9534 C   0  0  0  0  0  0  0  0  0  0  0  0
   -6.0859   -0.7805   -2.2749 C   0  0  0  0  0  0  0  0  0  0  0  0
   -4.6575   -1.2791   -2.1433 C   0  0  0  0  0  0  0  0  0  0  0  0
   -0.5786    1.4363    0.9776 C   0  0  0  0  0  0  0  0  0  0  0  0
    0.0501    1.3444    2.3424 C   0  0  0  0  0  0  0  0  0  0  0  0
    0.7826    0.3838    2.6797 O   0  0  0  0  0  0  0  0  0  0  0  0
   -0.2305    2.4089    3.2344 N   0  0  0  0  0  0  0  0  0  0  0  0
    0.2958    2.4050    4.4797 O   0  0  0  0  0  0  0  0  0  0  0  0
    2.2368   -0.6690    0.5128 N   0  0  0  0  0  0  0  0  0  0  0  0
    7.9237    0.2505   -1.4179 H   0  0  0  0  0  0  0  0  0  0  0  0
    9.0617   -0.9627   -0.7696 H   0  0  0  0  0  0  0  0  0  0  0  0
    7.5012   -1.4622   -1.6002 H   0  0  0  0  0  0  0  0  0  0  0  0
    7.0747   -1.7783    0.7635 H   0  0  0  0  0  0  0  0  0  0  0  0
    8.3600   -0.6260    2.2197 H   0  0  0  0  0  0  0  0  0  0  0  0
    8.7408    0.6369    1.0090 H   0  0  0  0  0  0  0  0  0  0  0  0
    7.1941    0.6884    2.0054 H   0  0  0  0  0  0  0  0  0  0  0  0
    5.9218    0.8413   -0.2597 H   0  0  0  0  0  0  0  0  0  0  0  0
   -0.4597   -0.7293    0.7018 H   0  0  0  0  0  0  0  0  0  0  0  0
   -0.1684   -0.6725   -1.6882 H   0  0  0  0  0  0  0  0  0  0  0  0
   -0.1832    1.1209   -1.7157 H   0  0  0  0  0  0  0  0  0  0  0  0
   -2.4273    0.2994   -2.3524 H   0  0  0  0  0  0  0  0  0  0  0  0
   -2.5470    1.1093   -0.7861 H   0  0  0  0  0  0  0  0  0  0  0  0
   -2.1530   -1.9461   -0.9992 H   0  0  0  0  0  0  0  0  0  0  0  0
   -2.4265   -0.9849    0.4717 H   0  0  0  0  0  0  0  0  0  0  0  0
   -4.4455   -1.9788   -0.1060 H   0  0  0  0  0  0  0  0  0  0  0  0
   -4.5367    1.0424   -0.6905 H   0  0  0  0  0  0  0  0  0  0  0  0
   -4.2606    0.2775    0.8991 H   0  0  0  0  0  0  0  0  0  0  0  0
   -6.6941    0.9626   -0.0447 H   0  0  0  0  0  0  0  0  0  0  0  0
   -6.4308   -0.4043    1.1020 H   0  0  0  0  0  0  0  0  0  0  0  0
   -7.8623   -0.8031   -1.1032 H   0  0  0  0  0  0  0  0  0  0  0  0
   -6.5765   -2.0412   -0.6585 H   0  0  0  0  0  0  0  0  0  0  0  0
   -6.5640   -1.3531   -3.0740 H   0  0  0  0  0  0  0  0  0  0  0  0
   -6.1351    0.2941   -2.5195 H   0  0  0  0  0  0  0  0  0  0  0  0
   -4.6698   -2.3713   -2.3557 H   0  0  0  0  0  0  0  0  0  0  0  0
   -4.0610   -0.7913   -2.9125 H   0  0  0  0  0  0  0  0  0  0  0  0
   -1.6644    1.5038    1.1159 H   0  0  0  0  0  0  0  0  0  0  0  0
   -0.2055    2.3613    0.5060 H   0  0  0  0  0  0  0  0  0  0  0  0
   -0.8524    3.2080    2.9272 H   0  0  0  0  0  0  0  0  0  0  0  0
    0.5676    3.3593    4.6641 H   0  0  0  0  0  0  0  0  0  0  0  0
  1  2  1  0
  2  3  1  0
  2  4  1  0
  4  5  1  0
  5  6  2  0
  5  7  1  0
  7  8  2  0
  8  9  1  0
  9 10  1  0
 10 11  1  0
 11 12  1  0
 12 13  1  0
 13 14  1  0
 14 15  1  0
 15 16  1  0
 16 17  1  0
 17 18  1  0
 18 19  1  0
 19 20  1  0
 11 21  1  0
 21 22  1  0
 22 23  2  0
 22 24  1  0
 24 25  1  0
 10 26  2  0
 26  7  1  0
 20 15  1  0
  1 27  1  0
  1 28  1  0
  1 29  1  0
  2 30  1  0
  3 31  1  0
  3 32  1  0
  3 33  1  0
  4 34  1  0
 11 35  1  1
 12 36  1  0
 12 37  1  0
 13 38  1  0
 13 39  1  0
 14 40  1  0
 14 41  1  0
 15 42  1  0
 16 43  1  0
 16 44  1  0
 17 45  1  0
 17 46  1  0
 18 47  1  0
 18 48  1  0
 19 49  1  0
 19 50  1  0
 20 51  1  0
 20 52  1  0
 21 53  1  0
 21 54  1  0
 24 55  1  0
 25 56  1  0
M  END
$$$$
