
     RDKit          3D

 64 67  0  0  0  0  0  0  0  0999 V2000
    7.6621   -0.9756    0.6843 C   0  0  1  0  0  0  0  0  0  0  0  0
    8.7858   -0.8586    1.4859 O   0  0  0  0  0  0  0  0  0  0  0  0
    6.5114   -0.4539    1.2525 O   0  0  0  0  0  0  0  0  0  0  0  0
    5.8683    0.3132    0.3126 C   0  0  2  0  0  0  0  0  0  0  0  0
    4.3625    0.2725    0.3956 C   0  0  0  0  0  0  0  0  0  0  0  0
    3.8768   -1.0003    0.2273 O   0  0  0  0  0  0  0  0  0  0  0  0
    2.1988   -0.9567    0.3329 P   0  0  0  0  0  0  0  0  0  0  0  0
    1.6707   -0.5826    1.8924 O   0  0  0  0  0  0  0  0  0  0  0  0
    1.6919   -2.3306   -0.0267 O   0  0  0  0  0  0  0  0  0  0  0  0
    1.6255    0.2222   -0.7196 O   0  0  0  0  0  0  0  0  0  0  0  0
    0.0940   -0.1394   -1.3377 P   0  0  0  0  0  0  0  0  0  0  0  0
    0.1835   -1.6484   -2.0844 O   0  0  0  0  0  0  0  0  0  0  0  0
   -0.2020    0.8811   -2.4190 O   0  0  0  0  0  0  0  0  0  0  0  0
   -1.0870   -0.0840   -0.1337 O   0  0  0  0  0  0  0  0  0  0  0  0
   -2.3322    0.2803   -0.6607 C   0  0  0  0  0  0  0  0  0  0  0  0
   -3.3299    0.3106    0.4525 C   0  0  1  0  0  0  0  0  0  0  0  0
   -4.6268    0.6693    0.0258 O   0  0  0  0  0  0  0  0  0  0  0  0
   -5.3275    0.5453    1.2214 C   0  0  1  0  0  0  0  0  0  0  0  0
   -6.7571    0.4917    1.0507 N   0  0  0  0  0  0  0  0  0  0  0  0
   -7.6159    0.7576    2.0626 C   0  0  0  0  0  0  0  0  0  0  0  0
   -8.8642    0.6362    1.6349 N   0  0  0  0  0  0  0  0  0  0  0  0
   -8.8298    0.2884    0.3341 C   0  0  0  0  0  0  0  0  0  0  0  0
   -9.8585    0.0484   -0.5415 C   0  0  0  0  0  0  0  0  0  0  0  0
  -11.2098    0.1661   -0.0731 N   0  0  0  0  0  0  0  0  0  0  0  0
   -9.5063   -0.2842   -1.7917 N   0  0  0  0  0  0  0  0  0  0  0  0
   -8.1910   -0.3674   -2.1301 C   0  0  0  0  0  0  0  0  0  0  0  0
   -7.1656   -0.1293   -1.2616 N   0  0  0  0  0  0  0  0  0  0  0  0
   -7.4929    0.2019   -0.0169 C   0  0  0  0  0  0  0  0  0  0  0  0
   -4.8788   -0.7599    1.8446 C   0  0  2  0  0  0  0  0  0  0  0  0
   -4.4434   -0.4536    3.1432 O   0  0  0  0  0  0  0  0  0  0  0  0
   -3.6166   -1.0602    1.0260 C   0  0  2  0  0  0  0  0  0  0  0  0
   -2.5992   -1.5351    1.8209 O   0  0  0  0  0  0  0  0  0  0  0  0
    6.3520   -0.1682   -1.0614 C   0  0  1  0  0  0  0  0  0  0  0  0
    6.2732    0.8775   -1.9527 O   0  0  0  0  0  0  0  0  0  0  0  0
    7.8157   -0.4361   -0.6982 C   0  0  1  0  0  0  0  0  0  0  0  0
    8.4299    0.8383   -0.7637 O   0  0  0  0  0  0  0  0  0  0  0  0
    9.4826    1.1037   -1.6348 C   0  0  0  0  0  0  0  0  0  0  0  0
   10.0401    2.4935   -1.6021 C   0  0  0  0  0  0  0  0  0  0  0  0
    9.8038    0.0984   -2.3300 O   0  0  0  0  0  0  0  0  0  0  0  0
    7.4704   -2.0772    0.5725 H   0  0  0  0  0  0  0  0  0  0  0  0
    8.5014   -1.1498    2.3900 H   0  0  0  0  0  0  0  0  0  0  0  0
    6.2205    1.3589    0.4274 H   0  0  0  0  0  0  0  0  0  0  0  0
    4.0680    0.7560    1.3373 H   0  0  0  0  0  0  0  0  0  0  0  0
    3.9921    0.9359   -0.4175 H   0  0  0  0  0  0  0  0  0  0  0  0
    2.3102   -0.0322    2.4040 H   0  0  0  0  0  0  0  0  0  0  0  0
    0.3585   -1.5871   -3.0643 H   0  0  0  0  0  0  0  0  0  0  0  0
   -2.2044    1.3264   -1.0072 H   0  0  0  0  0  0  0  0  0  0  0  0
   -2.6539   -0.3288   -1.5047 H   0  0  0  0  0  0  0  0  0  0  0  0
   -2.9857    0.9390    1.2774 H   0  0  0  0  0  0  0  0  0  0  0  0
   -5.0992    1.4266    1.8674 H   0  0  0  0  0  0  0  0  0  0  0  0
   -7.3402    1.0340    3.0902 H   0  0  0  0  0  0  0  0  0  0  0  0
  -11.4493   -0.1006    0.9043 H   0  0  0  0  0  0  0  0  0  0  0  0
  -12.0264    0.4997   -0.6065 H   0  0  0  0  0  0  0  0  0  0  0  0
   -8.0447   -0.6444   -3.1685 H   0  0  0  0  0  0  0  0  0  0  0  0
   -5.6173   -1.5604    1.8023 H   0  0  0  0  0  0  0  0  0  0  0  0
   -4.1581    0.5003    3.1914 H   0  0  0  0  0  0  0  0  0  0  0  0
   -3.8934   -1.8056    0.2394 H   0  0  0  0  0  0  0  0  0  0  0  0
   -2.4689   -0.9196    2.5827 H   0  0  0  0  0  0  0  0  0  0  0  0
    5.8230   -1.0856   -1.3570 H   0  0  0  0  0  0  0  0  0  0  0  0
    5.8046    0.5580   -2.7561 H   0  0  0  0  0  0  0  0  0  0  0  0
    8.2702   -1.1578   -1.4049 H   0  0  0  0  0  0  0  0  0  0  0  0
   10.8113    2.6481   -2.3570 H   0  0  0  0  0  0  0  0  0  0  0  0
    9.1922    3.1735   -1.8375 H   0  0  0  0  0  0  0  0  0  0  0  0
   10.3247    2.7116   -0.5658 H   0  0  0  0  0  0  0  0  0  0  0  0
  1  2  1  0
  1  3  1  0
  3  4  1  0
  4  5  1  0
  5  6  1  0
  6  7  1  0
  7  8  1  0
  7  9  2  0
  7 10  1  0
 10 11  1  0
 11 12  1  0
 11 13  2  0
 11 14  1  0
 14 15  1  0
 15 16  1  0
 16 17  1  0
 17 18  1  0
 18 19  1  0
 19 20  1  0
 20 21  2  0
 21 22  1  0
 22 23  2  0
 23 24  1  0
 23 25  1  0
 25 26  2  0
 26 27  1  0
 27 28  2  0
 18 29  1  0
 29 30  1  0
 29 31  1  0
 31 32  1  0
  4 33  1  0
 33 34  1  0
 33 35  1  0
 35 36  1  0
 36 37  1  0
 37 38  1  0
 37 39  2  0
 35  1  1  0
 31 16  1  0
 28 19  1  0
 28 22  1  0
  1 40  1  6
  2 41  1  0
  4 42  1  1
  5 43  1  0
  5 44  1  0
  8 45  1  0
 12 46  1  0
 15 47  1  0
 15 48  1  0
 16 49  1  1
 18 50  1  1
 20 51  1  0
 24 52  1  0
 24 53  1  0
 26 54  1  0
 29 55  1  1
 30 56  1  0
 31 57  1  6
 32 58  1  0
 33 59  1  6
 34 60  1  0
 35 61  1  6
 38 62  1  0
 38 63  1  0
 38 64  1  0
M  END
$$$$
