
     RDKit          3D

 69 73  0  0  0  0  0  0  0  0999 V2000
    9.8781    1.1833   -1.1457 C   0  0  0  0  0  0  0  0  0  0  0  0
    9.1723   -0.0864   -1.0531 N   0  0  0  0  0  0  0  0  0  0  0  0
    9.5629   -1.2498   -1.8023 C   0  0  0  0  0  0  0  0  0  0  0  0
    8.0352   -0.1780   -0.1723 C   0  0  0  0  0  0  0  0  0  0  0  0
    7.6371    0.9265    0.5600 C   0  0  0  0  0  0  0  0  0  0  0  0
    6.5612    0.8306    1.3912 C   0  0  0  0  0  0  0  0  0  0  0  0
    5.8323   -0.3385    1.5430 C   0  0  0  0  0  0  0  0  0  0  0  0
    4.7250   -0.3408    2.4337 N   0  0  0  0  0  0  0  0  0  0  0  0
    3.4213   -0.0088    1.9739 C   0  0  0  0  0  0  0  0  0  0  0  0
    3.3099    0.2788    0.7571 O   0  0  0  0  0  0  0  0  0  0  0  0
    2.2985    0.0167    2.7626 O   0  0  0  0  0  0  0  0  0  0  0  0
    1.0624    0.3628    2.1849 C   0  0  0  0  0  0  0  0  0  0  0  0
    0.6867    1.6853    2.0797 C   0  0  0  0  0  0  0  0  0  0  0  0
   -0.5107    2.0853    1.5236 C   0  0  0  0  0  0  0  0  0  0  0  0
   -1.3859    1.1279    1.0452 C   0  0  0  0  0  0  0  0  0  0  0  0
   -1.0281   -0.2021    1.1413 C   0  0  0  0  0  0  0  0  0  0  0  0
    0.1876   -0.5904    1.7067 C   0  0  0  0  0  0  0  0  0  0  0  0
   -2.1231   -0.9856    0.5678 C   0  0  2  0  0  0  0  0  0  0  0  0
   -2.3496   -2.2979    1.2775 C   0  0  0  0  0  0  0  0  0  0  0  0
   -2.0267   -1.1313   -0.9146 C   0  0  0  0  0  0  0  0  0  0  0  0
   -3.4822   -1.1316   -1.3388 C   0  0  0  0  0  0  0  0  0  0  0  0
   -4.2308   -0.4634   -0.3217 N   0  0  0  0  0  0  0  0  0  0  0  0
   -5.3061   -1.2473    0.2031 C   0  0  0  0  0  0  0  0  0  0  0  0
   -6.4391   -1.4931   -0.7417 C   0  0  0  0  0  0  0  0  0  0  0  0
   -7.0630   -0.2410   -1.1788 C   0  0  0  0  0  0  0  0  0  0  0  0
   -8.0909    0.3002   -0.4312 C   0  0  0  0  0  0  0  0  0  0  0  0
   -8.6951    1.4625   -0.8120 C   0  0  0  0  0  0  0  0  0  0  0  0
   -8.2682    2.0944   -1.9550 C   0  0  0  0  0  0  0  0  0  0  0  0
   -7.2552    1.5705   -2.7014 C   0  0  0  0  0  0  0  0  0  0  0  0
   -6.6463    0.3878   -2.3066 C   0  0  0  0  0  0  0  0  0  0  0  0
   -3.3323   -0.0647    0.7136 C   0  0  2  0  0  0  0  0  0  0  0  0
   -2.6785    1.2199    0.4285 N   0  0  0  0  0  0  0  0  0  0  0  0
   -3.1509    2.3642   -0.2967 C   0  0  0  0  0  0  0  0  0  0  0  0
    6.2355   -1.4297    0.8114 C   0  0  0  0  0  0  0  0  0  0  0  0
    7.3239   -1.3467   -0.0347 C   0  0  0  0  0  0  0  0  0  0  0  0
    9.1720    2.0312   -1.3113 H   0  0  0  0  0  0  0  0  0  0  0  0
   10.5892    1.1785   -1.9774 H   0  0  0  0  0  0  0  0  0  0  0  0
   10.3646    1.3424   -0.1475 H   0  0  0  0  0  0  0  0  0  0  0  0
    8.7444   -1.4566   -2.5404 H   0  0  0  0  0  0  0  0  0  0  0  0
   10.4919   -1.0330   -2.3799 H   0  0  0  0  0  0  0  0  0  0  0  0
    9.7066   -2.1152   -1.1543 H   0  0  0  0  0  0  0  0  0  0  0  0
    8.1880    1.8696    0.4679 H   0  0  0  0  0  0  0  0  0  0  0  0
    6.2553    1.7188    1.9685 H   0  0  0  0  0  0  0  0  0  0  0  0
    4.8647   -0.5871    3.4315 H   0  0  0  0  0  0  0  0  0  0  0  0
    1.3805    2.4310    2.4583 H   0  0  0  0  0  0  0  0  0  0  0  0
   -0.7896    3.1473    1.4494 H   0  0  0  0  0  0  0  0  0  0  0  0
    0.4899   -1.6225    1.7935 H   0  0  0  0  0  0  0  0  0  0  0  0
   -1.3928   -2.6535    1.7246 H   0  0  0  0  0  0  0  0  0  0  0  0
   -3.0510   -2.1463    2.1208 H   0  0  0  0  0  0  0  0  0  0  0  0
   -2.6789   -3.0923    0.5817 H   0  0  0  0  0  0  0  0  0  0  0  0
   -1.5025   -2.0535   -1.2352 H   0  0  0  0  0  0  0  0  0  0  0  0
   -1.5676   -0.2053   -1.3320 H   0  0  0  0  0  0  0  0  0  0  0  0
   -3.6111   -0.5817   -2.2995 H   0  0  0  0  0  0  0  0  0  0  0  0
   -3.8207   -2.1783   -1.5090 H   0  0  0  0  0  0  0  0  0  0  0  0
   -4.9598   -2.2652    0.5501 H   0  0  0  0  0  0  0  0  0  0  0  0
   -5.7138   -0.6915    1.0792 H   0  0  0  0  0  0  0  0  0  0  0  0
   -7.2200   -2.0768   -0.1753 H   0  0  0  0  0  0  0  0  0  0  0  0
   -6.1526   -2.1561   -1.5854 H   0  0  0  0  0  0  0  0  0  0  0  0
   -8.4197   -0.2115    0.4737 H   0  0  0  0  0  0  0  0  0  0  0  0
   -9.5026    1.9139   -0.2505 H   0  0  0  0  0  0  0  0  0  0  0  0
   -8.7684    3.0320   -2.2462 H   0  0  0  0  0  0  0  0  0  0  0  0
   -6.8997    2.0371   -3.5953 H   0  0  0  0  0  0  0  0  0  0  0  0
   -5.8510   -0.0249   -2.8968 H   0  0  0  0  0  0  0  0  0  0  0  0
   -3.7515   -0.0843    1.7253 H   0  0  0  0  0  0  0  0  0  0  0  0
   -2.5849    3.2596    0.0298 H   0  0  0  0  0  0  0  0  0  0  0  0
   -4.2359    2.5288   -0.1349 H   0  0  0  0  0  0  0  0  0  0  0  0
   -2.9882    2.2432   -1.4031 H   0  0  0  0  0  0  0  0  0  0  0  0
    5.6918   -2.3584    0.9035 H   0  0  0  0  0  0  0  0  0  0  0  0
    7.6566   -2.2088   -0.6245 H   0  0  0  0  0  0  0  0  0  0  0  0
  1  2  1  0
  2  3  1  0
  2  4  1  0
  4  5  2  0
  5  6  1  0
  6  7  2  0
  7  8  1  0
  8  9  1  0
  9 10  2  0
  9 11  1  0
 11 12  1  0
 12 13  2  0
 13 14  1  0
 14 15  2  0
 15 16  1  0
 16 17  2  0
 16 18  1  0
 18 19  1  1
 18 20  1  0
 20 21  1  0
 21 22  1  0
 22 23  1  0
 23 24  1  0
 24 25  1  0
 25 26  2  0
 26 27  1  0
 27 28  2  0
 28 29  1  0
 29 30  2  0
 22 31  1  0
 31 32  1  0
 32 33  1  0
  7 34  1  0
 34 35  2  0
 35  4  1  0
 17 12  1  0
 31 18  1  0
 32 15  1  0
 30 25  1  0
  1 36  1  0
  1 37  1  0
  1 38  1  0
  3 39  1  0
  3 40  1  0
  3 41  1  0
  5 42  1  0
  6 43  1  0
  8 44  1  0
 13 45  1  0
 14 46  1  0
 17 47  1  0
 19 48  1  0
 19 49  1  0
 19 50  1  0
 20 51  1  0
 20 52  1  0
 21 53  1  0
 21 54  1  0
 23 55  1  0
 23 56  1  0
 24 57  1  0
 24 58  1  0
 26 59  1  0
 27 60  1  0
 28 61  1  0
 29 62  1  0
 30 63  1  0
 31 64  1  1
 33 65  1  0
 33 66  1  0
 33 67  1  0
 34 68  1  0
 35 69  1  0
M  END
$$$$
