
     RDKit          3D

 60 64  0  0  0  0  0  0  0  0999 V2000
   -6.1995   -2.8375    0.3883 C   0  0  0  0  0  0  0  0  0  0  0  0
   -6.3453   -1.3983    0.7666 C   0  0  2  0  0  0  0  0  0  0  0  0
   -7.0786   -0.6592   -0.3789 C   0  0  2  0  0  0  0  0  0  0  0  0
   -6.3687   -0.9586   -1.5515 F   0  0  0  0  0  0  0  0  0  0  0  0
   -6.8371    0.7746   -0.0270 C   0  0  0  0  0  0  0  0  0  0  0  0
   -5.4839    0.7576    0.6240 C   0  0  0  0  0  0  0  0  0  0  0  0
   -5.1188   -0.6487    0.7858 N   0  0  0  0  0  0  0  0  0  0  0  0
   -3.7809   -1.1799    0.9187 C   0  0  0  0  0  0  0  0  0  0  0  0
   -3.6039   -2.3941    1.0943 O   0  0  0  0  0  0  0  0  0  0  0  0
   -2.6583   -0.2374    0.8400 C   0  0  2  0  0  0  0  0  0  0  0  0
   -2.5906    0.4975   -0.5354 C   0  0  0  0  0  0  0  0  0  0  0  0
   -1.4806   -0.3371    0.0299 C   0  0  1  0  0  0  0  0  0  0  0  0
   -0.2355    0.4154    0.4373 C   0  0  1  0  0  0  0  0  0  0  0  0
    0.3799   -0.2468    1.5993 C   0  0  0  0  0  0  0  0  0  0  0  0
    0.7569    0.5050   -0.6779 C   0  0  0  0  0  0  0  0  0  0  0  0
    2.0886    0.1045   -0.4225 C   0  0  0  0  0  0  0  0  0  0  0  0
    3.0929    0.2426   -1.3466 C   0  0  0  0  0  0  0  0  0  0  0  0
    4.4847   -0.0895   -1.1344 C   0  0  0  0  0  0  0  0  0  0  0  0
    5.2496    0.2196   -0.1111 C   0  0  0  0  0  0  0  0  0  0  0  0
    4.7611    0.9265    0.9096 F   0  0  0  0  0  0  0  0  0  0  0  0
    6.6396   -0.2783   -0.1902 C   0  0  0  0  0  0  0  0  0  0  0  0
    7.5854    0.0173    0.7578 C   0  0  0  0  0  0  0  0  0  0  0  0
    8.8815   -0.5216    0.7117 C   0  0  0  0  0  0  0  0  0  0  0  0
    9.2015   -1.3623   -0.3156 C   0  0  0  0  0  0  0  0  0  0  0  0
   10.4163   -2.1157   -0.4220 C   0  0  0  0  0  0  0  0  0  0  0  0
   11.4210   -2.7485   -0.5297 N   0  0  0  0  0  0  0  0  0  0  0  0
    8.2172   -1.6423   -1.2794 C   0  0  0  0  0  0  0  0  0  0  0  0
    7.0215   -1.1051   -1.1750 N   0  0  0  0  0  0  0  0  0  0  0  0
    2.7539    0.8026   -2.6004 C   0  0  0  0  0  0  0  0  0  0  0  0
    1.4799    1.1820   -2.8557 C   0  0  0  0  0  0  0  0  0  0  0  0
    0.4700    1.0466   -1.9140 C   0  0  0  0  0  0  0  0  0  0  0  0
   -0.7733    1.4134   -2.2036 F   0  0  0  0  0  0  0  0  0  0  0  0
   -0.5299    1.7922    0.7818 N   0  0  0  0  0  0  0  0  0  0  0  0
   -1.4480    2.2189    1.5407 C   0  0  0  0  0  0  0  0  0  0  0  0
   -1.7342    3.5564    1.8803 N   0  0  0  0  0  0  0  0  0  0  0  0
   -2.4903    0.9116    2.2443 S   0  0  0  0  0  0  0  0  0  0  0  0
   -6.0859   -3.4370    1.2899 H   0  0  0  0  0  0  0  0  0  0  0  0
   -5.3687   -2.9573   -0.3225 H   0  0  0  0  0  0  0  0  0  0  0  0
   -7.1556   -3.1188   -0.1219 H   0  0  0  0  0  0  0  0  0  0  0  0
   -6.9942   -1.2488    1.6272 H   0  0  0  0  0  0  0  0  0  0  0  0
   -8.1284   -0.9645   -0.4275 H   0  0  0  0  0  0  0  0  0  0  0  0
   -7.6349    1.0650    0.6785 H   0  0  0  0  0  0  0  0  0  0  0  0
   -6.8338    1.4166   -0.9545 H   0  0  0  0  0  0  0  0  0  0  0  0
   -5.5657    1.2338    1.6487 H   0  0  0  0  0  0  0  0  0  0  0  0
   -4.7851    1.3197    0.0087 H   0  0  0  0  0  0  0  0  0  0  0  0
   -2.4773    1.6072   -0.4284 H   0  0  0  0  0  0  0  0  0  0  0  0
   -3.2538    0.1180   -1.2924 H   0  0  0  0  0  0  0  0  0  0  0  0
   -1.2787   -1.2945   -0.4669 H   0  0  0  0  0  0  0  0  0  0  0  0
    1.2024    0.3613    2.0517 H   0  0  0  0  0  0  0  0  0  0  0  0
    0.8376   -1.2276    1.2720 H   0  0  0  0  0  0  0  0  0  0  0  0
   -0.3790   -0.4922    2.4016 H   0  0  0  0  0  0  0  0  0  0  0  0
    2.3428   -0.3067    0.5247 H   0  0  0  0  0  0  0  0  0  0  0  0
    4.9447   -0.6749   -1.9531 H   0  0  0  0  0  0  0  0  0  0  0  0
    7.3781    0.6668    1.6084 H   0  0  0  0  0  0  0  0  0  0  0  0
    9.6374   -0.3078    1.4528 H   0  0  0  0  0  0  0  0  0  0  0  0
    8.5055   -2.3002   -2.0872 H   0  0  0  0  0  0  0  0  0  0  0  0
    3.5235    0.9026   -3.3294 H   0  0  0  0  0  0  0  0  0  0  0  0
    1.1743    1.6104   -3.8390 H   0  0  0  0  0  0  0  0  0  0  0  0
   -1.0043    4.2692    2.0314 H   0  0  0  0  0  0  0  0  0  0  0  0
   -2.7447    3.8753    1.9876 H   0  0  0  0  0  0  0  0  0  0  0  0
  1  2  1  0
  2  3  1  0
  3  4  1  0
  3  5  1  0
  5  6  1  0
  6  7  1  0
  7  8  1  0
  8  9  2  0
 10  8  1  1
 10 11  1  0
 11 12  1  0
 12 13  1  0
 13 14  1  1
 13 15  1  0
 15 16  2  0
 16 17  1  0
 17 18  1  0
 18 19  2  0
 19 20  1  0
 19 21  1  0
 21 22  2  0
 22 23  1  0
 23 24  2  0
 24 25  1  0
 25 26  3  0
 24 27  1  0
 27 28  2  0
 17 29  2  0
 29 30  1  0
 30 31  2  0
 31 32  1  0
 13 33  1  0
 33 34  2  0
 34 35  1  0
 34 36  1  0
  7  2  1  0
 12 10  1  0
 31 15  1  0
 36 10  1  0
 28 21  1  0
  1 37  1  0
  1 38  1  0
  1 39  1  0
  2 40  1  1
  3 41  1  6
  5 42  1  0
  5 43  1  0
  6 44  1  0
  6 45  1  0
 11 46  1  0
 11 47  1  0
 12 48  1  6
 14 49  1  0
 14 50  1  0
 14 51  1  0
 16 52  1  0
 18 53  1  0
 22 54  1  0
 23 55  1  0
 27 56  1  0
 29 57  1  0
 30 58  1  0
 35 59  1  0
 35 60  1  0
M  END
$$$$
