
     RDKit          3D

150156  0  0  0  0  0  0  0  0999 V2000
   -2.7407    5.9406   -1.3147 C   0  0  2  0  0  0  0  0  0  0  0  0
   -2.2951    7.1664   -0.7075 N   0  0  0  0  0  0  0  0  0  0  0  0
   -4.0455    6.1922   -2.0590 C   0  0  0  0  0  0  0  0  0  0  0  0
   -3.8310    7.2141   -3.0929 C   0  0  0  0  0  0  0  0  0  0  0  0
   -3.4838    7.0813   -4.4038 C   0  0  0  0  0  0  0  0  0  0  0  0
   -3.3271    8.1835   -5.2155 C   0  0  0  0  0  0  0  0  0  0  0  0
   -3.5224    9.4510   -4.7001 C   0  0  0  0  0  0  0  0  0  0  0  0
   -3.8749    9.6308   -3.3773 C   0  0  0  0  0  0  0  0  0  0  0  0
   -4.0272    8.5010   -2.5774 C   0  0  0  0  0  0  0  0  0  0  0  0
   -3.0399    4.9753   -0.1933 C   0  0  0  0  0  0  0  0  0  0  0  0
   -4.2659    5.2303    0.4218 O   0  0  0  0  0  0  0  0  0  0  0  0
   -2.6281    3.9862    0.4585 N   0  0  0  0  0  0  0  0  0  0  0  0
   -1.3386    3.3414    0.1817 C   0  0  1  0  0  0  0  0  0  0  0  0
   -0.2630    4.1176    0.8296 C   0  0  0  0  0  0  0  0  0  0  0  0
    1.4113    3.5302    0.6934 S   0  0  0  0  0  0  0  0  0  0  0  0
    1.9850    3.3425   -1.3563 S   0  0  0  0  0  0  0  0  0  0  0  0
    1.6825    1.6027   -1.8450 C   0  0  0  0  0  0  0  0  0  0  0  0
    2.7394    0.7429   -1.1928 C   0  0  2  0  0  0  0  0  0  0  0  0
    2.4983   -0.6338   -1.4352 N   0  0  0  0  0  0  0  0  0  0  0  0
    3.1771   -1.4594   -2.1187 C   0  0  0  0  0  0  0  0  0  0  0  0
    4.2002   -0.6126   -2.5508 O   0  0  0  0  0  0  0  0  0  0  0  0
    2.9013   -2.8979   -2.3416 C   0  0  1  0  0  0  0  0  0  0  0  0
    1.7932   -3.3936   -1.6424 N   0  0  0  0  0  0  0  0  0  0  0  0
    1.3210   -3.2501   -0.5100 C   0  0  0  0  0  0  0  0  0  0  0  0
    1.9075   -2.4178    0.4583 O   0  0  0  0  0  0  0  0  0  0  0  0
    0.0667   -4.0101   -0.1895 C   0  0  2  0  0  0  0  0  0  0  0  0
   -0.0178   -5.2122   -1.1569 C   0  0  0  0  0  0  0  0  0  0  0  0
    1.1243   -6.1507   -1.0401 C   0  0  0  0  0  0  0  0  0  0  0  0
    0.9119   -7.2898   -2.0449 C   0  0  0  0  0  0  0  0  0  0  0  0
   -0.3612   -8.0466   -1.7773 C   0  0  0  0  0  0  0  0  0  0  0  0
   -0.4807   -9.1189   -2.7721 N   0  0  0  0  0  0  0  0  0  0  0  0
   -1.0356   -3.1689   -0.5717 N   0  0  0  0  0  0  0  0  0  0  0  0
   -2.1954   -3.1342   -0.0578 C   0  0  0  0  0  0  0  0  0  0  0  0
   -1.7771   -4.1153    0.8035 O   0  0  0  0  0  0  0  0  0  0  0  0
   -3.0681   -2.1484   -0.7079 C   0  0  1  0  0  0  0  0  0  0  0  0
   -4.3256   -2.7379   -1.2961 C   0  0  0  0  0  0  0  0  0  0  0  0
   -5.1575   -3.3855   -0.2837 C   0  0  0  0  0  0  0  0  0  0  0  0
   -6.2108   -2.7004    0.3300 C   0  0  0  0  0  0  0  0  0  0  0  0
   -6.8389   -3.4682    1.2644 N   0  0  0  0  0  0  0  0  0  0  0  0
   -6.2068   -4.6452    1.2647 C   0  0  0  0  0  0  0  0  0  0  0  0
   -6.3794   -5.8206    1.9703 C   0  0  0  0  0  0  0  0  0  0  0  0
   -5.5570   -6.9023    1.7366 C   0  0  0  0  0  0  0  0  0  0  0  0
   -4.5433   -6.8745    0.8119 C   0  0  0  0  0  0  0  0  0  0  0  0
   -4.3969   -5.6975    0.1301 C   0  0  0  0  0  0  0  0  0  0  0  0
   -5.1945   -4.6091    0.3391 C   0  0  0  0  0  0  0  0  0  0  0  0
   -3.4604   -1.1857    0.2694 N   0  0  0  0  0  0  0  0  0  0  0  0
   -2.7300   -0.5195    1.0709 C   0  0  0  0  0  0  0  0  0  0  0  0
   -3.6077    0.2647    1.7958 O   0  0  0  0  0  0  0  0  0  0  0  0
   -1.3236   -0.2579    1.5258 C   0  0  2  0  0  0  0  0  0  0  0  0
   -1.1942   -0.6981    2.9537 C   0  0  0  0  0  0  0  0  0  0  0  0
   -2.1065   -0.0113    3.8693 C   0  0  0  0  0  0  0  0  0  0  0  0
   -1.7190    1.2288    4.3736 C   0  0  0  0  0  0  0  0  0  0  0  0
   -2.4413    2.0136    5.2624 C   0  0  0  0  0  0  0  0  0  0  0  0
   -3.6575    1.5219    5.6871 C   0  0  0  0  0  0  0  0  0  0  0  0
   -4.4065    2.2629    6.5637 O   0  0  0  0  0  0  0  0  0  0  0  0
   -4.0925    0.3039    5.2246 C   0  0  0  0  0  0  0  0  0  0  0  0
   -3.3396   -0.4243    4.3525 C   0  0  0  0  0  0  0  0  0  0  0  0
   -1.1705    1.1849    1.4743 N   0  0  0  0  0  0  0  0  0  0  0  0
   -1.4224    1.9020    0.4386 C   0  0  0  0  0  0  0  0  0  0  0  0
   -1.8648    1.0651   -0.6235 O   0  0  0  0  0  0  0  0  0  0  0  0
    2.7165   -3.2343   -3.8285 C   0  0  0  0  0  0  0  0  0  0  0  0
    1.5707   -2.4555   -4.3987 C   0  0  0  0  0  0  0  0  0  0  0  0
    3.9842   -3.0293   -4.5884 C   0  0  0  0  0  0  0  0  0  0  0  0
    2.9017    1.0938    0.2446 C   0  0  0  0  0  0  0  0  0  0  0  0
    1.8394    0.7740    1.0659 O   0  0  0  0  0  0  0  0  0  0  0  0
    3.9091    1.6658    0.8476 N   0  0  0  0  0  0  0  0  0  0  0  0
    5.1181    2.0790    0.1785 C   0  0  1  0  0  0  0  0  0  0  0  0
    5.8119    3.2502    0.7653 C   0  0  0  0  0  0  0  0  0  0  0  0
    6.2570    3.1692    2.1496 C   0  0  0  0  0  0  0  0  0  0  0  0
    5.5097    3.8220    3.1474 C   0  0  0  0  0  0  0  0  0  0  0  0
    6.1060    3.6179    4.3563 N   0  0  0  0  0  0  0  0  0  0  0  0
    7.2121    2.8610    4.2089 C   0  0  0  0  0  0  0  0  0  0  0  0
    8.1969    2.3448    5.0394 C   0  0  0  0  0  0  0  0  0  0  0  0
    9.2391    1.5748    4.5061 C   0  0  0  0  0  0  0  0  0  0  0  0
    9.3248    1.3024    3.1329 C   0  0  0  0  0  0  0  0  0  0  0  0
    8.3033    1.8582    2.3918 C   0  0  0  0  0  0  0  0  0  0  0  0
    7.2763    2.6079    2.8744 C   0  0  0  0  0  0  0  0  0  0  0  0
    6.0190    0.9638   -0.1718 C   0  0  0  0  0  0  0  0  0  0  0  0
    7.1964    0.6081   -0.8510 O   0  0  0  0  0  0  0  0  0  0  0  0
    5.7463   -0.2073    0.2381 N   0  0  0  0  0  0  0  0  0  0  0  0
   -2.0312    5.4487   -1.9737 H   0  0  0  0  0  0  0  0  0  0  0  0
   -2.5690    7.1585    0.2995 H   0  0  0  0  0  0  0  0  0  0  0  0
   -1.2329    7.1279   -0.7096 H   0  0  0  0  0  0  0  0  0  0  0  0
   -4.8404    6.4405   -1.3296 H   0  0  0  0  0  0  0  0  0  0  0  0
   -4.3745    5.2225   -2.5096 H   0  0  0  0  0  0  0  0  0  0  0  0
   -3.3548    6.0650   -4.7087 H   0  0  0  0  0  0  0  0  0  0  0  0
   -3.0535    8.0460   -6.2479 H   0  0  0  0  0  0  0  0  0  0  0  0
   -3.4121   10.3617   -5.2959 H   0  0  0  0  0  0  0  0  0  0  0  0
   -4.0232   10.6410   -2.9885 H   0  0  0  0  0  0  0  0  0  0  0  0
   -4.3043    8.7466   -1.5495 H   0  0  0  0  0  0  0  0  0  0  0  0
   -4.3995    5.2300    1.4185 H   0  0  0  0  0  0  0  0  0  0  0  0
   -1.2360    3.5046   -0.9521 H   0  0  0  0  0  0  0  0  0  0  0  0
   -0.4689    4.2424    1.9428 H   0  0  0  0  0  0  0  0  0  0  0  0
   -0.3263    5.1993    0.4736 H   0  0  0  0  0  0  0  0  0  0  0  0
    1.6366    1.4709   -2.9232 H   0  0  0  0  0  0  0  0  0  0  0  0
    0.7093    1.3128   -1.4137 H   0  0  0  0  0  0  0  0  0  0  0  0
    3.6993    1.0474   -1.7322 H   0  0  0  0  0  0  0  0  0  0  0  0
    4.0788    0.0031   -3.3419 H   0  0  0  0  0  0  0  0  0  0  0  0
    3.8588   -3.4111   -1.9882 H   0  0  0  0  0  0  0  0  0  0  0  0
    2.9384   -2.4888    0.5509 H   0  0  0  0  0  0  0  0  0  0  0  0
    0.0515   -4.3366    0.8531 H   0  0  0  0  0  0  0  0  0  0  0  0
   -0.1273   -4.7549   -2.1599 H   0  0  0  0  0  0  0  0  0  0  0  0
   -0.9602   -5.7476   -0.9128 H   0  0  0  0  0  0  0  0  0  0  0  0
    2.1050   -5.7002   -1.2690 H   0  0  0  0  0  0  0  0  0  0  0  0
    1.2209   -6.5897   -0.0055 H   0  0  0  0  0  0  0  0  0  0  0  0
    0.7535   -6.7639   -3.0259 H   0  0  0  0  0  0  0  0  0  0  0  0
    1.7697   -7.9671   -2.0823 H   0  0  0  0  0  0  0  0  0  0  0  0
   -0.3860   -8.4861   -0.7609 H   0  0  0  0  0  0  0  0  0  0  0  0
   -1.2768   -7.4545   -1.8921 H   0  0  0  0  0  0  0  0  0  0  0  0
   -1.3608   -9.6474   -2.5746 H   0  0  0  0  0  0  0  0  0  0  0  0
   -0.5405   -8.6763   -3.7260 H   0  0  0  0  0  0  0  0  0  0  0  0
   -1.7059   -4.0063    1.8100 H   0  0  0  0  0  0  0  0  0  0  0  0
   -2.4875   -1.6375   -1.5489 H   0  0  0  0  0  0  0  0  0  0  0  0
   -4.9019   -1.9258   -1.8195 H   0  0  0  0  0  0  0  0  0  0  0  0
   -4.0320   -3.5233   -2.0437 H   0  0  0  0  0  0  0  0  0  0  0  0
   -6.5406   -1.6712    0.1289 H   0  0  0  0  0  0  0  0  0  0  0  0
   -7.6449   -3.1745    1.8441 H   0  0  0  0  0  0  0  0  0  0  0  0
   -7.1769   -5.8254    2.6863 H   0  0  0  0  0  0  0  0  0  0  0  0
   -5.7914   -7.7713    2.3511 H   0  0  0  0  0  0  0  0  0  0  0  0
   -3.9330   -7.7481    0.6737 H   0  0  0  0  0  0  0  0  0  0  0  0
   -3.5925   -5.6337   -0.6145 H   0  0  0  0  0  0  0  0  0  0  0  0
   -4.6081    0.2132    1.8029 H   0  0  0  0  0  0  0  0  0  0  0  0
   -0.5744   -0.7840    0.8877 H   0  0  0  0  0  0  0  0  0  0  0  0
   -1.2416   -1.8093    3.0531 H   0  0  0  0  0  0  0  0  0  0  0  0
   -0.1465   -0.4575    3.3132 H   0  0  0  0  0  0  0  0  0  0  0  0
   -0.7772    1.6521    4.0678 H   0  0  0  0  0  0  0  0  0  0  0  0
   -2.0846    2.9639    5.6087 H   0  0  0  0  0  0  0  0  0  0  0  0
   -5.2196    2.7997    6.2679 H   0  0  0  0  0  0  0  0  0  0  0  0
   -5.0453   -0.1237    5.5319 H   0  0  0  0  0  0  0  0  0  0  0  0
   -3.6588   -1.3994    3.9694 H   0  0  0  0  0  0  0  0  0  0  0  0
   -1.3366    0.1989   -0.8152 H   0  0  0  0  0  0  0  0  0  0  0  0
    2.4546   -4.3214   -3.8892 H   0  0  0  0  0  0  0  0  0  0  0  0
    1.1375   -1.7299   -3.6774 H   0  0  0  0  0  0  0  0  0  0  0  0
    0.7188   -3.1045   -4.7036 H   0  0  0  0  0  0  0  0  0  0  0  0
    1.8530   -1.9271   -5.3515 H   0  0  0  0  0  0  0  0  0  0  0  0
    4.6463   -3.9500   -4.5664 H   0  0  0  0  0  0  0  0  0  0  0  0
    4.6209   -2.2339   -4.1524 H   0  0  0  0  0  0  0  0  0  0  0  0
    3.7799   -2.7320   -5.6614 H   0  0  0  0  0  0  0  0  0  0  0  0
    1.9168    0.4463    2.0276 H   0  0  0  0  0  0  0  0  0  0  0  0
    4.7439    2.4572   -0.8380 H   0  0  0  0  0  0  0  0  0  0  0  0
    6.7435    3.4040    0.1275 H   0  0  0  0  0  0  0  0  0  0  0  0
    5.2389    4.2013    0.5519 H   0  0  0  0  0  0  0  0  0  0  0  0
    4.5982    4.4158    3.0679 H   0  0  0  0  0  0  0  0  0  0  0  0
    5.7883    3.9785    5.2929 H   0  0  0  0  0  0  0  0  0  0  0  0
    8.1277    2.5600    6.1054 H   0  0  0  0  0  0  0  0  0  0  0  0
    9.9851    1.1933    5.2075 H   0  0  0  0  0  0  0  0  0  0  0  0
   10.1375    0.7045    2.7508 H   0  0  0  0  0  0  0  0  0  0  0  0
    8.3932    1.6400    1.3294 H   0  0  0  0  0  0  0  0  0  0  0  0
    7.1682    0.1495   -1.7544 H   0  0  0  0  0  0  0  0  0  0  0  0
    4.9120   -0.3794    0.8053 H   0  0  0  0  0  0  0  0  0  0  0  0
  1  2  1  0
  1  3  1  0
  3  4  1  0
  4  5  2  0
  5  6  1  0
  6  7  2  0
  7  8  1  0
  8  9  2  0
  1 10  1  0
 10 11  1  0
 10 12  2  3
 12 13  1  0
 13 14  1  0
 14 15  1  0
 15 16  1  0
 16 17  1  0
 17 18  1  0
 18 19  1  0
 19 20  2  3
 20 21  1  0
 20 22  1  0
 22 23  1  0
 23 24  2  3
 24 25  1  0
 24 26  1  0
 26 27  1  0
 27 28  1  0
 28 29  1  0
 29 30  1  0
 30 31  1  0
 26 32  1  0
 32 33  2  3
 33 34  1  0
 33 35  1  0
 35 36  1  0
 36 37  1  0
 37 38  2  0
 38 39  1  0
 39 40  1  0
 40 41  2  0
 41 42  1  0
 42 43  2  0
 43 44  1  0
 44 45  2  0
 35 46  1  0
 46 47  2  3
 47 48  1  0
 47 49  1  0
 49 50  1  0
 50 51  1  0
 51 52  2  0
 52 53  1  0
 53 54  2  0
 54 55  1  0
 54 56  1  0
 56 57  2  0
 49 58  1  0
 58 59  2  3
 59 60  1  0
 22 61  1  0
 61 62  1  0
 61 63  1  0
 18 64  1  0
 64 65  1  0
 64 66  2  3
 66 67  1  0
 67 68  1  0
 68 69  1  0
 69 70  2  0
 70 71  1  0
 71 72  1  0
 72 73  2  0
 73 74  1  0
 74 75  2  0
 75 76  1  0
 76 77  2  0
 67 78  1  0
 78 79  1  0
 78 80  2  3
  9  4  1  0
 59 13  1  0
 77 69  1  0
 45 37  1  0
 57 51  1  0
 77 72  1  0
 45 40  1  0
  1 81  1  6
  2 82  1  0
  2 83  1  0
  3 84  1  0
  3 85  1  0
  5 86  1  0
  6 87  1  0
  7 88  1  0
  8 89  1  0
  9 90  1  0
 11 91  1  0
 13 92  1  6
 14 93  1  0
 14 94  1  0
 17 95  1  0
 17 96  1  0
 18 97  1  6
 21 98  1  0
 22 99  1  1
 25100  1  0
 26101  1  1
 27102  1  0
 27103  1  0
 28104  1  0
 28105  1  0
 29106  1  0
 29107  1  0
 30108  1  0
 30109  1  0
 31110  1  0
 31111  1  0
 34112  1  0
 35113  1  6
 36114  1  0
 36115  1  0
 38116  1  0
 39117  1  0
 41118  1  0
 42119  1  0
 43120  1  0
 44121  1  0
 48122  1  0
 49123  1  6
 50124  1  0
 50125  1  0
 52126  1  0
 53127  1  0
 55128  1  0
 56129  1  0
 57130  1  0
 60131  1  0
 61132  1  0
 62133  1  0
 62134  1  0
 62135  1  0
 63136  1  0
 63137  1  0
 63138  1  0
 65139  1  0
 67140  1  6
 68141  1  0
 68142  1  0
 70143  1  0
 71144  1  0
 73145  1  0
 74146  1  0
 75147  1  0
 76148  1  0
 79149  1  0
 80150  1  0
M  END
$$$$
