
     RDKit          3D

 40 40  0  0  0  0  0  0  0  0999 V2000
   -5.0358   -0.5223   -2.4693 C   0  0  0  0  0  0  0  0  0  0  0  0
   -4.7152   -0.5107   -1.0246 C   0  0  0  0  0  0  0  0  0  0  0  0
   -3.4047   -0.2515   -0.7096 C   0  0  0  0  0  0  0  0  0  0  0  0
   -2.8577   -0.1867    0.5453 C   0  0  0  0  0  0  0  0  0  0  0  0
   -1.7018    0.0294    1.1798 O   0  0  0  0  0  0  0  0  0  0  0  0
   -0.4308    0.2925    0.7568 C   0  0  0  0  0  0  0  0  0  0  0  0
    0.2802   -0.7657   -0.0450 C   0  0  0  0  0  0  0  0  0  0  0  0
   -0.3096   -1.1228   -1.2316 O   0  0  0  0  0  0  0  0  0  0  0  0
    1.6782   -0.2423   -0.4127 C   0  0  0  0  0  0  0  0  0  0  0  0
    2.4238    0.1739    0.7405 N   0  0  0  0  0  0  0  0  0  0  0  0
    3.7206    0.6500    0.3072 C   0  0  0  0  0  0  0  0  0  0  0  0
    4.5299   -0.4043   -0.4196 C   0  0  0  0  0  0  0  0  0  0  0  0
    4.5785    1.1004    1.4658 C   0  0  0  0  0  0  0  0  0  0  0  0
    3.5855    1.8335   -0.6263 C   0  0  0  0  0  0  0  0  0  0  0  0
   -3.7752   -0.4159    1.5922 C   0  0  0  0  0  0  0  0  0  0  0  0
   -3.5388   -0.4331    3.3412 Cl  0  0  0  0  0  0  0  0  0  0  0  0
   -5.1318   -0.6865    1.3384 C   0  0  0  0  0  0  0  0  0  0  0  0
   -5.5769   -0.7286    0.0187 C   0  0  0  0  0  0  0  0  0  0  0  0
   -5.2205    0.5165   -2.8665 H   0  0  0  0  0  0  0  0  0  0  0  0
   -4.2072   -1.0311   -3.0060 H   0  0  0  0  0  0  0  0  0  0  0  0
   -5.9920   -1.0713   -2.5930 H   0  0  0  0  0  0  0  0  0  0  0  0
   -2.6709   -0.0517   -1.4520 H   0  0  0  0  0  0  0  0  0  0  0  0
   -0.4094    1.2297    0.0963 H   0  0  0  0  0  0  0  0  0  0  0  0
    0.2469    0.6362    1.6107 H   0  0  0  0  0  0  0  0  0  0  0  0
    0.3772   -1.6656    0.6097 H   0  0  0  0  0  0  0  0  0  0  0  0
    0.3916   -1.5614   -1.7776 H   0  0  0  0  0  0  0  0  0  0  0  0
    2.2272   -1.0093   -0.9612 H   0  0  0  0  0  0  0  0  0  0  0  0
    1.4882    0.6825   -1.0234 H   0  0  0  0  0  0  0  0  0  0  0  0
    2.5416   -0.5966    1.4280 H   0  0  0  0  0  0  0  0  0  0  0  0
    4.1915   -0.5373   -1.4691 H   0  0  0  0  0  0  0  0  0  0  0  0
    5.5794   -0.0122   -0.4572 H   0  0  0  0  0  0  0  0  0  0  0  0
    4.5027   -1.3623    0.1597 H   0  0  0  0  0  0  0  0  0  0  0  0
    5.0536    0.1911    1.8894 H   0  0  0  0  0  0  0  0  0  0  0  0
    4.0194    1.6068    2.2533 H   0  0  0  0  0  0  0  0  0  0  0  0
    5.3872    1.7173    0.9984 H   0  0  0  0  0  0  0  0  0  0  0  0
    2.8125    2.5517   -0.2755 H   0  0  0  0  0  0  0  0  0  0  0  0
    3.3185    1.4330   -1.6274 H   0  0  0  0  0  0  0  0  0  0  0  0
    4.5910    2.3339   -0.6801 H   0  0  0  0  0  0  0  0  0  0  0  0
   -5.9468   -0.8806    2.0181 H   0  0  0  0  0  0  0  0  0  0  0  0
   -6.6000   -0.9287   -0.2851 H   0  0  0  0  0  0  0  0  0  0  0  0
  1  2  1  0
  2  3  2  0
  3  4  1  0
  4  5  1  0
  5  6  1  0
  6  7  1  0
  7  8  1  0
  7  9  1  0
  9 10  1  0
 10 11  1  0
 11 12  1  0
 11 13  1  0
 11 14  1  0
  4 15  2  0
 15 16  1  0
 15 17  1  0
 17 18  2  0
 18  2  1  0
  1 19  1  0
  1 20  1  0
  1 21  1  0
  3 22  1  0
  6 23  1  0
  6 24  1  0
  7 25  1  0
  8 26  1  0
  9 27  1  0
  9 28  1  0
 10 29  1  0
 12 30  1  0
 12 31  1  0
 12 32  1  0
 13 33  1  0
 13 34  1  0
 13 35  1  0
 14 36  1  0
 14 37  1  0
 14 38  1  0
 17 39  1  0
 18 40  1  0
M  END
$$$$
