
     RDKit          3D

 80 85  0  0  0  0  0  0  0  0999 V2000
   10.2977   -1.4047   -1.9002 C   0  0  0  0  0  0  0  0  0  0  0  0
    8.9794   -1.3228   -1.2216 C   0  0  0  0  0  0  0  0  0  0  0  0
    8.4360   -0.1048   -0.8771 C   0  0  0  0  0  0  0  0  0  0  0  0
    9.1188    1.1625   -1.1553 C   0  0  0  0  0  0  0  0  0  0  0  0
    7.2009   -0.0559   -0.2431 C   0  0  0  0  0  0  0  0  0  0  0  0
    6.6386    1.1598    0.1111 C   0  0  0  0  0  0  0  0  0  0  0  0
    5.4300    1.2021    0.7316 C   0  0  0  0  0  0  0  0  0  0  0  0
    4.7518    0.0431    1.0155 C   0  0  0  0  0  0  0  0  0  0  0  0
    3.5227    0.1172    1.6495 O   0  0  0  0  0  0  0  0  0  0  0  0
    2.8077   -1.0675    1.9532 C   0  0  0  0  0  0  0  0  0  0  0  0
    1.5093   -0.7804    2.6458 C   0  0  0  0  0  0  0  0  0  0  0  0
    0.5780    0.0034    1.9488 N   0  0  0  0  0  0  0  0  0  0  0  0
   -0.0552   -0.5169    0.7999 C   0  0  0  0  0  0  0  0  0  0  0  0
   -1.4893   -0.0023    0.8240 C   0  0  0  0  0  0  0  0  0  0  0  0
   -1.4852    1.3828    0.7719 N   0  0  0  0  0  0  0  0  0  0  0  0
   -2.4326    2.1273    0.0636 C   0  0  0  0  0  0  0  0  0  0  0  0
   -2.4635    2.1268   -1.3990 C   0  0  0  0  0  0  0  0  0  0  0  0
   -2.7304    0.9324   -2.1968 C   0  0  0  0  0  0  0  0  0  0  0  0
   -3.9737    0.2742   -2.1545 N   0  0  0  0  0  0  0  0  0  0  0  0
   -4.7389   -0.2827   -1.1435 C   0  0  0  0  0  0  0  0  0  0  0  0
   -5.7030    0.4306   -0.4784 C   0  0  0  0  0  0  0  0  0  0  0  0
   -6.4771   -0.1152    0.5259 C   0  0  0  0  0  0  0  0  0  0  0  0
   -6.2800   -1.4105    0.8718 N   0  0  0  0  0  0  0  0  0  0  0  0
   -5.3604   -2.1490    0.2600 C   0  0  0  0  0  0  0  0  0  0  0  0
   -5.2315   -3.4805    0.6772 C   0  0  0  0  0  0  0  0  0  0  0  0
   -4.2862   -4.2336    0.0337 C   0  0  0  0  0  0  0  0  0  0  0  0
   -3.4979   -3.7167   -0.9729 C   0  0  0  0  0  0  0  0  0  0  0  0
   -3.6513   -2.4085   -1.3554 C   0  0  0  0  0  0  0  0  0  0  0  0
   -4.5856   -1.6142   -0.7399 C   0  0  0  0  0  0  0  0  0  0  0  0
   -7.5293    0.5993    1.2773 C   0  0  0  0  0  0  0  0  0  0  0  0
   -7.8723    1.9469    0.7459 C   0  0  0  0  0  0  0  0  0  0  0  0
   -7.5391    2.0174   -0.7409 C   0  0  0  0  0  0  0  0  0  0  0  0
   -6.0062    1.8614   -0.8261 C   0  0  0  0  0  0  0  0  0  0  0  0
   -0.7009    2.0877    1.7306 C   0  0  0  0  0  0  0  0  0  0  0  0
    0.5582    1.3939    2.1565 C   0  0  0  0  0  0  0  0  0  0  0  0
    5.2782   -1.1788    0.6793 C   0  0  0  0  0  0  0  0  0  0  0  0
    6.5089   -1.2232    0.0471 C   0  0  0  0  0  0  0  0  0  0  0  0
    7.0692   -2.3599   -0.3015 O   0  0  0  0  0  0  0  0  0  0  0  0
    8.2338   -2.4417   -0.9016 C   0  0  0  0  0  0  0  0  0  0  0  0
    8.7422   -3.5570   -1.2225 O   0  0  0  0  0  0  0  0  0  0  0  0
   10.6276   -2.4682   -1.8287 H   0  0  0  0  0  0  0  0  0  0  0  0
   11.0770   -0.8054   -1.3876 H   0  0  0  0  0  0  0  0  0  0  0  0
   10.2182   -1.1747   -2.9796 H   0  0  0  0  0  0  0  0  0  0  0  0
    8.4941    1.7935   -1.8315 H   0  0  0  0  0  0  0  0  0  0  0  0
   10.1458    1.0436   -1.5249 H   0  0  0  0  0  0  0  0  0  0  0  0
    9.1890    1.7453   -0.1980 H   0  0  0  0  0  0  0  0  0  0  0  0
    7.1620    2.0738   -0.1059 H   0  0  0  0  0  0  0  0  0  0  0  0
    5.0143    2.1878    0.9977 H   0  0  0  0  0  0  0  0  0  0  0  0
    3.4366   -1.6608    2.6630 H   0  0  0  0  0  0  0  0  0  0  0  0
    2.7152   -1.6648    1.0421 H   0  0  0  0  0  0  0  0  0  0  0  0
    1.7890   -0.2080    3.5826 H   0  0  0  0  0  0  0  0  0  0  0  0
    1.1110   -1.7410    3.0439 H   0  0  0  0  0  0  0  0  0  0  0  0
    0.0284   -1.6001    0.7722 H   0  0  0  0  0  0  0  0  0  0  0  0
    0.4099   -0.0660   -0.1153 H   0  0  0  0  0  0  0  0  0  0  0  0
   -1.8988   -0.3221    1.8275 H   0  0  0  0  0  0  0  0  0  0  0  0
   -2.1249   -0.4626    0.0799 H   0  0  0  0  0  0  0  0  0  0  0  0
   -2.3417    3.2194    0.4128 H   0  0  0  0  0  0  0  0  0  0  0  0
   -3.4468    1.8363    0.4673 H   0  0  0  0  0  0  0  0  0  0  0  0
   -3.2252    2.9174   -1.7520 H   0  0  0  0  0  0  0  0  0  0  0  0
   -1.4686    2.5539   -1.7967 H   0  0  0  0  0  0  0  0  0  0  0  0
   -2.5623    1.2701   -3.2945 H   0  0  0  0  0  0  0  0  0  0  0  0
   -1.8478    0.2118   -2.1063 H   0  0  0  0  0  0  0  0  0  0  0  0
   -4.4587    0.1712   -3.1424 H   0  0  0  0  0  0  0  0  0  0  0  0
   -5.8717   -3.8559    1.4762 H   0  0  0  0  0  0  0  0  0  0  0  0
   -4.1817   -5.2680    0.3536 H   0  0  0  0  0  0  0  0  0  0  0  0
   -2.7688   -4.3718   -1.4384 H   0  0  0  0  0  0  0  0  0  0  0  0
   -3.0555   -1.9910   -2.1285 H   0  0  0  0  0  0  0  0  0  0  0  0
   -7.1530    0.6693    2.3356 H   0  0  0  0  0  0  0  0  0  0  0  0
   -8.4551   -0.0328    1.2884 H   0  0  0  0  0  0  0  0  0  0  0  0
   -7.1949    2.6853    1.2390 H   0  0  0  0  0  0  0  0  0  0  0  0
   -8.9352    2.2223    0.9127 H   0  0  0  0  0  0  0  0  0  0  0  0
   -8.0574    1.2605   -1.3308 H   0  0  0  0  0  0  0  0  0  0  0  0
   -7.7613    3.0197   -1.1021 H   0  0  0  0  0  0  0  0  0  0  0  0
   -5.7200    2.1031   -1.8510 H   0  0  0  0  0  0  0  0  0  0  0  0
   -5.6260    2.5498   -0.0534 H   0  0  0  0  0  0  0  0  0  0  0  0
   -0.4208    3.0719    1.3021 H   0  0  0  0  0  0  0  0  0  0  0  0
   -1.3435    2.3058    2.6169 H   0  0  0  0  0  0  0  0  0  0  0  0
    1.4649    1.8626    1.6823 H   0  0  0  0  0  0  0  0  0  0  0  0
    0.6886    1.5897    3.2613 H   0  0  0  0  0  0  0  0  0  0  0  0
    4.7760   -2.1134    0.8848 H   0  0  0  0  0  0  0  0  0  0  0  0
  1  2  1  0
  2  3  2  0
  3  4  1  0
  3  5  1  0
  5  6  2  0
  6  7  1  0
  7  8  2  0
  8  9  1  0
  9 10  1  0
 10 11  1  0
 11 12  1  0
 12 13  1  0
 13 14  1  0
 14 15  1  0
 15 16  1  0
 16 17  1  0
 17 18  1  0
 18 19  1  0
 19 20  1  0
 20 21  2  0
 21 22  1  0
 22 23  2  0
 23 24  1  0
 24 25  2  0
 25 26  1  0
 26 27  2  0
 27 28  1  0
 28 29  2  0
 22 30  1  0
 30 31  1  0
 31 32  1  0
 32 33  1  0
 15 34  1  0
 34 35  1  0
  8 36  1  0
 36 37  2  0
 37 38  1  0
 38 39  1  0
 39 40  2  0
 39  2  1  0
 37  5  1  0
 35 12  1  0
 29 20  1  0
 33 21  1  0
 29 24  1  0
  1 41  1  0
  1 42  1  0
  1 43  1  0
  4 44  1  0
  4 45  1  0
  4 46  1  0
  6 47  1  0
  7 48  1  0
 10 49  1  0
 10 50  1  0
 11 51  1  0
 11 52  1  0
 13 53  1  0
 13 54  1  0
 14 55  1  0
 14 56  1  0
 16 57  1  0
 16 58  1  0
 17 59  1  0
 17 60  1  0
 18 61  1  0
 18 62  1  0
 19 63  1  0
 25 64  1  0
 26 65  1  0
 27 66  1  0
 28 67  1  0
 30 68  1  0
 30 69  1  0
 31 70  1  0
 31 71  1  0
 32 72  1  0
 32 73  1  0
 33 74  1  0
 33 75  1  0
 34 76  1  0
 34 77  1  0
 35 78  1  0
 35 79  1  0
 36 80  1  0
M  END
$$$$
