
     RDKit          3D

 53 56  0  0  0  0  0  0  0  0999 V2000
   -1.3821    0.4034   -0.6732 C   0  0  2  0  0  0  0  0  0  0  0  0
   -2.2105    1.4156   -1.3444 C   0  0  0  0  0  0  0  0  0  0  0  0
   -3.6236    0.9124   -1.0170 C   0  0  0  0  0  0  0  0  0  0  0  0
   -3.4651   -0.0302    0.1696 C   0  0  2  0  0  0  0  0  0  0  0  0
   -3.7219   -1.4254   -0.2968 C   0  0  0  0  0  0  0  0  0  0  0  0
   -4.4007    0.2458    1.1748 O   0  0  0  0  0  0  0  0  0  0  0  0
   -2.0805    0.2572    0.6374 C   0  0  2  0  0  0  0  0  0  0  0  0
   -2.1168    1.5200    1.4588 C   0  0  0  0  0  0  0  0  0  0  0  0
   -1.3774   -0.7863    1.4028 C   0  0  0  0  0  0  0  0  0  0  0  0
   -0.2472   -1.4803    0.6446 C   0  0  2  0  0  0  0  0  0  0  0  0
    0.2421   -2.3489    1.6042 O   0  0  0  0  0  0  0  0  0  0  0  0
    0.6898   -0.6364   -0.0794 C   0  0  1  0  0  0  0  0  0  0  0  0
    0.8990   -1.1604   -1.3704 F   0  0  0  0  0  0  0  0  0  0  0  0
    0.0451    0.7150   -0.3947 C   0  0  1  0  0  0  0  0  0  0  0  0
    0.6487    1.2993   -1.6274 C   0  0  0  0  0  0  0  0  0  0  0  0
    2.1199    1.3463   -1.5654 C   0  0  0  0  0  0  0  0  0  0  0  0
    2.7644    0.4594   -0.5780 C   0  0  0  0  0  0  0  0  0  0  0  0
    4.1099    0.4733   -0.6457 C   0  0  0  0  0  0  0  0  0  0  0  0
    4.9071   -0.3311    0.2417 C   0  0  0  0  0  0  0  0  0  0  0  0
    6.1633   -0.2398    0.3912 O   0  0  0  0  0  0  0  0  0  0  0  0
    4.2619   -1.3704    1.0770 C   0  0  0  0  0  0  0  0  0  0  0  0
    2.9073   -1.6326    0.5120 C   0  0  0  0  0  0  0  0  0  0  0  0
    2.0527   -0.3946    0.4240 C   0  0  2  0  0  0  0  0  0  0  0  0
    2.0685    0.4370    1.6885 C   0  0  0  0  0  0  0  0  0  0  0  0
   -1.4517   -0.5452   -1.2072 H   0  0  0  0  0  0  0  0  0  0  0  0
   -2.0484    2.4567   -1.0693 H   0  0  0  0  0  0  0  0  0  0  0  0
   -2.0698    1.3660   -2.4597 H   0  0  0  0  0  0  0  0  0  0  0  0
   -4.0108    0.3631   -1.9019 H   0  0  0  0  0  0  0  0  0  0  0  0
   -4.3037    1.7435   -0.7928 H   0  0  0  0  0  0  0  0  0  0  0  0
   -3.7780   -2.1480    0.5212 H   0  0  0  0  0  0  0  0  0  0  0  0
   -3.0527   -1.8055   -1.0745 H   0  0  0  0  0  0  0  0  0  0  0  0
   -4.7399   -1.4169   -0.7585 H   0  0  0  0  0  0  0  0  0  0  0  0
   -4.8166    1.1410    1.0389 H   0  0  0  0  0  0  0  0  0  0  0  0
   -2.4431    2.4152    0.9344 H   0  0  0  0  0  0  0  0  0  0  0  0
   -1.1690    1.6442    2.0428 H   0  0  0  0  0  0  0  0  0  0  0  0
   -2.8835    1.3220    2.2589 H   0  0  0  0  0  0  0  0  0  0  0  0
   -2.1162   -1.5704    1.6740 H   0  0  0  0  0  0  0  0  0  0  0  0
   -1.0114   -0.4181    2.3960 H   0  0  0  0  0  0  0  0  0  0  0  0
   -0.8045   -2.1440   -0.0675 H   0  0  0  0  0  0  0  0  0  0  0  0
    0.1485   -3.3000    1.4023 H   0  0  0  0  0  0  0  0  0  0  0  0
    0.0871    1.4225    0.4396 H   0  0  0  0  0  0  0  0  0  0  0  0
    0.2798    2.3482   -1.7101 H   0  0  0  0  0  0  0  0  0  0  0  0
    0.2690    0.7837   -2.5374 H   0  0  0  0  0  0  0  0  0  0  0  0
    2.5370    2.3780   -1.3775 H   0  0  0  0  0  0  0  0  0  0  0  0
    2.5204    1.0547   -2.5660 H   0  0  0  0  0  0  0  0  0  0  0  0
    4.6673    1.0739   -1.3527 H   0  0  0  0  0  0  0  0  0  0  0  0
    4.8260   -2.3430    0.9691 H   0  0  0  0  0  0  0  0  0  0  0  0
    4.2924   -1.1649    2.1582 H   0  0  0  0  0  0  0  0  0  0  0  0
    3.0694   -1.9686   -0.5464 H   0  0  0  0  0  0  0  0  0  0  0  0
    2.5112   -2.4735    1.0573 H   0  0  0  0  0  0  0  0  0  0  0  0
    3.0398    0.4495    2.1839 H   0  0  0  0  0  0  0  0  0  0  0  0
    1.8819    1.5164    1.4106 H   0  0  0  0  0  0  0  0  0  0  0  0
    1.3155    0.1714    2.4256 H   0  0  0  0  0  0  0  0  0  0  0  0
  1  2  1  0
  2  3  1  0
  3  4  1  0
  4  5  1  0
  4  6  1  1
  4  7  1  0
  7  8  1  1
  7  9  1  0
  9 10  1  0
 10 11  1  0
 10 12  1  0
 12 13  1  6
 12 14  1  0
 14 15  1  0
 15 16  1  0
 16 17  1  0
 17 18  2  0
 18 19  1  0
 19 20  2  0
 19 21  1  0
 21 22  1  0
 22 23  1  0
 23 24  1  1
  7  1  1  0
 23 12  1  0
 14  1  1  0
 23 17  1  0
  1 25  1  6
  2 26  1  0
  2 27  1  0
  3 28  1  0
  3 29  1  0
  5 30  1  0
  5 31  1  0
  5 32  1  0
  6 33  1  0
  8 34  1  0
  8 35  1  0
  8 36  1  0
  9 37  1  0
  9 38  1  0
 10 39  1  6
 11 40  1  0
 14 41  1  1
 15 42  1  0
 15 43  1  0
 16 44  1  0
 16 45  1  0
 18 46  1  0
 21 47  1  0
 21 48  1  0
 22 49  1  0
 22 50  1  0
 24 51  1  0
 24 52  1  0
 24 53  1  0
M  END
$$$$
