
     RDKit          3D

 41 43  0  0  0  0  0  0  0  0999 V2000
    5.5630   -1.0133    3.2524 O   0  0  0  0  0  0  0  0  0  0  0  0
    5.4879    0.1264    2.7363 C   0  0  0  0  0  0  0  0  0  0  0  0
    6.1780    1.1604    3.3466 O   0  0  0  0  0  0  0  0  0  0  0  0
    4.6978    0.3609    1.5281 C   0  0  0  0  0  0  0  0  0  0  0  0
    4.6324    1.5114    1.0218 O   0  0  0  0  0  0  0  0  0  0  0  0
    3.9776   -0.6673    0.8729 N   0  0  0  0  0  0  0  0  0  0  0  0
    3.2025   -0.4596   -0.3045 C   0  0  0  0  0  0  0  0  0  0  0  0
    3.7868   -0.6012   -1.5525 C   0  0  0  0  0  0  0  0  0  0  0  0
    3.0800   -0.4110   -2.7264 C   0  0  0  0  0  0  0  0  0  0  0  0
    1.7479   -0.0689   -2.6271 C   0  0  0  0  0  0  0  0  0  0  0  0
    1.1157    0.0852   -1.4083 C   0  0  0  0  0  0  0  0  0  0  0  0
   -0.5549    0.5150   -1.3977 S   0  0  0  0  0  6  0  0  0  0  0  0
   -0.8353    1.3483   -2.6165 O   0  0  0  0  0  0  0  0  0  0  0  0
   -0.8834    1.3995   -0.2043 O   0  0  0  0  0  0  0  0  0  0  0  0
   -1.6085   -0.8310   -1.4061 N   0  0  0  0  0  0  0  0  0  0  0  0
   -1.4806   -1.6871   -0.2742 C   0  0  0  0  0  0  0  0  0  0  0  0
   -2.2368   -1.2594    0.9356 C   0  0  0  0  0  0  0  0  0  0  0  0
   -3.2033   -0.1650    0.6837 C   0  0  0  0  0  0  0  0  0  0  0  0
   -3.7485    0.4523    1.7996 C   0  0  0  0  0  0  0  0  0  0  0  0
   -4.6515    1.4747    1.6071 C   0  0  0  0  0  0  0  0  0  0  0  0
   -5.0361    1.9102    0.3552 C   0  0  0  0  0  0  0  0  0  0  0  0
   -4.4639    1.2624   -0.7245 C   0  0  0  0  0  0  0  0  0  0  0  0
   -3.5522    0.2301   -0.5716 C   0  0  0  0  0  0  0  0  0  0  0  0
   -2.9487   -0.4533   -1.7350 C   0  0  0  0  0  0  0  0  0  0  0  0
    1.8686   -0.1166   -0.2660 C   0  0  0  0  0  0  0  0  0  0  0  0
    7.0932    1.0066    3.7982 H   0  0  0  0  0  0  0  0  0  0  0  0
    4.0244   -1.6261    1.2839 H   0  0  0  0  0  0  0  0  0  0  0  0
    4.8406   -0.8722   -1.5732 H   0  0  0  0  0  0  0  0  0  0  0  0
    3.5369   -0.5218   -3.7014 H   0  0  0  0  0  0  0  0  0  0  0  0
    1.1834    0.0829   -3.5572 H   0  0  0  0  0  0  0  0  0  0  0  0
   -1.8555   -2.7051   -0.5700 H   0  0  0  0  0  0  0  0  0  0  0  0
   -0.4042   -1.7533   -0.0122 H   0  0  0  0  0  0  0  0  0  0  0  0
   -1.5605   -0.9115    1.7672 H   0  0  0  0  0  0  0  0  0  0  0  0
   -2.8168   -2.0991    1.3769 H   0  0  0  0  0  0  0  0  0  0  0  0
   -3.4631    0.1291    2.7980 H   0  0  0  0  0  0  0  0  0  0  0  0
   -5.0997    1.9822    2.4524 H   0  0  0  0  0  0  0  0  0  0  0  0
   -5.7484    2.7168    0.2528 H   0  0  0  0  0  0  0  0  0  0  0  0
   -4.7538    1.5906   -1.7289 H   0  0  0  0  0  0  0  0  0  0  0  0
   -2.9058    0.1976   -2.6322 H   0  0  0  0  0  0  0  0  0  0  0  0
   -3.5676   -1.3268   -2.0176 H   0  0  0  0  0  0  0  0  0  0  0  0
    1.3621    0.0071    0.6780 H   0  0  0  0  0  0  0  0  0  0  0  0
  1  2  2  0
  2  3  1  0
  2  4  1  0
  4  5  2  0
  4  6  1  0
  6  7  1  0
  7  8  2  0
  8  9  1  0
  9 10  2  0
 10 11  1  0
 11 12  1  0
 12 13  2  0
 12 14  2  0
 12 15  1  0
 15 16  1  0
 16 17  1  0
 17 18  1  0
 18 19  2  0
 19 20  1  0
 20 21  2  0
 21 22  1  0
 22 23  2  0
 23 24  1  0
 11 25  2  0
 25  7  1  0
 24 15  1  0
 23 18  1  0
  3 26  1  0
  6 27  1  0
  8 28  1  0
  9 29  1  0
 10 30  1  0
 16 31  1  0
 16 32  1  0
 17 33  1  0
 17 34  1  0
 19 35  1  0
 20 36  1  0
 21 37  1  0
 22 38  1  0
 24 39  1  0
 24 40  1  0
 25 41  1  0
M  END
$$$$
