
     RDKit          3D

 66 70  0  0  0  0  0  0  0  0999 V2000
   -4.3400    2.9187   -2.6923 C   0  0  0  0  0  0  0  0  0  0  0  0
   -4.6962    1.9068   -1.8362 O   0  0  0  0  0  0  0  0  0  0  0  0
   -3.7072    1.4128   -1.0478 C   0  0  0  0  0  0  0  0  0  0  0  0
   -3.9661    1.4471    0.4342 C   0  0  0  0  0  0  0  0  0  0  0  0
   -5.1058    0.7680    0.7732 O   0  0  0  0  0  0  0  0  0  0  0  0
   -4.9701   -0.5978    0.5255 C   0  0  0  0  0  0  0  0  0  0  0  0
   -4.6004   -0.8623   -0.9178 C   0  0  0  0  0  0  0  0  0  0  0  0
   -3.4492   -0.0771   -1.3892 C   0  0  0  0  0  0  0  0  0  0  0  0
   -2.1488   -0.3485   -1.0173 N   0  0  0  0  0  0  0  0  0  0  0  0
   -1.5154   -1.5812   -1.0969 C   0  0  2  0  0  0  0  0  0  0  0  0
   -1.8940   -2.5768   -0.0470 C   0  0  0  0  0  0  0  0  0  0  0  0
   -1.2826   -1.9399    1.1885 C   0  0  1  0  0  0  0  0  0  0  0  0
   -1.1055   -2.9341    2.3070 C   0  0  0  0  0  0  0  0  0  0  0  0
    0.3791   -3.2240    2.4016 C   0  0  0  0  0  0  0  0  0  0  0  0
    0.8562   -2.8620    1.0403 C   0  0  0  0  0  0  0  0  0  0  0  0
    0.1128   -1.6047    0.7207 C   0  0  2  0  0  0  0  0  0  0  0  0
    0.5703   -0.4120    1.4092 C   0  0  0  0  0  0  0  0  0  0  0  0
   -0.2311    0.1324    2.2150 O   0  0  0  0  0  0  0  0  0  0  0  0
    1.8458    0.2007    1.2569 N   0  0  0  0  0  0  0  0  0  0  0  0
    2.1744    1.3991    2.0066 C   0  0  0  0  0  0  0  0  0  0  0  0
    2.3200    2.5037    0.9634 C   0  0  0  0  0  0  0  0  0  0  0  0
    3.4990    2.1245    0.1293 C   0  0  0  0  0  0  0  0  0  0  0  0
    4.3526    3.0856   -0.3842 C   0  0  0  0  0  0  0  0  0  0  0  0
    5.4401    2.7427   -1.1529 C   0  0  0  0  0  0  0  0  0  0  0  0
    5.7109    1.4084   -1.4357 C   0  0  0  0  0  0  0  0  0  0  0  0
    6.8864    1.0564   -2.2653 C   0  0  0  0  0  0  0  0  0  0  0  0
    6.4806    0.6426   -3.5327 F   0  0  0  0  0  0  0  0  0  0  0  0
    7.6203    0.0147   -1.7382 F   0  0  0  0  0  0  0  0  0  0  0  0
    7.7292    2.1331   -2.3990 F   0  0  0  0  0  0  0  0  0  0  0  0
    4.8514    0.4876   -0.9153 C   0  0  0  0  0  0  0  0  0  0  0  0
    3.7523    0.7976   -0.1409 C   0  0  0  0  0  0  0  0  0  0  0  0
    2.8749   -0.3070    0.3787 C   0  0  0  0  0  0  0  0  0  0  0  0
   -0.0153   -1.4055   -0.7807 C   0  0  0  0  0  0  0  0  0  0  0  0
   -3.5524    2.6380   -3.4159 H   0  0  0  0  0  0  0  0  0  0  0  0
   -4.1214    3.8836   -2.1828 H   0  0  0  0  0  0  0  0  0  0  0  0
   -5.2505    3.1354   -3.3261 H   0  0  0  0  0  0  0  0  0  0  0  0
   -2.7590    1.9419   -1.2531 H   0  0  0  0  0  0  0  0  0  0  0  0
   -3.9518    2.4703    0.8520 H   0  0  0  0  0  0  0  0  0  0  0  0
   -3.1032    0.9176    0.9164 H   0  0  0  0  0  0  0  0  0  0  0  0
   -5.9675   -1.0531    0.6904 H   0  0  0  0  0  0  0  0  0  0  0  0
   -4.2392   -1.0502    1.1939 H   0  0  0  0  0  0  0  0  0  0  0  0
   -5.5078   -0.4508   -1.4929 H   0  0  0  0  0  0  0  0  0  0  0  0
   -4.6274   -1.9149   -1.1158 H   0  0  0  0  0  0  0  0  0  0  0  0
   -3.5041   -0.0728   -2.5271 H   0  0  0  0  0  0  0  0  0  0  0  0
   -1.5199    0.4243   -1.3274 H   0  0  0  0  0  0  0  0  0  0  0  0
   -1.4979   -2.0391   -2.1226 H   0  0  0  0  0  0  0  0  0  0  0  0
   -1.4347   -3.5720   -0.2516 H   0  0  0  0  0  0  0  0  0  0  0  0
   -2.9376   -2.7510    0.1409 H   0  0  0  0  0  0  0  0  0  0  0  0
   -1.8568   -1.0583    1.4666 H   0  0  0  0  0  0  0  0  0  0  0  0
   -1.7174   -3.8376    2.1862 H   0  0  0  0  0  0  0  0  0  0  0  0
   -1.4106   -2.4265    3.2640 H   0  0  0  0  0  0  0  0  0  0  0  0
    0.8715   -2.6033    3.1839 H   0  0  0  0  0  0  0  0  0  0  0  0
    0.5643   -4.3075    2.6468 H   0  0  0  0  0  0  0  0  0  0  0  0
    1.9455   -2.7893    0.9312 H   0  0  0  0  0  0  0  0  0  0  0  0
    0.5162   -3.6407    0.3269 H   0  0  0  0  0  0  0  0  0  0  0  0
    3.1332    1.2852    2.5424 H   0  0  0  0  0  0  0  0  0  0  0  0
    1.3367    1.7136    2.6619 H   0  0  0  0  0  0  0  0  0  0  0  0
    1.4459    2.4960    0.2787 H   0  0  0  0  0  0  0  0  0  0  0  0
    2.4635    3.4943    1.4392 H   0  0  0  0  0  0  0  0  0  0  0  0
    4.1629    4.1130   -0.1793 H   0  0  0  0  0  0  0  0  0  0  0  0
    6.1316    3.4735   -1.5723 H   0  0  0  0  0  0  0  0  0  0  0  0
    5.0666   -0.5684   -1.1396 H   0  0  0  0  0  0  0  0  0  0  0  0
    2.5114   -0.8435   -0.4959 H   0  0  0  0  0  0  0  0  0  0  0  0
    3.5499   -0.9193    1.0252 H   0  0  0  0  0  0  0  0  0  0  0  0
    0.5914   -2.1524   -1.3297 H   0  0  0  0  0  0  0  0  0  0  0  0
    0.2398   -0.3853   -1.0856 H   0  0  0  0  0  0  0  0  0  0  0  0
  1  2  1  0
  2  3  1  0
  3  4  1  0
  4  5  1  0
  5  6  1  0
  6  7  1  0
  7  8  1  0
  8  9  1  0
  9 10  1  0
 10 11  1  0
 11 12  1  0
 12 13  1  0
 13 14  1  0
 14 15  1  0
 15 16  1  0
 16 17  1  1
 17 18  2  0
 17 19  1  0
 19 20  1  0
 20 21  1  0
 21 22  1  0
 22 23  2  0
 23 24  1  0
 24 25  2  0
 25 26  1  0
 26 27  1  0
 26 28  1  0
 26 29  1  0
 25 30  1  0
 30 31  2  0
 31 32  1  0
 16 33  1  0
  8  3  1  0
 33 10  1  0
 16 12  1  0
 32 19  1  0
 31 22  1  0
  1 34  1  0
  1 35  1  0
  1 36  1  0
  3 37  1  0
  4 38  1  0
  4 39  1  0
  6 40  1  0
  6 41  1  0
  7 42  1  0
  7 43  1  0
  8 44  1  0
  9 45  1  0
 10 46  1  6
 11 47  1  0
 11 48  1  0
 12 49  1  1
 13 50  1  0
 13 51  1  0
 14 52  1  0
 14 53  1  0
 15 54  1  0
 15 55  1  0
 20 56  1  0
 20 57  1  0
 21 58  1  0
 21 59  1  0
 23 60  1  0
 24 61  1  0
 30 62  1  0
 32 63  1  0
 32 64  1  0
 33 65  1  0
 33 66  1  0
M  END
$$$$
