
     RDKit          3D

 47 50  0  0  0  0  0  0  0  0999 V2000
    5.2935   -1.9960   -1.1970 N   0  0  0  0  0  0  0  0  0  0  0  0
    3.9767   -1.5415   -0.9389 C   0  0  0  0  0  0  0  0  0  0  0  0
    3.0682   -1.9590   -1.6997 O   0  0  0  0  0  0  0  0  0  0  0  0
    3.6408   -0.6365    0.1405 C   0  0  0  0  0  0  0  0  0  0  0  0
    4.5626   -0.1131    1.0397 C   0  0  0  0  0  0  0  0  0  0  0  0
    3.8524    0.6694    1.8696 N   0  0  0  0  0  0  0  0  0  0  0  0
    2.5574    0.6366    1.5086 C   0  0  0  0  0  0  0  0  0  0  0  0
    1.4551    1.2791    2.0623 C   0  0  0  0  0  0  0  0  0  0  0  0
    0.2015    1.0994    1.5227 C   0  0  0  0  0  0  0  0  0  0  0  0
    0.0550    0.2738    0.4264 C   0  0  0  0  0  0  0  0  0  0  0  0
   -1.2589    0.0735   -0.1552 C   0  0  0  0  0  0  0  0  0  0  0  0
   -2.0330    1.0514   -0.7312 C   0  0  0  0  0  0  0  0  0  0  0  0
   -1.6640    2.4670   -0.8575 C   0  0  0  0  0  0  0  0  0  0  0  0
   -2.4543    3.4061   -0.2356 C   0  0  0  0  0  0  0  0  0  0  0  0
   -2.1510    4.7286   -0.3256 C   0  0  0  0  0  0  0  0  0  0  0  0
   -1.0449    5.1428   -1.0434 C   0  0  0  0  0  0  0  0  0  0  0  0
   -0.7085    6.4561   -1.1565 F   0  0  0  0  0  0  0  0  0  0  0  0
   -0.2558    4.1951   -1.6653 C   0  0  0  0  0  0  0  0  0  0  0  0
   -0.5651    2.8615   -1.5722 C   0  0  0  0  0  0  0  0  0  0  0  0
   -3.1528    0.4386   -1.1325 N   0  0  0  0  0  0  0  0  0  0  0  0
   -3.0940   -0.8759   -0.8245 C   0  0  0  0  0  0  0  0  0  0  0  0
   -1.9338   -1.1124   -0.2231 N   0  0  0  0  0  0  0  0  0  0  0  0
   -1.4808   -2.3817    0.2629 C   0  0  0  0  0  0  0  0  0  0  0  0
   -1.3565   -2.4139    1.7728 C   0  0  0  0  0  0  0  0  0  0  0  0
   -0.9138   -3.6690    2.1874 O   0  0  0  0  0  0  0  0  0  0  0  0
   -2.4828   -3.4502   -0.1144 C   0  0  0  0  0  0  0  0  0  0  0  0
   -2.6672   -3.5664   -1.4762 O   0  0  0  0  0  0  0  0  0  0  0  0
    1.1811   -0.3387   -0.0829 C   0  0  0  0  0  0  0  0  0  0  0  0
    2.4151   -0.1723    0.4347 N   0  0  0  0  0  0  0  0  0  0  0  0
    5.6643   -2.9271   -0.8933 H   0  0  0  0  0  0  0  0  0  0  0  0
    5.9985   -1.4024   -1.7274 H   0  0  0  0  0  0  0  0  0  0  0  0
    5.6245   -0.2639    1.1076 H   0  0  0  0  0  0  0  0  0  0  0  0
    1.5597    1.9337    2.9286 H   0  0  0  0  0  0  0  0  0  0  0  0
   -0.6772    1.5834    1.9276 H   0  0  0  0  0  0  0  0  0  0  0  0
   -3.3331    3.1139    0.3381 H   0  0  0  0  0  0  0  0  0  0  0  0
   -2.7590    5.4982    0.1569 H   0  0  0  0  0  0  0  0  0  0  0  0
    0.6332    4.4850   -2.2461 H   0  0  0  0  0  0  0  0  0  0  0  0
    0.0527    2.1098   -2.0598 H   0  0  0  0  0  0  0  0  0  0  0  0
   -3.9183   -1.5521   -1.0718 H   0  0  0  0  0  0  0  0  0  0  0  0
   -0.5384   -2.6345   -0.2356 H   0  0  0  0  0  0  0  0  0  0  0  0
   -0.5372   -1.6934    2.0282 H   0  0  0  0  0  0  0  0  0  0  0  0
   -2.2966   -2.2123    2.2813 H   0  0  0  0  0  0  0  0  0  0  0  0
   -0.3314   -4.1147    1.5483 H   0  0  0  0  0  0  0  0  0  0  0  0
   -2.2318   -4.4326    0.3454 H   0  0  0  0  0  0  0  0  0  0  0  0
   -3.4564   -3.1517    0.3764 H   0  0  0  0  0  0  0  0  0  0  0  0
   -3.5813   -3.9065   -1.6638 H   0  0  0  0  0  0  0  0  0  0  0  0
    1.0856   -0.9850   -0.9364 H   0  0  0  0  0  0  0  0  0  0  0  0
  1  2  1  0
  2  3  2  0
  2  4  1  0
  4  5  2  0
  5  6  1  0
  6  7  2  0
  7  8  1  0
  8  9  2  0
  9 10  1  0
 10 11  1  0
 11 12  2  0
 12 13  1  0
 13 14  2  0
 14 15  1  0
 15 16  2  0
 16 17  1  0
 16 18  1  0
 18 19  2  0
 12 20  1  0
 20 21  2  0
 21 22  1  0
 22 23  1  0
 23 24  1  0
 24 25  1  0
 23 26  1  0
 26 27  1  0
 10 28  2  0
 28 29  1  0
 29  4  1  0
 29  7  1  0
 22 11  1  0
 19 13  1  0
  1 30  1  0
  1 31  1  0
  5 32  1  0
  8 33  1  0
  9 34  1  0
 14 35  1  0
 15 36  1  0
 18 37  1  0
 19 38  1  0
 21 39  1  0
 23 40  1  0
 24 41  1  0
 24 42  1  0
 25 43  1  0
 26 44  1  0
 26 45  1  0
 27 46  1  0
 28 47  1  0
M  END
$$$$
