
     RDKit          3D

  5  4  0  0  0  0  0  0  0  0999 V2000
    0.8746   -0.4359    0.1475 O   0  0  0  0  0  0  0  0  0  0  0  0
   -0.4646   -0.0815    0.0369 C   0  0  0  0  0  0  0  0  0  0  0  0
   -0.7528    1.1313   -0.0172 O   0  0  0  0  0  0  0  0  0  0  0  0
    1.6197    0.1798   -0.1616 H   0  0  0  0  0  0  0  0  0  0  0  0
   -1.2770   -0.7937   -0.0056 H   0  0  0  0  0  0  0  0  0  0  0  0
  1  2  1  0
  2  3  2  0
  1  4  1  0
  2  5  1  0
M  END
$$$$
