
     RDKit          3D

 57 61  0  0  0  0  0  0  0  0999 V2000
   -4.9177    0.6260    0.2509 O   0  0  0  0  0  0  0  0  0  0  0  0
   -4.4449   -0.2276   -0.5181 C   0  0  0  0  0  0  0  0  0  0  0  0
   -3.0630   -0.4350   -0.5749 N   0  0  0  0  0  0  0  0  0  0  0  0
   -2.0459    0.1973    0.1577 C   0  0  0  0  0  0  0  0  0  0  0  0
   -2.3351    1.0793    1.1631 C   0  0  0  0  0  0  0  0  0  0  0  0
   -1.2845    1.6979    1.8627 C   0  0  0  0  0  0  0  0  0  0  0  0
    0.0045    1.4042    1.5220 C   0  0  0  0  0  0  0  0  0  0  0  0
    0.3197    0.5195    0.5124 C   0  0  0  0  0  0  0  0  0  0  0  0
    1.7136    0.2258    0.1825 C   0  0  0  0  0  0  0  0  0  0  0  0
    2.1031   -0.6389   -0.8090 C   0  0  0  0  0  0  0  0  0  0  0  0
    3.4069   -0.8506   -1.0426 N   0  0  0  0  0  0  0  0  0  0  0  0
    4.0249   -1.6547   -1.9666 C   0  0  0  0  0  0  0  0  0  0  0  0
    5.3925   -1.5390   -1.8253 C   0  0  0  0  0  0  0  0  0  0  0  0
    5.5773   -0.6593   -0.8093 N   0  0  0  0  0  0  0  0  0  0  0  0
    4.3842   -0.2737   -0.3712 C   0  0  0  0  0  0  0  0  0  0  0  0
    4.0183    0.6470    0.6859 C   0  0  0  0  0  0  0  0  0  0  0  0
    5.0730    1.1863    1.3435 N   0  0  0  0  0  0  0  0  0  0  0  0
    6.1252    1.7247    2.0000 C   0  0  0  0  0  0  0  0  0  0  0  0
    7.4764    1.2114    1.5011 C   0  0  0  0  0  0  0  0  0  0  0  0
    8.0751    0.1123    2.0670 C   0  0  0  0  0  0  0  0  0  0  0  0
    9.2978   -0.3343    1.5856 C   0  0  0  0  0  0  0  0  0  0  0  0
    9.8519    0.3457    0.5649 N   0  0  0  0  0  0  0  0  0  0  0  0
    9.2999    1.4173   -0.0095 C   0  0  0  0  0  0  0  0  0  0  0  0
    8.0797    1.8768    0.4582 C   0  0  0  0  0  0  0  0  0  0  0  0
    2.7127    0.8131    0.8663 N   0  0  0  0  0  0  0  0  0  0  0  0
   -0.7055   -0.0674   -0.1509 C   0  0  0  0  0  0  0  0  0  0  0  0
   -5.3772   -0.9559   -1.3118 N   0  0  0  0  0  0  0  0  0  0  0  0
   -6.7762   -0.7801   -1.3034 C   0  0  0  0  0  0  0  0  0  0  0  0
   -7.4182    0.0572   -2.1817 C   0  0  0  0  0  0  0  0  0  0  0  0
   -8.7868    0.2408   -2.1962 C   0  0  0  0  0  0  0  0  0  0  0  0
   -9.5834   -0.4394   -1.2910 C   0  0  0  0  0  0  0  0  0  0  0  0
   -8.9451   -1.2840   -0.4023 C   0  0  0  0  0  0  0  0  0  0  0  0
   -9.8163   -2.0131    0.5709 C   0  0  0  0  0  0  0  0  0  0  0  0
   -9.0111   -2.5007    1.5726 F   0  0  0  0  0  0  0  0  0  0  0  0
  -10.7207   -1.1215    1.1097 F   0  0  0  0  0  0  0  0  0  0  0  0
  -10.5022   -3.0399   -0.0283 F   0  0  0  0  0  0  0  0  0  0  0  0
   -7.5787   -1.4694   -0.3863 C   0  0  0  0  0  0  0  0  0  0  0  0
   -2.7429   -1.1854   -1.2776 H   0  0  0  0  0  0  0  0  0  0  0  0
   -3.3368    1.3503    1.4856 H   0  0  0  0  0  0  0  0  0  0  0  0
   -1.5544    2.3894    2.6522 H   0  0  0  0  0  0  0  0  0  0  0  0
    0.8147    1.8761    2.0552 H   0  0  0  0  0  0  0  0  0  0  0  0
    1.3711   -1.1468   -1.3985 H   0  0  0  0  0  0  0  0  0  0  0  0
    3.4725   -2.2637   -2.6722 H   0  0  0  0  0  0  0  0  0  0  0  0
    6.1486   -2.0479   -2.4085 H   0  0  0  0  0  0  0  0  0  0  0  0
    4.2353    1.9325    2.1320 H   0  0  0  0  0  0  0  0  0  0  0  0
    6.2015    1.4925    3.1063 H   0  0  0  0  0  0  0  0  0  0  0  0
    6.2470    2.8515    1.9476 H   0  0  0  0  0  0  0  0  0  0  0  0
    7.5798   -0.3843    2.8800 H   0  0  0  0  0  0  0  0  0  0  0  0
    9.7863   -1.2073    2.0246 H   0  0  0  0  0  0  0  0  0  0  0  0
    9.8119    1.9209   -0.8421 H   0  0  0  0  0  0  0  0  0  0  0  0
    7.5922    2.7397    0.0273 H   0  0  0  0  0  0  0  0  0  0  0  0
   -0.5040   -0.7621   -0.9407 H   0  0  0  0  0  0  0  0  0  0  0  0
   -4.9742   -1.6838   -1.9579 H   0  0  0  0  0  0  0  0  0  0  0  0
   -6.7634    0.5879   -2.8928 H   0  0  0  0  0  0  0  0  0  0  0  0
   -9.2417    0.9105   -2.9116 H   0  0  0  0  0  0  0  0  0  0  0  0
  -10.6721   -0.3300   -1.2581 H   0  0  0  0  0  0  0  0  0  0  0  0
   -7.0957   -2.1377    0.3206 H   0  0  0  0  0  0  0  0  0  0  0  0
  1  2  2  0
  2  3  1  0
  3  4  1  0
  4  5  2  0
  5  6  1  0
  6  7  2  0
  7  8  1  0
  8  9  1  0
  9 10  2  0
 10 11  1  0
 11 12  1  0
 12 13  2  0
 13 14  1  0
 14 15  2  0
 15 16  1  0
 16 17  1  0
 17 18  1  0
 18 19  1  0
 19 20  2  0
 20 21  1  0
 21 22  2  0
 22 23  1  0
 23 24  2  0
 16 25  2  0
  8 26  2  0
  2 27  1  0
 27 28  1  0
 28 29  2  0
 29 30  1  0
 30 31  2  0
 31 32  1  0
 32 33  1  0
 33 34  1  0
 33 35  1  0
 33 36  1  0
 32 37  2  0
 26  4  1  0
 37 28  1  0
 25  9  1  0
 15 11  1  0
 24 19  1  0
  3 38  1  0
  5 39  1  0
  6 40  1  0
  7 41  1  0
 10 42  1  0
 12 43  1  0
 13 44  1  0
 17 45  1  0
 18 46  1  0
 18 47  1  0
 20 48  1  0
 21 49  1  0
 23 50  1  0
 24 51  1  0
 26 52  1  0
 27 53  1  0
 29 54  1  0
 30 55  1  0
 31 56  1  0
 37 57  1  0
M  END
$$$$
