
     RDKit          3D

 47 50  0  0  0  0  0  0  0  0999 V2000
   -0.0528   -2.0728    1.1767 O   0  0  0  0  0  0  0  0  0  0  0  0
    0.0523   -0.8933    0.6659 C   0  0  0  0  0  0  0  0  0  0  0  0
    1.4004   -0.3795    0.7536 C   0  0  0  0  0  0  0  0  0  0  0  0
    1.7503    0.5316    1.7073 C   0  0  0  0  0  0  0  0  0  0  0  0
    3.0094    1.0313    1.7922 C   0  0  0  0  0  0  0  0  0  0  0  0
    3.9972    0.6416    0.9152 C   0  0  0  0  0  0  0  0  0  0  0  0
    5.2795    1.1101    0.9655 C   0  0  0  0  0  0  0  0  0  0  0  0
    6.2799    0.7144    0.0955 C   0  0  0  0  0  0  0  0  0  0  0  0
    5.9270   -0.2123   -0.8765 C   0  0  0  0  0  0  0  0  0  0  0  0
    4.6529   -0.7119   -0.9687 C   0  0  0  0  0  0  0  0  0  0  0  0
    3.6763   -0.2936   -0.0788 C   0  0  0  0  0  0  0  0  0  0  0  0
    2.3926   -0.7792   -0.1363 C   0  0  0  0  0  0  0  0  0  0  0  0
   -1.0893   -0.2851    0.1108 N   0  0  0  0  0  0  0  0  0  0  0  0
   -1.2597    0.9877   -0.4612 C   0  0  0  0  0  0  0  0  0  0  0  0
   -1.0618    2.2303    0.3903 C   0  0  0  0  0  0  0  0  0  0  0  0
   -0.8448    2.9416   -0.9706 C   0  0  0  0  0  0  0  0  0  0  0  0
   -0.2928    1.5685   -1.4142 C   0  0  0  0  0  0  0  0  0  0  0  0
   -2.3004   -1.1355    0.1058 C   0  0  0  0  0  0  0  0  0  0  0  0
   -3.4828   -0.5090    0.7526 C   0  0  0  0  0  0  0  0  0  0  0  0
   -4.6430   -1.4774    0.6014 C   0  0  0  0  0  0  0  0  0  0  0  0
   -4.8961   -1.8904   -0.7465 N   0  0  0  0  0  0  0  0  0  0  0  0
   -3.7312   -2.5040   -1.3045 C   0  0  0  0  0  0  0  0  0  0  0  0
   -2.5918   -1.4820   -1.3637 C   0  0  0  0  0  0  0  0  0  0  0  0
    1.0403    0.9051    2.4599 H   0  0  0  0  0  0  0  0  0  0  0  0
    3.3111    1.7647    2.5425 H   0  0  0  0  0  0  0  0  0  0  0  0
    5.5098    1.8492    1.7507 H   0  0  0  0  0  0  0  0  0  0  0  0
    7.2741    1.1065    0.1681 H   0  0  0  0  0  0  0  0  0  0  0  0
    6.7165   -0.5443   -1.5646 H   0  0  0  0  0  0  0  0  0  0  0  0
    4.3899   -1.4321   -1.7198 H   0  0  0  0  0  0  0  0  0  0  0  0
    2.1277   -1.5050   -0.8898 H   0  0  0  0  0  0  0  0  0  0  0  0
   -2.3235    1.1046   -0.8913 H   0  0  0  0  0  0  0  0  0  0  0  0
   -0.1570    2.3287    0.9477 H   0  0  0  0  0  0  0  0  0  0  0  0
   -1.9797    2.6415    0.8440 H   0  0  0  0  0  0  0  0  0  0  0  0
   -1.7649    3.2454   -1.4653 H   0  0  0  0  0  0  0  0  0  0  0  0
   -0.0858    3.7414   -0.9122 H   0  0  0  0  0  0  0  0  0  0  0  0
    0.7819    1.5710   -1.1075 H   0  0  0  0  0  0  0  0  0  0  0  0
   -0.4822    1.3549   -2.4861 H   0  0  0  0  0  0  0  0  0  0  0  0
   -2.1183   -2.1178    0.5753 H   0  0  0  0  0  0  0  0  0  0  0  0
   -3.8202    0.4400    0.2936 H   0  0  0  0  0  0  0  0  0  0  0  0
   -3.2999   -0.4468    1.8506 H   0  0  0  0  0  0  0  0  0  0  0  0
   -4.5875   -2.3459    1.2734 H   0  0  0  0  0  0  0  0  0  0  0  0
   -5.5465   -0.9065    0.9368 H   0  0  0  0  0  0  0  0  0  0  0  0
   -5.2548   -1.1078   -1.3134 H   0  0  0  0  0  0  0  0  0  0  0  0
   -3.3767   -3.3172   -0.6165 H   0  0  0  0  0  0  0  0  0  0  0  0
   -3.9283   -2.9138   -2.3220 H   0  0  0  0  0  0  0  0  0  0  0  0
   -2.9148   -0.5776   -1.8697 H   0  0  0  0  0  0  0  0  0  0  0  0
   -1.6826   -1.9693   -1.7399 H   0  0  0  0  0  0  0  0  0  0  0  0
  1  2  2  0
  2  3  1  0
  3  4  2  0
  4  5  1  0
  5  6  2  0
  6  7  1  0
  7  8  2  0
  8  9  1  0
  9 10  2  0
 10 11  1  0
 11 12  2  0
  2 13  1  0
 13 14  1  0
 14 15  1  0
 15 16  1  0
 16 17  1  0
 13 18  1  0
 18 19  1  0
 19 20  1  0
 20 21  1  0
 21 22  1  0
 22 23  1  0
 12  3  1  0
 17 14  1  0
 23 18  1  0
 11  6  1  0
  4 24  1  0
  5 25  1  0
  7 26  1  0
  8 27  1  0
  9 28  1  0
 10 29  1  0
 12 30  1  0
 14 31  1  0
 15 32  1  0
 15 33  1  0
 16 34  1  0
 16 35  1  0
 17 36  1  0
 17 37  1  0
 18 38  1  0
 19 39  1  0
 19 40  1  0
 20 41  1  0
 20 42  1  0
 21 43  1  0
 22 44  1  0
 22 45  1  0
 23 46  1  0
 23 47  1  0
M  END
$$$$
