
     RDKit          3D

 26 28  0  0  0  0  0  0  0  0999 V2000
   -2.3504   -1.9024    2.2212 O   0  0  0  0  0  0  0  0  0  0  0  0
   -2.0695   -1.2939    1.1459 C   0  0  0  0  0  0  0  0  0  0  0  0
   -2.2340   -1.7727   -0.1943 N   0  0  0  0  0  0  0  0  0  0  0  0
   -1.7690   -0.7079   -1.0453 C   0  0  0  0  0  0  0  0  0  0  0  0
   -2.0836   -0.6652   -2.2702 O   0  0  0  0  0  0  0  0  0  0  0  0
   -0.9590    0.1665   -0.2140 C   0  0  2  0  0  0  0  0  0  0  0  0
   -1.0303    1.6202   -0.5880 C   0  0  0  0  0  0  0  0  0  0  0  0
   -0.3674    2.4706    0.4550 C   0  0  0  0  0  0  0  0  0  0  0  0
    0.7320    1.7892    1.0805 O   0  0  0  0  0  0  0  0  0  0  0  0
    1.3035    0.6669    0.5101 C   0  0  0  0  0  0  0  0  0  0  0  0
    2.6426    0.3630    0.5767 C   0  0  0  0  0  0  0  0  0  0  0  0
    3.1486   -0.7696   -0.0121 C   0  0  0  0  0  0  0  0  0  0  0  0
    2.3308   -1.6393   -0.6894 C   0  0  0  0  0  0  0  0  0  0  0  0
    2.7942   -2.7709   -1.2855 F   0  0  0  0  0  0  0  0  0  0  0  0
    0.9685   -1.3574   -0.7735 C   0  0  0  0  0  0  0  0  0  0  0  0
    0.4794   -0.2135   -0.1748 C   0  0  0  0  0  0  0  0  0  0  0  0
   -1.5206    0.0235    1.1137 N   0  0  0  0  0  0  0  0  0  0  0  0
   -2.6115   -2.6951   -0.4331 H   0  0  0  0  0  0  0  0  0  0  0  0
   -0.6061    1.7802   -1.6045 H   0  0  0  0  0  0  0  0  0  0  0  0
   -2.1071    1.8948   -0.6672 H   0  0  0  0  0  0  0  0  0  0  0  0
   -1.0534    2.8815    1.2083 H   0  0  0  0  0  0  0  0  0  0  0  0
    0.1166    3.3284   -0.0981 H   0  0  0  0  0  0  0  0  0  0  0  0
    3.2752    1.0737    1.1235 H   0  0  0  0  0  0  0  0  0  0  0  0
    4.1969   -0.9945    0.0478 H   0  0  0  0  0  0  0  0  0  0  0  0
    0.2856   -2.0250   -1.3037 H   0  0  0  0  0  0  0  0  0  0  0  0
   -1.5122    0.7491    1.8709 H   0  0  0  0  0  0  0  0  0  0  0  0
  1  2  2  0
  2  3  1  0
  3  4  1  0
  4  5  2  0
  4  6  1  0
  6  7  1  0
  7  8  1  0
  8  9  1  0
  9 10  1  0
 10 11  2  0
 11 12  1  0
 12 13  2  0
 13 14  1  0
 13 15  1  0
 15 16  2  0
  6 17  1  1
 17  2  1  0
 16  6  1  0
 16 10  1  0
  3 18  1  0
  7 19  1  0
  7 20  1  0
  8 21  1  0
  8 22  1  0
 11 23  1  0
 12 24  1  0
 15 25  1  0
 17 26  1  0
M  END
$$$$
