
     RDKit          3D

 40 42  0  0  0  0  0  0  0  0999 V2000
    0.7072   -2.9189   -0.2931 C   0  0  0  0  0  0  0  0  0  0  0  0
   -0.1613   -1.8321   -0.0694 O   0  0  0  0  0  0  0  0  0  0  0  0
    0.3342   -0.5950    0.2809 C   0  0  0  0  0  0  0  0  0  0  0  0
    1.7208   -0.4912    0.4201 C   0  0  0  0  0  0  0  0  0  0  0  0
    2.2965    0.6845    0.7510 C   0  0  0  0  0  0  0  0  0  0  0  0
    3.7115    0.8841    0.8890 C   0  0  0  0  0  0  0  0  0  0  0  0
    4.7447    0.4756    0.2651 C   0  0  0  0  0  0  0  0  0  0  0  0
    6.4097    1.0190    0.8147 S   0  0  0  0  0  0  0  0  0  0  0  0
    7.2813    0.1361   -0.4855 C   0  0  0  0  0  0  0  0  0  0  0  0
    8.6558    0.1052   -0.7014 O   0  0  0  0  0  0  0  0  0  0  0  0
    6.3997   -0.4491   -1.1631 N   0  0  0  0  0  0  0  0  0  0  0  0
    5.0609   -0.3357   -0.8497 C   0  0  0  0  0  0  0  0  0  0  0  0
    4.1559   -0.9367   -1.5386 O   0  0  0  0  0  0  0  0  0  0  0  0
    1.4451    1.7964    0.9527 C   0  0  0  0  0  0  0  0  0  0  0  0
    0.1142    1.7017    0.8237 C   0  0  0  0  0  0  0  0  0  0  0  0
   -0.5062    0.4450    0.4664 C   0  0  0  0  0  0  0  0  0  0  0  0
   -1.7825    0.5277    0.3796 O   0  0  0  0  0  0  0  0  0  0  0  0
   -3.0383    0.6028    0.2636 C   0  0  0  0  0  0  0  0  0  0  0  0
   -3.6726    1.8204    0.6210 C   0  0  0  0  0  0  0  0  0  0  0  0
   -5.0016    2.0744    0.5521 C   0  0  0  0  0  0  0  0  0  0  0  0
   -5.8073    1.0515    0.0887 C   0  0  0  0  0  0  0  0  0  0  0  0
   -7.2356    1.2097    0.0237 C   0  0  0  0  0  0  0  0  0  0  0  0
   -8.3718    1.3438   -0.0103 N   0  0  0  0  0  0  0  0  0  0  0  0
   -5.2422   -0.1362   -0.2666 C   0  0  0  0  0  0  0  0  0  0  0  0
   -3.8866   -0.3961   -0.1939 C   0  0  0  0  0  0  0  0  0  0  0  0
   -3.4492   -1.7577   -0.5661 C   0  0  0  0  0  0  0  0  0  0  0  0
   -2.9030   -2.4371    0.4961 F   0  0  0  0  0  0  0  0  0  0  0  0
   -2.6456   -1.6883   -1.6757 F   0  0  0  0  0  0  0  0  0  0  0  0
   -4.5489   -2.5227   -0.9694 F   0  0  0  0  0  0  0  0  0  0  0  0
    1.4397   -2.5501   -1.0805 H   0  0  0  0  0  0  0  0  0  0  0  0
    0.1987   -3.8241   -0.6154 H   0  0  0  0  0  0  0  0  0  0  0  0
    1.3407   -3.1346    0.5813 H   0  0  0  0  0  0  0  0  0  0  0  0
    2.3225   -1.3707    0.2827 H   0  0  0  0  0  0  0  0  0  0  0  0
    3.9380    1.5683    1.7757 H   0  0  0  0  0  0  0  0  0  0  0  0
    8.9184   -0.0977   -1.6717 H   0  0  0  0  0  0  0  0  0  0  0  0
    1.9465    2.7205    1.2093 H   0  0  0  0  0  0  0  0  0  0  0  0
   -0.4913    2.5729    0.9890 H   0  0  0  0  0  0  0  0  0  0  0  0
   -3.0472    2.6470    1.0048 H   0  0  0  0  0  0  0  0  0  0  0  0
   -5.4434    3.0070    0.8328 H   0  0  0  0  0  0  0  0  0  0  0  0
   -5.9074   -0.9197   -0.6462 H   0  0  0  0  0  0  0  0  0  0  0  0
  1  2  1  0
  2  3  1  0
  3  4  2  0
  4  5  1  0
  5  6  1  0
  6  7  2  3
  7  8  1  0
  8  9  1  0
  9 10  1  0
  9 11  2  0
 11 12  1  0
 12 13  2  0
  5 14  2  0
 14 15  1  0
 15 16  2  0
 16 17  1  0
 17 18  1  0
 18 19  2  0
 19 20  1  0
 20 21  2  0
 21 22  1  0
 22 23  3  0
 21 24  1  0
 24 25  2  0
 25 26  1  0
 26 27  1  0
 26 28  1  0
 26 29  1  0
 16  3  1  0
 25 18  1  0
 12  7  1  0
  1 30  1  0
  1 31  1  0
  1 32  1  0
  4 33  1  0
  6 34  1  0
 10 35  1  0
 14 36  1  0
 15 37  1  0
 19 38  1  0
 20 39  1  0
 24 40  1  0
M  END
$$$$
