
     RDKit          3D

 25 25  0  0  0  0  0  0  0  0999 V2000
   -2.8012   -0.6304    1.6073 O   0  0  0  0  0  0  0  0  0  0  0  0
   -1.2803    0.0666    1.5314 P   0  0  0  0  0  0  0  0  0  0  0  0
   -1.2967    1.5237    2.4221 O   0  0  0  0  0  0  0  0  0  0  0  0
   -0.2751   -0.8193    2.2494 O   0  0  0  0  0  0  0  0  0  0  0  0
   -0.7620    0.3830   -0.1808 C   0  0  0  0  0  0  0  0  0  0  0  0
    0.7067    0.3052   -0.2285 C   0  0  0  0  0  0  0  0  0  0  0  0
    1.4355    1.4479   -0.4681 C   0  0  0  0  0  0  0  0  0  0  0  0
    2.8306    1.4249   -0.5228 C   0  0  0  0  0  0  0  0  0  0  0  0
    3.4595    0.1953   -0.3246 C   0  0  0  0  0  0  0  0  0  0  0  0
    2.7591   -0.9776   -0.0807 C   0  0  0  0  0  0  0  0  0  0  0  0
    1.3646   -0.9033   -0.0355 C   0  0  0  0  0  0  0  0  0  0  0  0
   -1.6220   -0.6282   -1.3646 P   0  0  0  0  0  0  0  0  0  0  0  0
   -3.2153   -0.0691   -1.5105 O   0  0  0  0  0  0  0  0  0  0  0  0
   -1.5856   -2.2575   -0.9216 O   0  0  0  0  0  0  0  0  0  0  0  0
   -0.9700   -0.4258   -2.7121 O   0  0  0  0  0  0  0  0  0  0  0  0
   -3.3244   -0.2093    2.3340 H   0  0  0  0  0  0  0  0  0  0  0  0
   -1.3854    2.3004    1.7930 H   0  0  0  0  0  0  0  0  0  0  0  0
   -1.0155    1.4633   -0.3676 H   0  0  0  0  0  0  0  0  0  0  0  0
    0.9942    2.4387   -0.6306 H   0  0  0  0  0  0  0  0  0  0  0  0
    3.4454    2.3081   -0.7101 H   0  0  0  0  0  0  0  0  0  0  0  0
    4.5507    0.1014   -0.3535 H   0  0  0  0  0  0  0  0  0  0  0  0
    3.2913   -1.9198    0.0690 H   0  0  0  0  0  0  0  0  0  0  0  0
    0.8204   -1.8178    0.1546 H   0  0  0  0  0  0  0  0  0  0  0  0
   -3.8516   -0.8409   -1.5072 H   0  0  0  0  0  0  0  0  0  0  0  0
   -2.2728   -2.4597   -0.2423 H   0  0  0  0  0  0  0  0  0  0  0  0
  1  2  1  0
  2  3  1  0
  2  4  2  0
  2  5  1  0
  5  6  1  0
  6  7  2  0
  7  8  1  0
  8  9  2  0
  9 10  1  0
 10 11  2  0
  5 12  1  0
 12 13  1  0
 12 14  1  0
 12 15  2  0
 11  6  1  0
  1 16  1  0
  3 17  1  0
  5 18  1  0
  7 19  1  0
  8 20  1  0
  9 21  1  0
 10 22  1  0
 11 23  1  0
 13 24  1  0
 14 25  1  0
M  END
$$$$
