
     RDKit          3D

 39 40  0  0  0  0  0  0  0  0999 V2000
    5.4743   -0.6004   -2.2273 N   0  0  0  0  0  0  0  0  0  0  0  0
    5.6244   -0.2800   -0.5581 S   0  0  0  0  0  6  0  0  0  0  0  0
    6.3094   -1.4319    0.1522 O   0  0  0  0  0  0  0  0  0  0  0  0
    6.5268    0.9203   -0.3277 O   0  0  0  0  0  0  0  0  0  0  0  0
    4.0734   -0.0213    0.2236 C   0  0  0  0  0  0  0  0  0  0  0  0
    3.3590   -1.0645    0.7759 C   0  0  0  0  0  0  0  0  0  0  0  0
    2.1410   -0.8505    1.3904 C   0  0  0  0  0  0  0  0  0  0  0  0
    1.5811    0.4206    1.4807 C   0  0  0  0  0  0  0  0  0  0  0  0
    0.3354    0.5702    2.1293 N   0  0  0  0  0  0  0  0  0  0  0  0
   -0.8463    0.3899    1.3676 C   0  0  0  0  0  0  0  0  0  0  0  0
   -2.3342    0.5581    2.0588 S   0  0  0  0  0  0  0  0  0  0  0  0
   -0.7179    0.0716    0.0041 N   0  0  0  0  0  0  0  0  0  0  0  0
   -1.8936   -0.1291   -0.8170 C   0  0  0  0  0  0  0  0  0  0  0  0
   -2.6321   -1.3060   -0.3007 C   0  0  0  0  0  0  0  0  0  0  0  0
   -4.1142   -1.2512   -0.3258 C   0  0  0  0  0  0  0  0  0  0  0  0
   -4.6652   -0.2186   -1.2863 C   0  0  0  0  0  0  0  0  0  0  0  0
   -4.1072    1.1001   -0.8439 C   0  0  0  0  0  0  0  0  0  0  0  0
   -2.6268    1.1589   -0.9010 C   0  0  0  0  0  0  0  0  0  0  0  0
    2.2880    1.4517    0.9339 C   0  0  0  0  0  0  0  0  0  0  0  0
    3.5099    1.2316    0.3182 C   0  0  0  0  0  0  0  0  0  0  0  0
    4.7757   -1.3495   -2.3485 H   0  0  0  0  0  0  0  0  0  0  0  0
    5.1340    0.2418   -2.7162 H   0  0  0  0  0  0  0  0  0  0  0  0
    3.7681   -2.0603    0.7210 H   0  0  0  0  0  0  0  0  0  0  0  0
    1.5650   -1.6676    1.8319 H   0  0  0  0  0  0  0  0  0  0  0  0
    0.2314    0.8069    3.1404 H   0  0  0  0  0  0  0  0  0  0  0  0
    0.2320   -0.0281   -0.4517 H   0  0  0  0  0  0  0  0  0  0  0  0
   -1.5637   -0.3713   -1.8745 H   0  0  0  0  0  0  0  0  0  0  0  0
   -2.2877   -1.5436    0.7403 H   0  0  0  0  0  0  0  0  0  0  0  0
   -2.2789   -2.2100   -0.9023 H   0  0  0  0  0  0  0  0  0  0  0  0
   -4.5057   -2.2718   -0.5961 H   0  0  0  0  0  0  0  0  0  0  0  0
   -4.5095   -0.9564    0.6889 H   0  0  0  0  0  0  0  0  0  0  0  0
   -4.3445   -0.4491   -2.3222 H   0  0  0  0  0  0  0  0  0  0  0  0
   -5.7654   -0.2292   -1.1565 H   0  0  0  0  0  0  0  0  0  0  0  0
   -4.5009    1.9451   -1.4807 H   0  0  0  0  0  0  0  0  0  0  0  0
   -4.5328    1.3245    0.1750 H   0  0  0  0  0  0  0  0  0  0  0  0
   -2.2789    1.7078   -1.8341 H   0  0  0  0  0  0  0  0  0  0  0  0
   -2.2881    1.8543   -0.0820 H   0  0  0  0  0  0  0  0  0  0  0  0
    1.8510    2.4477    1.0031 H   0  0  0  0  0  0  0  0  0  0  0  0
    4.0139    2.0891   -0.0907 H   0  0  0  0  0  0  0  0  0  0  0  0
  1  2  1  0
  2  3  2  0
  2  4  2  0
  2  5  1  0
  5  6  2  0
  6  7  1  0
  7  8  2  0
  8  9  1  0
  9 10  1  0
 10 11  2  0
 10 12  1  0
 12 13  1  0
 13 14  1  0
 14 15  1  0
 15 16  1  0
 16 17  1  0
 17 18  1  0
  8 19  1  0
 19 20  2  0
 20  5  1  0
 18 13  1  0
  1 21  1  0
  1 22  1  0
  6 23  1  0
  7 24  1  0
  9 25  1  0
 12 26  1  0
 13 27  1  0
 14 28  1  0
 14 29  1  0
 15 30  1  0
 15 31  1  0
 16 32  1  0
 16 33  1  0
 17 34  1  0
 17 35  1  0
 18 36  1  0
 18 37  1  0
 19 38  1  0
 20 39  1  0
M  END
$$$$
