
     RDKit          3D

 38 39  0  0  0  0  0  0  0  0999 V2000
    3.4872   -1.2616   -0.5044 C   0  0  0  0  0  0  0  0  0  0  0  0
    2.8201   -0.0321   -0.3756 N   0  0  0  0  0  0  0  0  0  0  0  0
    2.9542    0.6794    0.8364 C   0  0  0  0  0  0  0  0  0  0  0  0
    1.8629    0.3566   -1.3172 C   0  0  0  0  0  0  0  0  0  0  0  0
    0.5876   -0.4478   -1.3403 C   0  0  0  0  0  0  0  0  0  0  0  0
   -0.1122   -0.3733   -0.0144 C   0  0  0  0  0  0  0  0  0  0  0  0
   -1.3767   -1.1596   -0.0040 C   0  0  0  0  0  0  0  0  0  0  0  0
   -1.7340   -1.8836    1.1271 C   0  0  0  0  0  0  0  0  0  0  0  0
   -2.8916   -2.6439    1.2320 C   0  0  0  0  0  0  0  0  0  0  0  0
   -3.7240   -2.6687    0.1356 C   0  0  0  0  0  0  0  0  0  0  0  0
   -5.2026   -3.5871    0.1534 Cl  0  0  0  0  0  0  0  0  0  0  0  0
   -3.4281   -1.9730   -1.0175 C   0  0  0  0  0  0  0  0  0  0  0  0
   -2.2726   -1.2442   -1.0547 C   0  0  0  0  0  0  0  0  0  0  0  0
   -0.3447    1.0272    0.4296 C   0  0  0  0  0  0  0  0  0  0  0  0
   -0.3175    1.5632    1.6998 C   0  0  0  0  0  0  0  0  0  0  0  0
   -0.5635    2.9010    1.8851 C   0  0  0  0  0  0  0  0  0  0  0  0
   -0.8369    3.7013    0.7961 C   0  0  0  0  0  0  0  0  0  0  0  0
   -0.8638    3.1560   -0.4891 C   0  0  0  0  0  0  0  0  0  0  0  0
   -0.6154    1.8322   -0.6257 N   0  0  0  0  0  0  0  0  0  0  0  0
    3.1979   -2.0277    0.2331 H   0  0  0  0  0  0  0  0  0  0  0  0
    3.4282   -1.6063   -1.5602 H   0  0  0  0  0  0  0  0  0  0  0  0
    4.5860   -1.0647   -0.3373 H   0  0  0  0  0  0  0  0  0  0  0  0
    2.7362    0.0770    1.7457 H   0  0  0  0  0  0  0  0  0  0  0  0
    2.4529    1.6463    0.8519 H   0  0  0  0  0  0  0  0  0  0  0  0
    4.0539    0.9291    0.9342 H   0  0  0  0  0  0  0  0  0  0  0  0
    2.3127    0.2284   -2.3451 H   0  0  0  0  0  0  0  0  0  0  0  0
    1.6547    1.4284   -1.2058 H   0  0  0  0  0  0  0  0  0  0  0  0
    0.7732   -1.5172   -1.5497 H   0  0  0  0  0  0  0  0  0  0  0  0
   -0.1096   -0.0852   -2.1129 H   0  0  0  0  0  0  0  0  0  0  0  0
    0.5568   -0.8342    0.7394 H   0  0  0  0  0  0  0  0  0  0  0  0
   -1.1001   -1.8873    2.0119 H   0  0  0  0  0  0  0  0  0  0  0  0
   -3.1135   -3.1875    2.1467 H   0  0  0  0  0  0  0  0  0  0  0  0
   -4.0825   -1.9862   -1.8935 H   0  0  0  0  0  0  0  0  0  0  0  0
   -2.0389   -0.6983   -1.9559 H   0  0  0  0  0  0  0  0  0  0  0  0
   -0.0929    0.8298    2.4519 H   0  0  0  0  0  0  0  0  0  0  0  0
   -0.5311    3.2734    2.8944 H   0  0  0  0  0  0  0  0  0  0  0  0
   -1.0326    4.7589    0.9338 H   0  0  0  0  0  0  0  0  0  0  0  0
   -1.0800    3.7815   -1.3673 H   0  0  0  0  0  0  0  0  0  0  0  0
  1  2  1  0
  2  3  1  0
  2  4  1  0
  4  5  1  0
  5  6  1  0
  6  7  1  0
  7  8  2  0
  8  9  1  0
  9 10  2  0
 10 11  1  0
 10 12  1  0
 12 13  2  0
  6 14  1  0
 14 15  2  0
 15 16  1  0
 16 17  2  0
 17 18  1  0
 18 19  2  0
 13  7  1  0
 19 14  1  0
  1 20  1  0
  1 21  1  0
  1 22  1  0
  3 23  1  0
  3 24  1  0
  3 25  1  0
  4 26  1  0
  4 27  1  0
  5 28  1  0
  5 29  1  0
  6 30  1  0
  8 31  1  0
  9 32  1  0
 12 33  1  0
 13 34  1  0
 15 35  1  0
 16 36  1  0
 17 37  1  0
 18 38  1  0
M  END
$$$$
