
     RDKit          3D

 55 55  0  0  0  0  0  0  0  0999 V2000
    8.7160   -0.5281   -1.0069 C   0  0  0  0  0  0  0  0  0  0  0  0
    7.2224   -0.2546   -1.0498 C   0  0  0  0  0  0  0  0  0  0  0  0
    6.4805   -1.1232   -0.0803 C   0  0  0  0  0  0  0  0  0  0  0  0
    5.0053   -0.8273   -0.1570 C   0  0  0  0  0  0  0  0  0  0  0  0
    4.6690    0.5931    0.1704 C   0  0  0  0  0  0  0  0  0  0  0  0
    3.3157    0.8616    0.1036 O   0  0  0  0  0  0  0  0  0  0  0  0
    2.5336    0.1196    0.9554 C   0  0  0  0  0  0  0  0  0  0  0  0
    1.0858    0.5770    0.7171 C   0  0  0  0  0  0  0  0  0  0  0  0
    0.1511   -0.1939    1.6204 C   0  0  0  0  0  0  0  0  0  0  0  0
   -1.2909    0.2306    1.4258 C   0  0  0  0  0  0  0  0  0  0  0  0
   -1.7665    0.0052    0.0328 C   0  0  0  0  0  0  0  0  0  0  0  0
   -3.1323    0.4223   -0.1642 N   0  0  0  0  0  0  0  0  0  0  0  0
   -3.4074    0.1361   -1.5912 C   0  0  0  0  0  0  0  0  0  0  0  0
   -4.7349    0.7865   -1.8888 C   0  0  2  0  0  0  0  0  0  0  0  0
   -4.7225    2.1006   -1.4337 O   0  0  0  0  0  0  0  0  0  0  0  0
   -5.7966    0.0095   -1.1497 C   0  0  1  0  0  0  0  0  0  0  0  0
   -6.4856   -0.8179   -2.0359 O   0  0  0  0  0  0  0  0  0  0  0  0
   -5.2089   -0.8770   -0.0814 C   0  0  2  0  0  0  0  0  0  0  0  0
   -6.2246   -1.1553    0.8294 O   0  0  0  0  0  0  0  0  0  0  0  0
   -4.0936   -0.1846    0.6830 C   0  0  2  0  0  0  0  0  0  0  0  0
   -4.7717    0.7509    1.6601 C   0  0  0  0  0  0  0  0  0  0  0  0
   -3.9367    1.3909    2.5325 O   0  0  0  0  0  0  0  0  0  0  0  0
    8.8703   -1.6362   -0.9421 H   0  0  0  0  0  0  0  0  0  0  0  0
    9.1680    0.0040   -0.1603 H   0  0  0  0  0  0  0  0  0  0  0  0
    9.1525   -0.2118   -1.9680 H   0  0  0  0  0  0  0  0  0  0  0  0
    7.1080    0.8152   -0.7651 H   0  0  0  0  0  0  0  0  0  0  0  0
    6.8320   -0.4269   -2.0596 H   0  0  0  0  0  0  0  0  0  0  0  0
    6.6837   -2.1735   -0.3320 H   0  0  0  0  0  0  0  0  0  0  0  0
    6.8618   -0.9671    0.9524 H   0  0  0  0  0  0  0  0  0  0  0  0
    4.6354   -1.1191   -1.1607 H   0  0  0  0  0  0  0  0  0  0  0  0
    4.5146   -1.4894    0.5890 H   0  0  0  0  0  0  0  0  0  0  0  0
    5.1462    1.2657   -0.5910 H   0  0  0  0  0  0  0  0  0  0  0  0
    5.0701    0.8774    1.1460 H   0  0  0  0  0  0  0  0  0  0  0  0
    2.5563   -0.9669    0.7821 H   0  0  0  0  0  0  0  0  0  0  0  0
    2.7902    0.3475    2.0112 H   0  0  0  0  0  0  0  0  0  0  0  0
    1.0889    1.6614    0.9885 H   0  0  0  0  0  0  0  0  0  0  0  0
    0.8396    0.5207   -0.3437 H   0  0  0  0  0  0  0  0  0  0  0  0
    0.3080   -1.2693    1.5493 H   0  0  0  0  0  0  0  0  0  0  0  0
    0.4009    0.0880    2.6831 H   0  0  0  0  0  0  0  0  0  0  0  0
   -1.3330    1.3160    1.6335 H   0  0  0  0  0  0  0  0  0  0  0  0
   -1.9314   -0.3620    2.1237 H   0  0  0  0  0  0  0  0  0  0  0  0
   -1.1317    0.5819   -0.6758 H   0  0  0  0  0  0  0  0  0  0  0  0
   -1.6879   -1.0797   -0.2638 H   0  0  0  0  0  0  0  0  0  0  0  0
   -2.6050    0.6507   -2.1567 H   0  0  0  0  0  0  0  0  0  0  0  0
   -3.4544   -0.9411   -1.7729 H   0  0  0  0  0  0  0  0  0  0  0  0
   -4.9442    0.8343   -2.9778 H   0  0  0  0  0  0  0  0  0  0  0  0
   -5.6325    2.3769   -1.0934 H   0  0  0  0  0  0  0  0  0  0  0  0
   -6.5308    0.7211   -0.7249 H   0  0  0  0  0  0  0  0  0  0  0  0
   -7.4433   -0.6169   -2.0980 H   0  0  0  0  0  0  0  0  0  0  0  0
   -4.8564   -1.8449   -0.4858 H   0  0  0  0  0  0  0  0  0  0  0  0
   -5.9494   -1.9823    1.3321 H   0  0  0  0  0  0  0  0  0  0  0  0
   -3.6130   -0.9841    1.2699 H   0  0  0  0  0  0  0  0  0  0  0  0
   -5.3818    1.5173    1.1446 H   0  0  0  0  0  0  0  0  0  0  0  0
   -5.5151    0.1886    2.2937 H   0  0  0  0  0  0  0  0  0  0  0  0
   -3.6236    2.2823    2.2425 H   0  0  0  0  0  0  0  0  0  0  0  0
  1  2  1  0
  2  3  1  0
  3  4  1  0
  4  5  1  0
  5  6  1  0
  6  7  1  0
  7  8  1  0
  8  9  1  0
  9 10  1  0
 10 11  1  0
 11 12  1  0
 12 13  1  0
 13 14  1  0
 14 15  1  0
 14 16  1  0
 16 17  1  0
 16 18  1  0
 18 19  1  0
 18 20  1  0
 20 21  1  0
 21 22  1  0
 20 12  1  0
  1 23  1  0
  1 24  1  0
  1 25  1  0
  2 26  1  0
  2 27  1  0
  3 28  1  0
  3 29  1  0
  4 30  1  0
  4 31  1  0
  5 32  1  0
  5 33  1  0
  7 34  1  0
  7 35  1  0
  8 36  1  0
  8 37  1  0
  9 38  1  0
  9 39  1  0
 10 40  1  0
 10 41  1  0
 11 42  1  0
 11 43  1  0
 13 44  1  0
 13 45  1  0
 14 46  1  6
 15 47  1  0
 16 48  1  1
 17 49  1  0
 18 50  1  6
 19 51  1  0
 20 52  1  1
 21 53  1  0
 21 54  1  0
 22 55  1  0
M  END
$$$$
