
     RDKit          3D

  3  2  0  0  0  0  0  0  0  0999 V2000
   -2.6870    0.0996    0.0000 I   0  0  0  0  0  0  0  0  0  0  0  0
    0.0151   -0.3135    0.0000 Hg  0  0  0  0  0  2  0  0  0  0  0  0
    2.6719   -0.9236    0.0000 I   0  0  0  0  0  0  0  0  0  0  0  0
  1  2  1  0
  2  3  1  0
M  END
$$$$
