
     RDKit          3D

 60 64  0  0  0  0  0  0  0  0999 V2000
    3.6314    2.4824    0.3109 C   0  0  0  0  0  0  0  0  0  0  0  0
    3.3245    1.0297    0.3009 C   0  0  0  0  0  0  0  0  0  0  0  0
    2.0031    0.6393    0.3167 C   0  0  0  0  0  0  0  0  0  0  0  0
    1.6512   -0.7152    0.3083 C   0  0  0  0  0  0  0  0  0  0  0  0
    0.2230   -1.0769    0.3260 C   0  0  0  0  0  0  0  0  0  0  0  0
   -0.1555   -2.3935    0.3183 C   0  0  0  0  0  0  0  0  0  0  0  0
   -1.4997   -2.7469    0.3345 C   0  0  0  0  0  0  0  0  0  0  0  0
   -2.1362   -3.9425    0.3271 N   0  0  0  0  0  0  0  0  0  0  0  0
   -3.4387   -3.7369    0.3450 N   0  0  0  0  0  0  0  0  0  0  0  0
   -4.5381   -4.6733    0.3462 C   0  0  0  0  0  0  0  0  0  0  0  0
   -3.6460   -2.3861    0.3644 C   0  0  0  0  0  0  0  0  0  0  0  0
   -2.4320   -1.7188    0.3589 C   0  0  0  0  0  0  0  0  0  0  0  0
   -2.0656   -0.3985    0.3672 C   0  0  0  0  0  0  0  0  0  0  0  0
   -2.8885    0.6181    0.3896 O   0  0  0  0  0  0  0  0  0  0  0  0
   -4.1522    1.0442    0.4318 C   0  0  2  0  0  0  0  0  0  0  0  0
   -4.8534    0.5726    1.7026 C   0  0  0  0  0  0  0  0  0  0  0  0
   -4.9997    0.8705   -0.8030 C   0  0  1  0  0  0  0  0  0  0  0  0
   -6.3907    1.3774   -0.6403 C   0  0  0  0  0  0  0  0  0  0  0  0
   -6.4551    2.6765   -1.3154 N   0  0  0  0  0  0  0  0  0  0  0  0
   -5.2104    3.0057   -1.8804 C   0  0  0  0  0  0  0  0  0  0  0  0
   -4.8438    4.1397   -2.2747 O   0  0  0  0  0  0  0  0  0  0  0  0
   -4.4152    1.7489   -1.9187 C   0  0  0  0  0  0  0  0  0  0  0  0
   -0.7237   -0.1419    0.3497 N   0  0  0  0  0  0  0  0  0  0  0  0
    2.6639   -1.6357    0.2838 C   0  0  0  0  0  0  0  0  0  0  0  0
    4.0011   -1.2489    0.2677 C   0  0  0  0  0  0  0  0  0  0  0  0
    4.3629    0.0919    0.2759 C   0  0  0  0  0  0  0  0  0  0  0  0
    5.6980    0.5250    0.2602 N   0  0  0  0  0  0  0  0  0  0  0  0
    6.5076    0.8047   -0.8920 C   0  0  0  0  0  0  0  0  0  0  0  0
    7.8525    0.1482   -0.5549 C   0  0  0  0  0  0  0  0  0  0  0  0
    8.2966    0.8638    0.7301 C   0  0  0  0  0  0  0  0  0  0  0  0
    6.7184    0.8359    1.6037 S   0  0  0  0  0  6  0  0  0  0  0  0
    6.5302    2.2138    2.1590 O   0  0  0  0  0  0  0  0  0  0  0  0
    6.6902   -0.2233    2.6338 O   0  0  0  0  0  0  0  0  0  0  0  0
    3.3223    2.8770    1.3022 H   0  0  0  0  0  0  0  0  0  0  0  0
    3.0546    2.9356   -0.5260 H   0  0  0  0  0  0  0  0  0  0  0  0
    4.6924    2.6809    0.1019 H   0  0  0  0  0  0  0  0  0  0  0  0
    1.1852    1.3459    0.3360 H   0  0  0  0  0  0  0  0  0  0  0  0
    0.5750   -3.1850    0.2995 H   0  0  0  0  0  0  0  0  0  0  0  0
   -4.2060   -5.6682    0.0110 H   0  0  0  0  0  0  0  0  0  0  0  0
   -5.2930   -4.2678   -0.3870 H   0  0  0  0  0  0  0  0  0  0  0  0
   -5.0703   -4.7092    1.3154 H   0  0  0  0  0  0  0  0  0  0  0  0
   -4.6014   -1.8857    0.3781 H   0  0  0  0  0  0  0  0  0  0  0  0
   -4.1226    2.1886    0.5915 H   0  0  0  0  0  0  0  0  0  0  0  0
   -4.9795    1.3615    2.4551 H   0  0  0  0  0  0  0  0  0  0  0  0
   -4.1923   -0.1885    2.1619 H   0  0  0  0  0  0  0  0  0  0  0  0
   -5.8011    0.0454    1.4624 H   0  0  0  0  0  0  0  0  0  0  0  0
   -4.9557   -0.1529   -1.1944 H   0  0  0  0  0  0  0  0  0  0  0  0
   -6.6946    1.5561    0.4009 H   0  0  0  0  0  0  0  0  0  0  0  0
   -7.0908    0.7135   -1.1866 H   0  0  0  0  0  0  0  0  0  0  0  0
   -7.3198    3.2314   -1.3424 H   0  0  0  0  0  0  0  0  0  0  0  0
   -3.3762    2.0280   -1.6476 H   0  0  0  0  0  0  0  0  0  0  0  0
   -4.5167    1.2855   -2.9011 H   0  0  0  0  0  0  0  0  0  0  0  0
    2.4709   -2.6853    0.2762 H   0  0  0  0  0  0  0  0  0  0  0  0
    4.8069   -1.9675    0.2484 H   0  0  0  0  0  0  0  0  0  0  0  0
    6.7465    1.8991   -0.9773 H   0  0  0  0  0  0  0  0  0  0  0  0
    6.1278    0.3838   -1.8218 H   0  0  0  0  0  0  0  0  0  0  0  0
    8.5774    0.2749   -1.3578 H   0  0  0  0  0  0  0  0  0  0  0  0
    7.7162   -0.9164   -0.2704 H   0  0  0  0  0  0  0  0  0  0  0  0
    8.5843    1.8849    0.4576 H   0  0  0  0  0  0  0  0  0  0  0  0
    9.0503    0.2847    1.2648 H   0  0  0  0  0  0  0  0  0  0  0  0
  1  2  1  0
  2  3  2  0
  3  4  1  0
  4  5  1  0
  5  6  2  0
  6  7  1  0
  7  8  2  0
  8  9  1  0
  9 10  1  0
  9 11  1  0
 11 12  2  0
 12 13  1  0
 13 14  1  0
 14 15  1  0
 15 16  1  0
 15 17  1  0
 17 18  1  0
 18 19  1  0
 19 20  1  0
 20 21  2  0
 20 22  1  0
 13 23  2  0
  4 24  2  0
 24 25  1  0
 25 26  2  0
 26 27  1  0
 27 28  1  0
 28 29  1  0
 29 30  1  0
 30 31  1  0
 31 32  2  0
 31 33  2  0
 26  2  1  0
 31 27  1  0
 23  5  1  0
 12  7  1  0
 22 17  1  0
  1 34  1  0
  1 35  1  0
  1 36  1  0
  3 37  1  0
  6 38  1  0
 10 39  1  0
 10 40  1  0
 10 41  1  0
 11 42  1  0
 15 43  1  1
 16 44  1  0
 16 45  1  0
 16 46  1  0
 17 47  1  6
 18 48  1  0
 18 49  1  0
 19 50  1  0
 22 51  1  0
 22 52  1  0
 24 53  1  0
 25 54  1  0
 28 55  1  0
 28 56  1  0
 29 57  1  0
 29 58  1  0
 30 59  1  0
 30 60  1  0
M  END
$$$$
