
     RDKit          3D

 55 59  0  0  0  0  0  0  0  0999 V2000
   -0.6120    0.8651    0.8596 C   0  0  2  0  0  0  0  0  0  0  0  0
   -1.3281    2.1980    0.8347 C   0  0  0  0  0  0  0  0  0  0  0  0
    0.7648    1.1146    1.3800 C   0  0  0  0  0  0  0  0  0  0  0  0
    1.6733   -0.0865    1.3493 C   0  0  0  0  0  0  0  0  0  0  0  0
    2.3380   -0.0857    0.0575 N   0  0  0  0  0  0  0  0  0  0  0  0
    1.6750    0.2249   -1.1951 C   0  0  0  0  0  0  0  0  0  0  0  0
    0.3607   -0.5040   -1.1731 C   0  0  0  0  0  0  0  0  0  0  0  0
   -0.6497    0.1559   -0.3886 N   0  0  0  0  0  0  0  0  0  0  0  0
   -1.9432    0.0819   -0.9828 C   0  0  0  0  0  0  0  0  0  0  0  0
   -1.9929   -0.5470   -2.0945 O   0  0  0  0  0  0  0  0  0  0  0  0
   -3.3043    0.4786   -0.7828 C   0  0  0  0  0  0  0  0  0  0  0  0
   -4.2000   -0.3466   -0.0935 C   0  0  0  0  0  0  0  0  0  0  0  0
   -5.5247    0.0671    0.0869 C   0  0  0  0  0  0  0  0  0  0  0  0
   -5.8814    1.2919   -0.4362 C   0  0  0  0  0  0  0  0  0  0  0  0
   -5.0312    2.1324   -1.1199 C   0  0  0  0  0  0  0  0  0  0  0  0
   -5.5476    3.4295   -1.6328 C   0  0  0  0  0  0  0  0  0  0  0  0
   -3.7330    1.6942   -1.2799 C   0  0  0  0  0  0  0  0  0  0  0  0
   -3.7809   -1.6214    0.4363 N   0  0  0  0  0  0  0  0  0  0  0  0
   -4.6221   -2.6457    0.5160 N   0  0  0  0  0  0  0  0  0  0  0  0
   -3.9916   -3.6901    1.0342 C   0  0  0  0  0  0  0  0  0  0  0  0
   -2.7053   -3.2526    1.2724 C   0  0  0  0  0  0  0  0  0  0  0  0
   -2.6109   -1.9662    0.8898 N   0  0  0  0  0  0  0  0  0  0  0  0
    3.7029   -0.4071    0.0401 C   0  0  0  0  0  0  0  0  0  0  0  0
    4.4291   -0.7114    1.1185 N   0  0  0  0  0  0  0  0  0  0  0  0
    5.6949   -0.9636    0.7283 C   0  0  0  0  0  0  0  0  0  0  0  0
    5.7163   -0.7990   -0.6554 C   0  0  0  0  0  0  0  0  0  0  0  0
    4.4914   -0.4673   -0.9931 O   0  0  0  0  0  0  0  0  0  0  0  0
    6.9317   -1.0114   -1.2728 C   0  0  0  0  0  0  0  0  0  0  0  0
    8.0568   -1.3664   -0.5521 C   0  0  0  0  0  0  0  0  0  0  0  0
    7.9787   -1.5161    0.8200 C   0  0  0  0  0  0  0  0  0  0  0  0
    9.3541   -1.9647    1.8204 Cl  0  0  0  0  0  0  0  0  0  0  0  0
    6.7908   -1.3199    1.5162 C   0  0  0  0  0  0  0  0  0  0  0  0
   -1.1343    0.2792    1.6730 H   0  0  0  0  0  0  0  0  0  0  0  0
   -2.3752    2.1118    1.2469 H   0  0  0  0  0  0  0  0  0  0  0  0
   -0.8415    2.9124    1.5625 H   0  0  0  0  0  0  0  0  0  0  0  0
   -1.2739    2.7128   -0.1308 H   0  0  0  0  0  0  0  0  0  0  0  0
    1.2223    1.9903    0.8398 H   0  0  0  0  0  0  0  0  0  0  0  0
    0.6736    1.4327    2.4467 H   0  0  0  0  0  0  0  0  0  0  0  0
    1.0752   -1.0201    1.4503 H   0  0  0  0  0  0  0  0  0  0  0  0
    2.4152   -0.0127    2.1777 H   0  0  0  0  0  0  0  0  0  0  0  0
    2.2801   -0.2272   -1.9915 H   0  0  0  0  0  0  0  0  0  0  0  0
    1.6013    1.3016   -1.3856 H   0  0  0  0  0  0  0  0  0  0  0  0
   -0.0014   -0.7465   -2.1760 H   0  0  0  0  0  0  0  0  0  0  0  0
    0.5447   -1.4925   -0.6598 H   0  0  0  0  0  0  0  0  0  0  0  0
   -6.2405   -0.5269    0.6042 H   0  0  0  0  0  0  0  0  0  0  0  0
   -6.9139    1.6194   -0.2981 H   0  0  0  0  0  0  0  0  0  0  0  0
   -5.0102    3.6364   -2.5782 H   0  0  0  0  0  0  0  0  0  0  0  0
   -5.4014    4.2045   -0.8508 H   0  0  0  0  0  0  0  0  0  0  0  0
   -6.6375    3.3175   -1.8398 H   0  0  0  0  0  0  0  0  0  0  0  0
   -3.0699    2.3633   -1.8201 H   0  0  0  0  0  0  0  0  0  0  0  0
   -4.2413   -4.7288    1.2922 H   0  0  0  0  0  0  0  0  0  0  0  0
   -1.8268   -3.7420    1.6865 H   0  0  0  0  0  0  0  0  0  0  0  0
    6.9693   -0.8897   -2.3381 H   0  0  0  0  0  0  0  0  0  0  0  0
    9.0129   -1.5351   -1.0242 H   0  0  0  0  0  0  0  0  0  0  0  0
    6.6736   -1.4221    2.5767 H   0  0  0  0  0  0  0  0  0  0  0  0
  1  2  1  0
  1  3  1  0
  3  4  1  0
  4  5  1  0
  5  6  1  0
  6  7  1  0
  7  8  1  0
  8  9  1  0
  9 10  2  0
  9 11  1  0
 11 12  1  0
 12 13  2  0
 13 14  1  0
 14 15  2  0
 15 16  1  0
 15 17  1  0
 12 18  1  0
 18 19  1  0
 19 20  2  0
 20 21  1  0
 21 22  2  0
  5 23  1  0
 23 24  2  0
 24 25  1  0
 25 26  2  0
 26 27  1  0
 26 28  1  0
 28 29  2  0
 29 30  1  0
 30 31  1  0
 30 32  2  0
  8  1  1  0
 17 11  2  0
 22 18  1  0
 27 23  1  0
 32 25  1  0
  1 33  1  1
  2 34  1  0
  2 35  1  0
  2 36  1  0
  3 37  1  0
  3 38  1  0
  4 39  1  0
  4 40  1  0
  6 41  1  0
  6 42  1  0
  7 43  1  0
  7 44  1  0
 13 45  1  0
 14 46  1  0
 16 47  1  0
 16 48  1  0
 16 49  1  0
 17 50  1  0
 20 51  1  0
 21 52  1  0
 28 53  1  0
 29 54  1  0
 32 55  1  0
M  END
$$$$
