
     RDKit          3D

 53 56  0  0  0  0  0  0  0  0999 V2000
    7.0963    0.6687   -0.8709 O   0  0  0  0  0  0  0  0  0  0  0  0
    6.5532    0.1950    0.3076 C   0  0  0  0  0  0  0  0  0  0  0  0
    5.2690    0.8707    0.7022 C   0  0  0  0  0  0  0  0  0  0  0  0
    4.2858    0.6746   -0.3291 N   0  0  0  0  0  0  0  0  0  0  0  0
    3.8355   -0.6702   -0.4720 C   0  0  0  0  0  0  0  0  0  0  0  0
    2.3464   -0.8292   -0.2825 C   0  0  0  0  0  0  0  0  0  0  0  0
    1.9246   -0.0026    0.8003 N   0  0  0  0  0  0  0  0  0  0  0  0
    0.7216   -0.3710    1.4562 C   0  0  0  0  0  0  0  0  0  0  0  0
   -0.5368   -0.2171    0.6308 C   0  0  0  0  0  0  0  0  0  0  0  0
   -1.7925   -0.6305    1.3921 C   0  0  0  0  0  0  0  0  0  0  0  0
   -2.9004   -0.4277    0.5417 N   0  0  0  0  0  0  0  0  0  0  0  0
   -3.3423    0.9020    0.3219 C   0  0  0  0  0  0  0  0  0  0  0  0
   -2.7444    1.9547    0.9769 C   0  0  0  0  0  0  0  0  0  0  0  0
   -3.1098    3.2798    0.8477 C   0  0  0  0  0  0  0  0  0  0  0  0
   -4.1502    3.6162    0.0071 C   0  0  0  0  0  0  0  0  0  0  0  0
   -4.7748    2.5891   -0.6660 C   0  0  0  0  0  0  0  0  0  0  0  0
   -4.3522    1.2972   -0.4834 C   0  0  0  0  0  0  0  0  0  0  0  0
   -5.2810    0.1037   -1.4237 S   0  0  0  0  0  0  0  0  0  0  0  0
   -4.5681   -1.4688   -0.9759 C   0  0  0  0  0  0  0  0  0  0  0  0
   -3.5294   -1.5173   -0.1094 C   0  0  0  0  0  0  0  0  0  0  0  0
   -3.0890   -2.8038    0.1220 C   0  0  0  0  0  0  0  0  0  0  0  0
   -3.6364   -3.9390   -0.4586 C   0  0  0  0  0  0  0  0  0  0  0  0
   -3.0717   -5.5702   -0.1585 Cl  0  0  0  0  0  0  0  0  0  0  0  0
   -4.6958   -3.8024   -1.3324 C   0  0  0  0  0  0  0  0  0  0  0  0
   -5.1665   -2.5352   -1.5917 C   0  0  0  0  0  0  0  0  0  0  0  0
    2.1101    1.3948    0.6063 C   0  0  0  0  0  0  0  0  0  0  0  0
    3.2573    1.6828   -0.3281 C   0  0  0  0  0  0  0  0  0  0  0  0
    7.5541   -0.0599   -1.3915 H   0  0  0  0  0  0  0  0  0  0  0  0
    6.4004   -0.8979    0.1803 H   0  0  0  0  0  0  0  0  0  0  0  0
    7.3461    0.3813    1.0904 H   0  0  0  0  0  0  0  0  0  0  0  0
    4.9089    0.4532    1.6426 H   0  0  0  0  0  0  0  0  0  0  0  0
    5.4631    1.9596    0.8141 H   0  0  0  0  0  0  0  0  0  0  0  0
    4.4104   -1.3193    0.2256 H   0  0  0  0  0  0  0  0  0  0  0  0
    4.0806   -1.0218   -1.4962 H   0  0  0  0  0  0  0  0  0  0  0  0
    1.8207   -0.6066   -1.2407 H   0  0  0  0  0  0  0  0  0  0  0  0
    2.1511   -1.8873   -0.0169 H   0  0  0  0  0  0  0  0  0  0  0  0
    0.6459    0.2243    2.3909 H   0  0  0  0  0  0  0  0  0  0  0  0
    0.8079   -1.4386    1.7477 H   0  0  0  0  0  0  0  0  0  0  0  0
   -0.5537    0.7769    0.2019 H   0  0  0  0  0  0  0  0  0  0  0  0
   -0.3781   -0.9070   -0.2485 H   0  0  0  0  0  0  0  0  0  0  0  0
   -1.5617   -1.6117    1.7802 H   0  0  0  0  0  0  0  0  0  0  0  0
   -1.7624    0.0025    2.3068 H   0  0  0  0  0  0  0  0  0  0  0  0
   -1.9295    1.8663    1.6795 H   0  0  0  0  0  0  0  0  0  0  0  0
   -2.6414    4.1184    1.3617 H   0  0  0  0  0  0  0  0  0  0  0  0
   -4.4654    4.6409   -0.1209 H   0  0  0  0  0  0  0  0  0  0  0  0
   -5.5875    2.8849   -1.3179 H   0  0  0  0  0  0  0  0  0  0  0  0
   -2.2820   -3.0709    0.7676 H   0  0  0  0  0  0  0  0  0  0  0  0
   -5.1450   -4.6650   -1.8014 H   0  0  0  0  0  0  0  0  0  0  0  0
   -5.9952   -2.4670   -2.2785 H   0  0  0  0  0  0  0  0  0  0  0  0
    1.1890    1.8265    0.1695 H   0  0  0  0  0  0  0  0  0  0  0  0
    2.2312    1.8708    1.6122 H   0  0  0  0  0  0  0  0  0  0  0  0
    2.9088    1.8721   -1.3739 H   0  0  0  0  0  0  0  0  0  0  0  0
    3.7254    2.6309    0.0149 H   0  0  0  0  0  0  0  0  0  0  0  0
  1  2  1  0
  2  3  1  0
  3  4  1  0
  4  5  1  0
  5  6  1  0
  6  7  1  0
  7  8  1  0
  8  9  1  0
  9 10  1  0
 10 11  1  0
 11 12  1  0
 12 13  2  0
 13 14  1  0
 14 15  2  0
 15 16  1  0
 16 17  2  0
 17 18  1  0
 18 19  1  0
 19 20  2  0
 20 21  1  0
 21 22  2  0
 22 23  1  0
 22 24  1  0
 24 25  2  0
  7 26  1  0
 26 27  1  0
 27  4  1  0
 20 11  1  0
 17 12  1  0
 25 19  1  0
  1 28  1  0
  2 29  1  0
  2 30  1  0
  3 31  1  0
  3 32  1  0
  5 33  1  0
  5 34  1  0
  6 35  1  0
  6 36  1  0
  8 37  1  0
  8 38  1  0
  9 39  1  0
  9 40  1  0
 10 41  1  0
 10 42  1  0
 13 43  1  0
 14 44  1  0
 15 45  1  0
 16 46  1  0
 21 47  1  0
 24 48  1  0
 25 49  1  0
 26 50  1  0
 26 51  1  0
 27 52  1  0
 27 53  1  0
M  END
$$$$
