
     RDKit          3D

 23 23  0  0  0  0  0  0  0  0999 V2000
   -3.2256   -0.3631   -0.8905 C   0  0  0  0  0  0  0  0  0  0  0  0
   -2.3865   -0.1923    0.2582 N   0  0  0  0  0  0  0  0  0  0  0  0
   -2.8275   -0.5830    1.5860 C   0  0  0  0  0  0  0  0  0  0  0  0
   -1.1109    0.3635    0.1028 N   0  0  0  0  0  0  0  0  0  0  0  0
   -0.2519   -0.0097   -0.7377 N   0  0  0  0  0  0  0  0  0  0  0  0
    1.0459    0.6174   -0.8352 C   0  0  0  0  0  0  0  0  0  0  0  0
    2.1836    0.1992   -0.1745 C   0  0  0  0  0  0  0  0  0  0  0  0
    3.1616    1.0594   -0.5468 N   0  0  0  0  0  0  0  0  0  0  0  0
    2.6029    1.9511   -1.4002 C   0  0  0  0  0  0  0  0  0  0  0  0
    1.2930    1.7056   -1.6005 N   0  0  0  0  0  0  0  0  0  0  0  0
    2.2896   -0.9314    0.7284 C   0  0  0  0  0  0  0  0  0  0  0  0
    3.5346   -1.2443    1.3397 N   0  0  0  0  0  0  0  0  0  0  0  0
    1.2386   -1.5936    0.9263 O   0  0  0  0  0  0  0  0  0  0  0  0
   -2.6099   -0.8097   -1.7064 H   0  0  0  0  0  0  0  0  0  0  0  0
   -3.6475    0.6242   -1.1559 H   0  0  0  0  0  0  0  0  0  0  0  0
   -4.0889   -1.0076   -0.6205 H   0  0  0  0  0  0  0  0  0  0  0  0
   -3.4739    0.2621    1.9610 H   0  0  0  0  0  0  0  0  0  0  0  0
   -3.4933   -1.4692    1.5728 H   0  0  0  0  0  0  0  0  0  0  0  0
   -1.9773   -0.6700    2.2914 H   0  0  0  0  0  0  0  0  0  0  0  0
    3.0708    2.7949   -1.9114 H   0  0  0  0  0  0  0  0  0  0  0  0
    0.6119    2.2092   -2.1912 H   0  0  0  0  0  0  0  0  0  0  0  0
    4.0889   -0.8241    2.1304 H   0  0  0  0  0  0  0  0  0  0  0  0
    3.9719   -2.0887    0.8737 H   0  0  0  0  0  0  0  0  0  0  0  0
  1  2  1  0
  2  3  1  0
  2  4  1  0
  4  5  2  0
  5  6  1  0
  6  7  2  0
  7  8  1  0
  8  9  2  0
  9 10  1  0
  7 11  1  0
 11 12  1  0
 11 13  2  0
 10  6  1  0
  1 14  1  0
  1 15  1  0
  1 16  1  0
  3 17  1  0
  3 18  1  0
  3 19  1  0
  9 20  1  0
 10 21  1  0
 12 22  1  0
 12 23  1  0
M  END
$$$$
