
     RDKit          3D

120127  0  0  0  0  0  0  0  0999 V2000
  -10.5619   -1.2365   -2.5463 C   0  0  0  0  0  0  0  0  0  0  0  0
  -10.2609   -0.3456   -1.3955 C   0  0  0  0  0  0  0  0  0  0  0  0
  -11.0166    0.7107   -1.1694 C   0  0  0  0  0  0  0  0  0  0  0  0
  -10.4346    1.7163   -0.1926 C   0  0  1  0  0  0  0  0  0  0  0  0
  -10.7113    1.2237    1.1822 C   0  0  0  0  0  0  0  0  0  0  0  0
   -9.4935    1.0204    2.0054 C   0  0  0  0  0  0  0  0  0  0  0  0
   -9.5387    1.1936    3.3593 N   0  0  0  0  0  0  0  0  0  0  0  0
   -8.4587    1.0384    4.1536 C   0  0  0  0  0  0  0  0  0  0  0  0
   -8.5354    1.2057    5.4023 O   0  0  0  0  0  0  0  0  0  0  0  0
   -7.2484    0.6904    3.5935 C   0  0  0  0  0  0  0  0  0  0  0  0
   -7.1919    0.5101    2.2029 C   0  0  0  0  0  0  0  0  0  0  0  0
   -8.2911    0.6713    1.4307 C   0  0  0  0  0  0  0  0  0  0  0  0
   -8.3015    0.4919   -0.0592 C   0  0  1  0  0  0  0  0  0  0  0  0
   -9.0936   -0.6817   -0.5235 C   0  0  0  0  0  0  0  0  0  0  0  0
   -8.9665    1.7635   -0.5726 C   0  0  2  0  0  0  0  0  0  0  0  0
   -8.2547    2.9956   -0.1435 C   0  0  0  0  0  0  0  0  0  0  0  0
   -6.7981    2.8682   -0.4870 C   0  0  0  0  0  0  0  0  0  0  0  0
   -6.4727    1.6000   -1.2601 C   0  0  0  0  0  0  0  0  0  0  0  0
   -6.9600    0.4205   -0.5912 N   0  0  0  0  0  0  0  0  0  0  0  0
   -6.2049   -0.7694   -0.4354 C   0  0  0  0  0  0  0  0  0  0  0  0
   -6.5938   -1.8094    0.1194 O   0  0  0  0  0  0  0  0  0  0  0  0
   -4.7752   -0.7869   -1.0000 C   0  0  0  0  0  0  0  0  0  0  0  0
   -4.1146   -1.9872   -0.4780 C   0  0  0  0  0  0  0  0  0  0  0  0
   -2.8117   -2.3695   -0.7980 N   0  0  0  0  0  0  0  0  0  0  0  0
   -2.6883   -2.8322   -2.1957 C   0  0  0  0  0  0  0  0  0  0  0  0
   -1.7241   -1.4154   -0.5458 C   0  0  0  0  0  0  0  0  0  0  0  0
   -1.6642   -0.3819   -1.5684 C   0  0  0  0  0  0  0  0  0  0  0  0
   -0.7750    0.7821   -1.5159 C   0  0  0  0  0  0  0  0  0  0  0  0
    0.6865    0.5546   -1.4106 C   0  0  0  0  0  0  0  0  0  0  0  0
    1.1145    0.0597   -0.0787 C   0  0  0  0  0  0  0  0  0  0  0  0
    2.6027   -0.1272    0.0049 C   0  0  0  0  0  0  0  0  0  0  0  0
    3.1721   -1.1431   -0.7147 N   0  0  0  0  0  0  0  0  0  0  0  0
    3.2387   -1.2445   -2.0873 C   0  0  0  0  0  0  0  0  0  0  0  0
    3.6381   -2.2749    0.0475 C   0  0  0  0  0  0  0  0  0  0  0  0
    4.7538   -1.8969    0.9551 C   0  0  0  0  0  0  0  0  0  0  0  0
    5.9295   -1.3892    0.2529 C   0  0  0  0  0  0  0  0  0  0  0  0
    6.0081   -1.5088   -0.9607 O   0  0  0  0  0  0  0  0  0  0  0  0
    6.9815   -0.7547    0.9860 N   0  0  0  0  0  0  0  0  0  0  0  0
    6.8042   -0.7081    2.4370 C   0  0  0  0  0  0  0  0  0  0  0  0
    8.0590   -1.0236    3.2087 C   0  0  0  0  0  0  0  0  0  0  0  0
    9.2461   -0.2497    2.6327 C   0  0  0  0  0  0  0  0  0  0  0  0
    9.3274   -0.7091    1.1931 C   0  0  2  0  0  0  0  0  0  0  0  0
   10.5879   -0.2582    0.5204 C   0  0  1  0  0  0  0  0  0  0  0  0
   10.6806   -1.0426   -0.7382 C   0  0  0  0  0  0  0  0  0  0  0  0
    9.5294   -1.3182   -1.3394 C   0  0  0  0  0  0  0  0  0  0  0  0
    9.3479   -2.4896   -2.2356 C   0  0  0  0  0  0  0  0  0  0  0  0
    8.4033   -0.3514   -1.0426 C   0  0  0  0  0  0  0  0  0  0  0  0
    8.1286   -0.1778    0.3970 C   0  0  1  0  0  0  0  0  0  0  0  0
    8.1803    1.3228    0.6643 C   0  0  0  0  0  0  0  0  0  0  0  0
    7.0611    2.0552    0.9408 C   0  0  0  0  0  0  0  0  0  0  0  0
    7.1703    3.4190    1.1830 C   0  0  0  0  0  0  0  0  0  0  0  0
    8.3967    4.0409    1.1456 C   0  0  0  0  0  0  0  0  0  0  0  0
    8.5026    5.2910    1.3674 O   0  0  0  0  0  0  0  0  0  0  0  0
    9.4706    3.2861    0.8687 N   0  0  0  0  0  0  0  0  0  0  0  0
    9.4009    1.9439    0.6260 C   0  0  0  0  0  0  0  0  0  0  0  0
   10.6484    1.2100    0.3070 C   0  0  0  0  0  0  0  0  0  0  0  0
  -10.0825   -2.2209   -2.4866 H   0  0  0  0  0  0  0  0  0  0  0  0
  -10.2510   -0.6932   -3.4871 H   0  0  0  0  0  0  0  0  0  0  0  0
  -11.6627   -1.3792   -2.6006 H   0  0  0  0  0  0  0  0  0  0  0  0
  -11.9513    0.8655   -1.6180 H   0  0  0  0  0  0  0  0  0  0  0  0
  -10.8712    2.7223   -0.3241 H   0  0  0  0  0  0  0  0  0  0  0  0
  -11.3332    1.9899    1.7282 H   0  0  0  0  0  0  0  0  0  0  0  0
  -11.2582    0.2538    1.1603 H   0  0  0  0  0  0  0  0  0  0  0  0
  -10.4352    1.4574    3.8222 H   0  0  0  0  0  0  0  0  0  0  0  0
   -6.3472    0.5502    4.1666 H   0  0  0  0  0  0  0  0  0  0  0  0
   -6.2387    0.2528    1.7704 H   0  0  0  0  0  0  0  0  0  0  0  0
   -9.5243   -1.2984    0.3186 H   0  0  0  0  0  0  0  0  0  0  0  0
   -8.4348   -1.3541   -1.1451 H   0  0  0  0  0  0  0  0  0  0  0  0
   -8.9167    1.7212   -1.6798 H   0  0  0  0  0  0  0  0  0  0  0  0
   -8.4303    3.2085    0.9295 H   0  0  0  0  0  0  0  0  0  0  0  0
   -8.6895    3.8576   -0.7067 H   0  0  0  0  0  0  0  0  0  0  0  0
   -6.1557    2.9096    0.4382 H   0  0  0  0  0  0  0  0  0  0  0  0
   -6.4675    3.7264   -1.1045 H   0  0  0  0  0  0  0  0  0  0  0  0
   -6.9753    1.7478   -2.2664 H   0  0  0  0  0  0  0  0  0  0  0  0
   -5.4076    1.6194   -1.4799 H   0  0  0  0  0  0  0  0  0  0  0  0
   -4.8536   -0.6842   -2.0714 H   0  0  0  0  0  0  0  0  0  0  0  0
   -4.3798    0.1778   -0.5705 H   0  0  0  0  0  0  0  0  0  0  0  0
   -4.2374   -2.0832    0.6509 H   0  0  0  0  0  0  0  0  0  0  0  0
   -4.7824   -2.8694   -0.8157 H   0  0  0  0  0  0  0  0  0  0  0  0
   -1.5882   -3.0280   -2.3353 H   0  0  0  0  0  0  0  0  0  0  0  0
   -3.1940   -3.7965   -2.2569 H   0  0  0  0  0  0  0  0  0  0  0  0
   -2.9922   -2.0736   -2.9173 H   0  0  0  0  0  0  0  0  0  0  0  0
   -0.8114   -2.0993   -0.6983 H   0  0  0  0  0  0  0  0  0  0  0  0
   -1.7129   -1.1301    0.5034 H   0  0  0  0  0  0  0  0  0  0  0  0
   -2.6652    0.0134   -1.9246 H   0  0  0  0  0  0  0  0  0  0  0  0
   -1.2720   -0.9713   -2.5294 H   0  0  0  0  0  0  0  0  0  0  0  0
   -1.1290    1.4746   -0.6754 H   0  0  0  0  0  0  0  0  0  0  0  0
   -1.0068    1.4005   -2.4641 H   0  0  0  0  0  0  0  0  0  0  0  0
    1.1466    1.6093   -1.5446 H   0  0  0  0  0  0  0  0  0  0  0  0
    1.0662   -0.0165   -2.2853 H   0  0  0  0  0  0  0  0  0  0  0  0
    0.6111   -0.8694    0.1870 H   0  0  0  0  0  0  0  0  0  0  0  0
    0.8529    0.8575    0.7182 H   0  0  0  0  0  0  0  0  0  0  0  0
    2.8719   -0.1630    1.1071 H   0  0  0  0  0  0  0  0  0  0  0  0
    3.1167    0.8613   -0.2957 H   0  0  0  0  0  0  0  0  0  0  0  0
    3.3272   -0.2740   -2.5921 H   0  0  0  0  0  0  0  0  0  0  0  0
    2.3039   -1.7626   -2.4730 H   0  0  0  0  0  0  0  0  0  0  0  0
    4.0530   -1.9203   -2.4651 H   0  0  0  0  0  0  0  0  0  0  0  0
    2.8069   -2.6836    0.6934 H   0  0  0  0  0  0  0  0  0  0  0  0
    3.9479   -3.0595   -0.6586 H   0  0  0  0  0  0  0  0  0  0  0  0
    4.9854   -2.8088    1.5708 H   0  0  0  0  0  0  0  0  0  0  0  0
    4.4332   -1.1380    1.7088 H   0  0  0  0  0  0  0  0  0  0  0  0
    6.3036    0.2017    2.7884 H   0  0  0  0  0  0  0  0  0  0  0  0
    6.0785   -1.5402    2.7336 H   0  0  0  0  0  0  0  0  0  0  0  0
    8.2249   -2.1212    3.0718 H   0  0  0  0  0  0  0  0  0  0  0  0
    7.8807   -0.8028    4.2611 H   0  0  0  0  0  0  0  0  0  0  0  0
    9.0353    0.8111    2.7600 H   0  0  0  0  0  0  0  0  0  0  0  0
   10.1361   -0.6317    3.1400 H   0  0  0  0  0  0  0  0  0  0  0  0
    9.3104   -1.8151    1.1963 H   0  0  0  0  0  0  0  0  0  0  0  0
   11.4304   -0.5761    1.2062 H   0  0  0  0  0  0  0  0  0  0  0  0
   11.5963   -1.3932   -1.1668 H   0  0  0  0  0  0  0  0  0  0  0  0
    8.5563   -2.2412   -2.9817 H   0  0  0  0  0  0  0  0  0  0  0  0
    8.9872   -3.3946   -1.6917 H   0  0  0  0  0  0  0  0  0  0  0  0
   10.2601   -2.7077   -2.8293 H   0  0  0  0  0  0  0  0  0  0  0  0
    7.5769   -0.5350   -1.7327 H   0  0  0  0  0  0  0  0  0  0  0  0
    8.8403    0.6353   -1.4852 H   0  0  0  0  0  0  0  0  0  0  0  0
    6.0999    1.5617    0.9483 H   0  0  0  0  0  0  0  0  0  0  0  0
    6.2724    3.9828    1.4003 H   0  0  0  0  0  0  0  0  0  0  0  0
   10.4062    3.7605    0.8409 H   0  0  0  0  0  0  0  0  0  0  0  0
   11.4759    1.6480    0.9424 H   0  0  0  0  0  0  0  0  0  0  0  0
   10.9346    1.4557   -0.7382 H   0  0  0  0  0  0  0  0  0  0  0  0
  1  2  1  0
  2  3  2  0
  3  4  1  0
  4  5  1  0
  5  6  1  0
  6  7  1  0
  7  8  1  0
  8  9  2  0
  8 10  1  0
 10 11  2  0
 11 12  1  0
 12 13  1  0
 13 14  1  0
 13 15  1  0
 15 16  1  0
 16 17  1  0
 17 18  1  0
 18 19  1  0
 19 20  1  0
 20 21  2  0
 20 22  1  0
 22 23  1  0
 23 24  1  0
 24 25  1  0
 24 26  1  0
 26 27  1  0
 27 28  1  0
 28 29  1  0
 29 30  1  0
 30 31  1  0
 31 32  1  0
 32 33  1  0
 32 34  1  0
 34 35  1  0
 35 36  1  0
 36 37  2  0
 36 38  1  0
 38 39  1  0
 39 40  1  0
 40 41  1  0
 41 42  1  0
 42 43  1  0
 43 44  1  0
 44 45  2  0
 45 46  1  0
 45 47  1  0
 47 48  1  0
 48 49  1  0
 49 50  1  0
 50 51  2  0
 51 52  1  0
 52 53  2  0
 52 54  1  0
 54 55  1  0
 55 56  1  0
 14  2  1  0
 48 38  1  1
 55 49  2  0
 15  4  1  0
 48 42  1  0
 12  6  2  0
 13 19  1  6
 56 43  1  0
  1 57  1  0
  1 58  1  0
  1 59  1  0
  3 60  1  0
  4 61  1  1
  5 62  1  0
  5 63  1  0
  7 64  1  0
 10 65  1  0
 11 66  1  0
 14 67  1  0
 14 68  1  0
 15 69  1  6
 16 70  1  0
 16 71  1  0
 17 72  1  0
 17 73  1  0
 18 74  1  0
 18 75  1  0
 22 76  1  0
 22 77  1  0
 23 78  1  0
 23 79  1  0
 25 80  1  0
 25 81  1  0
 25 82  1  0
 26 83  1  0
 26 84  1  0
 27 85  1  0
 27 86  1  0
 28 87  1  0
 28 88  1  0
 29 89  1  0
 29 90  1  0
 30 91  1  0
 30 92  1  0
 31 93  1  0
 31 94  1  0
 33 95  1  0
 33 96  1  0
 33 97  1  0
 34 98  1  0
 34 99  1  0
 35100  1  0
 35101  1  0
 39102  1  0
 39103  1  0
 40104  1  0
 40105  1  0
 41106  1  0
 41107  1  0
 42108  1  1
 43109  1  1
 44110  1  0
 46111  1  0
 46112  1  0
 46113  1  0
 47114  1  0
 47115  1  0
 50116  1  0
 51117  1  0
 54118  1  0
 56119  1  0
 56120  1  0
M  END
$$$$
