
     RDKit          3D

 58 63  0  0  0  0  0  0  0  0999 V2000
    5.4828    1.3395    2.3373 C   0  0  0  0  0  0  0  0  0  0  0  0
    4.6614    0.8262    1.3036 O   0  0  0  0  0  0  0  0  0  0  0  0
    4.8264   -0.5036    0.9523 C   0  0  0  0  0  0  0  0  0  0  0  0
    5.7326   -1.3063    1.5588 N   0  0  0  0  0  0  0  0  0  0  0  0
    5.8993   -2.5992    1.2237 C   0  0  0  0  0  0  0  0  0  0  0  0
    5.1195   -3.1521    0.2167 C   0  0  0  0  0  0  0  0  0  0  0  0
    4.1923   -2.3362   -0.4059 C   0  0  0  0  0  0  0  0  0  0  0  0
    4.0299   -1.0101   -0.0535 C   0  0  0  0  0  0  0  0  0  0  0  0
    3.0787   -0.1549   -0.6852 N   0  0  0  0  0  0  0  0  0  0  0  0
    3.2965    0.9320   -1.4056 N   0  0  0  0  0  0  0  0  0  0  0  0
    2.1776    1.4911   -1.8470 C   0  0  0  0  0  0  0  0  0  0  0  0
    1.9959    2.7200   -2.6864 C   0  0  0  0  0  0  0  0  0  0  0  0
    1.1425    0.7179   -1.3847 C   0  0  0  0  0  0  0  0  0  0  0  0
    1.7311   -0.2981   -0.6662 C   0  0  0  0  0  0  0  0  0  0  0  0
    0.6265   -1.1173   -0.1885 C   0  0  0  0  0  0  0  0  0  0  0  0
    0.7603   -2.1492    0.5131 O   0  0  0  0  0  0  0  0  0  0  0  0
   -0.6334   -0.5801   -0.6315 N   0  0  0  0  0  0  0  0  0  0  0  0
   -1.9152   -1.1370   -0.3903 C   0  0  0  0  0  0  0  0  0  0  0  0
   -2.5454   -2.0088   -1.2519 C   0  0  0  0  0  0  0  0  0  0  0  0
   -3.7788   -2.5500   -1.0110 C   0  0  0  0  0  0  0  0  0  0  0  0
   -4.4040   -3.4825   -1.9777 C   0  0  0  0  0  0  0  0  0  0  0  0
   -4.3957   -2.1752    0.1772 C   0  0  0  0  0  0  0  0  0  0  0  0
   -5.5708   -2.5205    0.6883 N   0  0  0  0  0  0  0  0  0  0  0  0
   -5.7064   -1.8962    1.8460 N   0  0  0  0  0  0  0  0  0  0  0  0
   -4.6133   -1.1412    2.0883 C   0  0  0  0  0  0  0  0  0  0  0  0
   -4.3543   -0.2745    3.2837 C   0  0  0  0  0  0  0  0  0  0  0  0
   -3.8075   -1.3359    1.0239 N   0  0  0  0  0  0  0  0  0  0  0  0
   -2.5780   -0.8073    0.7662 C   0  0  0  0  0  0  0  0  0  0  0  0
   -0.3462    0.5962   -1.3762 C   0  0  0  0  0  0  0  0  0  0  0  0
   -0.9185    1.8513   -0.8429 C   0  0  0  0  0  0  0  0  0  0  0  0
   -0.7583    2.1273    0.4948 C   0  0  0  0  0  0  0  0  0  0  0  0
   -1.2849    3.2902    1.0043 C   0  0  0  0  0  0  0  0  0  0  0  0
   -1.9644    4.1687    0.1880 C   0  0  0  0  0  0  0  0  0  0  0  0
   -2.6484    5.6662    0.8197 Cl  0  0  0  0  0  0  0  0  0  0  0  0
   -2.1353    3.9102   -1.1532 C   0  0  0  0  0  0  0  0  0  0  0  0
   -1.6076    2.7445   -1.6650 C   0  0  0  0  0  0  0  0  0  0  0  0
    6.5518    1.3454    2.0457 H   0  0  0  0  0  0  0  0  0  0  0  0
    5.4098    0.7355    3.2562 H   0  0  0  0  0  0  0  0  0  0  0  0
    5.1275    2.3709    2.6119 H   0  0  0  0  0  0  0  0  0  0  0  0
    6.6319   -3.2365    1.7185 H   0  0  0  0  0  0  0  0  0  0  0  0
    5.2589   -4.1910   -0.0470 H   0  0  0  0  0  0  0  0  0  0  0  0
    3.5752   -2.7480   -1.1928 H   0  0  0  0  0  0  0  0  0  0  0  0
    2.9904    2.9140   -3.1727 H   0  0  0  0  0  0  0  0  0  0  0  0
    1.6602    3.5703   -2.0890 H   0  0  0  0  0  0  0  0  0  0  0  0
    1.2965    2.4920   -3.5143 H   0  0  0  0  0  0  0  0  0  0  0  0
   -2.0353   -2.2762   -2.1643 H   0  0  0  0  0  0  0  0  0  0  0  0
   -3.6167   -4.0648   -2.5251 H   0  0  0  0  0  0  0  0  0  0  0  0
   -4.9607   -2.8983   -2.7484 H   0  0  0  0  0  0  0  0  0  0  0  0
   -5.0600   -4.1926   -1.4562 H   0  0  0  0  0  0  0  0  0  0  0  0
   -5.2515    0.3922    3.4006 H   0  0  0  0  0  0  0  0  0  0  0  0
   -4.1494   -0.8635    4.1816 H   0  0  0  0  0  0  0  0  0  0  0  0
   -3.5088    0.3789    3.0501 H   0  0  0  0  0  0  0  0  0  0  0  0
   -2.1719   -0.1406    1.5054 H   0  0  0  0  0  0  0  0  0  0  0  0
   -0.7369    0.4663   -2.4241 H   0  0  0  0  0  0  0  0  0  0  0  0
   -0.2232    1.4360    1.1382 H   0  0  0  0  0  0  0  0  0  0  0  0
   -1.1875    3.5626    2.0650 H   0  0  0  0  0  0  0  0  0  0  0  0
   -2.6799    4.6194   -1.7947 H   0  0  0  0  0  0  0  0  0  0  0  0
   -1.7070    2.4831   -2.7080 H   0  0  0  0  0  0  0  0  0  0  0  0
  1  2  1  0
  2  3  1  0
  3  4  2  0
  4  5  1  0
  5  6  2  0
  6  7  1  0
  7  8  2  0
  8  9  1  0
  9 10  1  0
 10 11  2  0
 11 12  1  0
 11 13  1  0
 13 14  2  0
 14 15  1  0
 15 16  2  0
 15 17  1  0
 17 18  1  0
 18 19  1  0
 19 20  2  0
 20 21  1  0
 20 22  1  0
 22 23  2  0
 23 24  1  0
 24 25  2  0
 25 26  1  0
 25 27  1  0
 27 28  1  0
 17 29  1  0
 29 30  1  0
 30 31  2  0
 31 32  1  0
 32 33  2  0
 33 34  1  0
 33 35  1  0
 35 36  2  0
  8  3  1  0
 14  9  1  0
 28 18  2  0
 36 30  1  0
 29 13  1  0
 27 22  1  0
  1 37  1  0
  1 38  1  0
  1 39  1  0
  5 40  1  0
  6 41  1  0
  7 42  1  0
 12 43  1  0
 12 44  1  0
 12 45  1  0
 19 46  1  0
 21 47  1  0
 21 48  1  0
 21 49  1  0
 26 50  1  0
 26 51  1  0
 26 52  1  0
 28 53  1  0
 29 54  1  0
 31 55  1  0
 32 56  1  0
 35 57  1  0
 36 58  1  0
M  END
$$$$
