
     RDKit          3D

 44 45  0  0  0  0  0  0  0  0999 V2000
   -3.7616    3.4995   -0.4317 C   0  0  0  0  0  0  0  0  0  0  0  0
   -3.4446    2.8121    0.8740 C   0  0  0  0  0  0  0  0  0  0  0  0
   -3.2289    1.3140    0.6729 C   0  0  0  0  0  0  0  0  0  0  0  0
   -2.0825    1.0636   -0.2739 C   0  0  0  0  0  0  0  0  0  0  0  0
   -1.8806   -0.4408   -0.4976 C   0  0  0  0  0  0  0  0  0  0  0  0
   -1.5793   -1.0851    0.7867 C   0  0  0  0  0  0  0  0  0  0  0  0
   -1.3851   -2.5482    0.7798 C   0  0  0  0  0  0  0  0  0  0  0  0
   -1.6438   -3.2083   -0.2471 O   0  0  0  0  0  0  0  0  0  0  0  0
   -0.8975   -3.2263    1.9518 N   0  0  0  0  0  0  0  0  0  0  0  0
   -0.7398   -4.5507    1.8917 O   0  0  0  0  0  0  0  0  0  0  0  0
   -0.6501   -0.7072   -1.7214 S   0  0  0  0  0  6  0  0  0  0  0  0
   -0.7428   -2.0909   -2.2468 O   0  0  0  0  0  0  0  0  0  0  0  0
   -0.9687    0.1834   -2.9353 O   0  0  0  0  0  0  0  0  0  0  0  0
    0.9459   -0.3391   -1.2575 C   0  0  0  0  0  0  0  0  0  0  0  0
    1.4150    0.9506   -1.4502 C   0  0  0  0  0  0  0  0  0  0  0  0
    2.6910    1.3170   -1.0995 C   0  0  0  0  0  0  0  0  0  0  0  0
    3.5696    0.3997   -0.5322 C   0  0  0  0  0  0  0  0  0  0  0  0
    4.8377    0.8174   -0.1986 C   0  0  0  0  0  0  0  0  0  0  0  0
    5.6990   -0.0891    0.3595 C   0  0  0  0  0  0  0  0  0  0  0  0
    5.2776   -1.3884    0.5718 C   0  0  0  0  0  0  0  0  0  0  0  0
    4.0081   -1.7873    0.2324 C   0  0  0  0  0  0  0  0  0  0  0  0
    3.1330   -0.8859   -0.3291 C   0  0  0  0  0  0  0  0  0  0  0  0
    1.8480   -1.2162   -0.6931 C   0  0  0  0  0  0  0  0  0  0  0  0
   -4.3177    2.7694   -1.0527 H   0  0  0  0  0  0  0  0  0  0  0  0
   -4.3982    4.3914   -0.2120 H   0  0  0  0  0  0  0  0  0  0  0  0
   -2.8713    3.8688   -0.9492 H   0  0  0  0  0  0  0  0  0  0  0  0
   -2.5855    3.2385    1.4009 H   0  0  0  0  0  0  0  0  0  0  0  0
   -4.3278    2.9304    1.5403 H   0  0  0  0  0  0  0  0  0  0  0  0
   -3.0374    0.9375    1.7018 H   0  0  0  0  0  0  0  0  0  0  0  0
   -4.1837    0.8623    0.3408 H   0  0  0  0  0  0  0  0  0  0  0  0
   -1.1611    1.4171    0.2380 H   0  0  0  0  0  0  0  0  0  0  0  0
   -2.1672    1.6117   -1.2074 H   0  0  0  0  0  0  0  0  0  0  0  0
   -2.8422   -0.7800   -0.9060 H   0  0  0  0  0  0  0  0  0  0  0  0
   -2.4265   -0.9118    1.5130 H   0  0  0  0  0  0  0  0  0  0  0  0
   -0.6801   -0.6358    1.2791 H   0  0  0  0  0  0  0  0  0  0  0  0
   -0.6997   -2.6232    2.7759 H   0  0  0  0  0  0  0  0  0  0  0  0
   -1.5136   -4.9156    1.3708 H   0  0  0  0  0  0  0  0  0  0  0  0
    0.7866    1.7300   -1.8903 H   0  0  0  0  0  0  0  0  0  0  0  0
    3.0352    2.3358   -1.2611 H   0  0  0  0  0  0  0  0  0  0  0  0
    5.1194    1.8589   -0.3887 H   0  0  0  0  0  0  0  0  0  0  0  0
    6.6929    0.2397    0.6206 H   0  0  0  0  0  0  0  0  0  0  0  0
    5.9840   -2.0779    1.0145 H   0  0  0  0  0  0  0  0  0  0  0  0
    3.6779   -2.8163    0.4018 H   0  0  0  0  0  0  0  0  0  0  0  0
    1.4963   -2.2249   -0.5370 H   0  0  0  0  0  0  0  0  0  0  0  0
  1  2  1  0
  2  3  1  0
  3  4  1  0
  4  5  1  0
  5  6  1  0
  6  7  1  0
  7  8  2  0
  7  9  1  0
  9 10  1  0
  5 11  1  0
 11 12  2  0
 11 13  2  0
 11 14  1  0
 14 15  2  0
 15 16  1  0
 16 17  2  0
 17 18  1  0
 18 19  2  0
 19 20  1  0
 20 21  2  0
 21 22  1  0
 22 23  2  0
 23 14  1  0
 22 17  1  0
  1 24  1  0
  1 25  1  0
  1 26  1  0
  2 27  1  0
  2 28  1  0
  3 29  1  0
  3 30  1  0
  4 31  1  0
  4 32  1  0
  5 33  1  0
  6 34  1  0
  6 35  1  0
  9 36  1  0
 10 37  1  0
 15 38  1  0
 16 39  1  0
 18 40  1  0
 19 41  1  0
 20 42  1  0
 21 43  1  0
 23 44  1  0
M  END
$$$$
