
     RDKit          3D

 68 71  0  0  0  0  0  0  0  0999 V2000
   -4.6862   -4.5091   -3.8045 C   0  0  0  0  0  0  0  0  0  0  0  0
   -3.2514   -4.3454   -3.9346 N   0  0  0  0  0  0  0  0  0  0  0  0
   -3.0018   -2.9553   -4.2629 C   0  0  0  0  0  0  0  0  0  0  0  0
   -2.9179   -2.1294   -2.9594 C   0  0  0  0  0  0  0  0  0  0  0  0
   -1.6683   -2.5176   -2.3616 N   0  0  0  0  0  0  0  0  0  0  0  0
   -0.7565   -1.6273   -1.7569 C   0  0  0  0  0  0  0  0  0  0  0  0
    0.3358   -2.1106   -1.2883 O   0  0  0  0  0  0  0  0  0  0  0  0
   -0.9758   -0.1825   -1.6260 C   0  0  1  0  0  0  0  0  0  0  0  0
   -2.1253   -0.0169   -0.5552 C   0  0  0  0  0  0  0  0  0  0  0  0
   -2.4336    1.0628   -0.2068 O   0  0  0  0  0  0  0  0  0  0  0  0
   -2.6336    2.2708    0.2463 C   0  0  0  0  0  0  0  0  0  0  0  0
   -2.5227    2.3637    1.7415 C   0  0  0  0  0  0  0  0  0  0  0  0
   -1.2560    2.5865    2.2599 C   0  0  0  0  0  0  0  0  0  0  0  0
   -1.0797    2.6810    3.6315 C   0  0  0  0  0  0  0  0  0  0  0  0
   -2.1407    2.5570    4.4970 C   0  0  0  0  0  0  0  0  0  0  0  0
   -3.3881    2.3372    3.9644 C   0  0  0  0  0  0  0  0  0  0  0  0
   -3.5617    2.2437    2.6051 C   0  0  0  0  0  0  0  0  0  0  0  0
    0.1851    0.4711   -1.0085 N   0  0  0  0  0  0  0  0  0  0  0  0
    0.5643    1.7823   -1.3858 C   0  0  0  0  0  0  0  0  0  0  0  0
   -0.2262    2.2862   -2.2818 O   0  0  0  0  0  0  0  0  0  0  0  0
    1.6771    2.5648   -0.9043 C   0  0  0  0  0  0  0  0  0  0  0  0
    1.8112    3.8557   -1.4238 C   0  0  0  0  0  0  0  0  0  0  0  0
    2.8503    4.6358   -0.9929 C   0  0  0  0  0  0  0  0  0  0  0  0
    3.7467    4.1431   -0.0575 C   0  0  0  0  0  0  0  0  0  0  0  0
    3.6368    2.9180    0.4511 N   0  0  0  0  0  0  0  0  0  0  0  0
    2.5864    2.1319    0.0141 C   0  0  0  0  0  0  0  0  0  0  0  0
    2.4621    0.8514    0.5385 O   0  0  0  0  0  0  0  0  0  0  0  0
    3.4132    0.4027    1.4431 C   0  0  0  0  0  0  0  0  0  0  0  0
    3.1119    0.0324    2.7407 C   0  0  0  0  0  0  0  0  0  0  0  0
    4.0982   -0.4100    3.6047 C   0  0  0  0  0  0  0  0  0  0  0  0
    5.4044   -0.5013    3.2195 C   0  0  0  0  0  0  0  0  0  0  0  0
    6.4505   -0.9817    4.1547 C   0  0  0  0  0  0  0  0  0  0  0  0
    6.6425   -2.3443    4.0202 F   0  0  0  0  0  0  0  0  0  0  0  0
    6.0827   -0.7527    5.4661 F   0  0  0  0  0  0  0  0  0  0  0  0
    7.6691   -0.3566    3.9510 F   0  0  0  0  0  0  0  0  0  0  0  0
    5.7332   -0.1361    1.9250 C   0  0  0  0  0  0  0  0  0  0  0  0
    4.7583    0.3017    1.0689 C   0  0  0  0  0  0  0  0  0  0  0  0
    5.2263    0.7435   -0.5538 Cl  0  0  0  0  0  0  0  0  0  0  0  0
   -1.3769   -3.9558   -2.3978 C   0  0  0  0  0  0  0  0  0  0  0  0
   -2.6363   -4.7346   -2.6930 C   0  0  0  0  0  0  0  0  0  0  0  0
   -4.9849   -4.0527   -2.8232 H   0  0  0  0  0  0  0  0  0  0  0  0
   -5.1497   -3.9259   -4.6315 H   0  0  0  0  0  0  0  0  0  0  0  0
   -4.9489   -5.5861   -3.8462 H   0  0  0  0  0  0  0  0  0  0  0  0
   -2.0030   -2.8718   -4.7313 H   0  0  0  0  0  0  0  0  0  0  0  0
   -3.7816   -2.4912   -4.8660 H   0  0  0  0  0  0  0  0  0  0  0  0
   -2.9978   -1.0974   -3.2820 H   0  0  0  0  0  0  0  0  0  0  0  0
   -3.7887   -2.4328   -2.3085 H   0  0  0  0  0  0  0  0  0  0  0  0
   -1.3485    0.3129   -2.5095 H   0  0  0  0  0  0  0  0  0  0  0  0
   -1.7352   -0.7208    0.3048 H   0  0  0  0  0  0  0  0  0  0  0  0
   -2.9577   -0.7090   -0.9438 H   0  0  0  0  0  0  0  0  0  0  0  0
   -3.7030    2.5865    0.0278 H   0  0  0  0  0  0  0  0  0  0  0  0
   -2.0384    3.0987   -0.2199 H   0  0  0  0  0  0  0  0  0  0  0  0
   -0.4170    2.6847    1.5770 H   0  0  0  0  0  0  0  0  0  0  0  0
   -0.0740    2.8545    4.0187 H   0  0  0  0  0  0  0  0  0  0  0  0
   -1.9737    2.6362    5.5627 H   0  0  0  0  0  0  0  0  0  0  0  0
   -4.2178    2.2358    4.6351 H   0  0  0  0  0  0  0  0  0  0  0  0
   -4.5456    2.0754    2.2066 H   0  0  0  0  0  0  0  0  0  0  0  0
    0.7341   -0.0227   -0.2898 H   0  0  0  0  0  0  0  0  0  0  0  0
    1.0843    4.2087   -2.1584 H   0  0  0  0  0  0  0  0  0  0  0  0
    2.9829    5.6543   -1.3819 H   0  0  0  0  0  0  0  0  0  0  0  0
    4.5586    4.7869    0.2624 H   0  0  0  0  0  0  0  0  0  0  0  0
    2.1156    0.0810    3.1065 H   0  0  0  0  0  0  0  0  0  0  0  0
    3.8845   -0.7089    4.6427 H   0  0  0  0  0  0  0  0  0  0  0  0
    6.7794   -0.2198    1.6440 H   0  0  0  0  0  0  0  0  0  0  0  0
   -1.0764   -4.2832   -1.3555 H   0  0  0  0  0  0  0  0  0  0  0  0
   -0.5569   -4.2155   -3.0649 H   0  0  0  0  0  0  0  0  0  0  0  0
   -3.3392   -4.7373   -1.8398 H   0  0  0  0  0  0  0  0  0  0  0  0
   -2.3085   -5.7966   -2.8238 H   0  0  0  0  0  0  0  0  0  0  0  0
  1  2  1  0
  2  3  1  0
  3  4  1  0
  4  5  1  0
  5  6  1  0
  6  7  2  0
  6  8  1  0
  8  9  1  0
  9 10  1  0
 10 11  1  0
 11 12  1  0
 12 13  2  0
 13 14  1  0
 14 15  2  0
 15 16  1  0
 16 17  2  0
  8 18  1  0
 18 19  1  0
 19 20  2  0
 19 21  1  0
 21 22  2  0
 22 23  1  0
 23 24  2  0
 24 25  1  0
 25 26  2  0
 26 27  1  0
 27 28  1  0
 28 29  2  0
 29 30  1  0
 30 31  2  0
 31 32  1  0
 32 33  1  0
 32 34  1  0
 32 35  1  0
 31 36  1  0
 36 37  2  0
 37 38  1  0
  5 39  1  0
 39 40  1  0
 40  2  1  0
 17 12  1  0
 26 21  1  0
 37 28  1  0
  1 41  1  0
  1 42  1  0
  1 43  1  0
  3 44  1  0
  3 45  1  0
  4 46  1  0
  4 47  1  0
  8 48  1  6
  9 49  1  0
  9 50  1  0
 11 51  1  0
 11 52  1  0
 13 53  1  0
 14 54  1  0
 15 55  1  0
 16 56  1  0
 17 57  1  0
 18 58  1  0
 22 59  1  0
 23 60  1  0
 24 61  1  0
 29 62  1  0
 30 63  1  0
 36 64  1  0
 39 65  1  0
 39 66  1  0
 40 67  1  0
 40 68  1  0
M  END
$$$$
