
     RDKit          3D

 39 40  0  0  0  0  0  0  0  0999 V2000
   -2.0145    0.2007    3.7353 C   0  0  0  0  0  0  0  0  0  0  0  0
   -2.6053    0.3072    2.4604 O   0  0  0  0  0  0  0  0  0  0  0  0
   -1.9719   -0.1313    1.3063 C   0  0  0  0  0  0  0  0  0  0  0  0
   -0.7087   -0.7101    1.3002 C   0  0  0  0  0  0  0  0  0  0  0  0
   -0.1027   -1.1368    0.1407 C   0  0  0  0  0  0  0  0  0  0  0  0
    1.2277   -1.7261    0.1956 C   0  0  0  0  0  0  0  0  0  0  0  0
    2.3452   -0.8581   -0.2194 C   0  0  0  0  0  0  0  0  0  0  0  0
    2.9591   -0.9749   -1.4472 C   0  0  0  0  0  0  0  0  0  0  0  0
    3.9615   -0.1455   -1.7410 N   0  0  0  0  0  0  0  0  0  0  0  0
    4.4285    0.8105   -0.9226 C   0  0  0  0  0  0  0  0  0  0  0  0
    5.5142    1.6701   -1.3065 N   0  0  0  0  0  0  0  0  0  0  0  0
    3.8277    0.9198    0.2706 N   0  0  0  0  0  0  0  0  0  0  0  0
    2.7953    0.1076    0.6439 C   0  0  0  0  0  0  0  0  0  0  0  0
    2.2395    0.3203    1.9427 N   0  0  0  0  0  0  0  0  0  0  0  0
   -0.8011   -0.9720   -1.0567 C   0  0  0  0  0  0  0  0  0  0  0  0
   -2.0525   -0.4035   -1.0887 C   0  0  0  0  0  0  0  0  0  0  0  0
   -2.6972   -0.2645   -2.2981 O   0  0  0  0  0  0  0  0  0  0  0  0
   -2.0817   -0.6991   -3.4866 C   0  0  0  0  0  0  0  0  0  0  0  0
   -2.6338    0.0169    0.1081 C   0  0  0  0  0  0  0  0  0  0  0  0
   -3.8853    0.5860    0.0788 O   0  0  0  0  0  0  0  0  0  0  0  0
   -4.1568    1.9530   -0.0708 C   0  0  0  0  0  0  0  0  0  0  0  0
   -1.5628   -0.8163    3.9097 H   0  0  0  0  0  0  0  0  0  0  0  0
   -2.8292    0.2694    4.5069 H   0  0  0  0  0  0  0  0  0  0  0  0
   -1.3027    0.9978    3.9669 H   0  0  0  0  0  0  0  0  0  0  0  0
   -0.2399   -0.8083    2.2713 H   0  0  0  0  0  0  0  0  0  0  0  0
    1.2420   -2.6217   -0.4907 H   0  0  0  0  0  0  0  0  0  0  0  0
    1.4069   -2.1197    1.2183 H   0  0  0  0  0  0  0  0  0  0  0  0
    2.5847   -1.7420   -2.1061 H   0  0  0  0  0  0  0  0  0  0  0  0
    6.3884    1.3099   -1.7391 H   0  0  0  0  0  0  0  0  0  0  0  0
    5.4421    2.7002   -1.1534 H   0  0  0  0  0  0  0  0  0  0  0  0
    1.5209    1.0204    2.1334 H   0  0  0  0  0  0  0  0  0  0  0  0
    2.5957   -0.2745    2.7157 H   0  0  0  0  0  0  0  0  0  0  0  0
   -0.3484   -1.2977   -1.9717 H   0  0  0  0  0  0  0  0  0  0  0  0
   -2.7509   -0.4301   -4.3493 H   0  0  0  0  0  0  0  0  0  0  0  0
   -1.0971   -0.2065   -3.5655 H   0  0  0  0  0  0  0  0  0  0  0  0
   -1.8804   -1.8043   -3.4770 H   0  0  0  0  0  0  0  0  0  0  0  0
   -4.9336    2.3240    0.6476 H   0  0  0  0  0  0  0  0  0  0  0  0
   -3.2264    2.5329    0.0276 H   0  0  0  0  0  0  0  0  0  0  0  0
   -4.5965    2.0964   -1.0894 H   0  0  0  0  0  0  0  0  0  0  0  0
  1  2  1  0
  2  3  1  0
  3  4  2  0
  4  5  1  0
  5  6  1  0
  6  7  1  0
  7  8  2  0
  8  9  1  0
  9 10  2  0
 10 11  1  0
 10 12  1  0
 12 13  2  0
 13 14  1  0
  5 15  2  0
 15 16  1  0
 16 17  1  0
 17 18  1  0
 16 19  2  0
 19 20  1  0
 20 21  1  0
 19  3  1  0
 13  7  1  0
  1 22  1  0
  1 23  1  0
  1 24  1  0
  4 25  1  0
  6 26  1  0
  6 27  1  0
  8 28  1  0
 11 29  1  0
 11 30  1  0
 14 31  1  0
 14 32  1  0
 15 33  1  0
 18 34  1  0
 18 35  1  0
 18 36  1  0
 21 37  1  0
 21 38  1  0
 21 39  1  0
M  END
$$$$
