
     RDKit          3D

 41 42  0  0  0  0  0  0  0  0999 V2000
   -0.9284    2.8558    2.2715 C   0  0  0  0  0  0  0  0  0  0  0  0
   -1.3561    1.6246    1.7670 O   0  0  0  0  0  0  0  0  0  0  0  0
   -2.4797    1.3967    1.0106 C   0  0  0  0  0  0  0  0  0  0  0  0
   -3.2969    2.5017    0.7048 C   0  0  0  0  0  0  0  0  0  0  0  0
   -4.4259    2.2883   -0.0406 C   0  0  0  0  0  0  0  0  0  0  0  0
   -4.7943    1.0267   -0.5049 C   0  0  0  0  0  0  0  0  0  0  0  0
   -5.8961    0.7950   -1.2331 F   0  0  0  0  0  0  0  0  0  0  0  0
   -3.9710   -0.0229   -0.1872 C   0  0  0  0  0  0  0  0  0  0  0  0
   -2.7972    0.1472    0.5768 C   0  0  0  0  0  0  0  0  0  0  0  0
   -1.9468   -1.0351    0.8155 C   0  0  0  0  0  0  0  0  0  0  0  0
   -0.9119   -1.1859   -0.2188 C   0  0  0  0  0  0  0  0  0  0  0  0
    0.1450   -0.1732   -0.3876 C   0  0  1  0  0  0  0  0  0  0  0  0
    1.0724    0.0500    0.7458 C   0  0  0  0  0  0  0  0  0  0  0  0
    2.3517   -0.5918    0.2971 C   0  0  0  0  0  0  0  0  0  0  0  0
    1.9809   -1.2702   -0.9730 C   0  0  2  0  0  0  0  0  0  0  0  0
    3.0396   -1.2857   -2.0277 C   0  0  0  0  0  0  0  0  0  0  0  0
    4.2809   -1.9889   -1.5787 C   0  0  0  0  0  0  0  0  0  0  0  0
    4.8118   -1.3145   -0.4187 N   0  0  0  0  0  0  0  0  0  0  0  0
    0.9060   -0.5598   -1.4950 O   0  0  0  0  0  0  0  0  0  0  0  0
   -1.7833    3.4593    2.6519 H   0  0  0  0  0  0  0  0  0  0  0  0
   -0.2242    2.6852    3.1413 H   0  0  0  0  0  0  0  0  0  0  0  0
   -0.4053    3.4769    1.4946 H   0  0  0  0  0  0  0  0  0  0  0  0
   -3.0113    3.4752    1.0618 H   0  0  0  0  0  0  0  0  0  0  0  0
   -5.0784    3.0992   -0.2980 H   0  0  0  0  0  0  0  0  0  0  0  0
   -4.2029   -1.0367   -0.5215 H   0  0  0  0  0  0  0  0  0  0  0  0
   -1.4236   -0.9728    1.8055 H   0  0  0  0  0  0  0  0  0  0  0  0
   -2.5514   -1.9698    0.8654 H   0  0  0  0  0  0  0  0  0  0  0  0
   -1.4112   -1.2625   -1.2500 H   0  0  0  0  0  0  0  0  0  0  0  0
   -0.4239   -2.2127   -0.1492 H   0  0  0  0  0  0  0  0  0  0  0  0
   -0.3172    0.8201   -0.6300 H   0  0  0  0  0  0  0  0  0  0  0  0
    0.7049   -0.4716    1.6785 H   0  0  0  0  0  0  0  0  0  0  0  0
    1.2092    1.1261    1.0028 H   0  0  0  0  0  0  0  0  0  0  0  0
    3.0542    0.2339    0.0445 H   0  0  0  0  0  0  0  0  0  0  0  0
    2.7779   -1.2760    1.0613 H   0  0  0  0  0  0  0  0  0  0  0  0
    1.6375   -2.3179   -0.7611 H   0  0  0  0  0  0  0  0  0  0  0  0
    2.5912   -1.8129   -2.9197 H   0  0  0  0  0  0  0  0  0  0  0  0
    3.2365   -0.2158   -2.3064 H   0  0  0  0  0  0  0  0  0  0  0  0
    5.0379   -1.9922   -2.4104 H   0  0  0  0  0  0  0  0  0  0  0  0
    4.0626   -3.0435   -1.3178 H   0  0  0  0  0  0  0  0  0  0  0  0
    5.8131   -1.0266   -0.6440 H   0  0  0  0  0  0  0  0  0  0  0  0
    4.9237   -2.0229    0.3412 H   0  0  0  0  0  0  0  0  0  0  0  0
  1  2  1  0
  2  3  1  0
  3  4  2  0
  4  5  1  0
  5  6  2  0
  6  7  1  0
  6  8  1  0
  8  9  2  0
  9 10  1  0
 10 11  1  0
 11 12  1  0
 12 13  1  0
 13 14  1  0
 14 15  1  0
 15 16  1  0
 16 17  1  0
 17 18  1  0
 15 19  1  0
  9  3  1  0
 19 12  1  0
  1 20  1  0
  1 21  1  0
  1 22  1  0
  4 23  1  0
  5 24  1  0
  8 25  1  0
 10 26  1  0
 10 27  1  0
 11 28  1  0
 11 29  1  0
 12 30  1  6
 13 31  1  0
 13 32  1  0
 14 33  1  0
 14 34  1  0
 15 35  1  1
 16 36  1  0
 16 37  1  0
 17 38  1  0
 17 39  1  0
 18 40  1  0
 18 41  1  0
M  END
$$$$
