
     RDKit          3D

 53 56  0  0  0  0  0  0  0  0999 V2000
    8.3942   -0.0595   -0.9225 C   0  0  0  0  0  0  0  0  0  0  0  0
    7.4082   -0.7574    0.3864 S   0  0  0  0  0  6  0  0  0  0  0  0
    7.9941   -0.3944    1.7228 O   0  0  0  0  0  0  0  0  0  0  0  0
    7.4361   -2.2509    0.2292 O   0  0  0  0  0  0  0  0  0  0  0  0
    5.7775   -0.1221    0.3220 C   0  0  0  0  0  0  0  0  0  0  0  0
    5.4222    1.0232    1.0097 C   0  0  0  0  0  0  0  0  0  0  0  0
    4.1222    1.4884    0.9288 C   0  0  0  0  0  0  0  0  0  0  0  0
    3.1413    0.8599    0.1849 C   0  0  0  0  0  0  0  0  0  0  0  0
    3.5066   -0.2815   -0.4970 C   0  0  0  0  0  0  0  0  0  0  0  0
    4.7802   -0.7495   -0.4262 C   0  0  0  0  0  0  0  0  0  0  0  0
    2.4258   -0.9416   -1.2952 C   0  0  0  0  0  0  0  0  0  0  0  0
    1.2024   -0.9561   -0.3820 C   0  0  0  0  0  0  0  0  0  0  0  0
    0.7388    0.4336   -0.0709 C   0  0  0  0  0  0  0  0  0  0  0  0
   -0.1572    0.8928   -1.1829 C   0  0  0  0  0  0  0  0  0  0  0  0
   -1.5670    0.5087   -1.0963 C   0  0  0  0  0  0  0  0  0  0  0  0
   -2.0207   -0.0142    0.1486 N   0  0  0  0  0  0  0  0  0  0  0  0
   -3.4480   -0.1059    0.3494 C   0  0  0  0  0  0  0  0  0  0  0  0
   -3.9205   -0.5594    1.4262 O   0  0  0  0  0  0  0  0  0  0  0  0
   -4.4024    0.3264   -0.6954 C   0  0  0  0  0  0  0  0  0  0  0  0
   -5.7823    0.1162   -0.2043 C   0  0  0  0  0  0  0  0  0  0  0  0
   -6.5451    1.2046    0.2294 C   0  0  0  0  0  0  0  0  0  0  0  0
   -7.8315    1.0245    0.6890 C   0  0  0  0  0  0  0  0  0  0  0  0
   -8.3930   -0.2539    0.7280 C   0  0  0  0  0  0  0  0  0  0  0  0
  -10.0387   -0.4197    1.3245 Cl  0  0  0  0  0  0  0  0  0  0  0  0
   -7.6489   -1.3375    0.3021 C   0  0  0  0  0  0  0  0  0  0  0  0
   -6.3587   -1.1456   -0.1575 C   0  0  0  0  0  0  0  0  0  0  0  0
   -5.4231   -2.5329   -0.6963 Cl  0  0  0  0  0  0  0  0  0  0  0  0
   -1.1754   -0.4571    1.2224 C   0  0  0  0  0  0  0  0  0  0  0  0
   -0.0000    0.4861    1.2734 C   0  0  0  0  0  0  0  0  0  0  0  0
    1.8381    1.3277    0.1049 O   0  0  0  0  0  0  0  0  0  0  0  0
    9.2915   -0.6955   -1.0454 H   0  0  0  0  0  0  0  0  0  0  0  0
    7.7748   -0.0355   -1.8375 H   0  0  0  0  0  0  0  0  0  0  0  0
    8.7339    0.9264   -0.5994 H   0  0  0  0  0  0  0  0  0  0  0  0
    6.1546    1.5580    1.6109 H   0  0  0  0  0  0  0  0  0  0  0  0
    3.8128    2.3914    1.4617 H   0  0  0  0  0  0  0  0  0  0  0  0
    5.0544   -1.6525   -0.9699 H   0  0  0  0  0  0  0  0  0  0  0  0
    2.6826   -1.9678   -1.5828 H   0  0  0  0  0  0  0  0  0  0  0  0
    2.2194   -0.2683   -2.1496 H   0  0  0  0  0  0  0  0  0  0  0  0
    1.5257   -1.4905    0.5525 H   0  0  0  0  0  0  0  0  0  0  0  0
    0.4168   -1.5151   -0.9171 H   0  0  0  0  0  0  0  0  0  0  0  0
   -0.0058    1.9981   -1.2954 H   0  0  0  0  0  0  0  0  0  0  0  0
    0.2796    0.4625   -2.1320 H   0  0  0  0  0  0  0  0  0  0  0  0
   -1.8504   -0.2345   -1.8931 H   0  0  0  0  0  0  0  0  0  0  0  0
   -2.1999    1.4125   -1.3411 H   0  0  0  0  0  0  0  0  0  0  0  0
   -4.2986   -0.2935   -1.6302 H   0  0  0  0  0  0  0  0  0  0  0  0
   -4.2873    1.4084   -0.9313 H   0  0  0  0  0  0  0  0  0  0  0  0
   -6.0756    2.1991    0.1871 H   0  0  0  0  0  0  0  0  0  0  0  0
   -8.4243    1.8658    1.0253 H   0  0  0  0  0  0  0  0  0  0  0  0
   -8.0928   -2.3421    0.3334 H   0  0  0  0  0  0  0  0  0  0  0  0
   -0.8409   -1.4917    1.0149 H   0  0  0  0  0  0  0  0  0  0  0  0
   -1.7121   -0.3580    2.1884 H   0  0  0  0  0  0  0  0  0  0  0  0
    0.7308    0.2470    2.0498 H   0  0  0  0  0  0  0  0  0  0  0  0
   -0.3642    1.5229    1.3692 H   0  0  0  0  0  0  0  0  0  0  0  0
  1  2  1  0
  2  3  2  0
  2  4  2  0
  2  5  1  0
  5  6  2  0
  6  7  1  0
  7  8  2  0
  8  9  1  0
  9 10  2  0
  9 11  1  0
 11 12  1  0
 12 13  1  0
 13 14  1  0
 14 15  1  0
 15 16  1  0
 16 17  1  0
 17 18  2  0
 17 19  1  0
 19 20  1  0
 20 21  2  0
 21 22  1  0
 22 23  2  0
 23 24  1  0
 23 25  1  0
 25 26  2  0
 26 27  1  0
 16 28  1  0
 28 29  1  0
 13 30  1  0
 10  5  1  0
 29 13  1  0
 30  8  1  0
 26 20  1  0
  1 31  1  0
  1 32  1  0
  1 33  1  0
  6 34  1  0
  7 35  1  0
 10 36  1  0
 11 37  1  0
 11 38  1  0
 12 39  1  0
 12 40  1  0
 14 41  1  0
 14 42  1  0
 15 43  1  0
 15 44  1  0
 19 45  1  0
 19 46  1  0
 21 47  1  0
 22 48  1  0
 25 49  1  0
 28 50  1  0
 28 51  1  0
 29 52  1  0
 29 53  1  0
M  END
$$$$
