
     RDKit          3D

 59 62  0  0  0  0  0  0  0  0999 V2000
   -3.0408    0.3493    1.7026 C   0  0  0  0  0  0  0  0  0  0  0  0
   -2.1292   -0.0804    0.6212 C   0  0  0  0  0  0  0  0  0  0  0  0
   -0.8010   -0.2966    0.8555 C   0  0  0  0  0  0  0  0  0  0  0  0
    0.1022   -0.7030   -0.1401 C   0  0  0  0  0  0  0  0  0  0  0  0
    1.4029   -1.1203    0.2611 C   0  0  0  0  0  0  0  0  0  0  0  0
    2.5427   -1.4913    0.6353 C   0  0  0  0  0  0  0  0  0  0  0  0
    3.8482   -1.9195    1.0594 C   0  0  0  0  0  0  0  0  0  0  0  0
    4.3957   -1.2450    2.1682 C   0  0  0  0  0  0  0  0  0  0  0  0
    5.6860   -1.4637    2.5666 C   0  0  0  0  0  0  0  0  0  0  0  0
    6.5026   -2.3725    1.8726 C   0  0  0  0  0  0  0  0  0  0  0  0
    7.9036   -2.4670    2.3007 C   0  0  0  0  0  0  0  0  0  0  0  0
    8.9188   -2.7610    1.3951 C   0  0  0  0  0  0  0  0  0  0  0  0
   10.2709   -2.7474    1.7781 C   0  0  0  0  0  0  0  0  0  0  0  0
   10.6436   -2.4401    3.0644 C   0  0  0  0  0  0  0  0  0  0  0  0
   12.3474   -2.3471    3.5599 Cl  0  0  0  0  0  0  0  0  0  0  0  0
    9.6524   -2.1538    3.9538 C   0  0  0  0  0  0  0  0  0  0  0  0
    8.2908   -2.1658    3.5868 C   0  0  0  0  0  0  0  0  0  0  0  0
    5.9325   -3.0147    0.8026 C   0  0  0  0  0  0  0  0  0  0  0  0
    4.6380   -2.7780    0.4227 N   0  0  0  0  0  0  0  0  0  0  0  0
   -0.4296   -0.8589   -1.3910 C   0  0  0  0  0  0  0  0  0  0  0  0
   -1.7861   -0.6422   -1.6657 C   0  0  0  0  0  0  0  0  0  0  0  0
   -2.6507   -0.2599   -0.6838 C   0  0  0  0  0  0  0  0  0  0  0  0
   -3.9894   -0.0594   -0.8479 O   0  0  0  0  0  0  0  0  0  0  0  0
   -4.8312   -0.1343   -1.9089 C   0  0  0  0  0  0  0  0  0  0  0  0
   -4.7768    0.8332   -3.0238 C   0  0  0  0  0  0  0  0  0  0  0  0
   -5.0971    2.2001   -2.6692 N   0  0  0  0  0  0  0  0  0  0  0  0
   -4.1653    2.8758   -1.8476 C   0  0  0  0  0  0  0  0  0  0  0  0
   -4.8503    3.3021   -0.5868 C   0  0  0  0  0  0  0  0  0  0  0  0
   -6.1981    2.6049   -0.6203 C   0  0  0  0  0  0  0  0  0  0  0  0
   -6.4186    2.2758   -2.0683 C   0  0  1  0  0  0  0  0  0  0  0  0
   -7.1625    3.4214   -2.7045 C   0  0  0  0  0  0  0  0  0  0  0  0
   -7.2480    3.1513   -4.0840 O   0  0  0  0  0  0  0  0  0  0  0  0
   -2.4311    0.9027    2.4816 H   0  0  0  0  0  0  0  0  0  0  0  0
   -3.7865    1.0825    1.3502 H   0  0  0  0  0  0  0  0  0  0  0  0
   -3.5869   -0.4971    2.1704 H   0  0  0  0  0  0  0  0  0  0  0  0
   -0.3575   -0.1480    1.8619 H   0  0  0  0  0  0  0  0  0  0  0  0
    3.7229   -0.5396    2.6869 H   0  0  0  0  0  0  0  0  0  0  0  0
    6.1015   -0.9431    3.4126 H   0  0  0  0  0  0  0  0  0  0  0  0
    8.6583   -3.0096    0.3880 H   0  0  0  0  0  0  0  0  0  0  0  0
   11.0559   -2.9867    1.0403 H   0  0  0  0  0  0  0  0  0  0  0  0
    9.9130   -1.8857    4.9735 H   0  0  0  0  0  0  0  0  0  0  0  0
    7.5403   -1.9436    4.3313 H   0  0  0  0  0  0  0  0  0  0  0  0
    6.5401   -3.7196    0.2616 H   0  0  0  0  0  0  0  0  0  0  0  0
    0.2685   -1.1703   -2.1797 H   0  0  0  0  0  0  0  0  0  0  0  0
   -2.1339   -0.7846   -2.6752 H   0  0  0  0  0  0  0  0  0  0  0  0
   -4.7300   -1.1780   -2.4202 H   0  0  0  0  0  0  0  0  0  0  0  0
   -5.8965   -0.1870   -1.5211 H   0  0  0  0  0  0  0  0  0  0  0  0
   -3.8142    0.8390   -3.5718 H   0  0  0  0  0  0  0  0  0  0  0  0
   -5.5757    0.5528   -3.7776 H   0  0  0  0  0  0  0  0  0  0  0  0
   -3.8902    3.8269   -2.4205 H   0  0  0  0  0  0  0  0  0  0  0  0
   -3.1971    2.3717   -1.6902 H   0  0  0  0  0  0  0  0  0  0  0  0
   -4.2670    3.1377    0.3156 H   0  0  0  0  0  0  0  0  0  0  0  0
   -5.0384    4.4159   -0.6141 H   0  0  0  0  0  0  0  0  0  0  0  0
   -6.2349    1.6853   -0.0005 H   0  0  0  0  0  0  0  0  0  0  0  0
   -6.9793    3.2977   -0.2331 H   0  0  0  0  0  0  0  0  0  0  0  0
   -6.9828    1.3177   -2.2222 H   0  0  0  0  0  0  0  0  0  0  0  0
   -6.5889    4.3463   -2.5370 H   0  0  0  0  0  0  0  0  0  0  0  0
   -8.2116    3.4908   -2.2892 H   0  0  0  0  0  0  0  0  0  0  0  0
   -7.6019    2.2338   -4.2529 H   0  0  0  0  0  0  0  0  0  0  0  0
  1  2  1  0
  2  3  2  0
  3  4  1  0
  4  5  1  0
  5  6  3  0
  6  7  1  0
  7  8  2  0
  8  9  1  0
  9 10  2  0
 10 11  1  0
 11 12  2  0
 12 13  1  0
 13 14  2  0
 14 15  1  0
 14 16  1  0
 16 17  2  0
 10 18  1  0
 18 19  2  0
  4 20  2  0
 20 21  1  0
 21 22  2  0
 22 23  1  0
 23 24  1  0
 24 25  1  0
 25 26  1  0
 26 27  1  0
 27 28  1  0
 28 29  1  0
 29 30  1  0
 30 31  1  0
 31 32  1  0
 22  2  1  0
 30 26  1  0
 19  7  1  0
 17 11  1  0
  1 33  1  0
  1 34  1  0
  1 35  1  0
  3 36  1  0
  8 37  1  0
  9 38  1  0
 12 39  1  0
 13 40  1  0
 16 41  1  0
 17 42  1  0
 18 43  1  0
 20 44  1  0
 21 45  1  0
 24 46  1  0
 24 47  1  0
 25 48  1  0
 25 49  1  0
 27 50  1  0
 27 51  1  0
 28 52  1  0
 28 53  1  0
 29 54  1  0
 29 55  1  0
 30 56  1  1
 31 57  1  0
 31 58  1  0
 32 59  1  0
M  END
$$$$
