
     RDKit          3D

 33 34  0  0  0  0  0  0  0  0999 V2000
   -3.9449   -0.8319   -1.1099 C   0  0  0  0  0  0  0  0  0  0  0  0
   -3.3603    0.4774   -0.6458 C   0  0  0  0  0  0  0  0  0  0  0  0
   -4.3158    1.1638    0.2131 C   0  0  0  0  0  0  0  0  0  0  0  0
   -4.0119    1.4608    1.3896 O   0  0  0  0  0  0  0  0  0  0  0  0
   -5.5723    1.5017   -0.2478 O   0  0  0  0  0  0  0  0  0  0  0  0
   -2.0659    0.1922    0.0314 C   0  0  0  0  0  0  0  0  0  0  0  0
   -2.0532   -0.5650    1.1867 C   0  0  0  0  0  0  0  0  0  0  0  0
   -0.8915   -0.8642    1.8625 C   0  0  0  0  0  0  0  0  0  0  0  0
    0.3011   -0.3704    1.3355 C   0  0  0  0  0  0  0  0  0  0  0  0
    0.3373    0.3870    0.1874 C   0  0  0  0  0  0  0  0  0  0  0  0
    1.5940    0.8610   -0.3376 C   0  0  0  0  0  0  0  0  0  0  0  0
    1.5633    1.9243   -1.0567 O   0  0  0  0  0  0  0  0  0  0  0  0
    2.8846    0.2326   -0.1182 C   0  0  0  0  0  0  0  0  0  0  0  0
    3.0803   -1.0951    0.1676 C   0  0  0  0  0  0  0  0  0  0  0  0
    4.3547   -1.6202    0.3885 C   0  0  0  0  0  0  0  0  0  0  0  0
    5.4476   -0.8100    0.3224 C   0  0  0  0  0  0  0  0  0  0  0  0
    5.2868    0.5347    0.0359 C   0  0  0  0  0  0  0  0  0  0  0  0
    4.0308    1.0399   -0.1791 C   0  0  0  0  0  0  0  0  0  0  0  0
   -0.8729    0.6634   -0.4615 C   0  0  0  0  0  0  0  0  0  0  0  0
   -4.8853   -0.7076   -1.6794 H   0  0  0  0  0  0  0  0  0  0  0  0
   -3.1883   -1.3926   -1.7166 H   0  0  0  0  0  0  0  0  0  0  0  0
   -4.2007   -1.4066   -0.1867 H   0  0  0  0  0  0  0  0  0  0  0  0
   -3.1366    1.0801   -1.5503 H   0  0  0  0  0  0  0  0  0  0  0  0
   -6.0762    2.2464    0.2182 H   0  0  0  0  0  0  0  0  0  0  0  0
   -2.9873   -0.9326    1.5689 H   0  0  0  0  0  0  0  0  0  0  0  0
   -0.8602   -1.4551    2.7677 H   0  0  0  0  0  0  0  0  0  0  0  0
    1.1916   -0.6027    1.8884 H   0  0  0  0  0  0  0  0  0  0  0  0
    2.2586   -1.7704    0.2137 H   0  0  0  0  0  0  0  0  0  0  0  0
    4.4839   -2.6822    0.6148 H   0  0  0  0  0  0  0  0  0  0  0  0
    6.4469   -1.2014    0.4904 H   0  0  0  0  0  0  0  0  0  0  0  0
    6.1311    1.1956   -0.0210 H   0  0  0  0  0  0  0  0  0  0  0  0
    3.8877    2.0990   -0.4078 H   0  0  0  0  0  0  0  0  0  0  0  0
   -0.8569    1.2481   -1.3475 H   0  0  0  0  0  0  0  0  0  0  0  0
  1  2  1  0
  2  3  1  0
  3  4  2  0
  3  5  1  0
  2  6  1  0
  6  7  2  0
  7  8  1  0
  8  9  2  0
  9 10  1  0
 10 11  1  0
 11 12  2  0
 11 13  1  0
 13 14  2  0
 14 15  1  0
 15 16  2  0
 16 17  1  0
 17 18  2  0
 10 19  2  0
 19  6  1  0
 18 13  1  0
  1 20  1  0
  1 21  1  0
  1 22  1  0
  2 23  1  0
  5 24  1  0
  7 25  1  0
  8 26  1  0
  9 27  1  0
 14 28  1  0
 15 29  1  0
 16 30  1  0
 17 31  1  0
 18 32  1  0
 19 33  1  0
M  END
$$$$
