
     RDKit          3D

 59 60  0  0  0  0  0  0  0  0999 V2000
   -4.5416    1.1982   -2.4330 C   0  0  0  0  0  0  0  0  0  0  0  0
   -3.3410    1.7330   -1.8179 N   0  0  0  0  0  0  0  0  0  0  0  0
   -2.9523    0.7638   -0.7701 C   0  0  1  0  0  0  0  0  0  0  0  0
   -1.7429    1.2124   -0.0841 C   0  0  0  0  0  0  0  0  0  0  0  0
   -1.2224    2.3023   -0.4048 O   0  0  0  0  0  0  0  0  0  0  0  0
   -1.0698    0.4749    0.9733 N   0  0  0  0  0  0  0  0  0  0  0  0
   -1.5555   -0.7811    1.4568 C   0  0  0  0  0  0  0  0  0  0  0  0
   -0.3921   -1.3705    2.2150 C   0  0  0  0  0  0  0  0  0  0  0  0
    0.2487   -0.0933    2.8167 C   0  0  0  0  0  0  0  0  0  0  0  0
    0.1097    0.8513    1.6557 C   0  0  1  0  0  0  0  0  0  0  0  0
    1.3286    0.8833    0.8179 C   0  0  0  0  0  0  0  0  0  0  0  0
    2.3917    1.2809    1.2900 O   0  0  0  0  0  0  0  0  0  0  0  0
    1.2557    0.4528   -0.5233 N   0  0  0  0  0  0  0  0  0  0  0  0
    2.3933    0.4444   -1.4349 C   0  0  2  0  0  0  0  0  0  0  0  0
    2.1816    1.3800   -2.5689 C   0  0  0  0  0  0  0  0  0  0  0  0
    3.0542    1.4781   -3.4120 O   0  0  0  0  0  0  0  0  0  0  0  0
    2.6154   -0.9521   -1.9101 C   0  0  0  0  0  0  0  0  0  0  0  0
    2.9122   -1.9426   -0.8350 C   0  0  0  0  0  0  0  0  0  0  0  0
    4.1480   -1.6285   -0.0469 C   0  0  0  0  0  0  0  0  0  0  0  0
    5.3305   -1.5869   -0.8872 N   0  0  0  0  0  0  0  0  0  0  0  0
    6.6039   -1.3024   -0.3268 C   0  0  0  0  0  0  0  0  0  0  0  0
    6.8499   -1.6148    0.9006 N   0  0  0  0  0  0  0  0  0  0  0  0
    7.5798   -0.6720   -1.1537 N   0  0  0  0  0  0  0  0  0  0  0  0
   -4.1170    0.7804    0.1884 C   0  0  0  0  0  0  0  0  0  0  0  0
   -4.6033    2.0084    0.6264 C   0  0  0  0  0  0  0  0  0  0  0  0
   -5.6756    2.0242    1.4918 C   0  0  0  0  0  0  0  0  0  0  0  0
   -6.3005    0.8843    1.9532 C   0  0  0  0  0  0  0  0  0  0  0  0
   -5.7964   -0.3178    1.5018 C   0  0  0  0  0  0  0  0  0  0  0  0
   -4.7252   -0.3653    0.6361 C   0  0  0  0  0  0  0  0  0  0  0  0
   -5.2950    0.8750   -1.6723 H   0  0  0  0  0  0  0  0  0  0  0  0
   -4.3427    0.3162   -3.0673 H   0  0  0  0  0  0  0  0  0  0  0  0
   -4.9889    1.9686   -3.1241 H   0  0  0  0  0  0  0  0  0  0  0  0
   -2.5841    1.7009   -2.5440 H   0  0  0  0  0  0  0  0  0  0  0  0
   -2.8957   -0.2040   -1.2608 H   0  0  0  0  0  0  0  0  0  0  0  0
   -2.3477   -0.5468    2.2052 H   0  0  0  0  0  0  0  0  0  0  0  0
   -1.9424   -1.4486    0.6691 H   0  0  0  0  0  0  0  0  0  0  0  0
    0.3564   -1.8490    1.5744 H   0  0  0  0  0  0  0  0  0  0  0  0
   -0.7073   -2.0112    3.0459 H   0  0  0  0  0  0  0  0  0  0  0  0
    1.2848   -0.2795    3.1212 H   0  0  0  0  0  0  0  0  0  0  0  0
   -0.3647    0.2151    3.6914 H   0  0  0  0  0  0  0  0  0  0  0  0
   -0.0708    1.8699    2.1066 H   0  0  0  0  0  0  0  0  0  0  0  0
    0.3306    0.1147   -0.8879 H   0  0  0  0  0  0  0  0  0  0  0  0
    3.3018    0.7946   -0.9053 H   0  0  0  0  0  0  0  0  0  0  0  0
    1.2799    1.9746   -2.6687 H   0  0  0  0  0  0  0  0  0  0  0  0
    1.7336   -1.3452   -2.4826 H   0  0  0  0  0  0  0  0  0  0  0  0
    3.4486   -0.9418   -2.6501 H   0  0  0  0  0  0  0  0  0  0  0  0
    2.0620   -2.1225   -0.1701 H   0  0  0  0  0  0  0  0  0  0  0  0
    3.1113   -2.9234   -1.3489 H   0  0  0  0  0  0  0  0  0  0  0  0
    4.3043   -2.4981    0.6563 H   0  0  0  0  0  0  0  0  0  0  0  0
    4.1050   -0.7325    0.5682 H   0  0  0  0  0  0  0  0  0  0  0  0
    5.2081   -1.7715   -1.9014 H   0  0  0  0  0  0  0  0  0  0  0  0
    6.1248   -2.0693    1.4733 H   0  0  0  0  0  0  0  0  0  0  0  0
    7.8444   -1.1299   -2.0518 H   0  0  0  0  0  0  0  0  0  0  0  0
    7.9864    0.2262   -0.8184 H   0  0  0  0  0  0  0  0  0  0  0  0
   -4.1227    2.9239    0.2733 H   0  0  0  0  0  0  0  0  0  0  0  0
   -6.0516    2.9790    1.8308 H   0  0  0  0  0  0  0  0  0  0  0  0
   -7.1405    0.9361    2.6328 H   0  0  0  0  0  0  0  0  0  0  0  0
   -6.2624   -1.2188    1.8436 H   0  0  0  0  0  0  0  0  0  0  0  0
   -4.3329   -1.3282    0.2840 H   0  0  0  0  0  0  0  0  0  0  0  0
  1  2  1  0
  2  3  1  0
  3  4  1  0
  4  5  2  0
  4  6  1  0
  6  7  1  0
  7  8  1  0
  8  9  1  0
  9 10  1  0
 10 11  1  0
 11 12  2  0
 11 13  1  0
 13 14  1  0
 14 15  1  0
 15 16  2  0
 14 17  1  0
 17 18  1  0
 18 19  1  0
 19 20  1  0
 20 21  1  0
 21 22  2  3
 21 23  1  0
  3 24  1  0
 24 25  2  0
 25 26  1  0
 26 27  2  0
 27 28  1  0
 28 29  2  0
 10  6  1  0
 29 24  1  0
  1 30  1  0
  1 31  1  0
  1 32  1  0
  2 33  1  0
  3 34  1  6
  7 35  1  0
  7 36  1  0
  8 37  1  0
  8 38  1  0
  9 39  1  0
  9 40  1  0
 10 41  1  1
 13 42  1  0
 14 43  1  1
 15 44  1  0
 17 45  1  0
 17 46  1  0
 18 47  1  0
 18 48  1  0
 19 49  1  0
 19 50  1  0
 20 51  1  0
 22 52  1  0
 23 53  1  0
 23 54  1  0
 25 55  1  0
 26 56  1  0
 27 57  1  0
 28 58  1  0
 29 59  1  0
M  END
$$$$
