
     RDKit          3D

 61 63  0  0  0  0  0  0  0  0999 V2000
    6.7143   -2.2037    0.2798 C   0  0  0  0  0  0  0  0  0  0  0  0
    6.0701   -0.9234   -0.1862 C   0  0  0  0  0  0  0  0  0  0  0  0
    4.5829   -0.9514    0.1739 C   0  0  0  0  0  0  0  0  0  0  0  0
    3.9019    0.5867   -0.4104 S   0  0  0  0  0  6  0  0  0  0  0  0
    4.6167    1.7414    0.2360 O   0  0  0  0  0  0  0  0  0  0  0  0
    4.1011    0.7015   -1.9143 O   0  0  0  0  0  0  0  0  0  0  0  0
    2.2446    0.7511   -0.1017 N   0  0  0  0  0  0  0  0  0  0  0  0
    1.4267   -0.2821   -0.7631 C   0  0  0  0  0  0  0  0  0  0  0  0
    0.0588    0.3643   -0.8613 C   0  0  0  0  0  0  0  0  0  0  0  0
   -0.5487    0.6188    0.4647 C   0  0  0  0  0  0  0  0  0  0  0  0
   -0.9662   -0.5792    1.2306 C   0  0  0  0  0  0  0  0  0  0  0  0
   -1.8942   -1.5122    0.7773 N   0  0  0  0  0  0  0  0  0  0  0  0
   -1.8477   -2.4669   -0.2595 C   0  0  0  0  0  0  0  0  0  0  0  0
   -0.8141   -2.5892   -0.9414 O   0  0  0  0  0  0  0  0  0  0  0  0
   -2.9794   -3.3537   -0.5933 C   0  0  0  0  0  0  0  0  0  0  0  0
   -2.7684   -4.7083   -0.4277 C   0  0  0  0  0  0  0  0  0  0  0  0
   -3.7632   -5.6495   -0.7097 C   0  0  0  0  0  0  0  0  0  0  0  0
   -3.5684   -6.9780   -0.5520 F   0  0  0  0  0  0  0  0  0  0  0  0
   -4.9764   -5.2264   -1.1606 C   0  0  0  0  0  0  0  0  0  0  0  0
   -6.2347   -6.4001   -1.5192 Cl  0  0  0  0  0  0  0  0  0  0  0  0
   -5.1859   -3.8614   -1.3263 C   0  0  0  0  0  0  0  0  0  0  0  0
   -4.1869   -2.9314   -1.0420 C   0  0  0  0  0  0  0  0  0  0  0  0
   -4.4627   -1.2231   -1.2545 Cl  0  0  0  0  0  0  0  0  0  0  0  0
   -1.6826    1.5827    0.2647 C   0  0  0  0  0  0  0  0  0  0  0  0
   -2.8373    1.0914    0.5278 O   0  0  0  0  0  0  0  0  0  0  0  0
   -1.6372    2.9023   -0.1567 N   0  0  0  0  0  0  0  0  0  0  0  0
   -0.5640    3.7753   -0.5158 C   0  0  0  0  0  0  0  0  0  0  0  0
   -0.6190    4.9734    0.4254 C   0  0  0  0  0  0  0  0  0  0  0  0
   -1.6632    4.8494    1.3377 O   0  0  0  0  0  0  0  0  0  0  0  0
   -2.9006    4.7649    0.6647 C   0  0  0  0  0  0  0  0  0  0  0  0
   -2.9578    3.5965   -0.2746 C   0  0  0  0  0  0  0  0  0  0  0  0
    0.4465    1.3476    1.3932 C   0  0  0  0  0  0  0  0  0  0  0  0
    1.8463    0.8027    1.2587 C   0  0  0  0  0  0  0  0  0  0  0  0
    7.7983   -2.1604    0.0427 H   0  0  0  0  0  0  0  0  0  0  0  0
    6.6031   -2.2488    1.3826 H   0  0  0  0  0  0  0  0  0  0  0  0
    6.2121   -3.0572   -0.2196 H   0  0  0  0  0  0  0  0  0  0  0  0
    6.1349   -0.7655   -1.2710 H   0  0  0  0  0  0  0  0  0  0  0  0
    6.4938   -0.0459    0.3336 H   0  0  0  0  0  0  0  0  0  0  0  0
    4.0974   -1.8181   -0.3045 H   0  0  0  0  0  0  0  0  0  0  0  0
    4.4204   -1.0205    1.2487 H   0  0  0  0  0  0  0  0  0  0  0  0
    1.3396   -1.1127   -0.0649 H   0  0  0  0  0  0  0  0  0  0  0  0
    1.7624   -0.5196   -1.7684 H   0  0  0  0  0  0  0  0  0  0  0  0
   -0.5914   -0.2085   -1.5130 H   0  0  0  0  0  0  0  0  0  0  0  0
    0.2351    1.3283   -1.4378 H   0  0  0  0  0  0  0  0  0  0  0  0
    0.0374   -1.0923    1.5200 H   0  0  0  0  0  0  0  0  0  0  0  0
   -1.2981   -0.2557    2.2789 H   0  0  0  0  0  0  0  0  0  0  0  0
   -2.8504   -1.5356    1.2975 H   0  0  0  0  0  0  0  0  0  0  0  0
   -1.8256   -5.1093   -0.0718 H   0  0  0  0  0  0  0  0  0  0  0  0
   -6.1642   -3.5492   -1.6879 H   0  0  0  0  0  0  0  0  0  0  0  0
   -0.8405    4.2010   -1.5440 H   0  0  0  0  0  0  0  0  0  0  0  0
    0.4266    3.3915   -0.6504 H   0  0  0  0  0  0  0  0  0  0  0  0
    0.3139    5.0662    1.0220 H   0  0  0  0  0  0  0  0  0  0  0  0
   -0.7174    5.9208   -0.1350 H   0  0  0  0  0  0  0  0  0  0  0  0
   -3.6785    4.6345    1.4280 H   0  0  0  0  0  0  0  0  0  0  0  0
   -2.9833    5.7457    0.1185 H   0  0  0  0  0  0  0  0  0  0  0  0
   -2.9677    3.9516   -1.3463 H   0  0  0  0  0  0  0  0  0  0  0  0
   -3.7685    2.8877   -0.1013 H   0  0  0  0  0  0  0  0  0  0  0  0
    0.3482    2.4212    1.3900 H   0  0  0  0  0  0  0  0  0  0  0  0
    0.1320    1.0470    2.4456 H   0  0  0  0  0  0  0  0  0  0  0  0
    2.5289    1.5017    1.7862 H   0  0  0  0  0  0  0  0  0  0  0  0
    1.8497   -0.2081    1.7574 H   0  0  0  0  0  0  0  0  0  0  0  0
  1  2  1  0
  2  3  1  0
  3  4  1  0
  4  5  2  0
  4  6  2  0
  4  7  1  0
  7  8  1  0
  8  9  1  0
  9 10  1  0
 10 11  1  0
 11 12  1  0
 12 13  1  0
 13 14  2  0
 13 15  1  0
 15 16  2  0
 16 17  1  0
 17 18  1  0
 17 19  2  0
 19 20  1  0
 19 21  1  0
 21 22  2  0
 22 23  1  0
 10 24  1  0
 24 25  2  0
 24 26  1  0
 26 27  1  0
 27 28  1  0
 28 29  1  0
 29 30  1  0
 30 31  1  0
 10 32  1  0
 32 33  1  0
 33  7  1  0
 22 15  1  0
 31 26  1  0
  1 34  1  0
  1 35  1  0
  1 36  1  0
  2 37  1  0
  2 38  1  0
  3 39  1  0
  3 40  1  0
  8 41  1  0
  8 42  1  0
  9 43  1  0
  9 44  1  0
 11 45  1  0
 11 46  1  0
 12 47  1  0
 16 48  1  0
 21 49  1  0
 27 50  1  0
 27 51  1  0
 28 52  1  0
 28 53  1  0
 30 54  1  0
 30 55  1  0
 31 56  1  0
 31 57  1  0
 32 58  1  0
 32 59  1  0
 33 60  1  0
 33 61  1  0
M  END
$$$$
