
     RDKit          3D

 49 52  0  0  0  0  0  0  0  0999 V2000
   -2.0896    1.4295   -1.8708 O   0  0  0  0  0  0  0  0  0  0  0  0
   -1.9247    1.0597   -0.5280 C   0  0  2  0  0  0  0  0  0  0  0  0
   -3.2059    1.2850    0.2330 C   0  0  0  0  0  0  0  0  0  0  0  0
   -4.3035    0.5024   -0.3181 N   0  0  0  0  0  0  0  0  0  0  0  0
   -5.4870    0.7824    0.4736 C   0  0  0  0  0  0  0  0  0  0  0  0
   -6.7328    0.0836    0.0817 C   0  0  0  0  0  0  0  0  0  0  0  0
   -6.5378    1.5912   -0.1531 C   0  0  0  0  0  0  0  0  0  0  0  0
   -0.8825    1.9964    0.0479 C   0  0  0  0  0  0  0  0  0  0  0  0
    0.2987    1.1468    0.3718 C   0  0  0  0  0  0  0  0  0  0  0  0
    0.0225   -0.1930   -0.1068 N   0  0  0  0  0  0  0  0  0  0  0  0
    1.0210   -1.1925   -0.2767 C   0  0  0  0  0  0  0  0  0  0  0  0
    2.3006   -0.9777   -0.0081 N   0  0  0  0  0  0  0  0  0  0  0  0
    3.2923   -1.8416   -0.1349 C   0  0  0  0  0  0  0  0  0  0  0  0
    4.5834   -1.4574    0.1904 O   0  0  0  0  0  0  0  0  0  0  0  0
    4.8327   -0.1734    0.6465 C   0  0  0  0  0  0  0  0  0  0  0  0
    4.7926    0.1512    2.0086 C   0  0  0  0  0  0  0  0  0  0  0  0
    5.0370    1.4175    2.4772 C   0  0  0  0  0  0  0  0  0  0  0  0
    5.3335    2.4129    1.5814 C   0  0  0  0  0  0  0  0  0  0  0  0
    5.3767    2.1113    0.2435 C   0  0  0  0  0  0  0  0  0  0  0  0
    5.6687    3.0912   -0.6390 F   0  0  0  0  0  0  0  0  0  0  0  0
    5.1328    0.8445   -0.2306 C   0  0  0  0  0  0  0  0  0  0  0  0
    2.9863   -3.1049   -0.5931 C   0  0  0  0  0  0  0  0  0  0  0  0
    1.6666   -3.3745   -0.8856 C   0  0  0  0  0  0  0  0  0  0  0  0
    1.3288   -4.7254   -1.3772 C   0  0  0  0  0  0  0  0  0  0  0  0
    0.2246   -4.7568   -2.1803 F   0  0  0  0  0  0  0  0  0  0  0  0
    1.1094   -5.5745   -0.3006 F   0  0  0  0  0  0  0  0  0  0  0  0
    2.4133   -5.2387   -2.0732 F   0  0  0  0  0  0  0  0  0  0  0  0
    0.6942   -2.4372   -0.7320 N   0  0  0  0  0  0  0  0  0  0  0  0
   -1.3869   -0.3265   -0.3693 C   0  0  0  0  0  0  0  0  0  0  0  0
   -2.3751    0.6213   -2.3689 H   0  0  0  0  0  0  0  0  0  0  0  0
   -3.0549    1.0745    1.2963 H   0  0  0  0  0  0  0  0  0  0  0  0
   -3.4621    2.3704    0.1214 H   0  0  0  0  0  0  0  0  0  0  0  0
   -4.0177   -0.5139   -0.2281 H   0  0  0  0  0  0  0  0  0  0  0  0
   -5.2537    0.9485    1.5592 H   0  0  0  0  0  0  0  0  0  0  0  0
   -7.5339   -0.1510    0.7850 H   0  0  0  0  0  0  0  0  0  0  0  0
   -6.7215   -0.5496   -0.8198 H   0  0  0  0  0  0  0  0  0  0  0  0
   -7.1214    2.2836    0.4908 H   0  0  0  0  0  0  0  0  0  0  0  0
   -6.4698    1.9293   -1.2116 H   0  0  0  0  0  0  0  0  0  0  0  0
   -1.2345    2.4649    0.9933 H   0  0  0  0  0  0  0  0  0  0  0  0
   -0.6277    2.8269   -0.6425 H   0  0  0  0  0  0  0  0  0  0  0  0
    0.5308    1.0825    1.4527 H   0  0  0  0  0  0  0  0  0  0  0  0
    1.2296    1.4813   -0.1724 H   0  0  0  0  0  0  0  0  0  0  0  0
    4.5622   -0.6139    2.7267 H   0  0  0  0  0  0  0  0  0  0  0  0
    5.0094    1.6820    3.5255 H   0  0  0  0  0  0  0  0  0  0  0  0
    5.5340    3.4265    1.8971 H   0  0  0  0  0  0  0  0  0  0  0  0
    5.1829    0.6766   -1.2912 H   0  0  0  0  0  0  0  0  0  0  0  0
    3.7843   -3.8306   -0.7050 H   0  0  0  0  0  0  0  0  0  0  0  0
   -1.9389   -0.8728    0.4088 H   0  0  0  0  0  0  0  0  0  0  0  0
   -1.5873   -0.8680   -1.3355 H   0  0  0  0  0  0  0  0  0  0  0  0
  2  1  1  6
  2  3  1  0
  3  4  1  0
  4  5  1  0
  5  6  1  0
  6  7  1  0
  2  8  1  0
  8  9  1  0
  9 10  1  0
 10 11  1  0
 11 12  2  0
 12 13  1  0
 13 14  1  0
 14 15  1  0
 15 16  2  0
 16 17  1  0
 17 18  2  0
 18 19  1  0
 19 20  1  0
 19 21  2  0
 13 22  2  0
 22 23  1  0
 23 24  1  0
 24 25  1  0
 24 26  1  0
 24 27  1  0
 23 28  2  0
 10 29  1  0
 29  2  1  0
  7  5  1  0
 28 11  1  0
 21 15  1  0
  1 30  1  0
  3 31  1  0
  3 32  1  0
  4 33  1  0
  5 34  1  0
  6 35  1  0
  6 36  1  0
  7 37  1  0
  7 38  1  0
  8 39  1  0
  8 40  1  0
  9 41  1  0
  9 42  1  0
 16 43  1  0
 17 44  1  0
 18 45  1  0
 21 46  1  0
 22 47  1  0
 29 48  1  0
 29 49  1  0
M  END
$$$$
