
     RDKit          3D

 77 80  0  0  0  0  0  0  0  0999 V2000
    8.5124    2.1563    1.8224 C   0  0  0  0  0  0  0  0  0  0  0  0
    7.2611    1.6235    1.2361 C   0  0  0  0  0  0  0  0  0  0  0  0
    6.1223    1.5697    1.8911 C   0  0  0  0  0  0  0  0  0  0  0  0
    6.0207    2.0381    3.2563 C   0  0  0  0  0  0  0  0  0  0  0  0
    4.9554    2.0426    4.0296 C   0  0  0  0  0  0  0  0  0  0  0  0
    5.0725    1.0158    1.0907 C   0  0  0  0  0  0  0  0  0  0  0  0
    5.6236    0.6993   -0.1753 N   0  0  0  0  0  0  0  0  0  0  0  0
    6.9863    1.0800   -0.0810 C   0  0  0  0  0  0  0  0  0  0  0  0
    7.8323    0.9628   -1.0054 O   0  0  0  0  0  0  0  0  0  0  0  0
    3.8100    0.7629    1.3607 C   0  0  0  0  0  0  0  0  0  0  0  0
    2.7565    0.2059    0.5332 C   0  0  0  0  0  0  0  0  0  0  0  0
    2.2673    0.4721   -0.7371 C   0  0  0  0  0  0  0  0  0  0  0  0
    2.7760    1.5761   -1.5863 C   0  0  0  0  0  0  0  0  0  0  0  0
    1.2339   -0.4095   -1.0360 C   0  0  0  0  0  0  0  0  0  0  0  0
    0.5484   -0.3764   -2.3362 C   0  0  0  0  0  0  0  0  0  0  0  0
    1.4098   -0.9744   -3.4536 C   0  0  0  0  0  0  0  0  0  0  0  0
    1.7900   -2.3770   -3.1995 C   0  0  0  0  0  0  0  0  0  0  0  0
    2.0863   -3.7247   -3.1242 O   0  0  0  0  0  0  0  0  0  0  0  0
    2.2911   -2.5230   -2.0414 O   0  0  0  0  0  0  0  0  0  0  0  0
    1.1122   -1.2180    0.1032 C   0  0  0  0  0  0  0  0  0  0  0  0
    2.0069   -0.8445    0.9997 N   0  0  0  0  0  0  0  0  0  0  0  0
    0.0681   -2.2607    0.2605 C   0  0  0  0  0  0  0  0  0  0  0  0
   -1.2287   -1.8915    0.2009 C   0  0  0  0  0  0  0  0  0  0  0  0
   -1.6243   -0.5812    0.0065 N   0  0  0  0  0  0  0  0  0  0  0  0
   -2.8749   -0.4203   -0.0472 C   0  0  0  0  0  0  0  0  0  0  0  0
   -3.1699    0.9540   -0.2486 C   0  0  0  0  0  0  0  0  0  0  0  0
   -4.1969    1.7378   -0.3959 C   0  0  0  0  0  0  0  0  0  0  0  0
   -5.4728    1.1690   -0.3669 N   0  0  0  0  0  0  0  0  0  0  0  0
   -6.4626    2.1581   -0.5340 C   0  0  0  0  0  0  0  0  0  0  0  0
   -7.7044    2.0359   -0.5633 O   0  0  0  0  0  0  0  0  0  0  0  0
   -5.7188    3.3897   -0.6704 C   0  0  0  0  0  0  0  0  0  0  0  0
   -6.1835    4.7481   -0.8666 C   0  0  0  0  0  0  0  0  0  0  0  0
   -7.4879    4.9166   -0.9376 C   0  0  0  0  0  0  0  0  0  0  0  0
   -4.4080    3.1584   -0.5924 C   0  0  0  0  0  0  0  0  0  0  0  0
   -3.2606    4.0911   -0.6806 C   0  0  0  0  0  0  0  0  0  0  0  0
   -3.3577   -1.7486    0.1298 C   0  0  0  0  0  0  0  0  0  0  0  0
   -4.7794   -2.1105    0.1606 C   0  0  0  0  0  0  0  0  0  0  0  0
   -2.4359   -2.6683    0.2819 C   0  0  0  0  0  0  0  0  0  0  0  0
   -2.5061   -4.1320    0.4546 C   0  0  0  0  0  0  0  0  0  0  0  0
   -2.0713   -4.6363    1.7929 C   0  0  0  0  0  0  0  0  0  0  0  0
   -2.1918   -6.1410    1.8473 C   0  0  0  0  0  0  0  0  0  0  0  0
   -2.8595   -7.1876    2.4981 O   0  0  0  0  0  0  0  0  0  0  0  0
   -1.4738   -6.8190    1.0618 O   0  0  0  0  0  0  0  0  0  0  0  0
    9.4010    1.6562    1.4026 H   0  0  0  0  0  0  0  0  0  0  0  0
    8.5866    3.2341    1.5156 H   0  0  0  0  0  0  0  0  0  0  0  0
    8.5450    2.0380    2.9232 H   0  0  0  0  0  0  0  0  0  0  0  0
    6.7924    2.4660    3.8761 H   0  0  0  0  0  0  0  0  0  0  0  0
    4.7145    2.3458    5.0398 H   0  0  0  0  0  0  0  0  0  0  0  0
    4.0012    1.9740    4.5226 H   0  0  0  0  0  0  0  0  0  0  0  0
    5.1754    0.2731   -1.0095 H   0  0  0  0  0  0  0  0  0  0  0  0
    3.4926    1.0172    2.3843 H   0  0  0  0  0  0  0  0  0  0  0  0
    1.8769    2.0658   -2.0616 H   0  0  0  0  0  0  0  0  0  0  0  0
    3.1987    2.3911   -0.9463 H   0  0  0  0  0  0  0  0  0  0  0  0
    3.4858    1.2780   -2.3518 H   0  0  0  0  0  0  0  0  0  0  0  0
   -0.4292   -0.9176   -2.3293 H   0  0  0  0  0  0  0  0  0  0  0  0
    0.3228    0.6564   -2.6358 H   0  0  0  0  0  0  0  0  0  0  0  0
    0.7823   -0.9696   -4.3786 H   0  0  0  0  0  0  0  0  0  0  0  0
    2.3300   -0.3931   -3.5819 H   0  0  0  0  0  0  0  0  0  0  0  0
    1.3716   -4.4554   -3.2276 H   0  0  0  0  0  0  0  0  0  0  0  0
    2.0770   -1.3283    1.9191 H   0  0  0  0  0  0  0  0  0  0  0  0
    0.2774   -3.3056    0.4124 H   0  0  0  0  0  0  0  0  0  0  0  0
   -2.3194    1.6792   -0.3129 H   0  0  0  0  0  0  0  0  0  0  0  0
   -5.7720    0.2142   -0.2580 H   0  0  0  0  0  0  0  0  0  0  0  0
   -5.5885    5.6326   -0.9612 H   0  0  0  0  0  0  0  0  0  0  0  0
   -7.9701    5.8687   -1.0815 H   0  0  0  0  0  0  0  0  0  0  0  0
   -8.3408    4.2570   -0.8831 H   0  0  0  0  0  0  0  0  0  0  0  0
   -3.5407    5.0863   -0.2693 H   0  0  0  0  0  0  0  0  0  0  0  0
   -2.9686    4.2658   -1.7521 H   0  0  0  0  0  0  0  0  0  0  0  0
   -2.3896    3.7164   -0.1284 H   0  0  0  0  0  0  0  0  0  0  0  0
   -4.9284   -3.1861    0.4415 H   0  0  0  0  0  0  0  0  0  0  0  0
   -5.3044   -1.5772    0.9854 H   0  0  0  0  0  0  0  0  0  0  0  0
   -5.3322   -1.9502   -0.7725 H   0  0  0  0  0  0  0  0  0  0  0  0
   -1.8656   -4.6435   -0.3425 H   0  0  0  0  0  0  0  0  0  0  0  0
   -3.5121   -4.5703    0.2606 H   0  0  0  0  0  0  0  0  0  0  0  0
   -1.0160   -4.4072    2.0111 H   0  0  0  0  0  0  0  0  0  0  0  0
   -2.6825   -4.1698    2.5857 H   0  0  0  0  0  0  0  0  0  0  0  0
   -3.5456   -7.7615    2.0047 H   0  0  0  0  0  0  0  0  0  0  0  0
  1  2  1  0
  2  3  2  0
  3  4  1  0
  4  5  2  0
  3  6  1  0
  6  7  1  0
  7  8  1  0
  8  9  2  0
  6 10  2  0
 10 11  1  0
 11 12  2  0
 12 13  1  0
 12 14  1  0
 14 15  1  0
 15 16  1  0
 16 17  1  0
 17 18  1  0
 17 19  2  0
 14 20  2  0
 20 21  1  0
 20 22  1  0
 22 23  2  0
 23 24  1  0
 24 25  2  0
 25 26  1  0
 26 27  2  0
 27 28  1  0
 28 29  1  0
 29 30  2  0
 29 31  1  0
 31 32  1  0
 32 33  2  0
 31 34  2  0
 34 35  1  0
 25 36  1  0
 36 37  1  0
 36 38  2  0
 38 39  1  0
 39 40  1  0
 40 41  1  0
 41 42  1  0
 41 43  2  0
  8  2  1  0
 21 11  1  0
 38 23  1  0
 34 27  1  0
  1 44  1  0
  1 45  1  0
  1 46  1  0
  4 47  1  0
  5 48  1  0
  5 49  1  0
  7 50  1  0
 10 51  1  0
 13 52  1  0
 13 53  1  0
 13 54  1  0
 15 55  1  0
 15 56  1  0
 16 57  1  0
 16 58  1  0
 18 59  1  0
 21 60  1  0
 22 61  1  0
 26 62  1  0
 28 63  1  0
 32 64  1  0
 33 65  1  0
 33 66  1  0
 35 67  1  0
 35 68  1  0
 35 69  1  0
 37 70  1  0
 37 71  1  0
 37 72  1  0
 39 73  1  0
 39 74  1  0
 40 75  1  0
 40 76  1  0
 42 77  1  0
M  END
$$$$
