
     RDKit          3D

 63 67  0  0  0  0  0  0  0  0999 V2000
   -5.6442   -1.6899    2.2169 C   0  0  0  0  0  0  0  0  0  0  0  0
   -5.8587   -0.2503    1.8351 C   0  0  2  0  0  0  0  0  0  0  0  0
   -7.0530   -0.2301    0.8991 C   0  0  0  0  0  0  0  0  0  0  0  0
   -6.6019    0.4261   -0.3708 C   0  0  0  0  0  0  0  0  0  0  0  0
   -5.3160    1.1150    0.0302 C   0  0  1  0  0  0  0  0  0  0  0  0
   -5.6634    2.4490    0.6942 C   0  0  0  0  0  0  0  0  0  0  0  0
   -4.7459    0.2635    1.0205 N   0  0  0  0  0  0  0  0  0  0  0  0
   -3.4088   -0.1048    1.2687 C   0  0  0  0  0  0  0  0  0  0  0  0
   -3.0760   -0.7760    2.2580 O   0  0  0  0  0  0  0  0  0  0  0  0
   -2.3479    0.2990    0.3319 C   0  0  2  0  0  0  0  0  0  0  0  0
   -2.3248   -0.5496   -0.9938 C   0  0  0  0  0  0  0  0  0  0  0  0
   -1.1984   -0.5215   -0.0345 C   0  0  1  0  0  0  0  0  0  0  0  0
    0.0868    0.2658   -0.2656 C   0  0  1  0  0  0  0  0  0  0  0  0
    0.3764    1.0674    0.9435 C   0  0  0  0  0  0  0  0  0  0  0  0
    1.1321   -0.7302   -0.6369 C   0  0  0  0  0  0  0  0  0  0  0  0
    2.3868   -0.6562   -0.0438 C   0  0  0  0  0  0  0  0  0  0  0  0
    3.4648   -1.5076   -0.5011 C   0  0  0  0  0  0  0  0  0  0  0  0
    4.7857   -1.2422   -0.0450 C   0  0  0  0  0  0  0  0  0  0  0  0
    5.6508   -1.6686    0.7477 C   0  0  0  0  0  0  0  0  0  0  0  0
    5.3389   -2.7620    1.5219 F   0  0  0  0  0  0  0  0  0  0  0  0
    7.0492   -1.1104    0.7929 C   0  0  0  0  0  0  0  0  0  0  0  0
    7.4344   -0.3400   -0.2780 C   0  0  0  0  0  0  0  0  0  0  0  0
    8.5472    0.4032   -0.3115 C   0  0  0  0  0  0  0  0  0  0  0  0
    9.3748    0.3934    0.8576 C   0  0  0  0  0  0  0  0  0  0  0  0
   10.3273    1.3368    0.9149 C   0  0  0  0  0  0  0  0  0  0  0  0
   11.3040    2.2788    0.9578 N   0  0  0  0  0  0  0  0  0  0  0  0
    8.9953   -0.3837    1.9074 C   0  0  0  0  0  0  0  0  0  0  0  0
    7.8105   -1.1562    1.8827 N   0  0  0  0  0  0  0  0  0  0  0  0
    3.1638   -2.3325   -1.4891 C   0  0  0  0  0  0  0  0  0  0  0  0
    1.9566   -2.4850   -2.1354 C   0  0  0  0  0  0  0  0  0  0  0  0
    0.9414   -1.6773   -1.7007 C   0  0  0  0  0  0  0  0  0  0  0  0
   -0.2844   -1.7440   -2.2716 F   0  0  0  0  0  0  0  0  0  0  0  0
   -0.0627    1.1590   -1.4335 N   0  0  0  0  0  0  0  0  0  0  0  0
   -0.9907    2.0292   -1.4812 C   0  0  0  0  0  0  0  0  0  0  0  0
   -1.1394    2.8834   -2.5653 N   0  0  0  0  0  0  0  0  0  0  0  0
   -2.1386    2.0898   -0.0805 S   0  0  0  0  0  0  0  0  0  0  0  0
   -5.1200   -2.1557    1.3321 H   0  0  0  0  0  0  0  0  0  0  0  0
   -5.0352   -1.7637    3.1446 H   0  0  0  0  0  0  0  0  0  0  0  0
   -6.6373   -2.1603    2.3380 H   0  0  0  0  0  0  0  0  0  0  0  0
   -5.9949    0.4241    2.6689 H   0  0  0  0  0  0  0  0  0  0  0  0
   -7.8583    0.3839    1.3931 H   0  0  0  0  0  0  0  0  0  0  0  0
   -7.5028   -1.2197    0.7108 H   0  0  0  0  0  0  0  0  0  0  0  0
   -7.2896    1.2476   -0.7130 H   0  0  0  0  0  0  0  0  0  0  0  0
   -6.4300   -0.3055   -1.2032 H   0  0  0  0  0  0  0  0  0  0  0  0
   -4.7303    1.2525   -0.9056 H   0  0  0  0  0  0  0  0  0  0  0  0
   -6.7525    2.5749    0.6683 H   0  0  0  0  0  0  0  0  0  0  0  0
   -5.3373    2.4698    1.7614 H   0  0  0  0  0  0  0  0  0  0  0  0
   -5.2372    3.3070    0.1022 H   0  0  0  0  0  0  0  0  0  0  0  0
   -2.2806   -0.0033   -1.9308 H   0  0  0  0  0  0  0  0  0  0  0  0
   -2.9438   -1.4821   -0.9631 H   0  0  0  0  0  0  0  0  0  0  0  0
   -1.0170   -1.4480    0.5906 H   0  0  0  0  0  0  0  0  0  0  0  0
   -0.5417    1.2609    1.5532 H   0  0  0  0  0  0  0  0  0  0  0  0
    0.8310    2.0835    0.7424 H   0  0  0  0  0  0  0  0  0  0  0  0
    1.0715    0.5993    1.6902 H   0  0  0  0  0  0  0  0  0  0  0  0
    2.5961    0.0062    0.7513 H   0  0  0  0  0  0  0  0  0  0  0  0
    5.1318   -0.1987   -0.5058 H   0  0  0  0  0  0  0  0  0  0  0  0
    6.8122   -0.3507   -1.1810 H   0  0  0  0  0  0  0  0  0  0  0  0
    8.9215    1.0051   -1.1727 H   0  0  0  0  0  0  0  0  0  0  0  0
    9.6079   -0.4189    2.7965 H   0  0  0  0  0  0  0  0  0  0  0  0
    4.0300   -2.9842   -1.8617 H   0  0  0  0  0  0  0  0  0  0  0  0
    1.8046   -3.1785   -2.9228 H   0  0  0  0  0  0  0  0  0  0  0  0
   -0.9660    3.9224   -2.3894 H   0  0  0  0  0  0  0  0  0  0  0  0
   -1.4042    2.5904   -3.5654 H   0  0  0  0  0  0  0  0  0  0  0  0
  1  2  1  0
  2  3  1  0
  3  4  1  0
  4  5  1  0
  5  6  1  0
  5  7  1  0
  7  8  1  0
  8  9  2  0
 10  8  1  1
 10 11  1  0
 11 12  1  0
 12 13  1  0
 13 14  1  1
 13 15  1  0
 15 16  2  0
 16 17  1  0
 17 18  1  0
 18 19  2  0
 19 20  1  0
 19 21  1  0
 21 22  2  0
 22 23  1  0
 23 24  2  0
 24 25  1  0
 25 26  3  0
 24 27  1  0
 27 28  2  0
 17 29  2  0
 29 30  1  0
 30 31  2  0
 31 32  1  0
 13 33  1  0
 33 34  2  0
 34 35  1  0
 34 36  1  0
  7  2  1  0
 12 10  1  0
 31 15  1  0
 36 10  1  0
 28 21  1  0
  1 37  1  0
  1 38  1  0
  1 39  1  0
  2 40  1  1
  3 41  1  0
  3 42  1  0
  4 43  1  0
  4 44  1  0
  5 45  1  6
  6 46  1  0
  6 47  1  0
  6 48  1  0
 11 49  1  0
 11 50  1  0
 12 51  1  1
 14 52  1  0
 14 53  1  0
 14 54  1  0
 16 55  1  0
 18 56  1  0
 22 57  1  0
 23 58  1  0
 27 59  1  0
 29 60  1  0
 30 61  1  0
 35 62  1  0
 35 63  1  0
M  END
$$$$
