
     RDKit          3D

 41 44  0  0  0  0  0  0  0  0999 V2000
   -7.4251    0.4032   -0.0544 C   0  0  0  0  0  0  0  0  0  0  0  0
   -6.5668   -0.2516    1.3517 S   0  0  0  0  0  6  0  0  0  0  0  0
   -6.9788   -1.6957    1.4879 O   0  0  0  0  0  0  0  0  0  0  0  0
   -6.8734    0.5316    2.5827 O   0  0  0  0  0  0  0  0  0  0  0  0
   -4.8389   -0.2008    1.0319 C   0  0  0  0  0  0  0  0  0  0  0  0
   -4.0799    0.8980    1.3701 C   0  0  0  0  0  0  0  0  0  0  0  0
   -2.7215    0.9560    1.1267 C   0  0  0  0  0  0  0  0  0  0  0  0
   -2.0755   -0.1138    0.5230 C   0  0  0  0  0  0  0  0  0  0  0  0
   -0.6464   -0.0435    0.2711 C   0  0  0  0  0  0  0  0  0  0  0  0
    0.1635   -1.1195    0.5703 C   0  0  0  0  0  0  0  0  0  0  0  0
    1.4843   -1.0382    0.3310 N   0  0  0  0  0  0  0  0  0  0  0  0
    2.0846    0.0473   -0.1931 C   0  0  0  0  0  0  0  0  0  0  0  0
    3.4747    0.1199   -0.4397 N   0  0  0  0  0  0  0  0  0  0  0  0
    4.3004   -1.0149   -0.1197 C   0  0  0  0  0  0  0  0  0  0  0  0
    5.7288   -0.7103   -0.4641 C   0  0  0  0  0  0  0  0  0  0  0  0
    6.3657   -0.9343   -1.6476 C   0  0  0  0  0  0  0  0  0  0  0  0
    7.6765   -0.4974   -1.5133 C   0  0  0  0  0  0  0  0  0  0  0  0
    7.7633   -0.0215   -0.2248 C   0  0  0  0  0  0  0  0  0  0  0  0
    6.5985   -0.1633    0.3610 O   0  0  0  0  0  0  0  0  0  0  0  0
    1.2967    1.0966   -0.4852 N   0  0  0  0  0  0  0  0  0  0  0  0
    1.5927    2.3098   -1.0122 C   0  0  0  0  0  0  0  0  0  0  0  0
    0.4550    3.0194   -1.1149 N   0  0  0  0  0  0  0  0  0  0  0  0
   -0.5151    2.2574   -0.6610 N   0  0  0  0  0  0  0  0  0  0  0  0
   -0.0285    1.0671   -0.2658 C   0  0  0  0  0  0  0  0  0  0  0  0
   -2.8453   -1.2094    0.1883 C   0  0  0  0  0  0  0  0  0  0  0  0
   -4.2029   -1.2801    0.4259 C   0  0  0  0  0  0  0  0  0  0  0  0
   -7.6128   -0.3768   -0.8072 H   0  0  0  0  0  0  0  0  0  0  0  0
   -6.7670    1.1643   -0.5539 H   0  0  0  0  0  0  0  0  0  0  0  0
   -8.3453    0.9361    0.2517 H   0  0  0  0  0  0  0  0  0  0  0  0
   -4.6167    1.7289    1.8460 H   0  0  0  0  0  0  0  0  0  0  0  0
   -2.1587    1.8146    1.3970 H   0  0  0  0  0  0  0  0  0  0  0  0
   -0.2742   -2.0339    1.0011 H   0  0  0  0  0  0  0  0  0  0  0  0
    3.8837    0.9649   -0.8385 H   0  0  0  0  0  0  0  0  0  0  0  0
    4.2882   -1.2573    0.9689 H   0  0  0  0  0  0  0  0  0  0  0  0
    3.9410   -1.9203   -0.6545 H   0  0  0  0  0  0  0  0  0  0  0  0
    5.9215   -1.3747   -2.5300 H   0  0  0  0  0  0  0  0  0  0  0  0
    8.4594   -0.5287   -2.2695 H   0  0  0  0  0  0  0  0  0  0  0  0
    8.6743    0.3921    0.1830 H   0  0  0  0  0  0  0  0  0  0  0  0
    2.5969    2.6100   -1.2885 H   0  0  0  0  0  0  0  0  0  0  0  0
   -2.3887   -2.0686   -0.2842 H   0  0  0  0  0  0  0  0  0  0  0  0
   -4.7883   -2.1558    0.1525 H   0  0  0  0  0  0  0  0  0  0  0  0
  1  2  1  0
  2  3  2  0
  2  4  2  0
  2  5  1  0
  5  6  2  0
  6  7  1  0
  7  8  2  0
  8  9  1  0
  9 10  2  0
 10 11  1  0
 11 12  2  0
 12 13  1  0
 13 14  1  0
 14 15  1  0
 15 16  2  0
 16 17  1  0
 17 18  2  0
 18 19  1  0
 12 20  1  0
 20 21  1  0
 21 22  2  0
 22 23  1  0
 23 24  2  0
  8 25  1  0
 25 26  2  0
 26  5  1  0
 24  9  1  0
 19 15  1  0
 24 20  1  0
  1 27  1  0
  1 28  1  0
  1 29  1  0
  6 30  1  0
  7 31  1  0
 10 32  1  0
 13 33  1  0
 14 34  1  0
 14 35  1  0
 16 36  1  0
 17 37  1  0
 18 38  1  0
 21 39  1  0
 25 40  1  0
 26 41  1  0
M  END
$$$$
