
     RDKit          3D

 45 48  0  0  0  0  0  0  0  0999 V2000
    3.8416    0.4299    1.2593 O   0  0  0  0  0  0  0  0  0  0  0  0
    4.4455    0.1138    0.2004 C   0  0  0  0  0  0  0  0  0  0  0  0
    5.8361    0.2369    0.1666 N   0  0  0  0  0  0  0  0  0  0  0  0
    6.5378    0.7197    1.3581 C   0  0  0  0  0  0  0  0  0  0  0  0
    7.9117    0.2890    1.6091 C   0  0  0  0  0  0  0  0  0  0  0  0
    7.6164    1.7304    1.1792 C   0  0  0  0  0  0  0  0  0  0  0  0
    3.6713   -0.3596   -0.9300 C   0  0  0  0  0  0  0  0  0  0  0  0
    2.2702   -0.2212   -0.9021 C   0  0  0  0  0  0  0  0  0  0  0  0
    1.4354   -0.6141   -1.9101 C   0  0  0  0  0  0  0  0  0  0  0  0
    0.0420   -0.4474   -1.8144 N   0  0  0  0  0  0  0  0  0  0  0  0
   -0.5847    0.1514   -0.6556 C   0  0  0  0  0  0  0  0  0  0  0  0
   -2.0742    0.1606   -0.8393 C   0  0  0  0  0  0  0  0  0  0  0  0
   -2.9390    1.0083   -1.3833 C   0  0  0  0  0  0  0  0  0  0  0  0
   -4.2237    0.6435   -1.3399 N   0  0  0  0  0  0  0  0  0  0  0  0
   -4.6762   -0.2719   -0.9119 C   0  0  0  0  0  0  0  0  0  0  0  0
   -5.9847   -0.9317   -0.7164 N   0  0  0  0  0  0  0  0  0  0  0  0
   -6.6730   -0.5854    0.4844 C   0  0  0  0  0  0  0  0  0  0  0  0
   -7.5696    0.4632    0.3952 C   0  0  0  0  0  0  0  0  0  0  0  0
   -8.2793    0.8731    1.4979 C   0  0  0  0  0  0  0  0  0  0  0  0
   -8.0464    0.1871    2.6776 C   0  0  0  0  0  0  0  0  0  0  0  0
   -7.1464   -0.8527    2.7311 C   0  0  0  0  0  0  0  0  0  0  0  0
   -6.4638   -1.2362    1.6388 N   0  0  0  0  0  0  0  0  0  0  0  0
   -3.1513   -1.1923   -0.2536 S   0  0  0  0  0  0  0  0  0  0  0  0
    2.0219   -1.1840   -3.0252 C   0  0  0  0  0  0  0  0  0  0  0  0
    1.2286   -1.5863   -4.0474 F   0  0  0  0  0  0  0  0  0  0  0  0
    3.3886   -1.3498   -3.1181 C   0  0  0  0  0  0  0  0  0  0  0  0
    4.1877   -0.9333   -2.0656 C   0  0  0  0  0  0  0  0  0  0  0  0
    5.5078   -1.1335   -2.2114 F   0  0  0  0  0  0  0  0  0  0  0  0
    6.4343    0.0093   -0.6745 H   0  0  0  0  0  0  0  0  0  0  0  0
    5.8909    0.8979    2.2340 H   0  0  0  0  0  0  0  0  0  0  0  0
    8.4991   -0.3370    0.9056 H   0  0  0  0  0  0  0  0  0  0  0  0
    8.2949    0.1872    2.6580 H   0  0  0  0  0  0  0  0  0  0  0  0
    7.8056    2.0421    0.1474 H   0  0  0  0  0  0  0  0  0  0  0  0
    7.7395    2.5323    1.9403 H   0  0  0  0  0  0  0  0  0  0  0  0
    1.8408    0.2266   -0.0205 H   0  0  0  0  0  0  0  0  0  0  0  0
   -0.5495   -0.7702   -2.6128 H   0  0  0  0  0  0  0  0  0  0  0  0
   -0.3427   -0.3958    0.2793 H   0  0  0  0  0  0  0  0  0  0  0  0
   -0.2858    1.2076   -0.6087 H   0  0  0  0  0  0  0  0  0  0  0  0
   -2.6406    1.9585   -1.8477 H   0  0  0  0  0  0  0  0  0  0  0  0
   -6.3492   -1.5898   -1.4136 H   0  0  0  0  0  0  0  0  0  0  0  0
   -7.7221    0.9705   -0.5408 H   0  0  0  0  0  0  0  0  0  0  0  0
   -8.9841    1.6898    1.4457 H   0  0  0  0  0  0  0  0  0  0  0  0
   -8.5610    0.4433    3.5936 H   0  0  0  0  0  0  0  0  0  0  0  0
   -6.9670   -1.3828    3.6480 H   0  0  0  0  0  0  0  0  0  0  0  0
    3.7665   -1.7971   -4.0091 H   0  0  0  0  0  0  0  0  0  0  0  0
  1  2  2  0
  2  3  1  0
  3  4  1  0
  4  5  1  0
  5  6  1  0
  2  7  1  0
  7  8  2  0
  8  9  1  0
  9 10  1  0
 10 11  1  0
 11 12  1  0
 12 13  2  0
 13 14  1  0
 14 15  2  0
 15 16  1  0
 16 17  1  0
 17 18  2  0
 18 19  1  0
 19 20  2  0
 20 21  1  0
 21 22  2  0
 15 23  1  0
  9 24  2  0
 24 25  1  0
 24 26  1  0
 26 27  2  0
 27 28  1  0
  6  4  1  0
 27  7  1  0
 23 12  1  0
 22 17  1  0
  3 29  1  0
  4 30  1  0
  5 31  1  0
  5 32  1  0
  6 33  1  0
  6 34  1  0
  8 35  1  0
 10 36  1  0
 11 37  1  0
 11 38  1  0
 13 39  1  0
 16 40  1  0
 18 41  1  0
 19 42  1  0
 20 43  1  0
 21 44  1  0
 26 45  1  0
M  END
$$$$
