
     RDKit          3D

 35 36  0  0  0  0  0  0  0  0999 V2000
   -3.8349    0.9268   -1.7570 C   0  0  0  0  0  0  0  0  0  0  0  0
   -3.9723    0.7941   -0.3107 N   0  0  0  0  0  0  0  0  0  0  0  0
   -4.9216    1.3688    0.4443 C   0  0  0  0  0  0  0  0  0  0  0  0
   -4.7152    1.0021    1.7616 C   0  0  0  0  0  0  0  0  0  0  0  0
   -3.6027    0.1872    1.7430 C   0  0  0  0  0  0  0  0  0  0  0  0
   -3.1436    0.0608    0.4501 C   0  0  0  0  0  0  0  0  0  0  0  0
   -1.9734   -0.7170   -0.0175 C   0  0  0  0  0  0  0  0  0  0  0  0
   -1.6818   -0.6876   -1.2325 O   0  0  0  0  0  0  0  0  0  0  0  0
   -1.2096   -1.4710    0.8829 N   0  0  0  0  0  0  0  0  0  0  0  0
   -0.0735   -2.2302    0.4792 C   0  0  0  0  0  0  0  0  0  0  0  0
    1.1649   -1.4535    0.2629 C   0  0  0  0  0  0  0  0  0  0  0  0
    2.0401   -1.1825    1.3242 C   0  0  0  0  0  0  0  0  0  0  0  0
    3.2006   -0.4692    1.1371 C   0  0  0  0  0  0  0  0  0  0  0  0
    3.5754    0.0258   -0.1156 C   0  0  0  0  0  0  0  0  0  0  0  0
    4.8193    0.7705   -0.2435 C   0  0  0  0  0  0  0  0  0  0  0  0
    5.5977    0.9551    0.7271 O   0  0  0  0  0  0  0  0  0  0  0  0
    5.2100    1.3269   -1.4860 N   0  0  0  0  0  0  0  0  0  0  0  0
    6.3940    2.0278   -1.5834 O   0  0  0  0  0  0  0  0  0  0  0  0
    2.7176   -0.2409   -1.1527 C   0  0  0  0  0  0  0  0  0  0  0  0
    1.5320   -0.9691   -0.9653 C   0  0  0  0  0  0  0  0  0  0  0  0
   -2.9551    1.5688   -1.9544 H   0  0  0  0  0  0  0  0  0  0  0  0
   -3.7562   -0.0826   -2.2109 H   0  0  0  0  0  0  0  0  0  0  0  0
   -4.7365    1.3948   -2.2006 H   0  0  0  0  0  0  0  0  0  0  0  0
   -5.7396    2.0197    0.1371 H   0  0  0  0  0  0  0  0  0  0  0  0
   -5.3114    1.2989    2.6308 H   0  0  0  0  0  0  0  0  0  0  0  0
   -3.1658   -0.2767    2.6197 H   0  0  0  0  0  0  0  0  0  0  0  0
   -1.5465   -1.4311    1.8939 H   0  0  0  0  0  0  0  0  0  0  0  0
   -0.3046   -2.8016   -0.4704 H   0  0  0  0  0  0  0  0  0  0  0  0
    0.1892   -3.0456    1.2125 H   0  0  0  0  0  0  0  0  0  0  0  0
    1.7458   -1.5688    2.2958 H   0  0  0  0  0  0  0  0  0  0  0  0
    3.8789   -0.2619    1.9738 H   0  0  0  0  0  0  0  0  0  0  0  0
    4.6166    1.2175   -2.3333 H   0  0  0  0  0  0  0  0  0  0  0  0
    6.1099    2.9867   -1.6739 H   0  0  0  0  0  0  0  0  0  0  0  0
    2.9583    0.1160   -2.1349 H   0  0  0  0  0  0  0  0  0  0  0  0
    0.8938   -1.1587   -1.8262 H   0  0  0  0  0  0  0  0  0  0  0  0
  1  2  1  0
  2  3  1  0
  3  4  2  0
  4  5  1  0
  5  6  2  0
  6  7  1  0
  7  8  2  0
  7  9  1  0
  9 10  1  0
 10 11  1  0
 11 12  2  0
 12 13  1  0
 13 14  2  0
 14 15  1  0
 15 16  2  0
 15 17  1  0
 17 18  1  0
 14 19  1  0
 19 20  2  0
  6  2  1  0
 20 11  1  0
  1 21  1  0
  1 22  1  0
  1 23  1  0
  3 24  1  0
  4 25  1  0
  5 26  1  0
  9 27  1  0
 10 28  1  0
 10 29  1  0
 12 30  1  0
 13 31  1  0
 17 32  1  0
 18 33  1  0
 19 34  1  0
 20 35  1  0
M  END
$$$$
