
     RDKit          3D

 35 37  0  0  0  0  0  0  0  0999 V2000
    4.8722    1.3490   -0.4607 C   0  0  0  0  0  0  0  0  0  0  0  0
    4.8480   -0.0534   -0.3149 O   0  0  0  0  0  0  0  0  0  0  0  0
    3.6608   -0.7301   -0.1585 C   0  0  0  0  0  0  0  0  0  0  0  0
    2.4508   -0.0272   -0.1421 C   0  0  0  0  0  0  0  0  0  0  0  0
    1.2349   -0.6236    0.0081 C   0  0  0  0  0  0  0  0  0  0  0  0
   -0.0648    0.0416    0.0349 C   0  0  0  0  0  0  0  0  0  0  0  0
   -1.1552   -0.7285    0.1936 O   0  0  0  0  0  0  0  0  0  0  0  0
   -2.3667   -0.2818    0.2363 C   0  0  0  0  0  0  0  0  0  0  0  0
   -3.4607   -1.1187    0.4021 C   0  0  0  0  0  0  0  0  0  0  0  0
   -4.7509   -0.6409    0.4475 C   0  0  0  0  0  0  0  0  0  0  0  0
   -5.8475   -1.4900    0.6147 O   0  0  0  0  0  0  0  0  0  0  0  0
   -4.9754    0.7124    0.3251 C   0  0  0  0  0  0  0  0  0  0  0  0
   -3.8896    1.5498    0.1599 C   0  0  0  0  0  0  0  0  0  0  0  0
   -4.0459    2.9341    0.0294 O   0  0  0  0  0  0  0  0  0  0  0  0
   -2.5918    1.0729    0.1139 C   0  0  0  0  0  0  0  0  0  0  0  0
   -1.5069    1.9053   -0.0508 C   0  0  0  0  0  0  0  0  0  0  0  0
   -1.6507    3.1391   -0.1668 O   0  0  0  0  0  0  0  0  0  0  0  0
   -0.1942    1.3886   -0.0937 C   0  0  0  0  0  0  0  0  0  0  0  0
    0.8674    2.2483   -0.2595 O   0  0  0  0  0  0  0  0  0  0  0  0
    1.2630   -2.0268    0.1502 C   0  0  0  0  0  0  0  0  0  0  0  0
    2.4184   -2.7462    0.1396 C   0  0  0  0  0  0  0  0  0  0  0  0
    3.6175   -2.0992   -0.0146 C   0  0  0  0  0  0  0  0  0  0  0  0
    4.7867   -2.8318   -0.0249 O   0  0  0  0  0  0  0  0  0  0  0  0
    4.3634    1.5981   -1.4179 H   0  0  0  0  0  0  0  0  0  0  0  0
    5.8957    1.7560   -0.4190 H   0  0  0  0  0  0  0  0  0  0  0  0
    4.2766    1.8448    0.3481 H   0  0  0  0  0  0  0  0  0  0  0  0
    2.5121    1.0174   -0.2540 H   0  0  0  0  0  0  0  0  0  0  0  0
   -3.2987   -2.1750    0.4986 H   0  0  0  0  0  0  0  0  0  0  0  0
   -5.7472   -2.4445    0.9478 H   0  0  0  0  0  0  0  0  0  0  0  0
   -5.9821    1.1077    0.3582 H   0  0  0  0  0  0  0  0  0  0  0  0
   -4.2541    3.4886    0.8611 H   0  0  0  0  0  0  0  0  0  0  0  0
    1.0270    2.8208   -1.0812 H   0  0  0  0  0  0  0  0  0  0  0  0
    0.3352   -2.5590    0.2728 H   0  0  0  0  0  0  0  0  0  0  0  0
    2.4201   -3.8243    0.2502 H   0  0  0  0  0  0  0  0  0  0  0  0
    4.9324   -3.5736    0.6532 H   0  0  0  0  0  0  0  0  0  0  0  0
  1  2  1  0
  2  3  1  0
  3  4  2  0
  4  5  1  0
  5  6  1  0
  6  7  1  0
  7  8  1  0
  8  9  2  0
  9 10  1  0
 10 11  1  0
 10 12  2  0
 12 13  1  0
 13 14  1  0
 13 15  2  0
 15 16  1  0
 16 17  2  0
 16 18  1  0
 18 19  1  0
  5 20  2  0
 20 21  1  0
 21 22  2  0
 22 23  1  0
 22  3  1  0
 18  6  2  0
 15  8  1  0
  1 24  1  0
  1 25  1  0
  1 26  1  0
  4 27  1  0
  9 28  1  0
 11 29  1  0
 12 30  1  0
 14 31  1  0
 19 32  1  0
 20 33  1  0
 21 34  1  0
 23 35  1  0
M  END
$$$$
