
     RDKit          3D

 48 49  0  0  0  0  0  0  0  0999 V2000
    2.3224    2.2673   -2.3447 O   0  0  0  0  0  0  0  0  0  0  0  0
    3.0943    1.4650   -1.8047 C   0  0  0  0  0  0  0  0  0  0  0  0
    4.4095    1.3185   -2.1395 O   0  0  0  0  0  0  0  0  0  0  0  0
    2.5277    0.5862   -0.6922 C   0  0  2  0  0  0  0  0  0  0  0  0
    2.7998   -0.8212   -1.0299 C   0  0  0  0  0  0  0  0  0  0  0  0
    2.5468   -1.9363   -0.1307 C   0  0  0  0  0  0  0  0  0  0  0  0
    1.2411   -2.5459    0.0982 C   0  0  0  0  0  0  0  0  0  0  0  0
    0.0947   -1.7600    0.5655 C   0  0  0  0  0  0  0  0  0  0  0  0
   -1.0947   -2.7346    0.8486 C   0  0  0  0  0  0  0  0  0  0  0  0
   -2.2903   -1.8289    1.1894 C   0  0  0  0  0  0  0  0  0  0  0  0
   -2.4869   -0.8734    0.0703 C   0  0  0  0  0  0  0  0  0  0  0  0
   -2.9807   -1.3982   -1.1213 C   0  0  0  0  0  0  0  0  0  0  0  0
   -3.1820   -0.6340   -2.2474 C   0  0  0  0  0  0  0  0  0  0  0  0
   -2.8727    0.7017   -2.1606 C   0  0  0  0  0  0  0  0  0  0  0  0
   -2.3790    1.2411   -0.9768 C   0  0  0  0  0  0  0  0  0  0  0  0
   -2.1783    0.4534    0.1647 C   0  0  0  0  0  0  0  0  0  0  0  0
   -1.6888    1.1047    1.3819 C   0  0  0  0  0  0  0  0  0  0  0  0
   -0.6334    2.1290    1.1282 C   0  0  1  0  0  0  0  0  0  0  0  0
   -0.3685    2.7626    2.5266 C   0  0  0  0  0  0  0  0  0  0  0  0
    0.9040    4.0392    2.3826 S   0  0  0  0  0  0  0  0  0  0  0  0
    0.6018    1.5853    0.5990 C   0  0  0  0  0  0  0  0  0  0  0  0
    1.6568    1.7273    1.4019 O   0  0  0  0  0  0  0  0  0  0  0  0
    1.1248    0.9240   -0.5214 N   0  0  0  0  0  0  0  0  0  0  0  0
    4.8860    2.0964   -2.6169 H   0  0  0  0  0  0  0  0  0  0  0  0
    3.1743    0.8623    0.1656 H   0  0  0  0  0  0  0  0  0  0  0  0
    3.9208   -0.8371   -1.3349 H   0  0  0  0  0  0  0  0  0  0  0  0
    2.3314   -1.0941   -2.0460 H   0  0  0  0  0  0  0  0  0  0  0  0
    3.0601   -1.7636    0.8984 H   0  0  0  0  0  0  0  0  0  0  0  0
    3.2230   -2.8060   -0.5029 H   0  0  0  0  0  0  0  0  0  0  0  0
    1.4075   -3.3682    0.8874 H   0  0  0  0  0  0  0  0  0  0  0  0
    0.9495   -3.1562   -0.8150 H   0  0  0  0  0  0  0  0  0  0  0  0
   -0.3660   -1.1333   -0.2398 H   0  0  0  0  0  0  0  0  0  0  0  0
    0.2877   -1.1738    1.4553 H   0  0  0  0  0  0  0  0  0  0  0  0
   -0.7998   -3.3326    1.6976 H   0  0  0  0  0  0  0  0  0  0  0  0
   -1.2377   -3.3174   -0.0539 H   0  0  0  0  0  0  0  0  0  0  0  0
   -3.1785   -2.5245    1.1703 H   0  0  0  0  0  0  0  0  0  0  0  0
   -2.2387   -1.4013    2.1803 H   0  0  0  0  0  0  0  0  0  0  0  0
   -3.2216   -2.4491   -1.1820 H   0  0  0  0  0  0  0  0  0  0  0  0
   -3.5675   -1.0454   -3.1765 H   0  0  0  0  0  0  0  0  0  0  0  0
   -3.0107    1.3591   -3.0215 H   0  0  0  0  0  0  0  0  0  0  0  0
   -2.1597    2.2825   -0.9715 H   0  0  0  0  0  0  0  0  0  0  0  0
   -2.6081    1.5947    1.8513 H   0  0  0  0  0  0  0  0  0  0  0  0
   -1.3253    0.3402    2.1276 H   0  0  0  0  0  0  0  0  0  0  0  0
   -1.0915    2.9736    0.5701 H   0  0  0  0  0  0  0  0  0  0  0  0
   -0.1138    1.9680    3.2293 H   0  0  0  0  0  0  0  0  0  0  0  0
   -1.3160    3.2511    2.8312 H   0  0  0  0  0  0  0  0  0  0  0  0
    1.2588    4.2590    1.0300 H   0  0  0  0  0  0  0  0  0  0  0  0
    0.5672    0.6430   -1.3212 H   0  0  0  0  0  0  0  0  0  0  0  0
  1  2  2  0
  2  3  1  0
  2  4  1  0
  4  5  1  0
  5  6  1  0
  6  7  1  0
  7  8  1  0
  8  9  1  0
  9 10  1  0
 10 11  1  0
 11 12  2  0
 12 13  1  0
 13 14  2  0
 14 15  1  0
 15 16  2  0
 16 17  1  0
 17 18  1  0
 18 19  1  0
 19 20  1  0
 18 21  1  0
 21 22  2  0
 21 23  1  0
 23  4  1  0
 16 11  1  0
  3 24  1  0
  4 25  1  1
  5 26  1  0
  5 27  1  0
  6 28  1  0
  6 29  1  0
  7 30  1  0
  7 31  1  0
  8 32  1  0
  8 33  1  0
  9 34  1  0
  9 35  1  0
 10 36  1  0
 10 37  1  0
 12 38  1  0
 13 39  1  0
 14 40  1  0
 15 41  1  0
 17 42  1  0
 17 43  1  0
 18 44  1  6
 19 45  1  0
 19 46  1  0
 20 47  1  0
 23 48  1  0
M  END
$$$$
