
     RDKit          3D

 57 61  0  0  0  0  0  0  0  0999 V2000
    6.4583   -0.9586   -1.9576 N   0  0  0  0  0  0  0  0  0  0  0  0
    6.2132   -0.2241   -1.1075 C   0  0  0  0  0  0  0  0  0  0  0  0
    5.9328    0.6948   -0.0509 C   0  0  0  0  0  0  0  0  0  0  0  0
    6.7732    1.8068    0.0535 C   0  0  0  0  0  0  0  0  0  0  0  0
    6.5687    2.6988    1.0714 C   0  0  0  0  0  0  0  0  0  0  0  0
    5.5547    2.5225    1.9911 C   0  0  0  0  0  0  0  0  0  0  0  0
    4.7617    1.4578    1.8775 N   0  0  0  0  0  0  0  0  0  0  0  0
    4.9460    0.5448    0.8612 C   0  0  0  0  0  0  0  0  0  0  0  0
    4.0276   -0.4973    0.8312 N   0  0  0  0  0  0  0  0  0  0  0  0
    3.8846   -1.4999   -0.1645 C   0  0  2  0  0  0  0  0  0  0  0  0
    3.3391   -1.0002   -1.4624 C   0  0  0  0  0  0  0  0  0  0  0  0
    1.8405   -1.3114   -1.4754 C   0  0  0  0  0  0  0  0  0  0  0  0
    1.6063   -1.8314   -0.1518 N   0  0  0  0  0  0  0  0  0  0  0  0
    0.4288   -1.6889    0.6232 C   0  0  0  0  0  0  0  0  0  0  0  0
    0.3098   -2.1778    1.7754 O   0  0  0  0  0  0  0  0  0  0  0  0
   -0.6276   -0.9942    0.1087 O   0  0  0  0  0  0  0  0  0  0  0  0
   -1.8583   -0.7618    0.7410 C   0  0  1  0  0  0  0  0  0  0  0  0
   -2.0206    0.7417    0.8339 C   0  0  0  0  0  0  0  0  0  0  0  0
   -2.0256    1.3044   -0.5877 C   0  0  0  0  0  0  0  0  0  0  0  0
   -3.1807    0.7673   -1.3866 C   0  0  0  0  0  0  0  0  0  0  0  0
   -3.0058   -0.7452   -1.4598 C   0  0  0  0  0  0  0  0  0  0  0  0
   -3.0265   -1.2825   -0.0634 C   0  0  0  0  0  0  0  0  0  0  0  0
   -4.3067   -0.8922    0.6379 C   0  0  0  0  0  0  0  0  0  0  0  0
   -4.4462    0.6171    0.7169 C   0  0  2  0  0  0  0  0  0  0  0  0
   -5.7105    0.9268    1.3824 C   0  0  0  0  0  0  0  0  0  0  0  0
   -6.9518    0.4984    0.8578 N   0  0  0  0  0  0  0  0  0  0  0  0
   -5.6982    1.5915    2.4499 O   0  0  0  0  0  0  0  0  0  0  0  0
   -4.4591    1.1326   -0.7054 C   0  0  0  0  0  0  0  0  0  0  0  0
   -3.3006    1.1409    1.5138 C   0  0  0  0  0  0  0  0  0  0  0  0
    2.8097   -2.5360    0.2474 C   0  0  0  0  0  0  0  0  0  0  0  0
    7.5634    1.9526   -0.6559 H   0  0  0  0  0  0  0  0  0  0  0  0
    7.2136    3.5511    1.1506 H   0  0  0  0  0  0  0  0  0  0  0  0
    5.4604    3.2742    2.7668 H   0  0  0  0  0  0  0  0  0  0  0  0
    3.3304   -0.5936    1.6376 H   0  0  0  0  0  0  0  0  0  0  0  0
    4.7995   -2.1285   -0.2689 H   0  0  0  0  0  0  0  0  0  0  0  0
    3.7483   -1.4946   -2.3582 H   0  0  0  0  0  0  0  0  0  0  0  0
    3.4159    0.1119   -1.4962 H   0  0  0  0  0  0  0  0  0  0  0  0
    1.5920   -2.1192   -2.1900 H   0  0  0  0  0  0  0  0  0  0  0  0
    1.2323   -0.4075   -1.6752 H   0  0  0  0  0  0  0  0  0  0  0  0
   -1.9347   -1.1991    1.7458 H   0  0  0  0  0  0  0  0  0  0  0  0
   -1.1206    1.1331    1.3205 H   0  0  0  0  0  0  0  0  0  0  0  0
   -2.1809    2.4101   -0.4849 H   0  0  0  0  0  0  0  0  0  0  0  0
   -1.0530    1.1437   -1.0662 H   0  0  0  0  0  0  0  0  0  0  0  0
   -3.1221    1.1959   -2.3926 H   0  0  0  0  0  0  0  0  0  0  0  0
   -2.0188   -0.9309   -1.9150 H   0  0  0  0  0  0  0  0  0  0  0  0
   -3.8476   -1.1706   -2.0283 H   0  0  0  0  0  0  0  0  0  0  0  0
   -3.0270   -2.3913   -0.1282 H   0  0  0  0  0  0  0  0  0  0  0  0
   -5.1476   -1.3108    0.0623 H   0  0  0  0  0  0  0  0  0  0  0  0
   -4.2740   -1.3558    1.6435 H   0  0  0  0  0  0  0  0  0  0  0  0
   -7.5872   -0.0850    1.4397 H   0  0  0  0  0  0  0  0  0  0  0  0
   -7.2008    0.7822   -0.1114 H   0  0  0  0  0  0  0  0  0  0  0  0
   -5.2961    0.5822   -1.2193 H   0  0  0  0  0  0  0  0  0  0  0  0
   -4.6032    2.2119   -0.7718 H   0  0  0  0  0  0  0  0  0  0  0  0
   -3.2952    2.2337    1.6356 H   0  0  0  0  0  0  0  0  0  0  0  0
   -3.3416    0.6979    2.5182 H   0  0  0  0  0  0  0  0  0  0  0  0
    2.8896   -2.6637    1.3410 H   0  0  0  0  0  0  0  0  0  0  0  0
    2.9679   -3.4741   -0.2807 H   0  0  0  0  0  0  0  0  0  0  0  0
  1  2  3  0
  2  3  1  0
  3  4  2  0
  4  5  1  0
  5  6  2  0
  6  7  1  0
  7  8  2  0
  8  9  1  0
  9 10  1  0
 10 11  1  0
 11 12  1  0
 12 13  1  0
 13 14  1  0
 14 15  2  0
 14 16  1  0
 16 17  1  0
 17 18  1  0
 18 19  1  0
 19 20  1  0
 20 21  1  0
 21 22  1  0
 22 23  1  0
 23 24  1  0
 24 25  1  1
 25 26  1  0
 25 27  2  0
 24 28  1  0
 24 29  1  0
 13 30  1  0
  8  3  1  0
 30 10  1  0
 22 17  1  0
 29 18  1  0
 28 20  1  0
  4 31  1  0
  5 32  1  0
  6 33  1  0
  9 34  1  0
 10 35  1  6
 11 36  1  0
 11 37  1  0
 12 38  1  0
 12 39  1  0
 17 40  1  1
 18 41  1  0
 19 42  1  0
 19 43  1  0
 20 44  1  0
 21 45  1  0
 21 46  1  0
 22 47  1  0
 23 48  1  0
 23 49  1  0
 26 50  1  0
 26 51  1  0
 28 52  1  0
 28 53  1  0
 29 54  1  0
 29 55  1  0
 30 56  1  0
 30 57  1  0
M  END
$$$$
