
     RDKit          3D

 76 82  0  0  0  0  0  0  0  0999 V2000
    3.9036   -2.6168    1.4509 C   0  0  0  0  0  0  0  0  0  0  0  0
    4.7956   -2.5551    0.2486 C   0  0  0  0  0  0  0  0  0  0  0  0
    4.4422   -3.5300   -0.7657 N   0  0  0  0  0  0  0  0  0  0  0  0
    5.3221   -3.4423   -1.9124 C   0  0  0  0  0  0  0  0  0  0  0  0
    5.1599   -2.1197   -2.6328 C   0  0  0  0  0  0  0  0  0  0  0  0
    3.7915   -1.6080   -2.3946 N   0  0  0  0  0  0  0  0  0  0  0  0
    3.4317   -0.6645   -3.4234 C   0  0  0  0  0  0  0  0  0  0  0  0
    2.1955    0.0841   -3.1809 C   0  0  0  0  0  0  0  0  0  0  0  0
    1.7122    0.9085   -4.0099 O   0  0  0  0  0  0  0  0  0  0  0  0
    1.4771   -0.0891   -1.9728 N   0  0  0  0  0  0  0  0  0  0  0  0
    0.2719    0.6021   -1.6876 C   0  0  0  0  0  0  0  0  0  0  0  0
   -0.8703    0.0357   -2.1980 C   0  0  0  0  0  0  0  0  0  0  0  0
   -2.1229    0.5589   -2.0395 C   0  0  0  0  0  0  0  0  0  0  0  0
   -2.2015    1.7242   -1.3189 C   0  0  0  0  0  0  0  0  0  0  0  0
   -3.4577    2.4013   -1.0646 C   0  0  0  0  0  0  0  0  0  0  0  0
   -3.9644    3.3797   -1.9102 C   0  0  0  0  0  0  0  0  0  0  0  0
   -5.1647    4.0064   -1.6458 C   0  0  0  0  0  0  0  0  0  0  0  0
   -5.8610    3.6399   -0.5130 C   0  0  0  0  0  0  0  0  0  0  0  0
   -5.3847    2.6719    0.3471 C   0  0  0  0  0  0  0  0  0  0  0  0
   -6.0602    2.2868    1.4831 C   0  0  0  0  0  0  0  0  0  0  0  0
   -7.1469    2.8356    1.7469 O   0  0  0  0  0  0  0  0  0  0  0  0
   -5.4723    1.3022    2.2599 C   0  0  0  0  0  0  0  0  0  0  0  0
   -4.2726    0.6995    1.9635 C   0  0  0  0  0  0  0  0  0  0  0  0
   -3.6701   -0.3103    2.7571 N   0  0  0  0  0  0  0  0  0  0  0  0
   -2.3621   -0.8407    2.3641 C   0  0  0  0  0  0  0  0  0  0  0  0
   -2.5375   -2.3072    2.1336 C   0  0  0  0  0  0  0  0  0  0  0  0
   -3.7722   -2.7971    2.5562 O   0  0  0  0  0  0  0  0  0  0  0  0
   -4.0727   -2.3961    3.8518 C   0  0  0  0  0  0  0  0  0  0  0  0
   -4.2444   -0.8915    3.9448 C   0  0  0  0  0  0  0  0  0  0  0  0
   -3.6779    1.1245    0.8486 O   0  0  0  0  0  0  0  0  0  0  0  0
   -4.1702    2.0458    0.0685 C   0  0  0  0  0  0  0  0  0  0  0  0
   -1.0450    2.2862   -0.8081 C   0  0  0  0  0  0  0  0  0  0  0  0
   -0.8116    3.7664    0.1571 S   0  0  0  0  0  0  0  0  0  0  0  0
    0.9229    3.6287    0.3114 C   0  0  0  0  0  0  0  0  0  0  0  0
    1.8514    4.4466    0.9655 C   0  0  0  0  0  0  0  0  0  0  0  0
    3.1767    4.1117    0.9501 C   0  0  0  0  0  0  0  0  0  0  0  0
    3.5168    2.9702    0.2794 C   0  0  0  0  0  0  0  0  0  0  0  0
    2.6005    2.1734   -0.3599 C   0  0  0  0  0  0  0  0  0  0  0  0
    1.2240    2.4940   -0.3624 C   0  0  0  0  0  0  0  0  0  0  0  0
    0.2178    1.7985   -0.9419 C   0  0  0  0  0  0  0  0  0  0  0  0
    2.9089   -2.7906   -2.4506 C   0  0  0  0  0  0  0  0  0  0  0  0
    3.0687   -3.5071   -1.1399 C   0  0  0  0  0  0  0  0  0  0  0  0
    3.5088   -3.6489    1.5790 H   0  0  0  0  0  0  0  0  0  0  0  0
    3.0507   -1.9263    1.3432 H   0  0  0  0  0  0  0  0  0  0  0  0
    4.4938   -2.3384    2.3561 H   0  0  0  0  0  0  0  0  0  0  0  0
    5.8449   -2.8008    0.5745 H   0  0  0  0  0  0  0  0  0  0  0  0
    4.8141   -1.5582   -0.1910 H   0  0  0  0  0  0  0  0  0  0  0  0
    6.3665   -3.4919   -1.5456 H   0  0  0  0  0  0  0  0  0  0  0  0
    5.1723   -4.3004   -2.5896 H   0  0  0  0  0  0  0  0  0  0  0  0
    5.8473   -1.3549   -2.2552 H   0  0  0  0  0  0  0  0  0  0  0  0
    5.2442   -2.3008   -3.7090 H   0  0  0  0  0  0  0  0  0  0  0  0
    4.2863    0.0242   -3.5597 H   0  0  0  0  0  0  0  0  0  0  0  0
    3.3137   -1.2099   -4.4042 H   0  0  0  0  0  0  0  0  0  0  0  0
    1.8241   -0.7239   -1.2448 H   0  0  0  0  0  0  0  0  0  0  0  0
   -0.8128   -0.8915   -2.7726 H   0  0  0  0  0  0  0  0  0  0  0  0
   -3.0209    0.1341   -2.4270 H   0  0  0  0  0  0  0  0  0  0  0  0
   -3.3863    3.6431   -2.7957 H   0  0  0  0  0  0  0  0  0  0  0  0
   -5.5623    4.7658   -2.2999 H   0  0  0  0  0  0  0  0  0  0  0  0
   -6.8044    4.1366   -0.3108 H   0  0  0  0  0  0  0  0  0  0  0  0
   -5.9837    0.9828    3.1613 H   0  0  0  0  0  0  0  0  0  0  0  0
   -1.6164   -0.6577    3.1660 H   0  0  0  0  0  0  0  0  0  0  0  0
   -2.0337   -0.3567    1.4451 H   0  0  0  0  0  0  0  0  0  0  0  0
   -2.3773   -2.5512    1.0565 H   0  0  0  0  0  0  0  0  0  0  0  0
   -1.7607   -2.8483    2.7221 H   0  0  0  0  0  0  0  0  0  0  0  0
   -3.3384   -2.7699    4.5766 H   0  0  0  0  0  0  0  0  0  0  0  0
   -5.0441   -2.8627    4.1109 H   0  0  0  0  0  0  0  0  0  0  0  0
   -3.6335   -0.5615    4.8299 H   0  0  0  0  0  0  0  0  0  0  0  0
   -5.2979   -0.6515    4.0656 H   0  0  0  0  0  0  0  0  0  0  0  0
    1.4579    5.3211    1.4599 H   0  0  0  0  0  0  0  0  0  0  0  0
    3.9170    4.7062    1.4349 H   0  0  0  0  0  0  0  0  0  0  0  0
    4.5831    2.6938    0.2626 H   0  0  0  0  0  0  0  0  0  0  0  0
    3.0061    1.3023   -0.8367 H   0  0  0  0  0  0  0  0  0  0  0  0
    1.8740   -2.5377   -2.6213 H   0  0  0  0  0  0  0  0  0  0  0  0
    3.2749   -3.4836   -3.2501 H   0  0  0  0  0  0  0  0  0  0  0  0
    2.5277   -2.8790   -0.3811 H   0  0  0  0  0  0  0  0  0  0  0  0
    2.6174   -4.5209   -1.1502 H   0  0  0  0  0  0  0  0  0  0  0  0
  1  2  1  0
  2  3  1  0
  3  4  1  0
  4  5  1  0
  5  6  1  0
  6  7  1  0
  7  8  1  0
  8  9  2  0
  8 10  1  0
 10 11  1  0
 11 12  2  0
 12 13  1  0
 13 14  2  0
 14 15  1  0
 15 16  2  0
 16 17  1  0
 17 18  2  0
 18 19  1  0
 19 20  1  0
 20 21  2  0
 20 22  1  0
 22 23  2  0
 23 24  1  0
 24 25  1  0
 25 26  1  0
 26 27  1  0
 27 28  1  0
 28 29  1  0
 23 30  1  0
 30 31  1  0
 14 32  1  0
 32 33  1  0
 33 34  1  0
 34 35  2  0
 35 36  1  0
 36 37  2  0
 37 38  1  0
 38 39  2  0
 39 40  1  0
  6 41  1  0
 41 42  1  0
 42  3  1  0
 40 11  1  0
 31 15  1  0
 40 32  2  0
 31 19  2  0
 39 34  1  0
 29 24  1  0
  1 43  1  0
  1 44  1  0
  1 45  1  0
  2 46  1  0
  2 47  1  0
  4 48  1  0
  4 49  1  0
  5 50  1  0
  5 51  1  0
  7 52  1  0
  7 53  1  0
 10 54  1  0
 12 55  1  0
 13 56  1  0
 16 57  1  0
 17 58  1  0
 18 59  1  0
 22 60  1  0
 25 61  1  0
 25 62  1  0
 26 63  1  0
 26 64  1  0
 28 65  1  0
 28 66  1  0
 29 67  1  0
 29 68  1  0
 35 69  1  0
 36 70  1  0
 37 71  1  0
 38 72  1  0
 41 73  1  0
 41 74  1  0
 42 75  1  0
 42 76  1  0
M  END
$$$$
