
     RDKit          3D

 67 72  0  0  0  0  0  0  0  0999 V2000
    4.5675    0.5778   -1.5863 O   0  0  0  0  0  0  0  0  0  0  0  0
    4.2230   -0.2201   -0.6607 C   0  0  0  0  0  0  0  0  0  0  0  0
    2.7868   -0.3199   -0.4339 C   0  0  0  0  0  0  0  0  0  0  0  0
    2.0926    0.7573    0.0477 C   0  0  0  0  0  0  0  0  0  0  0  0
    0.7304    0.7756    0.3086 C   0  0  0  0  0  0  0  0  0  0  0  0
    0.0238    1.9732    0.8129 C   0  0  1  0  0  0  0  0  0  0  0  0
    0.9929    3.1558    0.9419 C   0  0  0  0  0  0  0  0  0  0  0  0
    1.1558    3.5912   -0.4804 C   0  0  0  0  0  0  0  0  0  0  0  0
    0.1127    2.7764   -1.2926 C   0  0  0  0  0  0  0  0  0  0  0  0
   -0.8176    2.5241   -0.2138 N   0  0  0  0  0  0  0  0  0  0  0  0
   -2.1879    2.7903   -0.1620 C   0  0  0  0  0  0  0  0  0  0  0  0
   -2.9621    2.5907    0.9691 C   0  0  0  0  0  0  0  0  0  0  0  0
   -4.3186    2.8747    1.0126 C   0  0  0  0  0  0  0  0  0  0  0  0
   -5.0531    2.6694    2.1299 F   0  0  0  0  0  0  0  0  0  0  0  0
   -4.9662    3.3800   -0.0946 C   0  0  0  0  0  0  0  0  0  0  0  0
   -4.2211    3.5901   -1.2373 C   0  0  0  0  0  0  0  0  0  0  0  0
   -4.8663    4.0944   -2.3411 F   0  0  0  0  0  0  0  0  0  0  0  0
   -2.8882    3.3048   -1.2639 C   0  0  0  0  0  0  0  0  0  0  0  0
    0.0696   -0.4104    0.0474 C   0  0  0  0  0  0  0  0  0  0  0  0
   -1.2182   -0.5448    0.2525 O   0  0  0  0  0  0  0  0  0  0  0  0
   -1.8860   -1.6580    0.0205 C   0  0  0  0  0  0  0  0  0  0  0  0
   -3.2867   -1.7173    0.2776 N   0  0  0  0  0  0  0  0  0  0  0  0
   -4.0128   -0.6405    0.9132 C   0  0  0  0  0  0  0  0  0  0  0  0
   -5.1495   -1.3119    1.6997 C   0  0  0  0  0  0  0  0  0  0  0  0
   -6.0437   -1.9477    0.8784 O   0  0  0  0  0  0  0  0  0  0  0  0
   -5.5129   -2.6604   -0.1624 C   0  0  0  0  0  0  0  0  0  0  0  0
   -4.0374   -2.8908   -0.1118 C   0  0  0  0  0  0  0  0  0  0  0  0
   -1.2451   -2.8014   -0.4748 C   0  0  0  0  0  0  0  0  0  0  0  0
    0.0916   -2.7320   -0.7105 C   0  0  0  0  0  0  0  0  0  0  0  0
    0.7126   -3.7350   -1.1569 O   0  0  0  0  0  0  0  0  0  0  0  0
    0.7213   -1.5256   -0.4398 C   0  0  0  0  0  0  0  0  0  0  0  0
    2.0941   -1.4796   -0.6833 C   0  0  0  0  0  0  0  0  0  0  0  0
    5.1649   -0.9549    0.0917 N   0  0  0  0  0  0  0  0  0  0  0  0
    4.7294   -1.8457    1.1301 C   0  0  0  0  0  0  0  0  0  0  0  0
    5.4866   -3.1481    0.9759 C   0  0  0  0  0  0  0  0  0  0  0  0
    6.8394   -3.0022    0.8235 O   0  0  0  0  0  0  0  0  0  0  0  0
    7.3227   -1.7243    0.7837 C   0  0  0  0  0  0  0  0  0  0  0  0
    6.5752   -0.8198   -0.1691 C   0  0  0  0  0  0  0  0  0  0  0  0
    2.6514    1.6445    0.2423 H   0  0  0  0  0  0  0  0  0  0  0  0
   -0.4991    1.7901    1.7714 H   0  0  0  0  0  0  0  0  0  0  0  0
    0.4057    3.9149    1.5338 H   0  0  0  0  0  0  0  0  0  0  0  0
    1.8816    2.9502    1.5110 H   0  0  0  0  0  0  0  0  0  0  0  0
    2.1401    3.5658   -0.9135 H   0  0  0  0  0  0  0  0  0  0  0  0
    0.7648    4.6432   -0.5669 H   0  0  0  0  0  0  0  0  0  0  0  0
    0.5522    1.7955   -1.5942 H   0  0  0  0  0  0  0  0  0  0  0  0
   -0.2960    3.3667   -2.1110 H   0  0  0  0  0  0  0  0  0  0  0  0
   -2.4834    2.1864    1.8763 H   0  0  0  0  0  0  0  0  0  0  0  0
   -6.0316    3.6093   -0.0744 H   0  0  0  0  0  0  0  0  0  0  0  0
   -2.3299    3.4763   -2.1586 H   0  0  0  0  0  0  0  0  0  0  0  0
   -3.3803   -0.1160    1.6685 H   0  0  0  0  0  0  0  0  0  0  0  0
   -4.4650    0.0731    0.2129 H   0  0  0  0  0  0  0  0  0  0  0  0
   -5.6728   -0.5478    2.3024 H   0  0  0  0  0  0  0  0  0  0  0  0
   -4.7350   -2.0648    2.4147 H   0  0  0  0  0  0  0  0  0  0  0  0
   -5.9888   -3.6877   -0.1414 H   0  0  0  0  0  0  0  0  0  0  0  0
   -5.8431   -2.2236   -1.1412 H   0  0  0  0  0  0  0  0  0  0  0  0
   -3.7434   -3.2390   -1.1385 H   0  0  0  0  0  0  0  0  0  0  0  0
   -3.8560   -3.7433    0.5803 H   0  0  0  0  0  0  0  0  0  0  0  0
   -1.8457   -3.6719   -0.6407 H   0  0  0  0  0  0  0  0  0  0  0  0
    2.6124   -2.3416   -1.0648 H   0  0  0  0  0  0  0  0  0  0  0  0
    4.9614   -1.3642    2.1075 H   0  0  0  0  0  0  0  0  0  0  0  0
    3.6468   -2.0964    1.0927 H   0  0  0  0  0  0  0  0  0  0  0  0
    5.0693   -3.6505    0.0526 H   0  0  0  0  0  0  0  0  0  0  0  0
    5.2401   -3.8069    1.8406 H   0  0  0  0  0  0  0  0  0  0  0  0
    8.3743   -1.7863    0.3732 H   0  0  0  0  0  0  0  0  0  0  0  0
    7.3314   -1.2611    1.7775 H   0  0  0  0  0  0  0  0  0  0  0  0
    6.8769    0.2372    0.0877 H   0  0  0  0  0  0  0  0  0  0  0  0
    6.8423   -0.9875   -1.2325 H   0  0  0  0  0  0  0  0  0  0  0  0
  1  2  2  0
  2  3  1  0
  3  4  2  0
  4  5  1  0
  5  6  1  0
  6  7  1  0
  7  8  1  0
  8  9  1  0
  9 10  1  0
 10 11  1  0
 11 12  2  0
 12 13  1  0
 13 14  1  0
 13 15  2  0
 15 16  1  0
 16 17  1  0
 16 18  2  0
  5 19  2  0
 19 20  1  0
 20 21  1  0
 21 22  1  0
 22 23  1  0
 23 24  1  0
 24 25  1  0
 25 26  1  0
 26 27  1  0
 21 28  2  0
 28 29  1  0
 29 30  2  0
 29 31  1  0
 31 32  2  0
  2 33  1  0
 33 34  1  0
 34 35  1  0
 35 36  1  0
 36 37  1  0
 37 38  1  0
 32  3  1  0
 38 33  1  0
 10  6  1  0
 18 11  1  0
 31 19  1  0
 27 22  1  0
  4 39  1  0
  6 40  1  1
  7 41  1  0
  7 42  1  0
  8 43  1  0
  8 44  1  0
  9 45  1  0
  9 46  1  0
 12 47  1  0
 15 48  1  0
 18 49  1  0
 23 50  1  0
 23 51  1  0
 24 52  1  0
 24 53  1  0
 26 54  1  0
 26 55  1  0
 27 56  1  0
 27 57  1  0
 28 58  1  0
 32 59  1  0
 34 60  1  0
 34 61  1  0
 35 62  1  0
 35 63  1  0
 37 64  1  0
 37 65  1  0
 38 66  1  0
 38 67  1  0
M  END
$$$$
