
     RDKit          3D

 32 34  0  0  0  0  0  0  0  0999 V2000
    1.1984    3.8244   -2.2762 N   0  0  0  0  0  0  0  0  0  0  0  0
    1.0917    2.7683   -1.7605 C   0  0  0  0  0  0  0  0  0  0  0  0
    0.9657    1.4871   -1.1625 C   0  0  0  0  0  0  0  0  0  0  0  0
   -0.1720    1.0834   -0.6268 N   0  0  0  0  0  0  0  0  0  0  0  0
   -0.3858   -0.1054   -0.0427 C   0  0  0  0  0  0  0  0  0  0  0  0
   -1.6127   -0.5064    0.5192 N   0  0  0  0  0  0  0  0  0  0  0  0
   -2.7712    0.2761    0.5930 C   0  0  0  0  0  0  0  0  0  0  0  0
   -4.0003   -0.3476    0.8732 C   0  0  0  0  0  0  0  0  0  0  0  0
   -5.1689    0.3313    0.9736 C   0  0  0  0  0  0  0  0  0  0  0  0
   -6.3672   -0.2391    1.2417 F   0  0  0  0  0  0  0  0  0  0  0  0
   -5.1787    1.7129    0.7949 C   0  0  0  0  0  0  0  0  0  0  0  0
   -4.0111    2.3612    0.5218 C   0  0  0  0  0  0  0  0  0  0  0  0
   -3.9830    3.6980    0.3425 F   0  0  0  0  0  0  0  0  0  0  0  0
   -2.8285    1.6331    0.4257 C   0  0  0  0  0  0  0  0  0  0  0  0
    0.7075   -0.9639   -0.0160 C   0  0  0  0  0  0  0  0  0  0  0  0
    0.8529   -2.1867    0.4685 N   0  0  0  0  0  0  0  0  0  0  0  0
    2.1292   -2.5751    0.2327 C   0  0  0  0  0  0  0  0  0  0  0  0
    2.8010   -1.6173   -0.3956 N   0  0  0  0  0  0  0  0  0  0  0  0
    4.1605   -1.5827   -0.8415 C   0  0  0  0  0  0  0  0  0  0  0  0
    5.0912   -1.0309    0.2332 C   0  0  0  0  0  0  0  0  0  0  0  0
    5.0120   -1.8439    1.3548 F   0  0  0  0  0  0  0  0  0  0  0  0
    4.7953    0.2758    0.5363 F   0  0  0  0  0  0  0  0  0  0  0  0
    1.9157   -0.5948   -0.5588 C   0  0  0  0  0  0  0  0  0  0  0  0
    2.0232    0.6185   -1.1198 N   0  0  0  0  0  0  0  0  0  0  0  0
   -1.6554   -1.4871    0.9205 H   0  0  0  0  0  0  0  0  0  0  0  0
   -4.0242   -1.4379    1.0192 H   0  0  0  0  0  0  0  0  0  0  0  0
   -6.0825    2.3072    0.8633 H   0  0  0  0  0  0  0  0  0  0  0  0
   -1.9467    2.1939    0.2187 H   0  0  0  0  0  0  0  0  0  0  0  0
    2.5074   -3.5296    0.5270 H   0  0  0  0  0  0  0  0  0  0  0  0
    4.2480   -0.8576   -1.7048 H   0  0  0  0  0  0  0  0  0  0  0  0
    4.5678   -2.5354   -1.1978 H   0  0  0  0  0  0  0  0  0  0  0  0
    6.1210   -1.1298   -0.1653 H   0  0  0  0  0  0  0  0  0  0  0  0
  1  2  3  0
  2  3  1  0
  3  4  2  0
  4  5  1  0
  5  6  1  0
  6  7  1  0
  7  8  2  0
  8  9  1  0
  9 10  1  0
  9 11  2  0
 11 12  1  0
 12 13  1  0
 12 14  2  0
  5 15  2  0
 15 16  1  0
 16 17  2  0
 17 18  1  0
 18 19  1  0
 19 20  1  0
 20 21  1  0
 20 22  1  0
 18 23  1  0
 23 24  2  0
 24  3  1  0
 14  7  1  0
 23 15  1  0
  6 25  1  0
  8 26  1  0
 11 27  1  0
 14 28  1  0
 17 29  1  0
 19 30  1  0
 19 31  1  0
 20 32  1  0
M  END
$$$$
