
     RDKit          3D

 37 38  0  0  0  0  0  0  0  0999 V2000
   -1.9783   -1.9834   -0.5912 C   0  0  2  0  0  0  0  0  0  0  0  0
   -2.5481   -3.2304   -0.4768 O   0  0  0  0  0  0  0  0  0  0  0  0
   -0.9709   -1.6940    0.5304 C   0  0  2  0  0  0  0  0  0  0  0  0
   -1.6578   -2.0102    1.6892 O   0  0  0  0  0  0  0  0  0  0  0  0
   -0.7306   -0.2557    0.3183 C   0  0  2  0  0  0  0  0  0  0  0  0
   -0.1274    0.5195    1.2858 N   0  0  0  0  0  0  0  0  0  0  0  0
    1.1547    0.3037    1.7722 C   0  0  0  0  0  0  0  0  0  0  0  0
    2.1687    0.4051    0.6911 C   0  0  0  0  0  0  0  0  0  0  0  0
    2.5817   -0.6774   -0.0685 C   0  0  0  0  0  0  0  0  0  0  0  0
    3.5194   -0.6424   -1.0852 C   0  0  0  0  0  0  0  0  0  0  0  0
    4.0935    0.5785   -1.3668 C   0  0  0  0  0  0  0  0  0  0  0  0
    3.7147    1.6874   -0.6373 C   0  0  0  0  0  0  0  0  0  0  0  0
    2.7884    1.6146    0.3557 C   0  0  0  0  0  0  0  0  0  0  0  0
   -2.1255    0.2974    0.0423 C   0  0  1  0  0  0  0  0  0  0  0  0
   -2.0327    1.4835   -1.2984 S   0  0  0  0  0  0  0  0  0  0  0  0
   -1.0727    2.9166   -0.7390 C   0  0  0  0  0  0  0  0  0  0  0  0
   -3.0035   -0.8834   -0.2838 C   0  0  2  0  0  0  0  0  0  0  0  0
   -3.7846   -1.2241    0.8085 O   0  0  0  0  0  0  0  0  0  0  0  0
   -1.5475   -1.7480   -1.5709 H   0  0  0  0  0  0  0  0  0  0  0  0
   -3.2643   -3.2765   -1.1511 H   0  0  0  0  0  0  0  0  0  0  0  0
   -0.1273   -2.3633    0.3673 H   0  0  0  0  0  0  0  0  0  0  0  0
   -1.5785   -1.3686    2.4097 H   0  0  0  0  0  0  0  0  0  0  0  0
   -0.1578   -0.1594   -0.6408 H   0  0  0  0  0  0  0  0  0  0  0  0
   -0.7691    1.1131    1.8424 H   0  0  0  0  0  0  0  0  0  0  0  0
    1.3492   -0.5970    2.3749 H   0  0  0  0  0  0  0  0  0  0  0  0
    1.4045    1.1575    2.4699 H   0  0  0  0  0  0  0  0  0  0  0  0
    2.1419   -1.6396    0.1403 H   0  0  0  0  0  0  0  0  0  0  0  0
    3.7714   -1.5481   -1.6168 H   0  0  0  0  0  0  0  0  0  0  0  0
    4.8256    0.5847   -2.1661 H   0  0  0  0  0  0  0  0  0  0  0  0
    4.1988    2.6207   -0.9031 H   0  0  0  0  0  0  0  0  0  0  0  0
    2.4984    2.5099    0.9242 H   0  0  0  0  0  0  0  0  0  0  0  0
   -2.4929    0.7499    0.9917 H   0  0  0  0  0  0  0  0  0  0  0  0
   -0.0585    2.8146   -1.1892 H   0  0  0  0  0  0  0  0  0  0  0  0
   -1.0378    2.9817    0.3617 H   0  0  0  0  0  0  0  0  0  0  0  0
   -1.6124    3.8169   -1.1411 H   0  0  0  0  0  0  0  0  0  0  0  0
   -3.6418   -0.6507   -1.1435 H   0  0  0  0  0  0  0  0  0  0  0  0
   -3.8905   -2.2032    0.9030 H   0  0  0  0  0  0  0  0  0  0  0  0
  1  2  1  0
  1  3  1  0
  3  4  1  0
  3  5  1  0
  5  6  1  0
  6  7  1  0
  7  8  1  0
  8  9  2  0
  9 10  1  0
 10 11  2  0
 11 12  1  0
 12 13  2  0
  5 14  1  0
 14 15  1  0
 15 16  1  0
 14 17  1  0
 17 18  1  0
 17  1  1  0
 13  8  1  0
  1 19  1  6
  2 20  1  0
  3 21  1  6
  4 22  1  0
  5 23  1  6
  6 24  1  0
  7 25  1  0
  7 26  1  0
  9 27  1  0
 10 28  1  0
 11 29  1  0
 12 30  1  0
 13 31  1  0
 14 32  1  1
 16 33  1  0
 16 34  1  0
 16 35  1  0
 17 36  1  6
 18 37  1  0
M  END
$$$$
