
     RDKit          3D

 47 52  0  0  0  0  0  0  0  0999 V2000
   -5.6822    2.4101    1.9161 O   0  0  0  0  0  0  0  0  0  0  0  0
   -5.3547    1.3320    1.3222 C   0  0  0  0  0  0  0  0  0  0  0  0
   -6.1529    0.5199    0.5061 N   0  0  0  0  0  0  0  0  0  0  0  0
   -5.3724   -0.6115    0.1470 C   0  0  0  0  0  0  0  0  0  0  0  0
   -5.8090   -1.6927   -0.6213 C   0  0  0  0  0  0  0  0  0  0  0  0
   -4.9503   -2.7487   -0.8418 C   0  0  0  0  0  0  0  0  0  0  0  0
   -3.6851   -2.7084   -0.2979 C   0  0  0  0  0  0  0  0  0  0  0  0
   -3.2735   -1.6129    0.4671 C   0  0  0  0  0  0  0  0  0  0  0  0
   -4.1177   -0.5327    0.7049 C   0  0  0  0  0  0  0  0  0  0  0  0
   -3.9998    0.7252    1.4007 C   0  0  2  0  0  0  0  0  0  0  0  0
   -3.3070    0.9404    2.6868 C   0  0  0  0  0  0  0  0  0  0  0  0
   -2.8505    1.6463    1.4095 C   0  0  1  0  0  0  0  0  0  0  0  0
   -1.5089    1.4023    0.9308 C   0  0  0  0  0  0  0  0  0  0  0  0
   -0.6305    0.4767    1.4332 C   0  0  0  0  0  0  0  0  0  0  0  0
    0.6398    0.2851    0.9392 C   0  0  0  0  0  0  0  0  0  0  0  0
    1.0857    1.0541   -0.1239 C   0  0  0  0  0  0  0  0  0  0  0  0
    2.2832    1.0969   -0.8273 C   0  0  0  0  0  0  0  0  0  0  0  0
    3.4570    0.2556   -0.5768 C   0  0  0  0  0  0  0  0  0  0  0  0
    4.5575    0.3433   -1.2749 C   0  0  0  0  0  0  0  0  0  0  0  0
    5.7513   -0.4671   -1.0683 C   0  0  0  0  0  0  0  0  0  0  0  0
    5.8397   -1.4314   -0.0904 C   0  0  0  0  0  0  0  0  0  0  0  0
    7.0012   -2.1580    0.0447 C   0  0  0  0  0  0  0  0  0  0  0  0
    8.0601   -1.9523   -0.7562 N   0  0  0  0  0  0  0  0  0  0  0  0
    8.0006   -1.0169   -1.7192 C   0  0  0  0  0  0  0  0  0  0  0  0
    6.8521   -0.2760   -1.8767 C   0  0  0  0  0  0  0  0  0  0  0  0
    2.1439    2.0493   -1.7642 N   0  0  0  0  0  0  0  0  0  0  0  0
    0.9375    2.5730   -1.6588 N   0  0  0  0  0  0  0  0  0  0  0  0
    0.2449    1.9855   -0.6531 C   0  0  0  0  0  0  0  0  0  0  0  0
   -1.0209    2.1555   -0.1388 C   0  0  0  0  0  0  0  0  0  0  0  0
   -7.1632    0.7137    0.2072 H   0  0  0  0  0  0  0  0  0  0  0  0
   -6.7959   -1.7512   -1.0602 H   0  0  0  0  0  0  0  0  0  0  0  0
   -5.2928   -3.5845   -1.4382 H   0  0  0  0  0  0  0  0  0  0  0  0
   -3.0066   -3.5480   -0.4740 H   0  0  0  0  0  0  0  0  0  0  0  0
   -2.2686   -1.6746    0.8614 H   0  0  0  0  0  0  0  0  0  0  0  0
   -2.6842    0.1903    3.1662 H   0  0  0  0  0  0  0  0  0  0  0  0
   -3.8223    1.5903    3.4538 H   0  0  0  0  0  0  0  0  0  0  0  0
   -3.2039    2.7345    1.3121 H   0  0  0  0  0  0  0  0  0  0  0  0
   -0.9171   -0.1571    2.2641 H   0  0  0  0  0  0  0  0  0  0  0  0
    1.3283   -0.4547    1.3483 H   0  0  0  0  0  0  0  0  0  0  0  0
    3.3961   -0.4625    0.2209 H   0  0  0  0  0  0  0  0  0  0  0  0
    4.5557    1.0917   -2.0705 H   0  0  0  0  0  0  0  0  0  0  0  0
    5.0153   -1.6257    0.5695 H   0  0  0  0  0  0  0  0  0  0  0  0
    7.1087   -2.9352    0.8129 H   0  0  0  0  0  0  0  0  0  0  0  0
    8.8871   -0.8809   -2.3512 H   0  0  0  0  0  0  0  0  0  0  0  0
    6.8524    0.4653   -2.6660 H   0  0  0  0  0  0  0  0  0  0  0  0
    0.5228    3.3420   -2.2493 H   0  0  0  0  0  0  0  0  0  0  0  0
   -1.6508    2.9041   -0.5893 H   0  0  0  0  0  0  0  0  0  0  0  0
  1  2  2  0
  2  3  1  0
  3  4  1  0
  4  5  2  0
  5  6  1  0
  6  7  2  0
  7  8  1  0
  8  9  2  0
  9 10  1  0
 10 11  1  1
 11 12  1  0
 12 13  1  0
 13 14  2  0
 14 15  1  0
 15 16  2  0
 16 17  1  0
 17 18  1  0
 18 19  2  0
 19 20  1  0
 20 21  2  0
 21 22  1  0
 22 23  2  0
 23 24  1  0
 24 25  2  0
 17 26  2  0
 26 27  1  0
 27 28  1  0
 28 29  2  0
 10  2  1  0
 29 13  1  0
  9  4  1  0
 12 10  1  0
 28 16  1  0
 25 20  1  0
  3 30  1  0
  5 31  1  0
  6 32  1  0
  7 33  1  0
  8 34  1  0
 11 35  1  0
 11 36  1  0
 12 37  1  1
 14 38  1  0
 15 39  1  0
 18 40  1  0
 19 41  1  0
 21 42  1  0
 22 43  1  0
 24 44  1  0
 25 45  1  0
 27 46  1  0
 29 47  1  0
M  END
$$$$
