
     RDKit          3D

 52 54  0  0  0  0  0  0  0  0999 V2000
    0.1154   -3.3859    0.0014 C   0  0  0  0  0  0  0  0  0  0  0  0
   -1.1312   -3.1805   -0.2856 C   0  0  0  0  0  0  0  0  0  0  0  0
   -1.8578   -4.2879   -1.0086 C   0  0  0  0  0  0  0  0  0  0  0  0
   -1.8334   -1.9564   -0.0288 C   0  0  0  0  0  0  0  0  0  0  0  0
   -3.2467   -2.0703   -0.0282 C   0  0  0  0  0  0  0  0  0  0  0  0
   -3.9881   -0.9837    0.2176 N   0  0  0  0  0  0  0  0  0  0  0  0
   -3.4481    0.2211    0.4660 C   0  0  0  0  0  0  0  0  0  0  0  0
   -4.3365    1.3659    0.7285 C   0  0  0  0  0  0  0  0  0  0  0  0
   -3.8699    2.6172    0.9979 C   0  0  0  0  0  0  0  0  0  0  0  0
   -4.7645    3.6596    1.2353 C   0  0  0  0  0  0  0  0  0  0  0  0
   -4.1758    5.2779    1.5837 Cl  0  0  0  0  0  0  0  0  0  0  0  0
   -6.1245    3.4510    1.2033 C   0  0  0  0  0  0  0  0  0  0  0  0
   -6.5965    2.1827    0.9302 C   0  0  0  0  0  0  0  0  0  0  0  0
   -5.7062    1.1682    0.6990 C   0  0  0  0  0  0  0  0  0  0  0  0
   -6.1963   -0.0835    0.4298 F   0  0  0  0  0  0  0  0  0  0  0  0
   -2.0779    0.3377    0.4638 C   0  0  0  0  0  0  0  0  0  0  0  0
   -1.2478   -0.7515    0.2129 C   0  0  0  0  0  0  0  0  0  0  0  0
    0.1813   -0.5287    0.1622 N   0  0  0  0  0  0  0  0  0  0  0  0
    0.8634   -0.6736   -1.0809 C   0  0  0  0  0  0  0  0  0  0  0  0
    0.1410   -0.9822   -2.1956 N   0  0  0  0  0  0  0  0  0  0  0  0
    0.6743   -1.1481   -3.4104 C   0  0  0  0  0  0  0  0  0  0  0  0
    2.0031   -0.9935   -3.4972 N   0  0  0  0  0  0  0  0  0  0  0  0
    2.7996   -0.6887   -2.4523 C   0  0  0  0  0  0  0  0  0  0  0  0
    2.2124   -0.5196   -1.1860 C   0  0  0  0  0  0  0  0  0  0  0  0
    3.0519   -0.1755   -0.0443 C   0  0  0  0  0  0  0  0  0  0  0  0
    2.6074    0.0496    1.1171 O   0  0  0  0  0  0  0  0  0  0  0  0
    4.4754   -0.0644   -0.1544 N   0  0  0  0  0  0  0  0  0  0  0  0
    5.3426    0.2891    0.9630 C   0  0  0  0  0  0  0  0  0  0  0  0
    5.0192    1.6687    1.4667 C   0  0  2  0  0  0  0  0  0  0  0  0
    5.2467    2.6299    0.3119 C   0  0  0  0  0  0  0  0  0  0  0  0
    5.8409    2.0350    2.5321 O   0  0  0  0  0  0  0  0  0  0  0  0
    0.5583   -4.3633   -0.3127 H   0  0  0  0  0  0  0  0  0  0  0  0
    0.7881   -2.7418    0.5571 H   0  0  0  0  0  0  0  0  0  0  0  0
   -1.1336   -4.8847   -1.5762 H   0  0  0  0  0  0  0  0  0  0  0  0
   -2.3882   -4.9298   -0.2649 H   0  0  0  0  0  0  0  0  0  0  0  0
   -2.6186   -3.8898   -1.6920 H   0  0  0  0  0  0  0  0  0  0  0  0
   -3.7310   -3.0201   -0.2222 H   0  0  0  0  0  0  0  0  0  0  0  0
   -2.8018    2.8185    1.0313 H   0  0  0  0  0  0  0  0  0  0  0  0
   -6.8306    4.2465    1.3845 H   0  0  0  0  0  0  0  0  0  0  0  0
   -7.6851    2.0090    0.9027 H   0  0  0  0  0  0  0  0  0  0  0  0
   -1.5955    1.2743    0.6555 H   0  0  0  0  0  0  0  0  0  0  0  0
    0.5800   -0.2773    1.0656 H   0  0  0  0  0  0  0  0  0  0  0  0
    0.1149   -1.3903   -4.2913 H   0  0  0  0  0  0  0  0  0  0  0  0
    3.8591   -0.5741   -2.5783 H   0  0  0  0  0  0  0  0  0  0  0  0
    4.8929   -0.2532   -1.0901 H   0  0  0  0  0  0  0  0  0  0  0  0
    5.2879   -0.4707    1.7713 H   0  0  0  0  0  0  0  0  0  0  0  0
    6.3733    0.3144    0.5944 H   0  0  0  0  0  0  0  0  0  0  0  0
    3.9541    1.7296    1.7208 H   0  0  0  0  0  0  0  0  0  0  0  0
    4.5856    2.3968   -0.5275 H   0  0  0  0  0  0  0  0  0  0  0  0
    5.0409    3.6581    0.6415 H   0  0  0  0  0  0  0  0  0  0  0  0
    6.3137    2.5800   -0.0071 H   0  0  0  0  0  0  0  0  0  0  0  0
    6.4620    1.2882    2.6937 H   0  0  0  0  0  0  0  0  0  0  0  0
  1  2  2  3
  2  3  1  0
  2  4  1  0
  4  5  2  0
  5  6  1  0
  6  7  2  0
  7  8  1  0
  8  9  2  0
  9 10  1  0
 10 11  1  0
 10 12  2  0
 12 13  1  0
 13 14  2  0
 14 15  1  0
  7 16  1  0
 16 17  2  0
 17 18  1  0
 18 19  1  0
 19 20  2  0
 20 21  1  0
 21 22  2  0
 22 23  1  0
 23 24  2  0
 24 25  1  0
 25 26  2  0
 25 27  1  0
 27 28  1  0
 28 29  1  0
 29 30  1  0
 29 31  1  0
 17  4  1  0
 24 19  1  0
 14  8  1  0
  1 32  1  0
  1 33  1  0
  3 34  1  0
  3 35  1  0
  3 36  1  0
  5 37  1  0
  9 38  1  0
 12 39  1  0
 13 40  1  0
 16 41  1  0
 18 42  1  0
 21 43  1  0
 23 44  1  0
 27 45  1  0
 28 46  1  0
 28 47  1  0
 29 48  1  1
 30 49  1  0
 30 50  1  0
 30 51  1  0
 31 52  1  0
M  END
$$$$
