
     RDKit          3D

 38 41  0  0  0  0  0  0  0  0999 V2000
   -3.6071   -0.2938   -1.0672 F   0  0  0  0  0  0  0  0  0  0  0  0
   -3.0091   -1.2157   -0.2509 C   0  0  0  0  0  0  0  0  0  0  0  0
   -3.3594   -2.5415   -0.3726 C   0  0  0  0  0  0  0  0  0  0  0  0
   -2.7590   -3.4863    0.4507 C   0  0  0  0  0  0  0  0  0  0  0  0
   -1.8270   -3.0417    1.3636 C   0  0  0  0  0  0  0  0  0  0  0  0
   -1.0567   -4.2072    2.4112 Cl  0  0  0  0  0  0  0  0  0  0  0  0
   -1.4628   -1.7234    1.5017 C   0  0  0  0  0  0  0  0  0  0  0  0
   -2.0606   -0.7895    0.6832 C   0  0  0  0  0  0  0  0  0  0  0  0
   -1.7038    0.6041    0.7991 C   0  0  0  0  0  0  0  0  0  0  0  0
   -2.5145    1.6272    1.1253 N   0  0  0  0  0  0  0  0  0  0  0  0
   -1.8314    2.7849    1.1350 C   0  0  0  0  0  0  0  0  0  0  0  0
   -0.5403    2.4936    0.8040 N   0  0  0  0  0  0  0  0  0  0  0  0
    0.5535    3.4215    0.6880 C   0  0  0  0  0  0  0  0  0  0  0  0
    0.6885    3.9864   -0.7165 C   0  0  0  0  0  0  0  0  0  0  0  0
    1.7723    4.8562   -0.6782 F   0  0  0  0  0  0  0  0  0  0  0  0
   -0.4599    4.6015   -1.1102 F   0  0  0  0  0  0  0  0  0  0  0  0
   -0.4424    1.1682    0.5952 C   0  0  0  0  0  0  0  0  0  0  0  0
    0.7034    0.3697    0.2243 C   0  0  0  0  0  0  0  0  0  0  0  0
    1.7930    0.2865    1.0529 C   0  0  0  0  0  0  0  0  0  0  0  0
    2.9027   -0.4887    0.6863 C   0  0  0  0  0  0  0  0  0  0  0  0
    2.8759   -1.1605   -0.5153 C   0  0  0  0  0  0  0  0  0  0  0  0
    3.8228   -1.9527   -1.0576 N   0  0  0  0  0  0  0  0  0  0  0  0
    3.3341   -2.3763   -2.2375 C   0  0  0  0  0  0  0  0  0  0  0  0
    2.0771   -1.8341   -2.4108 C   0  0  0  0  0  0  0  0  0  0  0  0
    1.8032   -1.0689   -1.3140 N   0  0  0  0  0  0  0  0  0  0  0  0
    0.7446   -0.3232   -0.9534 C   0  0  0  0  0  0  0  0  0  0  0  0
   -4.0865   -2.8503   -1.0919 H   0  0  0  0  0  0  0  0  0  0  0  0
   -3.0484   -4.5095    0.3364 H   0  0  0  0  0  0  0  0  0  0  0  0
   -0.7335   -1.3740    2.2155 H   0  0  0  0  0  0  0  0  0  0  0  0
   -2.2017    3.7816    1.3586 H   0  0  0  0  0  0  0  0  0  0  0  0
    1.4964    2.8828    0.9044 H   0  0  0  0  0  0  0  0  0  0  0  0
    0.4474    4.2944    1.3620 H   0  0  0  0  0  0  0  0  0  0  0  0
    0.8931    3.1475   -1.4274 H   0  0  0  0  0  0  0  0  0  0  0  0
    1.8721    0.7888    2.0059 H   0  0  0  0  0  0  0  0  0  0  0  0
    3.7524   -0.5562    1.3280 H   0  0  0  0  0  0  0  0  0  0  0  0
    3.8480   -3.0319   -2.9275 H   0  0  0  0  0  0  0  0  0  0  0  0
    1.4067   -1.9695   -3.2479 H   0  0  0  0  0  0  0  0  0  0  0  0
   -0.0833   -0.2997   -1.6524 H   0  0  0  0  0  0  0  0  0  0  0  0
  1  2  1  0
  2  3  2  0
  3  4  1  0
  4  5  2  0
  5  6  1  0
  5  7  1  0
  7  8  2  0
  8  9  1  0
  9 10  1  0
 10 11  2  0
 11 12  1  0
 12 13  1  0
 13 14  1  0
 14 15  1  0
 14 16  1  0
 12 17  1  0
 17 18  1  0
 18 19  1  0
 19 20  2  0
 20 21  1  0
 21 22  2  0
 22 23  1  0
 23 24  2  0
 24 25  1  0
 25 26  1  0
  8  2  1  0
 17  9  2  0
 26 18  2  0
 25 21  1  0
  3 27  1  0
  4 28  1  0
  7 29  1  0
 11 30  1  0
 13 31  1  0
 13 32  1  0
 14 33  1  0
 19 34  1  0
 20 35  1  0
 23 36  1  0
 24 37  1  0
 26 38  1  0
M  END
$$$$
