
     RDKit          3D

 53 56  0  0  0  0  0  0  0  0999 V2000
   -5.0570   -1.7127   -0.4885 O   0  0  0  0  0  0  0  0  0  0  0  0
   -5.6345   -1.5113    0.7531 C   0  0  0  0  0  0  0  0  0  0  0  0
   -5.2655   -0.1544    1.3308 C   0  0  1  0  0  0  0  0  0  0  0  0
   -3.9183   -0.0319    1.4818 O   0  0  0  0  0  0  0  0  0  0  0  0
   -3.4852    1.2372    1.1212 C   0  0  2  0  0  0  0  0  0  0  0  0
   -4.7455    2.0644    0.9377 C   0  0  2  0  0  0  0  0  0  0  0  0
   -5.3064    2.4372    2.1660 O   0  0  0  0  0  0  0  0  0  0  0  0
   -5.6521    0.9549    0.3794 C   0  0  2  0  0  0  0  0  0  0  0  0
   -6.9862    1.2967    0.4225 O   0  0  0  0  0  0  0  0  0  0  0  0
   -2.8084    1.2007   -0.1661 N   0  0  0  0  0  0  0  0  0  0  0  0
   -3.0453    1.7937   -1.3452 C   0  0  0  0  0  0  0  0  0  0  0  0
   -2.1399    1.4468   -2.2771 N   0  0  0  0  0  0  0  0  0  0  0  0
   -1.2697    0.5903   -1.6880 C   0  0  0  0  0  0  0  0  0  0  0  0
   -0.1698   -0.0443   -2.2203 C   0  0  0  0  0  0  0  0  0  0  0  0
    0.2073    0.1512   -3.5747 N   0  0  0  0  0  0  0  0  0  0  0  0
    0.4791   -0.8371   -1.3471 N   0  0  0  0  0  0  0  0  0  0  0  0
    0.0823   -0.9953   -0.0539 C   0  0  0  0  0  0  0  0  0  0  0  0
    0.9850   -1.8988    0.5846 N   0  0  0  0  0  0  0  0  0  0  0  0
    2.1036   -1.1136    0.9764 N   0  0  0  0  0  0  0  0  0  0  0  0
    2.9806   -0.8425    0.0516 C   0  0  0  0  0  0  0  0  0  0  0  0
    4.2337   -0.0550    0.1592 C   0  0  0  0  0  0  0  0  0  0  0  0
    4.9331   -0.1990    1.4751 C   0  0  0  0  0  0  0  0  0  0  0  0
    6.1555    0.7225    1.4177 C   0  0  0  0  0  0  0  0  0  0  0  0
    7.1490    0.0981    0.4850 C   0  0  0  0  0  0  0  0  0  0  0  0
    6.5384   -0.8135   -0.5331 C   0  0  0  0  0  0  0  0  0  0  0  0
    5.1736   -0.3886   -0.9768 C   0  0  0  0  0  0  0  0  0  0  0  0
   -1.0028   -0.3625    0.4511 N   0  0  0  0  0  0  0  0  0  0  0  0
   -1.7015    0.4461   -0.3645 C   0  0  0  0  0  0  0  0  0  0  0  0
   -5.7969   -1.7544   -1.1413 H   0  0  0  0  0  0  0  0  0  0  0  0
   -5.2985   -2.2866    1.4706 H   0  0  0  0  0  0  0  0  0  0  0  0
   -6.7552   -1.5848    0.7158 H   0  0  0  0  0  0  0  0  0  0  0  0
   -5.7986    0.0358    2.2789 H   0  0  0  0  0  0  0  0  0  0  0  0
   -2.8025    1.6424    1.8815 H   0  0  0  0  0  0  0  0  0  0  0  0
   -4.6530    2.9013    0.2546 H   0  0  0  0  0  0  0  0  0  0  0  0
   -4.7766    3.1344    2.6288 H   0  0  0  0  0  0  0  0  0  0  0  0
   -5.2717    0.7576   -0.6546 H   0  0  0  0  0  0  0  0  0  0  0  0
   -7.2542    1.5156   -0.5265 H   0  0  0  0  0  0  0  0  0  0  0  0
   -3.8616    2.4703   -1.5360 H   0  0  0  0  0  0  0  0  0  0  0  0
   -0.5004   -0.1787   -4.2650 H   0  0  0  0  0  0  0  0  0  0  0  0
    1.1455    0.5969   -3.5147 H   0  0  0  0  0  0  0  0  0  0  0  0
    0.9516   -2.9277    0.7827 H   0  0  0  0  0  0  0  0  0  0  0  0
    2.7792   -1.2457   -0.9555 H   0  0  0  0  0  0  0  0  0  0  0  0
    3.9563    1.0333    0.0693 H   0  0  0  0  0  0  0  0  0  0  0  0
    5.2774   -1.2612    1.6131 H   0  0  0  0  0  0  0  0  0  0  0  0
    4.2437    0.1104    2.2897 H   0  0  0  0  0  0  0  0  0  0  0  0
    5.7883    1.6688    0.9305 H   0  0  0  0  0  0  0  0  0  0  0  0
    6.5258    0.9011    2.4377 H   0  0  0  0  0  0  0  0  0  0  0  0
    7.6597    0.9240   -0.0792 H   0  0  0  0  0  0  0  0  0  0  0  0
    7.8855   -0.4935    1.0717 H   0  0  0  0  0  0  0  0  0  0  0  0
    6.5641   -1.8835   -0.2096 H   0  0  0  0  0  0  0  0  0  0  0  0
    7.1809   -0.7938   -1.4606 H   0  0  0  0  0  0  0  0  0  0  0  0
    5.2430    0.4258   -1.7036 H   0  0  0  0  0  0  0  0  0  0  0  0
    4.7351   -1.2567   -1.5363 H   0  0  0  0  0  0  0  0  0  0  0  0
  1  2  1  0
  2  3  1  0
  3  4  1  0
  4  5  1  0
  5  6  1  0
  6  7  1  0
  6  8  1  0
  8  9  1  0
  5 10  1  0
 10 11  1  0
 11 12  2  0
 12 13  1  0
 13 14  2  0
 14 15  1  0
 14 16  1  0
 16 17  2  0
 17 18  1  0
 18 19  1  0
 19 20  2  0
 20 21  1  0
 21 22  1  0
 22 23  1  0
 23 24  1  0
 24 25  1  0
 25 26  1  0
 17 27  1  0
 27 28  2  0
  8  3  1  0
 28 10  1  0
 28 13  1  0
 26 21  1  0
  1 29  1  0
  2 30  1  0
  2 31  1  0
  3 32  1  1
  5 33  1  1
  6 34  1  6
  7 35  1  0
  8 36  1  6
  9 37  1  0
 11 38  1  0
 15 39  1  0
 15 40  1  0
 18 41  1  0
 20 42  1  0
 21 43  1  0
 22 44  1  0
 22 45  1  0
 23 46  1  0
 23 47  1  0
 24 48  1  0
 24 49  1  0
 25 50  1  0
 25 51  1  0
 26 52  1  0
 26 53  1  0
M  END
$$$$
