
     RDKit          3D

 54 56  0  0  0  0  0  0  0  0999 V2000
   -2.3538   -1.6982    1.3346 C   0  0  0  0  0  0  0  0  0  0  0  0
   -1.9896   -0.2807    0.9660 C   0  0  0  0  0  0  0  0  0  0  0  0
   -0.7458   -0.1867    0.2641 N   0  0  0  0  0  0  0  0  0  0  0  0
    0.3757    0.5635    0.7120 C   0  0  0  0  0  0  0  0  0  0  0  0
    0.2849    1.1924    1.7948 O   0  0  0  0  0  0  0  0  0  0  0  0
    1.6347    0.6436   -0.0220 C   0  0  0  0  0  0  0  0  0  0  0  0
    2.4219   -0.4627   -0.2604 C   0  0  0  0  0  0  0  0  0  0  0  0
    3.6200   -0.3686   -0.9623 C   0  0  0  0  0  0  0  0  0  0  0  0
    4.0756    0.8365   -1.4519 C   0  0  0  0  0  0  0  0  0  0  0  0
    5.2620    0.9847   -2.1582 O   0  0  0  0  0  0  0  0  0  0  0  0
    6.1658   -0.0168   -2.4763 C   0  0  0  0  0  0  0  0  0  0  0  0
    6.7677   -0.6999   -1.2954 C   0  0  0  0  0  0  0  0  0  0  0  0
    6.6452   -0.1826   -0.0250 C   0  0  0  0  0  0  0  0  0  0  0  0
    7.1968   -0.7855    1.0827 C   0  0  0  0  0  0  0  0  0  0  0  0
    7.9035   -1.9634    0.8989 C   0  0  0  0  0  0  0  0  0  0  0  0
    7.9925   -2.4318   -0.3906 C   0  0  0  0  0  0  0  0  0  0  0  0
    7.4528   -1.8374   -1.4569 N   0  0  0  0  0  0  0  0  0  0  0  0
    3.2716    1.9430   -1.2040 C   0  0  0  0  0  0  0  0  0  0  0  0
    3.7566    3.2537   -1.7308 C   0  0  0  0  0  0  0  0  0  0  0  0
    4.9810    3.4938   -1.1392 F   0  0  0  0  0  0  0  0  0  0  0  0
    2.8630    4.2607   -1.4558 F   0  0  0  0  0  0  0  0  0  0  0  0
    3.9482    3.1282   -3.1088 F   0  0  0  0  0  0  0  0  0  0  0  0
    2.0838    1.8527   -0.5089 C   0  0  0  0  0  0  0  0  0  0  0  0
    1.1023    3.2718   -0.2185 Cl  0  0  0  0  0  0  0  0  0  0  0  0
   -3.0745    0.2570    0.1267 C   0  0  0  0  0  0  0  0  0  0  0  0
   -2.8595    0.7152   -1.0228 O   0  0  0  0  0  0  0  0  0  0  0  0
   -4.4619    0.2703    0.6247 C   0  0  0  0  0  0  0  0  0  0  0  0
   -4.7345   -0.1782    1.7736 O   0  0  0  0  0  0  0  0  0  0  0  0
   -5.5317    0.7740   -0.1413 N   0  0  0  0  0  0  0  0  0  0  0  0
   -6.8718    0.7842    0.3452 C   0  0  0  0  0  0  0  0  0  0  0  0
   -7.4620    1.8076    1.0552 C   0  0  0  0  0  0  0  0  0  0  0  0
   -8.7635    1.4677    1.3584 C   0  0  0  0  0  0  0  0  0  0  0  0
   -8.9350    0.2402    0.8232 N   0  0  0  0  0  0  0  0  0  0  0  0
  -10.1969   -0.4847    0.9252 C   0  0  0  0  0  0  0  0  0  0  0  0
   -7.8170   -0.1611    0.2257 N   0  0  0  0  0  0  0  0  0  0  0  0
   -2.9400   -2.2063    0.5344 H   0  0  0  0  0  0  0  0  0  0  0  0
   -1.4365   -2.3261    1.5210 H   0  0  0  0  0  0  0  0  0  0  0  0
   -2.9541   -1.7180    2.2641 H   0  0  0  0  0  0  0  0  0  0  0  0
   -1.9144    0.3189    1.8932 H   0  0  0  0  0  0  0  0  0  0  0  0
   -0.6066   -0.6966   -0.6596 H   0  0  0  0  0  0  0  0  0  0  0  0
    2.0977   -1.4152    0.1062 H   0  0  0  0  0  0  0  0  0  0  0  0
    4.2295   -1.2583   -1.1461 H   0  0  0  0  0  0  0  0  0  0  0  0
    7.0023    0.4473   -3.0403 H   0  0  0  0  0  0  0  0  0  0  0  0
    5.7421   -0.7882   -3.1835 H   0  0  0  0  0  0  0  0  0  0  0  0
    6.0802    0.7491    0.0718 H   0  0  0  0  0  0  0  0  0  0  0  0
    7.0859   -0.3544    2.0851 H   0  0  0  0  0  0  0  0  0  0  0  0
    8.3564   -2.4839    1.7097 H   0  0  0  0  0  0  0  0  0  0  0  0
    8.5520   -3.3637   -0.5342 H   0  0  0  0  0  0  0  0  0  0  0  0
   -5.3082    1.1508   -1.1045 H   0  0  0  0  0  0  0  0  0  0  0  0
   -7.0162    2.7461    1.3510 H   0  0  0  0  0  0  0  0  0  0  0  0
   -9.5052    2.0489    1.9081 H   0  0  0  0  0  0  0  0  0  0  0  0
   -9.9283   -1.5750    1.0309 H   0  0  0  0  0  0  0  0  0  0  0  0
  -10.7204   -0.2163    1.8682 H   0  0  0  0  0  0  0  0  0  0  0  0
  -10.8246   -0.3096    0.0424 H   0  0  0  0  0  0  0  0  0  0  0  0
  1  2  1  0
  2  3  1  0
  3  4  1  0
  4  5  2  0
  4  6  1  0
  6  7  2  0
  7  8  1  0
  8  9  2  0
  9 10  1  0
 10 11  1  0
 11 12  1  0
 12 13  2  0
 13 14  1  0
 14 15  2  0
 15 16  1  0
 16 17  2  0
  9 18  1  0
 18 19  1  0
 19 20  1  0
 19 21  1  0
 19 22  1  0
 18 23  2  0
 23 24  1  0
  2 25  1  0
 25 26  2  0
 25 27  1  0
 27 28  2  0
 27 29  1  0
 29 30  1  0
 30 31  1  0
 31 32  2  0
 32 33  1  0
 33 34  1  0
 33 35  1  0
 23  6  1  0
 35 30  2  0
 17 12  1  0
  1 36  1  0
  1 37  1  0
  1 38  1  0
  2 39  1  0
  3 40  1  0
  7 41  1  0
  8 42  1  0
 11 43  1  0
 11 44  1  0
 13 45  1  0
 14 46  1  0
 15 47  1  0
 16 48  1  0
 29 49  1  0
 31 50  1  0
 32 51  1  0
 34 52  1  0
 34 53  1  0
 34 54  1  0
M  END
$$$$
