
     RDKit          3D

 78 82  0  0  0  0  0  0  0  0999 V2000
   12.9120    0.0061    0.4955 N   0  0  0  0  0  0  0  0  0  0  0  0
   11.7201    0.4464   -0.1345 C   0  0  0  0  0  0  0  0  0  0  0  0
   11.9226    1.1585   -1.1728 O   0  0  0  0  0  0  0  0  0  0  0  0
   10.3740    0.1340    0.3326 C   0  0  0  0  0  0  0  0  0  0  0  0
    9.3734    0.6283   -0.3777 C   0  0  0  0  0  0  0  0  0  0  0  0
    8.0611    0.3105    0.0968 N   0  0  0  0  0  0  0  0  0  0  0  0
    7.7870   -0.4722    1.2387 C   0  0  0  0  0  0  0  0  0  0  0  0
    8.8581   -0.9156    1.8743 C   0  0  0  0  0  0  0  0  0  0  0  0
   10.2913   -0.7021    1.5503 C   0  0  0  0  0  0  0  0  0  0  0  0
    6.9511    0.8451   -0.6710 C   0  0  2  0  0  0  0  0  0  0  0  0
    5.7241    0.4646   -0.1904 O   0  0  0  0  0  0  0  0  0  0  0  0
    4.9085    0.1653   -1.2543 C   0  0  2  0  0  0  0  0  0  0  0  0
    3.7326   -0.6865   -0.8265 C   0  0  0  0  0  0  0  0  0  0  0  0
    3.0106    0.0342    0.1225 O   0  0  0  0  0  0  0  0  0  0  0  0
    1.6688   -0.8290    0.6701 P   0  0  0  0  0  0  0  0  0  0  0  0
    1.4488   -0.5747    2.3252 O   0  0  0  0  0  0  0  0  0  0  0  0
    1.8581   -2.3128    0.4415 O   0  0  0  0  0  0  0  0  0  0  0  0
    0.2529   -0.3930   -0.1220 O   0  0  0  0  0  0  0  0  0  0  0  0
   -0.6973    0.6660    0.7544 P   0  0  0  0  0  0  0  0  0  0  0  0
   -1.0100    2.0526   -0.1850 O   0  0  0  0  0  0  0  0  0  0  0  0
    0.0341    1.0420    2.0185 O   0  0  0  0  0  0  0  0  0  0  0  0
   -2.2351   -0.0046    1.0863 O   0  0  0  0  0  0  0  0  0  0  0  0
   -2.9213   -0.0954   -0.0979 C   0  0  0  0  0  0  0  0  0  0  0  0
   -4.3064   -0.6786    0.0655 C   0  0  1  0  0  0  0  0  0  0  0  0
   -5.1065    0.0838    0.9190 O   0  0  0  0  0  0  0  0  0  0  0  0
   -6.3787   -0.4684    0.6444 C   0  0  2  0  0  0  0  0  0  0  0  0
   -6.4293   -0.2126   -0.8653 C   0  0  2  0  0  0  0  0  0  0  0  0
   -7.3751   -0.9721   -1.5091 O   0  0  0  0  0  0  0  0  0  0  0  0
   -8.4378   -0.0245   -2.4213 P   0  0  0  0  0  0  0  0  0  0  0  0
   -7.9308    1.5808   -2.5339 O   0  0  0  0  0  0  0  0  0  0  0  0
   -8.5534   -0.6428   -3.9954 O   0  0  0  0  0  0  0  0  0  0  0  0
   -9.8089   -0.1333   -1.8026 O   0  0  0  0  0  0  0  0  0  0  0  0
   -5.0430   -0.7410   -1.2530 C   0  0  2  0  0  0  0  0  0  0  0  0
   -5.1676   -2.0521   -1.7115 O   0  0  0  0  0  0  0  0  0  0  0  0
   -7.4354    0.1862    1.3504 N   0  0  0  0  0  0  0  0  0  0  0  0
   -7.5236    1.4949    1.5642 C   0  0  0  0  0  0  0  0  0  0  0  0
   -8.6358    1.7806    2.2574 N   0  0  0  0  0  0  0  0  0  0  0  0
   -9.2757    0.6394    2.4950 C   0  0  0  0  0  0  0  0  0  0  0  0
   -8.5287   -0.3755    1.9278 C   0  0  0  0  0  0  0  0  0  0  0  0
   -8.9509   -1.6542    2.0196 N   0  0  0  0  0  0  0  0  0  0  0  0
  -10.1070   -1.9729    2.6642 C   0  0  0  0  0  0  0  0  0  0  0  0
  -10.8565   -0.9906    3.2289 N   0  0  0  0  0  0  0  0  0  0  0  0
  -10.4548    0.3013    3.1508 C   0  0  0  0  0  0  0  0  0  0  0  0
  -11.1692    1.3979    3.7088 N   0  0  0  0  0  0  0  0  0  0  0  0
    5.8624   -0.6232   -2.1410 C   0  0  1  0  0  0  0  0  0  0  0  0
    5.3987   -0.8034   -3.4224 O   0  0  0  0  0  0  0  0  0  0  0  0
    7.0902    0.2748   -2.0694 C   0  0  1  0  0  0  0  0  0  0  0  0
    6.9036    1.3106   -2.9836 O   0  0  0  0  0  0  0  0  0  0  0  0
   13.4452    0.7295    1.0405 H   0  0  0  0  0  0  0  0  0  0  0  0
   13.4738    0.6933    1.0483 H   0  0  0  0  0  0  0  0  0  0  0  0
    9.5496    1.2291   -1.2538 H   0  0  0  0  0  0  0  0  0  0  0  0
    6.8050   -0.7093    1.5928 H   0  0  0  0  0  0  0  0  0  0  0  0
    8.8131   -1.5244    2.7608 H   0  0  0  0  0  0  0  0  0  0  0  0
   10.8192   -0.2378    2.4105 H   0  0  0  0  0  0  0  0  0  0  0  0
   10.7474   -1.6919    1.2784 H   0  0  0  0  0  0  0  0  0  0  0  0
    7.0085    1.9515   -0.7099 H   0  0  0  0  0  0  0  0  0  0  0  0
    4.5749    1.0439   -1.8235 H   0  0  0  0  0  0  0  0  0  0  0  0
    4.0774   -1.6707   -0.4534 H   0  0  0  0  0  0  0  0  0  0  0  0
    3.0458   -0.8166   -1.6976 H   0  0  0  0  0  0  0  0  0  0  0  0
    0.6986   -1.1090    2.6504 H   0  0  0  0  0  0  0  0  0  0  0  0
   -1.2198    1.7521   -1.1051 H   0  0  0  0  0  0  0  0  0  0  0  0
   -2.9980    0.8579   -0.6520 H   0  0  0  0  0  0  0  0  0  0  0  0
   -2.3774   -0.7900   -0.7783 H   0  0  0  0  0  0  0  0  0  0  0  0
   -4.2792   -1.7032    0.4873 H   0  0  0  0  0  0  0  0  0  0  0  0
   -6.3141   -1.5457    0.8537 H   0  0  0  0  0  0  0  0  0  0  0  0
   -6.5077    0.8607   -1.0376 H   0  0  0  0  0  0  0  0  0  0  0  0
   -8.3901    2.0720   -1.8094 H   0  0  0  0  0  0  0  0  0  0  0  0
   -8.6929    0.0715   -4.6718 H   0  0  0  0  0  0  0  0  0  0  0  0
   -4.5898   -0.0704   -2.0112 H   0  0  0  0  0  0  0  0  0  0  0  0
   -4.5613   -2.6619   -1.2128 H   0  0  0  0  0  0  0  0  0  0  0  0
   -6.8769    2.3147    1.2829 H   0  0  0  0  0  0  0  0  0  0  0  0
  -10.5009   -2.9742    2.7736 H   0  0  0  0  0  0  0  0  0  0  0  0
  -11.0494    1.9567    4.5887 H   0  0  0  0  0  0  0  0  0  0  0  0
  -11.9629    1.6612    3.0772 H   0  0  0  0  0  0  0  0  0  0  0  0
    6.1461   -1.5673   -1.6363 H   0  0  0  0  0  0  0  0  0  0  0  0
    4.9158   -1.6672   -3.4394 H   0  0  0  0  0  0  0  0  0  0  0  0
    8.0283   -0.2788   -2.2302 H   0  0  0  0  0  0  0  0  0  0  0  0
    6.3666    2.0432   -2.6100 H   0  0  0  0  0  0  0  0  0  0  0  0
  1  2  1  0
  2  3  2  0
  2  4  1  0
  4  5  2  0
  5  6  1  0
  6  7  1  0
  7  8  2  0
  8  9  1  0
  6 10  1  0
 10 11  1  0
 11 12  1  0
 12 13  1  0
 13 14  1  0
 14 15  1  0
 15 16  1  0
 15 17  2  0
 15 18  1  0
 18 19  1  0
 19 20  1  0
 19 21  2  0
 19 22  1  0
 22 23  1  0
 23 24  1  0
 24 25  1  0
 25 26  1  0
 26 27  1  0
 27 28  1  0
 28 29  1  0
 29 30  1  0
 29 31  1  0
 29 32  2  0
 27 33  1  0
 33 34  1  0
 26 35  1  0
 35 36  1  0
 36 37  2  0
 37 38  1  0
 38 39  2  0
 39 40  1  0
 40 41  2  0
 41 42  1  0
 42 43  2  0
 43 44  1  0
 12 45  1  0
 45 46  1  0
 45 47  1  0
 47 48  1  0
  9  4  1  0
 47 10  1  0
 33 24  1  0
 39 35  1  0
 43 38  1  0
  1 49  1  0
  1 50  1  0
  5 51  1  0
  7 52  1  0
  8 53  1  0
  9 54  1  0
  9 55  1  0
 10 56  1  6
 12 57  1  6
 13 58  1  0
 13 59  1  0
 16 60  1  0
 20 61  1  0
 23 62  1  0
 23 63  1  0
 24 64  1  1
 26 65  1  6
 27 66  1  1
 30 67  1  0
 31 68  1  0
 33 69  1  6
 34 70  1  0
 36 71  1  0
 41 72  1  0
 44 73  1  0
 44 74  1  0
 45 75  1  1
 46 76  1  0
 47 77  1  1
 48 78  1  0
M  END
$$$$
