
     RDKit          3D

 55 56  0  0  0  0  0  0  0  0999 V2000
   -2.6413   -1.4678    1.4951 C   0  0  0  0  0  0  0  0  0  0  0  0
   -2.9275   -0.0261    1.1592 C   0  0  0  0  0  0  0  0  0  0  0  0
   -2.6677    0.8368    2.3805 C   0  0  0  0  0  0  0  0  0  0  0  0
   -2.4321    0.4915   -0.0350 N   0  0  0  0  0  0  0  0  0  0  0  0
   -1.0893    0.5728   -0.3627 C   0  0  0  0  0  0  0  0  0  0  0  0
   -0.4052   -0.7130   -0.6621 C   0  0  0  0  0  0  0  0  0  0  0  0
    1.0662   -0.5265   -1.0013 C   0  0  2  0  0  0  0  0  0  0  0  0
    1.7603   -1.8013   -1.3060 C   0  0  0  0  0  0  0  0  0  0  0  0
    3.0331   -1.9688   -0.7978 C   0  0  0  0  0  0  0  0  0  0  0  0
    3.7831   -3.1237   -1.0259 C   0  0  0  0  0  0  0  0  0  0  0  0
    3.2404   -4.1519   -1.7918 C   0  0  0  0  0  0  0  0  0  0  0  0
    1.9672   -3.9766   -2.2960 C   0  0  0  0  0  0  0  0  0  0  0  0
    1.2435   -2.8208   -2.0552 C   0  0  0  0  0  0  0  0  0  0  0  0
    1.7629    0.2246    0.0819 C   0  0  0  0  0  0  0  0  0  0  0  0
    1.8263   -0.2606    1.3705 C   0  0  0  0  0  0  0  0  0  0  0  0
    1.2643   -1.4761    1.7358 O   0  0  0  0  0  0  0  0  0  0  0  0
    2.4564    0.4175    2.4169 C   0  0  0  0  0  0  0  0  0  0  0  0
    3.0373    1.6369    2.1127 C   0  0  0  0  0  0  0  0  0  0  0  0
    2.9724    2.1175    0.8269 C   0  0  0  0  0  0  0  0  0  0  0  0
    3.6285    3.4439    0.6104 C   0  0  0  0  0  0  0  0  0  0  0  0
    2.3535    1.4497   -0.1993 C   0  0  0  0  0  0  0  0  0  0  0  0
   -3.3976    1.0283   -0.9280 C   0  0  0  0  0  0  0  0  0  0  0  0
   -4.1837    2.1952   -0.4211 C   0  0  0  0  0  0  0  0  0  0  0  0
   -2.8269    1.3454   -2.2941 C   0  0  0  0  0  0  0  0  0  0  0  0
   -2.6448   -2.1461    0.6241 H   0  0  0  0  0  0  0  0  0  0  0  0
   -1.7216   -1.6081    2.1124 H   0  0  0  0  0  0  0  0  0  0  0  0
   -3.5229   -1.8544    2.1144 H   0  0  0  0  0  0  0  0  0  0  0  0
   -4.0653    0.0028    1.0626 H   0  0  0  0  0  0  0  0  0  0  0  0
   -3.5681    1.3852    2.7180 H   0  0  0  0  0  0  0  0  0  0  0  0
   -2.3204    0.1888    3.2028 H   0  0  0  0  0  0  0  0  0  0  0  0
   -1.8994    1.6115    2.2020 H   0  0  0  0  0  0  0  0  0  0  0  0
   -0.5198    1.1192    0.4331 H   0  0  0  0  0  0  0  0  0  0  0  0
   -0.9852    1.2744   -1.2532 H   0  0  0  0  0  0  0  0  0  0  0  0
   -0.4474   -1.3862    0.1927 H   0  0  0  0  0  0  0  0  0  0  0  0
   -0.9247   -1.1676   -1.5493 H   0  0  0  0  0  0  0  0  0  0  0  0
    1.1002    0.0714   -1.9354 H   0  0  0  0  0  0  0  0  0  0  0  0
    3.5160   -1.2039   -0.1912 H   0  0  0  0  0  0  0  0  0  0  0  0
    4.7908   -3.2561   -0.6254 H   0  0  0  0  0  0  0  0  0  0  0  0
    3.7667   -5.0817   -2.0130 H   0  0  0  0  0  0  0  0  0  0  0  0
    1.4643   -4.7246   -2.9032 H   0  0  0  0  0  0  0  0  0  0  0  0
    0.2321   -2.6457   -2.4380 H   0  0  0  0  0  0  0  0  0  0  0  0
    0.7941   -1.6186    2.6064 H   0  0  0  0  0  0  0  0  0  0  0  0
    2.4918    0.0164    3.4212 H   0  0  0  0  0  0  0  0  0  0  0  0
    3.5292    2.1808    2.9116 H   0  0  0  0  0  0  0  0  0  0  0  0
    3.9605    3.5593   -0.4469 H   0  0  0  0  0  0  0  0  0  0  0  0
    2.9116    4.2893    0.7874 H   0  0  0  0  0  0  0  0  0  0  0  0
    4.4915    3.6054    1.2885 H   0  0  0  0  0  0  0  0  0  0  0  0
    2.3355    1.8825   -1.2033 H   0  0  0  0  0  0  0  0  0  0  0  0
   -4.1373    0.1936   -1.1240 H   0  0  0  0  0  0  0  0  0  0  0  0
   -3.5730    2.9176    0.1603 H   0  0  0  0  0  0  0  0  0  0  0  0
   -4.5469    2.7806   -1.3101 H   0  0  0  0  0  0  0  0  0  0  0  0
   -5.0987    1.9009    0.1349 H   0  0  0  0  0  0  0  0  0  0  0  0
   -2.3553    2.3409   -2.3154 H   0  0  0  0  0  0  0  0  0  0  0  0
   -3.6896    1.3941   -2.9877 H   0  0  0  0  0  0  0  0  0  0  0  0
   -2.1879    0.5312   -2.6900 H   0  0  0  0  0  0  0  0  0  0  0  0
  1  2  1  0
  2  3  1  0
  2  4  1  0
  4  5  1  0
  5  6  1  0
  6  7  1  0
  7  8  1  0
  8  9  2  0
  9 10  1  0
 10 11  2  0
 11 12  1  0
 12 13  2  0
  7 14  1  0
 14 15  2  0
 15 16  1  0
 15 17  1  0
 17 18  2  0
 18 19  1  0
 19 20  1  0
 19 21  2  0
  4 22  1  0
 22 23  1  0
 22 24  1  0
 13  8  1  0
 21 14  1  0
  1 25  1  0
  1 26  1  0
  1 27  1  0
  2 28  1  0
  3 29  1  0
  3 30  1  0
  3 31  1  0
  5 32  1  0
  5 33  1  0
  6 34  1  0
  6 35  1  0
  7 36  1  6
  9 37  1  0
 10 38  1  0
 11 39  1  0
 12 40  1  0
 13 41  1  0
 16 42  1  0
 17 43  1  0
 18 44  1  0
 20 45  1  0
 20 46  1  0
 20 47  1  0
 21 48  1  0
 22 49  1  0
 23 50  1  0
 23 51  1  0
 23 52  1  0
 24 53  1  0
 24 54  1  0
 24 55  1  0
M  END
$$$$
