
     RDKit          3D

 21 22  0  0  0  0  0  0  0  0999 V2000
    3.0367    1.3033    0.2146 C   0  0  0  0  0  0  0  0  0  0  0  0
    1.9594    0.2680    0.1007 C   0  0  0  0  0  0  0  0  0  0  0  0
    2.2247   -1.0768    0.0236 C   0  0  0  0  0  0  0  0  0  0  0  0
    1.1744   -1.9916   -0.0812 C   0  0  0  0  0  0  0  0  0  0  0  0
   -0.1389   -1.5220   -0.1062 C   0  0  0  0  0  0  0  0  0  0  0  0
   -0.4221   -0.1762   -0.0298 C   0  0  0  0  0  0  0  0  0  0  0  0
   -1.8080    0.3231   -0.0559 C   0  0  0  0  0  0  0  0  0  0  0  0
   -2.9661   -0.3939   -0.1523 C   0  0  0  0  0  0  0  0  0  0  0  0
   -3.9703    0.4940   -0.1366 N   0  0  0  0  0  0  0  0  0  0  0  0
   -3.4794    1.7139   -0.0355 N   0  0  0  0  0  0  0  0  0  0  0  0
   -2.1789    1.6129    0.0131 N   0  0  0  0  0  0  0  0  0  0  0  0
    0.6457    0.6895    0.0726 C   0  0  0  0  0  0  0  0  0  0  0  0
    3.9106    1.0791   -0.3959 H   0  0  0  0  0  0  0  0  0  0  0  0
    2.6264    2.2844   -0.1577 H   0  0  0  0  0  0  0  0  0  0  0  0
    3.2549    1.4675    1.2919 H   0  0  0  0  0  0  0  0  0  0  0  0
    3.2660   -1.4111    0.0459 H   0  0  0  0  0  0  0  0  0  0  0  0
    1.4339   -3.0233   -0.1380 H   0  0  0  0  0  0  0  0  0  0  0  0
   -0.9305   -2.2520   -0.1879 H   0  0  0  0  0  0  0  0  0  0  0  0
   -3.0577   -1.4635   -0.2265 H   0  0  0  0  0  0  0  0  0  0  0  0
   -5.0141    0.3260   -0.1920 H   0  0  0  0  0  0  0  0  0  0  0  0
    0.4332    1.7488    0.1332 H   0  0  0  0  0  0  0  0  0  0  0  0
  1  2  1  0
  2  3  2  0
  3  4  1  0
  4  5  2  0
  5  6  1  0
  6  7  1  0
  7  8  2  0
  8  9  1  0
  9 10  1  0
 10 11  2  0
  6 12  2  0
 12  2  1  0
 11  7  1  0
  1 13  1  0
  1 14  1  0
  1 15  1  0
  3 16  1  0
  4 17  1  0
  5 18  1  0
  8 19  1  0
  9 20  1  0
 12 21  1  0
M  END
$$$$
