
     RDKit          3D

 71 75  0  0  0  0  0  0  0  0999 V2000
   -8.5316   -1.2990    4.7952 C   0  0  0  0  0  0  0  0  0  0  0  0
   -8.2881   -1.3643    3.3207 C   0  0  0  0  0  0  0  0  0  0  0  0
   -7.0018   -1.8834    2.9358 N   0  0  0  0  0  0  0  0  0  0  0  0
   -6.9143   -1.8828    1.5163 C   0  0  0  0  0  0  0  0  0  0  0  0
   -5.5345   -1.9869    0.9605 C   0  0  0  0  0  0  0  0  0  0  0  0
   -4.6935   -1.0119    1.5973 N   0  0  0  0  0  0  0  0  0  0  0  0
   -5.3022    0.2883    1.5201 C   0  0  0  0  0  0  0  0  0  0  0  0
   -4.4040    1.3631    2.1049 C   0  0  0  0  0  0  0  0  0  0  0  0
   -3.1251    1.5040    1.3680 C   0  0  0  0  0  0  0  0  0  0  0  0
   -2.8850    0.8446    0.2736 C   0  0  0  0  0  0  0  0  0  0  0  0
   -1.6113    0.9970   -0.4478 C   0  0  0  0  0  0  0  0  0  0  0  0
   -0.5693    1.7477    0.0069 C   0  0  0  0  0  0  0  0  0  0  0  0
    0.6038    1.9225   -0.7514 C   0  0  0  0  0  0  0  0  0  0  0  0
    0.7324    1.3308   -1.9872 C   0  0  0  0  0  0  0  0  0  0  0  0
    1.8909    1.5207   -2.7425 C   0  0  0  0  0  0  0  0  0  0  0  0
    2.9801    2.2950   -2.2803 N   0  0  0  0  0  0  0  0  0  0  0  0
    4.1332    1.7775   -1.6771 C   0  0  0  0  0  0  0  0  0  0  0  0
    4.3157    0.4224   -1.6327 C   0  0  0  0  0  0  0  0  0  0  0  0
    5.4714   -0.0907   -1.0274 C   0  0  0  0  0  0  0  0  0  0  0  0
    6.4161    0.7627   -0.4811 C   0  0  0  0  0  0  0  0  0  0  0  0
    7.8922    0.1264    0.2705 S   0  0  0  0  0  0  0  0  0  0  0  0
    9.2273    0.0368   -0.9132 C   0  0  0  0  0  0  0  0  0  0  0  0
   10.1444    0.9917   -1.1504 N   0  0  0  0  0  0  0  0  0  0  0  0
   11.0016    0.6087   -2.1362 C   0  0  0  0  0  0  0  0  0  0  0  0
   10.5647   -0.6571   -2.5087 C   0  0  0  0  0  0  0  0  0  0  0  0
    9.5115   -0.9645   -1.7640 N   0  0  0  0  0  0  0  0  0  0  0  0
    8.7611   -2.2268   -1.8621 C   0  0  0  0  0  0  0  0  0  0  0  0
    6.2115    2.1142   -0.5369 C   0  0  0  0  0  0  0  0  0  0  0  0
    7.3622    3.2405    0.1376 Cl  0  0  0  0  0  0  0  0  0  0  0  0
    5.0641    2.6348   -1.1380 C   0  0  0  0  0  0  0  0  0  0  0  0
    1.9649    0.9111   -4.0010 C   0  0  0  0  0  0  0  0  0  0  0  0
    3.1072    1.0377   -4.8571 C   0  0  0  0  0  0  0  0  0  0  0  0
    4.0265    1.1496   -5.5518 N   0  0  0  0  0  0  0  0  0  0  0  0
    0.8928    0.1618   -4.4103 C   0  0  0  0  0  0  0  0  0  0  0  0
   -0.2101    0.0026   -3.6509 N   0  0  0  0  0  0  0  0  0  0  0  0
   -0.3296    0.5662   -2.4446 C   0  0  0  0  0  0  0  0  0  0  0  0
   -1.4776    0.3956   -1.7023 C   0  0  0  0  0  0  0  0  0  0  0  0
   -4.5813   -1.4361    2.9854 C   0  0  0  0  0  0  0  0  0  0  0  0
   -5.9186   -1.3424    3.6678 C   0  0  0  0  0  0  0  0  0  0  0  0
   -8.2983   -2.2097    5.3465 H   0  0  0  0  0  0  0  0  0  0  0  0
   -8.0715   -0.3789    5.2340 H   0  0  0  0  0  0  0  0  0  0  0  0
   -9.6429   -1.1258    4.9231 H   0  0  0  0  0  0  0  0  0  0  0  0
   -9.0886   -1.9447    2.7818 H   0  0  0  0  0  0  0  0  0  0  0  0
   -8.3960   -0.3249    2.9107 H   0  0  0  0  0  0  0  0  0  0  0  0
   -7.3873   -0.9487    1.0873 H   0  0  0  0  0  0  0  0  0  0  0  0
   -7.4986   -2.7664    1.1497 H   0  0  0  0  0  0  0  0  0  0  0  0
   -5.5646   -1.8337   -0.1417 H   0  0  0  0  0  0  0  0  0  0  0  0
   -5.1026   -2.9948    1.2128 H   0  0  0  0  0  0  0  0  0  0  0  0
   -6.2135    0.2891    2.1409 H   0  0  0  0  0  0  0  0  0  0  0  0
   -5.5670    0.4684    0.4799 H   0  0  0  0  0  0  0  0  0  0  0  0
   -4.2593    1.1687    3.1652 H   0  0  0  0  0  0  0  0  0  0  0  0
   -4.9586    2.3309    1.9481 H   0  0  0  0  0  0  0  0  0  0  0  0
   -2.3839    2.1954    1.7823 H   0  0  0  0  0  0  0  0  0  0  0  0
   -3.6301    0.1765   -0.1169 H   0  0  0  0  0  0  0  0  0  0  0  0
   -0.6127    2.2268    0.9654 H   0  0  0  0  0  0  0  0  0  0  0  0
    1.4254    2.5036   -0.4028 H   0  0  0  0  0  0  0  0  0  0  0  0
    2.8953    3.3381   -2.4087 H   0  0  0  0  0  0  0  0  0  0  0  0
    3.6217   -0.3014   -2.0364 H   0  0  0  0  0  0  0  0  0  0  0  0
    5.6747   -1.1480   -0.9580 H   0  0  0  0  0  0  0  0  0  0  0  0
   11.8264    1.1944   -2.5125 H   0  0  0  0  0  0  0  0  0  0  0  0
   11.0712   -1.2168   -3.2987 H   0  0  0  0  0  0  0  0  0  0  0  0
    8.2767   -2.3064   -2.8589 H   0  0  0  0  0  0  0  0  0  0  0  0
    7.9857   -2.2117   -1.0728 H   0  0  0  0  0  0  0  0  0  0  0  0
    9.4246   -3.0879   -1.7273 H   0  0  0  0  0  0  0  0  0  0  0  0
    4.8984    3.6897   -1.1886 H   0  0  0  0  0  0  0  0  0  0  0  0
    0.9591   -0.3210   -5.4013 H   0  0  0  0  0  0  0  0  0  0  0  0
   -2.3144   -0.1938   -2.0393 H   0  0  0  0  0  0  0  0  0  0  0  0
   -3.8738   -0.8099    3.5474 H   0  0  0  0  0  0  0  0  0  0  0  0
   -4.1870   -2.4700    3.0062 H   0  0  0  0  0  0  0  0  0  0  0  0
   -5.8077   -1.9760    4.6031 H   0  0  0  0  0  0  0  0  0  0  0  0
   -6.0985   -0.3184    4.0738 H   0  0  0  0  0  0  0  0  0  0  0  0
  1  2  1  0
  2  3  1  0
  3  4  1  0
  4  5  1  0
  5  6  1  0
  6  7  1  0
  7  8  1  0
  8  9  1  0
  9 10  2  0
 10 11  1  0
 11 12  2  0
 12 13  1  0
 13 14  2  0
 14 15  1  0
 15 16  1  0
 16 17  1  0
 17 18  2  0
 18 19  1  0
 19 20  2  0
 20 21  1  0
 21 22  1  0
 22 23  2  0
 23 24  1  0
 24 25  2  0
 25 26  1  0
 26 27  1  0
 20 28  1  0
 28 29  1  0
 28 30  2  0
 15 31  2  0
 31 32  1  0
 32 33  3  0
 31 34  1  0
 34 35  2  0
 35 36  1  0
 36 37  2  0
  6 38  1  0
 38 39  1  0
 39  3  1  0
 37 11  1  0
 36 14  1  0
 30 17  1  0
 26 22  1  0
  1 40  1  0
  1 41  1  0
  1 42  1  0
  2 43  1  0
  2 44  1  0
  4 45  1  0
  4 46  1  0
  5 47  1  0
  5 48  1  0
  7 49  1  0
  7 50  1  0
  8 51  1  0
  8 52  1  0
  9 53  1  0
 10 54  1  0
 12 55  1  0
 13 56  1  0
 16 57  1  0
 18 58  1  0
 19 59  1  0
 24 60  1  0
 25 61  1  0
 27 62  1  0
 27 63  1  0
 27 64  1  0
 30 65  1  0
 34 66  1  0
 37 67  1  0
 38 68  1  0
 38 69  1  0
 39 70  1  0
 39 71  1  0
M  END
$$$$
