
     RDKit          3D

 42 44  0  0  0  0  0  0  0  0999 V2000
   -6.8231    2.3790   -1.0558 C   0  0  0  0  0  0  0  0  0  0  0  0
   -5.7976    1.4151   -0.6449 C   0  0  0  0  0  0  0  0  0  0  0  0
   -5.4871    0.2652   -1.3573 C   0  0  0  0  0  0  0  0  0  0  0  0
   -4.5200   -0.6223   -0.9493 C   0  0  0  0  0  0  0  0  0  0  0  0
   -3.8200   -0.3803    0.2086 C   0  0  0  0  0  0  0  0  0  0  0  0
   -2.5681   -1.5089    0.7521 S   0  0  0  0  0  6  0  0  0  0  0  0
   -2.9288   -2.8987    0.3198 O   0  0  0  0  0  0  0  0  0  0  0  0
   -2.5307   -1.5377    2.2662 O   0  0  0  0  0  0  0  0  0  0  0  0
   -1.0947   -1.0077    0.0691 N   0  0  0  0  0  0  0  0  0  0  0  0
   -0.6685    0.2876    0.4590 C   0  0  0  0  0  0  0  0  0  0  0  0
    0.7967    0.3764    0.6722 C   0  0  0  0  0  0  0  0  0  0  0  0
    1.6624   -0.4127    0.0619 C   0  0  0  0  0  0  0  0  0  0  0  0
    3.0837   -0.3633    0.2362 C   0  0  0  0  0  0  0  0  0  0  0  0
    4.2780   -0.3026    0.3854 C   0  0  0  0  0  0  0  0  0  0  0  0
    5.7057   -0.2458    0.5440 C   0  0  0  0  0  0  0  0  0  0  0  0
    6.2623    1.0022    0.7181 C   0  0  0  0  0  0  0  0  0  0  0  0
    7.6301    1.0764    0.8717 C   0  0  0  0  0  0  0  0  0  0  0  0
    8.4060   -0.0887    0.8480 C   0  0  0  0  0  0  0  0  0  0  0  0
    7.8032   -1.3104    0.6714 C   0  0  0  0  0  0  0  0  0  0  0  0
    6.4732   -1.3558    0.5245 N   0  0  0  0  0  0  0  0  0  0  0  0
    1.0534   -1.4157   -0.8683 C   0  0  0  0  0  0  0  0  0  0  0  0
   -0.0955   -2.0143   -0.0574 C   0  0  0  0  0  0  0  0  0  0  0  0
   -4.1168    0.7558    0.9255 C   0  0  0  0  0  0  0  0  0  0  0  0
   -5.0824    1.6320    0.5084 C   0  0  0  0  0  0  0  0  0  0  0  0
   -7.0438    3.0600   -0.2290 H   0  0  0  0  0  0  0  0  0  0  0  0
   -7.7288    1.8968   -1.4765 H   0  0  0  0  0  0  0  0  0  0  0  0
   -6.3826    3.0029   -1.8754 H   0  0  0  0  0  0  0  0  0  0  0  0
   -6.0771    0.1225   -2.2745 H   0  0  0  0  0  0  0  0  0  0  0  0
   -4.3069   -1.5193   -1.5435 H   0  0  0  0  0  0  0  0  0  0  0  0
   -1.1599    0.5716    1.4110 H   0  0  0  0  0  0  0  0  0  0  0  0
   -1.0212    1.0315   -0.2950 H   0  0  0  0  0  0  0  0  0  0  0  0
    1.1813    1.1102    1.3516 H   0  0  0  0  0  0  0  0  0  0  0  0
    5.6265    1.8899    0.7309 H   0  0  0  0  0  0  0  0  0  0  0  0
    8.0798    2.0365    1.0089 H   0  0  0  0  0  0  0  0  0  0  0  0
    9.4869   -0.0038    0.9717 H   0  0  0  0  0  0  0  0  0  0  0  0
    8.4189   -2.1918    0.6571 H   0  0  0  0  0  0  0  0  0  0  0  0
    0.5404   -0.8388   -1.6931 H   0  0  0  0  0  0  0  0  0  0  0  0
    1.7617   -2.1558   -1.2315 H   0  0  0  0  0  0  0  0  0  0  0  0
   -0.5404   -2.8827   -0.5870 H   0  0  0  0  0  0  0  0  0  0  0  0
    0.3620   -2.3062    0.9188 H   0  0  0  0  0  0  0  0  0  0  0  0
   -3.5493    0.9370    1.8507 H   0  0  0  0  0  0  0  0  0  0  0  0
   -5.2685    2.5144    1.1225 H   0  0  0  0  0  0  0  0  0  0  0  0
  1  2  1  0
  2  3  2  0
  3  4  1  0
  4  5  2  0
  5  6  1  0
  6  7  2  0
  6  8  2  0
  6  9  1  0
  9 10  1  0
 10 11  1  0
 11 12  2  0
 12 13  1  0
 13 14  3  0
 14 15  1  0
 15 16  2  0
 16 17  1  0
 17 18  2  0
 18 19  1  0
 19 20  2  0
 12 21  1  0
 21 22  1  0
  5 23  1  0
 23 24  2  0
 24  2  1  0
 22  9  1  0
 20 15  1  0
  1 25  1  0
  1 26  1  0
  1 27  1  0
  3 28  1  0
  4 29  1  0
 10 30  1  0
 10 31  1  0
 11 32  1  0
 16 33  1  0
 17 34  1  0
 18 35  1  0
 19 36  1  0
 21 37  1  0
 21 38  1  0
 22 39  1  0
 22 40  1  0
 23 41  1  0
 24 42  1  0
M  END
$$$$
