
     RDKit          3D

 46 49  0  0  0  0  0  0  0  0999 V2000
   -2.8175   -3.3330    0.1630 C   0  0  0  0  0  0  0  0  0  0  0  0
   -1.4708   -3.1825   -0.5247 C   0  0  1  0  0  0  0  0  0  0  0  0
   -1.0482   -4.4200   -0.9502 O   0  0  0  0  0  0  0  0  0  0  0  0
   -1.5506   -2.1736   -1.6537 C   0  0  0  0  0  0  0  0  0  0  0  0
   -1.9460   -0.8702   -1.1962 N   0  0  0  0  0  0  0  0  0  0  0  0
   -3.2580   -0.5203   -1.0786 C   0  0  0  0  0  0  0  0  0  0  0  0
   -3.2922    0.7283   -0.6259 N   0  0  0  0  0  0  0  0  0  0  0  0
   -2.0626    1.1789   -0.4534 C   0  0  0  0  0  0  0  0  0  0  0  0
   -1.6688    2.4966    0.0313 C   0  0  0  0  0  0  0  0  0  0  0  0
   -0.9365    2.5328    1.1837 C   0  0  0  0  0  0  0  0  0  0  0  0
   -0.5396    3.7393    1.6840 C   0  0  0  0  0  0  0  0  0  0  0  0
   -0.8701    4.9128    1.0402 C   0  0  0  0  0  0  0  0  0  0  0  0
   -0.4671    6.1011    1.5495 F   0  0  0  0  0  0  0  0  0  0  0  0
   -1.6096    4.8793   -0.1230 C   0  0  0  0  0  0  0  0  0  0  0  0
   -2.0043    3.6605   -0.6190 C   0  0  0  0  0  0  0  0  0  0  0  0
   -1.1780    0.1610   -0.8171 C   0  0  0  0  0  0  0  0  0  0  0  0
    0.2634    0.2671   -0.7891 C   0  0  0  0  0  0  0  0  0  0  0  0
    0.8611    1.1329   -1.7073 C   0  0  0  0  0  0  0  0  0  0  0  0
    2.2266    1.2891   -1.7163 C   0  0  0  0  0  0  0  0  0  0  0  0
    3.0189    0.5970   -0.8237 C   0  0  0  0  0  0  0  0  0  0  0  0
    4.3583    0.5574   -0.6017 N   0  0  0  0  0  0  0  0  0  0  0  0
    4.6174   -0.2893    0.4077 C   0  0  0  0  0  0  0  0  0  0  0  0
    3.4029   -0.8151    0.8521 C   0  0  0  0  0  0  0  0  0  0  0  0
    3.2230   -1.7709    1.9463 C   0  0  0  0  0  0  0  0  0  0  0  0
    4.3302   -2.1819    2.7100 N   0  0  0  0  0  0  0  0  0  0  0  0
    2.0770   -2.2151    2.1925 O   0  0  0  0  0  0  0  0  0  0  0  0
    2.4612   -0.2464    0.0735 N   0  0  0  0  0  0  0  0  0  0  0  0
    1.1097   -0.3858    0.0649 C   0  0  0  0  0  0  0  0  0  0  0  0
   -3.5735   -3.7342   -0.5232 H   0  0  0  0  0  0  0  0  0  0  0  0
   -2.6483   -4.0893    0.9709 H   0  0  0  0  0  0  0  0  0  0  0  0
   -3.1223   -2.3967    0.6565 H   0  0  0  0  0  0  0  0  0  0  0  0
   -0.7834   -2.7897    0.2427 H   0  0  0  0  0  0  0  0  0  0  0  0
   -1.7124   -5.1021   -0.7193 H   0  0  0  0  0  0  0  0  0  0  0  0
   -2.3268   -2.5462   -2.3539 H   0  0  0  0  0  0  0  0  0  0  0  0
   -0.6197   -2.1567   -2.2545 H   0  0  0  0  0  0  0  0  0  0  0  0
   -4.1082   -1.1778   -1.3232 H   0  0  0  0  0  0  0  0  0  0  0  0
   -0.6675    1.6228    1.7016 H   0  0  0  0  0  0  0  0  0  0  0  0
    0.0422    3.7546    2.6007 H   0  0  0  0  0  0  0  0  0  0  0  0
   -1.8356    5.8361   -0.5795 H   0  0  0  0  0  0  0  0  0  0  0  0
   -2.5810    3.6470   -1.5286 H   0  0  0  0  0  0  0  0  0  0  0  0
    0.2299    1.6703   -2.4010 H   0  0  0  0  0  0  0  0  0  0  0  0
    2.6802    1.9572   -2.4260 H   0  0  0  0  0  0  0  0  0  0  0  0
    5.5657   -0.5616    0.8461 H   0  0  0  0  0  0  0  0  0  0  0  0
    4.2223   -2.5703    3.6962 H   0  0  0  0  0  0  0  0  0  0  0  0
    5.3191   -2.1444    2.3935 H   0  0  0  0  0  0  0  0  0  0  0  0
    0.6894   -1.0492    0.7821 H   0  0  0  0  0  0  0  0  0  0  0  0
  1  2  1  0
  2  3  1  0
  2  4  1  0
  4  5  1  0
  5  6  1  0
  6  7  2  0
  7  8  1  0
  8  9  1  0
  9 10  2  0
 10 11  1  0
 11 12  2  0
 12 13  1  0
 12 14  1  0
 14 15  2  0
  8 16  2  0
 16 17  1  0
 17 18  1  0
 18 19  2  0
 19 20  1  0
 20 21  2  0
 21 22  1  0
 22 23  2  0
 23 24  1  0
 24 25  1  0
 24 26  2  0
 23 27  1  0
 27 28  1  0
 16  5  1  0
 28 17  2  0
 15  9  1  0
 27 20  1  0
  1 29  1  0
  1 30  1  0
  1 31  1  0
  2 32  1  1
  3 33  1  0
  4 34  1  0
  4 35  1  0
  6 36  1  0
 10 37  1  0
 11 38  1  0
 14 39  1  0
 15 40  1  0
 18 41  1  0
 19 42  1  0
 22 43  1  0
 25 44  1  0
 25 45  1  0
 28 46  1  0
M  END
$$$$
