
     RDKit          3D

 37 37  0  0  0  0  0  0  0  0999 V2000
   -2.2395   -0.4696   -1.1886 C   0  0  2  0  0  0  0  0  0  0  0  0
   -3.2727   -0.0514   -2.0611 O   0  0  0  0  0  0  0  0  0  0  0  0
   -2.8854   -1.3832   -0.2039 C   0  0  0  0  0  0  0  0  0  0  0  0
   -2.0123   -1.9011    0.7479 O   0  0  0  0  0  0  0  0  0  0  0  0
   -1.6971    0.7979   -0.5868 C   0  0  1  0  0  0  0  0  0  0  0  0
   -2.7241    1.4456    0.0982 O   0  0  0  0  0  0  0  0  0  0  0  0
   -0.4970    0.5901    0.3128 C   0  0  2  0  0  0  0  0  0  0  0  0
   -0.1172    1.8962    0.7036 O   0  0  0  0  0  0  0  0  0  0  0  0
    1.0992    2.2065    1.2885 C   0  0  0  0  0  0  0  0  0  0  0  0
    2.1230    1.6461    0.6669 C   0  0  0  0  0  0  0  0  0  0  0  0
    1.8820    0.8009   -0.5118 C   0  0  2  0  0  0  0  0  0  0  0  0
    1.8167    1.6304   -1.6270 O   0  0  0  0  0  0  0  0  0  0  0  0
    0.6439   -0.0552   -0.4230 C   0  0  1  0  0  0  0  0  0  0  0  0
    1.0226   -1.3260    0.1394 N   0  0  0  0  0  0  0  0  0  0  0  0
    1.8051   -2.0895   -0.5385 C   0  0  0  0  0  0  0  0  0  0  0  0
    2.1233   -3.3840    0.1582 C   0  0  0  0  0  0  0  0  0  0  0  0
    2.3688   -1.8514   -1.8058 O   0  0  0  0  0  0  0  0  0  0  0  0
    1.2530    3.0699    2.4795 C   0  0  0  0  0  0  0  0  0  0  0  0
    0.2118    3.6738    3.1576 O   0  0  0  0  0  0  0  0  0  0  0  0
    2.4332    3.2454    2.8764 O   0  0  0  0  0  0  0  0  0  0  0  0
   -1.5417   -1.0248   -1.8194 H   0  0  0  0  0  0  0  0  0  0  0  0
   -4.0193    0.1808   -1.4289 H   0  0  0  0  0  0  0  0  0  0  0  0
   -3.8087   -0.9654    0.2463 H   0  0  0  0  0  0  0  0  0  0  0  0
   -3.2393   -2.2702   -0.7880 H   0  0  0  0  0  0  0  0  0  0  0  0
   -2.4933   -2.1739    1.5556 H   0  0  0  0  0  0  0  0  0  0  0  0
   -1.3809    1.4667   -1.4107 H   0  0  0  0  0  0  0  0  0  0  0  0
   -3.2514    1.9365   -0.5854 H   0  0  0  0  0  0  0  0  0  0  0  0
   -0.7574    0.0359    1.2316 H   0  0  0  0  0  0  0  0  0  0  0  0
    3.1380    1.8265    1.0489 H   0  0  0  0  0  0  0  0  0  0  0  0
    2.7687    0.1286   -0.6341 H   0  0  0  0  0  0  0  0  0  0  0  0
    2.2323    1.1478   -2.3830 H   0  0  0  0  0  0  0  0  0  0  0  0
    0.2977   -0.2344   -1.4614 H   0  0  0  0  0  0  0  0  0  0  0  0
    2.2151   -3.2324    1.2393 H   0  0  0  0  0  0  0  0  0  0  0  0
    3.1002   -3.7422   -0.2324 H   0  0  0  0  0  0  0  0  0  0  0  0
    1.2826   -4.0755   -0.0596 H   0  0  0  0  0  0  0  0  0  0  0  0
    1.8175   -1.2146   -2.3777 H   0  0  0  0  0  0  0  0  0  0  0  0
    0.3027    3.7192    4.1767 H   0  0  0  0  0  0  0  0  0  0  0  0
  1  2  1  0
  1  3  1  0
  3  4  1  0
  1  5  1  0
  5  6  1  0
  5  7  1  0
  7  8  1  0
  8  9  1  0
  9 10  2  0
 10 11  1  0
 11 12  1  0
 11 13  1  0
 13 14  1  0
 14 15  2  3
 15 16  1  0
 15 17  1  0
  9 18  1  0
 18 19  1  0
 18 20  2  0
 13  7  1  0
  1 21  1  6
  2 22  1  0
  3 23  1  0
  3 24  1  0
  4 25  1  0
  5 26  1  6
  6 27  1  0
  7 28  1  1
 10 29  1  0
 11 30  1  6
 12 31  1  0
 13 32  1  6
 16 33  1  0
 16 34  1  0
 16 35  1  0
 17 36  1  0
 19 37  1  0
M  END
$$$$
