
     RDKit          3D

 60 65  0  0  0  0  0  0  0  0999 V2000
    7.3112   -2.7072   -1.3753 C   0  0  0  0  0  0  0  0  0  0  0  0
    5.9435   -3.0348   -0.8809 C   0  0  0  0  0  0  0  0  0  0  0  0
    5.7263   -4.2804   -0.6919 O   0  0  0  0  0  0  0  0  0  0  0  0
    4.9561   -2.0753   -0.6346 N   0  0  0  0  0  0  0  0  0  0  0  0
    4.8033   -0.6437   -0.7153 C   0  0  0  0  0  0  0  0  0  0  0  0
    3.9565   -0.7829    0.5463 C   0  0  0  0  0  0  0  0  0  0  0  0
    2.9054    0.2017    0.7090 C   0  0  0  0  0  0  0  0  0  0  0  0
    3.0902    1.5708    0.9454 C   0  0  0  0  0  0  0  0  0  0  0  0
    1.9361    2.1814    1.0141 N   0  0  0  0  0  0  0  0  0  0  0  0
    1.6729    3.5779    1.2420 C   0  0  0  0  0  0  0  0  0  0  0  0
    0.9499    1.2565    0.8285 C   0  0  0  0  0  0  0  0  0  0  0  0
    1.5411    0.0350    0.6424 C   0  0  0  0  0  0  0  0  0  0  0  0
    0.4601   -0.9423    0.4929 C   0  0  0  0  0  0  0  0  0  0  0  0
    0.6964   -2.1618    0.3049 O   0  0  0  0  0  0  0  0  0  0  0  0
   -0.7785   -0.2645    0.6001 N   0  0  0  0  0  0  0  0  0  0  0  0
   -2.0751   -0.8935    0.5779 C   0  0  0  0  0  0  0  0  0  0  0  0
   -2.2347   -2.2320    0.3663 C   0  0  0  0  0  0  0  0  0  0  0  0
   -3.5400   -2.7484    0.3771 C   0  0  0  0  0  0  0  0  0  0  0  0
   -3.7420   -4.2011    0.1497 C   0  0  0  0  0  0  0  0  0  0  0  0
   -4.6112   -1.9198    0.5950 C   0  0  0  0  0  0  0  0  0  0  0  0
   -5.9605   -2.1264    0.6606 N   0  0  0  0  0  0  0  0  0  0  0  0
   -6.5695   -0.9765    0.8978 N   0  0  0  0  0  0  0  0  0  0  0  0
   -5.5987   -0.0317    0.9836 C   0  0  0  0  0  0  0  0  0  0  0  0
   -5.8100    1.4078    1.2396 C   0  0  0  0  0  0  0  0  0  0  0  0
   -4.4117   -0.6235    0.7967 N   0  0  0  0  0  0  0  0  0  0  0  0
   -3.1778   -0.1095    0.7910 C   0  0  0  0  0  0  0  0  0  0  0  0
   -0.5202    1.1163    0.7270 C   0  0  0  0  0  0  0  0  0  0  0  0
   -1.0651    1.9587   -0.3643 C   0  0  0  0  0  0  0  0  0  0  0  0
   -1.6053    3.1869   -0.0516 C   0  0  0  0  0  0  0  0  0  0  0  0
   -2.1302    4.0256   -1.0056 C   0  0  0  0  0  0  0  0  0  0  0  0
   -2.1205    3.6333   -2.3249 C   0  0  0  0  0  0  0  0  0  0  0  0
   -2.7580    4.6122   -3.6250 Cl  0  0  0  0  0  0  0  0  0  0  0  0
   -1.5822    2.4059   -2.6489 C   0  0  0  0  0  0  0  0  0  0  0  0
   -1.0589    1.5743   -1.6815 C   0  0  0  0  0  0  0  0  0  0  0  0
    3.5769   -2.0871   -0.1656 C   0  0  0  0  0  0  0  0  0  0  0  0
    8.0255   -2.5904   -0.5303 H   0  0  0  0  0  0  0  0  0  0  0  0
    7.6815   -3.5045   -2.0222 H   0  0  0  0  0  0  0  0  0  0  0  0
    7.2914   -1.7689   -1.9838 H   0  0  0  0  0  0  0  0  0  0  0  0
    5.7092   -0.0516   -0.6018 H   0  0  0  0  0  0  0  0  0  0  0  0
    4.2079   -0.3768   -1.6050 H   0  0  0  0  0  0  0  0  0  0  0  0
    4.5951   -1.0249    1.4008 H   0  0  0  0  0  0  0  0  0  0  0  0
    4.0625    2.0249    1.0508 H   0  0  0  0  0  0  0  0  0  0  0  0
    2.5996    4.1727    1.3699 H   0  0  0  0  0  0  0  0  0  0  0  0
    1.0032    3.6472    2.1193 H   0  0  0  0  0  0  0  0  0  0  0  0
    1.1256    4.0550    0.3934 H   0  0  0  0  0  0  0  0  0  0  0  0
   -1.4066   -2.9113    0.1902 H   0  0  0  0  0  0  0  0  0  0  0  0
   -3.2882   -4.7578    0.9823 H   0  0  0  0  0  0  0  0  0  0  0  0
   -4.8116   -4.4191    0.1287 H   0  0  0  0  0  0  0  0  0  0  0  0
   -3.2382   -4.4646   -0.7979 H   0  0  0  0  0  0  0  0  0  0  0  0
   -6.5071    1.5087    2.0963 H   0  0  0  0  0  0  0  0  0  0  0  0
   -4.8634    1.8887    1.5025 H   0  0  0  0  0  0  0  0  0  0  0  0
   -6.1986    1.8790    0.3186 H   0  0  0  0  0  0  0  0  0  0  0  0
   -3.0333    0.9776    0.9697 H   0  0  0  0  0  0  0  0  0  0  0  0
   -0.9978    1.4558    1.6902 H   0  0  0  0  0  0  0  0  0  0  0  0
   -1.6212    3.5128    0.9858 H   0  0  0  0  0  0  0  0  0  0  0  0
   -2.5613    5.0036   -0.7638 H   0  0  0  0  0  0  0  0  0  0  0  0
   -1.5688    2.0836   -3.6921 H   0  0  0  0  0  0  0  0  0  0  0  0
   -0.6305    0.6068   -1.9062 H   0  0  0  0  0  0  0  0  0  0  0  0
    3.3043   -2.9211    0.4720 H   0  0  0  0  0  0  0  0  0  0  0  0
    2.9451   -1.9270   -1.0894 H   0  0  0  0  0  0  0  0  0  0  0  0
  1  2  1  0
  2  3  2  0
  2  4  1  0
  4  5  1  0
  5  6  1  0
  6  7  1  0
  7  8  2  0
  8  9  1  0
  9 10  1  0
  9 11  1  0
 11 12  2  0
 12 13  1  0
 13 14  2  0
 13 15  1  0
 15 16  1  0
 16 17  1  0
 17 18  2  0
 18 19  1  0
 18 20  1  0
 20 21  2  0
 21 22  1  0
 22 23  2  0
 23 24  1  0
 23 25  1  0
 25 26  1  0
 15 27  1  0
 27 28  1  0
 28 29  2  0
 29 30  1  0
 30 31  2  0
 31 32  1  0
 31 33  1  0
 33 34  2  0
  6 35  1  0
 35  4  1  0
 12  7  1  0
 26 16  2  0
 34 28  1  0
 27 11  1  0
 25 20  1  0
  1 36  1  0
  1 37  1  0
  1 38  1  0
  5 39  1  0
  5 40  1  0
  6 41  1  0
  8 42  1  0
 10 43  1  0
 10 44  1  0
 10 45  1  0
 17 46  1  0
 19 47  1  0
 19 48  1  0
 19 49  1  0
 24 50  1  0
 24 51  1  0
 24 52  1  0
 26 53  1  0
 27 54  1  0
 29 55  1  0
 30 56  1  0
 33 57  1  0
 34 58  1  0
 35 59  1  0
 35 60  1  0
M  END
$$$$
