
     RDKit          3D

 53 56  0  0  0  0  0  0  0  0999 V2000
   -8.3056    0.0440   -0.4638 C   0  0  0  0  0  0  0  0  0  0  0  0
   -7.1696    1.3969   -0.4107 S   0  0  0  0  0  6  0  0  0  0  0  0
   -7.6606    2.4685    0.5385 O   0  0  0  0  0  0  0  0  0  0  0  0
   -7.0140    1.9572   -1.7958 O   0  0  0  0  0  0  0  0  0  0  0  0
   -5.6167    0.8011    0.1172 C   0  0  0  0  0  0  0  0  0  0  0  0
   -5.2986    0.7697    1.4582 C   0  0  0  0  0  0  0  0  0  0  0  0
   -4.0579    0.2899    1.8248 C   0  0  0  0  0  0  0  0  0  0  0  0
   -3.1408   -0.1521    0.9117 C   0  0  0  0  0  0  0  0  0  0  0  0
   -3.5078   -0.1009   -0.4308 C   0  0  0  0  0  0  0  0  0  0  0  0
   -4.7249    0.3658   -0.8451 C   0  0  0  0  0  0  0  0  0  0  0  0
   -2.4701   -0.5924   -1.3843 C   0  0  0  0  0  0  0  0  0  0  0  0
   -1.1804    0.1112   -0.9742 C   0  0  0  0  0  0  0  0  0  0  0  0
   -0.7325   -0.3904    0.3801 C   0  0  0  0  0  0  0  0  0  0  0  0
    0.0780    0.6505    1.1205 C   0  0  0  0  0  0  0  0  0  0  0  0
    1.2653   -0.0536    1.7463 C   0  0  0  0  0  0  0  0  0  0  0  0
    2.1005   -0.5113    0.6518 N   0  0  0  0  0  0  0  0  0  0  0  0
    3.4734   -0.1775    0.5470 C   0  0  0  0  0  0  0  0  0  0  0  0
    4.0308    0.5375    1.4106 O   0  0  0  0  0  0  0  0  0  0  0  0
    4.2869   -0.6670   -0.5908 C   0  0  0  0  0  0  0  0  0  0  0  0
    5.6869   -0.2029   -0.5109 C   0  0  0  0  0  0  0  0  0  0  0  0
    6.7099   -1.0426   -0.1158 C   0  0  0  0  0  0  0  0  0  0  0  0
    8.0259   -0.6280   -0.0359 C   0  0  0  0  0  0  0  0  0  0  0  0
    8.3183    0.6700   -0.3637 C   0  0  0  0  0  0  0  0  0  0  0  0
    9.9763    1.2444   -0.2790 Cl  0  0  0  0  0  0  0  0  0  0  0  0
    7.2944    1.5270   -0.7639 C   0  0  0  0  0  0  0  0  0  0  0  0
    5.9809    1.1118   -0.8433 C   0  0  0  0  0  0  0  0  0  0  0  0
    4.7150    2.2267   -1.3541 Cl  0  0  0  0  0  0  0  0  0  0  0  0
    1.4436   -1.3377   -0.3414 C   0  0  0  0  0  0  0  0  0  0  0  0
    0.0525   -1.6535    0.1635 C   0  0  0  0  0  0  0  0  0  0  0  0
   -1.8926   -0.6420    1.1920 O   0  0  0  0  0  0  0  0  0  0  0  0
   -9.3599    0.3855   -0.5517 H   0  0  0  0  0  0  0  0  0  0  0  0
   -8.1616   -0.5789    0.4406 H   0  0  0  0  0  0  0  0  0  0  0  0
   -8.0527   -0.5971   -1.3386 H   0  0  0  0  0  0  0  0  0  0  0  0
   -6.0330    1.1224    2.1668 H   0  0  0  0  0  0  0  0  0  0  0  0
   -3.7960    0.2598    2.8734 H   0  0  0  0  0  0  0  0  0  0  0  0
   -4.9809    0.3934   -1.8898 H   0  0  0  0  0  0  0  0  0  0  0  0
   -2.7199   -0.3988   -2.4250 H   0  0  0  0  0  0  0  0  0  0  0  0
   -2.3138   -1.6722   -1.1389 H   0  0  0  0  0  0  0  0  0  0  0  0
   -1.4713    1.1943   -0.8460 H   0  0  0  0  0  0  0  0  0  0  0  0
   -0.4395   -0.0223   -1.7562 H   0  0  0  0  0  0  0  0  0  0  0  0
    0.3978    1.4778    0.4533 H   0  0  0  0  0  0  0  0  0  0  0  0
   -0.5138    1.1126    1.9353 H   0  0  0  0  0  0  0  0  0  0  0  0
    1.8270    0.6100    2.4330 H   0  0  0  0  0  0  0  0  0  0  0  0
    0.8882   -0.8921    2.3326 H   0  0  0  0  0  0  0  0  0  0  0  0
    4.2240   -1.7821   -0.6584 H   0  0  0  0  0  0  0  0  0  0  0  0
    3.8668   -0.2845   -1.5474 H   0  0  0  0  0  0  0  0  0  0  0  0
    6.4747   -2.0833    0.1469 H   0  0  0  0  0  0  0  0  0  0  0  0
    8.8366   -1.2841    0.2748 H   0  0  0  0  0  0  0  0  0  0  0  0
    7.5414    2.5576   -1.0217 H   0  0  0  0  0  0  0  0  0  0  0  0
    1.4028   -0.7246   -1.2697 H   0  0  0  0  0  0  0  0  0  0  0  0
    2.0195   -2.2616   -0.5589 H   0  0  0  0  0  0  0  0  0  0  0  0
    0.1224   -2.2875    1.0574 H   0  0  0  0  0  0  0  0  0  0  0  0
   -0.4255   -2.2646   -0.6584 H   0  0  0  0  0  0  0  0  0  0  0  0
  1  2  1  0
  2  3  2  0
  2  4  2  0
  2  5  1  0
  5  6  2  0
  6  7  1  0
  7  8  2  0
  8  9  1  0
  9 10  2  0
  9 11  1  0
 11 12  1  0
 12 13  1  0
 13 14  1  0
 14 15  1  0
 15 16  1  0
 16 17  1  0
 17 18  2  0
 17 19  1  0
 19 20  1  0
 20 21  2  0
 21 22  1  0
 22 23  2  0
 23 24  1  0
 23 25  1  0
 25 26  2  0
 26 27  1  0
 16 28  1  0
 28 29  1  0
 13 30  1  0
 10  5  1  0
 29 13  1  0
 30  8  1  0
 26 20  1  0
  1 31  1  0
  1 32  1  0
  1 33  1  0
  6 34  1  0
  7 35  1  0
 10 36  1  0
 11 37  1  0
 11 38  1  0
 12 39  1  0
 12 40  1  0
 14 41  1  0
 14 42  1  0
 15 43  1  0
 15 44  1  0
 19 45  1  0
 19 46  1  0
 21 47  1  0
 22 48  1  0
 25 49  1  0
 28 50  1  0
 28 51  1  0
 29 52  1  0
 29 53  1  0
M  END
$$$$
