
     RDKit          3D

 20 20  0  0  0  0  0  0  0  0999 V2000
   -1.1768   -0.0895    0.3933 C   0  0  1  0  0  0  0  0  0  0  0  0
   -2.2891   -1.0476    0.0527 C   0  0  0  0  0  0  0  0  0  0  0  0
    0.0681   -0.4349   -0.4097 C   0  0  0  0  0  0  0  0  0  0  0  0
    1.2004    0.4976   -0.0989 C   0  0  0  0  0  0  0  0  0  0  0  0
    2.5185    0.3689   -0.7505 C   0  0  0  0  0  0  0  0  0  0  0  0
    2.3481   -0.0805    0.6705 C   0  0  0  0  0  0  0  0  0  0  0  0
   -1.5497    1.3060    0.0635 C   0  0  0  0  0  0  0  0  0  0  0  0
   -2.6732    1.2790   -0.3988 O   0  0  0  0  0  0  0  0  0  0  0  0
   -0.9331   -0.2150    1.4606 H   0  0  0  0  0  0  0  0  0  0  0  0
   -2.0305   -2.0521    0.4515 H   0  0  0  0  0  0  0  0  0  0  0  0
   -3.1942   -0.7068    0.6059 H   0  0  0  0  0  0  0  0  0  0  0  0
   -2.5218   -1.0440   -1.0330 H   0  0  0  0  0  0  0  0  0  0  0  0
    0.3636   -1.4580   -0.1083 H   0  0  0  0  0  0  0  0  0  0  0  0
   -0.1608   -0.4532   -1.5070 H   0  0  0  0  0  0  0  0  0  0  0  0
    0.8919    1.5500    0.1040 H   0  0  0  0  0  0  0  0  0  0  0  0
    3.1524    1.2558   -0.8945 H   0  0  0  0  0  0  0  0  0  0  0  0
    2.6139   -0.4282   -1.5095 H   0  0  0  0  0  0  0  0  0  0  0  0
    2.3486   -1.1808    0.8686 H   0  0  0  0  0  0  0  0  0  0  0  0
    2.7029    0.5714    1.5116 H   0  0  0  0  0  0  0  0  0  0  0  0
   -1.6792    2.3618   -0.1228 H   0  0  0  0  0  0  0  0  0  0  0  0
  1  2  1  0
  1  3  1  0
  3  4  1  0
  4  5  1  0
  5  6  1  0
  1  7  1  0
  7  8  2  0
  6  4  1  0
  1  9  1  1
  2 10  1  0
  2 11  1  0
  2 12  1  0
  3 13  1  0
  3 14  1  0
  4 15  1  0
  5 16  1  0
  5 17  1  0
  6 18  1  0
  6 19  1  0
  7 20  1  0
M  END
$$$$
