
     RDKit          3D

 34 37  0  0  0  0  0  0  0  0999 V2000
   -3.0951    1.4131   -1.6322 N   0  0  0  0  0  0  0  0  0  0  0  0
   -1.8163    1.5777   -1.0269 C   0  0  0  0  0  0  0  0  0  0  0  0
   -1.1710    2.6699   -1.2199 N   0  0  0  0  0  0  0  0  0  0  0  0
    0.1063    2.7431   -0.5740 C   0  0  0  0  0  0  0  0  0  0  0  0
    0.1365    1.5323    0.2914 C   0  0  0  0  0  0  0  0  0  0  0  0
   -0.9702    0.7941   -0.1881 N   0  0  0  0  0  0  0  0  0  0  0  0
   -1.3430   -0.5631    0.0335 C   0  0  0  0  0  0  0  0  0  0  0  0
   -2.7362   -0.6889    0.1538 C   0  0  0  0  0  0  0  0  0  0  0  0
   -3.2543   -1.9677    0.3650 C   0  0  0  0  0  0  0  0  0  0  0  0
   -2.3851   -3.0532    0.4479 C   0  0  0  0  0  0  0  0  0  0  0  0
   -1.0313   -2.9394    0.3328 C   0  0  0  0  0  0  0  0  0  0  0  0
   -0.4889   -1.6738    0.1213 C   0  0  0  0  0  0  0  0  0  0  0  0
    0.9887   -1.7553    0.0258 C   0  0  0  0  0  0  0  0  0  0  0  0
    1.6881   -0.4935    0.2453 C   0  0  0  0  0  0  0  0  0  0  0  0
    3.0163   -0.8572    0.3570 C   0  0  0  0  0  0  0  0  0  0  0  0
    4.0764    0.0293    0.5754 C   0  0  0  0  0  0  0  0  0  0  0  0
    3.7699    1.3873    0.6895 C   0  0  0  0  0  0  0  0  0  0  0  0
    2.4551    1.7460    0.5789 C   0  0  0  0  0  0  0  0  0  0  0  0
    1.4251    0.8518    0.3634 C   0  0  0  0  0  0  0  0  0  0  0  0
   -3.4258    0.7735   -2.3932 H   0  0  0  0  0  0  0  0  0  0  0  0
   -3.8795    2.0330   -1.2749 H   0  0  0  0  0  0  0  0  0  0  0  0
    0.8739    2.6102   -1.3637 H   0  0  0  0  0  0  0  0  0  0  0  0
    0.2261    3.6906   -0.0176 H   0  0  0  0  0  0  0  0  0  0  0  0
   -0.1165    1.9150    1.3313 H   0  0  0  0  0  0  0  0  0  0  0  0
   -3.4152    0.1403    0.1107 H   0  0  0  0  0  0  0  0  0  0  0  0
   -4.3293   -2.1605    0.4705 H   0  0  0  0  0  0  0  0  0  0  0  0
   -2.8218   -4.0437    0.6132 H   0  0  0  0  0  0  0  0  0  0  0  0
   -0.4315   -3.8402    0.4113 H   0  0  0  0  0  0  0  0  0  0  0  0
    1.3866   -2.5418    0.7001 H   0  0  0  0  0  0  0  0  0  0  0  0
    1.3058   -2.1108   -1.0001 H   0  0  0  0  0  0  0  0  0  0  0  0
    3.4041   -1.8816    0.2895 H   0  0  0  0  0  0  0  0  0  0  0  0
    5.1114   -0.2524    0.6613 H   0  0  0  0  0  0  0  0  0  0  0  0
    4.5532    2.1074    0.8570 H   0  0  0  0  0  0  0  0  0  0  0  0
    2.1874    2.8084    0.6647 H   0  0  0  0  0  0  0  0  0  0  0  0
  1  2  1  0
  2  3  2  0
  3  4  1  0
  4  5  1  0
  5  6  1  0
  6  7  1  0
  7  8  2  0
  8  9  1  0
  9 10  2  0
 10 11  1  0
 11 12  2  0
 12 13  1  0
 13 14  1  0
 14 15  2  0
 15 16  1  0
 16 17  2  0
 17 18  1  0
 18 19  2  0
  6  2  1  0
 12  7  1  0
 19 14  1  0
 19  5  1  0
  1 20  1  0
  1 21  1  0
  4 22  1  0
  4 23  1  0
  5 24  1  0
  8 25  1  0
  9 26  1  0
 10 27  1  0
 11 28  1  0
 13 29  1  0
 13 30  1  0
 15 31  1  0
 16 32  1  0
 17 33  1  0
 18 34  1  0
M  END
$$$$
