
     RDKit          3D

 37 39  0  0  0  0  0  0  0  0999 V2000
    6.7336   -0.9098    1.1970 C   0  0  0  0  0  0  0  0  0  0  0  0
    6.3449   -0.5171   -0.1048 O   0  0  0  0  0  0  0  0  0  0  0  0
    5.0235   -0.2565   -0.4374 C   0  0  0  0  0  0  0  0  0  0  0  0
    4.7160    0.1222   -1.7259 C   0  0  0  0  0  0  0  0  0  0  0  0
    3.4012    0.3910   -2.0932 C   0  0  0  0  0  0  0  0  0  0  0  0
    2.3704    0.2876   -1.1850 C   0  0  0  0  0  0  0  0  0  0  0  0
    1.0850    0.5529   -1.5570 C   0  0  0  0  0  0  0  0  0  0  0  0
   -0.0248    0.4641   -0.6665 C   0  0  0  0  0  0  0  0  0  0  0  0
   -1.3062    0.8282   -1.1943 C   0  0  0  0  0  0  0  0  0  0  0  0
   -1.2936    1.4593   -2.3520 O   0  0  0  0  0  0  0  0  0  0  0  0
   -2.6018    0.6171   -0.6722 C   0  0  0  0  0  0  0  0  0  0  0  0
   -3.0527    0.0103    0.3795 C   0  0  0  0  0  0  0  0  0  0  0  0
   -4.4625   -0.0677    0.7096 C   0  0  0  0  0  0  0  0  0  0  0  0
   -5.4518    0.5028   -0.0792 C   0  0  0  0  0  0  0  0  0  0  0  0
   -6.7878    0.3844    0.3076 C   0  0  0  0  0  0  0  0  0  0  0  0
   -7.0818   -0.2959    1.4615 C   0  0  0  0  0  0  0  0  0  0  0  0
   -6.1026   -0.8296    2.1917 N   0  0  0  0  0  0  0  0  0  0  0  0
   -4.8156   -0.7476    1.8715 C   0  0  0  0  0  0  0  0  0  0  0  0
    0.2963    0.0893    0.6093 C   0  0  0  0  0  0  0  0  0  0  0  0
    1.6221   -0.1818    0.9790 C   0  0  0  0  0  0  0  0  0  0  0  0
    2.6695   -0.0901    0.1037 C   0  0  0  0  0  0  0  0  0  0  0  0
    3.9759   -0.3521    0.4493 C   0  0  0  0  0  0  0  0  0  0  0  0
    7.8013   -0.7174    1.3899 H   0  0  0  0  0  0  0  0  0  0  0  0
    6.1414   -0.2978    1.9389 H   0  0  0  0  0  0  0  0  0  0  0  0
    6.4888   -1.9903    1.3062 H   0  0  0  0  0  0  0  0  0  0  0  0
    5.4965    0.2200   -2.4877 H   0  0  0  0  0  0  0  0  0  0  0  0
    3.1648    0.6867   -3.1008 H   0  0  0  0  0  0  0  0  0  0  0  0
    0.9230    0.8446   -2.5983 H   0  0  0  0  0  0  0  0  0  0  0  0
   -3.4255    1.0718   -1.2968 H   0  0  0  0  0  0  0  0  0  0  0  0
   -2.3584   -0.4868    1.0224 H   0  0  0  0  0  0  0  0  0  0  0  0
   -5.2607    1.0341   -0.9751 H   0  0  0  0  0  0  0  0  0  0  0  0
   -7.5468    0.8235   -0.3001 H   0  0  0  0  0  0  0  0  0  0  0  0
   -8.1331   -0.3770    1.7461 H   0  0  0  0  0  0  0  0  0  0  0  0
   -4.0671   -1.1869    2.4810 H   0  0  0  0  0  0  0  0  0  0  0  0
   -0.4738    0.0357    1.3503 H   0  0  0  0  0  0  0  0  0  0  0  0
    1.8041   -0.4721    1.9953 H   0  0  0  0  0  0  0  0  0  0  0  0
    4.1882   -0.6489    1.4726 H   0  0  0  0  0  0  0  0  0  0  0  0
  1  2  1  0
  2  3  1  0
  3  4  2  0
  4  5  1  0
  5  6  2  0
  6  7  1  0
  7  8  2  0
  8  9  1  0
  9 10  2  0
  9 11  1  0
 11 12  2  0
 12 13  1  0
 13 14  2  0
 14 15  1  0
 15 16  2  0
 16 17  1  0
 17 18  2  0
  8 19  1  0
 19 20  2  0
 20 21  1  0
 21 22  2  0
 22  3  1  0
 21  6  1  0
 18 13  1  0
  1 23  1  0
  1 24  1  0
  1 25  1  0
  4 26  1  0
  5 27  1  0
  7 28  1  0
 11 29  1  0
 12 30  1  0
 14 31  1  0
 15 32  1  0
 16 33  1  0
 18 34  1  0
 19 35  1  0
 20 36  1  0
 22 37  1  0
M  END
$$$$
