
     RDKit          3D

 47 50  0  0  0  0  0  0  0  0999 V2000
    3.5196    2.8552    2.6671 C   0  0  0  0  0  0  0  0  0  0  0  0
    2.3109    3.4962    2.1520 O   0  0  0  0  0  0  0  0  0  0  0  0
    1.1892    2.7597    2.0150 C   0  0  0  0  0  0  0  0  0  0  0  0
    1.0571    1.4369    2.0145 N   0  0  0  0  0  0  0  0  0  0  0  0
   -0.1123    0.7699    1.7864 C   0  0  0  0  0  0  0  0  0  0  0  0
   -0.1684   -0.5526    1.4291 N   0  0  0  0  0  0  0  0  0  0  0  0
    0.8328   -1.6286    1.3759 C   0  0  0  0  0  0  0  0  0  0  0  0
    0.8693   -1.7921   -0.1893 C   0  0  1  0  0  0  0  0  0  0  0  0
    1.1952   -3.1726   -0.5049 C   0  0  0  0  0  0  0  0  0  0  0  0
    2.2630   -3.7114   -0.0348 O   0  0  0  0  0  0  0  0  0  0  0  0
    0.4080   -4.0376   -1.3286 N   0  0  0  0  0  0  0  0  0  0  0  0
    0.8704   -5.3787   -1.6313 C   0  0  0  0  0  0  0  0  0  0  0  0
   -0.8482   -3.5981   -1.8559 C   0  0  0  0  0  0  0  0  0  0  0  0
   -1.5929   -4.3006   -2.6109 N   0  0  0  0  0  0  0  0  0  0  0  0
   -1.2203   -2.2641   -1.4810 N   0  0  0  0  0  0  0  0  0  0  0  0
   -0.4561   -1.3835   -0.6542 C   0  0  2  0  0  0  0  0  0  0  0  0
   -0.5131   -0.0201   -1.1887 C   0  0  0  0  0  0  0  0  0  0  0  0
    0.2206    1.0680   -1.1180 C   0  0  0  0  0  0  0  0  0  0  0  0
   -0.1570    2.2393   -1.5747 C   0  0  0  0  0  0  0  0  0  0  0  0
   -1.3869    2.3057   -2.1723 C   0  0  0  0  0  0  0  0  0  0  0  0
   -2.1695    3.3301   -2.7868 C   0  0  0  0  0  0  0  0  0  0  0  0
   -2.8444    4.1796   -3.2988 N   0  0  0  0  0  0  0  0  0  0  0  0
   -1.9520    0.5607   -2.0134 S   0  0  0  0  0  0  0  0  0  0  0  0
   -1.2891   -1.2327    0.7064 C   0  0  0  0  0  0  0  0  0  0  0  0
   -1.2149    1.5817    1.5756 N   0  0  0  0  0  0  0  0  0  0  0  0
   -1.1825    2.9045    1.5681 C   0  0  0  0  0  0  0  0  0  0  0  0
   -2.4377    3.7073    1.3104 C   0  0  0  0  0  0  0  0  0  0  0  0
    0.0094    3.5156    1.7794 C   0  0  0  0  0  0  0  0  0  0  0  0
    0.1335    4.8922    1.7684 F   0  0  0  0  0  0  0  0  0  0  0  0
    3.4765    2.7235    3.7219 H   0  0  0  0  0  0  0  0  0  0  0  0
    4.3489    3.3956    2.2176 H   0  0  0  0  0  0  0  0  0  0  0  0
    3.5395    1.8272    2.1824 H   0  0  0  0  0  0  0  0  0  0  0  0
    0.3942   -2.5250    1.8156 H   0  0  0  0  0  0  0  0  0  0  0  0
    1.8205   -1.3608    1.6850 H   0  0  0  0  0  0  0  0  0  0  0  0
    1.6928   -1.0868   -0.5288 H   0  0  0  0  0  0  0  0  0  0  0  0
    0.4757   -6.0165   -0.7825 H   0  0  0  0  0  0  0  0  0  0  0  0
    1.9810   -5.4535   -1.6025 H   0  0  0  0  0  0  0  0  0  0  0  0
    0.4601   -5.7162   -2.5738 H   0  0  0  0  0  0  0  0  0  0  0  0
   -1.3532   -5.2583   -2.9108 H   0  0  0  0  0  0  0  0  0  0  0  0
   -2.1705   -1.9188   -1.8542 H   0  0  0  0  0  0  0  0  0  0  0  0
    1.2843    0.9372   -0.6543 H   0  0  0  0  0  0  0  0  0  0  0  0
    0.4191    3.2020   -1.5006 H   0  0  0  0  0  0  0  0  0  0  0  0
   -1.4888   -2.2072    1.1122 H   0  0  0  0  0  0  0  0  0  0  0  0
   -2.0772   -0.5341    0.5207 H   0  0  0  0  0  0  0  0  0  0  0  0
   -2.2931    4.2817    0.3969 H   0  0  0  0  0  0  0  0  0  0  0  0
   -2.5983    4.2637    2.2331 H   0  0  0  0  0  0  0  0  0  0  0  0
   -3.2453    2.9163    1.2182 H   0  0  0  0  0  0  0  0  0  0  0  0
  1  2  1  0
  2  3  1  0
  3  4  2  0
  4  5  1  0
  5  6  1  0
  6  7  1  0
  7  8  1  0
  8  9  1  0
  9 10  2  0
  9 11  1  0
 11 12  1  0
 11 13  1  0
 13 14  2  3
 13 15  1  0
 15 16  1  0
 16 17  1  6
 17 18  2  0
 18 19  1  0
 19 20  2  0
 20 21  1  0
 21 22  3  0
 20 23  1  0
 16 24  1  0
  5 25  2  0
 25 26  1  0
 26 27  1  0
 26 28  2  0
 28 29  1  0
 28  3  1  0
 24  6  1  0
 16  8  1  0
 23 17  1  0
  1 30  1  0
  1 31  1  0
  1 32  1  0
  7 33  1  0
  7 34  1  0
  8 35  1  6
 12 36  1  0
 12 37  1  0
 12 38  1  0
 14 39  1  0
 15 40  1  0
 18 41  1  0
 19 42  1  0
 24 43  1  0
 24 44  1  0
 27 45  1  0
 27 46  1  0
 27 47  1  0
M  END
$$$$
