
     RDKit          3D

 36 38  0  0  0  0  0  0  0  0999 V2000
   -0.6728   -2.9528   -2.7919 C   0  0  0  0  0  0  0  0  0  0  0  0
   -1.6266   -2.0930   -2.0438 C   0  0  0  0  0  0  0  0  0  0  0  0
   -2.9378   -2.0834   -2.1081 O   0  0  0  0  0  0  0  0  0  0  0  0
   -3.4358   -1.1990   -1.3115 N   0  0  0  0  0  0  0  0  0  0  0  0
   -2.4156   -0.5695   -0.6680 C   0  0  0  0  0  0  0  0  0  0  0  0
   -2.4820    0.4885    0.3136 C   0  0  0  0  0  0  0  0  0  0  0  0
   -2.0088    0.2741    1.5896 C   0  0  0  0  0  0  0  0  0  0  0  0
   -2.0690    1.2959    2.5481 C   0  0  0  0  0  0  0  0  0  0  0  0
   -2.6025    2.5241    2.2209 C   0  0  0  0  0  0  0  0  0  0  0  0
   -3.0725    2.7403    0.9570 C   0  0  0  0  0  0  0  0  0  0  0  0
   -3.0042    1.7283    0.0358 C   0  0  0  0  0  0  0  0  0  0  0  0
   -1.2496   -1.1340   -1.1290 C   0  0  0  0  0  0  0  0  0  0  0  0
    0.1035   -0.7856   -0.7288 C   0  0  0  0  0  0  0  0  0  0  0  0
    0.5966    0.4938   -0.9716 C   0  0  0  0  0  0  0  0  0  0  0  0
    1.8846    0.7936   -0.5804 C   0  0  0  0  0  0  0  0  0  0  0  0
    2.7105   -0.1284    0.0462 C   0  0  0  0  0  0  0  0  0  0  0  0
    4.3240    0.3864    0.4893 S   0  0  0  0  0  6  0  0  0  0  0  0
    4.3484    1.0530    2.0846 N   0  0  0  0  0  0  0  0  0  0  0  0
    4.7588    1.4879   -0.4497 O   0  0  0  0  0  0  0  0  0  0  0  0
    5.2889   -0.7494    0.3837 O   0  0  0  0  0  0  0  0  0  0  0  0
    2.2281   -1.3919    0.2878 C   0  0  0  0  0  0  0  0  0  0  0  0
    0.9461   -1.6910   -0.1015 C   0  0  0  0  0  0  0  0  0  0  0  0
    0.3266   -2.5180   -2.8670 H   0  0  0  0  0  0  0  0  0  0  0  0
   -1.0645   -3.0027   -3.8465 H   0  0  0  0  0  0  0  0  0  0  0  0
   -0.6985   -3.9967   -2.4269 H   0  0  0  0  0  0  0  0  0  0  0  0
   -1.5865   -0.6582    1.8934 H   0  0  0  0  0  0  0  0  0  0  0  0
   -1.7099    1.1678    3.5553 H   0  0  0  0  0  0  0  0  0  0  0  0
   -2.6448    3.3177    2.9783 H   0  0  0  0  0  0  0  0  0  0  0  0
   -3.4907    3.7100    0.7083 H   0  0  0  0  0  0  0  0  0  0  0  0
   -3.3926    1.9510   -0.9584 H   0  0  0  0  0  0  0  0  0  0  0  0
   -0.0670    1.1876   -1.4594 H   0  0  0  0  0  0  0  0  0  0  0  0
    2.2184    1.8088   -0.7951 H   0  0  0  0  0  0  0  0  0  0  0  0
    3.7159    1.9016    2.0509 H   0  0  0  0  0  0  0  0  0  0  0  0
    5.3151    1.4615    2.2122 H   0  0  0  0  0  0  0  0  0  0  0  0
    2.8684   -2.1116    0.7751 H   0  0  0  0  0  0  0  0  0  0  0  0
    0.5976   -2.7065    0.1076 H   0  0  0  0  0  0  0  0  0  0  0  0
  1  2  1  0
  2  3  1  0
  3  4  1  0
  4  5  2  0
  5  6  1  0
  6  7  2  0
  7  8  1  0
  8  9  2  0
  9 10  1  0
 10 11  2  0
  5 12  1  0
 12 13  1  0
 13 14  2  0
 14 15  1  0
 15 16  2  0
 16 17  1  0
 17 18  1  0
 17 19  2  0
 17 20  2  0
 16 21  1  0
 21 22  2  0
 12  2  2  0
 22 13  1  0
 11  6  1  0
  1 23  1  0
  1 24  1  0
  1 25  1  0
  7 26  1  0
  8 27  1  0
  9 28  1  0
 10 29  1  0
 11 30  1  0
 14 31  1  0
 15 32  1  0
 18 33  1  0
 18 34  1  0
 21 35  1  0
 22 36  1  0
M  END
$$$$
