
     RDKit          3D

 44 46  0  0  0  0  0  0  0  0999 V2000
    0.4577   -2.1260   -1.5933 C   0  0  0  0  0  0  0  0  0  0  0  0
    1.2059   -0.9854   -0.9446 C   0  0  0  0  0  0  0  0  0  0  0  0
    2.5340   -1.2130   -0.7171 C   0  0  0  0  0  0  0  0  0  0  0  0
    3.2035   -0.1768   -0.1259 C   0  0  0  0  0  0  0  0  0  0  0  0
    2.5089    0.9180    0.1590 N   0  0  0  0  0  0  0  0  0  0  0  0
    1.2442    1.0907   -0.0761 N   0  0  0  0  0  0  0  0  0  0  0  0
    0.4715    0.1616   -0.6483 C   0  0  0  0  0  0  0  0  0  0  0  0
   -0.9382    0.3304   -0.9222 N   0  0  0  0  0  0  0  0  0  0  0  0
   -1.3924    1.6229   -0.4965 C   0  0  0  0  0  0  0  0  0  0  0  0
   -2.8422    1.8265   -0.6637 C   0  0  0  0  0  0  0  0  0  0  0  0
   -3.7457    0.9926    0.0741 N   0  0  0  0  0  0  0  0  0  0  0  0
   -5.0738    1.5459   -0.1614 C   0  0  0  0  0  0  0  0  0  0  0  0
   -6.1696    0.7389    0.4415 C   0  0  0  0  0  0  0  0  0  0  0  0
   -6.1128   -0.5331   -0.1079 O   0  0  0  0  0  0  0  0  0  0  0  0
   -4.9177   -1.1742    0.1544 C   0  0  0  0  0  0  0  0  0  0  0  0
   -3.6892   -0.3990   -0.2267 C   0  0  0  0  0  0  0  0  0  0  0  0
    4.6238   -0.2409    0.1937 C   0  0  0  0  0  0  0  0  0  0  0  0
    5.4473   -1.3105   -0.0507 C   0  0  0  0  0  0  0  0  0  0  0  0
    6.7807   -1.3732    0.2477 C   0  0  0  0  0  0  0  0  0  0  0  0
    7.3808   -0.2907    0.8437 C   0  0  0  0  0  0  0  0  0  0  0  0
    6.5874    0.8349    1.1189 C   0  0  0  0  0  0  0  0  0  0  0  0
    5.2474    0.8358    0.7933 C   0  0  0  0  0  0  0  0  0  0  0  0
    1.0672   -3.0141   -1.7294 H   0  0  0  0  0  0  0  0  0  0  0  0
   -0.3790   -2.3365   -0.8592 H   0  0  0  0  0  0  0  0  0  0  0  0
   -0.0356   -1.7551   -2.5226 H   0  0  0  0  0  0  0  0  0  0  0  0
    3.0153   -2.1236   -0.9764 H   0  0  0  0  0  0  0  0  0  0  0  0
   -1.2622   -0.5366   -1.3749 H   0  0  0  0  0  0  0  0  0  0  0  0
   -0.7911    2.3646   -1.1213 H   0  0  0  0  0  0  0  0  0  0  0  0
   -1.0354    1.8161    0.5480 H   0  0  0  0  0  0  0  0  0  0  0  0
   -3.0404    2.9187   -0.4204 H   0  0  0  0  0  0  0  0  0  0  0  0
   -3.1326    1.7851   -1.7681 H   0  0  0  0  0  0  0  0  0  0  0  0
   -5.0739    2.5854    0.2186 H   0  0  0  0  0  0  0  0  0  0  0  0
   -5.2136    1.5967   -1.2585 H   0  0  0  0  0  0  0  0  0  0  0  0
   -6.2057    0.7707    1.5401 H   0  0  0  0  0  0  0  0  0  0  0  0
   -7.1286    1.1876    0.0825 H   0  0  0  0  0  0  0  0  0  0  0  0
   -4.9417   -2.1169   -0.4474 H   0  0  0  0  0  0  0  0  0  0  0  0
   -4.9198   -1.4858    1.2159 H   0  0  0  0  0  0  0  0  0  0  0  0
   -3.5333   -0.4899   -1.3154 H   0  0  0  0  0  0  0  0  0  0  0  0
   -2.8433   -0.8576    0.2937 H   0  0  0  0  0  0  0  0  0  0  0  0
    5.0063   -2.1896   -0.5237 H   0  0  0  0  0  0  0  0  0  0  0  0
    7.3835   -2.2359    0.0350 H   0  0  0  0  0  0  0  0  0  0  0  0
    8.4297   -0.3241    1.0854 H   0  0  0  0  0  0  0  0  0  0  0  0
    7.1400    1.6365    1.5876 H   0  0  0  0  0  0  0  0  0  0  0  0
    4.6828    1.7287    1.0270 H   0  0  0  0  0  0  0  0  0  0  0  0
  1  2  1  0
  2  3  2  0
  3  4  1  0
  4  5  2  0
  5  6  1  0
  6  7  2  0
  7  8  1  0
  8  9  1  0
  9 10  1  0
 10 11  1  0
 11 12  1  0
 12 13  1  0
 13 14  1  0
 14 15  1  0
 15 16  1  0
  4 17  1  0
 17 18  2  0
 18 19  1  0
 19 20  2  0
 20 21  1  0
 21 22  2  0
  7  2  1  0
 16 11  1  0
 22 17  1  0
  1 23  1  0
  1 24  1  0
  1 25  1  0
  3 26  1  0
  8 27  1  0
  9 28  1  0
  9 29  1  0
 10 30  1  0
 10 31  1  0
 12 32  1  0
 12 33  1  0
 13 34  1  0
 13 35  1  0
 15 36  1  0
 15 37  1  0
 16 38  1  0
 16 39  1  0
 18 40  1  0
 19 41  1  0
 20 42  1  0
 21 43  1  0
 22 44  1  0
M  END
$$$$
