
     RDKit          3D

 50 52  0  0  0  0  0  0  0  0999 V2000
   -5.0145    1.0229   -2.1992 O   0  0  0  0  0  0  0  0  0  0  0  0
   -4.3666    1.6073   -1.2774 C   0  0  0  0  0  0  0  0  0  0  0  0
   -4.5474    2.9857   -1.0327 N   0  0  0  0  0  0  0  0  0  0  0  0
   -5.4066    3.7206   -1.7636 O   0  0  0  0  0  0  0  0  0  0  0  0
   -3.4030    0.7913   -0.4549 C   0  0  1  0  0  0  0  0  0  0  0  0
   -3.6420    0.9681    1.0180 C   0  0  0  0  0  0  0  0  0  0  0  0
   -4.4748   -0.0852    1.6491 C   0  0  0  0  0  0  0  0  0  0  0  0
   -4.2687   -1.4706    1.1375 C   0  0  1  0  0  0  0  0  0  0  0  0
   -5.3903   -1.9897    0.4960 O   0  0  0  0  0  0  0  0  0  0  0  0
   -3.1176   -1.5032    0.1872 C   0  0  0  0  0  0  0  0  0  0  0  0
   -3.3803   -0.5724   -0.8772 N   0  0  0  0  0  0  0  0  0  0  0  0
   -2.2352   -0.8559   -2.1377 S   0  0  0  0  0  6  0  0  0  0  0  0
   -2.3277   -2.2573   -2.6567 O   0  0  0  0  0  0  0  0  0  0  0  0
   -2.4625    0.1061   -3.2789 O   0  0  0  0  0  0  0  0  0  0  0  0
   -0.6054   -0.5838   -1.5573 C   0  0  0  0  0  0  0  0  0  0  0  0
    0.0357    0.6319   -1.6385 C   0  0  0  0  0  0  0  0  0  0  0  0
    1.3274    0.8378   -1.1740 C   0  0  0  0  0  0  0  0  0  0  0  0
    2.0022   -0.2002   -0.6106 C   0  0  0  0  0  0  0  0  0  0  0  0
    3.2988   -0.0030   -0.1416 O   0  0  0  0  0  0  0  0  0  0  0  0
    4.0428   -1.0502    0.4525 C   0  0  0  0  0  0  0  0  0  0  0  0
    5.3719   -0.5152    0.8400 C   0  0  0  0  0  0  0  0  0  0  0  0
    5.5425    0.0281    2.0871 C   0  0  0  0  0  0  0  0  0  0  0  0
    6.7670    0.5219    2.4464 C   0  0  0  0  0  0  0  0  0  0  0  0
    7.8514    0.4931    1.5892 C   0  0  0  0  0  0  0  0  0  0  0  0
    7.6633   -0.0569    0.3381 C   0  0  0  0  0  0  0  0  0  0  0  0
    6.4172   -0.5620   -0.0344 C   0  0  0  0  0  0  0  0  0  0  0  0
    1.4128   -1.4358   -0.5029 C   0  0  0  0  0  0  0  0  0  0  0  0
    0.1300   -1.6181   -0.9704 C   0  0  0  0  0  0  0  0  0  0  0  0
   -4.0002    3.4344   -0.2690 H   0  0  0  0  0  0  0  0  0  0  0  0
   -5.1519    4.6771   -1.7985 H   0  0  0  0  0  0  0  0  0  0  0  0
   -2.4048    1.2278   -0.6747 H   0  0  0  0  0  0  0  0  0  0  0  0
   -2.6713    1.0323    1.5531 H   0  0  0  0  0  0  0  0  0  0  0  0
   -4.1176    1.9718    1.1476 H   0  0  0  0  0  0  0  0  0  0  0  0
   -5.5734    0.1812    1.6490 H   0  0  0  0  0  0  0  0  0  0  0  0
   -4.2191   -0.1080    2.7510 H   0  0  0  0  0  0  0  0  0  0  0  0
   -4.0299   -2.2090    1.9582 H   0  0  0  0  0  0  0  0  0  0  0  0
   -5.6776   -1.3500   -0.1818 H   0  0  0  0  0  0  0  0  0  0  0  0
   -2.1449   -1.3150    0.6903 H   0  0  0  0  0  0  0  0  0  0  0  0
   -3.0804   -2.5199   -0.2757 H   0  0  0  0  0  0  0  0  0  0  0  0
   -0.4879    1.4754   -2.0875 H   0  0  0  0  0  0  0  0  0  0  0  0
    1.7912    1.8309   -1.2646 H   0  0  0  0  0  0  0  0  0  0  0  0
    3.4862   -1.4105    1.3476 H   0  0  0  0  0  0  0  0  0  0  0  0
    4.2212   -1.8859   -0.2747 H   0  0  0  0  0  0  0  0  0  0  0  0
    4.7123    0.0719    2.7981 H   0  0  0  0  0  0  0  0  0  0  0  0
    6.8762    0.9491    3.4452 H   0  0  0  0  0  0  0  0  0  0  0  0
    8.8176    0.8790    1.8634 H   0  0  0  0  0  0  0  0  0  0  0  0
    8.4948   -0.0859   -0.3368 H   0  0  0  0  0  0  0  0  0  0  0  0
    6.3228   -0.9815   -1.0243 H   0  0  0  0  0  0  0  0  0  0  0  0
    1.9820   -2.2504   -0.0448 H   0  0  0  0  0  0  0  0  0  0  0  0
   -0.3656   -2.5700   -0.9042 H   0  0  0  0  0  0  0  0  0  0  0  0
  1  2  2  0
  2  3  1  0
  3  4  1  0
  2  5  1  0
  5  6  1  0
  6  7  1  0
  7  8  1  0
  8  9  1  0
  8 10  1  0
 10 11  1  0
 11 12  1  0
 12 13  2  0
 12 14  2  0
 12 15  1  0
 15 16  2  0
 16 17  1  0
 17 18  2  0
 18 19  1  0
 19 20  1  0
 20 21  1  0
 21 22  2  0
 22 23  1  0
 23 24  2  0
 24 25  1  0
 25 26  2  0
 18 27  1  0
 27 28  2  0
 11  5  1  0
 28 15  1  0
 26 21  1  0
  3 29  1  0
  4 30  1  0
  5 31  1  1
  6 32  1  0
  6 33  1  0
  7 34  1  0
  7 35  1  0
  8 36  1  1
  9 37  1  0
 10 38  1  0
 10 39  1  0
 16 40  1  0
 17 41  1  0
 20 42  1  0
 20 43  1  0
 22 44  1  0
 23 45  1  0
 24 46  1  0
 25 47  1  0
 26 48  1  0
 27 49  1  0
 28 50  1  0
M  END
$$$$
