
     RDKit          3D

 40 42  0  0  0  0  0  0  0  0999 V2000
    4.6104   -1.8786    2.8465 Cl  0  0  0  0  0  0  0  0  0  0  0  0
    3.6579   -1.9636    1.3790 C   0  0  0  0  0  0  0  0  0  0  0  0
    3.9528   -2.9021    0.4343 C   0  0  0  0  0  0  0  0  0  0  0  0
    3.1986   -2.9492   -0.6982 C   0  0  0  0  0  0  0  0  0  0  0  0
    2.1591   -2.0768   -0.8997 C   0  0  0  0  0  0  0  0  0  0  0  0
    1.8134   -1.0869    0.0480 C   0  0  0  0  0  0  0  0  0  0  0  0
    0.7898   -0.2800   -0.2263 O   0  0  0  0  0  0  0  0  0  0  0  0
    0.1033    0.7562    0.3077 C   0  0  0  0  0  0  0  0  0  0  0  0
    0.1116    1.9817   -0.5803 C   0  0  0  0  0  0  0  0  0  0  0  0
    0.2953    3.2035    0.0056 C   0  0  0  0  0  0  0  0  0  0  0  0
    0.3088    4.3253   -0.7980 C   0  0  0  0  0  0  0  0  0  0  0  0
    0.1400    4.2056   -2.1602 C   0  0  0  0  0  0  0  0  0  0  0  0
   -0.0365    2.9807   -2.6820 N   0  0  0  0  0  0  0  0  0  0  0  0
   -0.0541    1.8768   -1.9281 C   0  0  0  0  0  0  0  0  0  0  0  0
   -1.3791    0.4712    0.5303 C   0  0  0  0  0  0  0  0  0  0  0  0
   -2.0999    0.1275   -0.7530 C   0  0  0  0  0  0  0  0  0  0  0  0
   -3.4652   -0.4278   -0.3166 C   0  0  0  0  0  0  0  0  0  0  0  0
   -3.2589   -1.7893    0.1332 N   0  0  0  0  0  0  0  0  0  0  0  0
   -2.0070   -1.9423    0.8415 C   0  0  0  0  0  0  0  0  0  0  0  0
   -1.5736   -0.6578    1.5117 C   0  0  0  0  0  0  0  0  0  0  0  0
    2.5987   -1.0707    1.1793 C   0  0  0  0  0  0  0  0  0  0  0  0
    2.3397    0.0754    2.4761 Cl  0  0  0  0  0  0  0  0  0  0  0  0
    4.7834   -3.5743    0.6313 H   0  0  0  0  0  0  0  0  0  0  0  0
    3.4639   -3.7162   -1.4360 H   0  0  0  0  0  0  0  0  0  0  0  0
    1.6056   -2.1707   -1.8169 H   0  0  0  0  0  0  0  0  0  0  0  0
    0.4800    1.0715    1.2945 H   0  0  0  0  0  0  0  0  0  0  0  0
    0.4314    3.3081    1.0974 H   0  0  0  0  0  0  0  0  0  0  0  0
    0.4553    5.3191   -0.3475 H   0  0  0  0  0  0  0  0  0  0  0  0
    0.1513    5.0976   -2.7942 H   0  0  0  0  0  0  0  0  0  0  0  0
   -0.1964    0.9280   -2.4088 H   0  0  0  0  0  0  0  0  0  0  0  0
   -1.8947    1.3569    0.9552 H   0  0  0  0  0  0  0  0  0  0  0  0
   -2.3437    1.0175   -1.3650 H   0  0  0  0  0  0  0  0  0  0  0  0
   -1.5864   -0.6808   -1.3177 H   0  0  0  0  0  0  0  0  0  0  0  0
   -4.1641   -0.3504   -1.1513 H   0  0  0  0  0  0  0  0  0  0  0  0
   -3.8479    0.1584    0.5478 H   0  0  0  0  0  0  0  0  0  0  0  0
   -3.1966   -2.3864   -0.7276 H   0  0  0  0  0  0  0  0  0  0  0  0
   -1.2141   -2.3821    0.2018 H   0  0  0  0  0  0  0  0  0  0  0  0
   -2.1904   -2.6756    1.6559 H   0  0  0  0  0  0  0  0  0  0  0  0
   -2.3310   -0.4237    2.2937 H   0  0  0  0  0  0  0  0  0  0  0  0
   -0.6104   -0.8759    2.0271 H   0  0  0  0  0  0  0  0  0  0  0  0
  1  2  1  0
  2  3  2  0
  3  4  1  0
  4  5  2  0
  5  6  1  0
  6  7  1  0
  7  8  1  0
  8  9  1  0
  9 10  2  0
 10 11  1  0
 11 12  2  0
 12 13  1  0
 13 14  2  0
  8 15  1  0
 15 16  1  0
 16 17  1  0
 17 18  1  0
 18 19  1  0
 19 20  1  0
  6 21  2  0
 21 22  1  0
 21  2  1  0
 14  9  1  0
 20 15  1  0
  3 23  1  0
  4 24  1  0
  5 25  1  0
  8 26  1  0
 10 27  1  0
 11 28  1  0
 12 29  1  0
 14 30  1  0
 15 31  1  0
 16 32  1  0
 16 33  1  0
 17 34  1  0
 17 35  1  0
 18 36  1  0
 19 37  1  0
 19 38  1  0
 20 39  1  0
 20 40  1  0
M  END
$$$$
