
     RDKit          3D

 53 56  0  0  0  0  0  0  0  0999 V2000
   10.0121   -0.1542    3.5501 C   0  0  0  0  0  0  0  0  0  0  0  0
    8.7888   -0.1824    2.7283 C   0  0  0  0  0  0  0  0  0  0  0  0
    7.7880   -0.2143    2.0729 C   0  0  0  0  0  0  0  0  0  0  0  0
    6.6017   -0.2652    1.2703 C   0  0  0  0  0  0  0  0  0  0  0  0
    6.5237   -1.1207    0.1727 C   0  0  0  0  0  0  0  0  0  0  0  0
    5.3959   -1.1608   -0.5557 N   0  0  0  0  0  0  0  0  0  0  0  0
    4.3147   -0.3834   -0.2524 C   0  0  0  0  0  0  0  0  0  0  0  0
    3.1168   -0.4560   -1.0382 C   0  0  0  0  0  0  0  0  0  0  0  0
    3.1032   -1.3547   -2.0811 F   0  0  0  0  0  0  0  0  0  0  0  0
    2.0614    0.2753   -0.8020 C   0  0  0  0  0  0  0  0  0  0  0  0
    0.8564    0.1474   -1.6556 C   0  0  0  0  0  0  0  0  0  0  0  0
    0.9515   -0.0637   -3.0070 C   0  0  0  0  0  0  0  0  0  0  0  0
   -0.1529   -0.2332   -3.8140 C   0  0  0  0  0  0  0  0  0  0  0  0
   -1.4010   -0.1824   -3.2044 C   0  0  0  0  0  0  0  0  0  0  0  0
   -2.5072   -0.3514   -4.0031 F   0  0  0  0  0  0  0  0  0  0  0  0
   -1.5297    0.0293   -1.8505 C   0  0  0  0  0  0  0  0  0  0  0  0
   -2.9065    0.0186   -1.2641 C   0  0  1  0  0  0  0  0  0  0  0  0
   -3.6767    1.0563   -2.1321 C   0  0  0  0  0  0  0  0  0  0  0  0
   -3.4260   -1.2773   -1.4973 N   0  0  0  0  0  0  0  0  0  0  0  0
   -4.2709   -1.9550   -0.8408 C   0  0  0  0  0  0  0  0  0  0  0  0
   -4.6875   -3.2726   -1.2253 N   0  0  0  0  0  0  0  0  0  0  0  0
   -4.9511   -1.1963    0.6350 S   0  0  0  0  0  0  0  0  0  0  0  0
   -3.8892    0.1790    1.0661 C   0  0  1  0  0  0  0  0  0  0  0  0
   -4.5506    1.2372    1.8857 C   0  0  0  0  0  0  0  0  0  0  0  0
   -3.9539    1.8752    2.8035 O   0  0  0  0  0  0  0  0  0  0  0  0
   -5.8962    1.5441    1.6305 N   0  0  0  0  0  0  0  0  0  0  0  0
   -6.6187    2.5623    2.3798 C   0  0  0  0  0  0  0  0  0  0  0  0
   -2.4520   -0.1799    1.3146 C   0  0  0  0  0  0  0  0  0  0  0  0
   -2.8478    0.5424    0.1106 C   0  0  1  0  0  0  0  0  0  0  0  0
   -0.4181    0.1969   -1.0626 C   0  0  0  0  0  0  0  0  0  0  0  0
    4.4083    0.4479    0.8238 C   0  0  0  0  0  0  0  0  0  0  0  0
    5.5488    0.4831    1.5539 N   0  0  0  0  0  0  0  0  0  0  0  0
    9.8444   -0.6582    4.5269 H   0  0  0  0  0  0  0  0  0  0  0  0
   10.8264   -0.6568    2.9552 H   0  0  0  0  0  0  0  0  0  0  0  0
   10.3076    0.9074    3.7477 H   0  0  0  0  0  0  0  0  0  0  0  0
    7.3983   -1.7237   -0.0406 H   0  0  0  0  0  0  0  0  0  0  0  0
    2.0501    0.9700    0.0093 H   0  0  0  0  0  0  0  0  0  0  0  0
    1.9027   -0.1037   -3.5115 H   0  0  0  0  0  0  0  0  0  0  0  0
   -0.1103   -0.3965   -4.8651 H   0  0  0  0  0  0  0  0  0  0  0  0
   -2.9883    1.5899   -2.7980 H   0  0  0  0  0  0  0  0  0  0  0  0
   -4.4337    0.5173   -2.7441 H   0  0  0  0  0  0  0  0  0  0  0  0
   -4.1762    1.7847   -1.4778 H   0  0  0  0  0  0  0  0  0  0  0  0
   -4.3637   -3.6997   -2.0936 H   0  0  0  0  0  0  0  0  0  0  0  0
   -5.3275   -3.7844   -0.5967 H   0  0  0  0  0  0  0  0  0  0  0  0
   -6.3883    1.0176    0.8776 H   0  0  0  0  0  0  0  0  0  0  0  0
   -6.6488    2.2036    3.4446 H   0  0  0  0  0  0  0  0  0  0  0  0
   -7.6599    2.6765    1.9586 H   0  0  0  0  0  0  0  0  0  0  0  0
   -6.1445    3.5575    2.2850 H   0  0  0  0  0  0  0  0  0  0  0  0
   -1.9079    0.3601    2.1439 H   0  0  0  0  0  0  0  0  0  0  0  0
   -2.1032   -1.2159    1.1759 H   0  0  0  0  0  0  0  0  0  0  0  0
   -2.5710    1.6466    0.1293 H   0  0  0  0  0  0  0  0  0  0  0  0
   -0.4691    0.3701   -0.0087 H   0  0  0  0  0  0  0  0  0  0  0  0
    3.6278    1.1079    1.1706 H   0  0  0  0  0  0  0  0  0  0  0  0
  1  2  1  0
  2  3  3  0
  3  4  1  0
  4  5  2  0
  5  6  1  0
  6  7  2  0
  7  8  1  0
  8  9  1  0
  8 10  2  0
 10 11  1  0
 11 12  2  0
 12 13  1  0
 13 14  2  0
 14 15  1  0
 14 16  1  0
 16 17  1  0
 17 18  1  6
 17 19  1  0
 19 20  2  0
 20 21  1  0
 20 22  1  0
 22 23  1  0
 23 24  1  1
 24 25  2  0
 24 26  1  0
 26 27  1  0
 23 28  1  0
 28 29  1  0
 16 30  2  0
  7 31  1  0
 31 32  2  0
 32  4  1  0
 30 11  1  0
 29 17  1  0
 29 23  1  0
  1 33  1  0
  1 34  1  0
  1 35  1  0
  5 36  1  0
 10 37  1  0
 12 38  1  0
 13 39  1  0
 18 40  1  0
 18 41  1  0
 18 42  1  0
 21 43  1  0
 21 44  1  0
 26 45  1  0
 27 46  1  0
 27 47  1  0
 27 48  1  0
 28 49  1  0
 28 50  1  0
 29 51  1  6
 30 52  1  0
 31 53  1  0
M  END
$$$$
