
     RDKit          3D

 75 82  0  0  0  0  0  0  0  0999 V2000
  -10.9664    4.0351   -0.8986 Cl  0  0  0  0  0  0  0  0  0  0  0  0
  -10.0886    4.1206    0.6501 C   0  0  0  0  0  0  0  0  0  0  0  0
   -9.2641    2.8796    0.7746 C   0  0  0  0  0  0  0  0  0  0  0  0
   -9.6254    1.7039    1.3314 N   0  0  0  0  0  0  0  0  0  0  0  0
   -8.6226    0.8535    1.2489 N   0  0  0  0  0  0  0  0  0  0  0  0
   -7.5974    1.4640    0.6382 C   0  0  0  0  0  0  0  0  0  0  0  0
   -6.3321    0.9728    0.3276 C   0  0  0  0  0  0  0  0  0  0  0  0
   -5.9381   -0.3145    0.6342 C   0  0  0  0  0  0  0  0  0  0  0  0
   -4.6821   -0.7916    0.3219 C   0  0  0  0  0  0  0  0  0  0  0  0
   -4.2757   -2.1526    0.6486 C   0  0  0  0  0  0  0  0  0  0  0  0
   -4.2460   -2.5537    1.9628 C   0  0  0  0  0  0  0  0  0  0  0  0
   -3.8661   -3.8413    2.3302 C   0  0  0  0  0  0  0  0  0  0  0  0
   -3.5047   -4.7585    1.3638 C   0  0  0  0  0  0  0  0  0  0  0  0
   -3.5317   -4.3645    0.0433 C   0  0  0  0  0  0  0  0  0  0  0  0
   -3.9147   -3.0693   -0.3146 C   0  0  0  0  0  0  0  0  0  0  0  0
   -3.8234    0.0925   -0.3218 C   0  0  0  0  0  0  0  0  0  0  0  0
   -2.4837   -0.3741   -0.6668 C   0  0  0  0  0  0  0  0  0  0  0  0
   -1.6214   -0.7357    0.3485 C   0  0  0  0  0  0  0  0  0  0  0  0
   -0.3656   -1.1740    0.0283 C   0  0  0  0  0  0  0  0  0  0  0  0
    0.0288   -1.2525   -1.2774 C   0  0  0  0  0  0  0  0  0  0  0  0
    1.3722   -1.7179   -1.6422 C   0  0  0  0  0  0  0  0  0  0  0  0
    2.3501   -0.7100   -1.7493 N   0  0  0  0  0  0  0  0  0  0  0  0
    3.6697   -1.0961   -2.0931 C   0  0  0  0  0  0  0  0  0  0  0  0
    4.5186    0.0656   -2.5213 C   0  0  0  0  0  0  0  0  0  0  0  0
    4.6606    0.9959   -1.3508 C   0  0  0  0  0  0  0  0  0  0  0  0
    5.6325    0.3750   -0.3930 C   0  0  0  0  0  0  0  0  0  0  0  0
    5.5213   -0.6974    0.3811 N   0  0  0  0  0  0  0  0  0  0  0  0
    6.6666   -0.8413    1.0570 N   0  0  0  0  0  0  0  0  0  0  0  0
    7.5088    0.1391    0.7141 C   0  0  0  0  0  0  0  0  0  0  0  0
    8.8650    0.3461    1.2234 C   0  0  0  0  0  0  0  0  0  0  0  0
    9.4307   -0.5007    2.1572 C   0  0  0  0  0  0  0  0  0  0  0  0
   10.7044   -0.3174    2.6448 C   0  0  0  0  0  0  0  0  0  0  0  0
   11.4459    0.7500    2.1860 C   0  0  0  0  0  0  0  0  0  0  0  0
   10.8790    1.5938    1.2539 C   0  0  0  0  0  0  0  0  0  0  0  0
    9.6259    1.3710    0.8071 N   0  0  0  0  0  0  0  0  0  0  0  0
    6.8696    0.8908   -0.1822 N   0  0  0  0  0  0  0  0  0  0  0  0
    3.3585    1.3005   -0.7391 C   0  0  0  0  0  0  0  0  0  0  0  0
    2.1689    0.5194   -1.1243 C   0  0  0  0  0  0  0  0  0  0  0  0
   -0.8153   -0.8956   -2.3309 C   0  0  0  0  0  0  0  0  0  0  0  0
   -2.0708   -0.4591   -1.9757 C   0  0  0  0  0  0  0  0  0  0  0  0
   -4.2084    1.3559   -0.6234 N   0  0  0  0  0  0  0  0  0  0  0  0
   -5.4393    1.8079   -0.3119 C   0  0  0  0  0  0  0  0  0  0  0  0
   -5.8490    3.0883   -0.6099 C   0  0  0  0  0  0  0  0  0  0  0  0
   -7.1215    3.5329   -0.2800 C   0  0  0  0  0  0  0  0  0  0  0  0
   -7.9960    2.6988    0.3520 N   0  0  0  0  0  0  0  0  0  0  0  0
  -10.7835    4.1711    1.5152 H   0  0  0  0  0  0  0  0  0  0  0  0
   -9.4480    5.0256    0.6234 H   0  0  0  0  0  0  0  0  0  0  0  0
   -6.6376   -0.9839    1.1404 H   0  0  0  0  0  0  0  0  0  0  0  0
   -4.5251   -1.8499    2.7327 H   0  0  0  0  0  0  0  0  0  0  0  0
   -3.8370   -4.1726    3.3543 H   0  0  0  0  0  0  0  0  0  0  0  0
   -3.2088   -5.7634    1.6586 H   0  0  0  0  0  0  0  0  0  0  0  0
   -3.2490   -5.0807   -0.7165 H   0  0  0  0  0  0  0  0  0  0  0  0
   -3.9423   -2.7435   -1.3331 H   0  0  0  0  0  0  0  0  0  0  0  0
   -1.9555   -0.6664    1.3993 H   0  0  0  0  0  0  0  0  0  0  0  0
    0.3151   -1.4577    0.8048 H   0  0  0  0  0  0  0  0  0  0  0  0
    1.6952   -2.4414   -0.8400 H   0  0  0  0  0  0  0  0  0  0  0  0
    1.3074   -2.3326   -2.5734 H   0  0  0  0  0  0  0  0  0  0  0  0
    3.6234   -1.8476   -2.9189 H   0  0  0  0  0  0  0  0  0  0  0  0
    4.1545   -1.6151   -1.2470 H   0  0  0  0  0  0  0  0  0  0  0  0
    5.5067   -0.2940   -2.8907 H   0  0  0  0  0  0  0  0  0  0  0  0
    3.9471    0.5677   -3.3489 H   0  0  0  0  0  0  0  0  0  0  0  0
    5.1103    1.9761   -1.7042 H   0  0  0  0  0  0  0  0  0  0  0  0
    8.8392   -1.3447    2.5174 H   0  0  0  0  0  0  0  0  0  0  0  0
   11.1565   -0.9776    3.3777 H   0  0  0  0  0  0  0  0  0  0  0  0
   12.4677    0.9348    2.5488 H   0  0  0  0  0  0  0  0  0  0  0  0
   11.4103    2.4535    0.8520 H   0  0  0  0  0  0  0  0  0  0  0  0
    7.3034    1.7339   -0.6206 H   0  0  0  0  0  0  0  0  0  0  0  0
    3.1534    2.4087   -0.8538 H   0  0  0  0  0  0  0  0  0  0  0  0
    3.5102    1.2204    0.3854 H   0  0  0  0  0  0  0  0  0  0  0  0
    1.5214    1.1702   -1.7871 H   0  0  0  0  0  0  0  0  0  0  0  0
    1.5206    0.3755   -0.2086 H   0  0  0  0  0  0  0  0  0  0  0  0
   -0.5096   -0.9557   -3.3610 H   0  0  0  0  0  0  0  0  0  0  0  0
   -2.8036   -0.1571   -2.7287 H   0  0  0  0  0  0  0  0  0  0  0  0
   -5.1970    3.7879   -1.1087 H   0  0  0  0  0  0  0  0  0  0  0  0
   -7.4727    4.5235   -0.4975 H   0  0  0  0  0  0  0  0  0  0  0  0
  1  2  1  0
  2  3  1  0
  3  4  2  0
  4  5  1  0
  5  6  2  0
  6  7  1  0
  7  8  2  0
  8  9  1  0
  9 10  1  0
 10 11  2  0
 11 12  1  0
 12 13  2  0
 13 14  1  0
 14 15  2  0
  9 16  2  0
 16 17  1  0
 17 18  2  0
 18 19  1  0
 19 20  2  0
 20 21  1  0
 21 22  1  0
 22 23  1  0
 23 24  1  0
 24 25  1  0
 25 26  1  0
 26 27  2  0
 27 28  1  0
 28 29  2  0
 29 30  1  0
 30 31  2  0
 31 32  1  0
 32 33  2  0
 33 34  1  0
 34 35  2  0
 29 36  1  0
 25 37  1  0
 37 38  1  0
 20 39  1  0
 39 40  2  0
 16 41  1  0
 41 42  2  0
 42 43  1  0
 43 44  2  0
 44 45  1  0
 45  3  1  0
 45  6  1  0
 42  7  1  0
 15 10  1  0
 40 17  1  0
 38 22  1  0
 36 26  1  0
 35 30  1  0
  2 46  1  0
  2 47  1  0
  8 48  1  0
 11 49  1  0
 12 50  1  0
 13 51  1  0
 14 52  1  0
 15 53  1  0
 18 54  1  0
 19 55  1  0
 21 56  1  0
 21 57  1  0
 23 58  1  0
 23 59  1  0
 24 60  1  0
 24 61  1  0
 25 62  1  0
 31 63  1  0
 32 64  1  0
 33 65  1  0
 34 66  1  0
 36 67  1  0
 37 68  1  0
 37 69  1  0
 38 70  1  0
 38 71  1  0
 39 72  1  0
 40 73  1  0
 43 74  1  0
 44 75  1  0
M  END
$$$$
