
     RDKit          3D

 55 58  0  0  0  0  0  0  0  0999 V2000
    4.5113    1.4880   -2.2254 C   0  0  0  0  0  0  0  0  0  0  0  0
    3.8478    1.2782   -0.8602 C   0  0  1  0  0  0  0  0  0  0  0  0
    2.3819    1.1258   -1.0228 C   0  0  0  0  0  0  0  0  0  0  0  0
    1.9135    1.1376   -2.1985 O   0  0  0  0  0  0  0  0  0  0  0  0
    1.4934    0.9694    0.0622 N   0  0  0  0  0  0  0  0  0  0  0  0
    2.0029    0.9596    1.4137 C   0  0  0  0  0  0  0  0  0  0  0  0
    0.0994    0.8193   -0.1668 C   0  0  2  0  0  0  0  0  0  0  0  0
   -0.6998    1.8956    0.5353 C   0  0  0  0  0  0  0  0  0  0  0  0
   -2.0353    1.9553   -0.1729 C   0  0  0  0  0  0  0  0  0  0  0  0
   -2.6229    0.5913   -0.1079 C   0  0  0  0  0  0  0  0  0  0  0  0
   -3.9545    0.1972   -0.2570 C   0  0  0  0  0  0  0  0  0  0  0  0
   -5.0514    1.1341   -0.5156 C   0  0  0  0  0  0  0  0  0  0  0  0
   -5.4664    1.8938    0.6790 C   0  0  0  0  0  0  0  0  0  0  0  0
   -4.9398    1.7603    1.8117 O   0  0  0  0  0  0  0  0  0  0  0  0
   -6.4982    2.8122    0.5540 O   0  0  0  0  0  0  0  0  0  0  0  0
   -4.0106   -1.1723   -0.1165 C   0  0  0  0  0  0  0  0  0  0  0  0
   -5.0601   -2.0617   -0.1712 C   0  0  0  0  0  0  0  0  0  0  0  0
   -4.8677   -3.4236    0.0045 C   0  0  0  0  0  0  0  0  0  0  0  0
   -3.5823   -3.8562    0.2368 C   0  0  0  0  0  0  0  0  0  0  0  0
   -2.5394   -2.9607    0.2899 C   0  0  0  0  0  0  0  0  0  0  0  0
   -2.7251   -1.5990    0.1151 C   0  0  0  0  0  0  0  0  0  0  0  0
   -1.8973   -0.5172    0.1170 N   0  0  0  0  0  0  0  0  0  0  0  0
   -0.4484   -0.5036    0.3237 C   0  0  0  0  0  0  0  0  0  0  0  0
    4.4492    0.0919   -0.1910 C   0  0  0  0  0  0  0  0  0  0  0  0
    4.2181   -1.1479   -0.7544 C   0  0  0  0  0  0  0  0  0  0  0  0
    4.7700   -2.2566   -0.1491 C   0  0  0  0  0  0  0  0  0  0  0  0
    5.5387   -2.1347    0.9967 C   0  0  0  0  0  0  0  0  0  0  0  0
    6.0530   -3.2614    1.5436 F   0  0  0  0  0  0  0  0  0  0  0  0
    5.7640   -0.8938    1.5518 C   0  0  0  0  0  0  0  0  0  0  0  0
    5.2167    0.2180    0.9541 C   0  0  0  0  0  0  0  0  0  0  0  0
    5.4401    2.0442   -2.0322 H   0  0  0  0  0  0  0  0  0  0  0  0
    4.7035    0.4980   -2.7091 H   0  0  0  0  0  0  0  0  0  0  0  0
    3.8390    2.1293   -2.8194 H   0  0  0  0  0  0  0  0  0  0  0  0
    4.0662    2.1629   -0.2535 H   0  0  0  0  0  0  0  0  0  0  0  0
    2.8125    1.7059    1.5462 H   0  0  0  0  0  0  0  0  0  0  0  0
    1.1693    1.1644    2.1214 H   0  0  0  0  0  0  0  0  0  0  0  0
    2.4241   -0.0258    1.6959 H   0  0  0  0  0  0  0  0  0  0  0  0
   -0.1331    0.8477   -1.2719 H   0  0  0  0  0  0  0  0  0  0  0  0
   -0.1884    2.8754    0.5470 H   0  0  0  0  0  0  0  0  0  0  0  0
   -0.9244    1.5280    1.5784 H   0  0  0  0  0  0  0  0  0  0  0  0
   -1.8008    2.1700   -1.2478 H   0  0  0  0  0  0  0  0  0  0  0  0
   -2.7041    2.7175    0.2748 H   0  0  0  0  0  0  0  0  0  0  0  0
   -5.9092    0.6639   -1.0606 H   0  0  0  0  0  0  0  0  0  0  0  0
   -4.6610    1.9032   -1.2461 H   0  0  0  0  0  0  0  0  0  0  0  0
   -6.9914    3.1671    1.3638 H   0  0  0  0  0  0  0  0  0  0  0  0
   -6.0330   -1.6790   -0.3527 H   0  0  0  0  0  0  0  0  0  0  0  0
   -5.7204   -4.0857   -0.0466 H   0  0  0  0  0  0  0  0  0  0  0  0
   -3.4360   -4.9215    0.3740 H   0  0  0  0  0  0  0  0  0  0  0  0
   -1.5511   -3.3471    0.4743 H   0  0  0  0  0  0  0  0  0  0  0  0
   -0.1816   -0.6838    1.3847 H   0  0  0  0  0  0  0  0  0  0  0  0
   -0.0301   -1.3314   -0.2847 H   0  0  0  0  0  0  0  0  0  0  0  0
    3.6085   -1.2377   -1.6614 H   0  0  0  0  0  0  0  0  0  0  0  0
    4.5888   -3.2332   -0.5908 H   0  0  0  0  0  0  0  0  0  0  0  0
    6.3559   -0.7782    2.4379 H   0  0  0  0  0  0  0  0  0  0  0  0
    5.3959    1.2073    1.3953 H   0  0  0  0  0  0  0  0  0  0  0  0
  1  2  1  0
  2  3  1  0
  3  4  2  0
  3  5  1  0
  5  6  1  0
  5  7  1  0
  7  8  1  0
  8  9  1  0
  9 10  1  0
 10 11  2  0
 11 12  1  0
 12 13  1  0
 13 14  2  0
 13 15  1  0
 11 16  1  0
 16 17  2  0
 17 18  1  0
 18 19  2  0
 19 20  1  0
 20 21  2  0
 21 22  1  0
 22 23  1  0
  2 24  1  0
 24 25  2  0
 25 26  1  0
 26 27  2  0
 27 28  1  0
 27 29  1  0
 29 30  2  0
 23  7  1  0
 30 24  1  0
 22 10  1  0
 21 16  1  0
  1 31  1  0
  1 32  1  0
  1 33  1  0
  2 34  1  1
  6 35  1  0
  6 36  1  0
  6 37  1  0
  7 38  1  6
  8 39  1  0
  8 40  1  0
  9 41  1  0
  9 42  1  0
 12 43  1  0
 12 44  1  0
 15 45  1  0
 17 46  1  0
 18 47  1  0
 19 48  1  0
 20 49  1  0
 23 50  1  0
 23 51  1  0
 25 52  1  0
 26 53  1  0
 29 54  1  0
 30 55  1  0
M  END
$$$$
