
     RDKit          3D

 43 45  0  0  0  0  0  0  0  0999 V2000
    6.4412   -2.8356    1.7195 C   0  0  0  0  0  0  0  0  0  0  0  0
    5.5828   -2.0552    1.3068 C   0  0  0  0  0  0  0  0  0  0  0  0
    4.5650   -1.1293    0.8139 C   0  0  0  0  0  0  0  0  0  0  0  0
    5.0811   -0.5201   -0.3803 N   0  0  0  0  0  0  0  0  0  0  0  0
    5.2144   -1.4356   -1.4787 C   0  0  0  0  0  0  0  0  0  0  0  0
    4.4459    0.7158   -0.7248 C   0  0  0  0  0  0  0  0  0  0  0  0
    3.0084    0.6026   -0.9890 C   0  0  0  0  0  0  0  0  0  0  0  0
    2.0292    0.7404   -0.0406 C   0  0  0  0  0  0  0  0  0  0  0  0
    0.8027    0.5696   -0.6384 C   0  0  0  0  0  0  0  0  0  0  0  0
   -0.5089    0.5952   -0.1919 C   0  0  0  0  0  0  0  0  0  0  0  0
   -1.5786    0.3854   -1.0270 C   0  0  0  0  0  0  0  0  0  0  0  0
   -2.8961    0.4058   -0.6071 O   0  0  0  0  0  0  0  0  0  0  0  0
   -3.1734    0.6571    0.7560 C   0  0  0  0  0  0  0  0  0  0  0  0
   -4.6329    0.6405    1.0259 C   0  0  0  0  0  0  0  0  0  0  0  0
   -5.2860   -0.5320    1.3738 C   0  0  0  0  0  0  0  0  0  0  0  0
   -6.6352   -0.5287    1.6225 C   0  0  0  0  0  0  0  0  0  0  0  0
   -7.4065    0.6266    1.5411 C   0  0  0  0  0  0  0  0  0  0  0  0
   -6.7607    1.7980    1.1949 C   0  0  0  0  0  0  0  0  0  0  0  0
   -5.4053    1.7788    0.9482 C   0  0  0  0  0  0  0  0  0  0  0  0
   -1.3193    0.1395   -2.3683 C   0  0  0  0  0  0  0  0  0  0  0  0
   -0.0172    0.1135   -2.8136 C   0  0  0  0  0  0  0  0  0  0  0  0
    1.0361    0.3276   -1.9519 C   0  0  0  0  0  0  0  0  0  0  0  0
    2.3849    0.3514   -2.1480 N   0  0  0  0  0  0  0  0  0  0  0  0
    7.1656   -3.4981    2.0496 H   0  0  0  0  0  0  0  0  0  0  0  0
    3.6123   -1.6402    0.6942 H   0  0  0  0  0  0  0  0  0  0  0  0
    4.4883   -0.3073    1.5798 H   0  0  0  0  0  0  0  0  0  0  0  0
    4.2733   -1.9690   -1.7175 H   0  0  0  0  0  0  0  0  0  0  0  0
    5.9422   -2.2172   -1.1752 H   0  0  0  0  0  0  0  0  0  0  0  0
    5.6598   -0.8956   -2.3289 H   0  0  0  0  0  0  0  0  0  0  0  0
    4.6166    1.4171    0.1389 H   0  0  0  0  0  0  0  0  0  0  0  0
    5.0069    1.1707   -1.5728 H   0  0  0  0  0  0  0  0  0  0  0  0
    2.1627    0.9476    1.0057 H   0  0  0  0  0  0  0  0  0  0  0  0
   -0.6880    0.7876    0.8520 H   0  0  0  0  0  0  0  0  0  0  0  0
   -2.7786    1.6827    0.9553 H   0  0  0  0  0  0  0  0  0  0  0  0
   -2.7048   -0.1125    1.3706 H   0  0  0  0  0  0  0  0  0  0  0  0
   -4.6739   -1.4341    1.4348 H   0  0  0  0  0  0  0  0  0  0  0  0
   -7.1475   -1.4382    1.8934 H   0  0  0  0  0  0  0  0  0  0  0  0
   -8.4650    0.6159    1.7389 H   0  0  0  0  0  0  0  0  0  0  0  0
   -7.3559    2.7028    1.1296 H   0  0  0  0  0  0  0  0  0  0  0  0
   -4.9019    2.6986    0.6780 H   0  0  0  0  0  0  0  0  0  0  0  0
   -2.1347   -0.0333   -3.0672 H   0  0  0  0  0  0  0  0  0  0  0  0
    0.1531   -0.0816   -3.8687 H   0  0  0  0  0  0  0  0  0  0  0  0
    2.7977    0.1924   -3.0769 H   0  0  0  0  0  0  0  0  0  0  0  0
  1  2  3  0
  2  3  1  0
  3  4  1  0
  4  5  1  0
  4  6  1  0
  6  7  1  0
  7  8  2  0
  8  9  1  0
  9 10  2  0
 10 11  1  0
 11 12  1  0
 12 13  1  0
 13 14  1  0
 14 15  2  0
 15 16  1  0
 16 17  2  0
 17 18  1  0
 18 19  2  0
 11 20  2  0
 20 21  1  0
 21 22  2  0
 22 23  1  0
 23  7  1  0
 22  9  1  0
 19 14  1  0
  1 24  1  0
  3 25  1  0
  3 26  1  0
  5 27  1  0
  5 28  1  0
  5 29  1  0
  6 30  1  0
  6 31  1  0
  8 32  1  0
 10 33  1  0
 13 34  1  0
 13 35  1  0
 15 36  1  0
 16 37  1  0
 17 38  1  0
 18 39  1  0
 19 40  1  0
 20 41  1  0
 21 42  1  0
 23 43  1  0
M  END
$$$$
