
     RDKit          3D

 41 45  0  0  0  0  0  0  0  0999 V2000
   -3.7428    2.3842    1.0304 O   0  0  0  0  0  0  0  0  0  0  0  0
   -3.1220    1.3547    0.6715 C   0  0  0  0  0  0  0  0  0  0  0  0
   -3.8320    0.3131   -0.0402 C   0  0  0  0  0  0  0  0  0  0  0  0
   -3.5492   -1.0153    0.0227 C   0  0  0  0  0  0  0  0  0  0  0  0
   -4.2417   -1.9419   -0.7164 C   0  0  0  0  0  0  0  0  0  0  0  0
   -5.2541   -1.5186   -1.5460 C   0  0  0  0  0  0  0  0  0  0  0  0
   -5.5622   -0.1768   -1.6274 C   0  0  0  0  0  0  0  0  0  0  0  0
   -4.8510    0.7258   -0.8758 C   0  0  0  0  0  0  0  0  0  0  0  0
   -1.6822    1.1640    0.9511 C   0  0  0  0  0  0  0  0  0  0  0  0
   -1.1351    1.7680    2.0191 N   0  0  0  0  0  0  0  0  0  0  0  0
    0.1820    1.6505    2.2580 C   0  0  0  0  0  0  0  0  0  0  0  0
    0.7415    2.2766    3.3748 C   0  0  0  0  0  0  0  0  0  0  0  0
    2.0799    2.1833    3.6681 C   0  0  0  0  0  0  0  0  0  0  0  0
    2.8852    1.4522    2.8352 C   0  0  0  0  0  0  0  0  0  0  0  0
    2.3833    0.7991    1.6966 C   0  0  0  0  0  0  0  0  0  0  0  0
    1.0407    0.9263    1.4515 C   0  0  0  0  0  0  0  0  0  0  0  0
    0.4903    0.3206    0.3769 N   0  0  0  0  0  0  0  0  0  0  0  0
    1.0507   -0.4070   -0.5721 C   0  0  0  0  0  0  0  0  0  0  0  0
    2.3980   -0.8721   -0.8663 C   0  0  0  0  0  0  0  0  0  0  0  0
    2.8766   -2.0891   -0.4520 C   0  0  0  0  0  0  0  0  0  0  0  0
    4.1351   -2.4935   -0.7970 C   0  0  0  0  0  0  0  0  0  0  0  0
    4.9641   -1.7052   -1.5654 C   0  0  0  0  0  0  0  0  0  0  0  0
    4.4678   -0.4795   -1.9765 C   0  0  0  0  0  0  0  0  0  0  0  0
    3.2049   -0.0579   -1.6385 C   0  0  0  0  0  0  0  0  0  0  0  0
    2.6027    1.5226   -2.1852 Cl  0  0  0  0  0  0  0  0  0  0  0  0
    0.0345   -0.7512   -1.4287 N   0  0  0  0  0  0  0  0  0  0  0  0
   -1.0864   -0.2398   -0.9950 N   0  0  0  0  0  0  0  0  0  0  0  0
   -0.8410    0.4471    0.1481 C   0  0  0  0  0  0  0  0  0  0  0  0
   -2.7626   -1.3592    0.7104 H   0  0  0  0  0  0  0  0  0  0  0  0
   -4.0005   -3.0049   -0.6511 H   0  0  0  0  0  0  0  0  0  0  0  0
   -5.8039   -2.2269   -2.1297 H   0  0  0  0  0  0  0  0  0  0  0  0
   -6.3537    0.1792   -2.2706 H   0  0  0  0  0  0  0  0  0  0  0  0
   -5.1291    1.7795   -0.9733 H   0  0  0  0  0  0  0  0  0  0  0  0
    0.0652    2.8498    4.0169 H   0  0  0  0  0  0  0  0  0  0  0  0
    2.4962    2.6855    4.5500 H   0  0  0  0  0  0  0  0  0  0  0  0
    3.9530    1.3722    3.0631 H   0  0  0  0  0  0  0  0  0  0  0  0
    3.0660    0.2351    1.0885 H   0  0  0  0  0  0  0  0  0  0  0  0
    2.2295   -2.7318    0.1626 H   0  0  0  0  0  0  0  0  0  0  0  0
    4.5566   -3.4581   -0.4874 H   0  0  0  0  0  0  0  0  0  0  0  0
    5.9392   -2.0312   -1.8253 H   0  0  0  0  0  0  0  0  0  0  0  0
    5.1062    0.1707   -2.5870 H   0  0  0  0  0  0  0  0  0  0  0  0
  1  2  2  0
  2  3  1  0
  3  4  2  0
  4  5  1  0
  5  6  2  0
  6  7  1  0
  7  8  2  0
  2  9  1  0
  9 10  2  0
 10 11  1  0
 11 12  2  0
 12 13  1  0
 13 14  2  0
 14 15  1  0
 15 16  2  0
 16 17  1  0
 17 18  1  0
 18 19  1  0
 19 20  2  0
 20 21  1  0
 21 22  2  0
 22 23  1  0
 23 24  2  0
 24 25  1  0
 18 26  2  0
 26 27  1  0
 27 28  2  0
  8  3  1  0
 28  9  1  0
 16 11  1  0
 28 17  1  0
 24 19  1  0
  4 29  1  0
  5 30  1  0
  6 31  1  0
  7 32  1  0
  8 33  1  0
 12 34  1  0
 13 35  1  0
 14 36  1  0
 15 37  1  0
 20 38  1  0
 21 39  1  0
 22 40  1  0
 23 41  1  0
M  END
$$$$
