
     RDKit          3D

 51 54  0  0  0  0  0  0  0  0999 V2000
    8.4427    2.0761    0.2118 C   0  0  0  0  0  0  0  0  0  0  0  0
    7.8055    0.8477    0.4578 O   0  0  0  0  0  0  0  0  0  0  0  0
    6.4253    0.7388    0.3656 C   0  0  0  0  0  0  0  0  0  0  0  0
    5.7806   -0.4556    0.6028 C   0  0  0  0  0  0  0  0  0  0  0  0
    4.3882   -0.4957    0.4928 C   0  0  0  0  0  0  0  0  0  0  0  0
    3.6306    0.5966    0.1600 C   0  0  0  0  0  0  0  0  0  0  0  0
    2.1596    0.5459    0.0454 C   0  0  0  0  0  0  0  0  0  0  0  0
    1.4793   -0.6239    0.2683 C   0  0  0  0  0  0  0  0  0  0  0  0
    0.0806   -0.6993    0.1659 C   0  0  0  0  0  0  0  0  0  0  0  0
   -0.6242   -1.9514    0.4065 C   0  0  0  0  0  0  0  0  0  0  0  0
   -0.5722   -2.6072    1.6190 C   0  0  0  0  0  0  0  0  0  0  0  0
   -1.2198   -3.7815    1.8814 C   0  0  0  0  0  0  0  0  0  0  0  0
   -1.9843   -4.3689    0.8773 C   0  0  0  0  0  0  0  0  0  0  0  0
   -2.0540   -3.7344   -0.3459 C   0  0  0  0  0  0  0  0  0  0  0  0
   -1.3925   -2.5463   -0.5953 C   0  0  0  0  0  0  0  0  0  0  0  0
   -0.5495    0.4734   -0.1705 C   0  0  0  0  0  0  0  0  0  0  0  0
   -1.9882    0.5111   -0.3031 C   0  0  0  0  0  0  0  0  0  0  0  0
   -2.6220    0.8432   -1.4883 C   0  0  0  0  0  0  0  0  0  0  0  0
   -3.9983    0.8664   -1.5692 C   0  0  0  0  0  0  0  0  0  0  0  0
   -4.8064    0.5652   -0.4922 C   0  0  0  0  0  0  0  0  0  0  0  0
   -6.5524    0.5976   -0.6033 S   0  0  0  0  0  6  0  0  0  0  0  0
   -7.0705    2.2492   -0.1758 C   0  0  0  0  0  0  0  0  0  0  0  0
   -6.9758    0.2864   -2.0027 O   0  0  0  0  0  0  0  0  0  0  0  0
   -7.1710   -0.3738    0.3797 O   0  0  0  0  0  0  0  0  0  0  0  0
   -4.1557    0.2349    0.6863 C   0  0  0  0  0  0  0  0  0  0  0  0
   -2.7822    0.2076    0.7817 C   0  0  0  0  0  0  0  0  0  0  0  0
    0.1749    1.6198   -0.3839 C   0  0  0  0  0  0  0  0  0  0  0  0
   -0.3556    2.7226   -0.6950 O   0  0  0  0  0  0  0  0  0  0  0  0
    1.4971    1.6399   -0.2749 O   0  0  0  0  0  0  0  0  0  0  0  0
    4.2876    1.7963   -0.0775 C   0  0  0  0  0  0  0  0  0  0  0  0
    5.6530    1.8379    0.0298 C   0  0  0  0  0  0  0  0  0  0  0  0
    8.3847    2.3455   -0.8614 H   0  0  0  0  0  0  0  0  0  0  0  0
    7.9533    2.9072    0.7750 H   0  0  0  0  0  0  0  0  0  0  0  0
    9.5378    2.0309    0.4497 H   0  0  0  0  0  0  0  0  0  0  0  0
    6.3577   -1.3304    0.8668 H   0  0  0  0  0  0  0  0  0  0  0  0
    3.9167   -1.4667    0.6903 H   0  0  0  0  0  0  0  0  0  0  0  0
    1.9537   -1.5545    0.5331 H   0  0  0  0  0  0  0  0  0  0  0  0
    0.0205   -2.1554    2.4025 H   0  0  0  0  0  0  0  0  0  0  0  0
   -1.1411   -4.2499    2.8549 H   0  0  0  0  0  0  0  0  0  0  0  0
   -2.5022   -5.3066    1.0847 H   0  0  0  0  0  0  0  0  0  0  0  0
   -2.6628   -4.2221   -1.1124 H   0  0  0  0  0  0  0  0  0  0  0  0
   -1.4718   -2.0796   -1.5666 H   0  0  0  0  0  0  0  0  0  0  0  0
   -1.9969    1.0805   -2.3363 H   0  0  0  0  0  0  0  0  0  0  0  0
   -4.5033    1.1266   -2.4978 H   0  0  0  0  0  0  0  0  0  0  0  0
   -6.2339    2.9799   -0.2782 H   0  0  0  0  0  0  0  0  0  0  0  0
   -7.4127    2.2962    0.8729 H   0  0  0  0  0  0  0  0  0  0  0  0
   -7.8624    2.6130   -0.8780 H   0  0  0  0  0  0  0  0  0  0  0  0
   -4.7876   -0.0052    1.5447 H   0  0  0  0  0  0  0  0  0  0  0  0
   -2.3012   -0.0531    1.7118 H   0  0  0  0  0  0  0  0  0  0  0  0
    3.6719    2.6437   -0.3380 H   0  0  0  0  0  0  0  0  0  0  0  0
    6.1490    2.7818   -0.1594 H   0  0  0  0  0  0  0  0  0  0  0  0
  1  2  1  0
  2  3  1  0
  3  4  2  0
  4  5  1  0
  5  6  2  0
  6  7  1  0
  7  8  2  0
  8  9  1  0
  9 10  1  0
 10 11  2  0
 11 12  1  0
 12 13  2  0
 13 14  1  0
 14 15  2  0
  9 16  2  0
 16 17  1  0
 17 18  2  0
 18 19  1  0
 19 20  2  0
 20 21  1  0
 21 22  1  0
 21 23  2  0
 21 24  2  0
 20 25  1  0
 25 26  2  0
 16 27  1  0
 27 28  2  0
 27 29  1  0
  6 30  1  0
 30 31  2  0
 31  3  1  0
 29  7  1  0
 15 10  1  0
 26 17  1  0
  1 32  1  0
  1 33  1  0
  1 34  1  0
  4 35  1  0
  5 36  1  0
  8 37  1  0
 11 38  1  0
 12 39  1  0
 13 40  1  0
 14 41  1  0
 15 42  1  0
 18 43  1  0
 19 44  1  0
 22 45  1  0
 22 46  1  0
 22 47  1  0
 25 48  1  0
 26 49  1  0
 30 50  1  0
 31 51  1  0
M  END
$$$$
