
     RDKit          3D

 45 47  0  0  0  0  0  0  0  0999 V2000
    2.7880    2.1111    0.6775 O   0  0  0  0  0  0  0  0  0  0  0  0
    2.4947    1.0207    0.0324 C   0  0  0  0  0  0  0  0  0  0  0  0
    3.5803    0.4082   -0.5965 N   0  0  0  0  0  0  0  0  0  0  0  0
    4.9278    0.9902   -0.3556 C   0  0  0  0  0  0  0  0  0  0  0  0
    5.8048   -0.1804    0.1003 C   0  0  0  0  0  0  0  0  0  0  0  0
    5.7219   -1.2806   -0.7086 O   0  0  0  0  0  0  0  0  0  0  0  0
    4.4156   -1.7943   -0.7959 C   0  0  0  0  0  0  0  0  0  0  0  0
    3.6135   -0.7094   -1.4965 C   0  0  0  0  0  0  0  0  0  0  0  0
    1.1559    0.6519    0.0810 N   0  0  0  0  0  0  0  0  0  0  0  0
    0.6340   -0.5642   -0.4704 C   0  0  0  0  0  0  0  0  0  0  0  0
   -0.6569   -0.9410    0.2857 C   0  0  0  0  0  0  0  0  0  0  0  0
   -1.6828    0.1009    0.1048 N   0  0  0  0  0  0  0  0  0  0  0  0
   -3.0146   -0.3541    0.1289 C   0  0  0  0  0  0  0  0  0  0  0  0
   -3.3526   -1.4939    0.8950 C   0  0  0  0  0  0  0  0  0  0  0  0
   -4.6339   -1.9624    0.9996 C   0  0  0  0  0  0  0  0  0  0  0  0
   -5.6561   -1.3295    0.3524 C   0  0  0  0  0  0  0  0  0  0  0  0
   -7.3227   -1.8615    0.4432 Cl  0  0  0  0  0  0  0  0  0  0  0  0
   -5.3682   -0.2352   -0.3906 C   0  0  0  0  0  0  0  0  0  0  0  0
   -4.0550    0.2592   -0.5097 C   0  0  0  0  0  0  0  0  0  0  0  0
   -3.7992    1.4505   -1.3664 C   0  0  0  0  0  0  0  0  0  0  0  0
   -4.9881    1.6716   -2.1185 O   0  0  0  0  0  0  0  0  0  0  0  0
   -1.1823    1.4301   -0.0170 C   0  0  0  0  0  0  0  0  0  0  0  0
    0.1814    1.5583    0.7122 C   0  0  0  0  0  0  0  0  0  0  0  0
    5.2620    1.4176   -1.3007 H   0  0  0  0  0  0  0  0  0  0  0  0
    4.9202    1.7189    0.4520 H   0  0  0  0  0  0  0  0  0  0  0  0
    6.8467    0.1940    0.0774 H   0  0  0  0  0  0  0  0  0  0  0  0
    5.4951   -0.4264    1.1506 H   0  0  0  0  0  0  0  0  0  0  0  0
    4.0528   -1.9752    0.2359 H   0  0  0  0  0  0  0  0  0  0  0  0
    4.4157   -2.7352   -1.3483 H   0  0  0  0  0  0  0  0  0  0  0  0
    2.6906   -1.0272   -1.9498 H   0  0  0  0  0  0  0  0  0  0  0  0
    4.2964   -0.3773   -2.3534 H   0  0  0  0  0  0  0  0  0  0  0  0
    1.3060   -1.4390   -0.1990 H   0  0  0  0  0  0  0  0  0  0  0  0
    0.4386   -0.4881   -1.5358 H   0  0  0  0  0  0  0  0  0  0  0  0
   -0.9804   -1.9120   -0.1009 H   0  0  0  0  0  0  0  0  0  0  0  0
   -0.3494   -0.9953    1.3469 H   0  0  0  0  0  0  0  0  0  0  0  0
   -2.5083   -1.9719    1.3986 H   0  0  0  0  0  0  0  0  0  0  0  0
   -4.8386   -2.8305    1.5937 H   0  0  0  0  0  0  0  0  0  0  0  0
   -6.1596    0.2822   -0.9120 H   0  0  0  0  0  0  0  0  0  0  0  0
   -3.6749    2.3907   -0.8035 H   0  0  0  0  0  0  0  0  0  0  0  0
   -3.0201    1.2502   -2.1243 H   0  0  0  0  0  0  0  0  0  0  0  0
   -5.6018    2.1441   -1.5061 H   0  0  0  0  0  0  0  0  0  0  0  0
   -1.8093    2.1837    0.5174 H   0  0  0  0  0  0  0  0  0  0  0  0
   -0.9535    1.7048   -1.0597 H   0  0  0  0  0  0  0  0  0  0  0  0
    0.4964    2.5976    0.5644 H   0  0  0  0  0  0  0  0  0  0  0  0
    0.0699    1.3481    1.7911 H   0  0  0  0  0  0  0  0  0  0  0  0
  1  2  2  0
  2  3  1  0
  3  4  1  0
  4  5  1  0
  5  6  1  0
  6  7  1  0
  7  8  1  0
  2  9  1  0
  9 10  1  0
 10 11  1  0
 11 12  1  0
 12 13  1  0
 13 14  2  0
 14 15  1  0
 15 16  2  0
 16 17  1  0
 16 18  1  0
 18 19  2  0
 19 20  1  0
 20 21  1  0
 12 22  1  0
 22 23  1  0
  8  3  1  0
 23  9  1  0
 19 13  1  0
  4 24  1  0
  4 25  1  0
  5 26  1  0
  5 27  1  0
  7 28  1  0
  7 29  1  0
  8 30  1  0
  8 31  1  0
 10 32  1  0
 10 33  1  0
 11 34  1  0
 11 35  1  0
 14 36  1  0
 15 37  1  0
 18 38  1  0
 20 39  1  0
 20 40  1  0
 21 41  1  0
 22 42  1  0
 22 43  1  0
 23 44  1  0
 23 45  1  0
M  END
$$$$
