
     RDKit          3D

 60 64  0  0  0  0  0  0  0  0999 V2000
   -4.6079   -2.9634    0.9634 C   0  0  0  0  0  0  0  0  0  0  0  0
   -3.9870   -1.6225    1.1926 C   0  0  1  0  0  0  0  0  0  0  0  0
   -3.8474   -0.8575    0.0376 O   0  0  0  0  0  0  0  0  0  0  0  0
   -2.6700   -0.3624   -0.4594 C   0  0  0  0  0  0  0  0  0  0  0  0
   -1.4707   -0.5547    0.1140 N   0  0  0  0  0  0  0  0  0  0  0  0
   -0.3121   -0.0713   -0.3690 C   0  0  0  0  0  0  0  0  0  0  0  0
    0.9523   -0.3314    0.3220 C   0  0  0  0  0  0  0  0  0  0  0  0
    1.0720   -1.0643    1.4808 C   0  0  0  0  0  0  0  0  0  0  0  0
    2.3709   -1.0933    1.8242 N   0  0  0  0  0  0  0  0  0  0  0  0
    3.0972   -0.4114    0.9387 N   0  0  0  0  0  0  0  0  0  0  0  0
    4.5105   -0.2561    1.0231 C   0  0  0  0  0  0  0  0  0  0  0  0
    5.0080    1.0827    0.5588 C   0  0  0  0  0  0  0  0  0  0  0  0
    5.8196    0.9742   -0.7133 C   0  0  0  0  0  0  0  0  0  0  0  0
    6.9990    0.1501   -0.5259 N   0  0  0  0  0  0  0  0  0  0  0  0
    7.9606    0.7840    0.3544 C   0  0  0  0  0  0  0  0  0  0  0  0
    6.6630   -1.1299    0.0618 C   0  0  0  0  0  0  0  0  0  0  0  0
    5.1631   -1.3403    0.1632 C   0  0  0  0  0  0  0  0  0  0  0  0
    2.2285    0.0643    0.0047 C   0  0  0  0  0  0  0  0  0  0  0  0
   -0.3072    0.6848   -1.5396 C   0  0  0  0  0  0  0  0  0  0  0  0
   -1.5069    0.9068   -2.1593 C   0  0  0  0  0  0  0  0  0  0  0  0
   -1.8007    1.5934   -3.2911 N   0  0  0  0  0  0  0  0  0  0  0  0
   -3.0958    1.5086   -3.4578 N   0  0  0  0  0  0  0  0  0  0  0  0
   -3.8569    2.1039   -4.5552 C   0  0  0  0  0  0  0  0  0  0  0  0
   -3.6693    0.7927   -2.4798 C   0  0  0  0  0  0  0  0  0  0  0  0
   -2.6650    0.3878   -1.6209 C   0  0  0  0  0  0  0  0  0  0  0  0
   -4.7920   -0.8018    2.2036 C   0  0  1  0  0  0  0  0  0  0  0  0
   -4.1259    0.5523    2.4063 C   0  0  0  0  0  0  0  0  0  0  0  0
   -4.7154    1.3927    1.3851 N   0  0  0  0  0  0  0  0  0  0  0  0
   -5.8269    0.7429    0.7879 C   0  0  0  0  0  0  0  0  0  0  0  0
   -6.4600    1.0511   -0.2699 O   0  0  0  0  0  0  0  0  0  0  0  0
   -6.1353   -0.4259    1.6679 C   0  0  0  0  0  0  0  0  0  0  0  0
   -3.8251   -3.6558    0.6212 H   0  0  0  0  0  0  0  0  0  0  0  0
   -4.9591   -3.3430    1.9531 H   0  0  0  0  0  0  0  0  0  0  0  0
   -5.4237   -2.9518    0.2142 H   0  0  0  0  0  0  0  0  0  0  0  0
   -2.9909   -1.7858    1.6761 H   0  0  0  0  0  0  0  0  0  0  0  0
    0.3102   -1.5587    2.0685 H   0  0  0  0  0  0  0  0  0  0  0  0
    4.8390   -0.4494    2.0630 H   0  0  0  0  0  0  0  0  0  0  0  0
    5.6799    1.5094    1.3318 H   0  0  0  0  0  0  0  0  0  0  0  0
    4.2121    1.8242    0.3831 H   0  0  0  0  0  0  0  0  0  0  0  0
    5.1946    0.5240   -1.4970 H   0  0  0  0  0  0  0  0  0  0  0  0
    6.1382    1.9693   -1.0363 H   0  0  0  0  0  0  0  0  0  0  0  0
    7.8560    0.4365    1.3966 H   0  0  0  0  0  0  0  0  0  0  0  0
    7.9623    1.8736    0.3037 H   0  0  0  0  0  0  0  0  0  0  0  0
    8.9690    0.4288    0.0189 H   0  0  0  0  0  0  0  0  0  0  0  0
    7.0283   -1.9049   -0.6520 H   0  0  0  0  0  0  0  0  0  0  0  0
    7.1514   -1.2892    1.0342 H   0  0  0  0  0  0  0  0  0  0  0  0
    4.7128   -1.4044   -0.8274 H   0  0  0  0  0  0  0  0  0  0  0  0
    5.0347   -2.2990    0.7360 H   0  0  0  0  0  0  0  0  0  0  0  0
    2.4970    0.6495   -0.8371 H   0  0  0  0  0  0  0  0  0  0  0  0
    0.6368    1.0411   -1.8752 H   0  0  0  0  0  0  0  0  0  0  0  0
   -4.1465    1.3161   -5.2900 H   0  0  0  0  0  0  0  0  0  0  0  0
   -3.3278    2.9540   -5.0070 H   0  0  0  0  0  0  0  0  0  0  0  0
   -4.7916    2.4988   -4.1146 H   0  0  0  0  0  0  0  0  0  0  0  0
   -4.7094    0.5407   -2.3288 H   0  0  0  0  0  0  0  0  0  0  0  0
   -4.8470   -1.3044    3.1833 H   0  0  0  0  0  0  0  0  0  0  0  0
   -4.3713    0.9487    3.4170 H   0  0  0  0  0  0  0  0  0  0  0  0
   -3.0465    0.4094    2.2688 H   0  0  0  0  0  0  0  0  0  0  0  0
   -4.3831    2.3389    1.1165 H   0  0  0  0  0  0  0  0  0  0  0  0
   -6.6451   -1.2383    1.1335 H   0  0  0  0  0  0  0  0  0  0  0  0
   -6.7476   -0.0503    2.4972 H   0  0  0  0  0  0  0  0  0  0  0  0
  1  2  1  0
  2  3  1  0
  3  4  1  0
  4  5  2  0
  5  6  1  0
  6  7  1  0
  7  8  1  0
  8  9  2  0
  9 10  1  0
 10 11  1  0
 11 12  1  0
 12 13  1  0
 13 14  1  0
 14 15  1  0
 14 16  1  0
 16 17  1  0
 10 18  1  0
  6 19  2  0
 19 20  1  0
 20 21  2  0
 21 22  1  0
 22 23  1  0
 22 24  1  0
 24 25  2  0
  2 26  1  0
 26 27  1  0
 27 28  1  0
 28 29  1  0
 29 30  2  0
 29 31  1  0
 25  4  1  0
 31 26  1  0
 18  7  2  0
 25 20  1  0
 17 11  1  0
  1 32  1  0
  1 33  1  0
  1 34  1  0
  2 35  1  1
  8 36  1  0
 11 37  1  0
 12 38  1  0
 12 39  1  0
 13 40  1  0
 13 41  1  0
 15 42  1  0
 15 43  1  0
 15 44  1  0
 16 45  1  0
 16 46  1  0
 17 47  1  0
 17 48  1  0
 18 49  1  0
 19 50  1  0
 23 51  1  0
 23 52  1  0
 23 53  1  0
 24 54  1  0
 26 55  1  1
 27 56  1  0
 27 57  1  0
 28 58  1  0
 31 59  1  0
 31 60  1  0
M  END
$$$$
