
     RDKit          3D

102108  0  0  0  0  0  0  0  0999 V2000
  -10.3519    5.3478   -1.2938 C   0  0  0  0  0  0  0  0  0  0  0  0
   -9.7761    4.8364   -0.1063 O   0  0  0  0  0  0  0  0  0  0  0  0
   -9.6435    3.4701    0.0365 C   0  0  0  0  0  0  0  0  0  0  0  0
  -10.0405    2.5621   -0.9133 C   0  0  0  0  0  0  0  0  0  0  0  0
   -9.8587    1.2227   -0.6606 C   0  0  0  0  0  0  0  0  0  0  0  0
   -9.2864    0.7495    0.5240 C   0  0  0  0  0  0  0  0  0  0  0  0
   -9.1187   -0.6550    0.7408 N   0  0  0  0  0  0  0  0  0  0  0  0
   -9.9244   -1.4885    1.3564 N   0  0  0  0  0  0  0  0  0  0  0  0
   -9.4372   -2.7324    1.3651 C   0  0  0  0  0  0  0  0  0  0  0  0
  -10.0867   -3.9409    1.9749 C   0  0  0  0  0  0  0  0  0  0  0  0
   -9.1175   -4.7118    2.8094 C   0  0  0  0  0  0  0  0  0  0  0  0
  -10.5539   -4.8864    0.8592 C   0  0  0  0  0  0  0  0  0  0  0  0
   -8.2303   -2.6945    0.7073 C   0  0  0  0  0  0  0  0  0  0  0  0
   -8.0503   -1.3791    0.3235 C   0  0  0  0  0  0  0  0  0  0  0  0
   -6.9218   -0.9093   -0.3809 N   0  0  0  0  0  0  0  0  0  0  0  0
   -5.7609   -0.3868    0.2980 C   0  0  0  0  0  0  0  0  0  0  0  0
   -5.7955   -0.3684    1.5269 O   0  0  0  0  0  0  0  0  0  0  0  0
   -4.6363    0.0850   -0.4113 N   0  0  0  0  0  0  0  0  0  0  0  0
   -3.4491    0.6215    0.1517 C   0  0  0  0  0  0  0  0  0  0  0  0
   -3.2048    0.6460    1.4889 C   0  0  0  0  0  0  0  0  0  0  0  0
   -2.0549    1.1970    2.0247 C   0  0  0  0  0  0  0  0  0  0  0  0
   -1.0991    1.7498    1.2012 C   0  0  0  0  0  0  0  0  0  0  0  0
    0.0601    2.3066    1.7160 O   0  0  0  0  0  0  0  0  0  0  0  0
    1.2805    1.7259    1.4315 C   0  0  0  0  0  0  0  0  0  0  0  0
    2.3863    2.3957    1.9693 C   0  0  0  0  0  0  0  0  0  0  0  0
    3.6180    1.8555    1.7119 C   0  0  0  0  0  0  0  0  0  0  0  0
    3.7364    0.7386    0.9783 N   0  0  0  0  0  0  0  0  0  0  0  0
    2.6923    0.0792    0.4524 C   0  0  0  0  0  0  0  0  0  0  0  0
    2.7582   -1.0896   -0.3294 N   0  0  0  0  0  0  0  0  0  0  0  0
    3.9574   -1.6946   -0.7329 C   0  0  0  0  0  0  0  0  0  0  0  0
    3.8809   -2.9741   -1.2928 C   0  0  0  0  0  0  0  0  0  0  0  0
    4.9924   -3.6491   -1.7255 C   0  0  0  0  0  0  0  0  0  0  0  0
    4.8205   -4.9146   -2.2692 O   0  0  0  0  0  0  0  0  0  0  0  0
    5.9010   -5.6911   -2.7475 C   0  0  0  0  0  0  0  0  0  0  0  0
    6.2369   -3.0551   -1.6090 C   0  0  0  0  0  0  0  0  0  0  0  0
    6.3765   -1.7921   -1.0643 C   0  0  0  0  0  0  0  0  0  0  0  0
    7.6964   -1.1755   -0.9191 C   0  0  0  0  0  0  0  0  0  0  0  0
    8.7545   -1.8650   -1.0281 O   0  0  0  0  0  0  0  0  0  0  0  0
    7.8746    0.2081   -0.6532 N   0  0  0  0  0  0  0  0  0  0  0  0
    9.1453    0.8659   -0.4909 C   0  0  0  0  0  0  0  0  0  0  0  0
    9.9244    0.3283    0.6813 C   0  0  0  0  0  0  0  0  0  0  0  0
   11.2036    0.9791    0.8419 N   0  0  0  0  0  0  0  0  0  0  0  0
   12.1509    0.6636   -0.2128 C   0  0  0  0  0  0  0  0  0  0  0  0
   13.5102    1.1629    0.2893 C   0  0  0  0  0  0  0  0  0  0  0  0
   13.3623    2.0253    1.3476 O   0  0  0  0  0  0  0  0  0  0  0  0
   12.4193    3.0112    1.1889 C   0  0  0  0  0  0  0  0  0  0  0  0
   11.0451    2.4215    0.9087 C   0  0  0  0  0  0  0  0  0  0  0  0
    5.2081   -1.1676   -0.6483 C   0  0  0  0  0  0  0  0  0  0  0  0
    1.4602    0.6129    0.7058 N   0  0  0  0  0  0  0  0  0  0  0  0
   -1.3266    1.7370   -0.1611 C   0  0  0  0  0  0  0  0  0  0  0  0
   -0.3684    2.3057   -0.9818 C   0  0  0  0  0  0  0  0  0  0  0  0
   -0.5735    2.3115   -2.3343 C   0  0  0  0  0  0  0  0  0  0  0  0
   -1.7059    1.7671   -2.8758 C   0  0  0  0  0  0  0  0  0  0  0  0
   -2.6784    1.1948   -2.0649 C   0  0  0  0  0  0  0  0  0  0  0  0
   -2.4933    1.1779   -0.7044 C   0  0  0  0  0  0  0  0  0  0  0  0
   -8.8942    1.6713    1.4642 C   0  0  0  0  0  0  0  0  0  0  0  0
   -9.0707    3.0193    1.2237 C   0  0  0  0  0  0  0  0  0  0  0  0
   -9.8477    4.8419   -2.1506 H   0  0  0  0  0  0  0  0  0  0  0  0
  -10.2410    6.4495   -1.3552 H   0  0  0  0  0  0  0  0  0  0  0  0
  -11.4200    5.0256   -1.3241 H   0  0  0  0  0  0  0  0  0  0  0  0
  -10.4811    2.9105   -1.8284 H   0  0  0  0  0  0  0  0  0  0  0  0
  -10.1547    0.4821   -1.3774 H   0  0  0  0  0  0  0  0  0  0  0  0
  -11.0048   -3.6486    2.5136 H   0  0  0  0  0  0  0  0  0  0  0  0
   -9.5833   -5.7257    2.9877 H   0  0  0  0  0  0  0  0  0  0  0  0
   -8.2140   -4.9200    2.2001 H   0  0  0  0  0  0  0  0  0  0  0  0
   -8.8581   -4.2505    3.7666 H   0  0  0  0  0  0  0  0  0  0  0  0
  -10.7885   -5.8341    1.3574 H   0  0  0  0  0  0  0  0  0  0  0  0
   -9.7777   -4.9840    0.0736 H   0  0  0  0  0  0  0  0  0  0  0  0
  -11.4494   -4.4672    0.3817 H   0  0  0  0  0  0  0  0  0  0  0  0
   -7.5773   -3.5456    0.5413 H   0  0  0  0  0  0  0  0  0  0  0  0
   -6.9176   -0.9358   -1.4189 H   0  0  0  0  0  0  0  0  0  0  0  0
   -4.7323    0.0014   -1.4592 H   0  0  0  0  0  0  0  0  0  0  0  0
   -3.8990    0.2254    2.2116 H   0  0  0  0  0  0  0  0  0  0  0  0
   -1.8787    1.2075    3.0852 H   0  0  0  0  0  0  0  0  0  0  0  0
    2.3001    3.2900    2.5578 H   0  0  0  0  0  0  0  0  0  0  0  0
    4.4881    2.3753    2.1302 H   0  0  0  0  0  0  0  0  0  0  0  0
    1.8484   -1.5356   -0.6306 H   0  0  0  0  0  0  0  0  0  0  0  0
    2.9124   -3.4360   -1.3824 H   0  0  0  0  0  0  0  0  0  0  0  0
    6.1873   -5.2542   -3.7283 H   0  0  0  0  0  0  0  0  0  0  0  0
    5.5110   -6.7034   -2.9761 H   0  0  0  0  0  0  0  0  0  0  0  0
    6.7240   -5.7719   -2.0404 H   0  0  0  0  0  0  0  0  0  0  0  0
    7.1241   -3.5889   -1.9523 H   0  0  0  0  0  0  0  0  0  0  0  0
    6.9971    0.7995   -0.5715 H   0  0  0  0  0  0  0  0  0  0  0  0
    9.7548    0.8271   -1.4385 H   0  0  0  0  0  0  0  0  0  0  0  0
    8.9537    1.9411   -0.3027 H   0  0  0  0  0  0  0  0  0  0  0  0
    9.3365    0.6244    1.6032 H   0  0  0  0  0  0  0  0  0  0  0  0
   10.0048   -0.7626    0.5989 H   0  0  0  0  0  0  0  0  0  0  0  0
   11.9028    1.2858   -1.0823 H   0  0  0  0  0  0  0  0  0  0  0  0
   12.1373   -0.4173   -0.3900 H   0  0  0  0  0  0  0  0  0  0  0  0
   14.0958    1.5748   -0.5328 H   0  0  0  0  0  0  0  0  0  0  0  0
   14.0756    0.2679    0.6737 H   0  0  0  0  0  0  0  0  0  0  0  0
   12.3634    3.6011    2.1116 H   0  0  0  0  0  0  0  0  0  0  0  0
   12.7566    3.6952    0.3743 H   0  0  0  0  0  0  0  0  0  0  0  0
   10.3411    2.7326    1.6883 H   0  0  0  0  0  0  0  0  0  0  0  0
   10.7233    2.8515   -0.0492 H   0  0  0  0  0  0  0  0  0  0  0  0
    5.3249   -0.1938   -0.2362 H   0  0  0  0  0  0  0  0  0  0  0  0
    0.5173    2.7630   -0.6022 H   0  0  0  0  0  0  0  0  0  0  0  0
    0.1549    2.7445   -3.0195 H   0  0  0  0  0  0  0  0  0  0  0  0
   -1.8854    1.7572   -3.9276 H   0  0  0  0  0  0  0  0  0  0  0  0
   -3.5613    0.7751   -2.5024 H   0  0  0  0  0  0  0  0  0  0  0  0
   -8.4504    1.3586    2.3873 H   0  0  0  0  0  0  0  0  0  0  0  0
   -8.7561    3.7354    1.9759 H   0  0  0  0  0  0  0  0  0  0  0  0
  1  2  1  0
  2  3  1  0
  3  4  2  0
  4  5  1  0
  5  6  2  0
  6  7  1  0
  7  8  1  0
  8  9  2  0
  9 10  1  0
 10 11  1  0
 10 12  1  0
  9 13  1  0
 13 14  2  0
 14 15  1  0
 15 16  1  0
 16 17  2  0
 16 18  1  0
 18 19  1  0
 19 20  2  0
 20 21  1  0
 21 22  2  0
 22 23  1  0
 23 24  1  0
 24 25  2  0
 25 26  1  0
 26 27  2  0
 27 28  1  0
 28 29  1  0
 29 30  1  0
 30 31  2  0
 31 32  1  0
 32 33  1  0
 33 34  1  0
 32 35  2  0
 35 36  1  0
 36 37  1  0
 37 38  2  0
 37 39  1  0
 39 40  1  0
 40 41  1  0
 41 42  1  0
 42 43  1  0
 43 44  1  0
 44 45  1  0
 45 46  1  0
 46 47  1  0
 36 48  2  0
 28 49  2  0
 22 50  1  0
 50 51  2  0
 51 52  1  0
 52 53  2  0
 53 54  1  0
 54 55  2  0
  6 56  1  0
 56 57  2  0
 57  3  1  0
 14  7  1  0
 55 19  1  0
 49 24  1  0
 55 50  1  0
 48 30  1  0
 47 42  1  0
  1 58  1  0
  1 59  1  0
  1 60  1  0
  4 61  1  0
  5 62  1  0
 10 63  1  0
 11 64  1  0
 11 65  1  0
 11 66  1  0
 12 67  1  0
 12 68  1  0
 12 69  1  0
 13 70  1  0
 15 71  1  0
 18 72  1  0
 20 73  1  0
 21 74  1  0
 25 75  1  0
 26 76  1  0
 29 77  1  0
 31 78  1  0
 34 79  1  0
 34 80  1  0
 34 81  1  0
 35 82  1  0
 39 83  1  0
 40 84  1  0
 40 85  1  0
 41 86  1  0
 41 87  1  0
 43 88  1  0
 43 89  1  0
 44 90  1  0
 44 91  1  0
 46 92  1  0
 46 93  1  0
 47 94  1  0
 47 95  1  0
 48 96  1  0
 51 97  1  0
 52 98  1  0
 53 99  1  0
 54100  1  0
 56101  1  0
 57102  1  0
M  END
$$$$
