
     RDKit          3D

 30 30  0  0  0  0  0  0  0  0999 V2000
   -2.2902   -1.4544   -0.5450 C   0  0  0  0  0  0  0  0  0  0  0  0
   -1.0641   -0.6724   -0.9556 C   0  0  0  0  0  0  0  0  0  0  0  0
   -0.5394    0.0404    0.2583 C   0  0  0  0  0  0  0  0  0  0  0  0
   -1.6081    0.9746    0.7853 C   0  0  0  0  0  0  0  0  0  0  0  0
   -2.0219    2.0071   -0.2087 C   0  0  0  0  0  0  0  0  0  0  0  0
   -0.1900   -0.9278    1.3324 C   0  0  0  0  0  0  0  0  0  0  0  0
   -0.9597   -1.2691    2.2928 O   0  0  0  0  0  0  0  0  0  0  0  0
    1.1140   -1.5435    1.3106 N   0  0  0  0  0  0  0  0  0  0  0  0
    2.2864   -0.8184    0.8679 C   0  0  0  0  0  0  0  0  0  0  0  0
    1.9045   -0.0721   -0.4170 C   0  0  0  0  0  0  0  0  0  0  0  0
    3.0364    0.7306   -0.9718 C   0  0  0  0  0  0  0  0  0  0  0  0
    0.7308    0.7710   -0.0203 C   0  0  0  0  0  0  0  0  0  0  0  0
    0.8820    1.9891    0.0503 O   0  0  0  0  0  0  0  0  0  0  0  0
   -3.1420   -0.7245   -0.4587 H   0  0  0  0  0  0  0  0  0  0  0  0
   -2.5412   -2.2080   -1.3405 H   0  0  0  0  0  0  0  0  0  0  0  0
   -2.1436   -1.9782    0.4068 H   0  0  0  0  0  0  0  0  0  0  0  0
   -1.4132    0.0831   -1.6925 H   0  0  0  0  0  0  0  0  0  0  0  0
   -0.3180   -1.2784   -1.4726 H   0  0  0  0  0  0  0  0  0  0  0  0
   -1.2380    1.5001    1.7010 H   0  0  0  0  0  0  0  0  0  0  0  0
   -2.4734    0.3707    1.1271 H   0  0  0  0  0  0  0  0  0  0  0  0
   -3.0429    1.7634   -0.5889 H   0  0  0  0  0  0  0  0  0  0  0  0
   -1.3654    2.0743   -1.0987 H   0  0  0  0  0  0  0  0  0  0  0  0
   -2.1496    3.0077    0.2915 H   0  0  0  0  0  0  0  0  0  0  0  0
    1.1882   -2.5539    1.6319 H   0  0  0  0  0  0  0  0  0  0  0  0
    3.0650   -1.5704    0.6245 H   0  0  0  0  0  0  0  0  0  0  0  0
    2.6034   -0.1003    1.6362 H   0  0  0  0  0  0  0  0  0  0  0  0
    1.6517   -0.8582   -1.1498 H   0  0  0  0  0  0  0  0  0  0  0  0
    2.9591    0.7492   -2.0894 H   0  0  0  0  0  0  0  0  0  0  0  0
    3.9958    0.2148   -0.7709 H   0  0  0  0  0  0  0  0  0  0  0  0
    3.0835    1.7537   -0.5362 H   0  0  0  0  0  0  0  0  0  0  0  0
  1  2  1  0
  2  3  1  0
  3  4  1  0
  4  5  1  0
  3  6  1  0
  6  7  2  0
  6  8  1  0
  8  9  1  0
  9 10  1  0
 10 11  1  0
 10 12  1  0
 12 13  2  0
 12  3  1  0
  1 14  1  0
  1 15  1  0
  1 16  1  0
  2 17  1  0
  2 18  1  0
  4 19  1  0
  4 20  1  0
  5 21  1  0
  5 22  1  0
  5 23  1  0
  8 24  1  0
  9 25  1  0
  9 26  1  0
 10 27  1  0
 11 28  1  0
 11 29  1  0
 11 30  1  0
M  END
$$$$
