
     RDKit          3D

 43 43  0  0  0  0  0  0  0  0999 V2000
   -5.6803    2.1059   -0.1690 C   0  0  0  0  0  0  0  0  0  0  0  0
   -5.3619    1.2589   -1.3012 N   0  0  0  0  0  0  0  0  0  0  0  0
   -4.3347    0.3147   -1.0080 C   0  0  0  0  0  0  0  0  0  0  0  0
   -2.9347    0.3022   -0.6620 N   0  0  0  0  0  0  0  0  0  0  0  0
   -2.8125   -0.1110    0.7023 C   0  0  0  0  0  0  0  0  0  0  0  0
   -1.3852   -0.1664    1.2015 C   0  0  0  0  0  0  0  0  0  0  0  0
   -0.5331    1.4109    1.1185 S   0  0  0  0  0  0  0  0  0  0  0  0
    1.1377    1.1503    1.7743 C   0  0  0  0  0  0  0  0  0  0  0  0
    1.9598    0.2594    0.9255 C   0  0  0  0  0  0  0  0  0  0  0  0
    2.0559   -1.1133    1.0185 C   0  0  0  0  0  0  0  0  0  0  0  0
    2.9407   -1.5527    0.0280 C   0  0  0  0  0  0  0  0  0  0  0  0
    3.3322   -0.3995   -0.6139 C   0  0  0  0  0  0  0  0  0  0  0  0
    4.2877   -0.3312   -1.7651 C   0  0  0  0  0  0  0  0  0  0  0  0
    5.6478   -0.1780   -1.2870 N   0  0  0  0  0  0  0  0  0  0  0  0
    5.9655   -1.3154   -0.4542 C   0  0  0  0  0  0  0  0  0  0  0  0
    5.6904    1.0559   -0.4984 C   0  0  0  0  0  0  0  0  0  0  0  0
    2.7342    0.6267   -0.0553 O   0  0  0  0  0  0  0  0  0  0  0  0
   -4.8347   -0.9294   -1.0783 C   0  0  0  0  0  0  0  0  0  0  0  0
   -6.2014   -1.2596   -1.4009 N   0  0  0  0  0  4  0  0  0  0  0  0
   -7.0893   -1.5146   -0.3580 O   0  0  0  0  0  1  0  0  0  0  0  0
   -7.0803   -1.4518   -2.2633 O   0  0  0  0  0  0  0  0  0  0  0  0
   -4.9155    2.9106   -0.0416 H   0  0  0  0  0  0  0  0  0  0  0  0
   -6.6625    2.6065   -0.3427 H   0  0  0  0  0  0  0  0  0  0  0  0
   -5.7727    1.4672    0.7395 H   0  0  0  0  0  0  0  0  0  0  0  0
   -5.7737    1.2601   -2.2522 H   0  0  0  0  0  0  0  0  0  0  0  0
   -2.2439    0.5838   -1.4162 H   0  0  0  0  0  0  0  0  0  0  0  0
   -3.4677    0.4644    1.3657 H   0  0  0  0  0  0  0  0  0  0  0  0
   -3.1897   -1.1624    0.7539 H   0  0  0  0  0  0  0  0  0  0  0  0
   -1.3646   -0.5222    2.2491 H   0  0  0  0  0  0  0  0  0  0  0  0
   -0.7964   -0.8996    0.6207 H   0  0  0  0  0  0  0  0  0  0  0  0
    1.1003    0.6526    2.7873 H   0  0  0  0  0  0  0  0  0  0  0  0
    1.6657    2.1051    1.9500 H   0  0  0  0  0  0  0  0  0  0  0  0
    1.5181   -1.7022    1.7497 H   0  0  0  0  0  0  0  0  0  0  0  0
    3.2276   -2.5860   -0.1587 H   0  0  0  0  0  0  0  0  0  0  0  0
    4.0205    0.5342   -2.3795 H   0  0  0  0  0  0  0  0  0  0  0  0
    4.2466   -1.2446   -2.3587 H   0  0  0  0  0  0  0  0  0  0  0  0
    7.0470   -1.4022   -0.2307 H   0  0  0  0  0  0  0  0  0  0  0  0
    5.6457   -2.2374   -0.9727 H   0  0  0  0  0  0  0  0  0  0  0  0
    5.4109   -1.2069    0.5156 H   0  0  0  0  0  0  0  0  0  0  0  0
    4.8562    1.7283   -0.7491 H   0  0  0  0  0  0  0  0  0  0  0  0
    5.5579    0.7529    0.5622 H   0  0  0  0  0  0  0  0  0  0  0  0
    6.6547    1.5742   -0.6694 H   0  0  0  0  0  0  0  0  0  0  0  0
   -4.2684   -1.8384   -0.9005 H   0  0  0  0  0  0  0  0  0  0  0  0
  1  2  1  0
  2  3  1  0
  3  4  1  0
  4  5  1  0
  5  6  1  0
  6  7  1  0
  7  8  1  0
  8  9  1  0
  9 10  2  0
 10 11  1  0
 11 12  2  0
 12 13  1  0
 13 14  1  0
 14 15  1  0
 14 16  1  0
 12 17  1  0
  3 18  2  0
 18 19  1  0
 19 20  1  0
 19 21  2  0
 17  9  1  0
  1 22  1  0
  1 23  1  0
  1 24  1  0
  2 25  1  0
  4 26  1  0
  5 27  1  0
  5 28  1  0
  6 29  1  0
  6 30  1  0
  8 31  1  0
  8 32  1  0
 10 33  1  0
 11 34  1  0
 13 35  1  0
 13 36  1  0
 15 37  1  0
 15 38  1  0
 15 39  1  0
 16 40  1  0
 16 41  1  0
 16 42  1  0
 18 43  1  0
M  CHG  2  19   1  20  -1
M  END
$$$$
