
     RDKit          3D

 62 66  0  0  0  0  0  0  0  0999 V2000
   -4.6039   -4.3546   -0.6753 C   0  0  0  0  0  0  0  0  0  0  0  0
   -4.1419   -3.1316    0.1260 C   0  0  0  0  0  0  0  0  0  0  0  0
   -2.6729   -3.2893    0.3284 C   0  0  0  0  0  0  0  0  0  0  0  0
   -2.0369   -2.1594    1.1133 C   0  0  0  0  0  0  0  0  0  0  0  0
   -2.2046   -0.8530    0.4569 C   0  0  0  0  0  0  0  0  0  0  0  0
   -3.1784    0.0252    0.8474 N   0  0  0  0  0  0  0  0  0  0  0  0
   -3.1878    1.0956    0.0907 N   0  0  0  0  0  0  0  0  0  0  0  0
   -4.0431    2.2293    0.1789 C   0  0  0  0  0  0  0  0  0  0  0  0
   -3.7162    3.3377    0.8902 C   0  0  0  0  0  0  0  0  0  0  0  0
   -4.5647    4.4116    0.9539 C   0  0  0  0  0  0  0  0  0  0  0  0
   -5.7756    4.3955    0.2963 C   0  0  0  0  0  0  0  0  0  0  0  0
   -6.1187    3.2791   -0.4270 C   0  0  0  0  0  0  0  0  0  0  0  0
   -5.2710    2.1988   -0.4945 C   0  0  0  0  0  0  0  0  0  0  0  0
   -2.1973    0.9265   -0.8244 C   0  0  0  0  0  0  0  0  0  0  0  0
   -1.8623    1.8634   -1.8523 C   0  0  0  0  0  0  0  0  0  0  0  0
   -0.9525    1.7036   -2.6999 O   0  0  0  0  0  0  0  0  0  0  0  0
   -2.5751    3.0652   -1.9632 O   0  0  0  0  0  0  0  0  0  0  0  0
   -1.5606   -0.2964   -0.6113 C   0  0  0  0  0  0  0  0  0  0  0  0
   -0.4030   -0.8169   -1.3345 C   0  0  0  0  0  0  0  0  0  0  0  0
    0.9166   -0.4503   -0.8649 C   0  0  0  0  0  0  0  0  0  0  0  0
    1.4376   -0.6975    0.3683 C   0  0  0  0  0  0  0  0  0  0  0  0
    2.7545   -0.3187    0.7006 C   0  0  0  0  0  0  0  0  0  0  0  0
    3.5531    0.3095   -0.2032 C   0  0  0  0  0  0  0  0  0  0  0  0
    4.9097    0.7154    0.1142 C   0  0  0  0  0  0  0  0  0  0  0  0
    5.1510    2.1032    0.1641 C   0  0  0  0  0  0  0  0  0  0  0  0
    6.4248    2.5128    0.4764 C   0  0  0  0  0  0  0  0  0  0  0  0
    7.4503    1.6401    0.7362 C   0  0  0  0  0  0  0  0  0  0  0  0
    7.1684    0.2970    0.6759 C   0  0  0  0  0  0  0  0  0  0  0  0
    5.8883   -0.1927    0.3625 C   0  0  0  0  0  0  0  0  0  0  0  0
    5.6438   -1.6121    0.2930 C   0  0  0  0  0  0  0  0  0  0  0  0
    4.5242   -2.2340   -0.0519 N   0  0  0  0  0  0  0  0  0  0  0  0
    4.7505   -3.5567    0.0101 N   0  0  0  0  0  0  0  0  0  0  0  0
    5.9913   -3.7694    0.3877 N   0  0  0  0  0  0  0  0  0  0  0  0
    6.5448   -2.5697    0.5632 N   0  0  0  0  0  0  0  0  0  0  0  0
    3.0578    0.5720   -1.4512 C   0  0  0  0  0  0  0  0  0  0  0  0
    1.7799    0.1996   -1.7610 C   0  0  0  0  0  0  0  0  0  0  0  0
   -5.6996   -4.3351   -0.8473 H   0  0  0  0  0  0  0  0  0  0  0  0
   -4.1180   -4.3927   -1.6682 H   0  0  0  0  0  0  0  0  0  0  0  0
   -4.4055   -5.2948   -0.0975 H   0  0  0  0  0  0  0  0  0  0  0  0
   -4.7013   -3.1889    1.0827 H   0  0  0  0  0  0  0  0  0  0  0  0
   -4.4116   -2.2483   -0.4869 H   0  0  0  0  0  0  0  0  0  0  0  0
   -2.5179   -4.2170    0.9352 H   0  0  0  0  0  0  0  0  0  0  0  0
   -2.2011   -3.4409   -0.6396 H   0  0  0  0  0  0  0  0  0  0  0  0
   -0.9987   -2.4039    1.2766 H   0  0  0  0  0  0  0  0  0  0  0  0
   -2.5234   -2.1786    2.1279 H   0  0  0  0  0  0  0  0  0  0  0  0
   -2.7823    3.3837    1.4135 H   0  0  0  0  0  0  0  0  0  0  0  0
   -4.3026    5.3012    1.5260 H   0  0  0  0  0  0  0  0  0  0  0  0
   -6.4485    5.2670    0.3561 H   0  0  0  0  0  0  0  0  0  0  0  0
   -7.0747    3.2304   -0.9614 H   0  0  0  0  0  0  0  0  0  0  0  0
   -5.5318    1.3153   -1.0598 H   0  0  0  0  0  0  0  0  0  0  0  0
   -2.1778    3.9173   -2.3417 H   0  0  0  0  0  0  0  0  0  0  0  0
   -0.4718   -1.9442   -1.3295 H   0  0  0  0  0  0  0  0  0  0  0  0
   -0.5040   -0.5849   -2.4424 H   0  0  0  0  0  0  0  0  0  0  0  0
    0.8306   -1.1833    1.1040 H   0  0  0  0  0  0  0  0  0  0  0  0
    3.1151   -0.5364    1.6855 H   0  0  0  0  0  0  0  0  0  0  0  0
    4.3438    2.7975   -0.0415 H   0  0  0  0  0  0  0  0  0  0  0  0
    6.6575    3.5852    0.5252 H   0  0  0  0  0  0  0  0  0  0  0  0
    8.4598    1.9585    0.9830 H   0  0  0  0  0  0  0  0  0  0  0  0
    7.9380   -0.4426    0.8729 H   0  0  0  0  0  0  0  0  0  0  0  0
    7.5327   -2.4349    0.8666 H   0  0  0  0  0  0  0  0  0  0  0  0
    3.6930    1.0779   -2.1885 H   0  0  0  0  0  0  0  0  0  0  0  0
    1.4201    0.4136   -2.7516 H   0  0  0  0  0  0  0  0  0  0  0  0
  1  2  1  0
  2  3  1  0
  3  4  1  0
  4  5  1  0
  5  6  2  0
  6  7  1  0
  7  8  1  0
  8  9  2  0
  9 10  1  0
 10 11  2  0
 11 12  1  0
 12 13  2  0
  7 14  1  0
 14 15  1  0
 15 16  2  0
 15 17  1  0
 14 18  2  0
 18 19  1  0
 19 20  1  0
 20 21  2  0
 21 22  1  0
 22 23  2  0
 23 24  1  0
 24 25  2  0
 25 26  1  0
 26 27  2  0
 27 28  1  0
 28 29  2  0
 29 30  1  0
 30 31  2  0
 31 32  1  0
 32 33  2  0
 33 34  1  0
 23 35  1  0
 35 36  2  0
 18  5  1  0
 36 20  1  0
 13  8  1  0
 29 24  1  0
 34 30  1  0
  1 37  1  0
  1 38  1  0
  1 39  1  0
  2 40  1  0
  2 41  1  0
  3 42  1  0
  3 43  1  0
  4 44  1  0
  4 45  1  0
  9 46  1  0
 10 47  1  0
 11 48  1  0
 12 49  1  0
 13 50  1  0
 17 51  1  0
 19 52  1  0
 19 53  1  0
 21 54  1  0
 22 55  1  0
 25 56  1  0
 26 57  1  0
 27 58  1  0
 28 59  1  0
 34 60  1  0
 35 61  1  0
 36 62  1  0
M  END
$$$$
