
     RDKit          3D

 48 51  0  0  0  0  0  0  0  0999 V2000
   -3.8545    1.4444    2.2587 C   0  0  0  0  0  0  0  0  0  0  0  0
   -3.9262    1.9416    1.0455 C   0  0  0  0  0  0  0  0  0  0  0  0
   -3.7029    1.1190   -0.1337 C   0  0  1  0  0  0  0  0  0  0  0  0
   -2.5106    1.5960   -0.9633 C   0  0  0  0  0  0  0  0  0  0  0  0
   -1.9794    0.5010   -1.7420 N   0  0  0  0  0  0  0  0  0  0  0  0
   -3.0912   -0.2634   -2.2961 C   0  0  0  0  0  0  0  0  0  0  0  0
   -3.6820   -1.0527   -1.1752 C   0  0  0  0  0  0  0  0  0  0  0  0
   -3.4034   -0.3334    0.1589 C   0  0  1  0  0  0  0  0  0  0  0  0
   -1.8901   -0.3496    0.4517 C   0  0  0  0  0  0  0  0  0  0  0  0
   -1.2470   -0.4765   -0.9011 C   0  0  2  0  0  0  0  0  0  0  0  0
    0.2253   -0.1715   -0.9372 C   0  0  1  0  0  0  0  0  0  0  0  0
    0.3395    1.1533   -0.3969 O   0  0  0  0  0  0  0  0  0  0  0  0
    1.0906   -1.1077   -0.1991 C   0  0  0  0  0  0  0  0  0  0  0  0
    0.5756   -2.3271    0.1823 C   0  0  0  0  0  0  0  0  0  0  0  0
    1.3756   -3.1833    0.9221 C   0  0  0  0  0  0  0  0  0  0  0  0
    2.6170   -2.8272    1.2529 N   0  0  0  0  0  0  0  0  0  0  0  0
    3.1462   -1.6370    0.8887 C   0  0  0  0  0  0  0  0  0  0  0  0
    4.4408   -1.3310    1.2444 C   0  0  0  0  0  0  0  0  0  0  0  0
    5.0130   -0.1424    0.8759 C   0  0  0  0  0  0  0  0  0  0  0  0
    4.2544    0.7329    0.1407 C   0  0  0  0  0  0  0  0  0  0  0  0
    4.8014    1.9442   -0.2503 O   0  0  0  0  0  0  0  0  0  0  0  0
    6.1075    2.3311    0.0689 C   0  0  0  0  0  0  0  0  0  0  0  0
    2.9444    0.4731   -0.2436 C   0  0  0  0  0  0  0  0  0  0  0  0
    2.3924   -0.7229    0.1392 C   0  0  0  0  0  0  0  0  0  0  0  0
   -3.6308    0.4138    2.4989 H   0  0  0  0  0  0  0  0  0  0  0  0
   -4.0251    2.0724    3.1486 H   0  0  0  0  0  0  0  0  0  0  0  0
   -4.1578    2.9903    0.9318 H   0  0  0  0  0  0  0  0  0  0  0  0
   -4.6183    1.1860   -0.7790 H   0  0  0  0  0  0  0  0  0  0  0  0
   -1.7737    2.1271   -0.3641 H   0  0  0  0  0  0  0  0  0  0  0  0
   -2.9135    2.3293   -1.6939 H   0  0  0  0  0  0  0  0  0  0  0  0
   -2.6146   -0.9988   -3.0070 H   0  0  0  0  0  0  0  0  0  0  0  0
   -3.8147    0.3930   -2.8117 H   0  0  0  0  0  0  0  0  0  0  0  0
   -4.7791   -1.0442   -1.2810 H   0  0  0  0  0  0  0  0  0  0  0  0
   -3.3611   -2.1039   -1.1359 H   0  0  0  0  0  0  0  0  0  0  0  0
   -3.9943   -0.7781    0.9600 H   0  0  0  0  0  0  0  0  0  0  0  0
   -1.7156   -1.1738    1.1467 H   0  0  0  0  0  0  0  0  0  0  0  0
   -1.6029    0.6004    0.9655 H   0  0  0  0  0  0  0  0  0  0  0  0
   -1.4171   -1.4922   -1.2695 H   0  0  0  0  0  0  0  0  0  0  0  0
    0.5406   -0.1062   -1.9912 H   0  0  0  0  0  0  0  0  0  0  0  0
    0.4479    1.0695    0.5834 H   0  0  0  0  0  0  0  0  0  0  0  0
   -0.4251   -2.6171   -0.1007 H   0  0  0  0  0  0  0  0  0  0  0  0
    0.9228   -4.1287    1.1969 H   0  0  0  0  0  0  0  0  0  0  0  0
    5.0401   -2.0362    1.8315 H   0  0  0  0  0  0  0  0  0  0  0  0
    6.0446    0.1119    1.1547 H   0  0  0  0  0  0  0  0  0  0  0  0
    6.3944    2.1224    1.1185 H   0  0  0  0  0  0  0  0  0  0  0  0
    6.8465    1.8196   -0.6068 H   0  0  0  0  0  0  0  0  0  0  0  0
    6.1879    3.4438   -0.0509 H   0  0  0  0  0  0  0  0  0  0  0  0
    2.3828    1.1616   -0.8361 H   0  0  0  0  0  0  0  0  0  0  0  0
  1  2  2  3
  2  3  1  0
  3  4  1  0
  4  5  1  0
  5  6  1  0
  6  7  1  0
  7  8  1  0
  8  9  1  0
  9 10  1  0
 10 11  1  0
 11 12  1  0
 11 13  1  0
 13 14  2  0
 14 15  1  0
 15 16  2  0
 16 17  1  0
 17 18  2  0
 18 19  1  0
 19 20  2  0
 20 21  1  0
 21 22  1  0
 20 23  1  0
 23 24  2  0
  8  3  1  0
 24 13  1  0
 10  5  1  0
 24 17  1  0
  1 25  1  0
  1 26  1  0
  2 27  1  0
  3 28  1  6
  4 29  1  0
  4 30  1  0
  6 31  1  0
  6 32  1  0
  7 33  1  0
  7 34  1  0
  8 35  1  1
  9 36  1  0
  9 37  1  0
 10 38  1  6
 11 39  1  6
 12 40  1  0
 14 41  1  0
 15 42  1  0
 18 43  1  0
 19 44  1  0
 22 45  1  0
 22 46  1  0
 22 47  1  0
 23 48  1  0
M  END
$$$$
