
     RDKit          3D

 44 48  0  0  0  0  0  0  0  0999 V2000
   -8.0838    0.1474    0.6310 C   0  0  0  0  0  0  0  0  0  0  0  0
   -6.6026    0.1173    0.4944 C   0  0  0  0  0  0  0  0  0  0  0  0
   -5.9469   -1.0234    0.0887 C   0  0  0  0  0  0  0  0  0  0  0  0
   -4.5687   -1.0347   -0.0332 C   0  0  0  0  0  0  0  0  0  0  0  0
   -3.7969    0.0719    0.2394 C   0  0  0  0  0  0  0  0  0  0  0  0
   -2.3443    0.0078    0.0950 C   0  0  0  0  0  0  0  0  0  0  0  0
   -1.4944    0.7572    0.8867 C   0  0  0  0  0  0  0  0  0  0  0  0
   -0.1252    0.6841    0.7364 C   0  0  0  0  0  0  0  0  0  0  0  0
    0.4063   -0.1373   -0.2049 C   0  0  0  0  0  0  0  0  0  0  0  0
   -0.4108   -0.8972   -1.0101 C   0  0  0  0  0  0  0  0  0  0  0  0
   -1.7634   -0.8134   -0.8486 C   0  0  0  0  0  0  0  0  0  0  0  0
    0.0796   -1.7321   -1.9645 N   0  0  0  0  0  0  0  0  0  0  0  0
    1.3994   -1.8535   -2.1661 C   0  0  0  0  0  0  0  0  0  0  0  0
    1.8695   -2.6177   -3.0407 O   0  0  0  0  0  0  0  0  0  0  0  0
    2.2525   -1.1007   -1.3707 C   0  0  0  0  0  0  0  0  0  0  0  0
    3.6082   -0.9736   -1.2973 N   0  0  0  0  0  0  0  0  0  0  0  0
    3.9575   -0.0991   -0.3408 C   0  0  0  0  0  0  0  0  0  0  0  0
    5.2975    0.3270    0.0664 C   0  0  0  0  0  0  0  0  0  0  0  0
    6.4554   -0.1346   -0.5065 C   0  0  0  0  0  0  0  0  0  0  0  0
    6.3986   -1.0290   -1.5006 F   0  0  0  0  0  0  0  0  0  0  0  0
    7.6871    0.3316   -0.0488 C   0  0  0  0  0  0  0  0  0  0  0  0
    7.7727    1.2538    0.9749 C   0  0  0  0  0  0  0  0  0  0  0  0
    6.6172    1.7112    1.5429 C   0  0  0  0  0  0  0  0  0  0  0  0
    5.3975    1.2631    1.1049 C   0  0  0  0  0  0  0  0  0  0  0  0
    3.9647    1.9033    1.8906 Cl  0  0  0  0  0  0  0  0  0  0  0  0
    2.7994    0.3442    0.2110 N   0  0  0  0  0  0  0  0  0  0  0  0
    1.7638   -0.2532   -0.4023 C   0  0  0  0  0  0  0  0  0  0  0  0
   -4.4521    1.2143    0.6457 C   0  0  0  0  0  0  0  0  0  0  0  0
   -5.8297    1.2334    0.7699 C   0  0  0  0  0  0  0  0  0  0  0  0
   -8.3783    0.3179    1.6825 H   0  0  0  0  0  0  0  0  0  0  0  0
   -8.4844   -0.8107    0.2506 H   0  0  0  0  0  0  0  0  0  0  0  0
   -8.5328    0.9571    0.0075 H   0  0  0  0  0  0  0  0  0  0  0  0
   -6.5483   -1.8936   -0.1261 H   0  0  0  0  0  0  0  0  0  0  0  0
   -4.0867   -1.9473   -0.3541 H   0  0  0  0  0  0  0  0  0  0  0  0
   -1.9010    1.4112    1.6355 H   0  0  0  0  0  0  0  0  0  0  0  0
    0.5679    1.2655    1.3491 H   0  0  0  0  0  0  0  0  0  0  0  0
   -2.4259   -1.4002   -1.4689 H   0  0  0  0  0  0  0  0  0  0  0  0
   -0.5887   -2.2847   -2.5463 H   0  0  0  0  0  0  0  0  0  0  0  0
    4.2385   -1.5135   -1.9302 H   0  0  0  0  0  0  0  0  0  0  0  0
    8.6205   -0.0174   -0.4849 H   0  0  0  0  0  0  0  0  0  0  0  0
    8.7588    1.5863    1.2958 H   0  0  0  0  0  0  0  0  0  0  0  0
    6.6719    2.4299    2.3413 H   0  0  0  0  0  0  0  0  0  0  0  0
   -3.8608    2.1072    0.8683 H   0  0  0  0  0  0  0  0  0  0  0  0
   -6.3589    2.1241    1.0881 H   0  0  0  0  0  0  0  0  0  0  0  0
  1  2  1  0
  2  3  2  0
  3  4  1  0
  4  5  2  0
  5  6  1  0
  6  7  2  0
  7  8  1  0
  8  9  2  0
  9 10  1  0
 10 11  2  0
 10 12  1  0
 12 13  1  0
 13 14  2  0
 13 15  1  0
 15 16  1  0
 16 17  1  0
 17 18  1  0
 18 19  2  0
 19 20  1  0
 19 21  1  0
 21 22  2  0
 22 23  1  0
 23 24  2  0
 24 25  1  0
 17 26  2  0
 26 27  1  0
  5 28  1  0
 28 29  2  0
 29  2  1  0
 11  6  1  0
 27 15  2  0
 27  9  1  0
 24 18  1  0
  1 30  1  0
  1 31  1  0
  1 32  1  0
  3 33  1  0
  4 34  1  0
  7 35  1  0
  8 36  1  0
 11 37  1  0
 12 38  1  0
 16 39  1  0
 21 40  1  0
 22 41  1  0
 23 42  1  0
 28 43  1  0
 29 44  1  0
M  END
$$$$
