
     RDKit          3D

 62 67  0  0  0  0  0  0  0  0999 V2000
   10.3056    0.3299    2.0741 C   0  0  0  0  0  0  0  0  0  0  0  0
    9.8132    0.1876    0.7572 O   0  0  0  0  0  0  0  0  0  0  0  0
    8.4423    0.1670    0.5085 C   0  0  0  0  0  0  0  0  0  0  0  0
    7.9841    0.0276   -0.7798 C   0  0  0  0  0  0  0  0  0  0  0  0
    6.6309    0.0111   -0.9910 N   0  0  0  0  0  0  0  0  0  0  0  0
    5.7742    0.1266    0.0208 C   0  0  0  0  0  0  0  0  0  0  0  0
    4.3268    0.1097   -0.1935 C   0  0  0  0  0  0  0  0  0  0  0  0
    3.5315    0.2184    0.7647 O   0  0  0  0  0  0  0  0  0  0  0  0
    3.8244   -0.0318   -1.5032 N   0  0  0  0  0  0  0  0  0  0  0  0
    2.4637   -0.0652   -1.8569 C   0  0  0  0  0  0  0  0  0  0  0  0
    2.1897   -0.2083   -3.2246 C   0  0  0  0  0  0  0  0  0  0  0  0
    0.8978   -0.2555   -3.6908 C   0  0  0  0  0  0  0  0  0  0  0  0
   -0.1850   -0.1610   -2.8048 C   0  0  0  0  0  0  0  0  0  0  0  0
    0.0697   -0.0227   -1.4868 C   0  0  0  0  0  0  0  0  0  0  0  0
    1.3953    0.0234   -1.0279 C   0  0  0  0  0  0  0  0  0  0  0  0
   -0.9833    0.0955   -0.4199 C   0  0  0  0  0  0  0  0  0  0  0  0
   -0.7689    1.3849    0.2803 C   0  0  0  0  0  0  0  0  0  0  0  0
   -0.4018    1.4284    1.6954 C   0  0  0  0  0  0  0  0  0  0  0  0
   -0.8806   -0.0050    2.6841 S   0  0  0  0  0  0  0  0  0  0  0  0
   -0.7718   -1.3912    1.5270 C   0  0  0  0  0  0  0  0  0  0  0  0
   -0.6218   -2.6824    2.0993 N   0  0  0  0  0  0  0  0  0  0  0  0
   -0.8365   -1.1095    0.3232 N   0  0  0  0  0  0  0  0  0  0  0  0
   -2.3250    0.0233   -1.0512 C   0  0  0  0  0  0  0  0  0  0  0  0
   -3.4375    0.1142   -0.1778 C   0  0  0  0  0  0  0  0  0  0  0  0
   -4.7312    0.0671   -0.6188 C   0  0  0  0  0  0  0  0  0  0  0  0
   -5.8706    0.1671    0.2966 C   0  0  0  0  0  0  0  0  0  0  0  0
   -5.7155    0.3259    1.6000 C   0  0  0  0  0  0  0  0  0  0  0  0
   -6.9784    0.4106    2.3933 C   0  0  0  0  0  0  0  0  0  0  0  0
   -7.8757   -0.5795    2.1043 O   0  0  0  0  0  0  0  0  0  0  0  0
   -7.9748   -0.9039    0.7784 C   0  0  0  0  0  0  0  0  0  0  0  0
   -7.2893    0.0954   -0.1498 C   0  0  0  0  0  0  0  0  0  0  0  0
   -4.9116   -0.0754   -1.9780 C   0  0  0  0  0  0  0  0  0  0  0  0
   -3.8428   -0.1640   -2.8291 C   0  0  0  0  0  0  0  0  0  0  0  0
   -4.0060   -0.3062   -4.1845 F   0  0  0  0  0  0  0  0  0  0  0  0
   -2.5040   -0.1163   -2.3808 C   0  0  0  0  0  0  0  0  0  0  0  0
   -1.4851   -0.2149   -3.3212 O   0  0  0  0  0  0  0  0  0  0  0  0
    6.2490    0.2646    1.2967 C   0  0  0  0  0  0  0  0  0  0  0  0
    7.5943    0.2841    1.5348 N   0  0  0  0  0  0  0  0  0  0  0  0
    9.4384    0.3887    2.7879 H   0  0  0  0  0  0  0  0  0  0  0  0
   10.8882    1.2705    2.1964 H   0  0  0  0  0  0  0  0  0  0  0  0
   10.8948   -0.5757    2.3279 H   0  0  0  0  0  0  0  0  0  0  0  0
    8.6934   -0.0650   -1.5887 H   0  0  0  0  0  0  0  0  0  0  0  0
    4.5868   -0.1181   -2.2610 H   0  0  0  0  0  0  0  0  0  0  0  0
    3.0400   -0.2813   -3.9098 H   0  0  0  0  0  0  0  0  0  0  0  0
    0.6738   -0.3677   -4.7628 H   0  0  0  0  0  0  0  0  0  0  0  0
    1.5495    0.1349    0.0661 H   0  0  0  0  0  0  0  0  0  0  0  0
   -1.6798    2.0105    0.0843 H   0  0  0  0  0  0  0  0  0  0  0  0
    0.0328    1.9552   -0.2825 H   0  0  0  0  0  0  0  0  0  0  0  0
    0.7208    1.5154    1.8126 H   0  0  0  0  0  0  0  0  0  0  0  0
   -0.7767    2.3192    2.2517 H   0  0  0  0  0  0  0  0  0  0  0  0
   -0.9619   -2.9220    3.0560 H   0  0  0  0  0  0  0  0  0  0  0  0
   -0.1526   -3.4410    1.5545 H   0  0  0  0  0  0  0  0  0  0  0  0
   -3.2403    0.2251    0.8784 H   0  0  0  0  0  0  0  0  0  0  0  0
   -4.7481    0.3906    2.0606 H   0  0  0  0  0  0  0  0  0  0  0  0
   -7.3961    1.4299    2.2044 H   0  0  0  0  0  0  0  0  0  0  0  0
   -6.6885    0.3166    3.4587 H   0  0  0  0  0  0  0  0  0  0  0  0
   -7.4475   -1.8724    0.6105 H   0  0  0  0  0  0  0  0  0  0  0  0
   -9.0472   -0.9913    0.4995 H   0  0  0  0  0  0  0  0  0  0  0  0
   -7.4480   -0.2565   -1.1602 H   0  0  0  0  0  0  0  0  0  0  0  0
   -7.7156    1.1168    0.0388 H   0  0  0  0  0  0  0  0  0  0  0  0
   -5.9078   -0.1151   -2.3709 H   0  0  0  0  0  0  0  0  0  0  0  0
    5.5964    0.3625    2.1567 H   0  0  0  0  0  0  0  0  0  0  0  0
  1  2  1  0
  2  3  1  0
  3  4  2  0
  4  5  1  0
  5  6  2  0
  6  7  1  0
  7  8  2  0
  7  9  1  0
  9 10  1  0
 10 11  2  0
 11 12  1  0
 12 13  2  0
 13 14  1  0
 14 15  2  0
 14 16  1  0
 16 17  1  0
 17 18  1  0
 18 19  1  0
 19 20  1  0
 20 21  1  0
 20 22  2  0
 16 23  1  0
 23 24  2  0
 24 25  1  0
 25 26  1  0
 26 27  2  0
 27 28  1  0
 28 29  1  0
 29 30  1  0
 30 31  1  0
 25 32  2  0
 32 33  1  0
 33 34  1  0
 33 35  2  0
 35 36  1  0
  6 37  1  0
 37 38  2  0
 38  3  1  0
 15 10  1  0
 22 16  1  0
 35 23  1  0
 36 13  1  0
 31 26  1  0
  1 39  1  0
  1 40  1  0
  1 41  1  0
  4 42  1  0
  9 43  1  0
 11 44  1  0
 12 45  1  0
 15 46  1  0
 17 47  1  0
 17 48  1  0
 18 49  1  0
 18 50  1  0
 21 51  1  0
 21 52  1  0
 24 53  1  0
 27 54  1  0
 28 55  1  0
 28 56  1  0
 30 57  1  0
 30 58  1  0
 31 59  1  0
 31 60  1  0
 32 61  1  0
 37 62  1  0
M  END
$$$$
