
     RDKit          3D

123125  0  0  0  0  0  0  0  0999 V2000
   -1.3588   -6.2390   -2.5447 C   0  0  0  0  0  0  0  0  0  0  0  0
   -0.1683   -5.6987   -3.3031 C   0  0  0  0  0  0  0  0  0  0  0  0
    0.6593   -4.7298   -2.5719 C   0  0  2  0  0  0  0  0  0  0  0  0
    1.2009   -5.3084   -1.2867 C   0  0  0  0  0  0  0  0  0  0  0  0
    0.1119   -3.3503   -2.4741 C   0  0  2  0  0  0  0  0  0  0  0  0
    1.0643   -2.4860   -1.6835 N   0  0  0  0  0  0  0  0  0  0  0  0
    1.2953   -1.2028   -2.0549 C   0  0  0  0  0  0  0  0  0  0  0  0
    0.5577   -0.9660   -3.1359 O   0  0  0  0  0  0  0  0  0  0  0  0
    2.0336    0.0453   -1.7399 C   0  0  2  0  0  0  0  0  0  0  0  0
    2.9744   -0.1480   -0.6822 N   0  0  0  0  0  0  0  0  0  0  0  0
    4.3930   -0.0910   -0.9191 C   0  0  0  0  0  0  0  0  0  0  0  0
    4.7944    0.1469   -2.0933 O   0  0  0  0  0  0  0  0  0  0  0  0
    5.3629   -0.2867    0.0763 N   0  0  0  0  0  0  0  0  0  0  0  0
    6.7957   -0.2181   -0.2788 C   0  0  1  0  0  0  0  0  0  0  0  0
    7.4369    0.6751    0.7258 C   0  0  0  0  0  0  0  0  0  0  0  0
    8.9100    0.8946    0.5458 C   0  0  0  0  0  0  0  0  0  0  0  0
    9.4096    1.8187    1.6245 C   0  0  0  0  0  0  0  0  0  0  0  0
    8.7421    3.0922    1.5590 N   0  0  0  0  0  0  0  0  0  0  0  0
    9.1156    4.0996    2.5099 C   0  0  0  0  0  0  0  0  0  0  0  0
   10.1249    3.9815    3.2858 N   0  0  0  0  0  0  0  0  0  0  0  0
    8.3274    5.2828    2.5899 N   0  0  0  0  0  0  0  0  0  0  0  0
    7.3838   -1.5852   -0.1703 C   0  0  0  0  0  0  0  0  0  0  0  0
    6.6537   -2.5349    0.2223 O   0  0  0  0  0  0  0  0  0  0  0  0
    8.6987   -1.8936   -0.4767 O   0  0  0  0  0  0  0  0  0  0  0  0
    1.0334    1.1369   -1.4303 C   0  0  0  0  0  0  0  0  0  0  0  0
    1.6652    2.4453   -1.1547 C   0  0  0  0  0  0  0  0  0  0  0  0
    0.4890    3.3812   -0.7672 C   0  0  0  0  0  0  0  0  0  0  0  0
   -0.3954    3.5387   -1.9546 C   0  0  0  0  0  0  0  0  0  0  0  0
   -1.8251    3.4533   -1.5494 N   0  0  0  0  0  0  0  0  0  0  0  0
   -2.4503    4.2994   -0.6331 C   0  0  0  0  0  0  0  0  0  0  0  0
   -1.5031    5.1602   -0.3014 O   0  0  0  0  0  0  0  0  0  0  0  0
   -3.7072    4.5280    0.0226 C   0  0  2  0  0  0  0  0  0  0  0  0
   -3.5863    5.3313    1.2724 C   0  0  0  0  0  0  0  0  0  0  0  0
   -3.0460    6.6731    1.1949 C   0  0  0  0  0  0  0  0  0  0  0  0
   -1.7793    6.9830    1.5920 C   0  0  0  0  0  0  0  0  0  0  0  0
   -1.2731    8.2776    1.4762 C   0  0  0  0  0  0  0  0  0  0  0  0
   -2.0924    9.2424    0.9472 C   0  0  0  0  0  0  0  0  0  0  0  0
   -3.3751    8.9678    0.5369 C   0  0  0  0  0  0  0  0  0  0  0  0
   -3.8407    7.6771    0.6662 C   0  0  0  0  0  0  0  0  0  0  0  0
   -4.6943    3.4482    0.1639 N   0  0  0  0  0  0  0  0  0  0  0  0
   -4.3402    2.1048    0.2277 C   0  0  0  0  0  0  0  0  0  0  0  0
   -3.0616    2.0642    0.2185 O   0  0  0  0  0  0  0  0  0  0  0  0
   -5.0273    0.8035    0.3053 C   0  0  2  0  0  0  0  0  0  0  0  0
   -5.6749    0.5824    1.6845 C   0  0  0  0  0  0  0  0  0  0  0  0
   -3.9945   -0.3160    0.2897 N   0  0  0  0  0  0  0  0  0  0  0  0
   -3.0548   -0.0761    1.3054 C   0  0  0  0  0  0  0  0  0  0  0  0
   -4.1063   -1.4025   -0.5487 C   0  0  0  0  0  0  0  0  0  0  0  0
   -5.3552   -1.2328   -1.0078 O   0  0  0  0  0  0  0  0  0  0  0  0
   -3.5342   -2.6161   -1.1400 C   0  0  2  0  0  0  0  0  0  0  0  0
   -4.2020   -3.8645   -0.5235 C   0  0  0  0  0  0  0  0  0  0  0  0
   -4.0133   -3.9319    0.9586 C   0  0  0  0  0  0  0  0  0  0  0  0
   -4.7061   -5.1807    1.4390 C   0  0  0  0  0  0  0  0  0  0  0  0
   -4.0601   -6.3874    1.5527 C   0  0  0  0  0  0  0  0  0  0  0  0
   -4.7681   -7.4855    1.9900 C   0  0  0  0  0  0  0  0  0  0  0  0
   -6.1099   -7.4313    2.3229 C   0  0  0  0  0  0  0  0  0  0  0  0
   -6.7356   -8.5955    2.7539 O   0  0  0  0  0  0  0  0  0  0  0  0
   -6.7611   -6.2304    2.2118 C   0  0  0  0  0  0  0  0  0  0  0  0
   -6.0564   -5.1392    1.7773 C   0  0  0  0  0  0  0  0  0  0  0  0
   -2.0694   -2.7538   -1.0259 N   0  0  0  0  0  0  0  0  0  0  0  0
   -1.2758   -3.1855   -2.0627 C   0  0  0  0  0  0  0  0  0  0  0  0
   -2.1028   -3.6052   -3.0051 O   0  0  0  0  0  0  0  0  0  0  0  0
   -2.2828   -6.2848   -3.1331 H   0  0  0  0  0  0  0  0  0  0  0  0
   -1.4848   -5.7609   -1.5312 H   0  0  0  0  0  0  0  0  0  0  0  0
   -1.1751   -7.3296   -2.2561 H   0  0  0  0  0  0  0  0  0  0  0  0
   -0.4581   -5.3539   -4.3266 H   0  0  0  0  0  0  0  0  0  0  0  0
    0.4939   -6.5922   -3.5261 H   0  0  0  0  0  0  0  0  0  0  0  0
    1.6081   -4.5975   -3.2398 H   0  0  0  0  0  0  0  0  0  0  0  0
    2.2118   -4.8840   -1.0997 H   0  0  0  0  0  0  0  0  0  0  0  0
    1.3166   -6.4111   -1.4489 H   0  0  0  0  0  0  0  0  0  0  0  0
    0.5590   -5.0701   -0.4261 H   0  0  0  0  0  0  0  0  0  0  0  0
    0.1279   -2.9489   -3.5463 H   0  0  0  0  0  0  0  0  0  0  0  0
    1.4310   -3.0140   -0.9183 H   0  0  0  0  0  0  0  0  0  0  0  0
    2.5808    0.3421   -2.6525 H   0  0  0  0  0  0  0  0  0  0  0  0
    2.7134   -0.3386    0.3140 H   0  0  0  0  0  0  0  0  0  0  0  0
    5.1050   -0.4779    1.0578 H   0  0  0  0  0  0  0  0  0  0  0  0
    6.9290    0.0904   -1.3233 H   0  0  0  0  0  0  0  0  0  0  0  0
    6.8932    1.6484    0.7267 H   0  0  0  0  0  0  0  0  0  0  0  0
    7.2956    0.2703    1.7526 H   0  0  0  0  0  0  0  0  0  0  0  0
    9.4294   -0.0951    0.6888 H   0  0  0  0  0  0  0  0  0  0  0  0
    9.1425    1.2733   -0.4728 H   0  0  0  0  0  0  0  0  0  0  0  0
    9.2005    1.3226    2.6065 H   0  0  0  0  0  0  0  0  0  0  0  0
   10.5183    1.9350    1.5905 H   0  0  0  0  0  0  0  0  0  0  0  0
    8.0100    3.3364    0.8711 H   0  0  0  0  0  0  0  0  0  0  0  0
   10.7062    3.1257    3.2355 H   0  0  0  0  0  0  0  0  0  0  0  0
    8.3439    5.9604    1.7904 H   0  0  0  0  0  0  0  0  0  0  0  0
    7.7483    5.4459    3.4525 H   0  0  0  0  0  0  0  0  0  0  0  0
    8.9282   -2.8589   -0.6895 H   0  0  0  0  0  0  0  0  0  0  0  0
    0.2657    1.0852   -2.1975 H   0  0  0  0  0  0  0  0  0  0  0  0
    0.5215    0.7969   -0.4710 H   0  0  0  0  0  0  0  0  0  0  0  0
    2.1532    2.8202   -2.0663 H   0  0  0  0  0  0  0  0  0  0  0  0
    2.3388    2.3548   -0.3011 H   0  0  0  0  0  0  0  0  0  0  0  0
   -0.0743    2.9408    0.0691 H   0  0  0  0  0  0  0  0  0  0  0  0
    0.9124    4.3457   -0.4107 H   0  0  0  0  0  0  0  0  0  0  0  0
   -0.2330    2.8457   -2.7659 H   0  0  0  0  0  0  0  0  0  0  0  0
   -0.1829    4.5524   -2.3704 H   0  0  0  0  0  0  0  0  0  0  0  0
   -2.2638    2.7234   -2.0718 H   0  0  0  0  0  0  0  0  0  0  0  0
   -4.3085    5.2518   -0.6982 H   0  0  0  0  0  0  0  0  0  0  0  0
   -3.0652    4.7595    2.0902 H   0  0  0  0  0  0  0  0  0  0  0  0
   -4.6621    5.4375    1.6562 H   0  0  0  0  0  0  0  0  0  0  0  0
   -1.0845    6.2742    2.0406 H   0  0  0  0  0  0  0  0  0  0  0  0
   -0.2694    8.5062    1.7935 H   0  0  0  0  0  0  0  0  0  0  0  0
   -1.7018   10.2464    0.8563 H   0  0  0  0  0  0  0  0  0  0  0  0
   -3.9524    9.7804    0.1330 H   0  0  0  0  0  0  0  0  0  0  0  0
   -4.8615    7.4952    0.3319 H   0  0  0  0  0  0  0  0  0  0  0  0
   -5.6317    3.8766    0.2257 H   0  0  0  0  0  0  0  0  0  0  0  0
   -5.8165    0.6271   -0.4030 H   0  0  0  0  0  0  0  0  0  0  0  0
   -5.4852    1.5193    2.2873 H   0  0  0  0  0  0  0  0  0  0  0  0
   -6.7860    0.5143    1.6088 H   0  0  0  0  0  0  0  0  0  0  0  0
   -5.3468   -0.3146    2.1929 H   0  0  0  0  0  0  0  0  0  0  0  0
   -3.3472    0.7722    2.0142 H   0  0  0  0  0  0  0  0  0  0  0  0
   -2.9692   -0.8932    2.1115 H   0  0  0  0  0  0  0  0  0  0  0  0
   -2.0400    0.1995    0.9633 H   0  0  0  0  0  0  0  0  0  0  0  0
   -3.8653   -2.6711   -2.1947 H   0  0  0  0  0  0  0  0  0  0  0  0
   -3.9332   -4.7646   -1.0602 H   0  0  0  0  0  0  0  0  0  0  0  0
   -5.2893   -3.6904   -0.7000 H   0  0  0  0  0  0  0  0  0  0  0  0
   -2.9903   -3.9769    1.3157 H   0  0  0  0  0  0  0  0  0  0  0  0
   -4.5248   -3.1009    1.4864 H   0  0  0  0  0  0  0  0  0  0  0  0
   -3.0150   -6.4355    1.2962 H   0  0  0  0  0  0  0  0  0  0  0  0
   -4.2489   -8.4392    2.0783 H   0  0  0  0  0  0  0  0  0  0  0  0
   -7.0689   -9.2546    2.0614 H   0  0  0  0  0  0  0  0  0  0  0  0
   -7.8086   -6.1987    2.4738 H   0  0  0  0  0  0  0  0  0  0  0  0
   -6.5796   -4.1732    1.6875 H   0  0  0  0  0  0  0  0  0  0  0  0
   -1.8059   -2.5074   -0.0886 H   0  0  0  0  0  0  0  0  0  0  0  0
  1  2  1  0
  2  3  1  0
  3  4  1  0
  3  5  1  0
  5  6  1  0
  6  7  1  0
  7  8  2  0
  7  9  1  0
  9 10  1  0
 10 11  1  0
 11 12  2  0
 11 13  1  0
 13 14  1  0
 14 15  1  0
 15 16  1  0
 16 17  1  0
 17 18  1  0
 18 19  1  0
 19 20  2  3
 19 21  1  0
 14 22  1  0
 22 23  2  0
 22 24  1  0
  9 25  1  0
 25 26  1  0
 26 27  1  0
 27 28  1  0
 28 29  1  0
 29 30  1  0
 30 31  2  0
 30 32  1  0
 32 33  1  0
 33 34  1  0
 34 35  2  0
 35 36  1  0
 36 37  2  0
 37 38  1  0
 38 39  2  0
 32 40  1  0
 40 41  1  0
 41 42  2  0
 41 43  1  0
 43 44  1  0
 43 45  1  0
 45 46  1  0
 45 47  1  0
 47 48  2  0
 47 49  1  0
 49 50  1  0
 50 51  1  0
 51 52  1  0
 52 53  2  0
 53 54  1  0
 54 55  2  0
 55 56  1  0
 55 57  1  0
 57 58  2  0
 49 59  1  0
 59 60  1  0
 60 61  2  0
 60  5  1  0
 39 34  1  0
 58 52  1  0
  1 62  1  0
  1 63  1  0
  1 64  1  0
  2 65  1  0
  2 66  1  0
  3 67  1  6
  4 68  1  0
  4 69  1  0
  4 70  1  0
  5 71  1  6
  6 72  1  0
  9 73  1  6
 10 74  1  0
 13 75  1  0
 14 76  1  6
 15 77  1  0
 15 78  1  0
 16 79  1  0
 16 80  1  0
 17 81  1  0
 17 82  1  0
 18 83  1  0
 20 84  1  0
 21 85  1  0
 21 86  1  0
 24 87  1  0
 25 88  1  0
 25 89  1  0
 26 90  1  0
 26 91  1  0
 27 92  1  0
 27 93  1  0
 28 94  1  0
 28 95  1  0
 29 96  1  0
 32 97  1  6
 33 98  1  0
 33 99  1  0
 35100  1  0
 36101  1  0
 37102  1  0
 38103  1  0
 39104  1  0
 40105  1  0
 43106  1  6
 44107  1  0
 44108  1  0
 44109  1  0
 46110  1  0
 46111  1  0
 46112  1  0
 49113  1  6
 50114  1  0
 50115  1  0
 51116  1  0
 51117  1  0
 53118  1  0
 54119  1  0
 56120  1  0
 57121  1  0
 58122  1  0
 59123  1  0
M  END
$$$$
