
     RDKit          3D

 57 61  0  0  0  0  0  0  0  0999 V2000
   -4.1965    1.3553    2.4844 C   0  0  0  0  0  0  0  0  0  0  0  0
   -3.6448    0.9063    1.1535 C   0  0  1  0  0  0  0  0  0  0  0  0
   -3.4844   -0.4901    1.1459 O   0  0  0  0  0  0  0  0  0  0  0  0
   -2.2234   -1.0160    0.9193 C   0  0  0  0  0  0  0  0  0  0  0  0
   -1.1460   -0.2162    0.7057 N   0  0  0  0  0  0  0  0  0  0  0  0
    0.0810   -0.6877    0.4846 C   0  0  0  0  0  0  0  0  0  0  0  0
    1.2359    0.1685    0.2556 C   0  0  0  0  0  0  0  0  0  0  0  0
    1.1861    1.5437    0.2428 C   0  0  0  0  0  0  0  0  0  0  0  0
    2.4460    1.9900    0.0008 N   0  0  0  0  0  0  0  0  0  0  0  0
    3.2839    0.9718   -0.1390 N   0  0  0  0  0  0  0  0  0  0  0  0
    4.7110    1.0482   -0.4062 C   0  0  0  0  0  0  0  0  0  0  0  0
    5.1905   -0.3327   -0.7987 C   0  0  0  0  0  0  0  0  0  0  0  0
    6.5606   -0.3193   -1.4005 C   0  0  0  0  0  0  0  0  0  0  0  0
    7.1522    0.9768   -1.1393 N   0  0  0  0  0  0  0  0  0  0  0  0
    6.4300    2.0002   -1.8607 C   0  0  0  0  0  0  0  0  0  0  0  0
    4.9516    1.9674   -1.5820 C   0  0  0  0  0  0  0  0  0  0  0  0
    2.5493   -0.1564    0.0160 C   0  0  0  0  0  0  0  0  0  0  0  0
    0.2206   -2.0807    0.4809 C   0  0  0  0  0  0  0  0  0  0  0  0
   -0.8274   -2.9209    0.6897 C   0  0  0  0  0  0  0  0  0  0  0  0
   -0.8837   -4.2640    0.7217 N   0  0  0  0  0  0  0  0  0  0  0  0
   -2.1503   -4.5834    0.9629 N   0  0  0  0  0  0  0  0  0  0  0  0
   -2.5972   -5.9709    1.0684 C   0  0  0  0  0  0  0  0  0  0  0  0
   -2.9067   -3.4790    1.0862 C   0  0  0  0  0  0  0  0  0  0  0  0
   -2.0808   -2.3859    0.9147 C   0  0  0  0  0  0  0  0  0  0  0  0
   -4.5477    1.3634    0.0077 C   0  0  1  0  0  0  0  0  0  0  0  0
   -4.6601    2.8718   -0.0128 C   0  0  0  0  0  0  0  0  0  0  0  0
   -5.1758    3.0968   -1.3604 N   0  0  0  0  0  0  0  0  0  0  0  0
   -4.5017    2.1584   -2.1979 C   0  0  0  0  0  0  0  0  0  0  0  0
   -4.4189    2.2612   -3.4541 O   0  0  0  0  0  0  0  0  0  0  0  0
   -3.9346    1.0708   -1.3258 C   0  0  0  0  0  0  0  0  0  0  0  0
   -4.3421    0.5098    3.1942 H   0  0  0  0  0  0  0  0  0  0  0  0
   -5.2064    1.8285    2.3811 H   0  0  0  0  0  0  0  0  0  0  0  0
   -3.4811    2.0607    2.9526 H   0  0  0  0  0  0  0  0  0  0  0  0
   -2.6676    1.3910    0.9640 H   0  0  0  0  0  0  0  0  0  0  0  0
    0.3091    2.1512    0.3965 H   0  0  0  0  0  0  0  0  0  0  0  0
    5.2485    1.4160    0.4887 H   0  0  0  0  0  0  0  0  0  0  0  0
    5.1088   -0.9721    0.1022 H   0  0  0  0  0  0  0  0  0  0  0  0
    4.4724   -0.7291   -1.5491 H   0  0  0  0  0  0  0  0  0  0  0  0
    7.1694   -1.0880   -0.8811 H   0  0  0  0  0  0  0  0  0  0  0  0
    6.5496   -0.5097   -2.4767 H   0  0  0  0  0  0  0  0  0  0  0  0
    7.2030    1.1743   -0.1269 H   0  0  0  0  0  0  0  0  0  0  0  0
    6.8110    2.9805   -1.5066 H   0  0  0  0  0  0  0  0  0  0  0  0
    6.6431    1.8778   -2.9591 H   0  0  0  0  0  0  0  0  0  0  0  0
    4.4670    1.4948   -2.4692 H   0  0  0  0  0  0  0  0  0  0  0  0
    4.5091    2.9688   -1.4261 H   0  0  0  0  0  0  0  0  0  0  0  0
    2.9107   -1.1647   -0.0352 H   0  0  0  0  0  0  0  0  0  0  0  0
    1.2236   -2.4463    0.2999 H   0  0  0  0  0  0  0  0  0  0  0  0
   -3.6890   -6.0634    0.9699 H   0  0  0  0  0  0  0  0  0  0  0  0
   -2.1031   -6.5499    0.2414 H   0  0  0  0  0  0  0  0  0  0  0  0
   -2.2418   -6.4055    2.0237 H   0  0  0  0  0  0  0  0  0  0  0  0
   -3.9697   -3.4292    1.2835 H   0  0  0  0  0  0  0  0  0  0  0  0
   -5.5668    0.9604    0.1081 H   0  0  0  0  0  0  0  0  0  0  0  0
   -3.6594    3.3493    0.0097 H   0  0  0  0  0  0  0  0  0  0  0  0
   -5.3572    3.2721    0.7230 H   0  0  0  0  0  0  0  0  0  0  0  0
   -5.8927    3.8045   -1.6407 H   0  0  0  0  0  0  0  0  0  0  0  0
   -4.2218    0.0875   -1.7363 H   0  0  0  0  0  0  0  0  0  0  0  0
   -2.8453    1.1831   -1.2750 H   0  0  0  0  0  0  0  0  0  0  0  0
  1  2  1  0
  2  3  1  0
  3  4  1  0
  4  5  2  0
  5  6  1  0
  6  7  1  0
  7  8  1  0
  8  9  2  0
  9 10  1  0
 10 11  1  0
 11 12  1  0
 12 13  1  0
 13 14  1  0
 14 15  1  0
 15 16  1  0
 10 17  1  0
  6 18  2  0
 18 19  1  0
 19 20  2  0
 20 21  1  0
 21 22  1  0
 21 23  1  0
 23 24  2  0
  2 25  1  0
 25 26  1  0
 26 27  1  0
 27 28  1  0
 28 29  2  0
 28 30  1  0
 24  4  1  0
 30 25  1  0
 17  7  2  0
 24 19  1  0
 16 11  1  0
  1 31  1  0
  1 32  1  0
  1 33  1  0
  2 34  1  6
  8 35  1  0
 11 36  1  0
 12 37  1  0
 12 38  1  0
 13 39  1  0
 13 40  1  0
 14 41  1  0
 15 42  1  0
 15 43  1  0
 16 44  1  0
 16 45  1  0
 17 46  1  0
 18 47  1  0
 22 48  1  0
 22 49  1  0
 22 50  1  0
 23 51  1  0
 25 52  1  6
 26 53  1  0
 26 54  1  0
 27 55  1  0
 30 56  1  0
 30 57  1  0
M  END
$$$$
