
     RDKit          3D

 41 43  0  0  0  0  0  0  0  0999 V2000
    8.2853    0.1156   -0.2482 O   0  0  0  0  0  0  0  0  0  0  0  0
    7.2602    0.7575   -0.5592 C   0  0  0  0  0  0  0  0  0  0  0  0
    7.3584    2.0372   -1.1513 N   0  0  0  0  0  0  0  0  0  0  0  0
    8.5349    2.6101   -1.4016 O   0  0  0  0  0  0  0  0  0  0  0  0
    5.9852    0.1158   -0.2782 C   0  0  0  0  0  0  0  0  0  0  0  0
    5.6806   -1.1129    0.2876 C   0  0  0  0  0  0  0  0  0  0  0  0
    4.3814   -1.4182    0.4122 C   0  0  0  0  0  0  0  0  0  0  0  0
    3.4364   -0.5735    0.0083 C   0  0  0  0  0  0  0  0  0  0  0  0
    1.9807   -0.6473    0.0237 C   0  0  0  0  0  0  0  0  0  0  0  0
    1.3936   -1.7693    0.5362 C   0  0  0  0  0  0  0  0  0  0  0  0
    0.0317   -1.8872    0.5732 C   0  0  0  0  0  0  0  0  0  0  0  0
   -0.7267   -0.8315    0.0739 C   0  0  0  0  0  0  0  0  0  0  0  0
   -2.2112   -0.9967    0.1313 C   0  0  0  0  0  0  0  0  0  0  0  0
   -2.6198   -0.4441    1.4325 N   0  0  0  0  0  0  0  0  0  0  0  0
   -4.0457   -0.5562    1.5884 C   0  0  0  0  0  0  0  0  0  0  0  0
   -4.7711    0.1743    0.5362 C   0  0  0  0  0  0  0  0  0  0  0  0
   -5.1173    1.4977    0.7173 C   0  0  0  0  0  0  0  0  0  0  0  0
   -5.7975    2.1780   -0.2727 C   0  0  0  0  0  0  0  0  0  0  0  0
   -6.1300    1.5184   -1.4518 C   0  0  0  0  0  0  0  0  0  0  0  0
   -5.7917    0.2120   -1.6382 C   0  0  0  0  0  0  0  0  0  0  0  0
   -5.1079   -0.4677   -0.6401 C   0  0  0  0  0  0  0  0  0  0  0  0
   -0.1232    0.2831   -0.4350 C   0  0  0  0  0  0  0  0  0  0  0  0
    1.2195    0.3425   -0.4451 N   0  0  0  0  0  0  0  0  0  0  0  0
    4.3937    0.7924   -0.6126 S   0  0  0  0  0  0  0  0  0  0  0  0
    6.4513    2.5155   -1.3848 H   0  0  0  0  0  0  0  0  0  0  0  0
    9.2508    2.1231   -0.9318 H   0  0  0  0  0  0  0  0  0  0  0  0
    6.5436   -1.7549    0.5964 H   0  0  0  0  0  0  0  0  0  0  0  0
    4.0765   -2.4045    0.8656 H   0  0  0  0  0  0  0  0  0  0  0  0
    1.9686   -2.6044    0.9309 H   0  0  0  0  0  0  0  0  0  0  0  0
   -0.4252   -2.7798    0.9812 H   0  0  0  0  0  0  0  0  0  0  0  0
   -2.5327   -2.0351    0.0565 H   0  0  0  0  0  0  0  0  0  0  0  0
   -2.6473   -0.3225   -0.6390 H   0  0  0  0  0  0  0  0  0  0  0  0
   -2.3676    0.5544    1.5060 H   0  0  0  0  0  0  0  0  0  0  0  0
   -4.2877   -0.1676    2.6098 H   0  0  0  0  0  0  0  0  0  0  0  0
   -4.2940   -1.6407    1.5319 H   0  0  0  0  0  0  0  0  0  0  0  0
   -4.8640    2.0109    1.6230 H   0  0  0  0  0  0  0  0  0  0  0  0
   -6.0718    3.2089   -0.1416 H   0  0  0  0  0  0  0  0  0  0  0  0
   -6.6661    2.0749   -2.2178 H   0  0  0  0  0  0  0  0  0  0  0  0
   -6.0522   -0.2954   -2.5555 H   0  0  0  0  0  0  0  0  0  0  0  0
   -4.8349   -1.4968   -0.7728 H   0  0  0  0  0  0  0  0  0  0  0  0
   -0.7464    1.0839   -0.8143 H   0  0  0  0  0  0  0  0  0  0  0  0
  1  2  2  0
  2  3  1  0
  3  4  1  0
  2  5  1  0
  5  6  2  0
  6  7  1  0
  7  8  2  0
  8  9  1  0
  9 10  2  0
 10 11  1  0
 11 12  2  0
 12 13  1  0
 13 14  1  0
 14 15  1  0
 15 16  1  0
 16 17  2  0
 17 18  1  0
 18 19  2  0
 19 20  1  0
 20 21  2  0
 12 22  1  0
 22 23  2  0
  8 24  1  0
 24  5  1  0
 23  9  1  0
 21 16  1  0
  3 25  1  0
  4 26  1  0
  6 27  1  0
  7 28  1  0
 10 29  1  0
 11 30  1  0
 13 31  1  0
 13 32  1  0
 14 33  1  0
 15 34  1  0
 15 35  1  0
 17 36  1  0
 18 37  1  0
 19 38  1  0
 20 39  1  0
 21 40  1  0
 22 41  1  0
M  END
$$$$
