
     RDKit          3D

 23 23  0  0  0  0  0  0  0  0999 V2000
   -3.5572   -0.8935    0.2502 O   0  0  0  0  0  0  0  0  0  0  0  0
   -3.0261    0.3796    0.3527 C   0  0  0  0  0  0  0  0  0  0  0  0
   -1.6119    0.4647   -0.1639 C   0  0  1  0  0  0  0  0  0  0  0  0
   -1.1943    1.7873   -0.0063 O   0  0  0  0  0  0  0  0  0  0  0  0
   -0.6925   -0.4697    0.5604 C   0  0  0  0  0  0  0  0  0  0  0  0
    0.6850   -0.3757    0.0454 C   0  0  0  0  0  0  0  0  0  0  0  0
    1.2264   -1.1319   -0.9971 C   0  0  0  0  0  0  0  0  0  0  0  0
    2.5345   -0.9603   -1.3990 C   0  0  0  0  0  0  0  0  0  0  0  0
    3.3509   -0.0176   -0.7649 C   0  0  0  0  0  0  0  0  0  0  0  0
    2.8241    0.7314    0.2635 C   0  0  0  0  0  0  0  0  0  0  0  0
    1.5215    0.5511    0.6537 C   0  0  0  0  0  0  0  0  0  0  0  0
   -2.9909   -1.5476   -0.1938 H   0  0  0  0  0  0  0  0  0  0  0  0
   -3.0881    0.7839    1.3701 H   0  0  0  0  0  0  0  0  0  0  0  0
   -3.6595    1.0209   -0.3264 H   0  0  0  0  0  0  0  0  0  0  0  0
   -1.5807    0.1892   -1.2429 H   0  0  0  0  0  0  0  0  0  0  0  0
   -1.4398    2.0527    0.8952 H   0  0  0  0  0  0  0  0  0  0  0  0
   -1.0526   -1.5094    0.4441 H   0  0  0  0  0  0  0  0  0  0  0  0
   -0.7070   -0.2297    1.6301 H   0  0  0  0  0  0  0  0  0  0  0  0
    0.5511   -1.8451   -1.4512 H   0  0  0  0  0  0  0  0  0  0  0  0
    2.8527   -1.6048   -2.2236 H   0  0  0  0  0  0  0  0  0  0  0  0
    4.3427   -0.0020   -1.1908 H   0  0  0  0  0  0  0  0  0  0  0  0
    3.5020    1.4261    0.6968 H   0  0  0  0  0  0  0  0  0  0  0  0
    1.2096    1.2007    1.4808 H   0  0  0  0  0  0  0  0  0  0  0  0
  1  2  1  0
  2  3  1  0
  3  4  1  0
  3  5  1  0
  5  6  1  0
  6  7  2  0
  7  8  1  0
  8  9  2  0
  9 10  1  0
 10 11  2  0
 11  6  1  0
  1 12  1  0
  2 13  1  0
  2 14  1  0
  3 15  1  6
  4 16  1  0
  5 17  1  0
  5 18  1  0
  7 19  1  0
  8 20  1  0
  9 21  1  0
 10 22  1  0
 11 23  1  0
M  END
$$$$
