
     RDKit          3D

 49 52  0  0  0  0  0  0  0  0999 V2000
    4.8650   -0.5441   -2.4487 C   0  0  0  0  0  0  0  0  0  0  0  0
    5.2541   -0.2399   -1.1272 O   0  0  0  0  0  0  0  0  0  0  0  0
    4.2741   -0.0946   -0.1641 C   0  0  0  0  0  0  0  0  0  0  0  0
    2.9756   -0.2385   -0.4730 N   0  0  0  0  0  0  0  0  0  0  0  0
    1.9785   -0.1091    0.4200 C   0  0  0  0  0  0  0  0  0  0  0  0
    0.6220   -0.2795    0.0029 N   0  0  0  0  0  0  0  0  0  0  0  0
    0.1799   -0.5876   -1.3219 C   0  0  0  0  0  0  0  0  0  0  0  0
   -1.2965   -0.7498   -1.2116 C   0  0  1  0  0  0  0  0  0  0  0  0
   -1.5593   -2.1784   -0.8264 C   0  0  0  0  0  0  0  0  0  0  0  0
   -0.7274   -3.1029   -1.0026 O   0  0  0  0  0  0  0  0  0  0  0  0
   -2.8060   -2.5132   -0.2330 N   0  0  0  0  0  0  0  0  0  0  0  0
   -3.3801   -3.8569   -0.3511 C   0  0  0  0  0  0  0  0  0  0  0  0
   -3.4765   -1.4823    0.4846 C   0  0  0  0  0  0  0  0  0  0  0  0
   -4.7193   -1.7138    1.1092 N   0  0  0  0  0  0  0  0  0  0  0  0
   -2.9332   -0.3198    0.5610 N   0  0  0  0  0  0  0  0  0  0  0  0
   -1.6834    0.0785   -0.0121 C   0  0  2  0  0  0  0  0  0  0  0  0
   -1.7754    1.5167   -0.3141 C   0  0  0  0  0  0  0  0  0  0  0  0
   -1.6333    2.0772   -1.5600 C   0  0  0  0  0  0  0  0  0  0  0  0
   -1.7249    3.4315   -1.7892 C   0  0  0  0  0  0  0  0  0  0  0  0
   -1.5820    3.9669   -3.0247 F   0  0  0  0  0  0  0  0  0  0  0  0
   -1.9700    4.2804   -0.7338 C   0  0  0  0  0  0  0  0  0  0  0  0
   -2.0597    5.6312   -0.9724 F   0  0  0  0  0  0  0  0  0  0  0  0
   -2.1189    3.7622    0.5296 C   0  0  0  0  0  0  0  0  0  0  0  0
   -2.0206    2.3802    0.7323 C   0  0  0  0  0  0  0  0  0  0  0  0
   -2.1829    1.9234    2.0113 F   0  0  0  0  0  0  0  0  0  0  0  0
   -0.5150   -0.1555    0.9090 C   0  0  0  0  0  0  0  0  0  0  0  0
    2.2937    0.1793    1.6882 N   0  0  0  0  0  0  0  0  0  0  0  0
    3.5635    0.3381    2.0754 C   0  0  0  0  0  0  0  0  0  0  0  0
    3.8868    0.6575    3.4874 C   0  0  0  0  0  0  0  0  0  0  0  0
    4.5609    0.2017    1.1496 C   0  0  0  0  0  0  0  0  0  0  0  0
    5.8577    0.3568    1.5112 F   0  0  0  0  0  0  0  0  0  0  0  0
    4.2495    0.2653   -2.8917 H   0  0  0  0  0  0  0  0  0  0  0  0
    4.2687   -1.4870   -2.4720 H   0  0  0  0  0  0  0  0  0  0  0  0
    5.7894   -0.6842   -3.0509 H   0  0  0  0  0  0  0  0  0  0  0  0
    0.6240   -1.5789   -1.6329 H   0  0  0  0  0  0  0  0  0  0  0  0
    0.5274    0.1274   -2.0773 H   0  0  0  0  0  0  0  0  0  0  0  0
   -1.8673   -0.5228   -2.1185 H   0  0  0  0  0  0  0  0  0  0  0  0
   -4.4630   -3.8430   -0.4736 H   0  0  0  0  0  0  0  0  0  0  0  0
   -2.8806   -4.3727   -1.1783 H   0  0  0  0  0  0  0  0  0  0  0  0
   -3.1632   -4.4128    0.6062 H   0  0  0  0  0  0  0  0  0  0  0  0
   -5.0878   -1.0445    1.8273 H   0  0  0  0  0  0  0  0  0  0  0  0
   -5.3170   -2.5379    0.8948 H   0  0  0  0  0  0  0  0  0  0  0  0
   -1.4446    1.4466   -2.3907 H   0  0  0  0  0  0  0  0  0  0  0  0
   -2.3103    4.4372    1.3468 H   0  0  0  0  0  0  0  0  0  0  0  0
   -0.3398    0.6486    1.6265 H   0  0  0  0  0  0  0  0  0  0  0  0
   -0.6908   -1.1360    1.4026 H   0  0  0  0  0  0  0  0  0  0  0  0
    4.1329   -0.3208    3.9782 H   0  0  0  0  0  0  0  0  0  0  0  0
    3.0384    1.1008    4.0099 H   0  0  0  0  0  0  0  0  0  0  0  0
    4.7870    1.2990    3.4879 H   0  0  0  0  0  0  0  0  0  0  0  0
  1  2  1  0
  2  3  1  0
  3  4  2  0
  4  5  1  0
  5  6  1  0
  6  7  1  0
  7  8  1  0
  8  9  1  0
  9 10  2  0
  9 11  1  0
 11 12  1  0
 11 13  1  0
 13 14  1  0
 13 15  2  0
 15 16  1  0
 16 17  1  6
 17 18  2  0
 18 19  1  0
 19 20  1  0
 19 21  2  0
 21 22  1  0
 21 23  1  0
 23 24  2  0
 24 25  1  0
 16 26  1  0
  5 27  2  0
 27 28  1  0
 28 29  1  0
 28 30  2  0
 30 31  1  0
 30  3  1  0
 26  6  1  0
 16  8  1  0
 24 17  1  0
  1 32  1  0
  1 33  1  0
  1 34  1  0
  7 35  1  0
  7 36  1  0
  8 37  1  6
 12 38  1  0
 12 39  1  0
 12 40  1  0
 14 41  1  0
 14 42  1  0
 18 43  1  0
 23 44  1  0
 26 45  1  0
 26 46  1  0
 29 47  1  0
 29 48  1  0
 29 49  1  0
M  END
$$$$
