
     RDKit          3D

 47 50  0  0  0  0  0  0  0  0999 V2000
    7.7822    0.2160   -0.9047 C   0  0  0  0  0  0  0  0  0  0  0  0
    6.5188   -0.2624   -0.3834 N   0  0  0  0  0  0  0  0  0  0  0  0
    5.4221   -0.6136   -1.0679 C   0  0  0  0  0  0  0  0  0  0  0  0
    4.4239   -1.0184   -0.1858 C   0  0  0  0  0  0  0  0  0  0  0  0
    2.8138   -1.5677   -0.5940 S   0  0  0  0  0  6  0  0  0  0  0  0
    2.6268   -1.5550   -2.0769 O   0  0  0  0  0  0  0  0  0  0  0  0
    2.5784   -2.9119    0.0106 O   0  0  0  0  0  0  0  0  0  0  0  0
    1.7122   -0.4580    0.1869 N   0  0  0  0  0  0  0  0  0  0  0  0
    2.0034   -0.6113    1.6231 C   0  0  0  0  0  0  0  0  0  0  0  0
    0.7438   -0.0179    2.2095 C   0  0  0  0  0  0  0  0  0  0  0  0
    0.7639    1.4681    1.8827 C   0  0  0  0  0  0  0  0  0  0  0  0
   -0.3500    1.6788    0.8537 C   0  0  0  0  0  0  0  0  0  0  0  0
   -1.3045    0.5547    1.2768 C   0  0  0  0  0  0  0  0  0  0  0  0
   -2.4207    0.4199    0.4078 N   0  0  0  0  0  0  0  0  0  0  0  0
   -3.7708    0.6215    0.8070 C   0  0  0  0  0  0  0  0  0  0  0  0
   -3.9310    0.9429    2.0349 O   0  0  0  0  0  0  0  0  0  0  0  0
   -4.9078    0.4801   -0.0917 C   0  0  0  0  0  0  0  0  0  0  0  0
   -5.1155    1.2433   -1.2192 C   0  0  0  0  0  0  0  0  0  0  0  0
   -6.2084    1.0766   -2.0472 C   0  0  0  0  0  0  0  0  0  0  0  0
   -7.1444    0.1069   -1.7470 C   0  0  0  0  0  0  0  0  0  0  0  0
   -8.5458   -0.1115   -2.8029 Cl  0  0  0  0  0  0  0  0  0  0  0  0
   -6.9707   -0.6794   -0.6232 C   0  0  0  0  0  0  0  0  0  0  0  0
   -5.8558   -0.4814    0.1874 C   0  0  0  0  0  0  0  0  0  0  0  0
   -5.6847   -1.5113    1.6065 Cl  0  0  0  0  0  0  0  0  0  0  0  0
   -0.3742   -0.6052    1.3325 C   0  0  0  0  0  0  0  0  0  0  0  0
    0.3434   -0.8781    0.0375 C   0  0  0  0  0  0  0  0  0  0  0  0
    4.9810   -0.8892    1.0297 N   0  0  0  0  0  0  0  0  0  0  0  0
    6.2222   -0.4397    0.8852 N   0  0  0  0  0  0  0  0  0  0  0  0
    7.7010    1.2295   -1.3432 H   0  0  0  0  0  0  0  0  0  0  0  0
    8.5451    0.2653   -0.1103 H   0  0  0  0  0  0  0  0  0  0  0  0
    8.1119   -0.4514   -1.7390 H   0  0  0  0  0  0  0  0  0  0  0  0
    5.2987   -0.5969   -2.1391 H   0  0  0  0  0  0  0  0  0  0  0  0
    2.0879   -1.7010    1.8092 H   0  0  0  0  0  0  0  0  0  0  0  0
    2.8869   -0.0488    1.9250 H   0  0  0  0  0  0  0  0  0  0  0  0
    0.5983   -0.2289    3.2658 H   0  0  0  0  0  0  0  0  0  0  0  0
    0.4292    2.0312    2.7932 H   0  0  0  0  0  0  0  0  0  0  0  0
    1.7345    1.7980    1.4986 H   0  0  0  0  0  0  0  0  0  0  0  0
   -0.8187    2.6706    0.9670 H   0  0  0  0  0  0  0  0  0  0  0  0
   -0.0100    1.5149   -0.1716 H   0  0  0  0  0  0  0  0  0  0  0  0
   -1.5836    0.8192    2.3256 H   0  0  0  0  0  0  0  0  0  0  0  0
   -2.2439    0.1569   -0.5859 H   0  0  0  0  0  0  0  0  0  0  0  0
   -4.3768    1.9986   -1.4434 H   0  0  0  0  0  0  0  0  0  0  0  0
   -6.3698    1.6763   -2.9332 H   0  0  0  0  0  0  0  0  0  0  0  0
   -7.7166   -1.4215   -0.4209 H   0  0  0  0  0  0  0  0  0  0  0  0
   -0.8012   -1.5126    1.7677 H   0  0  0  0  0  0  0  0  0  0  0  0
   -0.1411   -0.4076   -0.8407 H   0  0  0  0  0  0  0  0  0  0  0  0
    0.3161   -1.9886   -0.1390 H   0  0  0  0  0  0  0  0  0  0  0  0
  1  2  1  0
  2  3  1  0
  3  4  2  0
  4  5  1  0
  5  6  2  0
  5  7  2  0
  5  8  1  0
  8  9  1  0
  9 10  1  0
 10 11  1  0
 11 12  1  0
 12 13  1  0
 13 14  1  0
 14 15  1  0
 15 16  2  0
 15 17  1  0
 17 18  2  0
 18 19  1  0
 19 20  2  0
 20 21  1  0
 20 22  1  0
 22 23  2  0
 23 24  1  0
 13 25  1  0
 25 26  1  0
  4 27  1  0
 27 28  2  0
 28  2  1  0
 26  8  1  0
 25 10  1  0
 23 17  1  0
  1 29  1  0
  1 30  1  0
  1 31  1  0
  3 32  1  0
  9 33  1  0
  9 34  1  0
 10 35  1  0
 11 36  1  0
 11 37  1  0
 12 38  1  0
 12 39  1  0
 13 40  1  0
 14 41  1  0
 18 42  1  0
 19 43  1  0
 22 44  1  0
 25 45  1  0
 26 46  1  0
 26 47  1  0
M  END
$$$$
