
     RDKit          3D

 52 54  0  0  0  0  0  0  0  0999 V2000
   -2.6652    0.5412   -1.3646 C   0  0  0  0  0  0  0  0  0  0  0  0
   -2.4442    0.6157   -0.0136 N   0  0  0  0  0  0  0  0  0  0  0  0
   -1.4322    1.4532    0.5298 C   0  0  0  0  0  0  0  0  0  0  0  0
   -0.0257    1.1616    0.4006 C   0  0  0  0  0  0  0  0  0  0  0  0
    0.5791    0.1685   -0.2300 C   0  0  0  0  0  0  0  0  0  0  0  0
    2.0070    0.0234   -0.2498 C   0  0  0  0  0  0  0  0  0  0  0  0
    2.6204   -0.9008   -1.0735 C   0  0  0  0  0  0  0  0  0  0  0  0
    4.0130   -1.0288   -1.0800 C   0  0  0  0  0  0  0  0  0  0  0  0
    4.8264   -0.2528   -0.2742 C   0  0  0  0  0  0  0  0  0  0  0  0
    6.2811   -0.4231   -0.3309 C   0  0  0  0  0  0  0  0  0  0  0  0
    6.8362   -1.6717   -0.5937 C   0  0  0  0  0  0  0  0  0  0  0  0
    8.1991   -1.8603   -0.6868 C   0  0  0  0  0  0  0  0  0  0  0  0
    9.0875   -0.8142   -0.5254 C   0  0  0  0  0  0  0  0  0  0  0  0
    8.5499    0.4513   -0.2598 C   0  0  0  0  0  0  0  0  0  0  0  0
    7.1651    0.6216   -0.1660 C   0  0  0  0  0  0  0  0  0  0  0  0
    4.2038    0.6483    0.5315 C   0  0  0  0  0  0  0  0  0  0  0  0
    2.8154    0.7959    0.5514 C   0  0  0  0  0  0  0  0  0  0  0  0
   -3.2877    0.0702    0.9860 C   0  0  0  0  0  0  0  0  0  0  0  0
   -4.6338    0.6436    1.0181 C   0  0  0  0  0  0  0  0  0  0  0  0
   -5.0041    1.9576    1.3419 C   0  0  0  0  0  0  0  0  0  0  0  0
   -6.3046    2.0568    1.1921 O   0  0  0  0  0  0  0  0  0  0  0  0
   -6.8540    0.9434    0.7991 C   0  0  0  0  0  0  0  0  0  0  0  0
   -8.1769    0.5686    0.5237 C   0  0  0  0  0  0  0  0  0  0  0  0
   -8.4612   -0.7107    0.1289 C   0  0  0  0  0  0  0  0  0  0  0  0
   -7.4660   -1.6479   -0.0046 C   0  0  0  0  0  0  0  0  0  0  0  0
   -6.1703   -1.2778    0.2663 C   0  0  0  0  0  0  0  0  0  0  0  0
   -5.8285    0.0193    0.6722 C   0  0  0  0  0  0  0  0  0  0  0  0
    0.6893    0.0000    0.0000 Cl  0  0  0  0  0  0  0  0  0  0  0  0
   -1.9810   -0.0589   -2.0235 H   0  0  0  0  0  0  0  0  0  0  0  0
   -2.6687    1.5817   -1.8095 H   0  0  0  0  0  0  0  0  0  0  0  0
   -3.6772    0.1134   -1.5973 H   0  0  0  0  0  0  0  0  0  0  0  0
   -1.6560    1.5655    1.6249 H   0  0  0  0  0  0  0  0  0  0  0  0
   -1.5854    2.4695    0.0369 H   0  0  0  0  0  0  0  0  0  0  0  0
    0.6402    1.9075    0.9051 H   0  0  0  0  0  0  0  0  0  0  0  0
   -0.0989   -0.5541   -0.7293 H   0  0  0  0  0  0  0  0  0  0  0  0
    2.0504   -1.5370   -1.7355 H   0  0  0  0  0  0  0  0  0  0  0  0
    4.5028   -1.7502   -1.7284 H   0  0  0  0  0  0  0  0  0  0  0  0
    6.1153   -2.4690   -0.7114 H   0  0  0  0  0  0  0  0  0  0  0  0
    8.5722   -2.8795   -0.9155 H   0  0  0  0  0  0  0  0  0  0  0  0
   10.1430   -1.0104   -0.6050 H   0  0  0  0  0  0  0  0  0  0  0  0
    9.2110    1.2860   -0.1423 H   0  0  0  0  0  0  0  0  0  0  0  0
    6.7540    1.6047    0.0490 H   0  0  0  0  0  0  0  0  0  0  0  0
    4.7929    1.2742    1.1795 H   0  0  0  0  0  0  0  0  0  0  0  0
    2.4432    1.5587    1.2462 H   0  0  0  0  0  0  0  0  0  0  0  0
   -3.3765   -1.0458    0.7481 H   0  0  0  0  0  0  0  0  0  0  0  0
   -2.7874    0.1090    2.0041 H   0  0  0  0  0  0  0  0  0  0  0  0
   -4.2944    2.7377    1.6572 H   0  0  0  0  0  0  0  0  0  0  0  0
   -8.9394    1.3336    0.6474 H   0  0  0  0  0  0  0  0  0  0  0  0
   -9.5332   -0.9403   -0.0700 H   0  0  0  0  0  0  0  0  0  0  0  0
   -7.7359   -2.6414   -0.3095 H   0  0  0  0  0  0  0  0  0  0  0  0
   -5.3206   -1.9881    0.1895 H   0  0  0  0  0  0  0  0  0  0  0  0
   -0.6893    0.0000    0.0000 H   0  0  0  0  0  0  0  0  0  0  0  0
  1  2  1  0
  2  3  1  0
  3  4  1  0
  4  5  2  0
  5  6  1  0
  6  7  2  0
  7  8  1  0
  8  9  2  0
  9 10  1  0
 10 11  2  0
 11 12  1  0
 12 13  2  0
 13 14  1  0
 14 15  2  0
  9 16  1  0
 16 17  2  0
  2 18  1  0
 18 19  1  0
 19 20  2  0
 20 21  1  0
 21 22  1  0
 22 23  2  0
 23 24  1  0
 24 25  2  0
 25 26  1  0
 26 27  2  0
 17  6  1  0
 27 19  1  0
 15 10  1  0
 27 22  1  0
  1 29  1  0
  1 30  1  0
  1 31  1  0
  3 32  1  0
  3 33  1  0
  4 34  1  0
  5 35  1  0
  7 36  1  0
  8 37  1  0
 11 38  1  0
 12 39  1  0
 13 40  1  0
 14 41  1  0
 15 42  1  0
 16 43  1  0
 17 44  1  0
 18 45  1  0
 18 46  1  0
 20 47  1  0
 23 48  1  0
 24 49  1  0
 25 50  1  0
 26 51  1  0
 28 52  1  0
M  END
$$$$
