
     RDKit          3D

 48 53  0  0  0  0  0  0  0  0999 V2000
   -3.7018   -1.6507    1.2996 C   0  0  0  0  0  0  0  0  0  0  0  0
   -3.1067   -0.4642    0.6474 C   0  0  0  0  0  0  0  0  0  0  0  0
   -3.7741    0.5289    0.0524 N   0  0  0  0  0  0  0  0  0  0  0  0
   -2.9085    1.4019   -0.4093 N   0  0  0  0  0  0  0  0  0  0  0  0
   -3.2431    2.6054   -1.1104 C   0  0  0  0  0  0  0  0  0  0  0  0
   -4.7028    3.0090   -1.1489 C   0  0  0  0  0  0  0  0  0  0  0  0
   -3.7131    3.8187   -0.3583 C   0  0  0  0  0  0  0  0  0  0  0  0
   -1.6688    0.9868   -0.1200 C   0  0  0  0  0  0  0  0  0  0  0  0
   -1.7849   -0.1931    0.5483 C   0  0  0  0  0  0  0  0  0  0  0  0
   -0.4431   -0.7203    0.8991 C   0  0  0  0  0  0  0  0  0  0  0  0
   -0.3107   -2.0663    0.3171 C   0  0  0  0  0  0  0  0  0  0  0  0
   -0.3990   -3.1648    1.1252 C   0  0  0  0  0  0  0  0  0  0  0  0
   -0.2758   -4.4505    0.5910 C   0  0  0  0  0  0  0  0  0  0  0  0
   -0.0640   -4.5986   -0.7620 C   0  0  0  0  0  0  0  0  0  0  0  0
    0.0864   -6.2140   -1.4049 Cl  0  0  0  0  0  0  0  0  0  0  0  0
    0.0276   -3.5048   -1.5904 C   0  0  0  0  0  0  0  0  0  0  0  0
   -0.0988   -2.2479   -1.0288 C   0  0  0  0  0  0  0  0  0  0  0  0
    0.5126    0.2395    0.4092 N   0  0  0  0  0  0  0  0  0  0  0  0
    1.9273    0.2299    0.4929 C   0  0  0  0  0  0  0  0  0  0  0  0
    2.5568   -0.8089    1.1335 C   0  0  0  0  0  0  0  0  0  0  0  0
    3.9412   -0.8759    1.2468 C   0  0  0  0  0  0  0  0  0  0  0  0
    4.7000    0.1535    0.6860 C   0  0  0  0  0  0  0  0  0  0  0  0
    6.0196    0.3996    0.6128 N   0  0  0  0  0  0  0  0  0  0  0  0
    6.2063    1.5347   -0.0403 N   0  0  0  0  0  0  0  0  0  0  0  0
    5.0194    2.0159   -0.3850 N   0  0  0  0  0  0  0  0  0  0  0  0
    4.8140    3.2508   -1.1174 C   0  0  0  0  0  0  0  0  0  0  0  0
    4.0444    1.1928    0.0437 C   0  0  0  0  0  0  0  0  0  0  0  0
    2.6940    1.2000   -0.0328 N   0  0  0  0  0  0  0  0  0  0  0  0
   -0.2529    1.2861   -0.2251 C   0  0  0  0  0  0  0  0  0  0  0  0
    0.2668    2.2894   -0.7747 O   0  0  0  0  0  0  0  0  0  0  0  0
   -3.4177   -2.5725    0.7755 H   0  0  0  0  0  0  0  0  0  0  0  0
   -4.8006   -1.6015    1.3425 H   0  0  0  0  0  0  0  0  0  0  0  0
   -3.3544   -1.6829    2.3631 H   0  0  0  0  0  0  0  0  0  0  0  0
   -2.7347    2.7637   -2.0921 H   0  0  0  0  0  0  0  0  0  0  0  0
   -5.4458    2.3812   -0.5949 H   0  0  0  0  0  0  0  0  0  0  0  0
   -5.0980    3.5357   -2.0430 H   0  0  0  0  0  0  0  0  0  0  0  0
   -3.4348    4.8317   -0.7170 H   0  0  0  0  0  0  0  0  0  0  0  0
   -3.7588    3.7492    0.7581 H   0  0  0  0  0  0  0  0  0  0  0  0
   -0.3569   -0.7495    1.9986 H   0  0  0  0  0  0  0  0  0  0  0  0
   -0.5649   -3.0150    2.1782 H   0  0  0  0  0  0  0  0  0  0  0  0
   -0.3555   -5.2741    1.2854 H   0  0  0  0  0  0  0  0  0  0  0  0
    0.1940   -3.6594   -2.6452 H   0  0  0  0  0  0  0  0  0  0  0  0
   -0.0318   -1.3671   -1.6521 H   0  0  0  0  0  0  0  0  0  0  0  0
    1.9807   -1.6084    1.5718 H   0  0  0  0  0  0  0  0  0  0  0  0
    4.4545   -1.6785    1.7431 H   0  0  0  0  0  0  0  0  0  0  0  0
    3.8248    3.6901   -0.8610 H   0  0  0  0  0  0  0  0  0  0  0  0
    5.6081    3.9861   -0.7959 H   0  0  0  0  0  0  0  0  0  0  0  0
    4.9236    3.0885   -2.2118 H   0  0  0  0  0  0  0  0  0  0  0  0
  1  2  1  0
  2  3  2  0
  3  4  1  0
  4  5  1  0
  5  6  1  0
  6  7  1  0
  4  8  1  0
  8  9  2  0
  9 10  1  0
 10 11  1  0
 11 12  2  0
 12 13  1  0
 13 14  2  0
 14 15  1  0
 14 16  1  0
 16 17  2  0
 10 18  1  0
 18 19  1  0
 19 20  2  0
 20 21  1  0
 21 22  2  0
 22 23  1  0
 23 24  2  0
 24 25  1  0
 25 26  1  0
 25 27  1  0
 27 28  2  0
 18 29  1  0
 29 30  2  0
  9  2  1  0
 17 11  1  0
 28 19  1  0
  7  5  1  0
 29  8  1  0
 27 22  1  0
  1 31  1  0
  1 32  1  0
  1 33  1  0
  5 34  1  0
  6 35  1  0
  6 36  1  0
  7 37  1  0
  7 38  1  0
 10 39  1  0
 12 40  1  0
 13 41  1  0
 16 42  1  0
 17 43  1  0
 20 44  1  0
 21 45  1  0
 26 46  1  0
 26 47  1  0
 26 48  1  0
M  END
$$$$
