
     RDKit          3D

 66 68  0  0  0  0  0  0  0  0999 V2000
   -6.0567   -0.1808   -0.7969 C   0  0  1  0  0  0  0  0  0  0  0  0
   -6.2049   -0.6720   -2.1144 O   0  0  0  0  0  0  0  0  0  0  0  0
   -5.1236   -0.9824   -0.1971 O   0  0  0  0  0  0  0  0  0  0  0  0
   -4.3269   -0.3769    0.7522 C   0  0  2  0  0  0  0  0  0  0  0  0
   -5.0788   -0.0673    2.0334 C   0  0  0  0  0  0  0  0  0  0  0  0
   -5.5369   -1.2918    2.5148 O   0  0  0  0  0  0  0  0  0  0  0  0
   -3.5473    0.8112    0.2329 C   0  0  1  0  0  0  0  0  0  0  0  0
   -2.1950    0.5285    0.0878 O   0  0  0  0  0  0  0  0  0  0  0  0
   -1.3623    1.2565    0.9194 C   0  0  1  0  0  0  0  0  0  0  0  0
   -0.6549    0.4126    1.8032 O   0  0  0  0  0  0  0  0  0  0  0  0
    0.0357   -0.5728    1.0803 C   0  0  2  0  0  0  0  0  0  0  0  0
    0.4633   -1.6171    2.0428 C   0  0  0  0  0  0  0  0  0  0  0  0
    1.1351   -2.6856    1.4987 O   0  0  0  0  0  0  0  0  0  0  0  0
    1.1126    0.0382    0.2347 C   0  0  1  0  0  0  0  0  0  0  0  0
    1.9075   -0.8823   -0.3750 O   0  0  0  0  0  0  0  0  0  0  0  0
    3.2733   -0.6477   -0.1488 C   0  0  1  0  0  0  0  0  0  0  0  0
    3.8223   -1.7415    0.4460 O   0  0  0  0  0  0  0  0  0  0  0  0
    5.1735   -1.6128    0.7404 C   0  0  2  0  0  0  0  0  0  0  0  0
    5.4633   -1.2708    2.1643 C   0  0  0  0  0  0  0  0  0  0  0  0
    4.9000   -0.0673    2.5784 O   0  0  0  0  0  0  0  0  0  0  0  0
    5.8572   -0.6368   -0.2053 C   0  0  1  0  0  0  0  0  0  0  0  0
    7.2266   -0.7924   -0.1742 O   0  0  0  0  0  0  0  0  0  0  0  0
    5.2618   -0.9103   -1.5709 C   0  0  2  0  0  0  0  0  0  0  0  0
    5.9936   -0.2368   -2.5548 O   0  0  0  0  0  0  0  0  0  0  0  0
    3.8451   -0.3818   -1.5402 C   0  0  1  0  0  0  0  0  0  0  0  0
    3.0560   -0.9653   -2.5295 O   0  0  0  0  0  0  0  0  0  0  0  0
    0.3162    0.8656   -0.8099 C   0  0  2  0  0  0  0  0  0  0  0  0
    1.1195    1.3717   -1.7953 O   0  0  0  0  0  0  0  0  0  0  0  0
   -0.3274    1.9504    0.0651 C   0  0  1  0  0  0  0  0  0  0  0  0
   -0.8443    2.9151   -0.7594 O   0  0  0  0  0  0  0  0  0  0  0  0
   -4.1455    1.4032   -1.0260 C   0  0  2  0  0  0  0  0  0  0  0  0
   -3.9215    2.7842   -1.1110 O   0  0  0  0  0  0  0  0  0  0  0  0
   -5.6557    1.2544   -0.9340 C   0  0  1  0  0  0  0  0  0  0  0  0
   -6.2370    1.7773   -2.1121 O   0  0  0  0  0  0  0  0  0  0  0  0
   -7.0260   -0.3329   -0.3154 H   0  0  0  0  0  0  0  0  0  0  0  0
   -6.2146   -1.6587   -2.0370 H   0  0  0  0  0  0  0  0  0  0  0  0
   -3.5966   -1.1816    1.0631 H   0  0  0  0  0  0  0  0  0  0  0  0
   -5.8689    0.6752    1.9197 H   0  0  0  0  0  0  0  0  0  0  0  0
   -4.3031    0.2907    2.7645 H   0  0  0  0  0  0  0  0  0  0  0  0
   -6.5339   -1.2817    2.4953 H   0  0  0  0  0  0  0  0  0  0  0  0
   -3.6298    1.5903    1.0198 H   0  0  0  0  0  0  0  0  0  0  0  0
   -1.8944    1.9641    1.5851 H   0  0  0  0  0  0  0  0  0  0  0  0
   -0.7251   -0.9788    0.3613 H   0  0  0  0  0  0  0  0  0  0  0  0
   -0.4800   -2.0452    2.4909 H   0  0  0  0  0  0  0  0  0  0  0  0
    1.0178   -1.2008    2.9192 H   0  0  0  0  0  0  0  0  0  0  0  0
    0.5235   -3.3183    1.0413 H   0  0  0  0  0  0  0  0  0  0  0  0
    1.6893    0.7757    0.8389 H   0  0  0  0  0  0  0  0  0  0  0  0
    3.4250    0.2367    0.4979 H   0  0  0  0  0  0  0  0  0  0  0  0
    5.6381   -2.6030    0.5493 H   0  0  0  0  0  0  0  0  0  0  0  0
    6.5623   -1.1234    2.2364 H   0  0  0  0  0  0  0  0  0  0  0  0
    5.2412   -2.1246    2.8336 H   0  0  0  0  0  0  0  0  0  0  0  0
    5.4327    0.2764    3.3636 H   0  0  0  0  0  0  0  0  0  0  0  0
    5.5753    0.4116    0.0420 H   0  0  0  0  0  0  0  0  0  0  0  0
    7.6165   -0.2485   -0.9072 H   0  0  0  0  0  0  0  0  0  0  0  0
    5.2894   -2.0218   -1.7140 H   0  0  0  0  0  0  0  0  0  0  0  0
    6.7579   -0.8468   -2.7782 H   0  0  0  0  0  0  0  0  0  0  0  0
    3.8847    0.6964   -1.7817 H   0  0  0  0  0  0  0  0  0  0  0  0
    2.8828   -0.3791   -3.3053 H   0  0  0  0  0  0  0  0  0  0  0  0
   -0.4989    0.2040   -1.1464 H   0  0  0  0  0  0  0  0  0  0  0  0
    1.2849    2.3305   -1.6122 H   0  0  0  0  0  0  0  0  0  0  0  0
    0.4893    2.3257    0.7244 H   0  0  0  0  0  0  0  0  0  0  0  0
   -0.9385    3.7568   -0.2141 H   0  0  0  0  0  0  0  0  0  0  0  0
   -3.7597    0.9041   -1.9401 H   0  0  0  0  0  0  0  0  0  0  0  0
   -3.8753    3.0974   -2.0426 H   0  0  0  0  0  0  0  0  0  0  0  0
   -5.9880    1.9163   -0.1307 H   0  0  0  0  0  0  0  0  0  0  0  0
   -6.7214    1.1170   -2.6326 H   0  0  0  0  0  0  0  0  0  0  0  0
  1  2  1  0
  1  3  1  0
  3  4  1  0
  4  5  1  0
  5  6  1  0
  4  7  1  0
  7  8  1  0
  8  9  1  0
  9 10  1  0
 10 11  1  0
 11 12  1  0
 12 13  1  0
 11 14  1  0
 14 15  1  0
 15 16  1  0
 16 17  1  0
 17 18  1  0
 18 19  1  0
 19 20  1  0
 18 21  1  0
 21 22  1  0
 21 23  1  0
 23 24  1  0
 23 25  1  0
 25 26  1  0
 14 27  1  0
 27 28  1  0
 27 29  1  0
 29 30  1  0
  7 31  1  0
 31 32  1  0
 31 33  1  0
 33 34  1  0
 33  1  1  0
 29  9  1  0
 25 16  1  0
  1 35  1  1
  2 36  1  0
  4 37  1  1
  5 38  1  0
  5 39  1  0
  6 40  1  0
  7 41  1  1
  9 42  1  1
 11 43  1  6
 12 44  1  0
 12 45  1  0
 13 46  1  0
 14 47  1  1
 16 48  1  1
 18 49  1  6
 19 50  1  0
 19 51  1  0
 20 52  1  0
 21 53  1  1
 22 54  1  0
 23 55  1  6
 24 56  1  0
 25 57  1  6
 26 58  1  0
 27 59  1  6
 28 60  1  0
 29 61  1  1
 30 62  1  0
 31 63  1  6
 32 64  1  0
 33 65  1  1
 34 66  1  0
M  END
$$$$
