
     RDKit          3D

 55 59  0  0  0  0  0  0  0  0999 V2000
    2.2918   -0.6351    4.0982 C   0  0  0  0  0  0  0  0  0  0  0  0
    2.4779   -0.3334    2.6431 C   0  0  0  0  0  0  0  0  0  0  0  0
    3.6900   -0.7046    2.0569 C   0  0  0  0  0  0  0  0  0  0  0  0
    3.9722   -0.4465    0.7330 C   0  0  0  0  0  0  0  0  0  0  0  0
    3.0665    0.1940   -0.0784 C   0  0  0  0  0  0  0  0  0  0  0  0
    3.3350    0.4850   -1.4836 C   0  0  0  0  0  0  0  0  0  0  0  0
    2.4375    1.0683   -2.1669 O   0  0  0  0  0  0  0  0  0  0  0  0
    4.5300    0.1662   -2.1558 N   0  0  0  0  0  0  0  0  0  0  0  0
    4.7368    0.4896   -3.5769 C   0  0  0  0  0  0  0  0  0  0  0  0
    5.6687   -0.3162   -4.3660 C   0  0  0  0  0  0  0  0  0  0  0  0
    6.0955    1.0763   -3.9402 C   0  0  0  0  0  0  0  0  0  0  0  0
    1.8712    0.5598    0.4996 C   0  0  0  0  0  0  0  0  0  0  0  0
    1.5612    0.3055    1.8464 C   0  0  0  0  0  0  0  0  0  0  0  0
    0.3128    0.6869    2.3827 N   0  0  0  0  0  0  0  0  0  0  0  0
   -0.6834   -0.0544    3.0180 C   0  0  0  0  0  0  0  0  0  0  0  0
   -0.6155   -0.3239    4.3551 N   0  0  0  0  0  0  0  0  0  0  0  0
   -1.5732   -1.0112    4.9439 C   0  0  0  0  0  0  0  0  0  0  0  0
   -2.6522   -1.4792    4.2789 N   0  0  0  0  0  0  0  0  0  0  0  0
   -2.7733   -1.2487    2.9837 N   0  0  0  0  0  0  0  0  0  0  0  0
   -3.7603   -1.5998    2.1190 C   0  0  0  0  0  0  0  0  0  0  0  0
   -3.4530   -1.1190    0.8675 C   0  0  0  0  0  0  0  0  0  0  0  0
   -4.2962   -1.2670   -0.3143 C   0  0  0  0  0  0  0  0  0  0  0  0
   -4.7017   -2.4546   -0.6156 O   0  0  0  0  0  0  0  0  0  0  0  0
   -4.7326   -0.2201   -1.1884 C   0  0  0  0  0  0  0  0  0  0  0  0
   -4.8037    1.0937   -0.7767 C   0  0  0  0  0  0  0  0  0  0  0  0
   -5.2306    2.0575   -1.6682 C   0  0  0  0  0  0  0  0  0  0  0  0
   -5.5896    1.7444   -2.9627 C   0  0  0  0  0  0  0  0  0  0  0  0
   -5.5246    0.4453   -3.3862 C   0  0  0  0  0  0  0  0  0  0  0  0
   -5.0960   -0.5088   -2.4852 C   0  0  0  0  0  0  0  0  0  0  0  0
   -2.2497   -0.4761    1.0319 C   0  0  0  0  0  0  0  0  0  0  0  0
   -1.5072    0.1894   -0.0531 C   0  0  0  0  0  0  0  0  0  0  0  0
   -1.8061   -0.5480    2.3612 C   0  0  0  0  0  0  0  0  0  0  0  0
    1.7604   -1.5773    4.2852 H   0  0  0  0  0  0  0  0  0  0  0  0
    1.9754    0.2400    4.6636 H   0  0  0  0  0  0  0  0  0  0  0  0
    3.3315   -0.8509    4.5416 H   0  0  0  0  0  0  0  0  0  0  0  0
    4.4218   -1.2200    2.7011 H   0  0  0  0  0  0  0  0  0  0  0  0
    4.9254   -0.7548    0.3279 H   0  0  0  0  0  0  0  0  0  0  0  0
    5.2803   -0.3135   -1.6132 H   0  0  0  0  0  0  0  0  0  0  0  0
    3.8859    0.9805   -4.0493 H   0  0  0  0  0  0  0  0  0  0  0  0
    6.2229   -1.1875   -3.9095 H   0  0  0  0  0  0  0  0  0  0  0  0
    5.5570   -0.4367   -5.4518 H   0  0  0  0  0  0  0  0  0  0  0  0
    6.1103    1.8926   -4.6844 H   0  0  0  0  0  0  0  0  0  0  0  0
    6.8900    1.0975   -3.1912 H   0  0  0  0  0  0  0  0  0  0  0  0
    1.1532    1.0955   -0.1359 H   0  0  0  0  0  0  0  0  0  0  0  0
    0.1112    1.7383    2.2739 H   0  0  0  0  0  0  0  0  0  0  0  0
   -1.4858   -1.2093    6.0202 H   0  0  0  0  0  0  0  0  0  0  0  0
   -4.6506   -2.1622    2.3437 H   0  0  0  0  0  0  0  0  0  0  0  0
   -4.5288    1.3651    0.2308 H   0  0  0  0  0  0  0  0  0  0  0  0
   -5.3032    3.1067   -1.3880 H   0  0  0  0  0  0  0  0  0  0  0  0
   -5.9312    2.5078   -3.6795 H   0  0  0  0  0  0  0  0  0  0  0  0
   -5.8070    0.1985   -4.4061 H   0  0  0  0  0  0  0  0  0  0  0  0
   -5.0614   -1.5396   -2.8748 H   0  0  0  0  0  0  0  0  0  0  0  0
   -1.1293    1.1575    0.3090 H   0  0  0  0  0  0  0  0  0  0  0  0
   -2.1035    0.3820   -0.9435 H   0  0  0  0  0  0  0  0  0  0  0  0
   -0.6229   -0.4322   -0.3707 H   0  0  0  0  0  0  0  0  0  0  0  0
  1  2  1  0
  2  3  2  0
  3  4  1  0
  4  5  2  0
  5  6  1  0
  6  7  2  0
  6  8  1  0
  8  9  1  0
  9 10  1  0
 10 11  1  0
  5 12  1  0
 12 13  2  0
 13 14  1  0
 14 15  1  0
 15 16  2  0
 16 17  1  0
 17 18  2  0
 18 19  1  0
 19 20  1  0
 20 21  2  0
 21 22  1  0
 22 23  2  0
 22 24  1  0
 24 25  2  0
 25 26  1  0
 26 27  2  0
 27 28  1  0
 28 29  2  0
 21 30  1  0
 30 31  1  0
 30 32  2  0
 13  2  1  0
 32 15  1  0
 11  9  1  0
 32 19  1  0
 29 24  1  0
  1 33  1  0
  1 34  1  0
  1 35  1  0
  3 36  1  0
  4 37  1  0
  8 38  1  0
  9 39  1  0
 10 40  1  0
 10 41  1  0
 11 42  1  0
 11 43  1  0
 12 44  1  0
 14 45  1  0
 17 46  1  0
 20 47  1  0
 25 48  1  0
 26 49  1  0
 27 50  1  0
 28 51  1  0
 29 52  1  0
 31 53  1  0
 31 54  1  0
 31 55  1  0
M  END
$$$$
