
     RDKit          3D

 56 58  0  0  0  0  0  0  0  0999 V2000
   -6.1998   -5.4071    2.6209 C   0  0  0  0  0  0  0  0  0  0  0  0
   -4.9034   -4.8094    2.1855 C   0  0  0  0  0  0  0  0  0  0  0  0
   -3.6268   -5.2590    2.1706 C   0  0  0  0  0  0  0  0  0  0  0  0
   -2.7280   -4.4238    1.7045 N   0  0  0  0  0  0  0  0  0  0  0  0
   -2.8612   -3.3465    1.2985 C   0  0  0  0  0  0  0  0  0  0  0  0
   -2.1056   -2.1856    0.7252 C   0  0  0  0  0  0  0  0  0  0  0  0
   -2.7275   -1.0254    0.3528 C   0  0  0  0  0  0  0  0  0  0  0  0
   -2.0404    0.0512   -0.1748 C   0  0  0  0  0  0  0  0  0  0  0  0
   -2.7083    1.1880   -0.5313 O   0  0  0  0  0  0  0  0  0  0  0  0
   -2.2342    2.3666   -1.0681 C   0  0  0  0  0  0  0  0  0  0  0  0
   -2.5294    3.5830   -0.2119 C   0  0  0  0  0  0  0  0  0  0  0  0
   -2.9215    2.5391   -2.4301 C   0  0  0  0  0  0  0  0  0  0  0  0
   -2.3912    3.7404   -3.1575 C   0  0  0  0  0  0  0  0  0  0  0  0
   -4.2709    2.5914   -2.1923 O   0  0  0  0  0  0  0  0  0  0  0  0
   -0.6827   -0.1052   -0.3078 C   0  0  0  0  0  0  0  0  0  0  0  0
   -0.0236   -1.2782    0.0646 C   0  0  0  0  0  0  0  0  0  0  0  0
    1.4115   -1.4024   -0.0906 C   0  0  0  0  0  0  0  0  0  0  0  0
    1.9774   -2.4932    0.2648 O   0  0  0  0  0  0  0  0  0  0  0  0
    2.2829   -0.4274   -0.6050 N   0  0  0  0  0  0  0  0  0  0  0  0
    3.7296   -0.6353   -0.7279 C   0  0  1  0  0  0  0  0  0  0  0  0
    4.0692   -0.6624   -2.1954 C   0  0  0  0  0  0  0  0  0  0  0  0
    4.5032    0.3239    0.0481 C   0  0  0  0  0  0  0  0  0  0  0  0
    5.5733   -0.0806    0.8241 C   0  0  0  0  0  0  0  0  0  0  0  0
    6.2970    0.8081    1.5469 N   0  0  0  0  0  0  0  0  0  0  0  0
    5.9985    2.1148    1.5340 C   0  0  0  0  0  0  0  0  0  0  0  0
    6.8284    3.0597    2.3502 C   0  0  0  0  0  0  0  0  0  0  0  0
    8.1421    2.6129    2.3134 F   0  0  0  0  0  0  0  0  0  0  0  0
    6.3778    3.1757    3.6298 F   0  0  0  0  0  0  0  0  0  0  0  0
    6.7638    4.2914    1.7191 F   0  0  0  0  0  0  0  0  0  0  0  0
    4.9669    2.5542    0.7943 N   0  0  0  0  0  0  0  0  0  0  0  0
    4.2357    1.6936    0.0704 C   0  0  0  0  0  0  0  0  0  0  0  0
   -0.7432   -2.3219    0.5836 C   0  0  0  0  0  0  0  0  0  0  0  0
   -4.7256   -3.1392    1.4980 S   0  0  0  0  0  0  0  0  0  0  0  0
   -6.6557   -5.8954    1.7221 H   0  0  0  0  0  0  0  0  0  0  0  0
   -6.9197   -4.5981    2.9327 H   0  0  0  0  0  0  0  0  0  0  0  0
   -6.0324   -6.0922    3.4588 H   0  0  0  0  0  0  0  0  0  0  0  0
   -3.3848   -6.2778    2.5373 H   0  0  0  0  0  0  0  0  0  0  0  0
   -3.7934   -0.9423    0.4731 H   0  0  0  0  0  0  0  0  0  0  0  0
   -1.1409    2.3395   -1.2172 H   0  0  0  0  0  0  0  0  0  0  0  0
   -2.2429    3.4114    0.8333 H   0  0  0  0  0  0  0  0  0  0  0  0
   -3.5696    3.9225   -0.3193 H   0  0  0  0  0  0  0  0  0  0  0  0
   -1.8798    4.4081   -0.5939 H   0  0  0  0  0  0  0  0  0  0  0  0
   -2.6407    1.6332   -3.0041 H   0  0  0  0  0  0  0  0  0  0  0  0
   -1.2858    3.7156   -3.2307 H   0  0  0  0  0  0  0  0  0  0  0  0
   -2.7706    4.6930   -2.7127 H   0  0  0  0  0  0  0  0  0  0  0  0
   -2.7857    3.7155   -4.1944 H   0  0  0  0  0  0  0  0  0  0  0  0
   -4.6754    3.2307   -2.8366 H   0  0  0  0  0  0  0  0  0  0  0  0
   -0.1018    0.7053   -0.7141 H   0  0  0  0  0  0  0  0  0  0  0  0
    1.8845    0.4855   -0.9136 H   0  0  0  0  0  0  0  0  0  0  0  0
    3.9233   -1.6556   -0.3374 H   0  0  0  0  0  0  0  0  0  0  0  0
    3.2557   -1.2206   -2.7032 H   0  0  0  0  0  0  0  0  0  0  0  0
    4.1312    0.3251   -2.6541 H   0  0  0  0  0  0  0  0  0  0  0  0
    4.9997   -1.2722   -2.3651 H   0  0  0  0  0  0  0  0  0  0  0  0
    5.8324   -1.1228    0.8507 H   0  0  0  0  0  0  0  0  0  0  0  0
    3.4186    2.0608   -0.5119 H   0  0  0  0  0  0  0  0  0  0  0  0
   -0.3004   -3.2607    0.8935 H   0  0  0  0  0  0  0  0  0  0  0  0
  1  2  1  0
  2  3  2  0
  3  4  1  0
  4  5  2  0
  5  6  1  0
  6  7  2  0
  7  8  1  0
  8  9  1  0
  9 10  1  0
 10 11  1  0
 10 12  1  0
 12 13  1  0
 12 14  1  0
  8 15  2  0
 15 16  1  0
 16 17  1  0
 17 18  2  0
 17 19  1  0
 19 20  1  0
 20 21  1  0
 20 22  1  0
 22 23  2  0
 23 24  1  0
 24 25  2  0
 25 26  1  0
 26 27  1  0
 26 28  1  0
 26 29  1  0
 25 30  1  0
 30 31  2  0
 16 32  2  0
  5 33  1  0
 33  2  1  0
 32  6  1  0
 31 22  1  0
  1 34  1  0
  1 35  1  0
  1 36  1  0
  3 37  1  0
  7 38  1  0
 10 39  1  0
 11 40  1  0
 11 41  1  0
 11 42  1  0
 12 43  1  0
 13 44  1  0
 13 45  1  0
 13 46  1  0
 14 47  1  0
 15 48  1  0
 19 49  1  0
 20 50  1  1
 21 51  1  0
 21 52  1  0
 21 53  1  0
 23 54  1  0
 31 55  1  0
 32 56  1  0
M  END
$$$$
