
     RDKit          3D

 39 40  0  0  0  0  0  0  0  0999 V2000
    8.7466    0.2275    2.5655 O   0  0  0  0  0  0  0  0  0  0  0  0
    8.3085    0.2094    1.2518 C   0  0  0  0  0  0  0  0  0  0  0  0
    9.2157    0.2692    0.3870 O   0  0  0  0  0  0  0  0  0  0  0  0
    6.9025    0.1274    0.8606 C   0  0  0  0  0  0  0  0  0  0  0  0
    6.6586    0.1212   -0.5015 C   0  0  0  0  0  0  0  0  0  0  0  0
    5.3144    0.0428   -0.8671 C   0  0  0  0  0  0  0  0  0  0  0  0
    4.2945   -0.0239    0.0449 C   0  0  0  0  0  0  0  0  0  0  0  0
    2.8873   -0.1060   -0.3289 C   0  0  0  0  0  0  0  0  0  0  0  0
    1.9677   -0.1666    0.5528 N   0  0  0  0  0  0  0  0  0  0  0  0
    0.6348   -0.2453    0.3559 O   0  0  0  0  0  0  0  0  0  0  0  0
   -0.0497   -0.4839   -0.8355 C   0  0  0  0  0  0  0  0  0  0  0  0
   -1.5391   -0.4668   -0.4773 C   0  0  0  0  0  0  0  0  0  0  0  0
   -2.3649   -0.6940   -1.5805 O   0  0  0  0  0  0  0  0  0  0  0  0
   -3.7344   -0.6924   -1.3285 N   0  0  0  0  0  0  0  0  0  0  0  0
   -4.3379    0.2828   -0.7363 C   0  0  0  0  0  0  0  0  0  0  0  0
   -5.7796    0.2269   -0.4994 C   0  0  0  0  0  0  0  0  0  0  0  0
   -6.4599    1.2477    0.1294 C   0  0  0  0  0  0  0  0  0  0  0  0
   -7.8287    1.1318    0.3233 C   0  0  0  0  0  0  0  0  0  0  0  0
   -8.3879    2.1009    0.9043 O   0  0  0  0  0  0  0  0  0  0  0  0
   -8.5067    0.0340   -0.0943 N   0  0  0  0  0  0  0  0  0  0  0  0
   -7.8111   -0.9551   -0.7103 C   0  0  0  0  0  0  0  0  0  0  0  0
   -8.4669   -1.9644   -1.0883 O   0  0  0  0  0  0  0  0  0  0  0  0
   -6.4737   -0.8539   -0.9057 N   0  0  0  0  0  0  0  0  0  0  0  0
    4.6351   -0.0117    1.3705 C   0  0  0  0  0  0  0  0  0  0  0  0
    5.9318    0.0632    1.8351 C   0  0  0  0  0  0  0  0  0  0  0  0
    9.5468   -0.3457    2.8379 H   0  0  0  0  0  0  0  0  0  0  0  0
    7.4552    0.1735   -1.2311 H   0  0  0  0  0  0  0  0  0  0  0  0
    5.0889    0.0359   -1.9324 H   0  0  0  0  0  0  0  0  0  0  0  0
    2.5682   -0.1189   -1.3614 H   0  0  0  0  0  0  0  0  0  0  0  0
    0.0963    0.2721   -1.6266 H   0  0  0  0  0  0  0  0  0  0  0  0
    0.1566   -1.5085   -1.2626 H   0  0  0  0  0  0  0  0  0  0  0  0
   -1.7392   -1.1436    0.3887 H   0  0  0  0  0  0  0  0  0  0  0  0
   -1.7309    0.5870   -0.1445 H   0  0  0  0  0  0  0  0  0  0  0  0
   -3.7693    1.1449   -0.4149 H   0  0  0  0  0  0  0  0  0  0  0  0
   -5.8746    2.1005    0.4431 H   0  0  0  0  0  0  0  0  0  0  0  0
   -9.5467   -0.0165    0.0715 H   0  0  0  0  0  0  0  0  0  0  0  0
   -6.0127   -1.6756   -1.3960 H   0  0  0  0  0  0  0  0  0  0  0  0
    3.8348   -0.0642    2.1094 H   0  0  0  0  0  0  0  0  0  0  0  0
    6.1694    0.0710    2.8911 H   0  0  0  0  0  0  0  0  0  0  0  0
  1  2  1  0
  2  3  2  0
  2  4  1  0
  4  5  2  0
  5  6  1  0
  6  7  2  0
  7  8  1  0
  8  9  2  0
  9 10  1  0
 10 11  1  0
 11 12  1  0
 12 13  1  0
 13 14  1  0
 14 15  2  0
 15 16  1  0
 16 17  2  0
 17 18  1  0
 18 19  2  0
 18 20  1  0
 20 21  1  0
 21 22  2  0
 21 23  1  0
  7 24  1  0
 24 25  2  0
 25  4  1  0
 23 16  1  0
  1 26  1  0
  5 27  1  0
  6 28  1  0
  8 29  1  0
 11 30  1  0
 11 31  1  0
 12 32  1  0
 12 33  1  0
 15 34  1  0
 17 35  1  0
 20 36  1  0
 23 37  1  0
 24 38  1  0
 25 39  1  0
M  END
$$$$
