
     RDKit          3D

 43 46  0  0  0  0  0  0  0  0999 V2000
   -5.4092    1.5108   -2.2461 N   0  0  0  0  0  0  0  0  0  0  0  0
   -4.6753    0.7768   -1.2617 C   0  0  0  0  0  0  0  0  0  0  0  0
   -3.4099    0.5585   -1.3541 N   0  0  0  0  0  0  0  0  0  0  0  0
   -2.7480   -0.1971   -0.3038 C   0  0  2  0  0  0  0  0  0  0  0  0
   -2.5365    0.7237    0.8762 C   0  0  0  0  0  0  0  0  0  0  0  0
   -1.7643    1.7979    0.4928 F   0  0  0  0  0  0  0  0  0  0  0  0
   -1.4311   -0.6991   -0.7650 C   0  0  0  0  0  0  0  0  0  0  0  0
   -0.2705   -0.3688   -0.1133 C   0  0  0  0  0  0  0  0  0  0  0  0
    0.9738   -0.8548   -0.5380 C   0  0  0  0  0  0  0  0  0  0  0  0
    2.1782   -0.5117    0.1381 N   0  0  0  0  0  0  0  0  0  0  0  0
    2.9411    0.6242   -0.2212 C   0  0  0  0  0  0  0  0  0  0  0  0
    2.5414    1.3455   -1.1616 O   0  0  0  0  0  0  0  0  0  0  0  0
    4.1752    0.9903    0.4590 C   0  0  0  0  0  0  0  0  0  0  0  0
    4.7674    0.3428    1.4917 N   0  0  0  0  0  0  0  0  0  0  0  0
    5.8752    0.9495    1.8637 N   0  0  0  0  0  0  0  0  0  0  0  0
    6.7856    0.5448    2.9446 C   0  0  0  0  0  0  0  0  0  0  0  0
    6.5930    1.3711    4.0302 F   0  0  0  0  0  0  0  0  0  0  0  0
    6.5096   -0.7506    3.3362 F   0  0  0  0  0  0  0  0  0  0  0  0
    6.0316    2.0190    1.0722 C   0  0  0  0  0  0  0  0  0  0  0  0
    4.9955    2.0753    0.1891 C   0  0  0  0  0  0  0  0  0  0  0  0
    4.6854    3.2541   -1.0721 Cl  0  0  0  0  0  0  0  0  0  0  0  0
    0.9586   -1.6770   -1.6396 C   0  0  0  0  0  0  0  0  0  0  0  0
   -0.2028   -2.0145   -2.3006 C   0  0  0  0  0  0  0  0  0  0  0  0
   -1.4198   -1.5415   -1.8886 C   0  0  0  0  0  0  0  0  0  0  0  0
   -2.5912   -1.8368   -2.4994 F   0  0  0  0  0  0  0  0  0  0  0  0
   -3.5505   -1.4214    0.0953 C   0  0  1  0  0  0  0  0  0  0  0  0
   -4.2105   -1.4443    1.4298 C   0  0  0  0  0  0  0  0  0  0  0  0
   -4.9947   -1.1155    0.1950 C   0  0  1  0  0  0  0  0  0  0  0  0
   -5.2887    0.2392   -0.1187 O   0  0  0  0  0  0  0  0  0  0  0  0
   -5.9464    1.0700   -3.0041 H   0  0  0  0  0  0  0  0  0  0  0  0
   -5.4085    2.5541   -2.2052 H   0  0  0  0  0  0  0  0  0  0  0  0
   -3.5142    1.1116    1.2650 H   0  0  0  0  0  0  0  0  0  0  0  0
   -1.9966    0.1674    1.6629 H   0  0  0  0  0  0  0  0  0  0  0  0
   -0.2133    0.2729    0.7687 H   0  0  0  0  0  0  0  0  0  0  0  0
    2.5338   -1.1110    0.9384 H   0  0  0  0  0  0  0  0  0  0  0  0
    7.8141    0.5603    2.5749 H   0  0  0  0  0  0  0  0  0  0  0  0
    6.8494    2.7378    1.1144 H   0  0  0  0  0  0  0  0  0  0  0  0
    1.9281   -2.0592   -1.9752 H   0  0  0  0  0  0  0  0  0  0  0  0
   -0.1868   -2.6676   -3.1702 H   0  0  0  0  0  0  0  0  0  0  0  0
   -3.2616   -2.3715   -0.3829 H   0  0  0  0  0  0  0  0  0  0  0  0
   -3.9194   -0.6618    2.1494 H   0  0  0  0  0  0  0  0  0  0  0  0
   -4.4165   -2.4737    1.8157 H   0  0  0  0  0  0  0  0  0  0  0  0
   -5.7708   -1.8192   -0.1652 H   0  0  0  0  0  0  0  0  0  0  0  0
  1  2  1  0
  2  3  2  0
  3  4  1  0
  4  5  1  1
  5  6  1  0
  4  7  1  0
  7  8  2  0
  8  9  1  0
  9 10  1  0
 10 11  1  0
 11 12  2  0
 11 13  1  0
 13 14  2  0
 14 15  1  0
 15 16  1  0
 16 17  1  0
 16 18  1  0
 15 19  1  0
 19 20  2  0
 20 21  1  0
  9 22  2  0
 22 23  1  0
 23 24  2  0
 24 25  1  0
  4 26  1  0
 26 27  1  0
 27 28  1  0
 28 29  1  0
 29  2  1  0
 24  7  1  0
 28 26  1  0
 20 13  1  0
  1 30  1  0
  1 31  1  0
  5 32  1  0
  5 33  1  0
  8 34  1  0
 10 35  1  0
 16 36  1  0
 19 37  1  0
 22 38  1  0
 23 39  1  0
 26 40  1  6
 27 41  1  0
 27 42  1  0
 28 43  1  6
M  END
$$$$
