
     RDKit          3D

 51 55  0  0  0  0  0  0  0  0999 V2000
   -3.5990   -3.3347    2.3480 C   0  0  0  0  0  0  0  0  0  0  0  0
   -3.6507   -3.3470    0.8394 C   0  0  0  0  0  0  0  0  0  0  0  0
   -3.4136   -2.0049    0.3040 N   0  0  0  0  0  0  0  0  0  0  0  0
   -4.2927   -1.0693    0.0403 N   0  0  0  0  0  0  0  0  0  0  0  0
   -3.7429    0.0298   -0.4358 C   0  0  0  0  0  0  0  0  0  0  0  0
   -4.3374    1.3236   -0.8655 C   0  0  0  0  0  0  0  0  0  0  0  0
   -2.3697   -0.2088   -0.4893 C   0  0  0  0  0  0  0  0  0  0  0  0
   -2.1943   -1.4792   -0.0242 C   0  0  0  0  0  0  0  0  0  0  0  0
   -0.7815   -1.7838   -0.0563 C   0  0  0  0  0  0  0  0  0  0  0  0
   -0.3132   -2.8954    0.3177 O   0  0  0  0  0  0  0  0  0  0  0  0
   -0.0996   -0.6519   -0.5584 N   0  0  0  0  0  0  0  0  0  0  0  0
    1.3227   -0.5990   -0.7255 C   0  0  0  0  0  0  0  0  0  0  0  0
    1.8715   -1.0044   -1.9192 C   0  0  0  0  0  0  0  0  0  0  0  0
    3.2395   -0.9733   -2.1356 C   0  0  0  0  0  0  0  0  0  0  0  0
    3.8947   -1.3949   -3.3945 C   0  0  0  0  0  0  0  0  0  0  0  0
    4.0233   -0.5135   -1.0887 C   0  0  0  0  0  0  0  0  0  0  0  0
    5.3684   -0.3532   -0.9585 N   0  0  0  0  0  0  0  0  0  0  0  0
    5.6624    0.1206    0.2322 N   0  0  0  0  0  0  0  0  0  0  0  0
    4.4902    0.2642    0.8690 C   0  0  0  0  0  0  0  0  0  0  0  0
    4.3875    0.7850    2.2709 C   0  0  0  0  0  0  0  0  0  0  0  0
    3.4909   -0.1131    0.0882 N   0  0  0  0  0  0  0  0  0  0  0  0
    2.1348   -0.1511    0.2837 C   0  0  0  0  0  0  0  0  0  0  0  0
   -1.0592    0.3699   -0.8478 C   0  0  0  0  0  0  0  0  0  0  0  0
   -0.7929    1.6356   -0.1241 C   0  0  0  0  0  0  0  0  0  0  0  0
   -0.8072    1.7276    1.2332 C   0  0  0  0  0  0  0  0  0  0  0  0
   -0.5486    2.9433    1.8275 C   0  0  0  0  0  0  0  0  0  0  0  0
   -0.2732    4.0825    1.1017 C   0  0  0  0  0  0  0  0  0  0  0  0
    0.0560    5.6296    1.8523 Cl  0  0  0  0  0  0  0  0  0  0  0  0
   -0.2567    3.9983   -0.2700 C   0  0  0  0  0  0  0  0  0  0  0  0
   -0.5176    2.7736   -0.8549 C   0  0  0  0  0  0  0  0  0  0  0  0
   -0.4904    2.7379   -2.2284 F   0  0  0  0  0  0  0  0  0  0  0  0
   -3.8539   -4.3680    2.6805 H   0  0  0  0  0  0  0  0  0  0  0  0
   -2.5614   -3.1467    2.6968 H   0  0  0  0  0  0  0  0  0  0  0  0
   -4.3412   -2.6655    2.8057 H   0  0  0  0  0  0  0  0  0  0  0  0
   -4.6361   -3.7311    0.5022 H   0  0  0  0  0  0  0  0  0  0  0  0
   -2.8783   -4.0109    0.4594 H   0  0  0  0  0  0  0  0  0  0  0  0
   -5.4449    1.2802   -0.7660 H   0  0  0  0  0  0  0  0  0  0  0  0
   -4.1372    1.5353   -1.9374 H   0  0  0  0  0  0  0  0  0  0  0  0
   -4.0065    2.1626   -0.2119 H   0  0  0  0  0  0  0  0  0  0  0  0
    1.2545   -1.3624   -2.7329 H   0  0  0  0  0  0  0  0  0  0  0  0
    4.8932   -0.9405   -3.4501 H   0  0  0  0  0  0  0  0  0  0  0  0
    3.9217   -2.5140   -3.3768 H   0  0  0  0  0  0  0  0  0  0  0  0
    3.2283   -1.0867   -4.2325 H   0  0  0  0  0  0  0  0  0  0  0  0
    4.2019   -0.0404    2.9734 H   0  0  0  0  0  0  0  0  0  0  0  0
    5.2891    1.3469    2.5674 H   0  0  0  0  0  0  0  0  0  0  0  0
    3.5432    1.5264    2.2684 H   0  0  0  0  0  0  0  0  0  0  0  0
    1.7334    0.1783    1.2440 H   0  0  0  0  0  0  0  0  0  0  0  0
   -0.9827    0.5580   -1.9485 H   0  0  0  0  0  0  0  0  0  0  0  0
   -1.0244    0.8285    1.8003 H   0  0  0  0  0  0  0  0  0  0  0  0
   -0.5587    3.0222    2.9101 H   0  0  0  0  0  0  0  0  0  0  0  0
   -0.0414    4.8839   -0.8835 H   0  0  0  0  0  0  0  0  0  0  0  0
  1  2  1  0
  2  3  1  0
  3  4  1  0
  4  5  2  0
  5  6  1  0
  5  7  1  0
  7  8  2  0
  8  9  1  0
  9 10  2  0
  9 11  1  0
 11 12  1  0
 12 13  1  0
 13 14  2  0
 14 15  1  0
 14 16  1  0
 16 17  2  0
 17 18  1  0
 18 19  2  0
 19 20  1  0
 19 21  1  0
 21 22  1  0
 11 23  1  0
 23 24  1  0
 24 25  2  0
 25 26  1  0
 26 27  2  0
 27 28  1  0
 27 29  1  0
 29 30  2  0
 30 31  1  0
  8  3  1  0
 22 12  2  0
 30 24  1  0
 23  7  1  0
 21 16  1  0
  1 32  1  0
  1 33  1  0
  1 34  1  0
  2 35  1  0
  2 36  1  0
  6 37  1  0
  6 38  1  0
  6 39  1  0
 13 40  1  0
 15 41  1  0
 15 42  1  0
 15 43  1  0
 20 44  1  0
 20 45  1  0
 20 46  1  0
 22 47  1  0
 23 48  1  0
 25 49  1  0
 26 50  1  0
 29 51  1  0
M  END
$$$$
