
     RDKit          3D

 45 47  0  0  0  0  0  0  0  0999 V2000
    6.3081    1.2640    1.1675 C   0  0  0  0  0  0  0  0  0  0  0  0
    6.2300    0.3217    0.2354 C   0  0  0  0  0  0  0  0  0  0  0  0
    5.4642   -0.9441    0.4455 C   0  0  0  0  0  0  0  0  0  0  0  0
    4.4004   -1.0871   -0.5399 N   0  0  0  0  0  0  0  0  0  0  0  0
    4.5164   -1.7269   -1.8121 C   0  0  0  0  0  0  0  0  0  0  0  0
    5.5699   -2.2536   -2.2427 O   0  0  0  0  0  0  0  0  0  0  0  0
    3.2168   -1.6378   -2.4610 C   0  0  0  0  0  0  0  0  0  0  0  0
    2.9348   -2.0876   -3.5891 O   0  0  0  0  0  0  0  0  0  0  0  0
    2.3317   -0.9340   -1.5490 C   0  0  0  0  0  0  0  0  0  0  0  0
    1.0030   -0.5950   -1.6905 C   0  0  0  0  0  0  0  0  0  0  0  0
    0.3972    0.0820   -0.6553 C   0  0  0  0  0  0  0  0  0  0  0  0
   -1.2727    0.5802   -0.6904 S   0  0  0  0  0  6  0  0  0  0  0  0
   -1.3653    1.8528    0.1030 O   0  0  0  0  0  0  0  0  0  0  0  0
   -1.5515    0.8604   -2.1664 O   0  0  0  0  0  0  0  0  0  0  0  0
   -2.2955   -0.6459   -0.1184 N   0  0  0  0  0  0  0  0  0  0  0  0
   -2.0204   -0.9914    1.2351 C   0  0  0  0  0  0  0  0  0  0  0  0
   -3.2633   -0.5815    1.9926 C   0  0  0  0  0  0  0  0  0  0  0  0
   -4.3589   -0.9594    0.9848 C   0  0  0  0  0  0  0  0  0  0  0  0
   -3.6860   -0.4487   -0.2960 C   0  0  1  0  0  0  0  0  0  0  0  0
   -4.1022    0.9858   -0.5059 C   0  0  0  0  0  0  0  0  0  0  0  0
   -5.5082    1.0421   -0.6639 O   0  0  0  0  0  0  0  0  0  0  0  0
   -5.7977    2.3942   -0.8507 C   0  0  0  0  0  0  0  0  0  0  0  0
    1.1308    0.3922    0.4694 C   0  0  0  0  0  0  0  0  0  0  0  0
    2.4669    0.0503    0.6095 C   0  0  0  0  0  0  0  0  0  0  0  0
    3.0652   -0.6221   -0.4204 C   0  0  0  0  0  0  0  0  0  0  0  0
    6.8830    2.1527    0.9377 H   0  0  0  0  0  0  0  0  0  0  0  0
    5.8477    1.2116    2.1246 H   0  0  0  0  0  0  0  0  0  0  0  0
    6.7198    0.4268   -0.7249 H   0  0  0  0  0  0  0  0  0  0  0  0
    6.1593   -1.8065    0.3403 H   0  0  0  0  0  0  0  0  0  0  0  0
    5.0441   -1.0154    1.4701 H   0  0  0  0  0  0  0  0  0  0  0  0
    0.4070   -0.8211   -2.5498 H   0  0  0  0  0  0  0  0  0  0  0  0
   -1.1040   -0.5634    1.6641 H   0  0  0  0  0  0  0  0  0  0  0  0
   -2.0116   -2.1208    1.2913 H   0  0  0  0  0  0  0  0  0  0  0  0
   -3.2932    0.4989    2.2042 H   0  0  0  0  0  0  0  0  0  0  0  0
   -3.3837   -1.1995    2.9268 H   0  0  0  0  0  0  0  0  0  0  0  0
   -4.4488   -2.0605    0.9707 H   0  0  0  0  0  0  0  0  0  0  0  0
   -5.2935   -0.4359    1.1879 H   0  0  0  0  0  0  0  0  0  0  0  0
   -4.0488   -1.0416   -1.1529 H   0  0  0  0  0  0  0  0  0  0  0  0
   -3.8811    1.6404    0.3443 H   0  0  0  0  0  0  0  0  0  0  0  0
   -3.7090    1.3348   -1.4748 H   0  0  0  0  0  0  0  0  0  0  0  0
   -5.2286    2.6925   -1.7790 H   0  0  0  0  0  0  0  0  0  0  0  0
   -5.3305    2.9796   -0.0306 H   0  0  0  0  0  0  0  0  0  0  0  0
   -6.8773    2.5808   -0.9675 H   0  0  0  0  0  0  0  0  0  0  0  0
    0.7148    0.9320    1.3283 H   0  0  0  0  0  0  0  0  0  0  0  0
    3.0206    0.3040    1.4998 H   0  0  0  0  0  0  0  0  0  0  0  0
  1  2  2  3
  2  3  1  0
  3  4  1  0
  4  5  1  0
  5  6  2  0
  5  7  1  0
  7  8  2  0
  7  9  1  0
  9 10  2  0
 10 11  1  0
 11 12  1  0
 12 13  2  0
 12 14  2  0
 12 15  1  0
 15 16  1  0
 16 17  1  0
 17 18  1  0
 18 19  1  0
 19 20  1  0
 20 21  1  0
 21 22  1  0
 11 23  2  0
 23 24  1  0
 24 25  2  0
 25  4  1  0
 25  9  1  0
 19 15  1  0
  1 26  1  0
  1 27  1  0
  2 28  1  0
  3 29  1  0
  3 30  1  0
 10 31  1  0
 16 32  1  0
 16 33  1  0
 17 34  1  0
 17 35  1  0
 18 36  1  0
 18 37  1  0
 19 38  1  6
 20 39  1  0
 20 40  1  0
 22 41  1  0
 22 42  1  0
 22 43  1  0
 23 44  1  0
 24 45  1  0
M  END
$$$$
