
     RDKit          3D

 46 46  0  0  0  0  0  0  0  0999 V2000
   -4.8874    0.7951    2.4076 C   0  0  0  0  0  0  0  0  0  0  0  0
   -4.5112    0.2364    1.0054 C   0  0  0  0  0  0  0  0  0  0  0  0
   -5.5052    0.9090    0.0796 C   0  0  0  0  0  0  0  0  0  0  0  0
   -3.1095    0.6440    0.7934 C   0  0  0  0  0  0  0  0  0  0  0  0
   -2.4139    0.2098   -0.4273 C   0  0  2  0  0  0  0  0  0  0  0  0
   -1.0265    0.7877   -0.3517 N   0  0  0  0  0  0  0  0  0  0  0  0
    0.0975   -0.0555   -0.2121 C   0  0  0  0  0  0  0  0  0  0  0  0
   -0.0926   -1.2995   -0.1530 O   0  0  0  0  0  0  0  0  0  0  0  0
    1.4484    0.5688   -0.1422 C   0  0  1  0  0  0  0  0  0  0  0  0
    1.2743    1.9701   -0.2023 O   0  0  0  0  0  0  0  0  0  0  0  0
    2.1077    0.3077    1.1882 C   0  0  2  0  0  0  0  0  0  0  0  0
    3.3630    1.0894    1.1452 N   0  0  0  0  0  0  0  0  0  0  0  0
    2.5864   -1.1468    1.3204 C   0  0  0  0  0  0  0  0  0  0  0  0
    3.5853   -1.4691    0.2790 C   0  0  0  0  0  0  0  0  0  0  0  0
    4.9401   -1.2424    0.5310 C   0  0  0  0  0  0  0  0  0  0  0  0
    5.9031   -1.5316   -0.4112 C   0  0  0  0  0  0  0  0  0  0  0  0
    5.5652   -2.0563   -1.6395 C   0  0  0  0  0  0  0  0  0  0  0  0
    4.2357   -2.2852   -1.9029 C   0  0  0  0  0  0  0  0  0  0  0  0
    3.2665   -1.9914   -0.9477 C   0  0  0  0  0  0  0  0  0  0  0  0
   -2.9695    0.4821   -1.7369 C   0  0  0  0  0  0  0  0  0  0  0  0
   -4.0206   -0.0083   -2.2036 O   0  0  0  0  0  0  0  0  0  0  0  0
   -2.3108    1.3751   -2.6153 O   0  0  0  0  0  0  0  0  0  0  0  0
   -5.9772    0.9664    2.4668 H   0  0  0  0  0  0  0  0  0  0  0  0
   -4.3830    1.7604    2.5220 H   0  0  0  0  0  0  0  0  0  0  0  0
   -4.5187    0.0483    3.1300 H   0  0  0  0  0  0  0  0  0  0  0  0
   -4.6775   -0.8498    0.9727 H   0  0  0  0  0  0  0  0  0  0  0  0
   -6.2983    1.4008    0.7188 H   0  0  0  0  0  0  0  0  0  0  0  0
   -5.0704    1.7122   -0.5141 H   0  0  0  0  0  0  0  0  0  0  0  0
   -6.0121    0.1556   -0.5201 H   0  0  0  0  0  0  0  0  0  0  0  0
   -2.4633    0.2871    1.6657 H   0  0  0  0  0  0  0  0  0  0  0  0
   -3.0525    1.7878    0.8924 H   0  0  0  0  0  0  0  0  0  0  0  0
   -2.2496   -0.9039   -0.3475 H   0  0  0  0  0  0  0  0  0  0  0  0
   -0.9122    1.8218   -0.4043 H   0  0  0  0  0  0  0  0  0  0  0  0
    2.1222    0.2563   -0.9405 H   0  0  0  0  0  0  0  0  0  0  0  0
    0.9295    2.2101    0.7112 H   0  0  0  0  0  0  0  0  0  0  0  0
    1.5563    0.6569    2.0616 H   0  0  0  0  0  0  0  0  0  0  0  0
    3.1263    2.1104    1.1392 H   0  0  0  0  0  0  0  0  0  0  0  0
    3.7539    0.8925    0.1891 H   0  0  0  0  0  0  0  0  0  0  0  0
    3.0500   -1.2446    2.3039 H   0  0  0  0  0  0  0  0  0  0  0  0
    1.7292   -1.8514    1.2743 H   0  0  0  0  0  0  0  0  0  0  0  0
    5.1892   -0.8293    1.5021 H   0  0  0  0  0  0  0  0  0  0  0  0
    6.9497   -1.3555   -0.2139 H   0  0  0  0  0  0  0  0  0  0  0  0
    6.3074   -2.2944   -2.4036 H   0  0  0  0  0  0  0  0  0  0  0  0
    3.9805   -2.6996   -2.8757 H   0  0  0  0  0  0  0  0  0  0  0  0
    2.2404   -2.1914   -1.2036 H   0  0  0  0  0  0  0  0  0  0  0  0
   -2.8462    1.8639   -3.3034 H   0  0  0  0  0  0  0  0  0  0  0  0
  1  2  1  0
  2  3  1  0
  2  4  1  0
  4  5  1  0
  5  6  1  0
  6  7  1  0
  7  8  2  0
  7  9  1  0
  9 10  1  0
  9 11  1  0
 11 12  1  0
 11 13  1  0
 13 14  1  0
 14 15  2  0
 15 16  1  0
 16 17  2  0
 17 18  1  0
 18 19  2  0
  5 20  1  0
 20 21  2  0
 20 22  1  0
 19 14  1  0
  1 23  1  0
  1 24  1  0
  1 25  1  0
  2 26  1  0
  3 27  1  0
  3 28  1  0
  3 29  1  0
  4 30  1  0
  4 31  1  0
  5 32  1  1
  6 33  1  0
  9 34  1  6
 10 35  1  0
 11 36  1  1
 12 37  1  0
 12 38  1  0
 13 39  1  0
 13 40  1  0
 15 41  1  0
 16 42  1  0
 17 43  1  0
 18 44  1  0
 19 45  1  0
 22 46  1  0
M  END
$$$$
