
     RDKit          3D

 37 38  0  0  0  0  0  0  0  0999 V2000
    1.5004    1.2686   -0.9228 C   0  0  1  0  0  0  0  0  0  0  0  0
    1.7943    1.4696   -2.3348 N   0  0  0  0  0  0  0  0  0  0  0  0
    0.0684    1.7060   -0.6918 C   0  0  0  0  0  0  0  0  0  0  0  0
   -0.6673    0.4178   -1.0073 C   0  0  1  0  0  0  0  0  0  0  0  0
    0.1282   -0.5154   -0.3360 O   0  0  0  0  0  0  0  0  0  0  0  0
    1.4413   -0.1990   -0.6528 C   0  0  2  0  0  0  0  0  0  0  0  0
    2.4395   -0.5589    0.4019 C   0  0  0  0  0  0  0  0  0  0  0  0
    3.6920   -0.1821   -0.0621 O   0  0  0  0  0  0  0  0  0  0  0  0
    4.9160   -0.5301    1.0304 P   0  0  0  0  0  0  0  0  0  0  0  0
    6.2124    0.5037    0.6623 O   0  0  0  0  0  0  0  0  0  0  0  0
    5.5000   -2.1079    0.8042 O   0  0  0  0  0  0  0  0  0  0  0  0
    4.5121   -0.3044    2.4633 O   0  0  0  0  0  0  0  0  0  0  0  0
   -2.0104    0.4012   -0.4848 N   0  0  0  0  0  0  0  0  0  0  0  0
   -2.4611   -0.7301    0.0972 C   0  0  0  0  0  0  0  0  0  0  0  0
   -3.7284   -0.8770    0.6376 C   0  0  0  0  0  0  0  0  0  0  0  0
   -4.1312   -2.1686    1.2590 C   0  0  0  0  0  0  0  0  0  0  0  0
   -4.5880    0.2170    0.5728 C   0  0  0  0  0  0  0  0  0  0  0  0
   -5.8642    0.1151    1.1004 O   0  0  0  0  0  0  0  0  0  0  0  0
   -4.0943    1.3176   -0.0145 N   0  0  0  0  0  0  0  0  0  0  0  0
   -2.8684    1.4368   -0.5290 C   0  0  0  0  0  0  0  0  0  0  0  0
   -2.4734    2.5046   -1.0666 O   0  0  0  0  0  0  0  0  0  0  0  0
    2.2108    1.8139   -0.2724 H   0  0  0  0  0  0  0  0  0  0  0  0
    0.9267    1.5769   -2.9167 H   0  0  0  0  0  0  0  0  0  0  0  0
    2.3254    0.6505   -2.7315 H   0  0  0  0  0  0  0  0  0  0  0  0
   -0.0687    2.0134    0.3594 H   0  0  0  0  0  0  0  0  0  0  0  0
   -0.1617    2.5113   -1.4189 H   0  0  0  0  0  0  0  0  0  0  0  0
   -0.6195    0.2754   -2.1148 H   0  0  0  0  0  0  0  0  0  0  0  0
    1.6908   -0.7890   -1.5577 H   0  0  0  0  0  0  0  0  0  0  0  0
    2.2791    0.0056    1.3421 H   0  0  0  0  0  0  0  0  0  0  0  0
    2.4472   -1.6504    0.6291 H   0  0  0  0  0  0  0  0  0  0  0  0
    5.9299    1.4181    0.4906 H   0  0  0  0  0  0  0  0  0  0  0  0
    4.8313   -2.6150    0.2925 H   0  0  0  0  0  0  0  0  0  0  0  0
   -1.8150   -1.5944    0.1610 H   0  0  0  0  0  0  0  0  0  0  0  0
   -3.3376   -2.5838    1.8906 H   0  0  0  0  0  0  0  0  0  0  0  0
   -5.1037   -2.0767    1.7376 H   0  0  0  0  0  0  0  0  0  0  0  0
   -4.2762   -2.8784    0.3945 H   0  0  0  0  0  0  0  0  0  0  0  0
   -6.5770    0.7381    0.7479 H   0  0  0  0  0  0  0  0  0  0  0  0
  1  2  1  0
  1  3  1  0
  3  4  1  0
  4  5  1  0
  5  6  1  0
  6  7  1  0
  7  8  1  0
  8  9  1  0
  9 10  1  0
  9 11  1  0
  9 12  2  0
  4 13  1  0
 13 14  1  0
 14 15  2  0
 15 16  1  0
 15 17  1  0
 17 18  1  0
 17 19  2  0
 19 20  1  0
 20 21  2  0
  6  1  1  0
 20 13  1  0
  1 22  1  1
  2 23  1  0
  2 24  1  0
  3 25  1  0
  3 26  1  0
  4 27  1  6
  6 28  1  6
  7 29  1  0
  7 30  1  0
 10 31  1  0
 11 32  1  0
 14 33  1  0
 16 34  1  0
 16 35  1  0
 16 36  1  0
 18 37  1  0
M  END
$$$$
