
     RDKit          3D

 76 80  0  0  0  0  0  0  0  0999 V2000
   -5.1061    4.6995    2.3494 C   0  0  0  0  0  0  0  0  0  0  0  0
   -5.0317    3.3871    1.6172 C   0  0  0  0  0  0  0  0  0  0  0  0
   -5.3724    3.2965    0.2888 C   0  0  0  0  0  0  0  0  0  0  0  0
   -5.3020    2.0863   -0.3814 C   0  0  0  0  0  0  0  0  0  0  0  0
   -4.8914    0.9284    0.2460 C   0  0  0  0  0  0  0  0  0  0  0  0
   -4.8082   -0.3293   -0.4135 N   0  0  0  0  0  0  0  0  0  0  0  0
   -5.6822   -1.3058   -0.2366 N   0  0  0  0  0  0  0  0  0  0  0  0
   -5.3449   -2.3757   -0.9917 C   0  0  0  0  0  0  0  0  0  0  0  0
   -6.0267   -3.6903   -1.1166 C   0  0  0  0  0  0  0  0  0  0  0  0
   -5.5139   -4.6919   -0.1200 C   0  0  0  0  0  0  0  0  0  0  0  0
   -5.9675   -4.2223   -2.5329 C   0  0  0  0  0  0  0  0  0  0  0  0
   -7.5087   -3.4676   -0.7896 C   0  0  0  0  0  0  0  0  0  0  0  0
   -4.1803   -1.9928   -1.6630 C   0  0  0  0  0  0  0  0  0  0  0  0
   -3.8559   -0.7058   -1.2898 C   0  0  0  0  0  0  0  0  0  0  0  0
   -2.7434    0.0549   -1.7428 N   0  0  0  0  0  0  0  0  0  0  0  0
   -1.4930    0.0597   -1.1041 C   0  0  0  0  0  0  0  0  0  0  0  0
   -1.3365   -0.6349   -0.0814 O   0  0  0  0  0  0  0  0  0  0  0  0
   -0.4042    0.8508   -1.6153 N   0  0  0  0  0  0  0  0  0  0  0  0
    0.8589    0.8624   -0.9747 C   0  0  0  0  0  0  0  0  0  0  0  0
    1.8151   -0.0572   -1.3361 C   0  0  0  0  0  0  0  0  0  0  0  0
    3.0706   -0.0708   -0.7231 C   0  0  0  0  0  0  0  0  0  0  0  0
    3.3915    0.8270    0.2531 C   0  0  0  0  0  0  0  0  0  0  0  0
    4.5468    0.9138    0.9100 O   0  0  0  0  0  0  0  0  0  0  0  0
    5.7532    0.2423    0.8774 C   0  0  0  0  0  0  0  0  0  0  0  0
    6.4392    0.4041   -0.4270 C   0  0  0  0  0  0  0  0  0  0  0  0
    7.6977   -0.2769   -0.5318 N   0  0  0  0  0  0  0  0  0  0  0  0
    7.6562   -1.6920   -0.5448 C   0  0  0  0  0  0  0  0  0  0  0  0
    8.8214   -2.2320    0.2571 C   0  0  0  0  0  0  0  0  0  0  0  0
    8.7915   -1.6474    1.5224 O   0  0  0  0  0  0  0  0  0  0  0  0
    9.1301   -0.3078    1.4761 C   0  0  0  0  0  0  0  0  0  0  0  0
    8.7858    0.3315    0.1571 C   0  0  0  0  0  0  0  0  0  0  0  0
    2.3875    1.7494    0.5936 C   0  0  0  0  0  0  0  0  0  0  0  0
    2.6333    2.6879    1.5697 C   0  0  0  0  0  0  0  0  0  0  0  0
    1.6868    3.6117    1.9393 C   0  0  0  0  0  0  0  0  0  0  0  0
    0.4366    3.6274    1.3316 C   0  0  0  0  0  0  0  0  0  0  0  0
    0.1816    2.6988    0.3599 C   0  0  0  0  0  0  0  0  0  0  0  0
    1.1574    1.7722    0.0022 C   0  0  0  0  0  0  0  0  0  0  0  0
   -4.5494    1.0195    1.5793 C   0  0  0  0  0  0  0  0  0  0  0  0
   -4.6190    2.2395    2.2601 C   0  0  0  0  0  0  0  0  0  0  0  0
   -4.7080    4.5314    3.3648 H   0  0  0  0  0  0  0  0  0  0  0  0
   -4.4854    5.4526    1.7846 H   0  0  0  0  0  0  0  0  0  0  0  0
   -6.1474    5.0541    2.4023 H   0  0  0  0  0  0  0  0  0  0  0  0
   -5.6966    4.1740   -0.2351 H   0  0  0  0  0  0  0  0  0  0  0  0
   -5.5672    1.9929   -1.4309 H   0  0  0  0  0  0  0  0  0  0  0  0
   -4.6428   -4.2597    0.4358 H   0  0  0  0  0  0  0  0  0  0  0  0
   -6.2946   -5.0493    0.5823 H   0  0  0  0  0  0  0  0  0  0  0  0
   -5.1595   -5.6057   -0.6781 H   0  0  0  0  0  0  0  0  0  0  0  0
   -6.9880   -4.3875   -2.9653 H   0  0  0  0  0  0  0  0  0  0  0  0
   -5.3640   -5.1508   -2.5719 H   0  0  0  0  0  0  0  0  0  0  0  0
   -5.4857   -3.4611   -3.1804 H   0  0  0  0  0  0  0  0  0  0  0  0
   -7.8128   -2.5548   -1.3463 H   0  0  0  0  0  0  0  0  0  0  0  0
   -8.1243   -4.2975   -1.1444 H   0  0  0  0  0  0  0  0  0  0  0  0
   -7.6376   -3.2522    0.2896 H   0  0  0  0  0  0  0  0  0  0  0  0
   -3.6449   -2.6268   -2.3561 H   0  0  0  0  0  0  0  0  0  0  0  0
   -2.8588    0.6541   -2.6145 H   0  0  0  0  0  0  0  0  0  0  0  0
   -0.5817    1.4193   -2.4810 H   0  0  0  0  0  0  0  0  0  0  0  0
    1.6013   -0.7890   -2.1092 H   0  0  0  0  0  0  0  0  0  0  0  0
    3.7622   -0.8157   -1.0332 H   0  0  0  0  0  0  0  0  0  0  0  0
    5.5280   -0.8333    1.1220 H   0  0  0  0  0  0  0  0  0  0  0  0
    6.3735    0.6851    1.7218 H   0  0  0  0  0  0  0  0  0  0  0  0
    5.7942    0.1930   -1.2625 H   0  0  0  0  0  0  0  0  0  0  0  0
    6.7016    1.5094   -0.5055 H   0  0  0  0  0  0  0  0  0  0  0  0
    6.6925   -2.1331   -0.2307 H   0  0  0  0  0  0  0  0  0  0  0  0
    7.8166   -2.0376   -1.6003 H   0  0  0  0  0  0  0  0  0  0  0  0
    8.8052   -3.3239    0.3611 H   0  0  0  0  0  0  0  0  0  0  0  0
    9.7462   -1.9719   -0.2974 H   0  0  0  0  0  0  0  0  0  0  0  0
   10.2451   -0.2417    1.5737 H   0  0  0  0  0  0  0  0  0  0  0  0
    8.6354    0.2083    2.3421 H   0  0  0  0  0  0  0  0  0  0  0  0
    9.6616    0.3238   -0.5270 H   0  0  0  0  0  0  0  0  0  0  0  0
    8.5393    1.4006    0.3153 H   0  0  0  0  0  0  0  0  0  0  0  0
    3.5899    2.7027    2.0593 H   0  0  0  0  0  0  0  0  0  0  0  0
    1.8640    4.3525    2.7021 H   0  0  0  0  0  0  0  0  0  0  0  0
   -0.2982    4.3610    1.6331 H   0  0  0  0  0  0  0  0  0  0  0  0
   -0.7964    2.6880   -0.1357 H   0  0  0  0  0  0  0  0  0  0  0  0
   -4.2209    0.1524    2.1253 H   0  0  0  0  0  0  0  0  0  0  0  0
   -4.3455    2.2866    3.3065 H   0  0  0  0  0  0  0  0  0  0  0  0
  1  2  1  0
  2  3  2  0
  3  4  1  0
  4  5  2  0
  5  6  1  0
  6  7  1  0
  7  8  2  0
  8  9  1  0
  9 10  1  0
  9 11  1  0
  9 12  1  0
  8 13  1  0
 13 14  2  0
 14 15  1  0
 15 16  1  0
 16 17  2  0
 16 18  1  0
 18 19  1  0
 19 20  2  0
 20 21  1  0
 21 22  2  0
 22 23  1  0
 23 24  1  0
 24 25  1  0
 25 26  1  0
 26 27  1  0
 27 28  1  0
 28 29  1  0
 29 30  1  0
 30 31  1  0
 22 32  1  0
 32 33  2  0
 33 34  1  0
 34 35  2  0
 35 36  1  0
 36 37  2  0
  5 38  1  0
 38 39  2  0
 39  2  1  0
 14  6  1  0
 37 19  1  0
 31 26  1  0
 37 32  1  0
  1 40  1  0
  1 41  1  0
  1 42  1  0
  3 43  1  0
  4 44  1  0
 10 45  1  0
 10 46  1  0
 10 47  1  0
 11 48  1  0
 11 49  1  0
 11 50  1  0
 12 51  1  0
 12 52  1  0
 12 53  1  0
 13 54  1  0
 15 55  1  0
 18 56  1  0
 20 57  1  0
 21 58  1  0
 24 59  1  0
 24 60  1  0
 25 61  1  0
 25 62  1  0
 27 63  1  0
 27 64  1  0
 28 65  1  0
 28 66  1  0
 30 67  1  0
 30 68  1  0
 31 69  1  0
 31 70  1  0
 33 71  1  0
 34 72  1  0
 35 73  1  0
 36 74  1  0
 38 75  1  0
 39 76  1  0
M  END
$$$$
