
     RDKit          3D

 38 40  0  0  0  0  0  0  0  0999 V2000
    5.0896   -1.4249    1.3554 C   0  0  0  0  0  0  0  0  0  0  0  0
    3.7595   -1.5640    0.9593 O   0  0  0  0  0  0  0  0  0  0  0  0
    3.2625   -0.2764    0.7704 C   0  0  0  0  0  0  0  0  0  0  0  0
    1.8009   -0.3137    0.3316 C   0  0  2  0  0  0  0  0  0  0  0  0
    1.7143   -1.0197   -0.9819 C   0  0  0  0  0  0  0  0  0  0  0  0
    1.6687    0.0927   -1.9885 C   0  0  0  0  0  0  0  0  0  0  0  0
    1.1644    1.3027   -1.2228 C   0  0  0  0  0  0  0  0  0  0  0  0
    1.3754    1.0402    0.1622 N   0  0  0  0  0  0  0  0  0  0  0  0
    0.1154    1.5288    1.1894 S   0  0  0  0  0  6  0  0  0  0  0  0
    0.5677    1.3168    2.6185 O   0  0  0  0  0  0  0  0  0  0  0  0
   -0.0642    3.0230    1.0327 O   0  0  0  0  0  0  0  0  0  0  0  0
   -1.3967    0.7432    0.8789 C   0  0  0  0  0  0  0  0  0  0  0  0
   -1.7024   -0.4442    1.5335 C   0  0  0  0  0  0  0  0  0  0  0  0
   -2.9085   -1.0323    1.2590 C   0  0  0  0  0  0  0  0  0  0  0  0
   -3.8327   -0.5104    0.3704 C   0  0  0  0  0  0  0  0  0  0  0  0
   -3.5174    0.6607   -0.2674 C   0  0  0  0  0  0  0  0  0  0  0  0
   -2.3088    1.2757   -0.0102 C   0  0  0  0  0  0  0  0  0  0  0  0
   -4.6393    1.0107   -1.1483 C   0  0  0  0  0  0  0  0  0  0  0  0
   -4.6561    2.0359   -1.8729 O   0  0  0  0  0  0  0  0  0  0  0  0
   -5.6257   -0.0357   -0.9784 C   0  0  0  0  0  0  0  0  0  0  0  0
   -6.7386   -0.0661   -1.5889 O   0  0  0  0  0  0  0  0  0  0  0  0
   -5.1140   -0.9732   -0.0340 N   0  0  0  0  0  0  0  0  0  0  0  0
    5.0943   -0.8278    2.3139 H   0  0  0  0  0  0  0  0  0  0  0  0
    5.6195   -0.7900    0.6208 H   0  0  0  0  0  0  0  0  0  0  0  0
    5.5895   -2.4016    1.5118 H   0  0  0  0  0  0  0  0  0  0  0  0
    3.8832    0.2283    0.0254 H   0  0  0  0  0  0  0  0  0  0  0  0
    3.2859    0.3131    1.7118 H   0  0  0  0  0  0  0  0  0  0  0  0
    1.2209   -0.8445    1.1259 H   0  0  0  0  0  0  0  0  0  0  0  0
    2.6256   -1.6642   -1.1509 H   0  0  0  0  0  0  0  0  0  0  0  0
    0.8310   -1.7003   -1.0652 H   0  0  0  0  0  0  0  0  0  0  0  0
    0.9809   -0.1797   -2.8315 H   0  0  0  0  0  0  0  0  0  0  0  0
    2.7120    0.2533   -2.3665 H   0  0  0  0  0  0  0  0  0  0  0  0
    1.8067    2.1606   -1.5208 H   0  0  0  0  0  0  0  0  0  0  0  0
    0.1064    1.5329   -1.4643 H   0  0  0  0  0  0  0  0  0  0  0  0
   -0.9700   -0.8392    2.2247 H   0  0  0  0  0  0  0  0  0  0  0  0
   -3.1310   -1.9693    1.7863 H   0  0  0  0  0  0  0  0  0  0  0  0
   -2.0690    2.1961   -0.5161 H   0  0  0  0  0  0  0  0  0  0  0  0
   -5.5996   -1.8373    0.2930 H   0  0  0  0  0  0  0  0  0  0  0  0
  1  2  1  0
  2  3  1  0
  3  4  1  0
  4  5  1  0
  5  6  1  0
  6  7  1  0
  7  8  1  0
  8  9  1  0
  9 10  2  0
  9 11  2  0
  9 12  1  0
 12 13  2  0
 13 14  1  0
 14 15  2  0
 15 16  1  0
 16 17  2  0
 16 18  1  0
 18 19  2  0
 18 20  1  0
 20 21  2  0
 20 22  1  0
  8  4  1  0
 17 12  1  0
 22 15  1  0
  1 23  1  0
  1 24  1  0
  1 25  1  0
  3 26  1  0
  3 27  1  0
  4 28  1  1
  5 29  1  0
  5 30  1  0
  6 31  1  0
  6 32  1  0
  7 33  1  0
  7 34  1  0
 13 35  1  0
 14 36  1  0
 17 37  1  0
 22 38  1  0
M  END
$$$$
