
     RDKit          3D

 72 76  0  0  0  0  0  0  0  0999 V2000
   -6.1895    4.0444    1.0148 C   0  0  0  0  0  0  0  0  0  0  0  0
   -6.7358    3.0526    2.0111 C   0  0  0  0  0  0  0  0  0  0  0  0
   -7.4058    1.9131    1.3560 C   0  0  0  0  0  0  0  0  0  0  0  0
   -8.7341    1.7556    1.2732 N   0  0  0  0  0  0  0  0  0  0  0  0
   -8.9663    0.6358    0.6289 N   0  0  0  0  0  0  0  0  0  0  0  0
  -10.2662    0.0679    0.3078 C   0  0  0  0  0  0  0  0  0  0  0  0
   -7.7999    0.0438    0.2805 C   0  0  0  0  0  0  0  0  0  0  0  0
   -6.7938    0.8512    0.7396 C   0  0  0  0  0  0  0  0  0  0  0  0
   -5.4171    0.6440    0.6108 N   0  0  0  0  0  0  0  0  0  0  0  0
   -4.7802   -0.4614   -0.0002 C   0  0  0  0  0  0  0  0  0  0  0  0
   -5.5165   -1.4549   -0.5321 N   0  0  0  0  0  0  0  0  0  0  0  0
   -4.9438   -2.5185   -1.1083 C   0  0  0  0  0  0  0  0  0  0  0  0
   -3.5949   -2.6240   -1.1711 C   0  0  0  0  0  0  0  0  0  0  0  0
   -2.8878   -3.7823   -1.8033 C   0  0  0  0  0  0  0  0  0  0  0  0
   -2.8077   -1.6082   -0.6279 C   0  0  0  0  0  0  0  0  0  0  0  0
   -1.3672   -1.7167   -0.6966 C   0  0  0  0  0  0  0  0  0  0  0  0
   -0.5928   -2.7661   -0.1986 C   0  0  0  0  0  0  0  0  0  0  0  0
    0.7030   -2.4874   -0.4526 N   0  0  0  0  0  0  0  0  0  0  0  0
    0.8232   -1.3259   -1.0834 C   0  0  0  0  0  0  0  0  0  0  0  0
    1.9263   -0.6408   -1.5440 C   0  0  0  0  0  0  0  0  0  0  0  0
    3.2641   -1.0917   -1.3982 N   0  0  0  0  0  0  0  0  0  0  0  0
    3.9952   -0.6721   -0.2519 C   0  0  0  0  0  0  0  0  0  0  0  0
    3.4003    0.0772    0.5624 O   0  0  0  0  0  0  0  0  0  0  0  0
    5.3740   -1.0542    0.0268 C   0  0  1  0  0  0  0  0  0  0  0  0
    6.2762   -1.0948   -1.1693 C   0  0  0  0  0  0  0  0  0  0  0  0
    5.8927   -0.3328    1.1212 N   0  0  0  0  0  0  0  0  0  0  0  0
    7.2262   -0.6610    1.5221 C   0  0  0  0  0  0  0  0  0  0  0  0
    8.3112    0.1858    0.9595 C   0  0  0  0  0  0  0  0  0  0  0  0
    7.9864    1.5833    0.8763 N   0  0  0  0  0  0  0  0  0  0  0  0
    8.1209    2.1201   -0.4503 C   0  0  0  0  0  0  0  0  0  0  0  0
    6.7752    1.9397    1.5441 C   0  0  0  0  0  0  0  0  0  0  0  0
    5.6011    1.0687    1.1678 C   0  0  0  0  0  0  0  0  0  0  0  0
    1.7320    0.5681   -2.1799 C   0  0  0  0  0  0  0  0  0  0  0  0
    0.4501    1.0572   -2.3375 C   0  0  0  0  0  0  0  0  0  0  0  0
   -0.6537    0.3753   -1.8781 C   0  0  0  0  0  0  0  0  0  0  0  0
   -0.4651   -0.8317   -1.2430 C   0  0  0  0  0  0  0  0  0  0  0  0
   -3.4400   -0.5742   -0.0677 N   0  0  0  0  0  0  0  0  0  0  0  0
   -5.5853    3.5809    0.2160 H   0  0  0  0  0  0  0  0  0  0  0  0
   -7.0899    4.4804    0.4974 H   0  0  0  0  0  0  0  0  0  0  0  0
   -5.6901    4.8788    1.5299 H   0  0  0  0  0  0  0  0  0  0  0  0
   -7.4115    3.5969    2.6967 H   0  0  0  0  0  0  0  0  0  0  0  0
   -5.8492    2.6506    2.5621 H   0  0  0  0  0  0  0  0  0  0  0  0
  -10.5896   -0.6238    1.1167 H   0  0  0  0  0  0  0  0  0  0  0  0
  -11.0357    0.8352    0.1847 H   0  0  0  0  0  0  0  0  0  0  0  0
  -10.1673   -0.5853   -0.6063 H   0  0  0  0  0  0  0  0  0  0  0  0
   -7.7558   -0.8963   -0.2617 H   0  0  0  0  0  0  0  0  0  0  0  0
   -4.7659    1.3877    1.0086 H   0  0  0  0  0  0  0  0  0  0  0  0
   -5.5282   -3.3325   -1.5450 H   0  0  0  0  0  0  0  0  0  0  0  0
   -3.4839   -4.1178   -2.6774 H   0  0  0  0  0  0  0  0  0  0  0  0
   -1.8825   -3.5059   -2.1630 H   0  0  0  0  0  0  0  0  0  0  0  0
   -2.7947   -4.5550   -1.0158 H   0  0  0  0  0  0  0  0  0  0  0  0
   -1.0160   -3.6400    0.3031 H   0  0  0  0  0  0  0  0  0  0  0  0
    1.5234   -3.0947   -0.1950 H   0  0  0  0  0  0  0  0  0  0  0  0
    3.7410   -1.7115   -2.0821 H   0  0  0  0  0  0  0  0  0  0  0  0
    5.3122   -2.1369    0.3693 H   0  0  0  0  0  0  0  0  0  0  0  0
    6.6359   -0.1241   -1.5194 H   0  0  0  0  0  0  0  0  0  0  0  0
    5.8242   -1.6069   -2.0395 H   0  0  0  0  0  0  0  0  0  0  0  0
    7.1699   -1.7082   -0.9047 H   0  0  0  0  0  0  0  0  0  0  0  0
    7.2676   -0.5802    2.6362 H   0  0  0  0  0  0  0  0  0  0  0  0
    7.4538   -1.7159    1.2840 H   0  0  0  0  0  0  0  0  0  0  0  0
    8.7302   -0.1332   -0.0017 H   0  0  0  0  0  0  0  0  0  0  0  0
    9.1785    0.1219    1.6836 H   0  0  0  0  0  0  0  0  0  0  0  0
    8.7642    1.3938   -1.0143 H   0  0  0  0  0  0  0  0  0  0  0  0
    7.1556    2.2847   -0.9559 H   0  0  0  0  0  0  0  0  0  0  0  0
    8.6901    3.0681   -0.3982 H   0  0  0  0  0  0  0  0  0  0  0  0
    6.5147    2.9844    1.2790 H   0  0  0  0  0  0  0  0  0  0  0  0
    6.9423    1.9169    2.6399 H   0  0  0  0  0  0  0  0  0  0  0  0
    5.2059    1.4604    0.2224 H   0  0  0  0  0  0  0  0  0  0  0  0
    4.8405    1.2345    1.9577 H   0  0  0  0  0  0  0  0  0  0  0  0
    2.5495    1.1577   -2.5657 H   0  0  0  0  0  0  0  0  0  0  0  0
    0.3221    2.0096   -2.8406 H   0  0  0  0  0  0  0  0  0  0  0  0
   -1.6760    0.7408   -1.9906 H   0  0  0  0  0  0  0  0  0  0  0  0
  1  2  1  0
  2  3  1  0
  3  4  2  0
  4  5  1  0
  5  6  1  0
  5  7  1  0
  7  8  2  0
  8  9  1  0
  9 10  1  0
 10 11  2  0
 11 12  1  0
 12 13  2  0
 13 14  1  0
 13 15  1  0
 15 16  1  0
 16 17  2  0
 17 18  1  0
 18 19  1  0
 19 20  2  0
 20 21  1  0
 21 22  1  0
 22 23  2  0
 22 24  1  0
 24 25  1  0
 24 26  1  0
 26 27  1  0
 27 28  1  0
 28 29  1  0
 29 30  1  0
 29 31  1  0
 31 32  1  0
 20 33  1  0
 33 34  2  0
 34 35  1  0
 35 36  2  0
 15 37  2  0
  8  3  1  0
 37 10  1  0
 36 16  1  0
 36 19  1  0
 32 26  1  0
  1 38  1  0
  1 39  1  0
  1 40  1  0
  2 41  1  0
  2 42  1  0
  6 43  1  0
  6 44  1  0
  6 45  1  0
  7 46  1  0
  9 47  1  0
 12 48  1  0
 14 49  1  0
 14 50  1  0
 14 51  1  0
 17 52  1  0
 18 53  1  0
 21 54  1  0
 24 55  1  1
 25 56  1  0
 25 57  1  0
 25 58  1  0
 27 59  1  0
 27 60  1  0
 28 61  1  0
 28 62  1  0
 30 63  1  0
 30 64  1  0
 30 65  1  0
 31 66  1  0
 31 67  1  0
 32 68  1  0
 32 69  1  0
 33 70  1  0
 34 71  1  0
 35 72  1  0
M  END
$$$$
