
     RDKit          3D

 69 71  0  0  0  0  0  0  0  0999 V2000
    7.3930   -1.3993    2.3308 C   0  0  0  0  0  0  0  0  0  0  0  0
    6.8403   -0.0552    2.1979 N   0  0  0  0  0  0  0  0  0  0  0  0
    7.7447    0.7043    1.3751 C   0  0  0  0  0  0  0  0  0  0  0  0
    5.5235   -0.2060    1.5915 C   0  0  0  0  0  0  0  0  0  0  0  0
    4.8650    1.1515    1.4079 C   0  0  0  0  0  0  0  0  0  0  0  0
    3.5718    0.9640    0.8096 N   0  0  0  0  0  0  0  0  0  0  0  0
    2.4189    0.7782    1.6772 C   0  0  0  0  0  0  0  0  0  0  0  0
    1.2153    1.3912    1.0152 C   0  0  0  0  0  0  0  0  0  0  0  0
    0.6131    0.4534    0.0375 N   0  0  0  0  0  0  0  0  0  0  0  0
   -0.6364    0.0089    0.4321 C   0  0  0  0  0  0  0  0  0  0  0  0
   -1.0728    0.5250    1.5396 O   0  0  0  0  0  0  0  0  0  0  0  0
   -1.5474   -0.9607   -0.2171 C   0  0  0  0  0  0  0  0  0  0  0  0
   -1.1714   -1.8388   -1.1624 C   0  0  0  0  0  0  0  0  0  0  0  0
   -2.0947   -2.7302   -1.6642 C   0  0  0  0  0  0  0  0  0  0  0  0
   -1.9654   -3.7966   -2.6997 C   0  0  0  0  0  0  0  0  0  0  0  0
   -0.5732   -3.8432   -3.2361 C   0  0  0  0  0  0  0  0  0  0  0  0
   -2.2784   -5.1639   -2.1083 C   0  0  0  0  0  0  0  0  0  0  0  0
   -2.9245   -3.5797   -3.8507 C   0  0  0  0  0  0  0  0  0  0  0  0
   -3.5966   -2.3259   -0.7602 S   0  0  0  0  0  0  0  0  0  0  0  0
   -2.8451   -1.0140    0.1911 C   0  0  0  0  0  0  0  0  0  0  0  0
   -3.5740   -0.2320    1.1664 N   0  0  0  0  0  0  0  0  0  0  0  0
   -4.2417    0.9620    0.7880 C   0  0  0  0  0  0  0  0  0  0  0  0
   -4.1666    1.2953   -0.4223 O   0  0  0  0  0  0  0  0  0  0  0  0
   -4.9721    1.7906    1.6536 N   0  0  0  0  0  0  0  0  0  0  0  0
   -5.6080    2.9717    1.1731 C   0  0  0  0  0  0  0  0  0  0  0  0
   -4.8653    4.1523    1.1924 C   0  0  0  0  0  0  0  0  0  0  0  0
   -5.3797    5.3543    0.7524 C   0  0  0  0  0  0  0  0  0  0  0  0
   -6.6892    5.3292    0.2842 C   0  0  0  0  0  0  0  0  0  0  0  0
   -7.4208    4.1616    0.2662 C   0  0  0  0  0  0  0  0  0  0  0  0
   -9.0548    4.2159   -0.3358 Cl  0  0  0  0  0  0  0  0  0  0  0  0
   -6.8862    2.9791    0.7092 C   0  0  0  0  0  0  0  0  0  0  0  0
   -7.8164    1.4791    0.6895 Cl  0  0  0  0  0  0  0  0  0  0  0  0
    1.2501    0.0909   -1.1922 C   0  0  0  0  0  0  0  0  0  0  0  0
    2.3224    1.1532   -1.5184 C   0  0  0  0  0  0  0  0  0  0  0  0
    3.4778    0.9692   -0.6210 C   0  0  0  0  0  0  0  0  0  0  0  0
    4.5700    0.7852   -1.2007 O   0  0  0  0  0  0  0  0  0  0  0  0
    6.6730   -2.0400    2.8871 H   0  0  0  0  0  0  0  0  0  0  0  0
    8.3977   -1.3774    2.8014 H   0  0  0  0  0  0  0  0  0  0  0  0
    7.5094   -1.7654    1.2687 H   0  0  0  0  0  0  0  0  0  0  0  0
    7.5358    0.4647    0.3135 H   0  0  0  0  0  0  0  0  0  0  0  0
    7.7127    1.7919    1.5892 H   0  0  0  0  0  0  0  0  0  0  0  0
    8.7747    0.3354    1.6033 H   0  0  0  0  0  0  0  0  0  0  0  0
    5.5895   -0.6589    0.5789 H   0  0  0  0  0  0  0  0  0  0  0  0
    4.9336   -0.8809    2.2314 H   0  0  0  0  0  0  0  0  0  0  0  0
    4.8223    1.7116    2.3642 H   0  0  0  0  0  0  0  0  0  0  0  0
    5.4873    1.7372    0.7172 H   0  0  0  0  0  0  0  0  0  0  0  0
    2.5951    1.2107    2.6708 H   0  0  0  0  0  0  0  0  0  0  0  0
    2.3166   -0.3172    1.8164 H   0  0  0  0  0  0  0  0  0  0  0  0
    0.4602    1.6534    1.8006 H   0  0  0  0  0  0  0  0  0  0  0  0
    1.5423    2.2727    0.4476 H   0  0  0  0  0  0  0  0  0  0  0  0
   -0.1391   -1.9481   -1.5877 H   0  0  0  0  0  0  0  0  0  0  0  0
   -0.5417   -4.6277   -4.0281 H   0  0  0  0  0  0  0  0  0  0  0  0
    0.1432   -4.2008   -2.4472 H   0  0  0  0  0  0  0  0  0  0  0  0
   -0.2409   -2.9092   -3.7122 H   0  0  0  0  0  0  0  0  0  0  0  0
   -1.7511   -5.2159   -1.1112 H   0  0  0  0  0  0  0  0  0  0  0  0
   -1.8984   -5.9630   -2.7768 H   0  0  0  0  0  0  0  0  0  0  0  0
   -3.3595   -5.2221   -1.9106 H   0  0  0  0  0  0  0  0  0  0  0  0
   -2.4365   -3.9413   -4.7974 H   0  0  0  0  0  0  0  0  0  0  0  0
   -3.1675   -2.5182   -4.0164 H   0  0  0  0  0  0  0  0  0  0  0  0
   -3.8581   -4.1725   -3.7451 H   0  0  0  0  0  0  0  0  0  0  0  0
   -3.6309   -0.5188    2.1678 H   0  0  0  0  0  0  0  0  0  0  0  0
   -5.0434    1.5278    2.6610 H   0  0  0  0  0  0  0  0  0  0  0  0
   -3.8418    4.1646    1.5597 H   0  0  0  0  0  0  0  0  0  0  0  0
   -4.7966    6.2765    0.7684 H   0  0  0  0  0  0  0  0  0  0  0  0
   -7.0810    6.2841   -0.0592 H   0  0  0  0  0  0  0  0  0  0  0  0
    0.5273    0.0967   -2.0528 H   0  0  0  0  0  0  0  0  0  0  0  0
    1.8088   -0.8629   -1.1307 H   0  0  0  0  0  0  0  0  0  0  0  0
    2.6591    0.9357   -2.5697 H   0  0  0  0  0  0  0  0  0  0  0  0
    1.8729    2.1569   -1.4901 H   0  0  0  0  0  0  0  0  0  0  0  0
  1  2  1  0
  2  3  1  0
  2  4  1  0
  4  5  1  0
  5  6  1  0
  6  7  1  0
  7  8  1  0
  8  9  1  0
  9 10  1  0
 10 11  2  0
 10 12  1  0
 12 13  1  0
 13 14  2  0
 14 15  1  0
 15 16  1  0
 15 17  1  0
 15 18  1  0
 14 19  1  0
 19 20  1  0
 20 21  1  0
 21 22  1  0
 22 23  2  0
 22 24  1  0
 24 25  1  0
 25 26  2  0
 26 27  1  0
 27 28  2  0
 28 29  1  0
 29 30  1  0
 29 31  2  0
 31 32  1  0
  9 33  1  0
 33 34  1  0
 34 35  1  0
 35 36  2  0
 35  6  1  0
 20 12  2  0
 31 25  1  0
  1 37  1  0
  1 38  1  0
  1 39  1  0
  3 40  1  0
  3 41  1  0
  3 42  1  0
  4 43  1  0
  4 44  1  0
  5 45  1  0
  5 46  1  0
  7 47  1  0
  7 48  1  0
  8 49  1  0
  8 50  1  0
 13 51  1  0
 16 52  1  0
 16 53  1  0
 16 54  1  0
 17 55  1  0
 17 56  1  0
 17 57  1  0
 18 58  1  0
 18 59  1  0
 18 60  1  0
 21 61  1  0
 24 62  1  0
 26 63  1  0
 27 64  1  0
 28 65  1  0
 33 66  1  0
 33 67  1  0
 34 68  1  0
 34 69  1  0
M  END
$$$$
