
     RDKit          3D

 24 25  0  0  0  0  0  0  0  0999 V2000
    4.1417   -0.0326   -0.8896 N   0  0  0  0  0  0  0  0  0  0  0  0
    3.5011    0.0943    0.4040 C   0  0  0  0  0  0  0  0  0  0  0  0
    2.0196    0.0385    0.2622 C   0  0  0  0  0  0  0  0  0  0  0  0
    1.3531    1.2445    0.0645 C   0  0  0  0  0  0  0  0  0  0  0  0
   -0.0375    1.2782   -0.0781 C   0  0  0  0  0  0  0  0  0  0  0  0
   -0.6689    0.0716   -0.0099 C   0  0  0  0  0  0  0  0  0  0  0  0
   -0.0924   -1.1419    0.1796 C   0  0  0  0  0  0  0  0  0  0  0  0
    1.2876   -1.1299    0.3161 C   0  0  0  0  0  0  0  0  0  0  0  0
   -2.1285    0.1079   -0.1596 C   0  0  0  0  0  0  0  0  0  0  0  0
   -3.0318   -0.9452   -0.1352 C   0  0  0  0  0  0  0  0  0  0  0  0
   -4.3606   -0.6677   -0.2980 C   0  0  0  0  0  0  0  0  0  0  0  0
   -4.7376    0.7008   -0.4845 C   0  0  0  0  0  0  0  0  0  0  0  0
   -3.0639    1.5960   -0.4148 S   0  0  0  0  0  0  0  0  0  0  0  0
    5.1564   -0.1560   -0.7261 H   0  0  0  0  0  0  0  0  0  0  0  0
    3.9921    0.8629   -1.4372 H   0  0  0  0  0  0  0  0  0  0  0  0
    3.8519    0.9501    0.9905 H   0  0  0  0  0  0  0  0  0  0  0  0
    3.7947   -0.8392    0.9638 H   0  0  0  0  0  0  0  0  0  0  0  0
    1.9004    2.1656    0.0190 H   0  0  0  0  0  0  0  0  0  0  0  0
   -0.5087    2.2287   -0.2284 H   0  0  0  0  0  0  0  0  0  0  0  0
   -0.6329   -2.0755    0.2272 H   0  0  0  0  0  0  0  0  0  0  0  0
    1.8157   -2.0718    0.4712 H   0  0  0  0  0  0  0  0  0  0  0  0
   -2.6670   -1.9488    0.0104 H   0  0  0  0  0  0  0  0  0  0  0  0
   -5.1484   -1.4034   -0.2966 H   0  0  0  0  0  0  0  0  0  0  0  0
   -5.7361    1.0729   -0.6246 H   0  0  0  0  0  0  0  0  0  0  0  0
  1  2  1  0
  2  3  1  0
  3  4  2  0
  4  5  1  0
  5  6  2  0
  6  7  1  0
  7  8  2  0
  6  9  1  0
  9 10  2  0
 10 11  1  0
 11 12  2  0
 12 13  1  0
  8  3  1  0
 13  9  1  0
  1 14  1  0
  1 15  1  0
  2 16  1  0
  2 17  1  0
  4 18  1  0
  5 19  1  0
  7 20  1  0
  8 21  1  0
 10 22  1  0
 11 23  1  0
 12 24  1  0
M  END
$$$$
