
     RDKit          3D

 68 72  0  0  0  0  0  0  0  0999 V2000
   -6.8757    2.0986   -1.6897 C   0  0  0  0  0  0  0  0  0  0  0  0
   -6.0123    1.5872   -0.5239 C   0  0  0  0  0  0  0  0  0  0  0  0
   -5.8212    2.7886    0.3692 C   0  0  0  0  0  0  0  0  0  0  0  0
   -4.7011    1.1255   -1.1659 C   0  0  0  0  0  0  0  0  0  0  0  0
   -4.2261   -0.1327   -0.5250 C   0  0  0  0  0  0  0  0  0  0  0  0
   -2.8131   -0.3739   -0.5938 N   0  0  0  0  0  0  0  0  0  0  0  0
   -2.3335   -1.6420   -0.9571 C   0  0  0  0  0  0  0  0  0  0  0  0
   -3.1667   -2.5469   -1.2199 O   0  0  0  0  0  0  0  0  0  0  0  0
   -0.9093   -1.9267   -1.0311 C   0  0  0  0  0  0  0  0  0  0  0  0
   -0.4825   -3.2393   -1.2716 C   0  0  0  0  0  0  0  0  0  0  0  0
    0.8524   -3.5606   -1.3533 C   0  0  0  0  0  0  0  0  0  0  0  0
    1.8349   -2.6083   -1.2026 C   0  0  0  0  0  0  0  0  0  0  0  0
    1.4473   -1.3107   -0.9659 C   0  0  0  0  0  0  0  0  0  0  0  0
    2.4174   -0.2255   -0.8053 C   0  0  0  0  0  0  0  0  0  0  0  0
    2.1347    1.1071   -0.5827 C   0  0  0  0  0  0  0  0  0  0  0  0
    3.3747    1.7205   -0.5227 C   0  0  0  0  0  0  0  0  0  0  0  0
    3.7314    3.0203   -0.3344 N   0  0  0  0  0  0  0  0  0  0  0  0
    5.0345    3.3288   -0.3340 C   0  0  0  0  0  0  0  0  0  0  0  0
    6.0267    2.3961   -0.5134 C   0  0  0  0  0  0  0  0  0  0  0  0
    5.6483    1.0619   -0.7054 C   0  0  0  0  0  0  0  0  0  0  0  0
    6.6462    0.1017   -0.9005 N   0  0  0  0  0  0  0  0  0  0  0  0
    7.6080   -0.1938    0.1305 C   0  0  0  0  0  0  0  0  0  0  0  0
    7.5930    0.4888    1.3348 C   0  0  0  0  0  0  0  0  0  0  0  0
    8.5496    0.1768    2.3049 C   0  0  0  0  0  0  0  0  0  0  0  0
    9.5098   -0.7945    2.0949 C   0  0  0  0  0  0  0  0  0  0  0  0
    9.5306   -1.4788    0.8969 C   0  0  0  0  0  0  0  0  0  0  0  0
   10.4884   -2.4565    0.6707 O   0  0  0  0  0  0  0  0  0  0  0  0
    8.5733   -1.1527   -0.0490 C   0  0  0  0  0  0  0  0  0  0  0  0
    4.3400    0.7977   -0.6998 N   0  0  0  0  0  0  0  0  0  0  0  0
    3.7414   -0.3846   -0.8706 N   0  0  0  0  0  0  0  0  0  0  0  0
    0.0860   -0.9888   -0.8835 C   0  0  0  0  0  0  0  0  0  0  0  0
   -4.5799   -0.1834    0.9625 C   0  0  0  0  0  0  0  0  0  0  0  0
   -6.0634   -0.2598    1.0413 C   0  0  0  0  0  0  0  0  0  0  0  0
   -6.5679    0.0501    2.4534 C   0  0  0  0  0  0  0  0  0  0  0  0
   -6.4630   -1.7236    0.7992 C   0  0  0  0  0  0  0  0  0  0  0  0
   -6.7550    0.5200    0.0719 N   0  0  0  0  0  0  0  0  0  0  0  0
   -7.2314   -0.2440   -0.9429 O   0  0  0  0  0  1  0  0  0  0  0  0
   -6.6753    3.1746   -1.8738 H   0  0  0  0  0  0  0  0  0  0  0  0
   -6.8149    1.4606   -2.5718 H   0  0  0  0  0  0  0  0  0  0  0  0
   -7.9239    2.0564   -1.3259 H   0  0  0  0  0  0  0  0  0  0  0  0
   -6.8069    3.3016    0.4150 H   0  0  0  0  0  0  0  0  0  0  0  0
   -5.1426    3.4907   -0.1716 H   0  0  0  0  0  0  0  0  0  0  0  0
   -5.3945    2.5833    1.3468 H   0  0  0  0  0  0  0  0  0  0  0  0
   -3.9344    1.9487   -1.1004 H   0  0  0  0  0  0  0  0  0  0  0  0
   -4.8333    0.9346   -2.2567 H   0  0  0  0  0  0  0  0  0  0  0  0
   -4.7491   -1.0348   -0.9484 H   0  0  0  0  0  0  0  0  0  0  0  0
   -2.1540    0.3876   -0.3723 H   0  0  0  0  0  0  0  0  0  0  0  0
   -1.2765   -3.9869   -1.3898 H   0  0  0  0  0  0  0  0  0  0  0  0
    1.1343   -4.5794   -1.5390 H   0  0  0  0  0  0  0  0  0  0  0  0
    2.8942   -2.8449   -1.2641 H   0  0  0  0  0  0  0  0  0  0  0  0
    1.1689    1.5498   -0.4821 H   0  0  0  0  0  0  0  0  0  0  0  0
    5.3056    4.3767   -0.1840 H   0  0  0  0  0  0  0  0  0  0  0  0
    7.0827    2.6195   -0.5185 H   0  0  0  0  0  0  0  0  0  0  0  0
    6.7130   -0.4159   -1.7889 H   0  0  0  0  0  0  0  0  0  0  0  0
    6.8426    1.2538    1.5109 H   0  0  0  0  0  0  0  0  0  0  0  0
    8.5436    0.7022    3.2391 H   0  0  0  0  0  0  0  0  0  0  0  0
   10.2270   -0.9993    2.8776 H   0  0  0  0  0  0  0  0  0  0  0  0
   11.0688   -2.8566    1.3673 H   0  0  0  0  0  0  0  0  0  0  0  0
    8.5957   -1.6918   -0.9849 H   0  0  0  0  0  0  0  0  0  0  0  0
   -0.2010    0.0300   -0.6987 H   0  0  0  0  0  0  0  0  0  0  0  0
   -4.0943    0.5926    1.5538 H   0  0  0  0  0  0  0  0  0  0  0  0
   -4.1306   -1.1608    1.3081 H   0  0  0  0  0  0  0  0  0  0  0  0
   -7.4574   -0.5878    2.6973 H   0  0  0  0  0  0  0  0  0  0  0  0
   -6.8827    1.0976    2.5278 H   0  0  0  0  0  0  0  0  0  0  0  0
   -5.7390   -0.1403    3.1374 H   0  0  0  0  0  0  0  0  0  0  0  0
   -6.4870   -1.8858   -0.3060 H   0  0  0  0  0  0  0  0  0  0  0  0
   -5.6369   -2.3418    1.1996 H   0  0  0  0  0  0  0  0  0  0  0  0
   -7.4082   -1.9775    1.2969 H   0  0  0  0  0  0  0  0  0  0  0  0
  1  2  1  0
  2  3  1  0
  2  4  1  0
  4  5  1  0
  5  6  1  0
  6  7  1  0
  7  8  2  0
  7  9  1  0
  9 10  2  0
 10 11  1  0
 11 12  2  0
 12 13  1  0
 13 14  1  0
 14 15  1  0
 15 16  2  0
 16 17  1  0
 17 18  2  0
 18 19  1  0
 19 20  2  0
 20 21  1  0
 21 22  1  0
 22 23  2  0
 23 24  1  0
 24 25  2  0
 25 26  1  0
 26 27  1  0
 26 28  2  0
 20 29  1  0
 29 30  1  0
 13 31  2  0
  5 32  1  0
 32 33  1  0
 33 34  1  0
 33 35  1  0
 33 36  1  0
 36 37  1  0
 36  2  1  0
 31  9  1  0
 30 14  2  0
 29 16  1  0
 28 22  1  0
  1 38  1  0
  1 39  1  0
  1 40  1  0
  3 41  1  0
  3 42  1  0
  3 43  1  0
  4 44  1  0
  4 45  1  0
  5 46  1  0
  6 47  1  0
 10 48  1  0
 11 49  1  0
 12 50  1  0
 15 51  1  0
 18 52  1  0
 19 53  1  0
 21 54  1  0
 23 55  1  0
 24 56  1  0
 25 57  1  0
 27 58  1  0
 28 59  1  0
 31 60  1  0
 32 61  1  0
 32 62  1  0
 34 63  1  0
 34 64  1  0
 34 65  1  0
 35 66  1  0
 35 67  1  0
 35 68  1  0
M  RAD  1  37   2
M  END
$$$$
