
     RDKit          3D

 50 52  0  0  0  0  0  0  0  0999 V2000
   -6.0384    0.9588    1.5754 O   0  0  0  0  0  0  0  0  0  0  0  0
   -4.8628    0.7982    1.1502 C   0  0  0  0  0  0  0  0  0  0  0  0
   -3.9484    1.8654    1.3606 N   0  0  0  0  0  0  0  0  0  0  0  0
   -4.3501    2.9795    1.9869 O   0  0  0  0  0  0  0  0  0  0  0  0
   -4.4902   -0.4666    0.4644 C   0  0  1  0  0  0  0  0  0  0  0  0
   -5.4042   -0.8035   -0.6734 C   0  0  0  0  0  0  0  0  0  0  0  0
   -5.2271    0.0933   -1.8705 C   0  0  1  0  0  0  0  0  0  0  0  0
   -6.1118    1.1635   -1.7685 O   0  0  0  0  0  0  0  0  0  0  0  0
   -3.7941    0.5649   -1.9990 C   0  0  0  0  0  0  0  0  0  0  0  0
   -2.8662   -0.3986   -1.3149 C   0  0  0  0  0  0  0  0  0  0  0  0
   -3.1093   -0.3807    0.0950 N   0  0  0  0  0  0  0  0  0  0  0  0
   -2.0862   -1.4059    0.9966 S   0  0  0  0  0  6  0  0  0  0  0  0
   -2.2591   -2.8542    0.6690 O   0  0  0  0  0  0  0  0  0  0  0  0
   -2.4767   -1.2526    2.4595 O   0  0  0  0  0  0  0  0  0  0  0  0
   -0.4145   -0.9889    0.8623 C   0  0  0  0  0  0  0  0  0  0  0  0
    0.1458   -0.1079    1.7363 C   0  0  0  0  0  0  0  0  0  0  0  0
    1.4752    0.2252    1.6312 C   0  0  0  0  0  0  0  0  0  0  0  0
    2.2352   -0.3429    0.6303 C   0  0  0  0  0  0  0  0  0  0  0  0
    3.5731   -0.0104    0.5211 O   0  0  0  0  0  0  0  0  0  0  0  0
    4.3583   -0.5773   -0.4879 C   0  0  0  0  0  0  0  0  0  0  0  0
    5.7565   -0.0840   -0.4203 C   0  0  0  0  0  0  0  0  0  0  0  0
    6.7584   -0.8847    0.0911 C   0  0  0  0  0  0  0  0  0  0  0  0
    8.0538   -0.4234    0.1524 C   0  0  0  0  0  0  0  0  0  0  0  0
    8.3411    0.8409   -0.3000 C   0  0  0  0  0  0  0  0  0  0  0  0
    7.3527    1.6458   -0.8104 C   0  0  0  0  0  0  0  0  0  0  0  0
    6.0401    1.1811   -0.8736 C   0  0  0  0  0  0  0  0  0  0  0  0
    4.7991    2.2153   -1.5240 Cl  0  0  0  0  0  0  0  0  0  0  0  0
    1.6739   -1.2356   -0.2585 C   0  0  0  0  0  0  0  0  0  0  0  0
    0.3533   -1.5594   -0.1450 C   0  0  0  0  0  0  0  0  0  0  0  0
   -2.9638    1.7862    1.0301 H   0  0  0  0  0  0  0  0  0  0  0  0
   -5.2797    2.8740    2.3234 H   0  0  0  0  0  0  0  0  0  0  0  0
   -4.6003   -1.2933    1.2172 H   0  0  0  0  0  0  0  0  0  0  0  0
   -6.4478   -0.7410   -0.2906 H   0  0  0  0  0  0  0  0  0  0  0  0
   -5.2345   -1.8756   -0.9362 H   0  0  0  0  0  0  0  0  0  0  0  0
   -5.4801   -0.4693   -2.7993 H   0  0  0  0  0  0  0  0  0  0  0  0
   -5.5979    2.0077   -1.8295 H   0  0  0  0  0  0  0  0  0  0  0  0
   -3.5573    0.6756   -3.0823 H   0  0  0  0  0  0  0  0  0  0  0  0
   -3.7116    1.5699   -1.5466 H   0  0  0  0  0  0  0  0  0  0  0  0
   -1.8271   -0.0431   -1.4809 H   0  0  0  0  0  0  0  0  0  0  0  0
   -2.9624   -1.4012   -1.7768 H   0  0  0  0  0  0  0  0  0  0  0  0
   -0.4535    0.3499    2.5370 H   0  0  0  0  0  0  0  0  0  0  0  0
    1.9157    0.9266    2.3292 H   0  0  0  0  0  0  0  0  0  0  0  0
    4.3429   -1.6878   -0.3769 H   0  0  0  0  0  0  0  0  0  0  0  0
    3.9371   -0.3751   -1.5047 H   0  0  0  0  0  0  0  0  0  0  0  0
    6.4915   -1.8790    0.4389 H   0  0  0  0  0  0  0  0  0  0  0  0
    8.8278   -1.0723    0.5599 H   0  0  0  0  0  0  0  0  0  0  0  0
    9.3811    1.1844   -0.2406 H   0  0  0  0  0  0  0  0  0  0  0  0
    7.6080    2.6476   -1.1639 H   0  0  0  0  0  0  0  0  0  0  0  0
    2.2710   -1.6851   -1.0489 H   0  0  0  0  0  0  0  0  0  0  0  0
   -0.1363   -2.2542   -0.8149 H   0  0  0  0  0  0  0  0  0  0  0  0
  1  2  2  0
  2  3  1  0
  3  4  1  0
  2  5  1  0
  5  6  1  0
  6  7  1  0
  7  8  1  0
  7  9  1  0
  9 10  1  0
 10 11  1  0
 11 12  1  0
 12 13  2  0
 12 14  2  0
 12 15  1  0
 15 16  2  0
 16 17  1  0
 17 18  2  0
 18 19  1  0
 19 20  1  0
 20 21  1  0
 21 22  2  0
 22 23  1  0
 23 24  2  0
 24 25  1  0
 25 26  2  0
 26 27  1  0
 18 28  1  0
 28 29  2  0
 11  5  1  0
 29 15  1  0
 26 21  1  0
  3 30  1  0
  4 31  1  0
  5 32  1  1
  6 33  1  0
  6 34  1  0
  7 35  1  6
  8 36  1  0
  9 37  1  0
  9 38  1  0
 10 39  1  0
 10 40  1  0
 16 41  1  0
 17 42  1  0
 20 43  1  0
 20 44  1  0
 22 45  1  0
 23 46  1  0
 24 47  1  0
 25 48  1  0
 28 49  1  0
 29 50  1  0
M  END
$$$$
