
     RDKit          3D

 57 59  0  0  0  0  0  0  0  0999 V2000
   -0.0676   -0.1232    2.8951 C   0  0  2  0  0  0  0  0  0  0  0  0
    0.2543   -0.3528    4.3522 C   0  0  0  0  0  0  0  0  0  0  0  0
   -0.7294   -1.4463    4.7627 C   0  0  0  0  0  0  0  0  0  0  0  0
   -1.1006   -2.0271    3.4082 C   0  0  0  0  0  0  0  0  0  0  0  0
   -1.2985   -0.8323    2.6164 N   0  0  0  0  0  0  0  0  0  0  0  0
   -2.3901   -0.4115    1.7686 C   0  0  0  0  0  0  0  0  0  0  0  0
   -2.7156   -1.5367    2.2271 O   0  0  0  0  0  0  0  0  0  0  0  0
   -2.2575    0.8784    1.1093 C   0  0  0  0  0  0  0  0  0  0  0  0
   -3.3636    1.3257    0.2424 C   0  0  0  0  0  0  0  0  0  0  0  0
   -3.7244    0.5239   -0.9322 C   0  0  0  0  0  0  0  0  0  0  0  0
   -2.6485    0.3270   -1.9726 C   0  0  0  0  0  0  0  0  0  0  0  0
   -3.3981   -0.5417   -2.9823 C   0  0  0  0  0  0  0  0  0  0  0  0
   -4.4471   -1.3022   -2.1760 C   0  0  0  0  0  0  0  0  0  0  0  0
   -4.1863   -0.8729   -0.7185 C   0  0  0  0  0  0  0  0  0  0  0  0
    1.0718   -0.6470    2.0978 C   0  0  0  0  0  0  0  0  0  0  0  0
    0.8264   -1.5755    1.2848 O   0  0  0  0  0  0  0  0  0  0  0  0
    2.3717   -0.0971    2.2735 N   0  0  0  0  0  0  0  0  0  0  0  0
    3.5373   -0.5404    1.5430 C   0  0  0  0  0  0  0  0  0  0  0  0
    3.6055   -0.0448    0.1497 C   0  0  0  0  0  0  0  0  0  0  0  0
    3.0910   -0.6617   -0.9777 C   0  0  0  0  0  0  0  0  0  0  0  0
    3.2080   -0.1131   -2.2342 C   0  0  0  0  0  0  0  0  0  0  0  0
    3.8623    1.1072   -2.4158 C   0  0  0  0  0  0  0  0  0  0  0  0
    4.3833    1.7410   -1.3085 C   0  0  0  0  0  0  0  0  0  0  0  0
    4.2574    1.1777   -0.0557 C   0  0  0  0  0  0  0  0  0  0  0  0
    4.0323    1.7589   -3.6969 C   0  0  0  0  0  0  0  0  0  0  0  0
    3.0991    1.6297   -4.7615 N   0  0  0  0  0  0  0  0  0  0  0  0
    5.0169    2.5220   -4.0454 N   0  0  0  0  0  0  0  0  0  0  0  0
   -0.2012    0.9529    2.6590 H   0  0  0  0  0  0  0  0  0  0  0  0
    0.0288    0.5659    4.9198 H   0  0  0  0  0  0  0  0  0  0  0  0
    1.2830   -0.7259    4.5116 H   0  0  0  0  0  0  0  0  0  0  0  0
   -1.6662   -0.9806    5.1566 H   0  0  0  0  0  0  0  0  0  0  0  0
   -0.2773   -2.1612    5.4477 H   0  0  0  0  0  0  0  0  0  0  0  0
   -1.9701   -2.6632    3.5415 H   0  0  0  0  0  0  0  0  0  0  0  0
   -0.2933   -2.6782    3.0128 H   0  0  0  0  0  0  0  0  0  0  0  0
   -1.2890    0.8978    0.5713 H   0  0  0  0  0  0  0  0  0  0  0  0
   -2.1251    1.6546    1.9194 H   0  0  0  0  0  0  0  0  0  0  0  0
   -4.2924    1.5248    0.8206 H   0  0  0  0  0  0  0  0  0  0  0  0
   -3.0752    2.3520   -0.1398 H   0  0  0  0  0  0  0  0  0  0  0  0
   -4.5527    1.0566   -1.4678 H   0  0  0  0  0  0  0  0  0  0  0  0
   -1.8143   -0.3041   -1.6047 H   0  0  0  0  0  0  0  0  0  0  0  0
   -2.3266    1.2698   -2.4540 H   0  0  0  0  0  0  0  0  0  0  0  0
   -3.9406    0.1164   -3.6944 H   0  0  0  0  0  0  0  0  0  0  0  0
   -2.7029   -1.2235   -3.5081 H   0  0  0  0  0  0  0  0  0  0  0  0
   -5.4686   -0.9927   -2.4058 H   0  0  0  0  0  0  0  0  0  0  0  0
   -4.3096   -2.3752   -2.3015 H   0  0  0  0  0  0  0  0  0  0  0  0
   -3.3380   -1.5480   -0.4083 H   0  0  0  0  0  0  0  0  0  0  0  0
   -5.0634   -0.9717   -0.0847 H   0  0  0  0  0  0  0  0  0  0  0  0
    2.4523    0.6850    2.9930 H   0  0  0  0  0  0  0  0  0  0  0  0
    3.6450   -1.6616    1.5819 H   0  0  0  0  0  0  0  0  0  0  0  0
    4.4317   -0.1781    2.0872 H   0  0  0  0  0  0  0  0  0  0  0  0
    2.5946   -1.5979   -0.8118 H   0  0  0  0  0  0  0  0  0  0  0  0
    2.8013   -0.6076   -3.1019 H   0  0  0  0  0  0  0  0  0  0  0  0
    4.9078    2.6997   -1.3826 H   0  0  0  0  0  0  0  0  0  0  0  0
    4.6871    1.7157    0.7979 H   0  0  0  0  0  0  0  0  0  0  0  0
    3.4712    0.8577   -5.3700 H   0  0  0  0  0  0  0  0  0  0  0  0
    2.3025    1.7163   -5.4235 H   0  0  0  0  0  0  0  0  0  0  0  0
    5.8113    2.7390   -3.3903 H   0  0  0  0  0  0  0  0  0  0  0  0
  1  2  1  0
  2  3  1  0
  3  4  1  0
  4  5  1  0
  5  6  1  0
  6  7  2  0
  6  8  1  0
  8  9  1  0
  9 10  1  0
 10 11  1  0
 11 12  1  0
 12 13  1  0
 13 14  1  0
  1 15  1  0
 15 16  2  0
 15 17  1  0
 17 18  1  0
 18 19  1  0
 19 20  2  0
 20 21  1  0
 21 22  2  0
 22 23  1  0
 23 24  2  0
 22 25  1  0
 25 26  1  0
 25 27  2  3
  5  1  1  0
 14 10  1  0
 24 19  1  0
  1 28  1  1
  2 29  1  0
  2 30  1  0
  3 31  1  0
  3 32  1  0
  4 33  1  0
  4 34  1  0
  8 35  1  0
  8 36  1  0
  9 37  1  0
  9 38  1  0
 10 39  1  0
 11 40  1  0
 11 41  1  0
 12 42  1  0
 12 43  1  0
 13 44  1  0
 13 45  1  0
 14 46  1  0
 14 47  1  0
 17 48  1  0
 18 49  1  0
 18 50  1  0
 20 51  1  0
 21 52  1  0
 23 53  1  0
 24 54  1  0
 26 55  1  0
 26 56  1  0
 27 57  1  0
M  END
$$$$
