
     RDKit          3D

 57 60  0  0  0  0  0  0  0  0999 V2000
   -4.8506    1.1796    3.2207 C   0  0  0  0  0  0  0  0  0  0  0  0
   -5.7653    1.0572    2.1797 O   0  0  0  0  0  0  0  0  0  0  0  0
   -5.4479    0.6777    0.9267 C   0  0  0  0  0  0  0  0  0  0  0  0
   -4.1315    0.3618    0.5658 C   0  0  0  0  0  0  0  0  0  0  0  0
   -3.8313   -0.0217   -0.7146 C   0  0  0  0  0  0  0  0  0  0  0  0
   -2.5299   -0.3915   -1.0902 N   0  0  0  0  0  0  0  0  0  0  0  0
   -1.4897   -0.7931   -0.2277 C   0  0  0  0  0  0  0  0  0  0  0  0
   -1.6733   -0.8770    1.0888 N   0  0  0  0  0  0  0  0  0  0  0  0
   -0.7262   -1.2612    1.9336 C   0  0  0  0  0  0  0  0  0  0  0  0
    0.5167   -1.5900    1.3892 C   0  0  0  0  0  0  0  0  0  0  0  0
    1.5050   -1.9816    2.2482 F   0  0  0  0  0  0  0  0  0  0  0  0
    0.6962   -1.5021    0.0441 C   0  0  0  0  0  0  0  0  0  0  0  0
    1.9394   -1.8555   -0.5403 N   0  0  0  0  0  0  0  0  0  0  0  0
    3.0818   -1.0086   -0.5952 C   0  0  0  0  0  0  0  0  0  0  0  0
    3.2497   -0.0484   -1.5716 C   0  0  0  0  0  0  0  0  0  0  0  0
    4.3808    0.7429   -1.5920 C   0  0  0  0  0  0  0  0  0  0  0  0
    5.3908    0.6244   -0.6568 C   0  0  0  0  0  0  0  0  0  0  0  0
    5.1806   -0.3572    0.3096 C   0  0  0  0  0  0  0  0  0  0  0  0
    4.0817   -1.1182    0.3218 N   0  0  0  0  0  0  0  0  0  0  0  0
    6.2348   -0.4969    1.2819 N   0  0  0  0  0  0  0  0  0  0  0  0
    7.3934    0.3129    1.2405 C   0  0  0  0  0  0  0  0  0  0  0  0
    8.1318    0.4980    2.2339 O   0  0  0  0  0  0  0  0  0  0  0  0
    7.7385    0.9653   -0.0363 C   0  0  0  0  0  0  0  0  0  0  0  0
    8.3089   -0.0946   -0.9671 C   0  0  0  0  0  0  0  0  0  0  0  0
    8.6872    2.1313    0.1194 C   0  0  0  0  0  0  0  0  0  0  0  0
    6.5220    1.3900   -0.6452 O   0  0  0  0  0  0  0  0  0  0  0  0
   -0.2829   -1.1095   -0.7755 N   0  0  0  0  0  0  0  0  0  0  0  0
   -4.8380   -0.1020   -1.6884 C   0  0  0  0  0  0  0  0  0  0  0  0
   -6.1211    0.2075   -1.3333 C   0  0  0  0  0  0  0  0  0  0  0  0
   -7.1528    0.1473   -2.2484 O   0  0  0  0  0  0  0  0  0  0  0  0
   -6.9748   -0.2283   -3.5950 C   0  0  0  0  0  0  0  0  0  0  0  0
   -6.4199    0.5913   -0.0402 C   0  0  0  0  0  0  0  0  0  0  0  0
   -7.7355    0.9093    0.3417 O   0  0  0  0  0  0  0  0  0  0  0  0
   -8.5076   -0.1802    0.8384 C   0  0  0  0  0  0  0  0  0  0  0  0
   -5.2876    1.9640    3.9121 H   0  0  0  0  0  0  0  0  0  0  0  0
   -4.8178    0.1952    3.7703 H   0  0  0  0  0  0  0  0  0  0  0  0
   -3.8506    1.5293    2.9350 H   0  0  0  0  0  0  0  0  0  0  0  0
   -3.3746    0.4473    1.3192 H   0  0  0  0  0  0  0  0  0  0  0  0
   -2.3065   -0.3589   -2.1449 H   0  0  0  0  0  0  0  0  0  0  0  0
   -0.8335   -1.3383    2.9937 H   0  0  0  0  0  0  0  0  0  0  0  0
    2.0448   -2.8052   -0.9697 H   0  0  0  0  0  0  0  0  0  0  0  0
    2.4763    0.0662   -2.3169 H   0  0  0  0  0  0  0  0  0  0  0  0
    4.5334    1.5046   -2.3501 H   0  0  0  0  0  0  0  0  0  0  0  0
    6.1208   -1.2144    2.0215 H   0  0  0  0  0  0  0  0  0  0  0  0
    7.9790   -1.1126   -0.6626 H   0  0  0  0  0  0  0  0  0  0  0  0
    7.9717    0.0513   -2.0124 H   0  0  0  0  0  0  0  0  0  0  0  0
    9.4264   -0.1135   -0.8759 H   0  0  0  0  0  0  0  0  0  0  0  0
    9.4593    2.0172   -0.6899 H   0  0  0  0  0  0  0  0  0  0  0  0
    8.1754    3.0974    0.0679 H   0  0  0  0  0  0  0  0  0  0  0  0
    9.2436    2.0058    1.0728 H   0  0  0  0  0  0  0  0  0  0  0  0
   -4.5641   -0.4043   -2.6844 H   0  0  0  0  0  0  0  0  0  0  0  0
   -6.6107    0.6673   -4.1613 H   0  0  0  0  0  0  0  0  0  0  0  0
   -6.2151   -1.0160   -3.6925 H   0  0  0  0  0  0  0  0  0  0  0  0
   -7.9369   -0.5613   -4.0586 H   0  0  0  0  0  0  0  0  0  0  0  0
   -9.5122   -0.0790    0.4005 H   0  0  0  0  0  0  0  0  0  0  0  0
   -8.6145   -0.1630    1.9352 H   0  0  0  0  0  0  0  0  0  0  0  0
   -8.0677   -1.1579    0.5689 H   0  0  0  0  0  0  0  0  0  0  0  0
  1  2  1  0
  2  3  1  0
  3  4  2  0
  4  5  1  0
  5  6  1  0
  6  7  1  0
  7  8  2  0
  8  9  1  0
  9 10  2  0
 10 11  1  0
 10 12  1  0
 12 13  1  0
 13 14  1  0
 14 15  2  0
 15 16  1  0
 16 17  2  0
 17 18  1  0
 18 19  2  0
 18 20  1  0
 20 21  1  0
 21 22  2  0
 21 23  1  0
 23 24  1  0
 23 25  1  0
 23 26  1  0
 12 27  2  0
  5 28  2  0
 28 29  1  0
 29 30  1  0
 30 31  1  0
 29 32  2  0
 32 33  1  0
 33 34  1  0
 32  3  1  0
 27  7  1  0
 19 14  1  0
 26 17  1  0
  1 35  1  0
  1 36  1  0
  1 37  1  0
  4 38  1  0
  6 39  1  0
  9 40  1  0
 13 41  1  0
 15 42  1  0
 16 43  1  0
 20 44  1  0
 24 45  1  0
 24 46  1  0
 24 47  1  0
 25 48  1  0
 25 49  1  0
 25 50  1  0
 28 51  1  0
 31 52  1  0
 31 53  1  0
 31 54  1  0
 34 55  1  0
 34 56  1  0
 34 57  1  0
M  END
$$$$
