
     RDKit          3D

 61 65  0  0  0  0  0  0  0  0999 V2000
    7.0847    4.5883   -3.9536 N   0  0  0  0  0  0  0  0  0  0  0  0
    7.0993    3.5935   -3.2776 C   0  0  0  0  0  0  0  0  0  0  0  0
    7.1156    2.3995   -2.4842 C   0  0  0  0  0  0  0  0  0  0  0  0
    8.0489    2.1810   -1.5307 C   0  0  0  0  0  0  0  0  0  0  0  0
    8.1226    0.9539   -0.8719 C   0  0  0  0  0  0  0  0  0  0  0  0
    7.2369    0.0093   -1.2106 C   0  0  0  0  0  0  0  0  0  0  0  0
    6.2613    0.1945   -2.1827 C   0  0  0  0  0  0  0  0  0  0  0  0
    6.1742    1.3860   -2.8361 C   0  0  0  0  0  0  0  0  0  0  0  0
    4.9087    1.8599   -3.9172 S   0  0  0  0  0  6  0  0  0  0  0  0
    4.0614    2.9039   -3.2005 O   0  0  0  0  0  0  0  0  0  0  0  0
    5.5227    2.5595   -5.1020 O   0  0  0  0  0  0  0  0  0  0  0  0
    3.9443    0.5358   -4.3932 N   0  0  0  0  0  0  0  0  0  0  0  0
    3.2064   -0.2613   -3.5031 C   0  0  0  0  0  0  0  0  0  0  0  0
    3.0436   -1.5896   -3.8134 C   0  0  0  0  0  0  0  0  0  0  0  0
    2.3021   -2.4113   -2.9978 C   0  0  0  0  0  0  0  0  0  0  0  0
    1.7310   -1.9018   -1.8781 C   0  0  0  0  0  0  0  0  0  0  0  0
    1.8621   -0.5491   -1.5024 C   0  0  0  0  0  0  0  0  0  0  0  0
    1.2439    0.0148   -0.3122 C   0  0  0  0  0  0  0  0  0  0  0  0
    1.2012    0.9841    0.3779 N   0  0  0  0  0  0  0  0  0  0  0  0
    0.5129    1.1922    1.4784 C   0  0  0  0  0  0  0  0  0  0  0  0
   -0.2675    0.1678    1.9061 C   0  0  0  0  0  0  0  0  0  0  0  0
   -1.1993   -0.0720    3.0348 C   0  0  1  0  0  0  0  0  0  0  0  0
   -2.1306    0.9298    3.5191 C   0  0  0  0  0  0  0  0  0  0  0  0
   -2.6939   -0.0346    2.5844 C   0  0  2  0  0  0  0  0  0  0  0  0
   -3.3553   -1.2445    2.8775 N   0  0  0  0  0  0  0  0  0  0  0  0
   -4.7314   -1.3720    2.5524 C   0  0  0  0  0  0  0  0  0  0  0  0
   -5.5611   -0.5203    3.4882 C   0  0  0  0  0  0  0  0  0  0  0  0
   -7.0242   -0.5626    3.1087 C   0  0  0  0  0  0  0  0  0  0  0  0
   -7.2721   -0.2348    1.6674 C   0  0  0  0  0  0  0  0  0  0  0  0
   -6.8041    1.1062    1.3881 N   0  0  0  0  0  0  0  0  0  0  0  0
   -6.4770   -1.1753    0.7961 C   0  0  0  0  0  0  0  0  0  0  0  0
   -5.0052   -0.9918    1.1061 C   0  0  0  0  0  0  0  0  0  0  0  0
    0.0677   -1.0771    0.6348 S   0  0  0  0  0  0  0  0  0  0  0  0
    2.6042    0.2232   -2.3442 C   0  0  0  0  0  0  0  0  0  0  0  0
    8.7681    2.9574   -1.2657 H   0  0  0  0  0  0  0  0  0  0  0  0
    8.8889    0.8725   -0.0962 H   0  0  0  0  0  0  0  0  0  0  0  0
    7.2884   -0.9621   -0.7160 H   0  0  0  0  0  0  0  0  0  0  0  0
    5.5510   -0.6040   -2.4310 H   0  0  0  0  0  0  0  0  0  0  0  0
    3.9071    0.3400   -5.4295 H   0  0  0  0  0  0  0  0  0  0  0  0
    3.4930   -2.0130   -4.7242 H   0  0  0  0  0  0  0  0  0  0  0  0
    2.1784   -3.4756   -3.2579 H   0  0  0  0  0  0  0  0  0  0  0  0
    1.1363   -2.5117   -1.1917 H   0  0  0  0  0  0  0  0  0  0  0  0
    0.5485    2.1359    2.0537 H   0  0  0  0  0  0  0  0  0  0  0  0
   -0.9337   -0.9468    3.6907 H   0  0  0  0  0  0  0  0  0  0  0  0
   -2.3748    0.9393    4.6015 H   0  0  0  0  0  0  0  0  0  0  0  0
   -1.9656    1.9850    3.1672 H   0  0  0  0  0  0  0  0  0  0  0  0
   -2.8658    0.3410    1.5419 H   0  0  0  0  0  0  0  0  0  0  0  0
   -2.8088   -2.0908    3.0233 H   0  0  0  0  0  0  0  0  0  0  0  0
   -5.0541   -2.4279    2.6452 H   0  0  0  0  0  0  0  0  0  0  0  0
   -5.4912   -0.9934    4.5054 H   0  0  0  0  0  0  0  0  0  0  0  0
   -5.2451    0.5117    3.5837 H   0  0  0  0  0  0  0  0  0  0  0  0
   -7.4288   -1.5651    3.3783 H   0  0  0  0  0  0  0  0  0  0  0  0
   -7.5660    0.1489    3.7663 H   0  0  0  0  0  0  0  0  0  0  0  0
   -8.3645   -0.3285    1.4785 H   0  0  0  0  0  0  0  0  0  0  0  0
   -6.4488    1.2140    0.4001 H   0  0  0  0  0  0  0  0  0  0  0  0
   -6.1775    1.5131    2.0739 H   0  0  0  0  0  0  0  0  0  0  0  0
   -6.6675   -0.9702   -0.2913 H   0  0  0  0  0  0  0  0  0  0  0  0
   -6.7161   -2.2212    1.0262 H   0  0  0  0  0  0  0  0  0  0  0  0
   -4.7686    0.0584    0.8730 H   0  0  0  0  0  0  0  0  0  0  0  0
   -4.4441   -1.7168    0.4721 H   0  0  0  0  0  0  0  0  0  0  0  0
    2.7274    1.2604   -2.0859 H   0  0  0  0  0  0  0  0  0  0  0  0
  1  2  3  0
  2  3  1  0
  3  4  2  0
  4  5  1  0
  5  6  2  0
  6  7  1  0
  7  8  2  0
  8  9  1  0
  9 10  2  0
  9 11  2  0
  9 12  1  0
 12 13  1  0
 13 14  2  0
 14 15  1  0
 15 16  2  0
 16 17  1  0
 17 18  1  0
 18 19  2  0
 19 20  1  0
 20 21  2  0
 21 22  1  0
 22 23  1  0
 23 24  1  0
 24 25  1  0
 25 26  1  0
 26 27  1  0
 27 28  1  0
 28 29  1  0
 29 30  1  0
 29 31  1  0
 31 32  1  0
 21 33  1  0
 17 34  2  0
  8  3  1  0
 34 13  1  0
 33 18  1  0
 24 22  1  0
 32 26  1  0
  4 35  1  0
  5 36  1  0
  6 37  1  0
  7 38  1  0
 12 39  1  0
 14 40  1  0
 15 41  1  0
 16 42  1  0
 20 43  1  0
 22 44  1  1
 23 45  1  0
 23 46  1  0
 24 47  1  6
 25 48  1  0
 26 49  1  0
 27 50  1  0
 27 51  1  0
 28 52  1  0
 28 53  1  0
 29 54  1  0
 30 55  1  0
 30 56  1  0
 31 57  1  0
 31 58  1  0
 32 59  1  0
 32 60  1  0
 34 61  1  0
M  END
$$$$
