
     RDKit          3D

 71 73  0  0  0  0  0  0  0  0999 V2000
    8.0513    0.6253   -0.5828 N   0  0  0  0  0  0  0  0  0  0  0  0
    8.3146   -0.2446   -1.4547 C   0  0  0  0  0  0  0  0  0  0  0  0
    9.6125   -0.8358   -1.3846 N   0  0  0  0  0  0  0  0  0  0  0  0
    7.4459   -0.7014   -2.4925 N   0  0  0  0  0  0  0  0  0  0  0  0
    6.0296   -0.3948   -2.3920 C   0  0  0  0  0  0  0  0  0  0  0  0
    5.4275   -1.1303   -1.2023 C   0  0  0  0  0  0  0  0  0  0  0  0
    3.9628   -0.8523   -1.0598 C   0  0  0  0  0  0  0  0  0  0  0  0
    3.4502   -1.5693    0.1859 C   0  0  2  0  0  0  0  0  0  0  0  0
    2.0173   -1.2996    0.3116 N   0  0  0  0  0  0  0  0  0  0  0  0
    1.2267   -2.3205    0.9515 C   0  0  0  0  0  0  0  0  0  0  0  0
    1.9251   -3.2933    1.3861 O   0  0  0  0  0  0  0  0  0  0  0  0
   -0.2205   -2.2769    1.1021 C   0  0  0  0  0  0  0  0  0  0  0  0
   -0.8648   -1.1792    0.3857 N   0  0  0  0  0  0  0  0  0  0  0  0
   -1.1277    0.0740    0.9986 C   0  0  0  0  0  0  0  0  0  0  0  0
   -1.9469    0.9447    0.0617 C   0  0  0  0  0  0  0  0  0  0  0  0
   -2.9435    0.1590   -0.6392 N   0  0  0  0  0  0  0  0  0  0  0  0
   -4.4430    0.2498    0.0206 S   0  0  0  0  0  6  0  0  0  0  0  0
   -4.3347   -0.0854    1.5171 O   0  0  0  0  0  0  0  0  0  0  0  0
   -5.5023   -0.6531   -0.4825 O   0  0  0  0  0  0  0  0  0  0  0  0
   -5.0365    1.9195   -0.0633 C   0  0  0  0  0  0  0  0  0  0  0  0
   -6.3883    2.1148    0.5259 C   0  0  0  0  0  0  0  0  0  0  0  0
   -6.5430    2.5375    1.8735 C   0  0  0  0  0  0  0  0  0  0  0  0
   -7.8276    2.7198    2.3287 C   0  0  0  0  0  0  0  0  0  0  0  0
   -8.9306    2.5048    1.5252 C   0  0  0  0  0  0  0  0  0  0  0  0
   -8.7737    2.0921    0.2170 C   0  0  0  0  0  0  0  0  0  0  0  0
   -7.4924    1.9045   -0.2594 C   0  0  0  0  0  0  0  0  0  0  0  0
   -2.4656   -0.7703   -1.5180 C   0  0  2  0  0  0  0  0  0  0  0  0
   -3.3070   -1.8612   -2.0761 C   0  0  0  0  0  0  0  0  0  0  0  0
   -4.4647   -1.4453   -2.8893 C   0  0  0  0  0  0  0  0  0  0  0  0
   -5.3705   -2.2561   -3.2082 O   0  0  0  0  0  0  0  0  0  0  0  0
   -4.6565   -0.1553   -3.3673 O   0  0  0  0  0  0  0  0  0  0  0  0
   -1.2541   -1.4074   -0.9715 C   0  0  0  0  0  0  0  0  0  0  0  0
   -0.5693   -2.1552   -1.7161 O   0  0  0  0  0  0  0  0  0  0  0  0
    4.1753   -1.1099    1.3556 C   0  0  0  0  0  0  0  0  0  0  0  0
    5.1594   -1.8480    1.7530 O   0  0  0  0  0  0  0  0  0  0  0  0
    3.9151    0.0977    2.1203 C   0  0  0  0  0  0  0  0  0  0  0  0
    3.2835    1.1016    2.1068 N   0  0  0  0  0  0  0  0  0  0  0  0
    3.2982    2.1290    2.9245 C   0  0  0  0  0  0  0  0  0  0  0  0
    4.2093    2.0026    3.9709 C   0  0  0  0  0  0  0  0  0  0  0  0
    4.9519    0.4047    3.6638 S   0  0  0  0  0  0  0  0  0  0  0  0
    7.2986    1.2212   -0.3246 H   0  0  0  0  0  0  0  0  0  0  0  0
    9.6826   -1.8594   -1.4854 H   0  0  0  0  0  0  0  0  0  0  0  0
   10.4736   -0.2769   -1.2345 H   0  0  0  0  0  0  0  0  0  0  0  0
    7.8485   -1.2271   -3.2809 H   0  0  0  0  0  0  0  0  0  0  0  0
    5.8126    0.6764   -2.2651 H   0  0  0  0  0  0  0  0  0  0  0  0
    5.5117   -0.7549   -3.2925 H   0  0  0  0  0  0  0  0  0  0  0  0
    5.9513   -0.7256   -0.2977 H   0  0  0  0  0  0  0  0  0  0  0  0
    5.6168   -2.2011   -1.2627 H   0  0  0  0  0  0  0  0  0  0  0  0
    3.4384   -1.1724   -1.9714 H   0  0  0  0  0  0  0  0  0  0  0  0
    3.7503    0.2493   -0.9712 H   0  0  0  0  0  0  0  0  0  0  0  0
    3.5630   -2.6443    0.0640 H   0  0  0  0  0  0  0  0  0  0  0  0
    1.6083   -0.4489   -0.0253 H   0  0  0  0  0  0  0  0  0  0  0  0
   -0.5218   -2.2207    2.1795 H   0  0  0  0  0  0  0  0  0  0  0  0
   -0.6466   -3.2713    0.7785 H   0  0  0  0  0  0  0  0  0  0  0  0
   -1.6760   -0.0336    1.9770 H   0  0  0  0  0  0  0  0  0  0  0  0
   -0.1479    0.5882    1.1964 H   0  0  0  0  0  0  0  0  0  0  0  0
   -1.2673    1.4550   -0.6190 H   0  0  0  0  0  0  0  0  0  0  0  0
   -2.4512    1.7128    0.6876 H   0  0  0  0  0  0  0  0  0  0  0  0
   -4.3181    2.6398    0.3625 H   0  0  0  0  0  0  0  0  0  0  0  0
   -5.1457    2.2270   -1.1595 H   0  0  0  0  0  0  0  0  0  0  0  0
   -5.6867    2.7016    2.4862 H   0  0  0  0  0  0  0  0  0  0  0  0
   -7.9653    3.0445    3.3652 H   0  0  0  0  0  0  0  0  0  0  0  0
   -9.9432    2.6554    1.8939 H   0  0  0  0  0  0  0  0  0  0  0  0
   -9.6207    1.9096   -0.4444 H   0  0  0  0  0  0  0  0  0  0  0  0
   -7.3454    1.5898   -1.2811 H   0  0  0  0  0  0  0  0  0  0  0  0
   -2.0827   -0.2109   -2.4486 H   0  0  0  0  0  0  0  0  0  0  0  0
   -3.5855   -2.6320   -1.3083 H   0  0  0  0  0  0  0  0  0  0  0  0
   -2.6292   -2.4423   -2.7818 H   0  0  0  0  0  0  0  0  0  0  0  0
   -4.6363   -0.0296   -4.3929 H   0  0  0  0  0  0  0  0  0  0  0  0
    2.6624    3.0379    2.8041 H   0  0  0  0  0  0  0  0  0  0  0  0
    4.4584    2.7065    4.8276 H   0  0  0  0  0  0  0  0  0  0  0  0
  1  2  2  3
  2  3  1  0
  2  4  1  0
  4  5  1  0
  5  6  1  0
  6  7  1  0
  7  8  1  0
  8  9  1  0
  9 10  1  0
 10 11  2  0
 10 12  1  0
 12 13  1  0
 13 14  1  0
 14 15  1  0
 15 16  1  0
 16 17  1  0
 17 18  2  0
 17 19  2  0
 17 20  1  0
 20 21  1  0
 21 22  2  0
 22 23  1  0
 23 24  2  0
 24 25  1  0
 25 26  2  0
 16 27  1  0
 27 28  1  0
 28 29  1  0
 29 30  2  0
 29 31  1  0
 27 32  1  0
 32 33  2  0
  8 34  1  0
 34 35  2  0
 34 36  1  0
 36 37  2  0
 37 38  1  0
 38 39  2  0
 39 40  1  0
 32 13  1  0
 40 36  1  0
 26 21  1  0
  1 41  1  0
  3 42  1  0
  3 43  1  0
  4 44  1  0
  5 45  1  0
  5 46  1  0
  6 47  1  0
  6 48  1  0
  7 49  1  0
  7 50  1  0
  8 51  1  6
  9 52  1  0
 12 53  1  0
 12 54  1  0
 14 55  1  0
 14 56  1  0
 15 57  1  0
 15 58  1  0
 20 59  1  0
 20 60  1  0
 22 61  1  0
 23 62  1  0
 24 63  1  0
 25 64  1  0
 26 65  1  0
 27 66  1  6
 28 67  1  0
 28 68  1  0
 31 69  1  0
 38 70  1  0
 39 71  1  0
M  END
$$$$
