
     RDKit          3D

 11 10  0  0  0  0  0  0  0  0999 V2000
   -2.0106    0.2718    0.0224 N   0  0  0  0  0  0  0  0  0  0  0  0
   -0.7234    0.5510   -0.1123 O   0  0  0  0  0  0  0  0  0  0  0  0
   -0.0390   -0.4572    0.5839 C   0  0  0  0  0  0  0  0  0  0  0  0
    1.4147   -0.2079    0.4742 C   0  0  0  0  0  0  0  0  0  0  0  0
    1.9652    0.8699   -0.2209 O   0  0  0  0  0  0  0  0  0  0  0  0
    2.2559   -0.9899    1.0264 O   0  0  0  0  0  0  0  0  0  0  0  0
   -2.3776   -0.5001   -0.5393 H   0  0  0  0  0  0  0  0  0  0  0  0
   -2.6394    0.9678    0.4017 H   0  0  0  0  0  0  0  0  0  0  0  0
   -0.3530   -0.3089    1.6513 H   0  0  0  0  0  0  0  0  0  0  0  0
   -0.2950   -1.4759    0.2255 H   0  0  0  0  0  0  0  0  0  0  0  0
    2.8022    1.2794    0.1968 H   0  0  0  0  0  0  0  0  0  0  0  0
  1  2  1  0
  2  3  1  0
  3  4  1  0
  4  5  1  0
  4  6  2  0
  1  7  1  0
  1  8  1  0
  3  9  1  0
  3 10  1  0
  5 11  1  0
M  END
$$$$
