
     RDKit          3D

 36 38  0  0  0  0  0  0  0  0999 V2000
   -4.8686    1.0628   -1.2264 C   0  0  0  0  0  0  0  0  0  0  0  0
   -4.0417    0.2852   -0.2421 C   0  0  0  0  0  0  0  0  0  0  0  0
   -4.6865   -0.4269    0.7470 C   0  0  0  0  0  0  0  0  0  0  0  0
   -3.9051   -1.1314    1.6368 C   0  0  0  0  0  0  0  0  0  0  0  0
   -4.4218   -1.8137    2.5783 O   0  0  0  0  0  0  0  0  0  0  0  0
   -2.6113   -1.1258    1.5482 O   0  0  0  0  0  0  0  0  0  0  0  0
   -1.9569   -0.4541    0.6123 C   0  0  0  0  0  0  0  0  0  0  0  0
   -0.5515   -0.4805    0.5594 C   0  0  0  0  0  0  0  0  0  0  0  0
    0.1608   -1.2681    1.5643 C   0  0  0  0  0  0  0  0  0  0  0  0
    0.1435    0.2040   -0.3961 C   0  0  0  0  0  0  0  0  0  0  0  0
    1.4531    0.2304   -0.5133 O   0  0  0  0  0  0  0  0  0  0  0  0
    2.6140   -0.2017   -0.0104 C   0  0  0  0  0  0  0  0  0  0  0  0
    3.4478    1.0242    0.4315 C   0  0  0  0  0  0  0  0  0  0  0  0
    4.8742    0.5842    0.3402 C   0  0  0  0  0  0  0  0  0  0  0  0
    4.9268   -0.5959   -0.6014 C   0  0  0  0  0  0  0  0  0  0  0  0
    3.5466   -0.7101   -1.0889 C   0  0  0  0  0  0  0  0  0  0  0  0
    3.2001   -1.1355   -2.1648 O   0  0  0  0  0  0  0  0  0  0  0  0
   -0.6218    0.9375   -1.3254 C   0  0  0  0  0  0  0  0  0  0  0  0
   -1.9963    0.9644   -1.2752 C   0  0  0  0  0  0  0  0  0  0  0  0
   -2.6777    0.2653   -0.3010 C   0  0  0  0  0  0  0  0  0  0  0  0
   -4.8642    0.5537   -2.2151 H   0  0  0  0  0  0  0  0  0  0  0  0
   -4.4693    2.1143   -1.3118 H   0  0  0  0  0  0  0  0  0  0  0  0
   -5.8943    1.1794   -0.8229 H   0  0  0  0  0  0  0  0  0  0  0  0
   -5.7733   -0.4488    0.8443 H   0  0  0  0  0  0  0  0  0  0  0  0
   -0.6161   -1.7433    2.2445 H   0  0  0  0  0  0  0  0  0  0  0  0
    0.7031   -2.1498    1.1635 H   0  0  0  0  0  0  0  0  0  0  0  0
    0.7722   -0.6762    2.2724 H   0  0  0  0  0  0  0  0  0  0  0  0
    2.6443   -0.8626    0.8683 H   0  0  0  0  0  0  0  0  0  0  0  0
    3.2732    1.8221   -0.3218 H   0  0  0  0  0  0  0  0  0  0  0  0
    3.1622    1.3301    1.4591 H   0  0  0  0  0  0  0  0  0  0  0  0
    5.5498    1.3725   -0.0599 H   0  0  0  0  0  0  0  0  0  0  0  0
    5.2886    0.2382    1.3092 H   0  0  0  0  0  0  0  0  0  0  0  0
    5.2235   -1.5382   -0.0776 H   0  0  0  0  0  0  0  0  0  0  0  0
    5.6728   -0.4352   -1.4021 H   0  0  0  0  0  0  0  0  0  0  0  0
   -0.1132    1.4935   -2.0981 H   0  0  0  0  0  0  0  0  0  0  0  0
   -2.5868    1.5360   -1.9998 H   0  0  0  0  0  0  0  0  0  0  0  0
  1  2  1  0
  2  3  2  0
  3  4  1  0
  4  5  2  0
  4  6  1  0
  6  7  1  0
  7  8  2  0
  8  9  1  0
  8 10  1  0
 10 11  1  0
 11 12  1  0
 12 13  1  0
 13 14  1  0
 14 15  1  0
 15 16  1  0
 16 17  2  0
 10 18  2  0
 18 19  1  0
 19 20  2  0
 20  2  1  0
 20  7  1  0
 16 12  1  0
  1 21  1  0
  1 22  1  0
  1 23  1  0
  3 24  1  0
  9 25  1  0
  9 26  1  0
  9 27  1  0
 12 28  1  0
 13 29  1  0
 13 30  1  0
 14 31  1  0
 14 32  1  0
 15 33  1  0
 15 34  1  0
 18 35  1  0
 19 36  1  0
M  END
$$$$
