
     RDKit          3D

 68 72  0  0  0  0  0  0  0  0999 V2000
    5.9587   -3.9878    1.6576 C   0  0  0  0  0  0  0  0  0  0  0  0
    5.0354   -2.9966    1.2091 O   0  0  0  0  0  0  0  0  0  0  0  0
    5.5158   -2.0163    0.3523 C   0  0  0  0  0  0  0  0  0  0  0  0
    6.8326   -1.9800   -0.0646 C   0  0  0  0  0  0  0  0  0  0  0  0
    7.2772   -0.9912   -0.9168 C   0  0  0  0  0  0  0  0  0  0  0  0
    6.4006   -0.0259   -1.3603 C   0  0  0  0  0  0  0  0  0  0  0  0
    5.0848   -0.0570   -0.9475 C   0  0  0  0  0  0  0  0  0  0  0  0
    4.6454   -1.0553   -0.0898 C   0  0  0  0  0  0  0  0  0  0  0  0
    3.2541   -1.1108    0.3633 C   0  0  0  0  0  0  0  0  0  0  0  0
    2.8716   -2.0397    1.1537 O   0  0  0  0  0  0  0  0  0  0  0  0
    2.3413   -0.0899   -0.1098 C   0  0  0  0  0  0  0  0  0  0  0  0
    1.0221   -0.1653    0.3368 C   0  0  0  0  0  0  0  0  0  0  0  0
    0.6088   -1.1704    1.1936 O   0  0  0  0  0  0  0  0  0  0  0  0
    0.1485    0.7835   -0.0951 C   0  0  0  0  0  0  0  0  0  0  0  0
    0.6019    1.7879   -0.9599 C   0  0  0  0  0  0  0  0  0  0  0  0
    1.8892    1.8583   -1.3937 C   0  0  0  0  0  0  0  0  0  0  0  0
    2.3143    2.8658   -2.2531 O   0  0  0  0  0  0  0  0  0  0  0  0
    2.7723    0.9037   -0.9614 C   0  0  0  0  0  0  0  0  0  0  0  0
    4.1421    0.9623   -1.4104 C   0  0  0  0  0  0  0  0  0  0  0  0
    4.5101    1.8842   -2.1912 O   0  0  0  0  0  0  0  0  0  0  0  0
   -0.4320    2.7790   -1.3508 C   0  0  0  0  0  0  0  0  0  0  0  0
   -1.1423    3.3498   -0.1399 C   0  0  1  0  0  0  0  0  0  0  0  0
   -0.2961    4.2221    0.5251 O   0  0  0  0  0  0  0  0  0  0  0  0
   -2.3743    4.0246   -0.6371 C   0  0  0  0  0  0  0  0  0  0  0  0
   -3.1764    3.3287   -1.2361 O   0  0  0  0  0  0  0  0  0  0  0  0
   -2.6275    5.4750   -0.4210 C   0  0  0  0  0  0  0  0  0  0  0  0
   -1.5800    6.0511    0.2814 O   0  0  0  0  0  0  0  0  0  0  0  0
   -1.5918    2.2701    0.8170 C   0  0  0  0  0  0  0  0  0  0  0  0
   -1.2786    0.8845    0.2533 C   0  0  2  0  0  0  0  0  0  0  0  0
   -1.6512   -0.0940    1.1190 O   0  0  0  0  0  0  0  0  0  0  0  0
   -2.7038   -0.8530    0.6055 C   0  0  1  0  0  0  0  0  0  0  0  0
   -2.3007   -2.2741    0.5182 C   0  0  0  0  0  0  0  0  0  0  0  0
   -3.4505   -3.2309    0.3197 C   0  0  2  0  0  0  0  0  0  0  0  0
   -3.8116   -3.3935   -1.0520 N   0  0  0  0  0  0  0  0  0  0  0  0
   -4.5820   -2.8064    1.2105 C   0  0  2  0  0  0  0  0  0  0  0  0
   -5.7276   -3.5800    1.0043 O   0  0  0  0  0  0  0  0  0  0  0  0
   -4.8944   -1.3420    1.1356 C   0  0  2  0  0  0  0  0  0  0  0  0
   -5.4454   -0.9212   -0.1947 C   0  0  0  0  0  0  0  0  0  0  0  0
   -3.7729   -0.6301    1.4778 O   0  0  0  0  0  0  0  0  0  0  0  0
    6.8792   -3.5505    2.0593 H   0  0  0  0  0  0  0  0  0  0  0  0
    5.5163   -4.6253    2.4491 H   0  0  0  0  0  0  0  0  0  0  0  0
    6.1683   -4.6794    0.8009 H   0  0  0  0  0  0  0  0  0  0  0  0
    7.5154   -2.7388    0.2859 H   0  0  0  0  0  0  0  0  0  0  0  0
    8.3277   -0.9712   -1.2430 H   0  0  0  0  0  0  0  0  0  0  0  0
    6.6979    0.7667   -2.0259 H   0  0  0  0  0  0  0  0  0  0  0  0
    0.5595   -2.1408    0.9121 H   0  0  0  0  0  0  0  0  0  0  0  0
    2.7677    3.6651   -1.8405 H   0  0  0  0  0  0  0  0  0  0  0  0
   -1.1868    2.3816   -2.0281 H   0  0  0  0  0  0  0  0  0  0  0  0
    0.0989    3.6249   -1.8357 H   0  0  0  0  0  0  0  0  0  0  0  0
   -0.3979    4.1895    1.5112 H   0  0  0  0  0  0  0  0  0  0  0  0
   -2.6631    5.9489   -1.4223 H   0  0  0  0  0  0  0  0  0  0  0  0
   -3.5940    5.6525    0.0566 H   0  0  0  0  0  0  0  0  0  0  0  0
   -0.9094    6.4131   -0.3578 H   0  0  0  0  0  0  0  0  0  0  0  0
   -1.0578    2.3462    1.7815 H   0  0  0  0  0  0  0  0  0  0  0  0
   -2.6765    2.2870    1.0266 H   0  0  0  0  0  0  0  0  0  0  0  0
   -1.8895    0.7753   -0.6838 H   0  0  0  0  0  0  0  0  0  0  0  0
   -2.9645   -0.4602   -0.4036 H   0  0  0  0  0  0  0  0  0  0  0  0
   -1.7429   -2.5742    1.4294 H   0  0  0  0  0  0  0  0  0  0  0  0
   -1.6163   -2.3959   -0.3466 H   0  0  0  0  0  0  0  0  0  0  0  0
   -3.0975   -4.2276    0.6929 H   0  0  0  0  0  0  0  0  0  0  0  0
   -3.2685   -2.8293   -1.7246 H   0  0  0  0  0  0  0  0  0  0  0  0
   -4.8099   -3.4959   -1.2468 H   0  0  0  0  0  0  0  0  0  0  0  0
   -4.2620   -3.0170    2.2615 H   0  0  0  0  0  0  0  0  0  0  0  0
   -6.2782   -3.4724    1.8238 H   0  0  0  0  0  0  0  0  0  0  0  0
   -5.6721   -1.1303    1.8972 H   0  0  0  0  0  0  0  0  0  0  0  0
   -5.6350    0.1773   -0.1382 H   0  0  0  0  0  0  0  0  0  0  0  0
   -6.4066   -1.4356   -0.3955 H   0  0  0  0  0  0  0  0  0  0  0  0
   -4.7905   -1.1029   -1.0445 H   0  0  0  0  0  0  0  0  0  0  0  0
  1  2  1  0
  2  3  1  0
  3  4  2  0
  4  5  1  0
  5  6  2  0
  6  7  1  0
  7  8  2  0
  8  9  1  0
  9 10  2  0
  9 11  1  0
 11 12  2  0
 12 13  1  0
 12 14  1  0
 14 15  2  0
 15 16  1  0
 16 17  1  0
 16 18  2  0
 18 19  1  0
 19 20  2  0
 15 21  1  0
 21 22  1  0
 22 23  1  1
 22 24  1  0
 24 25  2  0
 24 26  1  0
 26 27  1  0
 22 28  1  0
 28 29  1  0
 29 30  1  0
 30 31  1  0
 31 32  1  0
 32 33  1  0
 33 34  1  0
 33 35  1  0
 35 36  1  0
 35 37  1  0
 37 38  1  0
 37 39  1  0
  8  3  1  0
 18 11  1  0
 39 31  1  0
 19  7  1  0
 29 14  1  0
  1 40  1  0
  1 41  1  0
  1 42  1  0
  4 43  1  0
  5 44  1  0
  6 45  1  0
 13 46  1  0
 17 47  1  0
 21 48  1  0
 21 49  1  0
 23 50  1  0
 26 51  1  0
 26 52  1  0
 27 53  1  0
 28 54  1  0
 28 55  1  0
 29 56  1  6
 31 57  1  6
 32 58  1  0
 32 59  1  0
 33 60  1  1
 34 61  1  0
 34 62  1  0
 35 63  1  1
 36 64  1  0
 37 65  1  1
 38 66  1  0
 38 67  1  0
 38 68  1  0
M  END
$$$$
