
     RDKit          3D

 46 48  0  0  0  0  0  0  0  0999 V2000
   -1.5532   -1.3762    1.9686 O   0  0  0  0  0  0  0  0  0  0  0  0
   -1.6922   -0.8698    0.8271 C   0  0  0  0  0  0  0  0  0  0  0  0
   -1.6117   -1.7218   -0.2657 O   0  0  0  0  0  0  0  0  0  0  0  0
   -1.9338    0.5909    0.6669 C   0  0  2  0  0  0  0  0  0  0  0  0
   -3.2540    1.0126    1.3136 C   0  0  0  0  0  0  0  0  0  0  0  0
   -4.3310    0.2666    0.6527 C   0  0  0  0  0  0  0  0  0  0  0  0
   -4.9538    0.7917   -0.4773 C   0  0  0  0  0  0  0  0  0  0  0  0
   -5.9749    0.1071   -1.1195 C   0  0  0  0  0  0  0  0  0  0  0  0
   -6.3927   -1.1091   -0.6491 C   0  0  0  0  0  0  0  0  0  0  0  0
   -5.7870   -1.6400    0.4657 C   0  0  0  0  0  0  0  0  0  0  0  0
   -4.7552   -0.9570    1.1216 C   0  0  0  0  0  0  0  0  0  0  0  0
   -2.0537    0.9562   -0.7274 N   0  0  0  0  0  0  0  0  0  0  0  0
   -0.8639    2.1436   -1.0870 S   0  0  0  0  0  6  0  0  0  0  0  0
   -1.0159    2.5563   -2.5403 O   0  0  0  0  0  0  0  0  0  0  0  0
   -1.0527    3.3708   -0.2441 O   0  0  0  0  0  0  0  0  0  0  0  0
    0.7144    1.4347   -0.8101 C   0  0  0  0  0  0  0  0  0  0  0  0
    1.3247    0.6693   -1.8024 C   0  0  0  0  0  0  0  0  0  0  0  0
    2.5684    0.1094   -1.6128 C   0  0  0  0  0  0  0  0  0  0  0  0
    3.2765    0.2719   -0.4401 C   0  0  0  0  0  0  0  0  0  0  0  0
    4.5957   -0.3250   -0.2479 C   0  0  0  0  0  0  0  0  0  0  0  0
    5.3888   -0.4531   -1.3663 C   0  0  0  0  0  0  0  0  0  0  0  0
    6.6391   -0.9964   -1.3027 C   0  0  0  0  0  0  0  0  0  0  0  0
    7.1076   -1.4234   -0.0827 C   0  0  0  0  0  0  0  0  0  0  0  0
    8.8495   -2.1783   -0.0049 Br  0  0  0  0  0  0  0  0  0  0  0  0
    6.3085   -1.2945    1.0451 C   0  0  0  0  0  0  0  0  0  0  0  0
    5.0447   -0.7458    0.9830 C   0  0  0  0  0  0  0  0  0  0  0  0
    2.6708    1.0299    0.5409 C   0  0  0  0  0  0  0  0  0  0  0  0
    1.4202    1.5978    0.3608 C   0  0  0  0  0  0  0  0  0  0  0  0
   -1.6868   -2.7125   -0.1557 H   0  0  0  0  0  0  0  0  0  0  0  0
   -1.1311    1.1329    1.1966 H   0  0  0  0  0  0  0  0  0  0  0  0
   -3.3701    2.0913    1.0611 H   0  0  0  0  0  0  0  0  0  0  0  0
   -3.2417    0.8586    2.4079 H   0  0  0  0  0  0  0  0  0  0  0  0
   -4.6484    1.7559   -0.8799 H   0  0  0  0  0  0  0  0  0  0  0  0
   -6.4266    0.5724   -2.0050 H   0  0  0  0  0  0  0  0  0  0  0  0
   -7.1839   -1.6342   -1.1510 H   0  0  0  0  0  0  0  0  0  0  0  0
   -6.1189   -2.5856    0.8231 H   0  0  0  0  0  0  0  0  0  0  0  0
   -4.2953   -1.3982    1.9995 H   0  0  0  0  0  0  0  0  0  0  0  0
   -1.9310    0.1457   -1.3709 H   0  0  0  0  0  0  0  0  0  0  0  0
    0.7593    0.5505   -2.7142 H   0  0  0  0  0  0  0  0  0  0  0  0
    3.0204   -0.4820   -2.4021 H   0  0  0  0  0  0  0  0  0  0  0  0
    5.0415   -0.1205   -2.3556 H   0  0  0  0  0  0  0  0  0  0  0  0
    7.2412   -1.0811   -2.2181 H   0  0  0  0  0  0  0  0  0  0  0  0
    6.6769   -1.6337    2.0212 H   0  0  0  0  0  0  0  0  0  0  0  0
    4.3950   -0.6293    1.8369 H   0  0  0  0  0  0  0  0  0  0  0  0
    3.2378    1.1533    1.4655 H   0  0  0  0  0  0  0  0  0  0  0  0
    0.9785    2.1979    1.1645 H   0  0  0  0  0  0  0  0  0  0  0  0
  1  2  2  0
  2  3  1  0
  2  4  1  0
  4  5  1  0
  5  6  1  0
  6  7  2  0
  7  8  1  0
  8  9  2  0
  9 10  1  0
 10 11  2  0
  4 12  1  0
 12 13  1  0
 13 14  2  0
 13 15  2  0
 13 16  1  0
 16 17  2  0
 17 18  1  0
 18 19  2  0
 19 20  1  0
 20 21  2  0
 21 22  1  0
 22 23  2  0
 23 24  1  0
 23 25  1  0
 25 26  2  0
 19 27  1  0
 27 28  2  0
 11  6  1  0
 28 16  1  0
 26 20  1  0
  3 29  1  0
  4 30  1  1
  5 31  1  0
  5 32  1  0
  7 33  1  0
  8 34  1  0
  9 35  1  0
 10 36  1  0
 11 37  1  0
 12 38  1  0
 17 39  1  0
 18 40  1  0
 21 41  1  0
 22 42  1  0
 25 43  1  0
 26 44  1  0
 27 45  1  0
 28 46  1  0
M  END
$$$$
