
     RDKit          3D

 50 53  0  0  0  0  0  0  0  0999 V2000
    2.5318   -3.2323   -2.1814 C   0  0  0  0  0  0  0  0  0  0  0  0
    3.6862   -2.7086   -1.5793 O   0  0  0  0  0  0  0  0  0  0  0  0
    3.7414   -1.5875   -0.8031 C   0  0  0  0  0  0  0  0  0  0  0  0
    2.6396   -0.8137   -0.5094 C   0  0  0  0  0  0  0  0  0  0  0  0
    2.7084    0.3348    0.2884 C   0  0  0  0  0  0  0  0  0  0  0  0
    1.4856    1.1077    0.5559 C   0  0  0  0  0  0  0  0  0  0  0  0
    1.4835    2.2422    1.3291 C   0  0  0  0  0  0  0  0  0  0  0  0
    0.3332    2.9816    1.5892 C   0  0  0  0  0  0  0  0  0  0  0  0
    0.0136    4.0838    2.2729 N   0  0  0  0  0  0  0  0  0  0  0  0
   -1.3031    4.3196    2.1544 N   0  0  0  0  0  0  0  0  0  0  0  0
   -2.0156    5.4150    2.7501 C   0  0  0  0  0  0  0  0  0  0  0  0
   -1.8543    3.3598    1.3830 C   0  0  0  0  0  0  0  0  0  0  0  0
   -0.8390    2.5028    1.0139 C   0  0  0  0  0  0  0  0  0  0  0  0
   -0.8516    1.3658    0.2360 C   0  0  0  0  0  0  0  0  0  0  0  0
   -2.0634    0.9592   -0.2984 O   0  0  0  0  0  0  0  0  0  0  0  0
   -2.0955   -0.2058   -1.0996 C   0  0  2  0  0  0  0  0  0  0  0  0
   -2.5246    0.1585   -2.5030 C   0  0  0  0  0  0  0  0  0  0  0  0
   -2.9858   -1.2721   -0.5011 C   0  0  1  0  0  0  0  0  0  0  0  0
   -2.9942   -2.4877   -1.3768 C   0  0  0  0  0  0  0  0  0  0  0  0
   -3.1584   -3.6023   -0.4757 N   0  0  0  0  0  0  0  0  0  0  0  0
   -2.7933   -3.2370    0.8270 C   0  0  0  0  0  0  0  0  0  0  0  0
   -2.8045   -3.9797    1.8486 O   0  0  0  0  0  0  0  0  0  0  0  0
   -2.3872   -1.8018    0.7836 C   0  0  0  0  0  0  0  0  0  0  0  0
    0.2972    0.7018    0.0270 N   0  0  0  0  0  0  0  0  0  0  0  0
    3.9385    0.6821    0.7864 C   0  0  0  0  0  0  0  0  0  0  0  0
    5.0880   -0.0724    0.5159 C   0  0  0  0  0  0  0  0  0  0  0  0
    4.9495   -1.1917   -0.2767 C   0  0  0  0  0  0  0  0  0  0  0  0
    6.0746   -1.9643   -0.5647 O   0  0  0  0  0  0  0  0  0  0  0  0
    1.6786   -3.0143   -1.5078 H   0  0  0  0  0  0  0  0  0  0  0  0
    2.3579   -2.6912   -3.1361 H   0  0  0  0  0  0  0  0  0  0  0  0
    2.5864   -4.2962   -2.4061 H   0  0  0  0  0  0  0  0  0  0  0  0
    1.6695   -1.0707   -0.8907 H   0  0  0  0  0  0  0  0  0  0  0  0
    2.3949    2.6145    1.7763 H   0  0  0  0  0  0  0  0  0  0  0  0
   -1.3215    6.1808    3.1524 H   0  0  0  0  0  0  0  0  0  0  0  0
   -2.6997    5.8773    2.0110 H   0  0  0  0  0  0  0  0  0  0  0  0
   -2.5643    5.0136    3.6352 H   0  0  0  0  0  0  0  0  0  0  0  0
   -2.8740    3.2687    1.1044 H   0  0  0  0  0  0  0  0  0  0  0  0
   -1.0778   -0.6674   -1.1990 H   0  0  0  0  0  0  0  0  0  0  0  0
   -3.4154    0.8448   -2.4453 H   0  0  0  0  0  0  0  0  0  0  0  0
   -1.6682    0.6888   -2.9828 H   0  0  0  0  0  0  0  0  0  0  0  0
   -2.7453   -0.7492   -3.0821 H   0  0  0  0  0  0  0  0  0  0  0  0
   -4.0117   -0.9424   -0.3313 H   0  0  0  0  0  0  0  0  0  0  0  0
   -2.0360   -2.6312   -1.9234 H   0  0  0  0  0  0  0  0  0  0  0  0
   -3.8234   -2.5013   -2.0942 H   0  0  0  0  0  0  0  0  0  0  0  0
   -3.5009   -4.5383   -0.7694 H   0  0  0  0  0  0  0  0  0  0  0  0
   -2.7516   -1.2386    1.6615 H   0  0  0  0  0  0  0  0  0  0  0  0
   -1.2761   -1.7799    0.6983 H   0  0  0  0  0  0  0  0  0  0  0  0
    4.0410    1.5502    1.4001 H   0  0  0  0  0  0  0  0  0  0  0  0
    6.0562    0.2000    0.9072 H   0  0  0  0  0  0  0  0  0  0  0  0
    6.6806   -2.1757    0.2296 H   0  0  0  0  0  0  0  0  0  0  0  0
  1  2  1  0
  2  3  1  0
  3  4  2  0
  4  5  1  0
  5  6  1  0
  6  7  2  0
  7  8  1  0
  8  9  2  0
  9 10  1  0
 10 11  1  0
 10 12  1  0
 12 13  2  0
 13 14  1  0
 14 15  1  0
 15 16  1  0
 16 17  1  0
 16 18  1  0
 18 19  1  0
 19 20  1  0
 20 21  1  0
 21 22  2  0
 21 23  1  0
 14 24  2  0
  5 25  2  0
 25 26  1  0
 26 27  2  0
 27 28  1  0
 27  3  1  0
 24  6  1  0
 13  8  1  0
 23 18  1  0
  1 29  1  0
  1 30  1  0
  1 31  1  0
  4 32  1  0
  7 33  1  0
 11 34  1  0
 11 35  1  0
 11 36  1  0
 12 37  1  0
 16 38  1  6
 17 39  1  0
 17 40  1  0
 17 41  1  0
 18 42  1  1
 19 43  1  0
 19 44  1  0
 20 45  1  0
 23 46  1  0
 23 47  1  0
 25 48  1  0
 26 49  1  0
 28 50  1  0
M  END
$$$$
