
     RDKit          3D

 36 38  0  0  0  0  0  0  0  0999 V2000
    0.0618   -0.2537    2.7210 O   0  0  0  0  0  0  0  0  0  0  0  0
    0.0346   -0.0768    1.4779 C   0  0  0  0  0  0  0  0  0  0  0  0
   -1.2804    0.0452    0.8057 C   0  0  0  0  0  0  0  0  0  0  0  0
   -2.3680   -0.2913    1.4376 C   0  0  0  0  0  0  0  0  0  0  0  0
   -3.6841   -0.2079    0.8565 C   0  0  0  0  0  0  0  0  0  0  0  0
   -4.0883   -0.7456   -0.3335 C   0  0  0  0  0  0  0  0  0  0  0  0
   -5.3843   -0.5609   -0.7706 C   0  0  0  0  0  0  0  0  0  0  0  0
   -6.2578    0.1629   -0.0016 C   0  0  0  0  0  0  0  0  0  0  0  0
   -5.8533    0.7106    1.2074 C   0  0  0  0  0  0  0  0  0  0  0  0
   -4.5920    0.4987    1.5745 N   0  0  0  0  0  0  0  0  0  0  0  0
   -1.2474    0.5995   -0.5509 C   0  0  0  0  0  0  0  0  0  0  0  0
   -0.2476   -0.1464   -1.2924 N   0  0  0  0  0  0  0  0  0  0  0  0
    1.1003    0.1194   -0.8296 C   0  0  0  0  0  0  0  0  0  0  0  0
    1.2159    0.0170    0.6445 C   0  0  0  0  0  0  0  0  0  0  0  0
    2.3924   -0.0070    1.1992 C   0  0  0  0  0  0  0  0  0  0  0  0
    3.6704    0.0771    0.5159 C   0  0  0  0  0  0  0  0  0  0  0  0
    4.7525   -0.7159    0.9272 C   0  0  0  0  0  0  0  0  0  0  0  0
    5.9824   -0.6428    0.3070 C   0  0  0  0  0  0  0  0  0  0  0  0
    6.1326    0.2338   -0.7381 C   0  0  0  0  0  0  0  0  0  0  0  0
    5.0753    1.0254   -1.1592 C   0  0  0  0  0  0  0  0  0  0  0  0
    3.9056    0.9063   -0.5141 N   0  0  0  0  0  0  0  0  0  0  0  0
   -2.2526   -0.6616    2.4888 H   0  0  0  0  0  0  0  0  0  0  0  0
   -3.3917   -1.3361   -0.9282 H   0  0  0  0  0  0  0  0  0  0  0  0
   -5.6983   -0.9965   -1.7278 H   0  0  0  0  0  0  0  0  0  0  0  0
   -7.2921    0.3087   -0.3473 H   0  0  0  0  0  0  0  0  0  0  0  0
   -6.5604    1.2824    1.8077 H   0  0  0  0  0  0  0  0  0  0  0  0
   -0.8954    1.6700   -0.5542 H   0  0  0  0  0  0  0  0  0  0  0  0
   -2.1790    0.5816   -1.0946 H   0  0  0  0  0  0  0  0  0  0  0  0
   -0.4712   -1.1536   -1.3863 H   0  0  0  0  0  0  0  0  0  0  0  0
    1.5594    1.0188   -1.2658 H   0  0  0  0  0  0  0  0  0  0  0  0
    1.7066   -0.7458   -1.2438 H   0  0  0  0  0  0  0  0  0  0  0  0
    2.4288   -0.1012    2.2930 H   0  0  0  0  0  0  0  0  0  0  0  0
    4.5725   -1.3864    1.7546 H   0  0  0  0  0  0  0  0  0  0  0  0
    6.8269   -1.2428    0.6104 H   0  0  0  0  0  0  0  0  0  0  0  0
    7.0914    0.3023   -1.2302 H   0  0  0  0  0  0  0  0  0  0  0  0
    5.2346    1.7122   -1.9973 H   0  0  0  0  0  0  0  0  0  0  0  0
  1  2  2  0
  2  3  1  0
  3  4  2  0
  4  5  1  0
  5  6  2  0
  6  7  1  0
  7  8  2  0
  8  9  1  0
  9 10  2  0
  3 11  1  0
 11 12  1  0
 12 13  1  0
 13 14  1  0
 14 15  2  0
 15 16  1  0
 16 17  2  0
 17 18  1  0
 18 19  2  0
 19 20  1  0
 20 21  2  0
 14  2  1  0
 21 16  1  0
 10  5  1  0
  4 22  1  0
  6 23  1  0
  7 24  1  0
  8 25  1  0
  9 26  1  0
 11 27  1  0
 11 28  1  0
 12 29  1  0
 13 30  1  0
 13 31  1  0
 15 32  1  0
 17 33  1  0
 18 34  1  0
 19 35  1  0
 20 36  1  0
M  END
$$$$
