
     RDKit          3D

 55 57  0  0  0  0  0  0  0  0999 V2000
   -5.7556    3.5931    1.4334 C   0  0  0  0  0  0  0  0  0  0  0  0
   -4.7254    2.6246    0.8835 C   0  0  0  0  0  0  0  0  0  0  0  0
   -3.4156    2.7575    1.1630 C   0  0  0  0  0  0  0  0  0  0  0  0
   -2.4241    1.9901    0.6007 C   0  0  0  0  0  0  0  0  0  0  0  0
   -2.8276    0.9677   -0.3471 C   0  0  0  0  0  0  0  0  0  0  0  0
   -1.6070    0.2818   -0.9039 C   0  0  0  0  0  0  0  0  0  0  0  0
   -0.4553    1.0743   -1.1858 C   0  0  0  0  0  0  0  0  0  0  0  0
    0.7933    0.4595   -0.9181 C   0  0  0  0  0  0  0  0  0  0  0  0
    0.9510   -0.8122   -0.4536 C   0  0  0  0  0  0  0  0  0  0  0  0
    2.1355   -1.5668   -0.1168 O   0  0  0  0  0  0  0  0  0  0  0  0
    3.2132   -0.8444    0.0436 C   0  0  0  0  0  0  0  0  0  0  0  0
    4.4020   -0.1070    0.2266 C   0  0  0  0  0  0  0  0  0  0  0  0
    4.0812    1.3673    0.0709 N   0  0  0  0  0  0  0  0  0  0  0  0
    3.2539    1.6047    1.3340 C   0  0  0  0  0  0  0  0  0  0  0  0
    5.3257    2.0833    0.4128 C   0  0  0  0  0  0  0  0  0  0  0  0
    6.3361    1.8430   -0.6056 C   0  0  0  0  0  0  0  0  0  0  0  0
    7.5547    2.3091   -0.3291 O   0  0  0  0  0  0  0  0  0  0  0  0
    6.2827    1.2116   -1.8074 O   0  0  0  0  0  0  0  0  0  0  0  0
   -0.1992   -1.5268   -0.2544 C   0  0  0  0  0  0  0  0  0  0  0  0
   -0.2732   -2.8423    0.3899 C   0  0  0  0  0  0  0  0  0  0  0  0
   -0.6855   -2.8547    1.6197 O   0  0  0  0  0  0  0  0  0  0  0  0
    0.0971   -4.0739   -0.3521 C   0  0  0  0  0  0  0  0  0  0  0  0
   -0.7913   -5.2190   -0.3783 C   0  0  0  0  0  0  0  0  0  0  0  0
   -0.3824   -6.2466   -1.0502 C   0  0  0  0  0  0  0  0  0  0  0  0
    0.8171   -6.3366   -1.7216 C   0  0  0  0  0  0  0  0  0  0  0  0
    1.4836   -4.6051   -1.3355 S   0  0  0  0  0  0  0  0  0  0  0  0
   -1.4613   -0.9814   -0.4711 C   0  0  0  0  0  0  0  0  0  0  0  0
   -4.0840    0.8588   -0.5798 C   0  0  0  0  0  0  0  0  0  0  0  0
   -5.1407    1.5831   -0.0511 C   0  0  0  0  0  0  0  0  0  0  0  0
   -6.5531    1.4047   -0.2763 C   0  0  0  0  0  0  0  0  0  0  0  0
   -6.0185    3.3539    2.4503 H   0  0  0  0  0  0  0  0  0  0  0  0
   -6.5567    3.7308    0.6840 H   0  0  0  0  0  0  0  0  0  0  0  0
   -5.1673    4.5758    1.5370 H   0  0  0  0  0  0  0  0  0  0  0  0
   -3.1355    3.4536    1.9632 H   0  0  0  0  0  0  0  0  0  0  0  0
   -1.3540    2.0220    0.9043 H   0  0  0  0  0  0  0  0  0  0  0  0
   -0.5407    2.0127   -1.6363 H   0  0  0  0  0  0  0  0  0  0  0  0
    1.6704    1.0343   -1.4048 H   0  0  0  0  0  0  0  0  0  0  0  0
    3.5069   -1.5747    1.2557 H   0  0  0  0  0  0  0  0  0  0  0  0
    3.9443   -1.9603   -0.4269 H   0  0  0  0  0  0  0  0  0  0  0  0
    4.9522   -0.1747    1.1697 H   0  0  0  0  0  0  0  0  0  0  0  0
    5.1125   -0.2599   -0.6732 H   0  0  0  0  0  0  0  0  0  0  0  0
    2.1674    1.4959    1.0866 H   0  0  0  0  0  0  0  0  0  0  0  0
    3.4297    2.6966    1.6205 H   0  0  0  0  0  0  0  0  0  0  0  0
    3.5475    0.9267    2.0999 H   0  0  0  0  0  0  0  0  0  0  0  0
    4.9780    3.1982    0.5288 H   0  0  0  0  0  0  0  0  0  0  0  0
    5.6232    1.7339    1.3973 H   0  0  0  0  0  0  0  0  0  0  0  0
    6.9812    0.5118   -1.9704 H   0  0  0  0  0  0  0  0  0  0  0  0
   -1.7027   -5.0773    0.2662 H   0  0  0  0  0  0  0  0  0  0  0  0
   -1.0460   -7.1445   -1.2500 H   0  0  0  0  0  0  0  0  0  0  0  0
    1.3241   -7.0345   -2.1558 H   0  0  0  0  0  0  0  0  0  0  0  0
   -2.3182   -1.5230   -0.1399 H   0  0  0  0  0  0  0  0  0  0  0  0
   -4.3949    0.0989   -1.3350 H   0  0  0  0  0  0  0  0  0  0  0  0
   -6.7772    0.4238   -0.8397 H   0  0  0  0  0  0  0  0  0  0  0  0
   -7.0396    2.2104   -0.8469 H   0  0  0  0  0  0  0  0  0  0  0  0
   -7.1319    1.2725    0.6749 H   0  0  0  0  0  0  0  0  0  0  0  0
  1  2  1  0
  2  3  2  0
  3  4  1  0
  4  5  2  0
  5  6  1  0
  6  7  2  0
  7  8  1  0
  8  9  2  0
  9 10  1  0
 10 11  1  0
 11 12  1  0
 12 13  1  0
 13 14  1  0
 13 15  1  0
 15 16  1  0
 16 17  2  0
 16 18  1  0
  9 19  1  0
 19 20  1  0
 20 21  2  0
 20 22  1  0
 22 23  2  0
 23 24  1  0
 24 25  2  0
 25 26  1  0
 19 27  2  0
  5 28  1  0
 28 29  2  0
 29 30  1  0
 29  2  1  0
 27  6  1  0
 26 22  1  0
  1 31  1  0
  1 32  1  0
  1 33  1  0
  3 34  1  0
  4 35  1  0
  7 36  1  0
  8 37  1  0
 11 38  1  0
 11 39  1  0
 12 40  1  0
 12 41  1  0
 14 42  1  0
 14 43  1  0
 14 44  1  0
 15 45  1  0
 15 46  1  0
 18 47  1  0
 23 48  1  0
 24 49  1  0
 25 50  1  0
 27 51  1  0
 28 52  1  0
 30 53  1  0
 30 54  1  0
 30 55  1  0
M  END
$$$$
