
     RDKit          3D

 36 38  0  0  0  0  0  0  0  0999 V2000
   -1.3129   -2.6853    1.0972 C   0  0  0  0  0  0  0  0  0  0  0  0
   -2.0349   -1.4550    0.6179 C   0  0  0  0  0  0  0  0  0  0  0  0
   -3.0993   -0.9477    1.2222 N   0  0  0  0  0  0  0  0  0  0  0  0
   -3.5188    0.1482    0.5602 C   0  0  0  0  0  0  0  0  0  0  0  0
   -4.5580    0.9898    0.7865 C   0  0  0  0  0  0  0  0  0  0  0  0
   -4.7857    2.0440   -0.0543 C   0  0  0  0  0  0  0  0  0  0  0  0
   -3.9204    2.2107   -1.1312 C   0  0  0  0  0  0  0  0  0  0  0  0
   -2.8674    1.3446   -1.3462 C   0  0  0  0  0  0  0  0  0  0  0  0
   -2.6265    0.2784   -0.5046 C   0  0  0  0  0  0  0  0  0  0  0  0
   -1.7266   -0.7055   -0.4564 N   0  0  0  0  0  0  0  0  0  0  0  0
   -0.6152   -0.9554   -1.3040 C   0  0  0  0  0  0  0  0  0  0  0  0
    0.6860   -0.4340   -0.8468 C   0  0  0  0  0  0  0  0  0  0  0  0
    1.5879   -1.3378   -0.2857 C   0  0  0  0  0  0  0  0  0  0  0  0
    2.8300   -0.9402    0.1754 C   0  0  0  0  0  0  0  0  0  0  0  0
    3.2344    0.3755    0.1005 C   0  0  0  0  0  0  0  0  0  0  0  0
    4.5514    0.8237    0.5837 C   0  0  0  0  0  0  0  0  0  0  0  0
    4.8355    2.0404    0.4779 O   0  0  0  0  0  0  0  0  0  0  0  0
    5.5159   -0.0264    1.1585 N   0  0  0  0  0  0  0  0  0  0  0  0
    6.7279    0.4466    1.5917 O   0  0  0  0  0  0  0  0  0  0  0  0
    2.3500    1.2768   -0.4528 C   0  0  0  0  0  0  0  0  0  0  0  0
    1.0927    0.8607   -0.9171 C   0  0  0  0  0  0  0  0  0  0  0  0
    0.2759    1.7932   -1.4533 F   0  0  0  0  0  0  0  0  0  0  0  0
   -0.8982   -3.2523    0.2413 H   0  0  0  0  0  0  0  0  0  0  0  0
   -2.0267   -3.3788    1.6051 H   0  0  0  0  0  0  0  0  0  0  0  0
   -0.5254   -2.3743    1.8160 H   0  0  0  0  0  0  0  0  0  0  0  0
   -5.2229    0.8491    1.6263 H   0  0  0  0  0  0  0  0  0  0  0  0
   -5.6113    2.7302    0.1077 H   0  0  0  0  0  0  0  0  0  0  0  0
   -4.0697    3.0359   -1.8205 H   0  0  0  0  0  0  0  0  0  0  0  0
   -2.2127    1.4817   -2.1966 H   0  0  0  0  0  0  0  0  0  0  0  0
   -0.8331   -0.5878   -2.3552 H   0  0  0  0  0  0  0  0  0  0  0  0
   -0.5495   -2.0772   -1.4642 H   0  0  0  0  0  0  0  0  0  0  0  0
    1.2877   -2.3649   -0.2204 H   0  0  0  0  0  0  0  0  0  0  0  0
    3.5247   -1.6603    0.6126 H   0  0  0  0  0  0  0  0  0  0  0  0
    5.3215   -1.0435    1.2655 H   0  0  0  0  0  0  0  0  0  0  0  0
    6.5427    1.1760    2.2550 H   0  0  0  0  0  0  0  0  0  0  0  0
    2.6507    2.3210   -0.5209 H   0  0  0  0  0  0  0  0  0  0  0  0
  1  2  1  0
  2  3  2  0
  3  4  1  0
  4  5  2  0
  5  6  1  0
  6  7  2  0
  7  8  1  0
  8  9  2  0
  9 10  1  0
 10 11  1  0
 11 12  1  0
 12 13  2  0
 13 14  1  0
 14 15  2  0
 15 16  1  0
 16 17  2  0
 16 18  1  0
 18 19  1  0
 15 20  1  0
 20 21  2  0
 21 22  1  0
 10  2  1  0
 21 12  1  0
  9  4  1  0
  1 23  1  0
  1 24  1  0
  1 25  1  0
  5 26  1  0
  6 27  1  0
  7 28  1  0
  8 29  1  0
 11 30  1  0
 11 31  1  0
 13 32  1  0
 14 33  1  0
 18 34  1  0
 19 35  1  0
 20 36  1  0
M  END
$$$$
