
     RDKit          3D

 55 57  0  0  0  0  0  0  0  0999 V2000
    5.3774   -0.3297    0.9295 C   0  0  0  0  0  0  0  0  0  0  0  0
    5.7611   -1.1628   -0.2230 N   0  0  0  0  0  0  0  0  0  0  0  0
    7.1362   -1.5606    0.0015 C   0  0  0  0  0  0  0  0  0  0  0  0
    5.7065   -0.3586   -1.3926 C   0  0  0  0  0  0  0  0  0  0  0  0
    4.4631    0.0935   -1.9450 C   0  0  0  0  0  0  0  0  0  0  0  0
    3.1632    0.1002   -1.9570 C   0  0  0  0  0  0  0  0  0  0  0  0
    2.4896   -0.7127   -0.9995 C   0  0  0  0  0  0  0  0  0  0  0  0
    2.7483   -1.8613   -0.3026 C   0  0  0  0  0  0  0  0  0  0  0  0
    2.0581   -2.4267    0.7313 C   0  0  0  0  0  0  0  0  0  0  0  0
    2.5135   -3.5788    1.2688 F   0  0  0  0  0  0  0  0  0  0  0  0
    0.9346   -1.7600    1.1464 C   0  0  0  0  0  0  0  0  0  0  0  0
    0.6181   -0.5976    0.4831 C   0  0  0  0  0  0  0  0  0  0  0  0
    1.3374   -0.0307   -0.5774 C   0  0  0  0  0  0  0  0  0  0  0  0
    0.7100    1.4787   -1.2587 S   0  0  0  0  0  0  0  0  0  0  0  0
    0.3883    1.2777   -2.7385 O   0  0  0  0  0  0  0  0  0  0  0  0
    1.7174    2.5819   -1.1101 O   0  0  0  0  0  0  0  0  0  0  0  0
   -0.7269    1.9166   -0.4464 N   0  0  0  0  0  0  0  0  0  0  0  0
   -1.9276    1.1489   -0.4199 C   0  0  0  0  0  0  0  0  0  0  0  0
   -2.1310    0.0720   -1.2914 C   0  0  0  0  0  0  0  0  0  0  0  0
   -3.2723   -0.7012   -1.3211 C   0  0  0  0  0  0  0  0  0  0  0  0
   -4.2928   -0.4090   -0.4403 C   0  0  0  0  0  0  0  0  0  0  0  0
   -5.5648   -1.1354   -0.3462 C   0  0  0  0  0  0  0  0  0  0  0  0
   -6.7564   -0.2074   -0.2943 C   0  0  0  0  0  0  0  0  0  0  0  0
   -6.4668    1.0677    0.4422 C   0  0  0  0  0  0  0  0  0  0  0  0
   -5.2617    0.8990    1.3442 C   0  0  0  0  0  0  0  0  0  0  0  0
   -4.1137    0.6472    0.4266 C   0  0  0  0  0  0  0  0  0  0  0  0
   -2.9703    1.4173    0.4522 C   0  0  0  0  0  0  0  0  0  0  0  0
   -2.8415    2.5176    1.3912 C   0  0  0  0  0  0  0  0  0  0  0  0
   -2.2699    2.1017    2.6063 O   0  0  0  0  0  0  0  0  0  0  0  0
   -3.1362    3.7367    1.3249 O   0  0  0  0  0  0  0  0  0  0  0  0
    4.8072   -0.9362    1.6563 H   0  0  0  0  0  0  0  0  0  0  0  0
    4.7897    0.5328    0.5654 H   0  0  0  0  0  0  0  0  0  0  0  0
    6.2882    0.0386    1.4417 H   0  0  0  0  0  0  0  0  0  0  0  0
    7.2809   -2.5652   -0.4826 H   0  0  0  0  0  0  0  0  0  0  0  0
    7.2868   -1.7688    1.0934 H   0  0  0  0  0  0  0  0  0  0  0  0
    7.8680   -0.8511   -0.3992 H   0  0  0  0  0  0  0  0  0  0  0  0
    6.3892   -0.8105   -2.2041 H   0  0  0  0  0  0  0  0  0  0  0  0
    6.3129    0.5735   -1.1202 H   0  0  0  0  0  0  0  0  0  0  0  0
    4.7929    0.7683   -2.7788 H   0  0  0  0  0  0  0  0  0  0  0  0
    2.6107    0.7051   -2.6915 H   0  0  0  0  0  0  0  0  0  0  0  0
    3.6029   -2.3897   -0.6856 H   0  0  0  0  0  0  0  0  0  0  0  0
    0.3534   -2.1618    1.9591 H   0  0  0  0  0  0  0  0  0  0  0  0
   -0.2792   -0.1174    0.8795 H   0  0  0  0  0  0  0  0  0  0  0  0
   -0.7763    2.8293    0.0982 H   0  0  0  0  0  0  0  0  0  0  0  0
   -1.3414   -0.1766   -1.9942 H   0  0  0  0  0  0  0  0  0  0  0  0
   -3.3993   -1.5202   -2.0005 H   0  0  0  0  0  0  0  0  0  0  0  0
   -5.5323   -1.7089    0.6180 H   0  0  0  0  0  0  0  0  0  0  0  0
   -5.6442   -1.8667   -1.1783 H   0  0  0  0  0  0  0  0  0  0  0  0
   -7.0142    0.0280   -1.3615 H   0  0  0  0  0  0  0  0  0  0  0  0
   -7.6328   -0.7191    0.1607 H   0  0  0  0  0  0  0  0  0  0  0  0
   -7.3731    1.3532    1.0085 H   0  0  0  0  0  0  0  0  0  0  0  0
   -6.1824    1.8484   -0.3139 H   0  0  0  0  0  0  0  0  0  0  0  0
   -5.4148    0.0619    2.0607 H   0  0  0  0  0  0  0  0  0  0  0  0
   -5.1525    1.8609    1.8836 H   0  0  0  0  0  0  0  0  0  0  0  0
   -2.0311    2.7679    3.3392 H   0  0  0  0  0  0  0  0  0  0  0  0
  1  2  1  0
  2  3  1  0
  2  4  1  0
  4  5  1  0
  5  6  2  0
  6  7  1  0
  7  8  2  0
  8  9  1  0
  9 10  1  0
  9 11  2  0
 11 12  1  0
 12 13  2  0
 13 14  1  0
 14 15  2  0
 14 16  2  0
 14 17  1  0
 17 18  1  0
 18 19  2  0
 19 20  1  0
 20 21  2  0
 21 22  1  0
 22 23  1  0
 23 24  1  0
 24 25  1  0
 25 26  1  0
 26 27  2  0
 27 28  1  0
 28 29  1  0
 28 30  2  0
 13  7  1  0
 27 18  1  0
 26 21  1  0
  1 31  1  0
  1 32  1  0
  1 33  1  0
  3 34  1  0
  3 35  1  0
  3 36  1  0
  4 37  1  0
  4 38  1  0
  5 39  1  0
  6 40  1  0
  8 41  1  0
 11 42  1  0
 12 43  1  0
 17 44  1  0
 19 45  1  0
 20 46  1  0
 22 47  1  0
 22 48  1  0
 23 49  1  0
 23 50  1  0
 24 51  1  0
 24 52  1  0
 25 53  1  0
 25 54  1  0
 29 55  1  0
M  END
$$$$
