
     RDKit          3D

 63 64  0  0  0  0  0  0  0  0999 V2000
    0.4991    2.1699    0.9360 C   0  0  0  0  0  0  0  0  0  0  0  0
    0.1826    1.2362    1.8843 O   0  0  0  0  0  0  0  0  0  0  0  0
   -1.1616    0.9493    1.9974 C   0  0  0  0  0  0  0  0  0  0  0  0
   -1.6912    0.4179    0.7126 C   0  0  2  0  0  0  0  0  0  0  0  0
   -3.1863    0.0811    0.8135 C   0  0  0  0  0  0  0  0  0  0  0  0
   -3.6776   -0.1763   -0.5689 C   0  0  2  0  0  0  0  0  0  0  0  0
   -5.0871   -0.4278   -0.6539 N   0  0  0  0  0  0  0  0  0  0  0  0
   -5.4501   -0.6607   -2.0363 C   0  0  0  0  0  0  0  0  0  0  0  0
   -5.9203    0.5713   -0.0750 C   0  0  0  0  0  0  0  0  0  0  0  0
   -5.7878    1.9364   -0.6651 C   0  0  0  0  0  0  0  0  0  0  0  0
   -7.3704    0.1185   -0.2841 C   0  0  0  0  0  0  0  0  0  0  0  0
   -2.9361   -1.3572   -1.1421 C   0  0  0  0  0  0  0  0  0  0  0  0
   -1.9071   -1.9102   -0.1795 C   0  0  0  0  0  0  0  0  0  0  0  0
   -0.9802   -0.7832    0.1989 C   0  0  2  0  0  0  0  0  0  0  0  0
    0.0805   -1.2294    1.0822 N   0  0  0  0  0  0  0  0  0  0  0  0
    1.4403   -1.2776    0.7467 C   0  0  0  0  0  0  0  0  0  0  0  0
    1.7951   -0.9141   -0.3948 O   0  0  0  0  0  0  0  0  0  0  0  0
    2.4320   -1.7524    1.7343 C   0  0  0  0  0  0  0  0  0  0  0  0
    3.7797   -1.7370    1.2227 N   0  0  0  0  0  0  0  0  0  0  0  0
    4.3959   -0.5362    0.7784 C   0  0  0  0  0  0  0  0  0  0  0  0
    3.7015    0.5122    0.8556 O   0  0  0  0  0  0  0  0  0  0  0  0
    5.7532   -0.4721    0.2547 C   0  0  0  0  0  0  0  0  0  0  0  0
    6.5691   -1.5639    0.1385 C   0  0  0  0  0  0  0  0  0  0  0  0
    7.8651   -1.4641   -0.3682 C   0  0  0  0  0  0  0  0  0  0  0  0
    8.3142   -0.2227   -0.7557 C   0  0  0  0  0  0  0  0  0  0  0  0
    7.5221    0.9113   -0.6559 C   0  0  0  0  0  0  0  0  0  0  0  0
    8.0731    2.2051   -1.0910 C   0  0  0  0  0  0  0  0  0  0  0  0
    8.1207    2.3725   -2.4421 F   0  0  0  0  0  0  0  0  0  0  0  0
    7.2428    3.1937   -0.5550 F   0  0  0  0  0  0  0  0  0  0  0  0
    9.3200    2.4210   -0.5123 F   0  0  0  0  0  0  0  0  0  0  0  0
    6.2591    0.7412   -0.1493 C   0  0  0  0  0  0  0  0  0  0  0  0
    1.6218    2.3113    0.9695 H   0  0  0  0  0  0  0  0  0  0  0  0
   -0.0009    3.1195    1.1794 H   0  0  0  0  0  0  0  0  0  0  0  0
    0.2683    1.8793   -0.1115 H   0  0  0  0  0  0  0  0  0  0  0  0
   -1.6823    1.9217    2.1951 H   0  0  0  0  0  0  0  0  0  0  0  0
   -1.2843    0.2549    2.8537 H   0  0  0  0  0  0  0  0  0  0  0  0
   -1.6265    1.2590   -0.0402 H   0  0  0  0  0  0  0  0  0  0  0  0
   -3.2913   -0.7885    1.4856 H   0  0  0  0  0  0  0  0  0  0  0  0
   -3.7176    0.9103    1.3266 H   0  0  0  0  0  0  0  0  0  0  0  0
   -3.4897    0.7540   -1.1766 H   0  0  0  0  0  0  0  0  0  0  0  0
   -4.6453   -0.3024   -2.7422 H   0  0  0  0  0  0  0  0  0  0  0  0
   -6.3766   -0.1505   -2.3316 H   0  0  0  0  0  0  0  0  0  0  0  0
   -5.5702   -1.7607   -2.2353 H   0  0  0  0  0  0  0  0  0  0  0  0
   -5.7882    0.5775    1.0466 H   0  0  0  0  0  0  0  0  0  0  0  0
   -6.7616    2.3140   -1.0954 H   0  0  0  0  0  0  0  0  0  0  0  0
   -5.5637    2.6765    0.1584 H   0  0  0  0  0  0  0  0  0  0  0  0
   -5.0633    2.0103   -1.4960 H   0  0  0  0  0  0  0  0  0  0  0  0
   -7.8240    0.7101   -1.1325 H   0  0  0  0  0  0  0  0  0  0  0  0
   -7.9732    0.2214    0.6239 H   0  0  0  0  0  0  0  0  0  0  0  0
   -7.4217   -0.9382   -0.6113 H   0  0  0  0  0  0  0  0  0  0  0  0
   -2.4837   -1.1275   -2.1321 H   0  0  0  0  0  0  0  0  0  0  0  0
   -3.6861   -2.1777   -1.3115 H   0  0  0  0  0  0  0  0  0  0  0  0
   -2.4001   -2.4020    0.6772 H   0  0  0  0  0  0  0  0  0  0  0  0
   -1.2972   -2.6430   -0.7640 H   0  0  0  0  0  0  0  0  0  0  0  0
   -0.4511   -0.5039   -0.7600 H   0  0  0  0  0  0  0  0  0  0  0  0
   -0.2068   -1.5352    2.0384 H   0  0  0  0  0  0  0  0  0  0  0  0
    2.3470   -1.1617    2.6898 H   0  0  0  0  0  0  0  0  0  0  0  0
    2.1596   -2.7889    2.0131 H   0  0  0  0  0  0  0  0  0  0  0  0
    4.3400   -2.6138    1.1660 H   0  0  0  0  0  0  0  0  0  0  0  0
    6.2322   -2.5413    0.4374 H   0  0  0  0  0  0  0  0  0  0  0  0
    8.4979   -2.3394   -0.4533 H   0  0  0  0  0  0  0  0  0  0  0  0
    9.3061   -0.1389   -1.1448 H   0  0  0  0  0  0  0  0  0  0  0  0
    5.6423    1.6411   -0.0745 H   0  0  0  0  0  0  0  0  0  0  0  0
  1  2  1  0
  2  3  1  0
  3  4  1  0
  4  5  1  0
  5  6  1  0
  6  7  1  0
  7  8  1  0
  7  9  1  0
  9 10  1  0
  9 11  1  0
  6 12  1  0
 12 13  1  0
 13 14  1  0
 14 15  1  0
 15 16  1  0
 16 17  2  0
 16 18  1  0
 18 19  1  0
 19 20  1  0
 20 21  2  0
 20 22  1  0
 22 23  2  0
 23 24  1  0
 24 25  2  0
 25 26  1  0
 26 27  1  0
 27 28  1  0
 27 29  1  0
 27 30  1  0
 26 31  2  0
 14  4  1  0
 31 22  1  0
  1 32  1  0
  1 33  1  0
  1 34  1  0
  3 35  1  0
  3 36  1  0
  4 37  1  6
  5 38  1  0
  5 39  1  0
  6 40  1  6
  8 41  1  0
  8 42  1  0
  8 43  1  0
  9 44  1  0
 10 45  1  0
 10 46  1  0
 10 47  1  0
 11 48  1  0
 11 49  1  0
 11 50  1  0
 12 51  1  0
 12 52  1  0
 13 53  1  0
 13 54  1  0
 14 55  1  6
 15 56  1  0
 18 57  1  0
 18 58  1  0
 19 59  1  0
 23 60  1  0
 24 61  1  0
 25 62  1  0
 31 63  1  0
M  END
$$$$
