
     RDKit          3D

 41 43  0  0  0  0  0  0  0  0999 V2000
    6.5507   -1.3250    0.2499 C   0  0  0  0  0  0  0  0  0  0  0  0
    5.5668   -0.8593   -0.7110 N   0  0  0  0  0  0  0  0  0  0  0  0
    4.3189   -0.3730   -0.2256 C   0  0  0  0  0  0  0  0  0  0  0  0
    4.1197   -0.3663    1.0089 O   0  0  0  0  0  0  0  0  0  0  0  0
    3.3274    0.0876   -1.0518 O   0  0  0  0  0  0  0  0  0  0  0  0
    2.1002    0.5692   -0.6306 C   0  0  0  0  0  0  0  0  0  0  0  0
    1.9110    1.9009   -0.3461 C   0  0  0  0  0  0  0  0  0  0  0  0
    0.6583    2.3042    0.0683 C   0  0  0  0  0  0  0  0  0  0  0  0
   -0.3963    1.4228    0.2041 C   0  0  0  0  0  0  0  0  0  0  0  0
   -0.1708    0.1069   -0.0875 C   0  0  0  0  0  0  0  0  0  0  0  0
    1.0760   -0.3487   -0.5095 C   0  0  0  0  0  0  0  0  0  0  0  0
   -1.4143   -0.6554    0.1215 C   0  0  2  0  0  0  0  0  0  0  0  0
   -1.1343   -1.9650    0.8033 C   0  0  0  0  0  0  0  0  0  0  0  0
   -2.1231   -0.7920   -1.1870 C   0  0  0  0  0  0  0  0  0  0  0  0
   -3.3188    0.1314   -1.0005 C   0  0  0  0  0  0  0  0  0  0  0  0
   -3.5657    0.1359    0.4296 N   0  0  0  0  0  0  0  0  0  0  0  0
   -4.1683   -1.1402    0.7593 C   0  0  0  0  0  0  0  0  0  0  0  0
   -2.2337    0.2810    0.9740 C   0  0  2  0  0  0  0  0  0  0  0  0
   -1.7491    1.5825    0.6031 N   0  0  0  0  0  0  0  0  0  0  0  0
   -2.4546    2.8563    0.6117 C   0  0  0  0  0  0  0  0  0  0  0  0
    6.0353   -1.8674    1.0722 H   0  0  0  0  0  0  0  0  0  0  0  0
    7.0690   -0.4377    0.6523 H   0  0  0  0  0  0  0  0  0  0  0  0
    7.2412   -2.0177   -0.2657 H   0  0  0  0  0  0  0  0  0  0  0  0
    5.7354   -0.8654   -1.7480 H   0  0  0  0  0  0  0  0  0  0  0  0
    2.7309    2.6296   -0.4441 H   0  0  0  0  0  0  0  0  0  0  0  0
    0.4911    3.3508    0.2970 H   0  0  0  0  0  0  0  0  0  0  0  0
    1.2272   -1.4126   -0.7368 H   0  0  0  0  0  0  0  0  0  0  0  0
   -1.6631   -2.0644    1.7783 H   0  0  0  0  0  0  0  0  0  0  0  0
   -1.3314   -2.7857    0.1122 H   0  0  0  0  0  0  0  0  0  0  0  0
   -0.0426   -2.0152    1.0627 H   0  0  0  0  0  0  0  0  0  0  0  0
   -1.5539   -0.4405   -2.0583 H   0  0  0  0  0  0  0  0  0  0  0  0
   -2.4491   -1.8320   -1.3905 H   0  0  0  0  0  0  0  0  0  0  0  0
   -4.2227   -0.2888   -1.4912 H   0  0  0  0  0  0  0  0  0  0  0  0
   -3.0713    1.1264   -1.3823 H   0  0  0  0  0  0  0  0  0  0  0  0
   -3.5801   -1.9773    0.3333 H   0  0  0  0  0  0  0  0  0  0  0  0
   -5.1532   -1.1627    0.2407 H   0  0  0  0  0  0  0  0  0  0  0  0
   -4.3630   -1.2636    1.8387 H   0  0  0  0  0  0  0  0  0  0  0  0
   -2.1650    0.0876    2.0444 H   0  0  0  0  0  0  0  0  0  0  0  0
   -2.6092    3.2661   -0.3991 H   0  0  0  0  0  0  0  0  0  0  0  0
   -1.8246    3.6146    1.1526 H   0  0  0  0  0  0  0  0  0  0  0  0
   -3.4008    2.8021    1.1796 H   0  0  0  0  0  0  0  0  0  0  0  0
  1  2  1  0
  2  3  1  0
  3  4  2  0
  3  5  1  0
  5  6  1  0
  6  7  2  0
  7  8  1  0
  8  9  2  0
  9 10  1  0
 10 11  2  0
 10 12  1  0
 12 13  1  1
 12 14  1  0
 14 15  1  0
 15 16  1  0
 16 17  1  0
 16 18  1  0
 18 19  1  0
 19 20  1  0
 11  6  1  0
 18 12  1  0
 19  9  1  0
  1 21  1  0
  1 22  1  0
  1 23  1  0
  2 24  1  0
  7 25  1  0
  8 26  1  0
 11 27  1  0
 13 28  1  0
 13 29  1  0
 13 30  1  0
 14 31  1  0
 14 32  1  0
 15 33  1  0
 15 34  1  0
 17 35  1  0
 17 36  1  0
 17 37  1  0
 18 38  1  1
 20 39  1  0
 20 40  1  0
 20 41  1  0
M  END
$$$$
