
     RDKit          3D

 44 47  0  0  0  0  0  0  0  0999 V2000
   -2.8840    3.2334    1.7592 C   0  0  0  0  0  0  0  0  0  0  0  0
   -2.3398    2.1019    1.0179 N   0  0  0  0  0  0  0  0  0  0  0  0
   -2.1472    0.7673    1.4589 C   0  0  0  0  0  0  0  0  0  0  0  0
   -2.4252    0.3373    2.6020 O   0  0  0  0  0  0  0  0  0  0  0  0
   -1.5719    0.0430    0.3136 C   0  0  0  0  0  0  0  0  0  0  0  0
   -2.4459   -1.0460   -0.2076 C   0  0  0  0  0  0  0  0  0  0  0  0
   -3.4821   -1.6025    0.4906 C   0  0  0  0  0  0  0  0  0  0  0  0
   -4.2350   -2.6171   -0.0895 C   0  0  0  0  0  0  0  0  0  0  0  0
   -3.9203   -3.0260   -1.3314 N   0  0  0  0  0  0  0  0  0  0  0  0
   -2.9104   -2.5022   -2.0447 C   0  0  0  0  0  0  0  0  0  0  0  0
   -2.1643   -1.4992   -1.4744 C   0  0  0  0  0  0  0  0  0  0  0  0
   -0.2809   -0.5337    0.7380 C   0  0  0  0  0  0  0  0  0  0  0  0
   -0.2926   -1.4616    1.7587 C   0  0  0  0  0  0  0  0  0  0  0  0
    0.9171   -1.9951    2.1485 C   0  0  0  0  0  0  0  0  0  0  0  0
    2.0876   -1.6061    1.5322 C   0  0  0  0  0  0  0  0  0  0  0  0
    2.1155   -0.6792    0.5104 C   0  0  0  0  0  0  0  0  0  0  0  0
    3.3742   -0.2939   -0.1170 C   0  0  0  0  0  0  0  0  0  0  0  0
    4.5704   -0.2676    0.5706 C   0  0  0  0  0  0  0  0  0  0  0  0
    5.7575    0.1108   -0.0561 C   0  0  0  0  0  0  0  0  0  0  0  0
    5.7654    0.4716   -1.3916 C   0  0  0  0  0  0  0  0  0  0  0  0
    4.5800    0.4468   -2.0779 C   0  0  0  0  0  0  0  0  0  0  0  0
    4.5413    0.7925   -3.3865 F   0  0  0  0  0  0  0  0  0  0  0  0
    3.3884    0.0667   -1.4482 C   0  0  0  0  0  0  0  0  0  0  0  0
    0.8927   -0.1487    0.1256 C   0  0  0  0  0  0  0  0  0  0  0  0
   -1.4662    1.0185   -0.7258 N   0  0  0  0  0  0  0  0  0  0  0  0
   -1.8955    2.1671   -0.3312 C   0  0  0  0  0  0  0  0  0  0  0  0
   -1.9321    3.3715   -1.1315 N   0  0  0  0  0  0  0  0  0  0  0  0
   -2.4862    4.1953    1.4009 H   0  0  0  0  0  0  0  0  0  0  0  0
   -2.5025    3.1060    2.8106 H   0  0  0  0  0  0  0  0  0  0  0  0
   -3.9836    3.2386    1.7742 H   0  0  0  0  0  0  0  0  0  0  0  0
   -3.7048   -1.2480    1.4855 H   0  0  0  0  0  0  0  0  0  0  0  0
   -5.0617   -3.0513    0.4848 H   0  0  0  0  0  0  0  0  0  0  0  0
   -2.6825   -2.8659   -3.0636 H   0  0  0  0  0  0  0  0  0  0  0  0
   -1.3318   -1.0594   -2.0469 H   0  0  0  0  0  0  0  0  0  0  0  0
   -1.2358   -1.7570    2.2358 H   0  0  0  0  0  0  0  0  0  0  0  0
    0.8913   -2.7305    2.9610 H   0  0  0  0  0  0  0  0  0  0  0  0
    3.0289   -2.0318    1.8472 H   0  0  0  0  0  0  0  0  0  0  0  0
    4.5823   -0.5487    1.6209 H   0  0  0  0  0  0  0  0  0  0  0  0
    6.7085    0.1407    0.4570 H   0  0  0  0  0  0  0  0  0  0  0  0
    6.6762    0.7711   -1.9049 H   0  0  0  0  0  0  0  0  0  0  0  0
    2.4473    0.0450   -1.9850 H   0  0  0  0  0  0  0  0  0  0  0  0
    0.9306    0.5792   -0.6797 H   0  0  0  0  0  0  0  0  0  0  0  0
   -1.2097    4.0921   -0.9298 H   0  0  0  0  0  0  0  0  0  0  0  0
   -2.6633    3.4749   -1.8661 H   0  0  0  0  0  0  0  0  0  0  0  0
  1  2  1  0
  2  3  1  0
  3  4  2  0
  3  5  1  0
  5  6  1  0
  6  7  2  0
  7  8  1  0
  8  9  2  0
  9 10  1  0
 10 11  2  0
  5 12  1  0
 12 13  2  0
 13 14  1  0
 14 15  2  0
 15 16  1  0
 16 17  1  0
 17 18  2  0
 18 19  1  0
 19 20  2  0
 20 21  1  0
 21 22  1  0
 21 23  2  0
 16 24  2  0
  5 25  1  0
 25 26  2  0
 26 27  1  0
 26  2  1  0
 11  6  1  0
 24 12  1  0
 23 17  1  0
  1 28  1  0
  1 29  1  0
  1 30  1  0
  7 31  1  0
  8 32  1  0
 10 33  1  0
 11 34  1  0
 13 35  1  0
 14 36  1  0
 15 37  1  0
 18 38  1  0
 19 39  1  0
 20 40  1  0
 23 41  1  0
 24 42  1  0
 27 43  1  0
 27 44  1  0
M  END
$$$$
