
     RDKit          3D

 37 39  0  0  0  0  0  0  0  0999 V2000
   -4.5474    1.4128    2.5836 F   0  0  0  0  0  0  0  0  0  0  0  0
   -4.5967    1.5956    1.2110 C   0  0  0  0  0  0  0  0  0  0  0  0
   -3.9408    2.6973    0.7603 F   0  0  0  0  0  0  0  0  0  0  0  0
   -5.9606    1.9284    1.0134 F   0  0  0  0  0  0  0  0  0  0  0  0
   -4.4037    0.3591    0.4502 C   0  0  0  0  0  0  0  0  0  0  0  0
   -5.3640   -0.1288   -0.4484 C   0  0  0  0  0  0  0  0  0  0  0  0
   -5.2845   -1.2801   -1.2006 C   0  0  0  0  0  0  0  0  0  0  0  0
   -4.1398   -2.0335   -1.0556 C   0  0  0  0  0  0  0  0  0  0  0  0
   -3.1740   -1.5845   -0.1812 C   0  0  0  0  0  0  0  0  0  0  0  0
   -3.2428   -0.4147    0.5898 C   0  0  0  0  0  0  0  0  0  0  0  0
   -1.9375    0.0338    1.6392 S   0  0  0  0  0  0  0  0  0  0  0  0
   -0.9402   -1.0954    1.6145 O   0  0  0  0  0  0  0  0  0  0  0  0
   -2.3656    0.1171    3.0815 O   0  0  0  0  0  0  0  0  0  0  0  0
   -1.1146    1.4578    1.2248 N   0  0  0  0  0  0  0  0  0  0  0  0
    0.2162    1.1088    0.8544 N   0  0  0  0  0  0  0  0  0  0  0  0
    0.7602    0.7654   -0.4183 C   0  0  0  0  0  0  0  0  0  0  0  0
    0.1126    0.7105   -1.4934 O   0  0  0  0  0  0  0  0  0  0  0  0
    2.1858    0.4584   -0.4427 C   0  0  0  0  0  0  0  0  0  0  0  0
    2.8626    0.1108   -1.5786 C   0  0  0  0  0  0  0  0  0  0  0  0
    4.1956   -0.1192   -1.2833 C   0  0  0  0  0  0  0  0  0  0  0  0
    5.3450   -0.4846   -1.9601 C   0  0  0  0  0  0  0  0  0  0  0  0
    6.5090   -0.6021   -1.2374 C   0  0  0  0  0  0  0  0  0  0  0  0
    7.9381   -1.0688   -2.1476 Cl  0  0  0  0  0  0  0  0  0  0  0  0
    6.6056   -0.3790    0.1200 C   0  0  0  0  0  0  0  0  0  0  0  0
    5.4445   -0.0125    0.7889 C   0  0  0  0  0  0  0  0  0  0  0  0
    4.2579    0.1122    0.0800 C   0  0  0  0  0  0  0  0  0  0  0  0
    3.0639    0.4428    0.5098 O   0  0  0  0  0  0  0  0  0  0  0  0
   -6.2829    0.4692   -0.5694 H   0  0  0  0  0  0  0  0  0  0  0  0
   -6.0748   -1.5600   -1.8557 H   0  0  0  0  0  0  0  0  0  0  0  0
   -3.9855   -2.9520   -1.6024 H   0  0  0  0  0  0  0  0  0  0  0  0
   -2.2676   -2.2045   -0.0826 H   0  0  0  0  0  0  0  0  0  0  0  0
   -1.4561    1.9614    0.3764 H   0  0  0  0  0  0  0  0  0  0  0  0
    0.7998    1.1398    1.7203 H   0  0  0  0  0  0  0  0  0  0  0  0
    2.4689    0.0125   -2.5923 H   0  0  0  0  0  0  0  0  0  0  0  0
    5.2621   -0.6579   -3.0235 H   0  0  0  0  0  0  0  0  0  0  0  0
    7.5358   -0.4790    0.6638 H   0  0  0  0  0  0  0  0  0  0  0  0
    5.5153    0.1629    1.8505 H   0  0  0  0  0  0  0  0  0  0  0  0
  1  2  1  0
  2  3  1  0
  2  4  1  0
  2  5  1  0
  5  6  2  0
  6  7  1  0
  7  8  2  0
  8  9  1  0
  9 10  2  0
 10 11  1  0
 11 12  2  0
 11 13  2  0
 11 14  1  0
 14 15  1  0
 15 16  1  0
 16 17  2  0
 16 18  1  0
 18 19  2  0
 19 20  1  0
 20 21  2  0
 21 22  1  0
 22 23  1  0
 22 24  2  0
 24 25  1  0
 25 26  2  0
 26 27  1  0
 10  5  1  0
 27 18  1  0
 26 20  1  0
  6 28  1  0
  7 29  1  0
  8 30  1  0
  9 31  1  0
 14 32  1  0
 15 33  1  0
 19 34  1  0
 21 35  1  0
 24 36  1  0
 25 37  1  0
M  END
$$$$
