
     RDKit          3D

 34 36  0  0  0  0  0  0  0  0999 V2000
   -2.2917   -1.1122    0.4521 C   0  0  1  0  0  0  0  0  0  0  0  0
   -3.1179   -1.9225   -0.5357 C   0  0  0  0  0  0  0  0  0  0  0  0
   -3.2043   -1.2771   -1.7629 O   0  0  0  0  0  0  0  0  0  0  0  0
   -0.9895   -0.8976    0.0155 O   0  0  0  0  0  0  0  0  0  0  0  0
   -0.6629    0.3096    0.6167 C   0  0  1  0  0  0  0  0  0  0  0  0
    0.6256    0.8243    0.3096 N   0  0  0  0  0  0  0  0  0  0  0  0
    0.9926    2.1167    0.1593 C   0  0  0  0  0  0  0  0  0  0  0  0
    2.3009    2.2148   -0.1294 N   0  0  0  0  0  0  0  0  0  0  0  0
    2.7863    0.9776   -0.1666 C   0  0  0  0  0  0  0  0  0  0  0  0
    1.7467    0.1112    0.1059 C   0  0  0  0  0  0  0  0  0  0  0  0
    2.0353   -1.2955    0.1206 N   0  0  0  0  0  4  0  0  0  0  0  0
    3.2184   -1.7699   -0.1095 C   0  0  0  0  0  0  0  0  0  0  0  0
    4.2986   -0.8906   -0.3915 N   0  0  0  0  0  0  0  0  0  0  0  0
    4.1895    0.5390   -0.4464 C   0  0  1  0  0  0  0  0  0  0  0  0
    4.5683    1.0645   -1.6584 O   0  0  0  0  0  0  0  0  0  0  0  0
   -1.8150    1.1569    0.1042 C   0  0  2  0  0  0  0  0  0  0  0  0
   -1.8630    2.4096    0.6969 O   0  0  0  0  0  0  0  0  0  0  0  0
   -2.9489    0.2424    0.5911 C   0  0  2  0  0  0  0  0  0  0  0  0
   -3.0822    0.5924    1.9540 O   0  0  0  0  0  0  0  0  0  0  0  0
   -2.2226   -1.6331    1.4161 H   0  0  0  0  0  0  0  0  0  0  0  0
   -2.7529   -2.9635   -0.5998 H   0  0  0  0  0  0  0  0  0  0  0  0
   -4.1462   -1.9405   -0.1015 H   0  0  0  0  0  0  0  0  0  0  0  0
   -4.0949   -0.8722   -1.9199 H   0  0  0  0  0  0  0  0  0  0  0  0
   -0.8347    0.1629    1.7062 H   0  0  0  0  0  0  0  0  0  0  0  0
    0.3592    2.9945    0.2483 H   0  0  0  0  0  0  0  0  0  0  0  0
    1.2490   -1.9743    0.3281 H   0  0  0  0  0  0  0  0  0  0  0  0
    3.3917   -2.8417   -0.0882 H   0  0  0  0  0  0  0  0  0  0  0  0
    5.2481   -1.2628   -0.5766 H   0  0  0  0  0  0  0  0  0  0  0  0
    4.8625    0.9696    0.3475 H   0  0  0  0  0  0  0  0  0  0  0  0
    3.9473    0.7504   -2.3527 H   0  0  0  0  0  0  0  0  0  0  0  0
   -1.8909    1.1728   -0.9998 H   0  0  0  0  0  0  0  0  0  0  0  0
   -2.0320    3.0486   -0.0402 H   0  0  0  0  0  0  0  0  0  0  0  0
   -3.8698    0.3661    0.0248 H   0  0  0  0  0  0  0  0  0  0  0  0
   -4.0007    0.6297    2.2598 H   0  0  0  0  0  0  0  0  0  0  0  0
  1  2  1  0
  2  3  1  0
  1  4  1  0
  4  5  1  0
  5  6  1  0
  6  7  1  0
  7  8  2  0
  8  9  1  0
  9 10  2  0
 10 11  1  0
 11 12  2  0
 12 13  1  0
 13 14  1  0
 14 15  1  0
  5 16  1  0
 16 17  1  0
 16 18  1  0
 18 19  1  0
 18  1  1  0
 10  6  1  0
 14  9  1  0
  1 20  1  1
  2 21  1  0
  2 22  1  0
  3 23  1  0
  5 24  1  1
  7 25  1  0
 11 26  1  0
 12 27  1  0
 13 28  1  0
 14 29  1  1
 15 30  1  0
 16 31  1  6
 17 32  1  0
 18 33  1  6
 19 34  1  0
M  CHG  1  11   1
M  END
$$$$
