
     RDKit          3D

 44 45  0  0  0  0  0  0  0  0999 V2000
   -1.2438    3.6441    1.1977 C   0  0  0  0  0  0  0  0  0  0  0  0
   -0.5516    2.7889    0.2211 N   0  0  0  0  0  0  0  0  0  0  0  0
   -0.7803    3.3611   -1.0945 C   0  0  0  0  0  0  0  0  0  0  0  0
   -1.0990    1.4715    0.3751 C   0  0  0  0  0  0  0  0  0  0  0  0
   -0.5293    0.4269   -0.5212 C   0  0  0  0  0  0  0  0  0  0  0  0
   -1.2253   -0.8686   -0.2150 C   0  0  0  0  0  0  0  0  0  0  0  0
   -1.7672   -1.6492   -1.2176 C   0  0  0  0  0  0  0  0  0  0  0  0
   -2.4197   -2.8392   -0.9930 C   0  0  0  0  0  0  0  0  0  0  0  0
   -2.5345   -3.2691    0.3094 C   0  0  0  0  0  0  0  0  0  0  0  0
   -3.1864   -4.4656    0.5768 O   0  0  0  0  0  0  0  0  0  0  0  0
   -2.0157   -2.5369    1.3578 C   0  0  0  0  0  0  0  0  0  0  0  0
   -1.3651   -1.3393    1.0710 C   0  0  0  0  0  0  0  0  0  0  0  0
    0.9836    0.2985   -0.4178 C   0  0  0  0  0  0  0  0  0  0  0  0
    1.4630    1.5645   -0.7794 O   0  0  0  0  0  0  0  0  0  0  0  0
    1.5261   -0.6543   -1.4510 C   0  0  0  0  0  0  0  0  0  0  0  0
    2.5129   -1.6340   -0.9232 C   0  0  0  0  0  0  0  0  0  0  0  0
    3.4238   -1.1724    0.1523 C   0  0  0  0  0  0  0  0  0  0  0  0
    3.0081    0.1020    0.8438 C   0  0  0  0  0  0  0  0  0  0  0  0
    1.4776    0.0048    0.9634 C   0  0  0  0  0  0  0  0  0  0  0  0
   -1.4553    3.0715    2.1277 H   0  0  0  0  0  0  0  0  0  0  0  0
   -2.2233    3.9844    0.8244 H   0  0  0  0  0  0  0  0  0  0  0  0
   -0.5980    4.4936    1.5067 H   0  0  0  0  0  0  0  0  0  0  0  0
   -1.1032    2.6538   -1.8552 H   0  0  0  0  0  0  0  0  0  0  0  0
    0.1409    3.8806   -1.4412 H   0  0  0  0  0  0  0  0  0  0  0  0
   -1.5604    4.1755   -1.0450 H   0  0  0  0  0  0  0  0  0  0  0  0
   -1.0124    1.1793    1.4251 H   0  0  0  0  0  0  0  0  0  0  0  0
   -2.1901    1.5696    0.0982 H   0  0  0  0  0  0  0  0  0  0  0  0
   -0.6922    0.6753   -1.6127 H   0  0  0  0  0  0  0  0  0  0  0  0
   -1.7019   -1.3519   -2.2556 H   0  0  0  0  0  0  0  0  0  0  0  0
   -2.8394   -3.4357   -1.8164 H   0  0  0  0  0  0  0  0  0  0  0  0
   -3.9987   -4.4777    1.1756 H   0  0  0  0  0  0  0  0  0  0  0  0
   -2.1132   -2.8869    2.3782 H   0  0  0  0  0  0  0  0  0  0  0  0
   -0.9766   -0.7930    1.9184 H   0  0  0  0  0  0  0  0  0  0  0  0
    1.7095    2.1386   -0.0390 H   0  0  0  0  0  0  0  0  0  0  0  0
    0.6562   -1.2327   -1.8391 H   0  0  0  0  0  0  0  0  0  0  0  0
    1.9341   -0.1350   -2.3486 H   0  0  0  0  0  0  0  0  0  0  0  0
    3.1728   -1.9409   -1.7884 H   0  0  0  0  0  0  0  0  0  0  0  0
    1.9980   -2.6023   -0.6576 H   0  0  0  0  0  0  0  0  0  0  0  0
    3.4209   -1.9557    0.9667 H   0  0  0  0  0  0  0  0  0  0  0  0
    4.4810   -1.0524   -0.1347 H   0  0  0  0  0  0  0  0  0  0  0  0
    3.3165    0.9246    0.1846 H   0  0  0  0  0  0  0  0  0  0  0  0
    3.4937    0.1459    1.8351 H   0  0  0  0  0  0  0  0  0  0  0  0
    1.2959   -1.0418    1.2802 H   0  0  0  0  0  0  0  0  0  0  0  0
    1.1681    0.7795    1.6567 H   0  0  0  0  0  0  0  0  0  0  0  0
  1  2  1  0
  2  3  1  0
  2  4  1  0
  4  5  1  0
  5  6  1  0
  6  7  2  0
  7  8  1  0
  8  9  2  0
  9 10  1  0
  9 11  1  0
 11 12  2  0
  5 13  1  0
 13 14  1  0
 13 15  1  0
 15 16  1  0
 16 17  1  0
 17 18  1  0
 18 19  1  0
 12  6  1  0
 19 13  1  0
  1 20  1  0
  1 21  1  0
  1 22  1  0
  3 23  1  0
  3 24  1  0
  3 25  1  0
  4 26  1  0
  4 27  1  0
  5 28  1  0
  7 29  1  0
  8 30  1  0
 10 31  1  0
 11 32  1  0
 12 33  1  0
 14 34  1  0
 15 35  1  0
 15 36  1  0
 16 37  1  0
 16 38  1  0
 17 39  1  0
 17 40  1  0
 18 41  1  0
 18 42  1  0
 19 43  1  0
 19 44  1  0
M  END
$$$$
