
     RDKit          3D

 51 55  0  0  0  0  0  0  0  0999 V2000
    5.3385    4.3668   -0.2775 C   0  0  0  0  0  0  0  0  0  0  0  0
    4.7486    3.0033   -0.2433 C   0  0  0  0  0  0  0  0  0  0  0  0
    5.1922    2.0196   -1.1069 C   0  0  0  0  0  0  0  0  0  0  0  0
    4.6648    0.7337   -1.1037 C   0  0  0  0  0  0  0  0  0  0  0  0
    3.6612    0.4081   -0.2134 C   0  0  0  0  0  0  0  0  0  0  0  0
    3.0682   -0.9250   -0.1606 C   0  0  0  0  0  0  0  0  0  0  0  0
    3.8152   -2.0443   -0.4589 C   0  0  0  0  0  0  0  0  0  0  0  0
    3.2859   -3.3137   -0.4155 C   0  0  0  0  0  0  0  0  0  0  0  0
    1.9785   -3.4764   -0.0660 C   0  0  0  0  0  0  0  0  0  0  0  0
    1.2133   -2.3690    0.2365 C   0  0  0  0  0  0  0  0  0  0  0  0
    1.7393   -1.0818    0.1947 C   0  0  0  0  0  0  0  0  0  0  0  0
   -0.1479   -2.5351    0.6142 N   0  0  0  0  0  0  0  0  0  0  0  0
   -1.0880   -1.5402    0.3094 C   0  0  0  0  0  0  0  0  0  0  0  0
   -1.5444   -0.4697    0.5641 N   0  0  0  0  0  0  0  0  0  0  0  0
   -2.5265    0.1766    0.0218 C   0  0  0  0  0  0  0  0  0  0  0  0
   -3.1738   -0.4574   -1.0308 C   0  0  0  0  0  0  0  0  0  0  0  0
   -2.2442   -2.0073   -1.1367 S   0  0  0  0  0  0  0  0  0  0  0  0
   -4.3190    0.0699   -1.7638 C   0  0  0  0  0  0  0  0  0  0  0  0
   -4.8431   -0.5794   -2.7133 O   0  0  0  0  0  0  0  0  0  0  0  0
   -4.8370    1.3694   -1.3645 N   0  0  0  0  0  0  0  0  0  0  0  0
   -4.5187    1.6638    0.0369 C   0  0  0  0  0  0  0  0  0  0  0  0
   -4.9098    3.1067    0.2825 C   0  0  0  0  0  0  0  0  0  0  0  0
   -5.3606    0.8132    0.9652 C   0  0  0  0  0  0  0  0  0  0  0  0
   -3.0654    1.5443    0.3520 C   0  0  0  0  0  0  0  0  0  0  0  0
   -0.5219   -3.7712    1.3177 C   0  0  0  0  0  0  0  0  0  0  0  0
    0.2795   -4.9563    0.9081 C   0  0  0  0  0  0  0  0  0  0  0  0
    1.3275   -4.7002    0.0154 O   0  0  0  0  0  0  0  0  0  0  0  0
    3.2317    1.4026    0.6401 C   0  0  0  0  0  0  0  0  0  0  0  0
    3.7717    2.6487    0.6076 N   0  0  0  0  0  0  0  0  0  0  0  0
    5.0427    4.9171    0.6277 H   0  0  0  0  0  0  0  0  0  0  0  0
    6.4647    4.2898   -0.3103 H   0  0  0  0  0  0  0  0  0  0  0  0
    5.0480    4.8544   -1.2138 H   0  0  0  0  0  0  0  0  0  0  0  0
    5.9876    2.2902   -1.8082 H   0  0  0  0  0  0  0  0  0  0  0  0
    5.0108   -0.0320   -1.7778 H   0  0  0  0  0  0  0  0  0  0  0  0
    4.8692   -1.8918   -0.7373 H   0  0  0  0  0  0  0  0  0  0  0  0
    3.8810   -4.1742   -0.6518 H   0  0  0  0  0  0  0  0  0  0  0  0
    1.1066   -0.2610    0.4341 H   0  0  0  0  0  0  0  0  0  0  0  0
   -5.3434    1.9536   -2.0031 H   0  0  0  0  0  0  0  0  0  0  0  0
   -5.7172    3.2100    1.0247 H   0  0  0  0  0  0  0  0  0  0  0  0
   -5.2727    3.6126   -0.6543 H   0  0  0  0  0  0  0  0  0  0  0  0
   -4.0571    3.7265    0.6395 H   0  0  0  0  0  0  0  0  0  0  0  0
   -4.8865   -0.1869    1.0921 H   0  0  0  0  0  0  0  0  0  0  0  0
   -6.3481    0.6697    0.5215 H   0  0  0  0  0  0  0  0  0  0  0  0
   -5.3890    1.3506    1.9430 H   0  0  0  0  0  0  0  0  0  0  0  0
   -2.4978    2.2627   -0.2798 H   0  0  0  0  0  0  0  0  0  0  0  0
   -2.9061    1.8254    1.3905 H   0  0  0  0  0  0  0  0  0  0  0  0
   -1.6085   -3.9642    1.1980 H   0  0  0  0  0  0  0  0  0  0  0  0
   -0.3655   -3.5394    2.4007 H   0  0  0  0  0  0  0  0  0  0  0  0
   -0.4168   -5.7430    0.5129 H   0  0  0  0  0  0  0  0  0  0  0  0
    0.7436   -5.4061    1.8286 H   0  0  0  0  0  0  0  0  0  0  0  0
    2.4385    1.1362    1.3384 H   0  0  0  0  0  0  0  0  0  0  0  0
  1  2  1  0
  2  3  2  0
  3  4  1  0
  4  5  2  0
  5  6  1  0
  6  7  2  0
  7  8  1  0
  8  9  2  0
  9 10  1  0
 10 11  2  0
 10 12  1  0
 12 13  1  0
 13 14  2  0
 14 15  1  0
 15 16  2  0
 16 17  1  0
 16 18  1  0
 18 19  2  0
 18 20  1  0
 20 21  1  0
 21 22  1  0
 21 23  1  0
 21 24  1  0
 12 25  1  0
 25 26  1  0
 26 27  1  0
  5 28  1  0
 28 29  2  0
 29  2  1  0
 11  6  1  0
 17 13  1  0
 27  9  1  0
 24 15  1  0
  1 30  1  0
  1 31  1  0
  1 32  1  0
  3 33  1  0
  4 34  1  0
  7 35  1  0
  8 36  1  0
 11 37  1  0
 20 38  1  0
 22 39  1  0
 22 40  1  0
 22 41  1  0
 23 42  1  0
 23 43  1  0
 23 44  1  0
 24 45  1  0
 24 46  1  0
 25 47  1  0
 25 48  1  0
 26 49  1  0
 26 50  1  0
 28 51  1  0
M  END
$$$$
