
     RDKit          3D

 33 34  0  0  0  0  0  0  0  0999 V2000
    5.4691   -0.3248    0.4154 C   0  0  0  0  0  0  0  0  0  0  0  0
    4.4553    0.7037    0.8558 C   0  0  0  0  0  0  0  0  0  0  0  0
    3.2082    0.4704   -0.0170 C   0  0  0  0  0  0  0  0  0  0  0  0
    2.7821   -0.9463    0.2793 C   0  0  0  0  0  0  0  0  0  0  0  0
    1.6742   -1.3577   -0.3912 O   0  0  0  0  0  0  0  0  0  0  0  0
    0.4115   -0.9057   -0.2974 C   0  0  0  0  0  0  0  0  0  0  0  0
   -0.0381    0.0636    0.5365 C   0  0  0  0  0  0  0  0  0  0  0  0
   -1.3907    0.4461    0.5288 C   0  0  0  0  0  0  0  0  0  0  0  0
   -2.3132   -0.1223   -0.2987 C   0  0  0  0  0  0  0  0  0  0  0  0
   -3.7249    0.2447   -0.3387 C   0  0  0  0  0  0  0  0  0  0  0  0
   -4.2279    1.2169    0.4815 C   0  0  0  0  0  0  0  0  0  0  0  0
   -5.5831    1.5443    0.4184 C   0  0  0  0  0  0  0  0  0  0  0  0
   -6.3474    0.8888   -0.4503 N   0  0  0  0  0  0  0  0  0  0  0  0
   -5.8522   -0.0614   -1.2507 C   0  0  0  0  0  0  0  0  0  0  0  0
   -4.5700   -0.3807   -1.2005 N   0  0  0  0  0  0  0  0  0  0  0  0
   -1.8367   -1.1243   -1.1557 C   0  0  0  0  0  0  0  0  0  0  0  0
   -0.5257   -1.4992   -1.1531 C   0  0  0  0  0  0  0  0  0  0  0  0
    6.4646    0.1584    0.4823 H   0  0  0  0  0  0  0  0  0  0  0  0
    5.4057   -1.2612    0.9946 H   0  0  0  0  0  0  0  0  0  0  0  0
    5.3137   -0.5895   -0.6516 H   0  0  0  0  0  0  0  0  0  0  0  0
    4.1858    0.6038    1.9133 H   0  0  0  0  0  0  0  0  0  0  0  0
    4.8243    1.7180    0.6117 H   0  0  0  0  0  0  0  0  0  0  0  0
    2.4329    1.1895    0.1487 H   0  0  0  0  0  0  0  0  0  0  0  0
    3.5603    0.5263   -1.0952 H   0  0  0  0  0  0  0  0  0  0  0  0
    3.6206   -1.6655    0.0807 H   0  0  0  0  0  0  0  0  0  0  0  0
    2.6794   -0.9806    1.4077 H   0  0  0  0  0  0  0  0  0  0  0  0
    0.5911    0.5670    1.2495 H   0  0  0  0  0  0  0  0  0  0  0  0
   -1.7088    1.2368    1.2218 H   0  0  0  0  0  0  0  0  0  0  0  0
   -3.5987    1.7504    1.1905 H   0  0  0  0  0  0  0  0  0  0  0  0
   -5.9946    2.3104    1.0603 H   0  0  0  0  0  0  0  0  0  0  0  0
   -6.5611   -0.5520   -1.9400 H   0  0  0  0  0  0  0  0  0  0  0  0
   -2.5863   -1.5782   -1.8196 H   0  0  0  0  0  0  0  0  0  0  0  0
   -0.2194   -2.2895   -1.8490 H   0  0  0  0  0  0  0  0  0  0  0  0
  1  2  1  0
  2  3  1  0
  3  4  1  0
  4  5  1  0
  5  6  1  0
  6  7  2  0
  7  8  1  0
  8  9  2  0
  9 10  1  0
 10 11  2  0
 11 12  1  0
 12 13  2  0
 13 14  1  0
 14 15  2  0
  9 16  1  0
 16 17  2  0
 17  6  1  0
 15 10  1  0
  1 18  1  0
  1 19  1  0
  1 20  1  0
  2 21  1  0
  2 22  1  0
  3 23  1  0
  3 24  1  0
  4 25  1  0
  4 26  1  0
  7 27  1  0
  8 28  1  0
 11 29  1  0
 12 30  1  0
 14 31  1  0
 16 32  1  0
 17 33  1  0
M  END
$$$$
