
     RDKit          3D

 52 55  0  0  0  0  0  0  0  0999 V2000
    3.0600    4.2027    2.1223 N   0  0  0  0  0  0  0  0  0  0  0  0
    1.7011    4.4397    1.8003 C   0  0  0  0  0  0  0  0  0  0  0  0
    1.2031    5.5491    2.0849 O   0  0  0  0  0  0  0  0  0  0  0  0
    0.8586    3.4464    1.1517 C   0  0  0  0  0  0  0  0  0  0  0  0
   -0.4681    3.7260    0.8644 C   0  0  0  0  0  0  0  0  0  0  0  0
   -1.1375    2.7496    0.2731 N   0  0  0  0  0  0  0  0  0  0  0  0
   -0.7023    1.5343   -0.0816 C   0  0  0  0  0  0  0  0  0  0  0  0
   -1.6097    0.6301   -0.7683 N   0  0  0  0  0  0  0  0  0  0  0  0
   -1.5919    0.5078   -2.1878 C   0  0  0  0  0  0  0  0  0  0  0  0
   -1.1251   -0.7509   -2.8071 C   0  0  0  0  0  0  0  0  0  0  0  0
   -1.1967   -0.6742   -4.2323 O   0  0  0  0  0  0  0  0  0  0  0  0
   -2.5262   -0.1126    0.0356 C   0  0  1  0  0  0  0  0  0  0  0  0
   -3.9887    0.1720   -0.3070 C   0  0  0  0  0  0  0  0  0  0  0  0
   -4.7891   -0.9408    0.3634 C   0  0  0  0  0  0  0  0  0  0  0  0
   -4.1281   -1.2326    1.6866 C   0  0  0  0  0  0  0  0  0  0  0  0
   -2.9231   -1.9935    1.4345 N   0  0  0  0  0  0  0  0  0  0  0  0
   -2.2846   -1.5772    0.1774 C   0  0  0  0  0  0  0  0  0  0  0  0
    0.6293    1.1930    0.1844 C   0  0  0  0  0  0  0  0  0  0  0  0
    1.3081    0.0556   -0.0500 C   0  0  0  0  0  0  0  0  0  0  0  0
    2.5929   -0.0758    0.2954 C   0  0  0  0  0  0  0  0  0  0  0  0
    3.5260   -1.1967    0.1448 C   0  0  0  0  0  0  0  0  0  0  0  0
    3.0840   -2.3361   -0.4361 C   0  0  0  0  0  0  0  0  0  0  0  0
    4.0138   -3.3763   -0.5560 C   0  0  0  0  0  0  0  0  0  0  0  0
    5.3059   -3.2470   -0.1079 C   0  0  0  0  0  0  0  0  0  0  0  0
    5.7419   -2.0790    0.4822 C   0  0  0  0  0  0  0  0  0  0  0  0
    4.8162   -1.0511    0.5987 C   0  0  0  0  0  0  0  0  0  0  0  0
    2.9980    1.4631    1.0226 S   0  0  0  0  0  0  0  0  0  0  0  0
    1.3680    2.1938    0.8058 C   0  0  0  0  0  0  0  0  0  0  0  0
    3.6911    3.9302    1.3485 H   0  0  0  0  0  0  0  0  0  0  0  0
    3.3431    4.3171    3.1192 H   0  0  0  0  0  0  0  0  0  0  0  0
   -0.9130    4.6548    1.1012 H   0  0  0  0  0  0  0  0  0  0  0  0
   -1.0307    1.4010   -2.6322 H   0  0  0  0  0  0  0  0  0  0  0  0
   -2.6347    0.6889   -2.6261 H   0  0  0  0  0  0  0  0  0  0  0  0
   -0.0021   -0.8205   -2.6573 H   0  0  0  0  0  0  0  0  0  0  0  0
   -1.5274   -1.6870   -2.4512 H   0  0  0  0  0  0  0  0  0  0  0  0
   -1.8523    0.0308   -4.4143 H   0  0  0  0  0  0  0  0  0  0  0  0
   -2.4434    0.2932    1.1009 H   0  0  0  0  0  0  0  0  0  0  0  0
   -4.3042    1.1197    0.1704 H   0  0  0  0  0  0  0  0  0  0  0  0
   -4.1766    0.2423   -1.3736 H   0  0  0  0  0  0  0  0  0  0  0  0
   -4.7575   -1.8351   -0.2660 H   0  0  0  0  0  0  0  0  0  0  0  0
   -5.8153   -0.5423    0.5188 H   0  0  0  0  0  0  0  0  0  0  0  0
   -4.7994   -1.9209    2.2551 H   0  0  0  0  0  0  0  0  0  0  0  0
   -3.9649   -0.3348    2.2859 H   0  0  0  0  0  0  0  0  0  0  0  0
   -3.0894   -3.0125    1.4416 H   0  0  0  0  0  0  0  0  0  0  0  0
   -1.2116   -1.7598    0.3169 H   0  0  0  0  0  0  0  0  0  0  0  0
   -2.7816   -2.2136   -0.5838 H   0  0  0  0  0  0  0  0  0  0  0  0
    0.8169   -0.8257   -0.5279 H   0  0  0  0  0  0  0  0  0  0  0  0
    2.0784   -2.4855   -0.8037 H   0  0  0  0  0  0  0  0  0  0  0  0
    3.7073   -4.3034   -1.0123 H   0  0  0  0  0  0  0  0  0  0  0  0
    6.0334   -4.0563   -0.1994 H   0  0  0  0  0  0  0  0  0  0  0  0
    6.7649   -1.9657    0.8410 H   0  0  0  0  0  0  0  0  0  0  0  0
    5.1333   -0.1341    1.0542 H   0  0  0  0  0  0  0  0  0  0  0  0
  1  2  1  0
  2  3  2  0
  2  4  1  0
  4  5  2  0
  5  6  1  0
  6  7  2  0
  7  8  1  0
  8  9  1  0
  9 10  1  0
 10 11  1  0
  8 12  1  0
 12 13  1  0
 13 14  1  0
 14 15  1  0
 15 16  1  0
 16 17  1  0
  7 18  1  0
 18 19  1  0
 19 20  2  0
 20 21  1  0
 21 22  2  0
 22 23  1  0
 23 24  2  0
 24 25  1  0
 25 26  2  0
 20 27  1  0
 27 28  1  0
 28  4  1  0
 17 12  1  0
 28 18  2  0
 26 21  1  0
  1 29  1  0
  1 30  1  0
  5 31  1  0
  9 32  1  0
  9 33  1  0
 10 34  1  0
 10 35  1  0
 11 36  1  0
 12 37  1  1
 13 38  1  0
 13 39  1  0
 14 40  1  0
 14 41  1  0
 15 42  1  0
 15 43  1  0
 16 44  1  0
 17 45  1  0
 17 46  1  0
 19 47  1  0
 22 48  1  0
 23 49  1  0
 24 50  1  0
 25 51  1  0
 26 52  1  0
M  END
$$$$
