
     RDKit          3D

 68 70  0  0  0  0  0  0  0  0999 V2000
    0.2937   -1.9899   -0.9782 C   0  0  1  0  0  0  0  0  0  0  0  0
    1.5210   -1.5802   -0.2585 C   0  0  2  0  0  0  0  0  0  0  0  0
    1.5045   -1.9957    1.2077 C   0  0  0  0  0  0  0  0  0  0  0  0
    1.7145   -3.5140    1.2133 C   0  0  1  0  0  0  0  0  0  0  0  0
    1.6480   -3.9985    2.6247 C   0  0  0  0  0  0  0  0  0  0  0  0
    0.5574   -4.0855    0.4620 C   0  0  0  0  0  0  0  0  0  0  0  0
   -0.0359   -3.3853   -0.4892 C   0  0  0  0  0  0  0  0  0  0  0  0
   -1.1744   -3.9710   -1.1941 C   0  0  0  0  0  0  0  0  0  0  0  0
   -2.0074   -3.1180   -1.8161 C   0  0  0  0  0  0  0  0  0  0  0  0
   -1.9136   -1.6148   -1.8784 C   0  0  2  0  0  0  0  0  0  0  0  0
   -1.3744   -1.2878   -3.2545 C   0  0  0  0  0  0  0  0  0  0  0  0
   -0.9366   -1.1845   -0.7833 C   0  0  2  0  0  0  0  0  0  0  0  0
   -0.7925    0.2843   -0.6932 C   0  0  0  0  0  0  0  0  0  0  0  0
   -2.1114    1.0124   -0.5074 C   0  0  0  0  0  0  0  0  0  0  0  0
   -2.8354    0.6001    0.7500 C   0  0  2  0  0  0  0  0  0  0  0  0
   -4.1342    1.4187    0.7877 C   0  0  0  0  0  0  0  0  0  0  0  0
   -3.7690    2.7395    1.4323 C   0  0  1  0  0  0  0  0  0  0  0  0
   -4.6704    3.7448    1.1137 O   0  0  0  0  0  0  0  0  0  0  0  0
   -3.7079    2.4770    2.9386 C   0  0  0  0  0  0  0  0  0  0  0  0
   -2.7170    1.3644    3.1039 C   0  0  0  0  0  0  0  0  0  0  0  0
   -2.4649    0.8571    4.2370 O   0  0  0  0  0  0  0  0  0  0  0  0
   -2.1076    0.9455    1.9140 O   0  0  0  0  0  0  0  0  0  0  0  0
    1.8738   -0.2331   -0.3149 O   0  0  0  0  0  0  0  0  0  0  0  0
    3.0784    0.2315   -0.8408 C   0  0  0  0  0  0  0  0  0  0  0  0
    3.9548   -0.5596   -1.3148 O   0  0  0  0  0  0  0  0  0  0  0  0
    3.2188    1.7059   -0.7872 C   0  0  0  0  0  0  0  0  0  0  0  0
    4.5700    2.0270   -1.3936 C   0  0  0  0  0  0  0  0  0  0  0  0
    2.1876    2.3398   -1.6716 C   0  0  0  0  0  0  0  0  0  0  0  0
    3.2031    2.2530    0.6205 C   0  0  0  0  0  0  0  0  0  0  0  0
    3.3536    3.7698    0.5555 C   0  0  0  0  0  0  0  0  0  0  0  0
    0.5164   -2.1201   -2.0710 H   0  0  0  0  0  0  0  0  0  0  0  0
    2.3568   -2.2174   -0.6996 H   0  0  0  0  0  0  0  0  0  0  0  0
    0.4861   -1.7290    1.5697 H   0  0  0  0  0  0  0  0  0  0  0  0
    2.3195   -1.4515    1.7087 H   0  0  0  0  0  0  0  0  0  0  0  0
    2.6804   -3.6982    0.7119 H   0  0  0  0  0  0  0  0  0  0  0  0
    1.6578   -5.1158    2.5896 H   0  0  0  0  0  0  0  0  0  0  0  0
    2.5123   -3.6583    3.2303 H   0  0  0  0  0  0  0  0  0  0  0  0
    0.7328   -3.5983    3.0902 H   0  0  0  0  0  0  0  0  0  0  0  0
    0.1792   -5.0714    0.6713 H   0  0  0  0  0  0  0  0  0  0  0  0
   -1.3782   -5.0223   -1.2390 H   0  0  0  0  0  0  0  0  0  0  0  0
   -2.8514   -3.5550   -2.3384 H   0  0  0  0  0  0  0  0  0  0  0  0
   -2.9291   -1.2370   -1.7193 H   0  0  0  0  0  0  0  0  0  0  0  0
   -0.6057   -0.4903   -3.2393 H   0  0  0  0  0  0  0  0  0  0  0  0
   -2.2246   -0.9922   -3.9074 H   0  0  0  0  0  0  0  0  0  0  0  0
   -0.8832   -2.1711   -3.7103 H   0  0  0  0  0  0  0  0  0  0  0  0
   -1.4290   -1.5292    0.1687 H   0  0  0  0  0  0  0  0  0  0  0  0
   -0.3279    0.6940   -1.6090 H   0  0  0  0  0  0  0  0  0  0  0  0
   -0.1901    0.5900    0.2135 H   0  0  0  0  0  0  0  0  0  0  0  0
   -2.7646    0.9783   -1.3783 H   0  0  0  0  0  0  0  0  0  0  0  0
   -1.8247    2.0780   -0.3791 H   0  0  0  0  0  0  0  0  0  0  0  0
   -3.0445   -0.4728    0.8247 H   0  0  0  0  0  0  0  0  0  0  0  0
   -4.9083    0.8709    1.3621 H   0  0  0  0  0  0  0  0  0  0  0  0
   -4.5207    1.5637   -0.2418 H   0  0  0  0  0  0  0  0  0  0  0  0
   -2.7626    3.0638    1.1434 H   0  0  0  0  0  0  0  0  0  0  0  0
   -5.4051    3.4428    0.5259 H   0  0  0  0  0  0  0  0  0  0  0  0
   -3.3755    3.3555    3.5003 H   0  0  0  0  0  0  0  0  0  0  0  0
   -4.7293    2.1172    3.2219 H   0  0  0  0  0  0  0  0  0  0  0  0
    4.6061    1.4767   -2.3653 H   0  0  0  0  0  0  0  0  0  0  0  0
    4.6290    3.1049   -1.6744 H   0  0  0  0  0  0  0  0  0  0  0  0
    5.4220    1.7147   -0.7897 H   0  0  0  0  0  0  0  0  0  0  0  0
    1.3730    2.7542   -1.0500 H   0  0  0  0  0  0  0  0  0  0  0  0
    1.7889    1.5676   -2.3776 H   0  0  0  0  0  0  0  0  0  0  0  0
    2.6341    3.1154   -2.3539 H   0  0  0  0  0  0  0  0  0  0  0  0
    4.0528    1.8405    1.1616 H   0  0  0  0  0  0  0  0  0  0  0  0
    2.2144    2.0538    1.1140 H   0  0  0  0  0  0  0  0  0  0  0  0
    2.5300    4.1803   -0.0805 H   0  0  0  0  0  0  0  0  0  0  0  0
    3.2507    4.2316    1.5433 H   0  0  0  0  0  0  0  0  0  0  0  0
    4.2854    4.0830    0.0877 H   0  0  0  0  0  0  0  0  0  0  0  0
  1  2  1  0
  2  3  1  0
  3  4  1  0
  4  5  1  0
  4  6  1  0
  6  7  2  0
  7  8  1  0
  8  9  2  0
  9 10  1  0
 10 11  1  0
 10 12  1  0
 12 13  1  0
 13 14  1  0
 14 15  1  0
 15 16  1  0
 16 17  1  0
 17 18  1  0
 17 19  1  0
 19 20  1  0
 20 21  2  0
 20 22  1  0
  2 23  1  0
 23 24  1  0
 24 25  2  0
 24 26  1  0
 26 27  1  0
 26 28  1  0
 26 29  1  0
 29 30  1  0
  7  1  1  0
 22 15  1  0
 12  1  1  0
  1 31  1  6
  2 32  1  6
  3 33  1  0
  3 34  1  0
  4 35  1  6
  5 36  1  0
  5 37  1  0
  5 38  1  0
  6 39  1  0
  8 40  1  0
  9 41  1  0
 10 42  1  1
 11 43  1  0
 11 44  1  0
 11 45  1  0
 12 46  1  1
 13 47  1  0
 13 48  1  0
 14 49  1  0
 14 50  1  0
 15 51  1  6
 16 52  1  0
 16 53  1  0
 17 54  1  6
 18 55  1  0
 19 56  1  0
 19 57  1  0
 27 58  1  0
 27 59  1  0
 27 60  1  0
 28 61  1  0
 28 62  1  0
 28 63  1  0
 29 64  1  0
 29 65  1  0
 30 66  1  0
 30 67  1  0
 30 68  1  0
M  END
$$$$
