
     RDKit          3D

 58 60  0  0  0  0  0  0  0  0999 V2000
    5.6359   -1.1498    2.6362 C   0  0  0  0  0  0  0  0  0  0  0  0
    4.7604   -2.0126    1.7095 C   0  0  0  0  0  0  0  0  0  0  0  0
    5.0426   -1.6178    0.3025 C   0  0  0  0  0  0  0  0  0  0  0  0
    4.7978    0.0424   -0.1413 S   0  0  0  0  0  6  0  0  0  0  0  0
    5.7689    0.8795    0.6801 O   0  0  0  0  0  0  0  0  0  0  0  0
    5.2738    0.2031   -1.5861 O   0  0  0  0  0  0  0  0  0  0  0  0
    3.2188    0.6380   -0.0478 N   0  0  0  0  0  0  0  0  0  0  0  0
    2.7258    1.0177   -1.3619 C   0  0  0  0  0  0  0  0  0  0  0  0
    1.4136    1.7115   -1.2904 C   0  0  0  0  0  0  0  0  0  0  0  0
    0.3815    0.7680   -0.6917 C   0  0  0  0  0  0  0  0  0  0  0  0
   -0.7585    1.7040   -0.2473 C   0  0  0  0  0  0  0  0  0  0  0  0
   -1.8164    0.9364    0.3468 N   0  0  0  0  0  0  0  0  0  0  0  0
   -2.9922    1.5734    0.8638 C   0  0  0  0  0  0  0  0  0  0  0  0
   -2.9968    2.8351    0.7484 O   0  0  0  0  0  0  0  0  0  0  0  0
   -4.0745    0.8130    1.4643 C   0  0  0  0  0  0  0  0  0  0  0  0
   -3.7771   -0.1042    2.4470 C   0  0  0  0  0  0  0  0  0  0  0  0
   -4.7847   -0.8670    3.0342 C   0  0  0  0  0  0  0  0  0  0  0  0
   -6.0902   -0.7030    2.6289 C   0  0  0  0  0  0  0  0  0  0  0  0
   -6.3547    0.2362    1.6297 C   0  0  0  0  0  0  0  0  0  0  0  0
   -5.3728    0.9880    1.0499 C   0  0  0  0  0  0  0  0  0  0  0  0
   -5.7152    1.9883    0.0124 C   0  0  0  0  0  0  0  0  0  0  0  0
   -7.0843    1.9398   -0.2572 F   0  0  0  0  0  0  0  0  0  0  0  0
   -5.0481    1.8359   -1.1632 F   0  0  0  0  0  0  0  0  0  0  0  0
   -5.5094    3.2703    0.5606 F   0  0  0  0  0  0  0  0  0  0  0  0
   -0.1321   -0.0418   -1.8061 C   0  0  0  0  0  0  0  0  0  0  0  0
    0.3475   -1.2770   -2.1661 C   0  0  0  0  0  0  0  0  0  0  0  0
   -0.1564   -1.9814   -3.2377 C   0  0  0  0  0  0  0  0  0  0  0  0
   -1.1796   -1.3841   -3.9439 C   0  0  0  0  0  0  0  0  0  0  0  0
   -1.6793   -0.1487   -3.6050 C   0  0  0  0  0  0  0  0  0  0  0  0
   -1.1363    0.4729   -2.5506 N   0  0  0  0  0  0  0  0  0  0  0  0
    0.8646   -0.0126    0.4646 C   0  0  0  0  0  0  0  0  0  0  0  0
    2.3262   -0.1935    0.6594 C   0  0  0  0  0  0  0  0  0  0  0  0
    6.5689   -0.8488    2.1423 H   0  0  0  0  0  0  0  0  0  0  0  0
    5.0355   -0.2510    2.9529 H   0  0  0  0  0  0  0  0  0  0  0  0
    5.8692   -1.7274    3.5469 H   0  0  0  0  0  0  0  0  0  0  0  0
    5.2051   -3.0759    1.8130 H   0  0  0  0  0  0  0  0  0  0  0  0
    3.7479   -2.1090    2.0521 H   0  0  0  0  0  0  0  0  0  0  0  0
    6.1025   -1.9646    0.0903 H   0  0  0  0  0  0  0  0  0  0  0  0
    4.4348   -2.2952   -0.3795 H   0  0  0  0  0  0  0  0  0  0  0  0
    2.6238    0.0920   -1.9541 H   0  0  0  0  0  0  0  0  0  0  0  0
    3.5071    1.6561   -1.8596 H   0  0  0  0  0  0  0  0  0  0  0  0
    1.0719    1.9483   -2.3194 H   0  0  0  0  0  0  0  0  0  0  0  0
    1.4563    2.6513   -0.6844 H   0  0  0  0  0  0  0  0  0  0  0  0
   -1.0800    2.3772   -1.0565 H   0  0  0  0  0  0  0  0  0  0  0  0
   -0.3345    2.3391    0.5757 H   0  0  0  0  0  0  0  0  0  0  0  0
   -1.7512   -0.0814    0.4146 H   0  0  0  0  0  0  0  0  0  0  0  0
   -2.7687   -0.2739    2.8053 H   0  0  0  0  0  0  0  0  0  0  0  0
   -4.5431   -1.5764    3.7962 H   0  0  0  0  0  0  0  0  0  0  0  0
   -6.9245   -1.2735    3.0503 H   0  0  0  0  0  0  0  0  0  0  0  0
   -7.3851    0.3514    1.3275 H   0  0  0  0  0  0  0  0  0  0  0  0
    1.1438   -1.7141   -1.5869 H   0  0  0  0  0  0  0  0  0  0  0  0
    0.2676   -2.9521   -3.4678 H   0  0  0  0  0  0  0  0  0  0  0  0
   -1.5978   -1.9099   -4.7884 H   0  0  0  0  0  0  0  0  0  0  0  0
   -2.4840    0.2494   -4.2108 H   0  0  0  0  0  0  0  0  0  0  0  0
    0.3554   -1.0240    0.5433 H   0  0  0  0  0  0  0  0  0  0  0  0
    0.4764    0.4982    1.4029 H   0  0  0  0  0  0  0  0  0  0  0  0
    2.5587   -0.1928    1.7710 H   0  0  0  0  0  0  0  0  0  0  0  0
    2.5453   -1.2530    0.3298 H   0  0  0  0  0  0  0  0  0  0  0  0
  1  2  1  0
  2  3  1  0
  3  4  1  0
  4  5  2  0
  4  6  2  0
  4  7  1  0
  7  8  1  0
  8  9  1  0
  9 10  1  0
 10 11  1  0
 11 12  1  0
 12 13  1  0
 13 14  2  0
 13 15  1  0
 15 16  2  0
 16 17  1  0
 17 18  2  0
 18 19  1  0
 19 20  2  0
 20 21  1  0
 21 22  1  0
 21 23  1  0
 21 24  1  0
 10 25  1  0
 25 26  2  0
 26 27  1  0
 27 28  2  0
 28 29  1  0
 29 30  2  0
 10 31  1  0
 31 32  1  0
 32  7  1  0
 20 15  1  0
 30 25  1  0
  1 33  1  0
  1 34  1  0
  1 35  1  0
  2 36  1  0
  2 37  1  0
  3 38  1  0
  3 39  1  0
  8 40  1  0
  8 41  1  0
  9 42  1  0
  9 43  1  0
 11 44  1  0
 11 45  1  0
 12 46  1  0
 16 47  1  0
 17 48  1  0
 18 49  1  0
 19 50  1  0
 26 51  1  0
 27 52  1  0
 28 53  1  0
 29 54  1  0
 31 55  1  0
 31 56  1  0
 32 57  1  0
 32 58  1  0
M  END
$$$$
