
     RDKit          3D

 48 50  0  0  0  0  0  0  0  0999 V2000
    5.5924   -1.7934    0.0805 C   0  0  0  0  0  0  0  0  0  0  0  0
    4.5204   -1.3283    1.0769 C   0  0  0  0  0  0  0  0  0  0  0  0
    3.8729   -0.1665    0.5804 N   0  0  0  0  0  0  0  0  0  0  0  0
    4.6553    1.0052    0.5392 C   0  0  0  0  0  0  0  0  0  0  0  0
    3.9316    2.2169   -0.0115 C   0  0  0  0  0  0  0  0  0  0  0  0
    2.4696   -0.0403    0.8212 C   0  0  0  0  0  0  0  0  0  0  0  0
    1.7401   -1.0639   -0.0165 C   0  0  0  0  0  0  0  0  0  0  0  0
    0.3195   -1.0699    0.1283 N   0  0  0  0  0  0  0  0  0  0  0  0
   -0.5719   -0.0587   -0.3864 C   0  0  0  0  0  0  0  0  0  0  0  0
   -1.9523   -0.0499   -0.2064 C   0  0  0  0  0  0  0  0  0  0  0  0
   -2.5373   -1.0276    0.5606 C   0  0  0  0  0  0  0  0  0  0  0  0
   -1.8858   -1.9453    1.1084 O   0  0  0  0  0  0  0  0  0  0  0  0
   -3.8598   -1.1410    0.8286 C   0  0  0  0  0  0  0  0  0  0  0  0
   -4.4031   -2.1673    1.6238 C   0  0  0  0  0  0  0  0  0  0  0  0
   -5.7419   -2.3038    1.9093 C   0  0  0  0  0  0  0  0  0  0  0  0
   -6.6525   -1.4045    1.4090 C   0  0  0  0  0  0  0  0  0  0  0  0
   -6.2081   -0.3455    0.6052 C   0  0  0  0  0  0  0  0  0  0  0  0
   -4.8514   -0.3045    0.3848 C   0  0  0  0  0  0  0  0  0  0  0  0
   -4.3345    1.0105   -0.6082 S   0  0  0  0  0  0  0  0  0  0  0  0
   -2.6221    0.9828   -0.8323 C   0  0  0  0  0  0  0  0  0  0  0  0
   -2.0373    1.9700   -1.5964 C   0  0  0  0  0  0  0  0  0  0  0  0
   -2.9037    3.0290   -2.2181 C   0  0  0  0  0  0  0  0  0  0  0  0
   -0.6452    1.9304   -1.7568 C   0  0  0  0  0  0  0  0  0  0  0  0
    0.0456    0.9111   -1.1426 C   0  0  0  0  0  0  0  0  0  0  0  0
    6.4920   -1.2024    0.2790 H   0  0  0  0  0  0  0  0  0  0  0  0
    5.7534   -2.8979    0.2086 H   0  0  0  0  0  0  0  0  0  0  0  0
    5.1799   -1.6655   -0.9382 H   0  0  0  0  0  0  0  0  0  0  0  0
    3.7794   -2.1218    1.2793 H   0  0  0  0  0  0  0  0  0  0  0  0
    5.0696   -1.0971    2.0502 H   0  0  0  0  0  0  0  0  0  0  0  0
    5.0546    1.2663    1.5617 H   0  0  0  0  0  0  0  0  0  0  0  0
    5.5162    0.8140   -0.1427 H   0  0  0  0  0  0  0  0  0  0  0  0
    4.7019    2.9288   -0.4181 H   0  0  0  0  0  0  0  0  0  0  0  0
    3.4785    2.7491    0.8564 H   0  0  0  0  0  0  0  0  0  0  0  0
    3.2192    1.9811   -0.8153 H   0  0  0  0  0  0  0  0  0  0  0  0
    2.1821    0.9986    0.6260 H   0  0  0  0  0  0  0  0  0  0  0  0
    2.3263   -0.2825    1.9256 H   0  0  0  0  0  0  0  0  0  0  0  0
    1.9570   -0.7495   -1.0948 H   0  0  0  0  0  0  0  0  0  0  0  0
    2.1970   -2.0447    0.0968 H   0  0  0  0  0  0  0  0  0  0  0  0
    0.1498   -1.9357    0.6665 H   0  0  0  0  0  0  0  0  0  0  0  0
   -3.7344   -2.9205    2.0549 H   0  0  0  0  0  0  0  0  0  0  0  0
   -6.0801   -3.1259    2.5330 H   0  0  0  0  0  0  0  0  0  0  0  0
   -7.6899   -1.4744    1.6007 H   0  0  0  0  0  0  0  0  0  0  0  0
   -6.8916    0.3629    0.2069 H   0  0  0  0  0  0  0  0  0  0  0  0
   -2.2802    3.8151   -2.6654 H   0  0  0  0  0  0  0  0  0  0  0  0
   -3.6190    3.4075   -1.4922 H   0  0  0  0  0  0  0  0  0  0  0  0
   -3.5016    2.5688   -3.0514 H   0  0  0  0  0  0  0  0  0  0  0  0
   -0.2873    2.7297   -2.3579 H   0  0  0  0  0  0  0  0  0  0  0  0
    1.0866    1.0505   -1.3951 H   0  0  0  0  0  0  0  0  0  0  0  0
  1  2  1  0
  2  3  1  0
  3  4  1  0
  4  5  1  0
  3  6  1  0
  6  7  1  0
  7  8  1  0
  8  9  1  0
  9 10  2  0
 10 11  1  0
 11 12  2  0
 11 13  1  0
 13 14  2  0
 14 15  1  0
 15 16  2  0
 16 17  1  0
 17 18  2  0
 18 19  1  0
 19 20  1  0
 20 21  2  0
 21 22  1  0
 21 23  1  0
 23 24  2  0
 24  9  1  0
 20 10  1  0
 18 13  1  0
  1 25  1  0
  1 26  1  0
  1 27  1  0
  2 28  1  0
  2 29  1  0
  4 30  1  0
  4 31  1  0
  5 32  1  0
  5 33  1  0
  5 34  1  0
  6 35  1  0
  6 36  1  0
  7 37  1  0
  7 38  1  0
  8 39  1  0
 14 40  1  0
 15 41  1  0
 16 42  1  0
 17 43  1  0
 22 44  1  0
 22 45  1  0
 22 46  1  0
 23 47  1  0
 24 48  1  0
M  END
$$$$
