
     RDKit          3D

 66 70  0  0  0  0  0  0  0  0999 V2000
   10.7965    1.7584   -0.7529 C   0  0  0  0  0  0  0  0  0  0  0  0
    9.5959    2.5059   -0.8086 O   0  0  0  0  0  0  0  0  0  0  0  0
    8.3857    1.9064   -0.5307 C   0  0  0  0  0  0  0  0  0  0  0  0
    7.2221    2.6374   -0.5868 C   0  0  0  0  0  0  0  0  0  0  0  0
    6.0311    2.0180   -0.3057 C   0  0  0  0  0  0  0  0  0  0  0  0
    5.9434    0.6825    0.0345 C   0  0  0  0  0  0  0  0  0  0  0  0
    4.6130    0.1230    0.3154 C   0  0  2  0  0  0  0  0  0  0  0  0
    4.0960    0.7796    1.4384 O   0  0  0  0  0  0  0  0  0  0  0  0
    4.7047   -1.3445    0.6636 C   0  0  0  0  0  0  0  0  0  0  0  0
    3.3936   -2.0311    0.7973 C   0  0  0  0  0  0  0  0  0  0  0  0
    2.3409   -1.4258   -0.1083 C   0  0  2  0  0  0  0  0  0  0  0  0
    1.3521   -2.3798   -0.4909 N   0  0  0  0  0  0  0  0  0  0  0  0
    0.3258   -1.7860   -1.3204 C   0  0  0  0  0  0  0  0  0  0  0  0
   -0.5111   -1.5834   -0.0686 C   0  0  0  0  0  0  0  0  0  0  0  0
   -1.9014   -1.9161   -0.3490 N   0  0  0  0  0  0  0  0  0  0  0  0
   -2.9691   -1.0432   -0.0104 C   0  0  0  0  0  0  0  0  0  0  0  0
   -2.7379    0.0539    0.5487 O   0  0  0  0  0  0  0  0  0  0  0  0
   -4.3937   -1.3821   -0.2982 C   0  0  0  0  0  0  0  0  0  0  0  0
   -5.2884   -0.3501    0.1390 N   0  0  0  0  0  0  0  0  0  0  0  0
   -6.6830   -0.5091   -0.0813 C   0  0  0  0  0  0  0  0  0  0  0  0
   -7.3034   -1.5409   -0.6771 N   0  0  0  0  0  0  0  0  0  0  0  0
   -8.6173   -1.3516   -0.7133 N   0  0  0  0  0  0  0  0  0  0  0  0
   -8.9102   -0.1697   -0.1331 C   0  0  0  0  0  0  0  0  0  0  0  0
  -10.0731    0.5310    0.1099 C   0  0  0  0  0  0  0  0  0  0  0  0
  -10.0086    1.7646    0.7535 C   0  0  0  0  0  0  0  0  0  0  0  0
   -8.8067    2.2764    1.1404 C   0  0  0  0  0  0  0  0  0  0  0  0
   -8.6812    3.5989    1.8379 C   0  0  0  0  0  0  0  0  0  0  0  0
   -7.4405    4.1387    1.5695 F   0  0  0  0  0  0  0  0  0  0  0  0
   -8.6955    3.3133    3.2113 F   0  0  0  0  0  0  0  0  0  0  0  0
   -9.7196    4.4064    1.4730 F   0  0  0  0  0  0  0  0  0  0  0  0
   -7.6312    1.5885    0.9049 C   0  0  0  0  0  0  0  0  0  0  0  0
   -7.7049    0.3720    0.2693 C   0  0  0  0  0  0  0  0  0  0  0  0
    0.3314   -2.6781    0.4942 C   0  0  0  0  0  0  0  0  0  0  0  0
    3.0860   -0.9458   -1.3415 C   0  0  0  0  0  0  0  0  0  0  0  0
    3.7618    0.3475   -0.9210 C   0  0  0  0  0  0  0  0  0  0  0  0
    7.1282   -0.0179    0.0811 C   0  0  0  0  0  0  0  0  0  0  0  0
    8.2957    0.5897   -0.1952 N   0  0  0  0  0  0  0  0  0  0  0  0
   11.4914    2.2809   -0.0781 H   0  0  0  0  0  0  0  0  0  0  0  0
   10.6342    0.7232   -0.3977 H   0  0  0  0  0  0  0  0  0  0  0  0
   11.2243    1.7112   -1.7813 H   0  0  0  0  0  0  0  0  0  0  0  0
    7.2725    3.6817   -0.8505 H   0  0  0  0  0  0  0  0  0  0  0  0
    5.1302    2.6185   -0.3578 H   0  0  0  0  0  0  0  0  0  0  0  0
    4.8373    0.7122    2.1237 H   0  0  0  0  0  0  0  0  0  0  0  0
    5.3111   -1.9096   -0.0750 H   0  0  0  0  0  0  0  0  0  0  0  0
    5.2436   -1.4075    1.6317 H   0  0  0  0  0  0  0  0  0  0  0  0
    3.0195   -2.0296    1.8630 H   0  0  0  0  0  0  0  0  0  0  0  0
    3.4663   -3.1062    0.5272 H   0  0  0  0  0  0  0  0  0  0  0  0
    1.8499   -0.5481    0.3412 H   0  0  0  0  0  0  0  0  0  0  0  0
    0.5243   -0.8124   -1.7662 H   0  0  0  0  0  0  0  0  0  0  0  0
   -0.1549   -2.5088   -2.0280 H   0  0  0  0  0  0  0  0  0  0  0  0
   -0.4087   -0.6094    0.4163 H   0  0  0  0  0  0  0  0  0  0  0  0
   -2.1685   -2.8157   -0.8122 H   0  0  0  0  0  0  0  0  0  0  0  0
   -4.6120   -2.2772    0.3588 H   0  0  0  0  0  0  0  0  0  0  0  0
   -4.5366   -1.6798   -1.3357 H   0  0  0  0  0  0  0  0  0  0  0  0
   -4.9105    0.4929    0.6055 H   0  0  0  0  0  0  0  0  0  0  0  0
   -9.3207   -2.0111   -1.1259 H   0  0  0  0  0  0  0  0  0  0  0  0
  -11.0309    0.1342   -0.1925 H   0  0  0  0  0  0  0  0  0  0  0  0
  -10.9010    2.3550    0.9680 H   0  0  0  0  0  0  0  0  0  0  0  0
   -6.6833    1.9845    1.2054 H   0  0  0  0  0  0  0  0  0  0  0  0
   -0.0780   -3.7012    0.3608 H   0  0  0  0  0  0  0  0  0  0  0  0
    0.6900   -2.4866    1.5249 H   0  0  0  0  0  0  0  0  0  0  0  0
    2.4871   -0.8508   -2.2359 H   0  0  0  0  0  0  0  0  0  0  0  0
    3.9305   -1.6490   -1.5935 H   0  0  0  0  0  0  0  0  0  0  0  0
    4.3124    0.7690   -1.7667 H   0  0  0  0  0  0  0  0  0  0  0  0
    2.9498    1.0486   -0.6286 H   0  0  0  0  0  0  0  0  0  0  0  0
    7.1038   -1.0456    0.3394 H   0  0  0  0  0  0  0  0  0  0  0  0
  1  2  1  0
  2  3  1  0
  3  4  2  0
  4  5  1  0
  5  6  2  0
  6  7  1  0
  7  8  1  1
  7  9  1  0
  9 10  1  0
 10 11  1  0
 11 12  1  0
 12 13  1  0
 13 14  1  0
 14 15  1  0
 15 16  1  0
 16 17  2  0
 16 18  1  0
 18 19  1  0
 19 20  1  0
 20 21  2  0
 21 22  1  0
 22 23  1  0
 23 24  2  0
 24 25  1  0
 25 26  2  0
 26 27  1  0
 27 28  1  0
 27 29  1  0
 27 30  1  0
 26 31  1  0
 31 32  2  0
 14 33  1  0
 11 34  1  0
 34 35  1  0
  6 36  1  0
 36 37  2  0
 37  3  1  0
 35  7  1  0
 33 12  1  0
 32 20  1  0
 32 23  1  0
  1 38  1  0
  1 39  1  0
  1 40  1  0
  4 41  1  0
  5 42  1  0
  8 43  1  0
  9 44  1  0
  9 45  1  0
 10 46  1  0
 10 47  1  0
 11 48  1  1
 13 49  1  0
 13 50  1  0
 14 51  1  0
 15 52  1  0
 18 53  1  0
 18 54  1  0
 19 55  1  0
 22 56  1  0
 24 57  1  0
 25 58  1  0
 31 59  1  0
 33 60  1  0
 33 61  1  0
 34 62  1  0
 34 63  1  0
 35 64  1  0
 35 65  1  0
 36 66  1  0
M  END
$$$$
