
     RDKit          3D

 47 49  0  0  0  0  0  0  0  0999 V2000
   -7.6459    1.3946    1.1709 C   0  0  0  0  0  0  0  0  0  0  0  0
   -6.3447    0.8408    0.6900 C   0  0  0  0  0  0  0  0  0  0  0  0
   -6.3042   -0.2336   -0.1689 C   0  0  0  0  0  0  0  0  0  0  0  0
   -5.0621   -0.6922   -0.5720 C   0  0  0  0  0  0  0  0  0  0  0  0
   -3.8658   -0.1682   -0.1895 C   0  0  0  0  0  0  0  0  0  0  0  0
   -3.9931    0.9176    0.6811 C   0  0  0  0  0  0  0  0  0  0  0  0
   -5.1931    1.4327    1.1281 C   0  0  0  0  0  0  0  0  0  0  0  0
   -5.2254    2.4903    1.9735 F   0  0  0  0  0  0  0  0  0  0  0  0
   -2.5664   -0.6343   -0.6007 C   0  0  0  0  0  0  0  0  0  0  0  0
   -1.4707   -0.0075   -0.1329 N   0  0  0  0  0  0  0  0  0  0  0  0
   -0.2051   -0.3441   -0.4405 C   0  0  0  0  0  0  0  0  0  0  0  0
   -0.1148   -1.4150   -1.2996 C   0  0  0  0  0  0  0  0  0  0  0  0
   -1.1929   -2.1024   -1.8164 C   0  0  0  0  0  0  0  0  0  0  0  0
   -2.4651   -1.7064   -1.4610 C   0  0  0  0  0  0  0  0  0  0  0  0
    0.9430    0.3690    0.0968 C   0  0  0  0  0  0  0  0  0  0  0  0
    0.6619    1.6162    0.1628 O   0  0  0  0  0  0  0  0  0  0  0  0
    2.1907   -0.1721    0.4984 N   0  0  0  0  0  0  0  0  0  0  0  0
    2.7575   -1.5046    0.5257 C   0  0  0  0  0  0  0  0  0  0  0  0
    3.7781   -1.5852   -0.5548 C   0  0  0  0  0  0  0  0  0  0  0  0
    4.5269   -0.3263   -0.7593 C   0  0  0  0  0  0  0  0  0  0  0  0
    4.5034    0.6543    0.3808 C   0  0  0  0  0  0  0  0  0  0  0  0
    4.8671    2.0134   -0.1830 C   0  0  0  0  0  0  0  0  0  0  0  0
    5.5880    0.2662    1.3621 C   0  0  0  0  0  0  0  0  0  0  0  0
    3.1585    0.7980    1.0192 C   0  0  0  0  0  0  0  0  0  0  0  0
   -8.0454    0.8346    2.0463 H   0  0  0  0  0  0  0  0  0  0  0  0
   -8.4136    1.3329    0.3624 H   0  0  0  0  0  0  0  0  0  0  0  0
   -7.4953    2.4763    1.4148 H   0  0  0  0  0  0  0  0  0  0  0  0
   -7.2344   -0.6775   -0.4956 H   0  0  0  0  0  0  0  0  0  0  0  0
   -5.0764   -1.5370   -1.2457 H   0  0  0  0  0  0  0  0  0  0  0  0
   -3.1077    1.4166    1.0528 H   0  0  0  0  0  0  0  0  0  0  0  0
    0.8590   -1.7662   -1.6101 H   0  0  0  0  0  0  0  0  0  0  0  0
   -1.0751   -2.9477   -2.4963 H   0  0  0  0  0  0  0  0  0  0  0  0
   -3.2835   -2.2474   -1.8687 H   0  0  0  0  0  0  0  0  0  0  0  0
    3.2427   -1.7064    1.5246 H   0  0  0  0  0  0  0  0  0  0  0  0
    1.9829   -2.2911    0.4550 H   0  0  0  0  0  0  0  0  0  0  0  0
    3.2439   -1.8028   -1.5207 H   0  0  0  0  0  0  0  0  0  0  0  0
    4.4534   -2.4683   -0.4331 H   0  0  0  0  0  0  0  0  0  0  0  0
    5.5948   -0.5720   -0.9465 H   0  0  0  0  0  0  0  0  0  0  0  0
    4.2119    0.2266   -1.6860 H   0  0  0  0  0  0  0  0  0  0  0  0
    4.2674    2.2871   -1.0710 H   0  0  0  0  0  0  0  0  0  0  0  0
    4.8500    2.7915    0.6066 H   0  0  0  0  0  0  0  0  0  0  0  0
    5.9261    1.9308   -0.5260 H   0  0  0  0  0  0  0  0  0  0  0  0
    6.0431   -0.7312    1.1112 H   0  0  0  0  0  0  0  0  0  0  0  0
    6.4423    0.9754    1.3421 H   0  0  0  0  0  0  0  0  0  0  0  0
    5.2225    0.2895    2.4233 H   0  0  0  0  0  0  0  0  0  0  0  0
    3.2891    0.4690    2.0925 H   0  0  0  0  0  0  0  0  0  0  0  0
    2.7766    1.8162    1.0741 H   0  0  0  0  0  0  0  0  0  0  0  0
  1  2  1  0
  2  3  2  0
  3  4  1  0
  4  5  2  0
  5  6  1  0
  6  7  2  0
  7  8  1  0
  5  9  1  0
  9 10  2  0
 10 11  1  0
 11 12  2  0
 12 13  1  0
 13 14  2  0
 11 15  1  0
 15 16  2  0
 15 17  1  0
 17 18  1  0
 18 19  1  0
 19 20  1  0
 20 21  1  0
 21 22  1  0
 21 23  1  0
 21 24  1  0
  7  2  1  0
 14  9  1  0
 24 17  1  0
  1 25  1  0
  1 26  1  0
  1 27  1  0
  3 28  1  0
  4 29  1  0
  6 30  1  0
 12 31  1  0
 13 32  1  0
 14 33  1  0
 18 34  1  0
 18 35  1  0
 19 36  1  0
 19 37  1  0
 20 38  1  0
 20 39  1  0
 22 40  1  0
 22 41  1  0
 22 42  1  0
 23 43  1  0
 23 44  1  0
 23 45  1  0
 24 46  1  0
 24 47  1  0
M  END
$$$$
