
     RDKit          3D

135138  0  0  0  0  0  0  0  0999 V2000
    2.4775   -1.2702    1.7193 C   0  0  2  0  0  0  0  0  0  0  0  0
    2.2304   -2.7163    2.1094 C   0  0  0  0  0  0  0  0  0  0  0  0
    1.2738   -0.4833    1.9870 C   0  0  0  0  0  0  0  0  0  0  0  0
    0.0033   -0.8964    1.2881 C   0  0  0  0  0  0  0  0  0  0  0  0
   -1.1417    0.0138    1.6722 C   0  0  0  0  0  0  0  0  0  0  0  0
   -0.7695    1.1098    2.2166 O   0  0  0  0  0  0  0  0  0  0  0  0
   -2.5259   -0.3209    1.4435 N   0  0  0  0  0  0  0  0  0  0  0  0
   -2.8626   -1.5771    0.8708 C   0  0  0  0  0  0  0  0  0  0  0  0
   -2.9452   -1.6652   -0.6099 C   0  0  0  0  0  0  0  0  0  0  0  0
   -3.3203   -3.1316   -0.9438 C   0  0  0  0  0  0  0  0  0  0  0  0
   -4.5742   -3.4188   -0.3123 N   0  0  0  0  0  0  0  0  0  0  0  0
   -5.3283   -4.3455   -0.7251 C   0  0  0  0  0  0  0  0  0  0  0  0
   -5.8055   -3.6548    0.3576 O   0  0  0  0  0  0  0  0  0  0  0  0
   -5.2373   -5.3429   -1.8413 C   0  0  2  0  0  0  0  0  0  0  0  0
   -6.3373   -5.2474   -2.6514 O   0  0  0  0  0  0  0  0  0  0  0  0
   -5.1125   -6.7269   -1.2871 C   0  0  1  0  0  0  0  0  0  0  0  0
   -3.9256   -6.7250   -0.4994 O   0  0  0  0  0  0  0  0  0  0  0  0
   -6.2138   -7.0647   -0.3016 C   0  0  2  0  0  0  0  0  0  0  0  0
   -5.9258   -8.3193    0.2782 O   0  0  0  0  0  0  0  0  0  0  0  0
   -7.5802   -7.1180   -0.9008 C   0  0  2  0  0  0  0  0  0  0  0  0
   -8.4735   -7.4253    0.1392 O   0  0  0  0  0  0  0  0  0  0  0  0
   -7.7477   -8.1938   -1.9317 C   0  0  0  0  0  0  0  0  0  0  0  0
   -9.0854   -8.1551   -2.3650 O   0  0  0  0  0  0  0  0  0  0  0  0
   -3.5463    0.6256    1.8053 C   0  0  0  0  0  0  0  0  0  0  0  0
   -3.9340    1.5385    0.6971 C   0  0  0  0  0  0  0  0  0  0  0  0
   -2.7577    2.3436    0.2069 C   0  0  0  0  0  0  0  0  0  0  0  0
   -3.2607    3.1742   -0.8741 N   0  0  0  0  0  0  0  0  0  0  0  0
   -3.7640    4.3202   -0.5820 C   0  0  0  0  0  0  0  0  0  0  0  0
   -4.1847    4.9611   -1.7260 O   0  0  0  0  0  0  0  0  0  0  0  0
   -4.0582    5.2211    0.5974 C   0  0  2  0  0  0  0  0  0  0  0  0
   -3.6992    4.6445    1.7902 O   0  0  0  0  0  0  0  0  0  0  0  0
   -5.5123    5.5795    0.5286 C   0  0  1  0  0  0  0  0  0  0  0  0
   -6.3330    4.4520    0.6688 O   0  0  0  0  0  0  0  0  0  0  0  0
   -5.8905    6.5079    1.6650 C   0  0  2  0  0  0  0  0  0  0  0  0
   -7.2574    6.7959    1.4766 O   0  0  0  0  0  0  0  0  0  0  0  0
   -5.0716    7.7616    1.5555 C   0  0  2  0  0  0  0  0  0  0  0  0
   -5.5602    8.6292    2.5622 O   0  0  0  0  0  0  0  0  0  0  0  0
   -5.3095    8.3839    0.1903 C   0  0  0  0  0  0  0  0  0  0  0  0
   -4.6120    9.6153    0.1966 O   0  0  0  0  0  0  0  0  0  0  0  0
    3.2560   -1.2009    0.5157 C   0  0  1  0  0  0  0  0  0  0  0  0
    2.8219   -1.7872   -0.7694 C   0  0  0  0  0  0  0  0  0  0  0  0
    3.6690   -1.0780   -1.8500 C   0  0  0  0  0  0  0  0  0  0  0  0
    4.6782   -0.4028   -1.0131 C   0  0  1  0  0  0  0  0  0  0  0  0
    5.5960    0.5774   -1.5877 C   0  0  2  0  0  0  0  0  0  0  0  0
    6.4504   -0.0337   -2.6405 C   0  0  0  0  0  0  0  0  0  0  0  0
    7.7797   -0.5462   -2.1404 C   0  0  0  0  0  0  0  0  0  0  0  0
    8.6116    0.4738   -1.4324 C   0  0  2  0  0  0  0  0  0  0  0  0
    9.3254   -0.2921   -0.3117 C   0  0  0  0  0  0  0  0  0  0  0  0
   10.2335    0.5725    0.5004 C   0  0  2  0  0  0  0  0  0  0  0  0
    9.9500    0.2785    1.8531 O   0  0  0  0  0  0  0  0  0  0  0  0
    9.9602    2.0479    0.3020 C   0  0  0  0  0  0  0  0  0  0  0  0
    8.4420    2.2084    0.3782 C   0  0  0  0  0  0  0  0  0  0  0  0
    7.7738    1.6183   -0.8418 C   0  0  1  0  0  0  0  0  0  0  0  0
    7.6629    2.6982   -1.8676 C   0  0  0  0  0  0  0  0  0  0  0  0
    6.5007    0.9879   -0.4231 C   0  0  1  0  0  0  0  0  0  0  0  0
    5.6442    1.7597    0.5291 C   0  0  0  0  0  0  0  0  0  0  0  0
    4.6488    0.7927    1.1381 C   0  0  2  0  0  0  0  0  0  0  0  0
    5.3340   -0.2224    1.7947 O   0  0  0  0  0  0  0  0  0  0  0  0
    3.7823    0.1491    0.0931 C   0  0  2  0  0  0  0  0  0  0  0  0
    2.7895    1.0493   -0.5521 C   0  0  0  0  0  0  0  0  0  0  0  0
    3.2263   -0.9496    2.5595 H   0  0  0  0  0  0  0  0  0  0  0  0
    1.6690   -2.7594    3.0860 H   0  0  0  0  0  0  0  0  0  0  0  0
    3.1722   -3.2705    2.3003 H   0  0  0  0  0  0  0  0  0  0  0  0
    1.6832   -3.2766    1.3357 H   0  0  0  0  0  0  0  0  0  0  0  0
    1.4213    0.6305    1.9388 H   0  0  0  0  0  0  0  0  0  0  0  0
    1.0379   -0.6136    3.0909 H   0  0  0  0  0  0  0  0  0  0  0  0
   -0.3249   -1.9081    1.5689 H   0  0  0  0  0  0  0  0  0  0  0  0
    0.0668   -0.7501    0.1707 H   0  0  0  0  0  0  0  0  0  0  0  0
   -2.2341   -2.4272    1.2203 H   0  0  0  0  0  0  0  0  0  0  0  0
   -3.9034   -1.8342    1.2527 H   0  0  0  0  0  0  0  0  0  0  0  0
   -3.7230   -1.0775   -1.1012 H   0  0  0  0  0  0  0  0  0  0  0  0
   -1.9823   -1.5140   -1.1299 H   0  0  0  0  0  0  0  0  0  0  0  0
   -2.4950   -3.8146   -0.6702 H   0  0  0  0  0  0  0  0  0  0  0  0
   -3.4507   -3.2303   -2.0397 H   0  0  0  0  0  0  0  0  0  0  0  0
   -6.6849   -3.9494    0.8072 H   0  0  0  0  0  0  0  0  0  0  0  0
   -4.3449   -5.1082   -2.4631 H   0  0  0  0  0  0  0  0  0  0  0  0
   -6.7714   -4.3520   -2.6102 H   0  0  0  0  0  0  0  0  0  0  0  0
   -4.9710   -7.4522   -2.0832 H   0  0  0  0  0  0  0  0  0  0  0  0
   -4.1591   -6.4036    0.4158 H   0  0  0  0  0  0  0  0  0  0  0  0
   -6.1980   -6.3028    0.4997 H   0  0  0  0  0  0  0  0  0  0  0  0
   -5.3779   -8.8362   -0.3597 H   0  0  0  0  0  0  0  0  0  0  0  0
   -7.9102   -6.1500   -1.2955 H   0  0  0  0  0  0  0  0  0  0  0  0
   -8.3335   -8.3874    0.3478 H   0  0  0  0  0  0  0  0  0  0  0  0
   -7.5518   -9.2056   -1.5065 H   0  0  0  0  0  0  0  0  0  0  0  0
   -7.1258   -8.0135   -2.8439 H   0  0  0  0  0  0  0  0  0  0  0  0
   -9.7146   -8.1791   -1.5909 H   0  0  0  0  0  0  0  0  0  0  0  0
   -4.4381    0.1132    2.2690 H   0  0  0  0  0  0  0  0  0  0  0  0
   -3.1500    1.2421    2.6641 H   0  0  0  0  0  0  0  0  0  0  0  0
   -4.7748    2.2336    1.0202 H   0  0  0  0  0  0  0  0  0  0  0  0
   -4.3298    1.0083   -0.1976 H   0  0  0  0  0  0  0  0  0  0  0  0
   -2.3475    2.9387    1.0295 H   0  0  0  0  0  0  0  0  0  0  0  0
   -2.0173    1.5899   -0.1872 H   0  0  0  0  0  0  0  0  0  0  0  0
   -4.1363    4.5760   -2.6538 H   0  0  0  0  0  0  0  0  0  0  0  0
   -3.4285    6.1139    0.4216 H   0  0  0  0  0  0  0  0  0  0  0  0
   -4.4480    4.3789    2.3778 H   0  0  0  0  0  0  0  0  0  0  0  0
   -5.7335    5.9832   -0.4716 H   0  0  0  0  0  0  0  0  0  0  0  0
   -6.5711    4.2950    1.6137 H   0  0  0  0  0  0  0  0  0  0  0  0
   -5.7081    5.9631    2.6092 H   0  0  0  0  0  0  0  0  0  0  0  0
   -7.7427    6.2466    2.1515 H   0  0  0  0  0  0  0  0  0  0  0  0
   -4.0181    7.5241    1.7167 H   0  0  0  0  0  0  0  0  0  0  0  0
   -6.3241    9.1092    2.1348 H   0  0  0  0  0  0  0  0  0  0  0  0
   -4.8516    7.7976   -0.6095 H   0  0  0  0  0  0  0  0  0  0  0  0
   -6.3845    8.5355    0.0300 H   0  0  0  0  0  0  0  0  0  0  0  0
   -4.8520   10.1111   -0.6476 H   0  0  0  0  0  0  0  0  0  0  0  0
    4.2248   -1.7640    0.7526 H   0  0  0  0  0  0  0  0  0  0  0  0
    1.7817   -1.7232   -1.0540 H   0  0  0  0  0  0  0  0  0  0  0  0
    3.1380   -2.8742   -0.8495 H   0  0  0  0  0  0  0  0  0  0  0  0
    3.0409   -0.3782   -2.4430 H   0  0  0  0  0  0  0  0  0  0  0  0
    4.1507   -1.7914   -2.5328 H   0  0  0  0  0  0  0  0  0  0  0  0
    5.2995   -1.2015   -0.5272 H   0  0  0  0  0  0  0  0  0  0  0  0
    5.1497    1.4923   -2.0113 H   0  0  0  0  0  0  0  0  0  0  0  0
    6.6511    0.6782   -3.4958 H   0  0  0  0  0  0  0  0  0  0  0  0
    5.9384   -0.8948   -3.1170 H   0  0  0  0  0  0  0  0  0  0  0  0
    7.5970   -1.4680   -1.5276 H   0  0  0  0  0  0  0  0  0  0  0  0
    8.3449   -0.8832   -3.0213 H   0  0  0  0  0  0  0  0  0  0  0  0
    9.4017    0.9095   -2.0653 H   0  0  0  0  0  0  0  0  0  0  0  0
    8.6002   -0.8711    0.2647 H   0  0  0  0  0  0  0  0  0  0  0  0
    9.9545   -1.0502   -0.8503 H   0  0  0  0  0  0  0  0  0  0  0  0
   11.3078    0.3355    0.3639 H   0  0  0  0  0  0  0  0  0  0  0  0
    9.0568   -0.1373    1.9578 H   0  0  0  0  0  0  0  0  0  0  0  0
   10.3748    2.4572   -0.6311 H   0  0  0  0  0  0  0  0  0  0  0  0
   10.4000    2.5917    1.1514 H   0  0  0  0  0  0  0  0  0  0  0  0
    8.2420    3.2919    0.4226 H   0  0  0  0  0  0  0  0  0  0  0  0
    8.1024    1.6393    1.2680 H   0  0  0  0  0  0  0  0  0  0  0  0
    8.1809    3.6452   -1.5459 H   0  0  0  0  0  0  0  0  0  0  0  0
    8.1459    2.4570   -2.8447 H   0  0  0  0  0  0  0  0  0  0  0  0
    6.5945    3.0168   -2.0433 H   0  0  0  0  0  0  0  0  0  0  0  0
    6.7747    0.0227    0.0919 H   0  0  0  0  0  0  0  0  0  0  0  0
    5.0862    2.5357   -0.0600 H   0  0  0  0  0  0  0  0  0  0  0  0
    6.1727    2.2876    1.3303 H   0  0  0  0  0  0  0  0  0  0  0  0
    4.0484    1.3679    1.8568 H   0  0  0  0  0  0  0  0  0  0  0  0
    5.7024    0.1888    2.6387 H   0  0  0  0  0  0  0  0  0  0  0  0
    2.5809    1.9584    0.0848 H   0  0  0  0  0  0  0  0  0  0  0  0
    1.8286    0.5317   -0.8127 H   0  0  0  0  0  0  0  0  0  0  0  0
    3.1320    1.4753   -1.5253 H   0  0  0  0  0  0  0  0  0  0  0  0
  1  2  1  0
  1  3  1  0
  3  4  1  0
  4  5  1  0
  5  6  2  0
  5  7  1  0
  7  8  1  0
  8  9  1  0
  9 10  1  0
 10 11  1  0
 11 12  2  3
 12 13  1  0
 12 14  1  0
 14 15  1  0
 14 16  1  0
 16 17  1  0
 16 18  1  0
 18 19  1  0
 18 20  1  0
 20 21  1  0
 20 22  1  0
 22 23  1  0
  7 24  1  0
 24 25  1  0
 25 26  1  0
 26 27  1  0
 27 28  2  3
 28 29  1  0
 28 30  1  0
 30 31  1  0
 30 32  1  0
 32 33  1  0
 32 34  1  0
 34 35  1  0
 34 36  1  0
 36 37  1  0
 36 38  1  0
 38 39  1  0
  1 40  1  0
 40 41  1  0
 41 42  1  0
 42 43  1  0
 43 44  1  0
 44 45  1  0
 45 46  1  0
 46 47  1  0
 47 48  1  0
 48 49  1  0
 49 50  1  0
 49 51  1  0
 51 52  1  0
 52 53  1  0
 53 54  1  6
 53 55  1  0
 55 56  1  0
 56 57  1  0
 57 58  1  0
 57 59  1  0
 59 60  1  6
 59 40  1  0
 59 43  1  0
 55 44  1  0
 53 47  1  0
  1 61  1  1
  2 62  1  0
  2 63  1  0
  2 64  1  0
  3 65  1  0
  3 66  1  0
  4 67  1  0
  4 68  1  0
  8 69  1  0
  8 70  1  0
  9 71  1  0
  9 72  1  0
 10 73  1  0
 10 74  1  0
 13 75  1  0
 14 76  1  6
 15 77  1  0
 16 78  1  6
 17 79  1  0
 18 80  1  1
 19 81  1  0
 20 82  1  6
 21 83  1  0
 22 84  1  0
 22 85  1  0
 23 86  1  0
 24 87  1  0
 24 88  1  0
 25 89  1  0
 25 90  1  0
 26 91  1  0
 26 92  1  0
 29 93  1  0
 30 94  1  6
 31 95  1  0
 32 96  1  6
 33 97  1  0
 34 98  1  1
 35 99  1  0
 36100  1  1
 37101  1  0
 38102  1  0
 38103  1  0
 39104  1  0
 40105  1  1
 41106  1  0
 41107  1  0
 42108  1  0
 42109  1  0
 43110  1  1
 44111  1  6
 45112  1  0
 45113  1  0
 46114  1  0
 46115  1  0
 47116  1  6
 48117  1  0
 48118  1  0
 49119  1  6
 50120  1  0
 51121  1  0
 51122  1  0
 52123  1  0
 52124  1  0
 54125  1  0
 54126  1  0
 54127  1  0
 55128  1  1
 56129  1  0
 56130  1  0
 57131  1  1
 58132  1  0
 60133  1  0
 60134  1  0
 60135  1  0
M  END
$$$$
