
     RDKit          3D

 46 50  0  0  0  0  0  0  0  0999 V2000
   -6.6924   -0.2699    2.8216 C   0  0  0  0  0  0  0  0  0  0  0  0
   -5.3430    0.1399    2.9214 O   0  0  0  0  0  0  0  0  0  0  0  0
   -4.5491    0.3168    1.7853 C   0  0  0  0  0  0  0  0  0  0  0  0
   -3.2355    0.7171    1.9076 C   0  0  0  0  0  0  0  0  0  0  0  0
   -2.4519    0.8937    0.8219 N   0  0  0  0  0  0  0  0  0  0  0  0
   -2.8887    0.6953   -0.4366 C   0  0  0  0  0  0  0  0  0  0  0  0
   -2.0321    0.8934   -1.5297 C   0  0  0  0  0  0  0  0  0  0  0  0
   -0.7169    1.3263   -1.3007 N   0  0  0  0  0  0  0  0  0  0  0  0
    0.3054    1.5572   -2.2813 C   0  0  0  0  0  0  0  0  0  0  0  0
    0.8011    0.2250   -2.7713 C   0  0  0  0  0  0  0  0  0  0  0  0
    0.4075   -0.5241   -3.8045 N   0  0  0  0  0  0  0  0  0  0  0  0
    1.1570   -1.6062   -3.8117 N   0  0  0  0  0  0  0  0  0  0  0  0
    2.0360   -1.5397   -2.7689 C   0  0  0  0  0  0  0  0  0  0  0  0
    3.0271   -2.4021   -2.3307 C   0  0  0  0  0  0  0  0  0  0  0  0
    3.7599   -2.0190   -1.2034 C   0  0  0  0  0  0  0  0  0  0  0  0
    3.5301   -0.8433   -0.5369 C   0  0  0  0  0  0  0  0  0  0  0  0
    4.2790   -0.4183    0.6415 C   0  0  0  0  0  0  0  0  0  0  0  0
    4.0047    0.7803    1.2759 C   0  0  0  0  0  0  0  0  0  0  0  0
    4.6893    1.2125    2.3876 C   0  0  0  0  0  0  0  0  0  0  0  0
    4.4065    2.3933    2.9984 F   0  0  0  0  0  0  0  0  0  0  0  0
    5.7077    0.4412    2.9282 C   0  0  0  0  0  0  0  0  0  0  0  0
    6.3866    0.8608    4.0235 F   0  0  0  0  0  0  0  0  0  0  0  0
    5.9884   -0.7530    2.3045 C   0  0  0  0  0  0  0  0  0  0  0  0
    6.9845   -1.5049    2.8352 F   0  0  0  0  0  0  0  0  0  0  0  0
    5.2834   -1.1837    1.1709 C   0  0  0  0  0  0  0  0  0  0  0  0
    2.5360   -0.0647   -1.0444 N   0  0  0  0  0  0  0  0  0  0  0  0
    1.8240   -0.3961   -2.1076 N   0  0  0  0  0  0  0  0  0  0  0  0
   -2.5081    0.6833   -2.7997 C   0  0  0  0  0  0  0  0  0  0  0  0
   -3.8287    0.2803   -2.9256 C   0  0  0  0  0  0  0  0  0  0  0  0
   -4.6309    0.0972   -1.8506 N   0  0  0  0  0  0  0  0  0  0  0  0
   -4.1954    0.2951   -0.5947 C   0  0  0  0  0  0  0  0  0  0  0  0
   -5.0154    0.1083    0.5029 C   0  0  0  0  0  0  0  0  0  0  0  0
   -7.2065    0.5185    2.1979 H   0  0  0  0  0  0  0  0  0  0  0  0
   -7.1189   -0.3640    3.8189 H   0  0  0  0  0  0  0  0  0  0  0  0
   -6.7852   -1.2034    2.2025 H   0  0  0  0  0  0  0  0  0  0  0  0
   -2.8272    0.8926    2.8972 H   0  0  0  0  0  0  0  0  0  0  0  0
   -0.4031    1.5165   -0.2914 H   0  0  0  0  0  0  0  0  0  0  0  0
    1.1270    2.1868   -1.9266 H   0  0  0  0  0  0  0  0  0  0  0  0
   -0.1246    2.0666   -3.1865 H   0  0  0  0  0  0  0  0  0  0  0  0
    3.1916   -3.3101   -2.8602 H   0  0  0  0  0  0  0  0  0  0  0  0
    4.5289   -2.6923   -0.8668 H   0  0  0  0  0  0  0  0  0  0  0  0
    3.2175    1.3906    0.8692 H   0  0  0  0  0  0  0  0  0  0  0  0
    5.5543   -2.1243    0.7358 H   0  0  0  0  0  0  0  0  0  0  0  0
   -1.9233    0.8261   -3.6920 H   0  0  0  0  0  0  0  0  0  0  0  0
   -4.2105    0.1114   -3.9409 H   0  0  0  0  0  0  0  0  0  0  0  0
   -6.0463   -0.2071    0.3839 H   0  0  0  0  0  0  0  0  0  0  0  0
  1  2  1  0
  2  3  1  0
  3  4  2  0
  4  5  1  0
  5  6  2  0
  6  7  1  0
  7  8  1  0
  8  9  1  0
  9 10  1  0
 10 11  2  0
 11 12  1  0
 12 13  2  0
 13 14  1  0
 14 15  2  0
 15 16  1  0
 16 17  1  0
 17 18  2  0
 18 19  1  0
 19 20  1  0
 19 21  2  0
 21 22  1  0
 21 23  1  0
 23 24  1  0
 23 25  2  0
 16 26  2  0
 26 27  1  0
  7 28  2  0
 28 29  1  0
 29 30  2  0
 30 31  1  0
 31 32  2  0
 32  3  1  0
 31  6  1  0
 27 10  1  0
 27 13  1  0
 25 17  1  0
  1 33  1  0
  1 34  1  0
  1 35  1  0
  4 36  1  0
  8 37  1  0
  9 38  1  0
  9 39  1  0
 14 40  1  0
 15 41  1  0
 18 42  1  0
 25 43  1  0
 28 44  1  0
 29 45  1  0
 32 46  1  0
M  END
$$$$
