
     RDKit          3D

 50 54  0  0  0  0  0  0  0  0999 V2000
    6.3386    0.7858    0.9512 O   0  0  0  0  0  0  0  0  0  0  0  0
    5.1639    0.4671    0.6512 C   0  0  0  0  0  0  0  0  0  0  0  0
    3.9766    1.0421    1.1512 N   0  0  0  0  0  0  0  0  0  0  0  0
    2.8617    0.3812    0.5505 C   0  0  0  0  0  0  0  0  0  0  0  0
    1.5041    0.5731    0.7080 C   0  0  0  0  0  0  0  0  0  0  0  0
    0.6141   -0.1964    0.0134 C   0  0  0  0  0  0  0  0  0  0  0  0
   -0.8053   -0.0062    0.1699 N   0  0  0  0  0  0  0  0  0  0  0  0
   -1.5347   -0.6999    1.1440 C   0  0  0  0  0  0  0  0  0  0  0  0
   -0.8992   -1.4990    1.8804 O   0  0  0  0  0  0  0  0  0  0  0  0
   -2.9619   -0.5235    1.3176 C   0  0  0  0  0  0  0  0  0  0  0  0
   -3.6210   -1.2606    2.3209 C   0  0  0  0  0  0  0  0  0  0  0  0
   -4.9282   -1.1750    2.5641 N   0  0  0  0  0  0  0  0  0  0  0  0
   -5.7112   -0.3579    1.8454 C   0  0  0  0  0  0  0  0  0  0  0  0
   -5.1250    0.3878    0.8515 C   0  0  0  0  0  0  0  0  0  0  0  0
   -6.0003    1.2768    0.0751 C   0  0  0  0  0  0  0  0  0  0  0  0
   -6.2367    2.5788    0.4624 C   0  0  0  0  0  0  0  0  0  0  0  0
   -7.0601    3.4094   -0.2673 C   0  0  0  0  0  0  0  0  0  0  0  0
   -7.6852    2.9821   -1.4150 C   0  0  0  0  0  0  0  0  0  0  0  0
   -7.4640    1.6770   -1.8261 C   0  0  0  0  0  0  0  0  0  0  0  0
   -6.6281    0.8500   -1.0763 C   0  0  0  0  0  0  0  0  0  0  0  0
   -6.4008   -0.4399   -1.4717 F   0  0  0  0  0  0  0  0  0  0  0  0
   -3.7663    0.3093    0.5870 C   0  0  0  0  0  0  0  0  0  0  0  0
   -3.3148    1.0233   -0.3361 O   0  0  0  0  0  0  0  0  0  0  0  0
    1.0373   -1.1636   -0.8445 C   0  0  0  0  0  0  0  0  0  0  0  0
    2.3907   -1.3601   -1.0061 C   0  0  0  0  0  0  0  0  0  0  0  0
    3.3031   -0.5922   -0.3128 C   0  0  0  0  0  0  0  0  0  0  0  0
    4.7726   -0.5691   -0.2776 C   0  0  0  0  0  0  0  0  0  0  0  0
    5.4891   -1.3774   -1.0170 C   0  0  0  0  0  0  0  0  0  0  0  0
    6.9372   -1.3175   -0.9919 C   0  0  0  0  0  0  0  0  0  0  0  0
    7.6963   -2.4740   -0.7817 C   0  0  0  0  0  0  0  0  0  0  0  0
    9.0043   -2.0751   -0.8596 C   0  0  0  0  0  0  0  0  0  0  0  0
    9.0486   -0.7419   -1.1053 C   0  0  0  0  0  0  0  0  0  0  0  0
    7.7701   -0.3073   -1.1815 N   0  0  0  0  0  0  0  0  0  0  0  0
    3.9335    1.8156    1.8397 H   0  0  0  0  0  0  0  0  0  0  0  0
    1.1929    1.3555    1.4021 H   0  0  0  0  0  0  0  0  0  0  0  0
   -1.2062    0.6800   -0.5013 H   0  0  0  0  0  0  0  0  0  0  0  0
   -2.9812   -1.9315    2.9109 H   0  0  0  0  0  0  0  0  0  0  0  0
   -5.3605   -1.7409    3.3149 H   0  0  0  0  0  0  0  0  0  0  0  0
   -6.7796   -0.2621    2.0155 H   0  0  0  0  0  0  0  0  0  0  0  0
   -5.7366    2.9226    1.3817 H   0  0  0  0  0  0  0  0  0  0  0  0
   -7.2237    4.4235    0.0657 H   0  0  0  0  0  0  0  0  0  0  0  0
   -8.3338    3.5709   -2.0265 H   0  0  0  0  0  0  0  0  0  0  0  0
   -7.9468    1.3057   -2.7361 H   0  0  0  0  0  0  0  0  0  0  0  0
    0.3455   -1.7978   -1.4174 H   0  0  0  0  0  0  0  0  0  0  0  0
    2.7043   -2.1414   -1.6981 H   0  0  0  0  0  0  0  0  0  0  0  0
    5.0432   -2.1212   -1.6762 H   0  0  0  0  0  0  0  0  0  0  0  0
    7.3093   -3.4747   -0.5963 H   0  0  0  0  0  0  0  0  0  0  0  0
    9.8324   -2.7672   -0.7349 H   0  0  0  0  0  0  0  0  0  0  0  0
    9.9179   -0.1253   -1.2214 H   0  0  0  0  0  0  0  0  0  0  0  0
    7.5243    0.6812   -1.3813 H   0  0  0  0  0  0  0  0  0  0  0  0
  1  2  2  0
  2  3  1  0
  3  4  1  0
  4  5  2  0
  5  6  1  0
  6  7  1  0
  7  8  1  0
  8  9  2  0
  8 10  1  0
 10 11  2  0
 11 12  1  0
 12 13  1  0
 13 14  2  0
 14 15  1  0
 15 16  2  0
 16 17  1  0
 17 18  2  0
 18 19  1  0
 19 20  2  0
 20 21  1  0
 14 22  1  0
 22 23  2  0
  6 24  2  0
 24 25  1  0
 25 26  2  0
 26 27  1  0
 27 28  2  0
 28 29  1  0
 29 30  2  0
 30 31  1  0
 31 32  2  0
 32 33  1  0
 27  2  1  0
 33 29  1  0
 26  4  1  0
 22 10  1  0
 20 15  1  0
  3 34  1  0
  5 35  1  0
  7 36  1  0
 11 37  1  0
 12 38  1  0
 13 39  1  0
 16 40  1  0
 17 41  1  0
 18 42  1  0
 19 43  1  0
 24 44  1  0
 25 45  1  0
 28 46  1  0
 30 47  1  0
 31 48  1  0
 32 49  1  0
 33 50  1  0
M  END
$$$$
