
     RDKit          3D

 46 49  0  0  0  0  0  0  0  0999 V2000
    1.0612   -0.7630   -1.9681 C   0  0  0  0  0  0  0  0  0  0  0  0
    0.5830   -0.3038   -0.6472 N   0  0  0  0  0  0  0  0  0  0  0  0
   -0.6916   -0.0013   -0.3604 C   0  0  0  0  0  0  0  0  0  0  0  0
   -0.7769    0.3817    0.9550 C   0  0  0  0  0  0  0  0  0  0  0  0
    0.5126    0.2909    1.4316 C   0  0  0  0  0  0  0  0  0  0  0  0
    0.7943    0.5777    2.6326 O   0  0  0  0  0  0  0  0  0  0  0  0
    1.3166   -0.1278    0.4362 N   0  0  0  0  0  0  0  0  0  0  0  0
    2.7063   -0.3467    0.5270 C   0  0  0  0  0  0  0  0  0  0  0  0
    3.2067   -1.5908    0.8866 C   0  0  0  0  0  0  0  0  0  0  0  0
    4.5515   -1.8421    0.9846 C   0  0  0  0  0  0  0  0  0  0  0  0
    5.4255   -0.8112    0.7129 C   0  0  0  0  0  0  0  0  0  0  0  0
    4.9611    0.4382    0.3526 C   0  0  0  0  0  0  0  0  0  0  0  0
    3.5855    0.6642    0.2611 C   0  0  0  0  0  0  0  0  0  0  0  0
    3.1303    1.9976   -0.1217 C   0  0  0  0  0  0  0  0  0  0  0  0
    2.3498    2.5104    0.8969 F   0  0  0  0  0  0  0  0  0  0  0  0
    2.3659    2.0500   -1.2653 F   0  0  0  0  0  0  0  0  0  0  0  0
    4.2030    2.8939   -0.2330 F   0  0  0  0  0  0  0  0  0  0  0  0
   -2.2102    0.7100    1.2597 C   0  0  1  0  0  0  0  0  0  0  0  0
   -2.5623    1.9619    0.5458 C   0  0  0  0  0  0  0  0  0  0  0  0
   -2.4389    1.5692   -0.9149 C   0  0  0  0  0  0  0  0  0  0  0  0
   -2.0853    0.0972   -0.9006 C   0  0  1  0  0  0  0  0  0  0  0  0
   -2.3299   -0.6501   -2.1187 C   0  0  0  0  0  0  0  0  0  0  0  0
   -2.8561   -0.3378    0.3317 C   0  0  0  0  0  0  0  0  0  0  0  0
   -2.4125   -1.7203    0.6911 C   0  0  0  0  0  0  0  0  0  0  0  0
   -4.3223   -0.1587    0.2150 C   0  0  0  0  0  0  0  0  0  0  0  0
    0.6009   -0.1906   -2.7799 H   0  0  0  0  0  0  0  0  0  0  0  0
    0.8100   -1.8299   -2.1181 H   0  0  0  0  0  0  0  0  0  0  0  0
    2.1705   -0.6917   -1.9559 H   0  0  0  0  0  0  0  0  0  0  0  0
    2.5034   -2.3819    1.0944 H   0  0  0  0  0  0  0  0  0  0  0  0
    4.9479   -2.8224    1.2680 H   0  0  0  0  0  0  0  0  0  0  0  0
    6.5032   -1.0150    0.7921 H   0  0  0  0  0  0  0  0  0  0  0  0
    5.6622    1.2178    0.1479 H   0  0  0  0  0  0  0  0  0  0  0  0
   -2.4782    0.6084    2.2842 H   0  0  0  0  0  0  0  0  0  0  0  0
   -3.6415    2.1934    0.7733 H   0  0  0  0  0  0  0  0  0  0  0  0
   -1.9210    2.8169    0.8101 H   0  0  0  0  0  0  0  0  0  0  0  0
   -1.5823    2.1765   -1.3278 H   0  0  0  0  0  0  0  0  0  0  0  0
   -3.3233    1.8048   -1.5044 H   0  0  0  0  0  0  0  0  0  0  0  0
   -1.5111   -1.3223   -2.4585 H   0  0  0  0  0  0  0  0  0  0  0  0
   -3.2220   -1.3306   -1.9956 H   0  0  0  0  0  0  0  0  0  0  0  0
   -2.6071   -0.0032   -2.9972 H   0  0  0  0  0  0  0  0  0  0  0  0
   -1.4596   -1.6460    1.2473 H   0  0  0  0  0  0  0  0  0  0  0  0
   -2.1989   -2.2618   -0.2629 H   0  0  0  0  0  0  0  0  0  0  0  0
   -3.1883   -2.3062    1.2164 H   0  0  0  0  0  0  0  0  0  0  0  0
   -4.7585   -1.1513   -0.1017 H   0  0  0  0  0  0  0  0  0  0  0  0
   -4.6333    0.5678   -0.5465 H   0  0  0  0  0  0  0  0  0  0  0  0
   -4.7404    0.0782    1.2181 H   0  0  0  0  0  0  0  0  0  0  0  0
  1  2  1  0
  2  3  1  0
  3  4  2  0
  4  5  1  0
  5  6  2  0
  5  7  1  0
  7  8  1  0
  8  9  2  0
  9 10  1  0
 10 11  2  0
 11 12  1  0
 12 13  2  0
 13 14  1  0
 14 15  1  0
 14 16  1  0
 14 17  1  0
  4 18  1  0
 18 19  1  0
 19 20  1  0
 20 21  1  0
 21 22  1  6
 21 23  1  0
 23 24  1  0
 23 25  1  0
  7  2  1  0
 13  8  1  0
 23 18  1  0
 21  3  1  0
  1 26  1  0
  1 27  1  0
  1 28  1  0
  9 29  1  0
 10 30  1  0
 11 31  1  0
 12 32  1  0
 18 33  1  1
 19 34  1  0
 19 35  1  0
 20 36  1  0
 20 37  1  0
 22 38  1  0
 22 39  1  0
 22 40  1  0
 24 41  1  0
 24 42  1  0
 24 43  1  0
 25 44  1  0
 25 45  1  0
 25 46  1  0
M  END
$$$$
