
     RDKit          3D

 16 15  0  0  0  0  0  0  0  0999 V2000
   -2.6349   -0.3250   -0.1969 C   0  0  0  0  0  0  0  0  0  0  0  0
   -1.3198    0.3767   -0.1284 C   0  0  0  0  0  0  0  0  0  0  0  0
   -0.2441   -0.4901    0.0259 O   0  0  0  0  0  0  0  0  0  0  0  0
    0.9460    0.2187    0.0828 C   0  0  0  0  0  0  0  0  0  0  0  0
    2.1547   -0.6654    0.2500 C   0  0  0  0  0  0  0  0  0  0  0  0
    3.3374    0.0671    0.3047 O   0  0  0  0  0  0  0  0  0  0  0  0
   -2.8585   -0.8279   -1.1516 H   0  0  0  0  0  0  0  0  0  0  0  0
   -2.8223   -1.0121    0.6420 H   0  0  0  0  0  0  0  0  0  0  0  0
   -3.4221    0.4760   -0.0957 H   0  0  0  0  0  0  0  0  0  0  0  0
   -1.3854    1.1251    0.6960 H   0  0  0  0  0  0  0  0  0  0  0  0
   -1.1677    0.9411   -1.0627 H   0  0  0  0  0  0  0  0  0  0  0  0
    0.9719    0.9582    0.9245 H   0  0  0  0  0  0  0  0  0  0  0  0
    1.0394    0.7504   -0.9028 H   0  0  0  0  0  0  0  0  0  0  0  0
    2.0240   -1.3175    1.1309 H   0  0  0  0  0  0  0  0  0  0  0  0
    2.2302   -1.3130   -0.6418 H   0  0  0  0  0  0  0  0  0  0  0  0
    3.1511    1.0376    0.2772 H   0  0  0  0  0  0  0  0  0  0  0  0
  1  2  1  0
  2  3  1  0
  3  4  1  0
  4  5  1  0
  5  6  1  0
  1  7  1  0
  1  8  1  0
  1  9  1  0
  2 10  1  0
  2 11  1  0
  4 12  1  0
  4 13  1  0
  5 14  1  0
  5 15  1  0
  6 16  1  0
M  END
$$$$
