
     RDKit          3D

 40 43  0  0  0  0  0  0  0  0999 V2000
   -1.0674   -3.3890    0.8128 C   0  0  0  0  0  0  0  0  0  0  0  0
   -0.5682   -2.5496   -0.3237 C   0  0  2  0  0  0  0  0  0  0  0  0
    0.9133   -2.3940   -0.2608 C   0  0  0  0  0  0  0  0  0  0  0  0
    1.8414   -3.3766   -0.2233 N   0  0  0  0  0  0  0  0  0  0  0  0
    3.0272   -2.7786   -0.1721 N   0  0  0  0  0  0  0  0  0  0  0  0
    2.8545   -1.4591   -0.1776 C   0  0  0  0  0  0  0  0  0  0  0  0
    3.9234   -0.4110   -0.1321 C   0  0  0  0  0  0  0  0  0  0  0  0
    3.9629    0.7989   -0.2995 N   0  0  0  0  0  0  0  0  0  0  0  0
    4.9731    1.5606   -0.2229 C   0  0  0  0  0  0  0  0  0  0  0  0
    5.0117    3.0661   -0.4345 C   0  0  0  0  0  0  0  0  0  0  0  0
    6.2837    3.5326   -0.3619 F   0  0  0  0  0  0  0  0  0  0  0  0
    4.5004    3.3137   -1.6771 F   0  0  0  0  0  0  0  0  0  0  0  0
    4.2597    3.6400    0.5589 F   0  0  0  0  0  0  0  0  0  0  0  0
    6.2161    0.8943    0.1027 N   0  0  0  0  0  0  0  0  0  0  0  0
    5.6029   -0.8232    0.2376 S   0  0  0  0  0  0  0  0  0  0  0  0
    1.5533   -1.2276   -0.2320 N   0  0  0  0  0  0  0  0  0  0  0  0
    0.8144    0.0274   -0.2608 C   0  0  0  0  0  0  0  0  0  0  0  0
   -0.4144   -0.2191   -1.1078 C   0  0  0  0  0  0  0  0  0  0  0  0
   -1.1875   -1.2495   -0.4247 N   0  0  0  0  0  0  0  0  0  0  0  0
   -2.4725   -1.0039    0.1101 C   0  0  0  0  0  0  0  0  0  0  0  0
   -3.0671   -1.9494    0.6839 O   0  0  0  0  0  0  0  0  0  0  0  0
   -3.1297    0.2954    0.0222 C   0  0  0  0  0  0  0  0  0  0  0  0
   -2.5732    1.4691    0.4440 C   0  0  0  0  0  0  0  0  0  0  0  0
   -3.2651    2.6740    0.3252 C   0  0  0  0  0  0  0  0  0  0  0  0
   -4.5309    2.7012   -0.2229 C   0  0  0  0  0  0  0  0  0  0  0  0
   -5.1843    3.8911   -0.3282 F   0  0  0  0  0  0  0  0  0  0  0  0
   -5.1032    1.5312   -0.6507 C   0  0  0  0  0  0  0  0  0  0  0  0
   -4.4062    0.3498   -0.5265 C   0  0  0  0  0  0  0  0  0  0  0  0
   -0.2604   -4.1590    1.0021 H   0  0  0  0  0  0  0  0  0  0  0  0
   -1.9539   -3.9899    0.5220 H   0  0  0  0  0  0  0  0  0  0  0  0
   -1.1836   -2.8250    1.7390 H   0  0  0  0  0  0  0  0  0  0  0  0
   -0.8503   -3.0808   -1.2800 H   0  0  0  0  0  0  0  0  0  0  0  0
    1.4108    0.8827   -0.5743 H   0  0  0  0  0  0  0  0  0  0  0  0
    0.4589    0.1838    0.7852 H   0  0  0  0  0  0  0  0  0  0  0  0
   -1.0007    0.6722   -1.3244 H   0  0  0  0  0  0  0  0  0  0  0  0
   -0.0664   -0.6216   -2.0925 H   0  0  0  0  0  0  0  0  0  0  0  0
   -1.5721    1.4406    0.8769 H   0  0  0  0  0  0  0  0  0  0  0  0
   -2.7754    3.5889    0.6764 H   0  0  0  0  0  0  0  0  0  0  0  0
   -6.1097    1.5656   -1.0844 H   0  0  0  0  0  0  0  0  0  0  0  0
   -4.8654   -0.5722   -0.8667 H   0  0  0  0  0  0  0  0  0  0  0  0
  1  2  1  0
  2  3  1  0
  3  4  2  0
  4  5  1  0
  5  6  2  0
  6  7  1  0
  7  8  2  0
  8  9  1  0
  9 10  1  0
 10 11  1  0
 10 12  1  0
 10 13  1  0
  9 14  2  0
 14 15  1  0
  6 16  1  0
 16 17  1  0
 17 18  1  0
 18 19  1  0
 19 20  1  0
 20 21  2  0
 20 22  1  0
 22 23  2  0
 23 24  1  0
 24 25  2  0
 25 26  1  0
 25 27  1  0
 27 28  2  0
 19  2  1  0
 28 22  1  0
 16  3  1  0
 15  7  1  0
  1 29  1  0
  1 30  1  0
  1 31  1  0
  2 32  1  6
 17 33  1  0
 17 34  1  0
 18 35  1  0
 18 36  1  0
 23 37  1  0
 24 38  1  0
 27 39  1  0
 28 40  1  0
M  END
$$$$
