
     RDKit          3D

 49 52  0  0  0  0  0  0  0  0999 V2000
   -2.0246    0.5471   -2.6281 C   0  0  0  0  0  0  0  0  0  0  0  0
   -2.9930    0.4051   -1.5241 C   0  0  0  0  0  0  0  0  0  0  0  0
   -2.6518    0.1826   -0.2119 C   0  0  0  0  0  0  0  0  0  0  0  0
   -1.2896    0.0315    0.4144 C   0  0  0  0  0  0  0  0  0  0  0  0
   -0.6998   -1.3054    0.1423 C   0  0  0  0  0  0  0  0  0  0  0  0
    0.5538   -1.4257    0.7238 O   0  0  0  0  0  0  0  0  0  0  0  0
    1.6947   -0.7236    0.4703 C   0  0  0  0  0  0  0  0  0  0  0  0
    2.6515   -1.2400    1.3611 C   0  0  0  0  0  0  0  0  0  0  0  0
    3.9787   -0.7898    1.4306 C   0  0  0  0  0  0  0  0  0  0  0  0
    4.3646    0.2363    0.5562 C   0  0  0  0  0  0  0  0  0  0  0  0
    5.7329    0.8001    0.5292 C   0  0  0  0  0  0  0  0  0  0  0  0
    6.6314    0.0649   -0.4359 C   0  0  0  0  0  0  0  0  0  0  0  0
    7.9800    0.7025   -0.3928 C   0  0  0  0  0  0  0  0  0  0  0  0
    8.5942    1.5109   -1.1290 O   0  0  0  0  0  0  0  0  0  0  0  0
    8.5486    0.1580    0.8130 N   0  0  0  0  0  0  0  0  0  0  0  0
    7.9046   -1.0371    1.0494 O   0  0  0  0  0  0  0  0  0  0  0  0
    6.9536   -1.3033    0.0734 C   0  0  0  0  0  0  0  0  0  0  0  0
    6.5030   -2.4293   -0.2674 O   0  0  0  0  0  0  0  0  0  0  0  0
    3.4253    0.7397   -0.3156 C   0  0  0  0  0  0  0  0  0  0  0  0
    2.1308    0.2802   -0.3632 C   0  0  0  0  0  0  0  0  0  0  0  0
   -3.8222    0.1185    0.4483 N   0  0  0  0  0  0  0  0  0  0  0  0
   -4.8469    0.2964   -0.4348 C   0  0  0  0  0  0  0  0  0  0  0  0
   -4.2986    0.4637   -1.5989 O   0  0  0  0  0  0  0  0  0  0  0  0
   -6.2115    0.2618    0.0860 C   0  0  0  0  0  0  0  0  0  0  0  0
   -6.5942    0.0643    1.3987 C   0  0  0  0  0  0  0  0  0  0  0  0
   -7.9558    0.0653    1.6881 C   0  0  0  0  0  0  0  0  0  0  0  0
   -8.8922    0.2580    0.6935 C   0  0  0  0  0  0  0  0  0  0  0  0
   -8.5240    0.4574   -0.6283 C   0  0  0  0  0  0  0  0  0  0  0  0
   -7.1551    0.4545   -0.9090 C   0  0  0  0  0  0  0  0  0  0  0  0
   -2.4640    1.2073   -3.4289 H   0  0  0  0  0  0  0  0  0  0  0  0
   -1.1533    1.1035   -2.2458 H   0  0  0  0  0  0  0  0  0  0  0  0
   -1.6971   -0.4342   -3.0479 H   0  0  0  0  0  0  0  0  0  0  0  0
   -1.3935    0.1070    1.5357 H   0  0  0  0  0  0  0  0  0  0  0  0
   -0.6197    0.8369    0.1362 H   0  0  0  0  0  0  0  0  0  0  0  0
   -1.3254   -2.1371    0.5952 H   0  0  0  0  0  0  0  0  0  0  0  0
   -0.6921   -1.5596   -0.9510 H   0  0  0  0  0  0  0  0  0  0  0  0
    2.5754   -2.0319    2.1226 H   0  0  0  0  0  0  0  0  0  0  0  0
    4.7734   -1.1061    2.0584 H   0  0  0  0  0  0  0  0  0  0  0  0
    5.6890    1.8520    0.1970 H   0  0  0  0  0  0  0  0  0  0  0  0
    6.2395    0.7767    1.5162 H   0  0  0  0  0  0  0  0  0  0  0  0
    6.2464    0.0713   -1.4629 H   0  0  0  0  0  0  0  0  0  0  0  0
    9.3022    0.5347    1.4399 H   0  0  0  0  0  0  0  0  0  0  0  0
    3.6339    1.5276   -1.0221 H   0  0  0  0  0  0  0  0  0  0  0  0
    1.3392    0.6017   -1.0163 H   0  0  0  0  0  0  0  0  0  0  0  0
   -5.7848   -0.0776    2.0995 H   0  0  0  0  0  0  0  0  0  0  0  0
   -8.1903   -0.0941    2.7320 H   0  0  0  0  0  0  0  0  0  0  0  0
   -9.9252    0.2381    1.0401 H   0  0  0  0  0  0  0  0  0  0  0  0
   -9.3010    0.6028   -1.3681 H   0  0  0  0  0  0  0  0  0  0  0  0
   -6.9412    0.6163   -1.9693 H   0  0  0  0  0  0  0  0  0  0  0  0
  1  2  1  0
  2  3  2  0
  3  4  1  0
  4  5  1  0
  5  6  1  0
  6  7  1  0
  7  8  2  0
  8  9  1  0
  9 10  2  0
 10 11  1  0
 11 12  1  0
 12 13  1  0
 13 14  2  0
 13 15  1  0
 15 16  1  0
 16 17  1  0
 17 18  2  0
 10 19  1  0
 19 20  2  0
  3 21  1  0
 21 22  2  0
 22 23  1  0
 22 24  1  0
 24 25  2  0
 25 26  1  0
 26 27  2  0
 27 28  1  0
 28 29  2  0
 23  2  1  0
 29 24  1  0
 20  7  1  0
 17 12  1  0
  1 30  1  0
  1 31  1  0
  1 32  1  0
  4 33  1  0
  4 34  1  0
  5 35  1  0
  5 36  1  0
  8 37  1  0
  9 38  1  0
 11 39  1  0
 11 40  1  0
 12 41  1  0
 15 42  1  0
 19 43  1  0
 20 44  1  0
 25 45  1  0
 26 46  1  0
 27 47  1  0
 28 48  1  0
 29 49  1  0
M  END
$$$$
