
     RDKit          3D

 50 54  0  0  0  0  0  0  0  0999 V2000
   -3.3262    2.6846    2.5437 C   0  0  0  0  0  0  0  0  0  0  0  0
   -3.2546    1.7682    1.4586 N   0  0  0  0  0  0  0  0  0  0  0  0
   -3.5584    0.3805    1.4932 C   0  0  0  0  0  0  0  0  0  0  0  0
   -3.8204   -0.1091    2.6446 O   0  0  0  0  0  0  0  0  0  0  0  0
   -3.5775   -0.4691    0.2853 C   0  0  0  0  0  0  0  0  0  0  0  0
   -3.9757    0.4345   -0.9528 C   0  0  0  0  0  0  0  0  0  0  0  0
   -2.7912    1.3121   -0.8628 N   0  0  0  0  0  0  0  0  0  0  0  0
   -1.6856    0.9480   -1.6850 C   0  0  0  0  0  0  0  0  0  0  0  0
   -1.3599   -0.4244   -1.0174 C   0  0  0  0  0  0  0  0  0  0  0  0
   -2.2442   -0.9847   -0.1378 C   0  0  0  0  0  0  0  0  0  0  0  0
   -1.6404   -2.1579    0.2597 C   0  0  0  0  0  0  0  0  0  0  0  0
   -2.0197   -3.1805    1.1323 C   0  0  0  0  0  0  0  0  0  0  0  0
   -1.2148   -4.2869    1.3599 C   0  0  0  0  0  0  0  0  0  0  0  0
   -0.0168   -4.4025    0.7267 C   0  0  0  0  0  0  0  0  0  0  0  0
    0.3744   -3.4191   -0.1277 C   0  0  0  0  0  0  0  0  0  0  0  0
   -0.4196   -2.3020   -0.3673 C   0  0  0  0  0  0  0  0  0  0  0  0
   -0.2900   -1.1957   -1.1527 N   0  0  0  0  0  0  0  0  0  0  0  0
    0.8655   -0.9432   -1.9773 C   0  0  0  0  0  0  0  0  0  0  0  0
    1.9258   -0.1443   -1.3761 C   0  0  0  0  0  0  0  0  0  0  0  0
    2.0749    1.2073   -1.6721 C   0  0  0  0  0  0  0  0  0  0  0  0
    3.0718    1.9565   -1.0919 C   0  0  0  0  0  0  0  0  0  0  0  0
    3.9835    1.4084   -0.1811 C   0  0  0  0  0  0  0  0  0  0  0  0
    5.0225    2.2280    0.4117 C   0  0  0  0  0  0  0  0  0  0  0  0
    5.0808    3.4592    0.0798 O   0  0  0  0  0  0  0  0  0  0  0  0
    5.9599    1.7363    1.3258 N   0  0  0  0  0  0  0  0  0  0  0  0
    6.9152    2.5704    1.8461 O   0  0  0  0  0  0  0  0  0  0  0  0
    3.8335    0.0749    0.1079 C   0  0  0  0  0  0  0  0  0  0  0  0
    2.8131   -0.6790   -0.4897 C   0  0  0  0  0  0  0  0  0  0  0  0
   -2.8254    2.2773    0.1423 C   0  0  0  0  0  0  0  0  0  0  0  0
   -2.5130    3.4515   -0.0753 O   0  0  0  0  0  0  0  0  0  0  0  0
   -4.0299    2.3169    3.3252 H   0  0  0  0  0  0  0  0  0  0  0  0
   -2.3373    2.9528    2.9732 H   0  0  0  0  0  0  0  0  0  0  0  0
   -3.7611    3.6474    2.1701 H   0  0  0  0  0  0  0  0  0  0  0  0
   -4.3524   -1.2223    0.3733 H   0  0  0  0  0  0  0  0  0  0  0  0
   -3.9267   -0.2493   -1.8085 H   0  0  0  0  0  0  0  0  0  0  0  0
   -4.9193    0.9103   -0.7983 H   0  0  0  0  0  0  0  0  0  0  0  0
   -2.0201    0.7446   -2.7082 H   0  0  0  0  0  0  0  0  0  0  0  0
   -0.8286    1.6150   -1.5886 H   0  0  0  0  0  0  0  0  0  0  0  0
   -2.9543   -3.0973    1.6305 H   0  0  0  0  0  0  0  0  0  0  0  0
   -1.5091   -5.0825    2.0386 H   0  0  0  0  0  0  0  0  0  0  0  0
    0.6360   -5.2565    0.8834 H   0  0  0  0  0  0  0  0  0  0  0  0
    1.3086   -3.4841   -0.6522 H   0  0  0  0  0  0  0  0  0  0  0  0
    0.5361   -0.4488   -2.9409 H   0  0  0  0  0  0  0  0  0  0  0  0
    1.2378   -1.9455   -2.3288 H   0  0  0  0  0  0  0  0  0  0  0  0
    1.3750    1.6369   -2.3870 H   0  0  0  0  0  0  0  0  0  0  0  0
    3.1546    3.0054   -1.3479 H   0  0  0  0  0  0  0  0  0  0  0  0
    5.9346    0.7403    1.6122 H   0  0  0  0  0  0  0  0  0  0  0  0
    7.8024    2.1371    1.7169 H   0  0  0  0  0  0  0  0  0  0  0  0
    4.5077   -0.4079    0.8052 H   0  0  0  0  0  0  0  0  0  0  0  0
    2.7588   -1.7117   -0.2167 H   0  0  0  0  0  0  0  0  0  0  0  0
  1  2  1  0
  2  3  1  0
  3  4  2  0
  3  5  1  0
  5  6  1  0
  6  7  1  0
  7  8  1  0
  8  9  1  0
  9 10  2  0
 10 11  1  0
 11 12  2  0
 12 13  1  0
 13 14  2  0
 14 15  1  0
 15 16  2  0
 16 17  1  0
 17 18  1  0
 18 19  1  0
 19 20  2  0
 20 21  1  0
 21 22  2  0
 22 23  1  0
 23 24  2  0
 23 25  1  0
 25 26  1  0
 22 27  1  0
 27 28  2  0
  7 29  1  0
 29 30  2  0
 29  2  1  0
 10  5  1  0
 16 11  1  0
 28 19  1  0
 17  9  1  0
  1 31  1  0
  1 32  1  0
  1 33  1  0
  5 34  1  0
  6 35  1  0
  6 36  1  0
  8 37  1  0
  8 38  1  0
 12 39  1  0
 13 40  1  0
 14 41  1  0
 15 42  1  0
 18 43  1  0
 18 44  1  0
 20 45  1  0
 21 46  1  0
 25 47  1  0
 26 48  1  0
 27 49  1  0
 28 50  1  0
M  END
$$$$
