
     RDKit          3D

 58 62  0  0  0  0  0  0  0  0999 V2000
    9.9132    1.9905   -0.3844 C   0  0  0  0  0  0  0  0  0  0  0  0
   10.2746    0.3304   -0.9042 S   0  0  0  0  0  6  0  0  0  0  0  0
   10.0011    0.1259   -2.3655 O   0  0  0  0  0  0  0  0  0  0  0  0
   11.7345    0.0217   -0.6386 O   0  0  0  0  0  0  0  0  0  0  0  0
    9.3483   -0.8209   -0.0164 N   0  0  0  0  0  0  0  0  0  0  0  0
    7.9295   -0.7829   -0.1007 C   0  0  0  0  0  0  0  0  0  0  0  0
    7.1703   -0.8879    1.0675 C   0  0  0  0  0  0  0  0  0  0  0  0
    5.7917   -0.8562    1.0487 C   0  0  0  0  0  0  0  0  0  0  0  0
    5.0959   -0.7182   -0.1339 C   0  0  0  0  0  0  0  0  0  0  0  0
    3.6356   -0.6878   -0.1222 C   0  0  0  0  0  0  0  0  0  0  0  0
    2.9168    0.0620    0.7891 C   0  0  0  0  0  0  0  0  0  0  0  0
    1.6006    0.0957    0.8072 O   0  0  0  0  0  0  0  0  0  0  0  0
    0.8869   -0.5862   -0.0459 C   0  0  0  0  0  0  0  0  0  0  0  0
   -0.5030   -0.5614   -0.0401 C   0  0  0  0  0  0  0  0  0  0  0  0
   -1.2638   -1.2790   -0.9381 C   0  0  0  0  0  0  0  0  0  0  0  0
   -2.6988   -1.2567   -0.9366 C   0  0  0  0  0  0  0  0  0  0  0  0
   -3.9044   -1.2232   -0.9206 C   0  0  0  0  0  0  0  0  0  0  0  0
   -5.3675   -1.1927   -0.9039 C   0  0  0  0  0  0  0  0  0  0  0  0
   -5.9162    0.2006   -0.6722 C   0  0  0  0  0  0  0  0  0  0  0  0
   -6.7987   -0.2956    0.3482 N   0  0  0  0  0  0  0  0  0  0  0  0
   -7.9840    0.1545    0.9697 C   0  0  0  0  0  0  0  0  0  0  0  0
   -8.5477   -0.5300    1.8681 O   0  0  0  0  0  0  0  0  0  0  0  0
   -8.5450    1.4675    0.5259 C   0  0  0  0  0  0  0  0  0  0  0  0
   -9.8133    1.8599    1.2511 C   0  0  0  0  0  0  0  0  0  0  0  0
   -9.1079    3.0569    1.7966 C   0  0  0  0  0  0  0  0  0  0  0  0
   -9.5860    4.2676    1.3304 F   0  0  0  0  0  0  0  0  0  0  0  0
   -9.0338    2.9810    3.1936 F   0  0  0  0  0  0  0  0  0  0  0  0
   -7.8128    2.5961    1.1783 C   0  0  0  0  0  0  0  0  0  0  0  0
   -5.9688   -1.4563    0.4803 C   0  0  0  0  0  0  0  0  0  0  0  0
   -0.5587   -2.0430   -1.8672 C   0  0  0  0  0  0  0  0  0  0  0  0
    0.8207   -2.0716   -1.8777 C   0  0  0  0  0  0  0  0  0  0  0  0
    1.5501   -1.3517   -0.9775 C   0  0  0  0  0  0  0  0  0  0  0  0
    2.9253   -1.4228   -1.0407 C   0  0  0  0  0  0  0  0  0  0  0  0
    3.5503   -2.1160   -1.8839 O   0  0  0  0  0  0  0  0  0  0  0  0
    5.8266   -0.6130   -1.2979 C   0  0  0  0  0  0  0  0  0  0  0  0
    7.2259   -0.6455   -1.2759 C   0  0  0  0  0  0  0  0  0  0  0  0
    9.6233    2.0457    0.6733 H   0  0  0  0  0  0  0  0  0  0  0  0
   10.7973    2.6533   -0.5435 H   0  0  0  0  0  0  0  0  0  0  0  0
    9.0224    2.3473   -0.9696 H   0  0  0  0  0  0  0  0  0  0  0  0
    9.7931   -1.5602    0.5932 H   0  0  0  0  0  0  0  0  0  0  0  0
    7.7198   -0.9961    1.9931 H   0  0  0  0  0  0  0  0  0  0  0  0
    5.2006   -0.9385    1.9624 H   0  0  0  0  0  0  0  0  0  0  0  0
    3.4798    0.6365    1.5072 H   0  0  0  0  0  0  0  0  0  0  0  0
   -1.0040    0.0550    0.7105 H   0  0  0  0  0  0  0  0  0  0  0  0
   -5.8571   -1.7598   -1.7065 H   0  0  0  0  0  0  0  0  0  0  0  0
   -5.1305    0.8705   -0.2487 H   0  0  0  0  0  0  0  0  0  0  0  0
   -6.3904    0.6031   -1.5795 H   0  0  0  0  0  0  0  0  0  0  0  0
   -8.5940    1.5770   -0.5817 H   0  0  0  0  0  0  0  0  0  0  0  0
  -10.6249    2.0627    0.5069 H   0  0  0  0  0  0  0  0  0  0  0  0
  -10.1381    1.0937    1.9793 H   0  0  0  0  0  0  0  0  0  0  0  0
   -7.3925    3.3256    0.4295 H   0  0  0  0  0  0  0  0  0  0  0  0
   -7.0185    2.3073    1.9092 H   0  0  0  0  0  0  0  0  0  0  0  0
   -5.1903   -1.3159    1.2794 H   0  0  0  0  0  0  0  0  0  0  0  0
   -6.4756   -2.4287    0.5736 H   0  0  0  0  0  0  0  0  0  0  0  0
   -1.0692   -2.6384   -2.6101 H   0  0  0  0  0  0  0  0  0  0  0  0
    1.3398   -2.6864   -2.6263 H   0  0  0  0  0  0  0  0  0  0  0  0
    5.3328   -0.5039   -2.2440 H   0  0  0  0  0  0  0  0  0  0  0  0
    7.7886   -0.5615   -2.2108 H   0  0  0  0  0  0  0  0  0  0  0  0
  1  2  1  0
  2  3  2  0
  2  4  2  0
  2  5  1  0
  5  6  1  0
  6  7  2  0
  7  8  1  0
  8  9  2  0
  9 10  1  0
 10 11  2  0
 11 12  1  0
 12 13  1  0
 13 14  2  0
 14 15  1  0
 15 16  1  0
 16 17  3  0
 17 18  1  0
 18 19  1  0
 19 20  1  0
 20 21  1  0
 21 22  2  0
 21 23  1  0
 23 24  1  0
 24 25  1  0
 25 26  1  0
 25 27  1  0
 25 28  1  0
 20 29  1  0
 15 30  2  0
 30 31  1  0
 31 32  2  0
 32 33  1  0
 33 34  2  0
  9 35  1  0
 35 36  2  0
 36  6  1  0
 33 10  1  0
 32 13  1  0
 29 18  1  0
 28 23  1  0
  1 37  1  0
  1 38  1  0
  1 39  1  0
  5 40  1  0
  7 41  1  0
  8 42  1  0
 11 43  1  0
 14 44  1  0
 18 45  1  0
 19 46  1  0
 19 47  1  0
 23 48  1  0
 24 49  1  0
 24 50  1  0
 28 51  1  0
 28 52  1  0
 29 53  1  0
 29 54  1  0
 30 55  1  0
 31 56  1  0
 35 57  1  0
 36 58  1  0
M  END
$$$$
