
     RDKit          3D

 89 92  0  0  0  0  0  0  0  0999 V2000
  -11.7903    1.5346   -1.2346 C   0  0  0  0  0  0  0  0  0  0  0  0
  -10.5492    2.3692   -1.3676 C   0  0  0  0  0  0  0  0  0  0  0  0
  -10.7234    3.6849   -0.6054 C   0  0  0  0  0  0  0  0  0  0  0  0
   -9.2824    1.7395   -0.9303 C   0  0  0  0  0  0  0  0  0  0  0  0
   -9.2441    1.3352    0.5185 C   0  0  1  0  0  0  0  0  0  0  0  0
  -10.2547    0.3741    0.8021 N   0  0  0  0  0  0  0  0  0  0  0  0
  -10.2928   -0.7967    0.2767 C   0  0  0  0  0  0  0  0  0  0  0  0
  -11.2312   -1.8496    0.4651 N   0  0  0  0  0  0  0  0  0  0  0  0
   -9.3536   -1.2947   -0.6575 N   0  0  0  0  0  0  0  0  0  0  0  0
   -7.8809    0.8835    0.9220 C   0  0  0  0  0  0  0  0  0  0  0  0
   -7.0913    1.7901    0.5393 O   0  0  0  0  0  0  0  0  0  0  0  0
   -7.4335   -0.2678    1.5842 N   0  0  0  0  0  0  0  0  0  0  0  0
   -6.0214   -0.3790    1.8117 C   0  0  0  0  0  0  0  0  0  0  0  0
   -5.2485   -0.3672    0.5357 C   0  0  0  0  0  0  0  0  0  0  0  0
   -5.6076   -0.2787   -0.6666 O   0  0  0  0  0  0  0  0  0  0  0  0
   -3.8303   -0.4695    0.5693 N   0  0  0  0  0  0  0  0  0  0  0  0
   -3.1659   -0.4484   -0.6867 C   0  0  0  0  0  0  0  0  0  0  0  0
   -1.9100    0.3532   -0.6329 C   0  0  0  0  0  0  0  0  0  0  0  0
   -1.0618    0.2067    0.5727 C   0  0  0  0  0  0  0  0  0  0  0  0
   -1.6903   -0.3528    1.7979 C   0  0  0  0  0  0  0  0  0  0  0  0
   -3.1438   -0.5860    1.8050 C   0  0  0  0  0  0  0  0  0  0  0  0
    0.2939   -0.3501    0.2788 C   0  0  0  0  0  0  0  0  0  0  0  0
    1.5171    0.2755    0.4233 C   0  0  0  0  0  0  0  0  0  0  0  0
    2.5491   -0.5338    0.0556 C   0  0  0  0  0  0  0  0  0  0  0  0
    1.9348   -1.6561   -0.3129 N   0  0  0  0  0  0  0  0  0  0  0  0
    0.6224   -1.5642   -0.1885 N   0  0  0  0  0  0  0  0  0  0  0  0
   -0.2832   -2.6333   -0.5195 C   0  0  0  0  0  0  0  0  0  0  0  0
    3.9930   -0.4336   -0.0089 C   0  0  0  0  0  0  0  0  0  0  0  0
    4.7461    0.6578    0.3446 C   0  0  0  0  0  0  0  0  0  0  0  0
    3.9616    2.0992    0.9376 Cl  0  0  0  0  0  0  0  0  0  0  0  0
    6.1197    0.7284    0.2740 C   0  0  0  0  0  0  0  0  0  0  0  0
    7.0109    2.1554    0.7430 Cl  0  0  0  0  0  0  0  0  0  0  0  0
    6.8183   -0.3581   -0.1802 C   0  0  0  0  0  0  0  0  0  0  0  0
    8.2010   -0.3270   -0.2662 O   0  0  0  0  0  0  0  0  0  0  0  0
    8.9497   -1.4381   -0.7337 C   0  0  0  0  0  0  0  0  0  0  0  0
   10.4103   -1.0738   -0.7008 C   0  0  0  0  0  0  0  0  0  0  0  0
   11.0341   -1.3829    0.4927 C   0  0  0  0  0  0  0  0  0  0  0  0
   12.3866   -1.1028    0.6689 C   0  0  0  0  0  0  0  0  0  0  0  0
   13.0268   -0.5149   -0.4032 C   0  0  0  0  0  0  0  0  0  0  0  0
   14.4228   -0.2302   -0.2099 N   0  0  0  0  0  0  0  0  0  0  0  0
   14.5076    1.0843    0.3322 C   0  0  0  0  0  0  0  0  0  0  0  0
   15.6742    1.9112    0.7344 C   0  0  0  0  0  0  0  0  0  0  0  0
   13.4564    1.7707    0.5550 O   0  0  0  0  0  0  0  0  0  0  0  0
   12.4156   -0.2006   -1.6015 C   0  0  0  0  0  0  0  0  0  0  0  0
   11.0672   -0.4858   -1.7619 C   0  0  0  0  0  0  0  0  0  0  0  0
    6.1175   -1.4652   -0.5433 C   0  0  0  0  0  0  0  0  0  0  0  0
    4.7395   -1.5009   -0.4593 C   0  0  0  0  0  0  0  0  0  0  0  0
  -12.6114    2.1019   -1.7494 H   0  0  0  0  0  0  0  0  0  0  0  0
  -11.7123    0.5829   -1.7798 H   0  0  0  0  0  0  0  0  0  0  0  0
  -12.0961    1.4234   -0.1781 H   0  0  0  0  0  0  0  0  0  0  0  0
  -10.4040    2.6762   -2.4408 H   0  0  0  0  0  0  0  0  0  0  0  0
  -11.3804    4.3456   -1.2241 H   0  0  0  0  0  0  0  0  0  0  0  0
   -9.7218    4.1517   -0.4936 H   0  0  0  0  0  0  0  0  0  0  0  0
  -11.1651    3.5075    0.3824 H   0  0  0  0  0  0  0  0  0  0  0  0
   -9.0644    0.8701   -1.5910 H   0  0  0  0  0  0  0  0  0  0  0  0
   -8.4510    2.4578   -1.1263 H   0  0  0  0  0  0  0  0  0  0  0  0
   -9.4665    2.2478    1.1691 H   0  0  0  0  0  0  0  0  0  0  0  0
  -11.2654   -2.7029    1.0409 H   0  0  0  0  0  0  0  0  0  0  0  0
  -12.1412   -1.9052   -0.0259 H   0  0  0  0  0  0  0  0  0  0  0  0
   -8.6968   -1.5050   -1.4332 H   0  0  0  0  0  0  0  0  0  0  0  0
   -8.8196   -2.1871   -0.6491 H   0  0  0  0  0  0  0  0  0  0  0  0
   -8.1991   -0.9007    1.8314 H   0  0  0  0  0  0  0  0  0  0  0  0
   -5.8289   -1.3173    2.3657 H   0  0  0  0  0  0  0  0  0  0  0  0
   -5.7208    0.4847    2.4697 H   0  0  0  0  0  0  0  0  0  0  0  0
   -2.9194   -1.5101   -0.9399 H   0  0  0  0  0  0  0  0  0  0  0  0
   -3.7896   -0.0542   -1.5157 H   0  0  0  0  0  0  0  0  0  0  0  0
   -1.2878    0.0112   -1.5123 H   0  0  0  0  0  0  0  0  0  0  0  0
   -2.1850    1.3947   -0.8995 H   0  0  0  0  0  0  0  0  0  0  0  0
   -0.8244    1.2769    0.8660 H   0  0  0  0  0  0  0  0  0  0  0  0
   -1.1474   -1.3148    2.0440 H   0  0  0  0  0  0  0  0  0  0  0  0
   -1.4732    0.2499    2.7328 H   0  0  0  0  0  0  0  0  0  0  0  0
   -3.7088    0.0734    2.5299 H   0  0  0  0  0  0  0  0  0  0  0  0
   -3.3753   -1.6166    2.2076 H   0  0  0  0  0  0  0  0  0  0  0  0
    1.6599    1.2807    0.7815 H   0  0  0  0  0  0  0  0  0  0  0  0
   -0.7330   -2.4263   -1.5375 H   0  0  0  0  0  0  0  0  0  0  0  0
    0.2542   -3.5991   -0.6924 H   0  0  0  0  0  0  0  0  0  0  0  0
   -1.1537   -2.7372    0.1239 H   0  0  0  0  0  0  0  0  0  0  0  0
    8.7498   -2.3677   -0.1727 H   0  0  0  0  0  0  0  0  0  0  0  0
    8.7098   -1.5237   -1.8148 H   0  0  0  0  0  0  0  0  0  0  0  0
   10.5344   -1.8438    1.3341 H   0  0  0  0  0  0  0  0  0  0  0  0
   12.8788   -1.3355    1.5820 H   0  0  0  0  0  0  0  0  0  0  0  0
   15.3799   -0.6366   -0.3233 H   0  0  0  0  0  0  0  0  0  0  0  0
   15.5750    2.3317    1.7581 H   0  0  0  0  0  0  0  0  0  0  0  0
   16.6110    1.3731    0.5631 H   0  0  0  0  0  0  0  0  0  0  0  0
   15.6629    2.7932    0.0432 H   0  0  0  0  0  0  0  0  0  0  0  0
   12.9620    0.2644   -2.4228 H   0  0  0  0  0  0  0  0  0  0  0  0
   10.5123   -0.2755   -2.6593 H   0  0  0  0  0  0  0  0  0  0  0  0
    6.6754   -2.3122   -0.8984 H   0  0  0  0  0  0  0  0  0  0  0  0
    4.2908   -2.4392   -0.7772 H   0  0  0  0  0  0  0  0  0  0  0  0
  1  2  1  0
  2  3  1  0
  2  4  1  0
  4  5  1  0
  5  6  1  0
  6  7  2  3
  7  8  1  0
  7  9  1  0
  5 10  1  0
 10 11  2  0
 10 12  1  0
 12 13  1  0
 13 14  1  0
 14 15  2  0
 14 16  1  0
 16 17  1  0
 17 18  1  0
 18 19  1  0
 19 20  1  0
 20 21  1  0
 19 22  1  0
 22 23  2  0
 23 24  1  0
 24 25  2  0
 25 26  1  0
 26 27  1  0
 24 28  1  0
 28 29  2  0
 29 30  1  0
 29 31  1  0
 31 32  1  0
 31 33  2  0
 33 34  1  0
 34 35  1  0
 35 36  1  0
 36 37  2  0
 37 38  1  0
 38 39  2  0
 39 40  1  0
 40 41  1  0
 41 42  1  0
 41 43  2  0
 39 44  1  0
 44 45  2  0
 33 46  1  0
 46 47  2  0
 21 16  1  0
 26 22  1  0
 47 28  1  0
 45 36  1  0
  1 48  1  0
  1 49  1  0
  1 50  1  0
  2 51  1  0
  3 52  1  0
  3 53  1  0
  3 54  1  0
  4 55  1  0
  4 56  1  0
  5 57  1  1
  8 58  1  0
  8 59  1  0
  9 60  1  0
  9 61  1  0
 12 62  1  0
 13 63  1  0
 13 64  1  0
 17 65  1  0
 17 66  1  0
 18 67  1  0
 18 68  1  0
 19 69  1  0
 20 70  1  0
 20 71  1  0
 21 72  1  0
 21 73  1  0
 23 74  1  0
 27 75  1  0
 27 76  1  0
 27 77  1  0
 35 78  1  0
 35 79  1  0
 37 80  1  0
 38 81  1  0
 40 82  1  0
 42 83  1  0
 42 84  1  0
 42 85  1  0
 44 86  1  0
 45 87  1  0
 46 88  1  0
 47 89  1  0
M  END
$$$$
