
     RDKit          3D

 59 61  0  0  0  0  0  0  0  0999 V2000
   -0.3251   -3.8194   -1.5242 C   0  0  0  0  0  0  0  0  0  0  0  0
   -0.5176   -2.5469   -1.0798 O   0  0  0  0  0  0  0  0  0  0  0  0
   -1.7959   -2.0874   -1.0152 C   0  0  0  0  0  0  0  0  0  0  0  0
   -2.7231   -2.8731   -0.1104 C   0  0  0  0  0  0  0  0  0  0  0  0
   -2.4162   -2.1479   -2.3927 C   0  0  0  0  0  0  0  0  0  0  0  0
   -1.7804   -0.6892   -0.5097 C   0  0  0  0  0  0  0  0  0  0  0  0
   -2.2937    0.2950   -1.3206 C   0  0  0  0  0  0  0  0  0  0  0  0
   -2.3111    1.5467   -0.9320 N   0  0  0  0  0  0  0  0  0  0  0  0
   -1.8261    1.9353    0.2838 C   0  0  0  0  0  0  0  0  0  0  0  0
   -1.9044    3.3477    0.5914 C   0  0  0  0  0  0  0  0  0  0  0  0
   -2.4494    4.2161   -0.3243 C   0  0  0  0  0  0  0  0  0  0  0  0
   -2.5553    5.5794   -0.0955 C   0  0  0  0  0  0  0  0  0  0  0  0
   -3.2719    6.5943   -1.3427 Cl  0  0  0  0  0  0  0  0  0  0  0  0
   -2.1028    6.0953    1.0857 C   0  0  0  0  0  0  0  0  0  0  0  0
   -1.5567    5.2556    2.0137 C   0  0  0  0  0  0  0  0  0  0  0  0
   -1.4580    3.8693    1.7610 C   0  0  0  0  0  0  0  0  0  0  0  0
   -0.8976    3.1747    2.7694 F   0  0  0  0  0  0  0  0  0  0  0  0
   -1.3183    0.9509    1.0817 C   0  0  0  0  0  0  0  0  0  0  0  0
   -1.2643   -0.4114    0.7368 C   0  0  0  0  0  0  0  0  0  0  0  0
   -0.7263   -1.3091    1.6420 N   0  0  0  0  0  0  0  0  0  0  0  0
    0.2634   -2.2880    1.6098 C   0  0  0  0  0  0  0  0  0  0  0  0
   -0.1106   -3.6352    1.8925 C   0  0  0  0  0  0  0  0  0  0  0  0
    0.7642   -4.6760    1.8776 C   0  0  0  0  0  0  0  0  0  0  0  0
    2.0407   -4.4101    1.5810 N   0  0  0  0  0  0  0  0  0  0  0  0
    2.4350   -3.1606    1.3107 C   0  0  0  0  0  0  0  0  0  0  0  0
    1.5626   -2.0537    1.3157 C   0  0  0  0  0  0  0  0  0  0  0  0
    2.1688   -0.7558    1.0589 C   0  0  0  0  0  0  0  0  0  0  0  0
    1.5060    0.2862    1.2393 O   0  0  0  0  0  0  0  0  0  0  0  0
    3.4858   -0.5432    0.6054 N   0  0  0  0  0  0  0  0  0  0  0  0
    4.0331    0.7818    0.3673 C   0  0  0  0  0  0  0  0  0  0  0  0
    3.2911    1.5616   -0.6606 C   0  0  0  0  0  0  0  0  0  0  0  0
    4.0734    2.8473   -0.9069 C   0  0  0  0  0  0  0  0  0  0  0  0
    3.3311    0.8530   -1.8844 O   0  0  0  0  0  0  0  0  0  0  0  0
   -0.6778   -4.0114   -2.5529 H   0  0  0  0  0  0  0  0  0  0  0  0
   -0.7188   -4.5740   -0.8017 H   0  0  0  0  0  0  0  0  0  0  0  0
    0.7846   -4.0288   -1.5713 H   0  0  0  0  0  0  0  0  0  0  0  0
   -3.7534   -2.7442   -0.5010 H   0  0  0  0  0  0  0  0  0  0  0  0
   -2.4976   -3.9373   -0.0536 H   0  0  0  0  0  0  0  0  0  0  0  0
   -2.7439   -2.4593    0.9186 H   0  0  0  0  0  0  0  0  0  0  0  0
   -2.5054   -3.2276   -2.6782 H   0  0  0  0  0  0  0  0  0  0  0  0
   -3.4928   -1.7989   -2.3420 H   0  0  0  0  0  0  0  0  0  0  0  0
   -1.8244   -1.6132   -3.1404 H   0  0  0  0  0  0  0  0  0  0  0  0
   -2.6922    0.0145   -2.3165 H   0  0  0  0  0  0  0  0  0  0  0  0
   -2.8228    3.8435   -1.2808 H   0  0  0  0  0  0  0  0  0  0  0  0
   -2.1847    7.1494    1.2626 H   0  0  0  0  0  0  0  0  0  0  0  0
   -1.2092    5.6922    2.9348 H   0  0  0  0  0  0  0  0  0  0  0  0
   -0.9287    1.2251    2.0538 H   0  0  0  0  0  0  0  0  0  0  0  0
   -1.1910   -1.2403    2.6427 H   0  0  0  0  0  0  0  0  0  0  0  0
   -1.1555   -3.7689    2.1282 H   0  0  0  0  0  0  0  0  0  0  0  0
    0.3899   -5.6760    2.1065 H   0  0  0  0  0  0  0  0  0  0  0  0
    3.4890   -3.0398    1.0849 H   0  0  0  0  0  0  0  0  0  0  0  0
    4.1048   -1.3442    0.4240 H   0  0  0  0  0  0  0  0  0  0  0  0
    5.0991    0.7603    0.1498 H   0  0  0  0  0  0  0  0  0  0  0  0
    3.9199    1.3326    1.3456 H   0  0  0  0  0  0  0  0  0  0  0  0
    2.2484    1.7846   -0.3897 H   0  0  0  0  0  0  0  0  0  0  0  0
    3.5917    3.7077   -0.3732 H   0  0  0  0  0  0  0  0  0  0  0  0
    5.0978    2.7808   -0.4801 H   0  0  0  0  0  0  0  0  0  0  0  0
    4.1744    3.0572   -1.9950 H   0  0  0  0  0  0  0  0  0  0  0  0
    4.1488    0.3329   -1.9251 H   0  0  0  0  0  0  0  0  0  0  0  0
  1  2  1  0
  2  3  1  0
  3  4  1  0
  3  5  1  0
  3  6  1  0
  6  7  2  0
  7  8  1  0
  8  9  2  0
  9 10  1  0
 10 11  2  0
 11 12  1  0
 12 13  1  0
 12 14  2  0
 14 15  1  0
 15 16  2  0
 16 17  1  0
  9 18  1  0
 18 19  2  0
 19 20  1  0
 20 21  1  0
 21 22  2  0
 22 23  1  0
 23 24  2  0
 24 25  1  0
 25 26  2  0
 26 27  1  0
 27 28  2  0
 27 29  1  0
 29 30  1  0
 30 31  1  0
 31 32  1  0
 31 33  1  0
 19  6  1  0
 26 21  1  0
 16 10  1  0
  1 34  1  0
  1 35  1  0
  1 36  1  0
  4 37  1  0
  4 38  1  0
  4 39  1  0
  5 40  1  0
  5 41  1  0
  5 42  1  0
  7 43  1  0
 11 44  1  0
 14 45  1  0
 15 46  1  0
 18 47  1  0
 20 48  1  0
 22 49  1  0
 23 50  1  0
 25 51  1  0
 29 52  1  0
 30 53  1  0
 30 54  1  0
 31 55  1  0
 32 56  1  0
 32 57  1  0
 32 58  1  0
 33 59  1  0
M  END
$$$$
