
     RDKit          3D

 43 46  0  0  0  0  0  0  0  0999 V2000
    5.2453    2.6479    0.4912 C   0  0  0  0  0  0  0  0  0  0  0  0
    5.5870    1.0889   -0.2380 S   0  0  0  0  0  0  0  0  0  0  0  0
    5.2345    1.1637   -1.7068 O   0  0  0  0  0  0  0  0  0  0  0  0
    7.0352    0.7380   -0.1502 O   0  0  0  0  0  0  0  0  0  0  0  0
    4.6917   -0.2310    0.4888 C   0  0  0  0  0  0  0  0  0  0  0  0
    3.4764   -0.6567    0.0200 C   0  0  0  0  0  0  0  0  0  0  0  0
    2.8262   -1.7128    0.6163 C   0  0  0  0  0  0  0  0  0  0  0  0
    1.5774   -2.0383    0.0576 N   0  0  0  0  0  0  0  0  0  0  0  0
    0.6855   -1.3446   -0.7894 C   0  0  0  0  0  0  0  0  0  0  0  0
   -0.5774   -1.3422   -0.3493 N   0  0  0  0  0  0  0  0  0  0  0  0
   -1.6217   -0.7638   -0.9551 C   0  0  0  0  0  0  0  0  0  0  0  0
   -2.9029   -0.8549   -0.3459 N   0  0  0  0  0  0  0  0  0  0  0  0
   -3.8361   -0.2933    0.5390 C   0  0  0  0  0  0  0  0  0  0  0  0
   -3.8548   -0.6094    1.8833 C   0  0  0  0  0  0  0  0  0  0  0  0
   -2.7017   -1.7205    2.5706 Cl  0  0  0  0  0  0  0  0  0  0  0  0
   -4.8246   -0.0057    2.6589 C   0  0  0  0  0  0  0  0  0  0  0  0
   -5.7052    0.8651    2.0604 C   0  0  0  0  0  0  0  0  0  0  0  0
   -5.6879    1.1838    0.7125 C   0  0  0  0  0  0  0  0  0  0  0  0
   -4.7193    0.5870   -0.0928 C   0  0  0  0  0  0  0  0  0  0  0  0
   -4.8939    1.0458   -1.3725 O   0  0  0  0  0  0  0  0  0  0  0  0
   -5.9304    1.9986   -1.3970 C   0  0  0  0  0  0  0  0  0  0  0  0
   -6.4783    2.0262   -0.0733 O   0  0  0  0  0  0  0  0  0  0  0  0
   -1.3793   -0.1105   -2.1411 C   0  0  0  0  0  0  0  0  0  0  0  0
   -0.0983   -0.0831   -2.6380 C   0  0  0  0  0  0  0  0  0  0  0  0
    0.8804   -0.6958   -1.9511 N   0  0  0  0  0  0  0  0  0  0  0  0
    3.3567   -2.3808    1.6932 C   0  0  0  0  0  0  0  0  0  0  0  0
    4.5756   -1.9737    2.1856 C   0  0  0  0  0  0  0  0  0  0  0  0
    5.2241   -0.9017    1.5723 C   0  0  0  0  0  0  0  0  0  0  0  0
    6.2020    3.2156    0.6015 H   0  0  0  0  0  0  0  0  0  0  0  0
    4.7580    2.5082    1.4772 H   0  0  0  0  0  0  0  0  0  0  0  0
    4.6231    3.2595   -0.1943 H   0  0  0  0  0  0  0  0  0  0  0  0
    3.1070   -0.0805   -0.8449 H   0  0  0  0  0  0  0  0  0  0  0  0
    1.2489   -3.0159    0.3347 H   0  0  0  0  0  0  0  0  0  0  0  0
   -3.2911   -1.7264   -0.7563 H   0  0  0  0  0  0  0  0  0  0  0  0
   -4.8991   -0.2078    3.7114 H   0  0  0  0  0  0  0  0  0  0  0  0
   -6.4726    1.3467    2.6573 H   0  0  0  0  0  0  0  0  0  0  0  0
   -5.6072    2.9842   -1.7336 H   0  0  0  0  0  0  0  0  0  0  0  0
   -6.7286    1.6231   -2.0672 H   0  0  0  0  0  0  0  0  0  0  0  0
   -2.2049    0.3703   -2.6584 H   0  0  0  0  0  0  0  0  0  0  0  0
    0.1508    0.4176   -3.5684 H   0  0  0  0  0  0  0  0  0  0  0  0
    2.7621   -3.2093    2.1037 H   0  0  0  0  0  0  0  0  0  0  0  0
    4.9719   -2.5138    3.0400 H   0  0  0  0  0  0  0  0  0  0  0  0
    6.1953   -0.5976    1.9895 H   0  0  0  0  0  0  0  0  0  0  0  0
  1  2  1  0
  2  3  2  0
  2  4  2  0
  2  5  1  0
  5  6  2  0
  6  7  1  0
  7  8  1  0
  8  9  1  0
  9 10  2  0
 10 11  1  0
 11 12  1  0
 12 13  1  0
 13 14  2  0
 14 15  1  0
 14 16  1  0
 16 17  2  0
 17 18  1  0
 18 19  2  0
 19 20  1  0
 20 21  1  0
 21 22  1  0
 11 23  2  0
 23 24  1  0
 24 25  2  0
  7 26  2  0
 26 27  1  0
 27 28  2  0
 28  5  1  0
 25  9  1  0
 19 13  1  0
 22 18  1  0
  1 29  1  0
  1 30  1  0
  1 31  1  0
  6 32  1  0
  8 33  1  0
 12 34  1  0
 16 35  1  0
 17 36  1  0
 21 37  1  0
 21 38  1  0
 23 39  1  0
 24 40  1  0
 26 41  1  0
 27 42  1  0
 28 43  1  0
M  END
$$$$
