
     RDKit          3D

 64 68  0  0  0  0  0  0  0  0999 V2000
    9.4535    1.0267    0.4640 C   0  0  0  0  0  0  0  0  0  0  0  0
    8.9862    0.0869   -0.4780 O   0  0  0  0  0  0  0  0  0  0  0  0
    7.8150   -0.6208   -0.2584 C   0  0  0  0  0  0  0  0  0  0  0  0
    7.3582   -1.5399   -1.1787 C   0  0  0  0  0  0  0  0  0  0  0  0
    6.2040   -2.2509   -0.9840 C   0  0  0  0  0  0  0  0  0  0  0  0
    5.4357   -2.0770    0.1575 C   0  0  0  0  0  0  0  0  0  0  0  0
    4.2121   -2.8524    0.3704 C   0  0  0  0  0  0  0  0  0  0  0  0
    3.0264   -2.2974   -0.2608 N   0  0  0  0  0  0  0  0  0  0  0  0
    2.3252   -1.2235    0.2677 C   0  0  0  0  0  0  0  0  0  0  0  0
    2.7755   -0.7307    1.3743 O   0  0  0  0  0  0  0  0  0  0  0  0
    1.1452   -0.5832   -0.2669 C   0  0  0  0  0  0  0  0  0  0  0  0
    0.4244    0.3574    0.4834 C   0  0  0  0  0  0  0  0  0  0  0  0
   -0.6946    0.9663    0.0214 C   0  0  0  0  0  0  0  0  0  0  0  0
   -1.4223    2.0056    0.8538 C   0  0  0  0  0  0  0  0  0  0  0  0
   -0.4766    3.0422    1.1123 N   0  0  0  0  0  0  0  0  0  0  0  0
   -0.6522    4.3623    0.6767 C   0  0  0  0  0  0  0  0  0  0  0  0
    0.2168    5.2701    0.8552 O   0  0  0  0  0  0  0  0  0  0  0  0
   -1.8535    4.7086    0.0045 N   0  0  0  0  0  0  0  0  0  0  0  0
   -2.8470    3.6945   -0.2161 C   0  0  0  0  0  0  0  0  0  0  0  0
   -4.0849    4.1417   -0.9135 C   0  0  0  0  0  0  0  0  0  0  0  0
   -2.6479    2.4489    0.1841 C   0  0  0  0  0  0  0  0  0  0  0  0
   -3.7534    1.4719   -0.0386 C   0  0  0  0  0  0  0  0  0  0  0  0
   -4.8269    1.7882   -0.5909 O   0  0  0  0  0  0  0  0  0  0  0  0
   -3.6626    0.1122    0.3662 N   0  0  0  0  0  0  0  0  0  0  0  0
   -4.7167   -0.8154    0.1464 C   0  0  0  0  0  0  0  0  0  0  0  0
   -4.7888   -1.5662   -1.0043 C   0  0  0  0  0  0  0  0  0  0  0  0
   -5.8321   -2.4729   -1.2048 C   0  0  0  0  0  0  0  0  0  0  0  0
   -6.8042   -2.6354   -0.2645 C   0  0  0  0  0  0  0  0  0  0  0  0
   -7.9064   -3.4322   -0.2111 N   0  0  0  0  0  0  0  0  0  0  0  0
   -8.5162   -3.1922    0.9434 N   0  0  0  0  0  0  0  0  0  0  0  0
   -7.8480   -2.2639    1.6463 C   0  0  0  0  0  0  0  0  0  0  0  0
   -6.7526   -1.8968    0.8914 C   0  0  0  0  0  0  0  0  0  0  0  0
   -5.7059   -0.9917    1.0851 C   0  0  0  0  0  0  0  0  0  0  0  0
   -1.1504    0.6586   -1.2299 C   0  0  0  0  0  0  0  0  0  0  0  0
   -0.4866   -0.2649   -2.0305 C   0  0  0  0  0  0  0  0  0  0  0  0
    0.6553   -0.8588   -1.5063 C   0  0  0  0  0  0  0  0  0  0  0  0
    1.2566   -1.7387   -2.3436 F   0  0  0  0  0  0  0  0  0  0  0  0
    5.8801   -1.1720    1.0706 C   0  0  0  0  0  0  0  0  0  0  0  0
    7.0593   -0.4411    0.8783 C   0  0  0  0  0  0  0  0  0  0  0  0
    8.7801    1.8803    0.6141 H   0  0  0  0  0  0  0  0  0  0  0  0
    9.6335    0.4454    1.4124 H   0  0  0  0  0  0  0  0  0  0  0  0
   10.4544    1.4145    0.1775 H   0  0  0  0  0  0  0  0  0  0  0  0
    7.9613   -1.6799   -2.0801 H   0  0  0  0  0  0  0  0  0  0  0  0
    5.8504   -2.9687   -1.7064 H   0  0  0  0  0  0  0  0  0  0  0  0
    4.3136   -3.9190    0.0841 H   0  0  0  0  0  0  0  0  0  0  0  0
    4.0241   -2.8711    1.4837 H   0  0  0  0  0  0  0  0  0  0  0  0
    2.6927   -2.7353   -1.1427 H   0  0  0  0  0  0  0  0  0  0  0  0
    0.8095    0.5783    1.4661 H   0  0  0  0  0  0  0  0  0  0  0  0
   -1.6415    1.4738    1.8202 H   0  0  0  0  0  0  0  0  0  0  0  0
    0.4196    2.8597    1.6565 H   0  0  0  0  0  0  0  0  0  0  0  0
   -2.0299    5.6677   -0.3284 H   0  0  0  0  0  0  0  0  0  0  0  0
   -4.2855    3.5943   -1.8542 H   0  0  0  0  0  0  0  0  0  0  0  0
   -4.0197    5.2255   -1.1726 H   0  0  0  0  0  0  0  0  0  0  0  0
   -4.9527    4.0311   -0.2492 H   0  0  0  0  0  0  0  0  0  0  0  0
   -2.8083   -0.2232    0.8524 H   0  0  0  0  0  0  0  0  0  0  0  0
   -4.0280   -1.4495   -1.7576 H   0  0  0  0  0  0  0  0  0  0  0  0
   -5.8977   -3.0712   -2.1112 H   0  0  0  0  0  0  0  0  0  0  0  0
   -8.2371   -4.1203   -0.9368 H   0  0  0  0  0  0  0  0  0  0  0  0
   -8.0668   -1.8422    2.6149 H   0  0  0  0  0  0  0  0  0  0  0  0
   -5.6756   -0.4164    1.9978 H   0  0  0  0  0  0  0  0  0  0  0  0
   -2.0305    1.0999   -1.6820 H   0  0  0  0  0  0  0  0  0  0  0  0
   -0.8408   -0.5082   -3.0097 H   0  0  0  0  0  0  0  0  0  0  0  0
    5.3670   -0.9693    1.9917 H   0  0  0  0  0  0  0  0  0  0  0  0
    7.4082    0.2793    1.6100 H   0  0  0  0  0  0  0  0  0  0  0  0
  1  2  1  0
  2  3  1  0
  3  4  2  0
  4  5  1  0
  5  6  2  0
  6  7  1  0
  7  8  1  0
  8  9  1  0
  9 10  2  0
  9 11  1  0
 11 12  2  0
 12 13  1  0
 13 14  1  0
 14 15  1  0
 15 16  1  0
 16 17  2  0
 16 18  1  0
 18 19  1  0
 19 20  1  0
 19 21  2  0
 21 22  1  0
 22 23  2  0
 22 24  1  0
 24 25  1  0
 25 26  2  0
 26 27  1  0
 27 28  2  0
 28 29  1  0
 29 30  1  0
 30 31  2  0
 31 32  1  0
 32 33  2  0
 13 34  2  0
 34 35  1  0
 35 36  2  0
 36 37  1  0
  6 38  1  0
 38 39  2  0
 39  3  1  0
 36 11  1  0
 21 14  1  0
 33 25  1  0
 32 28  1  0
  1 40  1  0
  1 41  1  0
  1 42  1  0
  4 43  1  0
  5 44  1  0
  7 45  1  0
  7 46  1  0
  8 47  1  0
 12 48  1  0
 14 49  1  0
 15 50  1  0
 18 51  1  0
 20 52  1  0
 20 53  1  0
 20 54  1  0
 24 55  1  0
 26 56  1  0
 27 57  1  0
 29 58  1  0
 31 59  1  0
 33 60  1  0
 34 61  1  0
 35 62  1  0
 38 63  1  0
 39 64  1  0
M  END
$$$$
