
     RDKit          3D

 66 69  0  0  0  0  0  0  0  0999 V2000
    9.5481   -2.2611    0.1923 O   0  0  0  0  0  0  0  0  0  0  0  0
    8.2767   -1.6997    0.2853 N   0  0  0  0  0  0  0  0  0  0  0  0
    8.0703   -0.4522    0.4832 C   0  0  0  0  0  0  0  0  0  0  0  0
    9.3832    0.1008    0.5660 N   0  0  0  0  0  0  0  0  0  0  0  0
    6.6884   -0.0537    0.5528 N   0  0  0  0  0  0  0  0  0  0  0  0
    5.8179   -0.4260   -0.5483 C   0  0  0  0  0  0  0  0  0  0  0  0
    4.5703    0.4467   -0.4777 C   0  0  0  0  0  0  0  0  0  0  0  0
    4.1283    0.3661    0.9871 C   0  0  0  0  0  0  0  0  0  0  0  0
    5.0342    1.3223    1.7291 C   0  0  0  0  0  0  0  0  0  0  0  0
    6.3990    0.6828    1.7674 C   0  0  0  0  0  0  0  0  0  0  0  0
    2.6774    0.7194    1.1286 C   0  0  0  0  0  0  0  0  0  0  0  0
    1.9171   -0.2417    0.3200 N   0  0  0  0  0  0  0  0  0  0  0  0
    0.4995   -0.0698    0.3195 C   0  0  0  0  0  0  0  0  0  0  0  0
    0.1728    0.9034    1.0374 O   0  0  0  0  0  0  0  0  0  0  0  0
   -0.2174   -1.0729   -0.5202 C   0  0  2  0  0  0  0  0  0  0  0  0
   -0.0048   -0.7671   -2.0090 C   0  0  0  0  0  0  0  0  0  0  0  0
   -0.9221    0.3946   -2.3275 C   0  0  0  0  0  0  0  0  0  0  0  0
   -1.8432    0.4924   -1.1504 C   0  0  1  0  0  0  0  0  0  0  0  0
   -3.2821    0.7034   -1.5321 C   0  0  0  0  0  0  0  0  0  0  0  0
   -4.0726   -0.4513   -1.5362 N   0  0  0  0  0  0  0  0  0  0  0  0
   -4.0499   -1.3512   -0.4662 C   0  0  0  0  0  0  0  0  0  0  0  0
   -2.7213   -1.4300    0.2153 C   0  0  0  0  0  0  0  0  0  0  0  0
   -2.4867   -2.0338    1.2808 O   0  0  0  0  0  0  0  0  0  0  0  0
   -1.6404   -0.7481   -0.4262 N   0  0  0  0  0  0  0  0  0  0  0  0
   -5.6281   -0.1846   -2.1470 S   0  0  0  0  0  0  0  0  0  0  0  0
   -6.4242   -1.4674   -2.2709 O   0  0  0  0  0  0  0  0  0  0  0  0
   -5.4441    0.4051   -3.5494 O   0  0  0  0  0  0  0  0  0  0  0  0
   -6.6113    0.9712   -1.2681 C   0  0  0  0  0  0  0  0  0  0  0  0
   -6.8770    0.6604    0.1363 C   0  0  0  0  0  0  0  0  0  0  0  0
   -7.9616   -0.1682    0.4415 C   0  0  0  0  0  0  0  0  0  0  0  0
   -8.3685   -0.5487    1.7053 C   0  0  0  0  0  0  0  0  0  0  0  0
   -7.6149   -0.0486    2.7499 C   0  0  0  0  0  0  0  0  0  0  0  0
   -6.5312    0.7740    2.5314 C   0  0  0  0  0  0  0  0  0  0  0  0
   -6.1654    1.1247    1.2509 C   0  0  0  0  0  0  0  0  0  0  0  0
    9.9339   -2.3307   -0.7378 H   0  0  0  0  0  0  0  0  0  0  0  0
    9.9841   -0.0664    1.4101 H   0  0  0  0  0  0  0  0  0  0  0  0
    9.6905    0.6611   -0.2401 H   0  0  0  0  0  0  0  0  0  0  0  0
    5.4702   -1.4870   -0.4564 H   0  0  0  0  0  0  0  0  0  0  0  0
    6.2999   -0.2256   -1.5232 H   0  0  0  0  0  0  0  0  0  0  0  0
    3.8106    0.0974   -1.1798 H   0  0  0  0  0  0  0  0  0  0  0  0
    4.8797    1.4817   -0.6734 H   0  0  0  0  0  0  0  0  0  0  0  0
    4.3071   -0.6637    1.3608 H   0  0  0  0  0  0  0  0  0  0  0  0
    4.7131    1.5274    2.7668 H   0  0  0  0  0  0  0  0  0  0  0  0
    5.1362    2.2757    1.1600 H   0  0  0  0  0  0  0  0  0  0  0  0
    6.3600   -0.0627    2.5999 H   0  0  0  0  0  0  0  0  0  0  0  0
    7.1938    1.4417    1.9309 H   0  0  0  0  0  0  0  0  0  0  0  0
    2.5097    1.7402    0.7376 H   0  0  0  0  0  0  0  0  0  0  0  0
    2.3983    0.6908    2.1827 H   0  0  0  0  0  0  0  0  0  0  0  0
    2.4035   -1.0149   -0.2272 H   0  0  0  0  0  0  0  0  0  0  0  0
    0.0289   -2.0991   -0.2664 H   0  0  0  0  0  0  0  0  0  0  0  0
    1.0382   -0.5729   -2.2606 H   0  0  0  0  0  0  0  0  0  0  0  0
   -0.3520   -1.7055   -2.5351 H   0  0  0  0  0  0  0  0  0  0  0  0
   -0.2603    1.3024   -2.4171 H   0  0  0  0  0  0  0  0  0  0  0  0
   -1.4473    0.2748   -3.2949 H   0  0  0  0  0  0  0  0  0  0  0  0
   -1.5151    1.3362   -0.5186 H   0  0  0  0  0  0  0  0  0  0  0  0
   -3.7211    1.4285   -0.7944 H   0  0  0  0  0  0  0  0  0  0  0  0
   -3.3110    1.1778   -2.5360 H   0  0  0  0  0  0  0  0  0  0  0  0
   -4.7933   -1.1959    0.3369 H   0  0  0  0  0  0  0  0  0  0  0  0
   -4.1998   -2.3942   -0.8834 H   0  0  0  0  0  0  0  0  0  0  0  0
   -6.2156    2.0109   -1.3552 H   0  0  0  0  0  0  0  0  0  0  0  0
   -7.6071    1.0073   -1.7896 H   0  0  0  0  0  0  0  0  0  0  0  0
   -8.5539   -0.5605   -0.3973 H   0  0  0  0  0  0  0  0  0  0  0  0
   -9.2254   -1.1950    1.8168 H   0  0  0  0  0  0  0  0  0  0  0  0
   -7.9658   -0.3712    3.7379 H   0  0  0  0  0  0  0  0  0  0  0  0
   -5.9828    1.1314    3.3916 H   0  0  0  0  0  0  0  0  0  0  0  0
   -5.3236    1.7690    1.0400 H   0  0  0  0  0  0  0  0  0  0  0  0
  1  2  1  0
  2  3  2  0
  3  4  1  0
  3  5  1  0
  5  6  1  0
  6  7  1  0
  7  8  1  0
  8  9  1  0
  9 10  1  0
  8 11  1  0
 11 12  1  0
 12 13  1  0
 13 14  2  0
 13 15  1  0
 15 16  1  0
 16 17  1  0
 17 18  1  0
 18 19  1  0
 19 20  1  0
 20 21  1  0
 21 22  1  0
 22 23  2  0
 22 24  1  0
 20 25  1  0
 25 26  2  0
 25 27  2  0
 25 28  1  0
 28 29  1  0
 29 30  2  0
 30 31  1  0
 31 32  2  0
 32 33  1  0
 33 34  2  0
 10  5  1  0
 24 15  1  0
 34 29  1  0
 24 18  1  0
  1 35  1  0
  4 36  1  0
  4 37  1  0
  6 38  1  0
  6 39  1  0
  7 40  1  0
  7 41  1  0
  8 42  1  0
  9 43  1  0
  9 44  1  0
 10 45  1  0
 10 46  1  0
 11 47  1  0
 11 48  1  0
 12 49  1  0
 15 50  1  6
 16 51  1  0
 16 52  1  0
 17 53  1  0
 17 54  1  0
 18 55  1  1
 19 56  1  0
 19 57  1  0
 21 58  1  0
 21 59  1  0
 28 60  1  0
 28 61  1  0
 30 62  1  0
 31 63  1  0
 32 64  1  0
 33 65  1  0
 34 66  1  0
M  END
$$$$
