
     RDKit          3D

 28 30  0  0  0  0  0  0  0  0999 V2000
    5.2076   -0.3432    0.8616 O   0  0  0  0  0  0  0  0  0  0  0  0
    3.8174   -0.3025    0.9123 C   0  0  0  0  0  0  0  0  0  0  0  0
    3.4423   -0.2446    2.1312 O   0  0  0  0  0  0  0  0  0  0  0  0
    3.1057   -0.3336   -0.3972 C   0  0  0  0  0  0  0  0  0  0  0  0
    1.6786   -0.2881   -0.2517 N   0  0  0  0  0  0  0  0  0  0  0  0
    0.8131   -1.4113   -0.1219 C   0  0  0  0  0  0  0  0  0  0  0  0
    1.3781   -2.5373   -0.1395 O   0  0  0  0  0  0  0  0  0  0  0  0
   -0.6474   -1.2348    0.0223 C   0  0  0  0  0  0  0  0  0  0  0  0
   -1.4288   -2.3684    0.1438 C   0  0  0  0  0  0  0  0  0  0  0  0
   -2.7759   -2.1318    0.2741 C   0  0  0  0  0  0  0  0  0  0  0  0
   -3.3639   -0.8916    0.2899 C   0  0  0  0  0  0  0  0  0  0  0  0
   -2.5511    0.2401    0.1653 C   0  0  0  0  0  0  0  0  0  0  0  0
   -3.1191    1.5115    0.1780 C   0  0  0  0  0  0  0  0  0  0  0  0
   -2.3072    2.6251    0.0541 C   0  0  0  0  0  0  0  0  0  0  0  0
   -0.9467    2.4456   -0.0797 C   0  0  0  0  0  0  0  0  0  0  0  0
   -0.4140    1.1699   -0.0886 C   0  0  0  0  0  0  0  0  0  0  0  0
    1.0283    0.9982   -0.2311 C   0  0  0  0  0  0  0  0  0  0  0  0
    1.7347    2.0245   -0.3410 O   0  0  0  0  0  0  0  0  0  0  0  0
   -1.1897    0.0356    0.0323 C   0  0  0  0  0  0  0  0  0  0  0  0
    5.8093    0.1824    1.5148 H   0  0  0  0  0  0  0  0  0  0  0  0
    3.3475   -1.2469   -0.9854 H   0  0  0  0  0  0  0  0  0  0  0  0
    3.4089    0.5379   -1.0277 H   0  0  0  0  0  0  0  0  0  0  0  0
   -1.0057   -3.3578    0.1359 H   0  0  0  0  0  0  0  0  0  0  0  0
   -3.4782   -2.9470    0.3759 H   0  0  0  0  0  0  0  0  0  0  0  0
   -4.4229   -0.7357    0.3935 H   0  0  0  0  0  0  0  0  0  0  0  0
   -4.1775    1.6564    0.2818 H   0  0  0  0  0  0  0  0  0  0  0  0
   -2.6656    3.6495    0.0540 H   0  0  0  0  0  0  0  0  0  0  0  0
   -0.2778    3.2980   -0.1794 H   0  0  0  0  0  0  0  0  0  0  0  0
  1  2  1  0
  2  3  2  0
  2  4  1  0
  4  5  1  0
  5  6  1  0
  6  7  2  0
  6  8  1  0
  8  9  1  0
  9 10  2  0
 10 11  1  0
 11 12  2  0
 12 13  1  0
 13 14  2  0
 14 15  1  0
 15 16  2  0
 16 17  1  0
 17 18  2  0
 16 19  1  0
 17  5  1  0
 19  8  2  0
 19 12  1  0
  1 20  1  0
  4 21  1  0
  4 22  1  0
  9 23  1  0
 10 24  1  0
 11 25  1  0
 13 26  1  0
 14 27  1  0
 15 28  1  0
M  END
$$$$
