
     RDKit          3D

 62 66  0  0  0  0  0  0  0  0999 V2000
    8.2199   -3.4804   -0.3133 C   0  0  0  0  0  0  0  0  0  0  0  0
    7.2990   -2.9662    0.6194 O   0  0  0  0  0  0  0  0  0  0  0  0
    6.7863   -1.6798    0.3913 C   0  0  0  0  0  0  0  0  0  0  0  0
    7.1611   -0.9332   -0.7029 C   0  0  0  0  0  0  0  0  0  0  0  0
    6.6331    0.3264   -0.8892 C   0  0  0  0  0  0  0  0  0  0  0  0
    5.7231    0.8872   -0.0068 C   0  0  0  0  0  0  0  0  0  0  0  0
    5.1565    2.2353   -0.2027 C   0  0  0  0  0  0  0  0  0  0  0  0
    3.9359    2.2271   -0.9862 N   0  0  0  0  0  0  0  0  0  0  0  0
    3.9021    2.3336   -2.4109 C   0  0  0  0  0  0  0  0  0  0  0  0
    4.8749    2.4476   -3.2071 O   0  0  0  0  0  0  0  0  0  0  0  0
    2.4939    2.2846   -2.7817 C   0  0  0  0  0  0  0  0  0  0  0  0
    2.0323    2.3492   -3.9632 O   0  0  0  0  0  0  0  0  0  0  0  0
    1.7060    2.1493   -1.5714 C   0  0  0  0  0  0  0  0  0  0  0  0
    0.3243    2.0610   -1.4009 C   0  0  0  0  0  0  0  0  0  0  0  0
   -0.1856    1.9374   -0.1375 C   0  0  0  0  0  0  0  0  0  0  0  0
   -1.9201    1.8293    0.0593 S   0  0  0  0  0  6  0  0  0  0  0  0
   -2.5550    2.6648   -1.0186 O   0  0  0  0  0  0  0  0  0  0  0  0
   -2.2477    2.4892    1.3665 O   0  0  0  0  0  0  0  0  0  0  0  0
   -2.3576    0.1933   -0.0269 N   0  0  0  0  0  0  0  0  0  0  0  0
   -1.6835   -0.5027    1.0804 C   0  0  0  0  0  0  0  0  0  0  0  0
   -2.5241   -0.0688    2.2712 C   0  0  0  0  0  0  0  0  0  0  0  0
   -3.8701    0.2894    1.7258 C   0  0  0  0  0  0  0  0  0  0  0  0
   -3.7314   -0.1085    0.2699 C   0  0  1  0  0  0  0  0  0  0  0  0
   -4.7175    0.5511   -0.6112 C   0  0  0  0  0  0  0  0  0  0  0  0
   -6.0483    0.2854   -0.3687 O   0  0  0  0  0  0  0  0  0  0  0  0
   -6.8002   -0.8438   -0.4202 C   0  0  0  0  0  0  0  0  0  0  0  0
   -6.3659   -2.0868   -0.7791 C   0  0  0  0  0  0  0  0  0  0  0  0
   -7.2000   -3.1722   -0.7982 C   0  0  0  0  0  0  0  0  0  0  0  0
   -8.5201   -3.0125   -0.4464 C   0  0  0  0  0  0  0  0  0  0  0  0
   -9.0251   -1.7934   -0.0761 C   0  0  0  0  0  0  0  0  0  0  0  0
   -8.1591   -0.7339   -0.0695 C   0  0  0  0  0  0  0  0  0  0  0  0
    0.6833    1.9040    0.9298 C   0  0  0  0  0  0  0  0  0  0  0  0
    2.0599    1.9920    0.7600 C   0  0  0  0  0  0  0  0  0  0  0  0
    2.5832    2.1171   -0.5154 C   0  0  0  0  0  0  0  0  0  0  0  0
    5.3496    0.1419    1.0845 C   0  0  0  0  0  0  0  0  0  0  0  0
    5.8829   -1.1319    1.2738 C   0  0  0  0  0  0  0  0  0  0  0  0
    7.6999   -3.6623   -1.2726 H   0  0  0  0  0  0  0  0  0  0  0  0
    9.0953   -2.8005   -0.4623 H   0  0  0  0  0  0  0  0  0  0  0  0
    8.5949   -4.4640    0.0462 H   0  0  0  0  0  0  0  0  0  0  0  0
    7.8738   -1.3803   -1.3880 H   0  0  0  0  0  0  0  0  0  0  0  0
    6.9292    0.9028   -1.7435 H   0  0  0  0  0  0  0  0  0  0  0  0
    4.9826    2.7655    0.7623 H   0  0  0  0  0  0  0  0  0  0  0  0
    5.8964    2.8457   -0.7473 H   0  0  0  0  0  0  0  0  0  0  0  0
   -0.2993    2.0933   -2.2764 H   0  0  0  0  0  0  0  0  0  0  0  0
   -0.6295   -0.2420    1.1638 H   0  0  0  0  0  0  0  0  0  0  0  0
   -1.8242   -1.5882    0.8609 H   0  0  0  0  0  0  0  0  0  0  0  0
   -2.0455    0.7145    2.8716 H   0  0  0  0  0  0  0  0  0  0  0  0
   -2.6566   -1.0062    2.8878 H   0  0  0  0  0  0  0  0  0  0  0  0
   -4.6860   -0.3598    2.1516 H   0  0  0  0  0  0  0  0  0  0  0  0
   -4.1927    1.3140    1.8815 H   0  0  0  0  0  0  0  0  0  0  0  0
   -3.8162   -1.2029    0.2545 H   0  0  0  0  0  0  0  0  0  0  0  0
   -4.5772    1.6689   -0.4754 H   0  0  0  0  0  0  0  0  0  0  0  0
   -4.5374    0.3528   -1.7000 H   0  0  0  0  0  0  0  0  0  0  0  0
   -5.3377   -2.2480   -1.0777 H   0  0  0  0  0  0  0  0  0  0  0  0
   -6.8352   -4.1732   -1.0903 H   0  0  0  0  0  0  0  0  0  0  0  0
   -9.1763   -3.8864   -0.4656 H   0  0  0  0  0  0  0  0  0  0  0  0
  -10.0850   -1.6766    0.2037 H   0  0  0  0  0  0  0  0  0  0  0  0
   -8.5633    0.2356    0.2256 H   0  0  0  0  0  0  0  0  0  0  0  0
    0.3293    1.8084    1.9472 H   0  0  0  0  0  0  0  0  0  0  0  0
    2.7400    1.9661    1.6007 H   0  0  0  0  0  0  0  0  0  0  0  0
    4.6517    0.5364    1.7886 H   0  0  0  0  0  0  0  0  0  0  0  0
    5.5731   -1.6956    2.1383 H   0  0  0  0  0  0  0  0  0  0  0  0
  1  2  1  0
  2  3  1  0
  3  4  2  0
  4  5  1  0
  5  6  2  0
  6  7  1  0
  7  8  1  0
  8  9  1  0
  9 10  2  0
  9 11  1  0
 11 12  2  0
 11 13  1  0
 13 14  2  0
 14 15  1  0
 15 16  1  0
 16 17  2  0
 16 18  2  0
 16 19  1  0
 19 20  1  0
 20 21  1  0
 21 22  1  0
 22 23  1  0
 23 24  1  0
 24 25  1  0
 25 26  1  0
 26 27  2  0
 27 28  1  0
 28 29  2  0
 29 30  1  0
 30 31  2  0
 15 32  2  0
 32 33  1  0
 33 34  2  0
  6 35  1  0
 35 36  2  0
 36  3  1  0
 34  8  1  0
 34 13  1  0
 23 19  1  0
 31 26  1  0
  1 37  1  0
  1 38  1  0
  1 39  1  0
  4 40  1  0
  5 41  1  0
  7 42  1  0
  7 43  1  0
 14 44  1  0
 20 45  1  0
 20 46  1  0
 21 47  1  0
 21 48  1  0
 22 49  1  0
 22 50  1  0
 23 51  1  1
 24 52  1  0
 24 53  1  0
 27 54  1  0
 28 55  1  0
 29 56  1  0
 30 57  1  0
 31 58  1  0
 32 59  1  0
 33 60  1  0
 35 61  1  0
 36 62  1  0
M  END
$$$$
