
     RDKit          3D

 55 57  0  0  0  0  0  0  0  0999 V2000
   -4.7472   -3.8054   -0.8422 C   0  0  0  0  0  0  0  0  0  0  0  0
   -4.0428   -2.9929   -1.5982 C   0  0  0  0  0  0  0  0  0  0  0  0
   -4.2815   -1.5578   -1.6486 C   0  0  0  0  0  0  0  0  0  0  0  0
   -3.5686   -0.8086   -2.4010 O   0  0  0  0  0  0  0  0  0  0  0  0
   -5.2861   -0.9049   -0.8945 N   0  0  0  0  0  0  0  0  0  0  0  0
   -5.4577    0.5040   -0.9952 C   0  0  0  0  0  0  0  0  0  0  0  0
   -6.3073    0.9761   -1.9886 C   0  0  0  0  0  0  0  0  0  0  0  0
   -6.5384    2.3183   -2.1532 C   0  0  0  0  0  0  0  0  0  0  0  0
   -5.9005    3.2150   -1.2986 C   0  0  0  0  0  0  0  0  0  0  0  0
   -5.0569    2.7181   -0.3148 C   0  0  0  0  0  0  0  0  0  0  0  0
   -4.3849    3.6855    0.5876 C   0  0  0  0  0  0  0  0  0  0  0  0
   -4.8237    1.3888   -0.1465 C   0  0  0  0  0  0  0  0  0  0  0  0
   -3.9616    0.8805    0.8606 N   0  0  0  0  0  0  0  0  0  0  0  0
   -2.5820    0.6878    0.7303 C   0  0  0  0  0  0  0  0  0  0  0  0
   -1.8735    0.1881    1.7267 N   0  0  0  0  0  0  0  0  0  0  0  0
   -0.5594   -0.0054    1.6429 C   0  0  0  0  0  0  0  0  0  0  0  0
    0.0970    0.3244    0.4773 C   0  0  0  0  0  0  0  0  0  0  0  0
    1.4749    0.1325    0.3604 O   0  0  0  0  0  0  0  0  0  0  0  0
    2.1834   -0.4069    1.4603 C   0  0  0  0  0  0  0  0  0  0  0  0
    3.6264   -0.5338    1.1427 C   0  0  0  0  0  0  0  0  0  0  0  0
    4.4615    0.5830    1.1331 C   0  0  0  0  0  0  0  0  0  0  0  0
    3.9660    1.8250    1.4165 F   0  0  0  0  0  0  0  0  0  0  0  0
    5.7962    0.4940    0.8447 C   0  0  0  0  0  0  0  0  0  0  0  0
    6.5934    1.6029    0.8416 O   0  0  0  0  0  0  0  0  0  0  0  0
    7.9766    1.5903    0.5547 C   0  0  0  0  0  0  0  0  0  0  0  0
    6.3365   -0.7403    0.5534 C   0  0  0  0  0  0  0  0  0  0  0  0
    5.5242   -1.8703    0.5562 C   0  0  0  0  0  0  0  0  0  0  0  0
    6.0415   -3.1152    0.2678 O   0  0  0  0  0  0  0  0  0  0  0  0
    7.3979   -3.3134   -0.0401 C   0  0  0  0  0  0  0  0  0  0  0  0
    4.1854   -1.7741    0.8465 C   0  0  0  0  0  0  0  0  0  0  0  0
    3.3634   -2.8423    0.8604 F   0  0  0  0  0  0  0  0  0  0  0  0
   -0.6491    0.8467   -0.5617 C   0  0  0  0  0  0  0  0  0  0  0  0
   -1.9802    1.0193   -0.4149 N   0  0  0  0  0  0  0  0  0  0  0  0
   -4.5670   -4.8690   -0.8078 H   0  0  0  0  0  0  0  0  0  0  0  0
   -5.5475   -3.4442   -0.2134 H   0  0  0  0  0  0  0  0  0  0  0  0
   -3.2545   -3.4102   -2.2068 H   0  0  0  0  0  0  0  0  0  0  0  0
   -5.9012   -1.4488   -0.2659 H   0  0  0  0  0  0  0  0  0  0  0  0
   -6.8078    0.2615   -2.6597 H   0  0  0  0  0  0  0  0  0  0  0  0
   -7.2011    2.7114   -2.9256 H   0  0  0  0  0  0  0  0  0  0  0  0
   -6.0441    4.2839   -1.3803 H   0  0  0  0  0  0  0  0  0  0  0  0
   -4.6097    3.3678    1.6317 H   0  0  0  0  0  0  0  0  0  0  0  0
   -3.3018    3.7753    0.3958 H   0  0  0  0  0  0  0  0  0  0  0  0
   -4.8114    4.7051    0.4802 H   0  0  0  0  0  0  0  0  0  0  0  0
   -4.4045    0.6288    1.7822 H   0  0  0  0  0  0  0  0  0  0  0  0
    0.0153   -0.4273    2.4948 H   0  0  0  0  0  0  0  0  0  0  0  0
    1.7688   -1.4168    1.6493 H   0  0  0  0  0  0  0  0  0  0  0  0
    2.1045    0.2452    2.3558 H   0  0  0  0  0  0  0  0  0  0  0  0
    8.0752    1.4071   -0.5350 H   0  0  0  0  0  0  0  0  0  0  0  0
    8.4326    0.7210    1.0719 H   0  0  0  0  0  0  0  0  0  0  0  0
    8.4776    2.5271    0.7892 H   0  0  0  0  0  0  0  0  0  0  0  0
    7.3855   -0.8622    0.3193 H   0  0  0  0  0  0  0  0  0  0  0  0
    8.0613   -2.9598    0.7913 H   0  0  0  0  0  0  0  0  0  0  0  0
    7.5639   -4.4164   -0.1979 H   0  0  0  0  0  0  0  0  0  0  0  0
    7.7242   -2.8074   -0.9690 H   0  0  0  0  0  0  0  0  0  0  0  0
   -0.1811    1.1189   -1.4904 H   0  0  0  0  0  0  0  0  0  0  0  0
  1  2  2  3
  2  3  1  0
  3  4  2  0
  3  5  1  0
  5  6  1  0
  6  7  2  0
  7  8  1  0
  8  9  2  0
  9 10  1  0
 10 11  1  0
 10 12  2  0
 12 13  1  0
 13 14  1  0
 14 15  2  0
 15 16  1  0
 16 17  2  0
 17 18  1  0
 18 19  1  0
 19 20  1  0
 20 21  2  0
 21 22  1  0
 21 23  1  0
 23 24  1  0
 24 25  1  0
 23 26  2  0
 26 27  1  0
 27 28  1  0
 28 29  1  0
 27 30  2  0
 30 31  1  0
 17 32  1  0
 32 33  2  0
 12  6  1  0
 33 14  1  0
 30 20  1  0
  1 34  1  0
  1 35  1  0
  2 36  1  0
  5 37  1  0
  7 38  1  0
  8 39  1  0
  9 40  1  0
 11 41  1  0
 11 42  1  0
 11 43  1  0
 13 44  1  0
 16 45  1  0
 19 46  1  0
 19 47  1  0
 25 48  1  0
 25 49  1  0
 25 50  1  0
 26 51  1  0
 29 52  1  0
 29 53  1  0
 29 54  1  0
 32 55  1  0
M  END
$$$$
