
     RDKit          3D

 59 62  0  0  0  0  0  0  0  0999 V2000
    5.4501   -0.4061   -0.7253 C   0  0  0  0  0  0  0  0  0  0  0  0
    5.4725    0.1009    0.6129 N   0  0  0  0  0  0  0  0  0  0  0  0
    6.1276    1.2916    1.1270 C   0  0  0  0  0  0  0  0  0  0  0  0
    5.1869    1.6670    2.2684 C   0  0  0  0  0  0  0  0  0  0  0  0
    4.6696    0.3845    2.6611 N   0  0  0  0  0  0  0  0  0  0  0  0
    4.8225   -0.5004    1.7454 C   0  0  0  0  0  0  0  0  0  0  0  0
    4.4305   -1.8632    1.7956 N   0  0  0  0  0  0  0  0  0  0  0  0
    5.3324   -2.9364    1.5229 C   0  0  0  0  0  0  0  0  0  0  0  0
    3.0560   -2.1764    2.1383 C   0  0  0  0  0  0  0  0  0  0  0  0
    2.0944   -1.5950    1.1957 C   0  0  0  0  0  0  0  0  0  0  0  0
    1.5885   -0.3436    1.4211 C   0  0  0  0  0  0  0  0  0  0  0  0
    0.6826    0.2308    0.5534 C   0  0  0  0  0  0  0  0  0  0  0  0
    0.2366   -0.4069   -0.5761 C   0  0  0  0  0  0  0  0  0  0  0  0
   -0.7065    0.1264   -1.5288 C   0  0  0  0  0  0  0  0  0  0  0  0
   -1.0594   -0.5503   -2.5534 O   0  0  0  0  0  0  0  0  0  0  0  0
   -1.2653    1.3957   -1.3664 N   0  0  0  0  0  0  0  0  0  0  0  0
   -2.1973    1.9812   -2.2634 C   0  0  0  0  0  0  0  0  0  0  0  0
   -1.7680    2.7355   -3.3366 C   0  0  0  0  0  0  0  0  0  0  0  0
   -2.6978    3.2979   -4.2002 C   0  0  0  0  0  0  0  0  0  0  0  0
   -4.0399    3.0940   -3.9723 C   0  0  0  0  0  0  0  0  0  0  0  0
   -5.2703    3.7738   -5.0216 Cl  0  0  0  0  0  0  0  0  0  0  0  0
   -4.4983    2.3327   -2.8903 C   0  0  0  0  0  0  0  0  0  0  0  0
   -3.5382    1.7798   -2.0389 C   0  0  0  0  0  0  0  0  0  0  0  0
   -3.9466    0.9798   -0.8910 C   0  0  0  0  0  0  0  0  0  0  0  0
   -3.0516    0.5083   -0.1449 O   0  0  0  0  0  0  0  0  0  0  0  0
   -5.2727    0.6839   -0.5387 N   0  0  0  0  0  0  0  0  0  0  0  0
   -5.7505   -0.0738    0.5430 C   0  0  0  0  0  0  0  0  0  0  0  0
   -5.0041   -0.6986    1.5055 C   0  0  0  0  0  0  0  0  0  0  0  0
   -5.5968   -1.4350    2.5485 C   0  0  0  0  0  0  0  0  0  0  0  0
   -6.9628   -1.5474    2.6288 C   0  0  0  0  0  0  0  0  0  0  0  0
   -7.7507   -2.4531    3.9079 Cl  0  0  0  0  0  0  0  0  0  0  0  0
   -7.6908   -0.9098    1.6486 C   0  0  0  0  0  0  0  0  0  0  0  0
   -7.1022   -0.2239    0.6792 N   0  0  0  0  0  0  0  0  0  0  0  0
    0.7624   -1.6860   -0.7939 C   0  0  0  0  0  0  0  0  0  0  0  0
    1.6676   -2.2630    0.0707 C   0  0  0  0  0  0  0  0  0  0  0  0
    4.4795   -0.8128   -1.0378 H   0  0  0  0  0  0  0  0  0  0  0  0
    5.6712    0.4503   -1.4129 H   0  0  0  0  0  0  0  0  0  0  0  0
    6.2921   -1.1355   -0.8977 H   0  0  0  0  0  0  0  0  0  0  0  0
    7.1192    1.0238    1.5946 H   0  0  0  0  0  0  0  0  0  0  0  0
    6.2215    2.0913    0.3897 H   0  0  0  0  0  0  0  0  0  0  0  0
    5.7198    2.1825    3.0800 H   0  0  0  0  0  0  0  0  0  0  0  0
    4.3592    2.2753    1.8486 H   0  0  0  0  0  0  0  0  0  0  0  0
    5.3471   -3.2453    0.4569 H   0  0  0  0  0  0  0  0  0  0  0  0
    5.0699   -3.8729    2.0970 H   0  0  0  0  0  0  0  0  0  0  0  0
    6.3353   -2.6395    1.8995 H   0  0  0  0  0  0  0  0  0  0  0  0
    2.9095   -3.2781    2.2270 H   0  0  0  0  0  0  0  0  0  0  0  0
    2.8090   -1.7764    3.1639 H   0  0  0  0  0  0  0  0  0  0  0  0
    1.9008    0.2013    2.2870 H   0  0  0  0  0  0  0  0  0  0  0  0
    0.2898    1.2356    0.7537 H   0  0  0  0  0  0  0  0  0  0  0  0
   -1.0170    2.0094   -0.5405 H   0  0  0  0  0  0  0  0  0  0  0  0
   -0.7010    2.8686   -3.4756 H   0  0  0  0  0  0  0  0  0  0  0  0
   -2.3975    3.8844   -5.0363 H   0  0  0  0  0  0  0  0  0  0  0  0
   -5.5552    2.1957   -2.7449 H   0  0  0  0  0  0  0  0  0  0  0  0
   -6.0091    1.0958   -1.1880 H   0  0  0  0  0  0  0  0  0  0  0  0
   -3.9445   -0.6352    1.4781 H   0  0  0  0  0  0  0  0  0  0  0  0
   -4.9886   -1.9145    3.2894 H   0  0  0  0  0  0  0  0  0  0  0  0
   -8.7751   -1.0153    1.7361 H   0  0  0  0  0  0  0  0  0  0  0  0
    0.4251   -2.2191   -1.6868 H   0  0  0  0  0  0  0  0  0  0  0  0
    2.0287   -3.2641   -0.1724 H   0  0  0  0  0  0  0  0  0  0  0  0
  1  2  1  0
  2  3  1  0
  3  4  1  0
  4  5  1  0
  5  6  2  0
  6  7  1  0
  7  8  1  0
  7  9  1  0
  9 10  1  0
 10 11  2  0
 11 12  1  0
 12 13  2  0
 13 14  1  0
 14 15  2  0
 14 16  1  0
 16 17  1  0
 17 18  2  0
 18 19  1  0
 19 20  2  0
 20 21  1  0
 20 22  1  0
 22 23  2  0
 23 24  1  0
 24 25  2  0
 24 26  1  0
 26 27  1  0
 27 28  2  0
 28 29  1  0
 29 30  2  0
 30 31  1  0
 30 32  1  0
 32 33  2  0
 13 34  1  0
 34 35  2  0
  6  2  1  0
 35 10  1  0
 23 17  1  0
 33 27  1  0
  1 36  1  0
  1 37  1  0
  1 38  1  0
  3 39  1  0
  3 40  1  0
  4 41  1  0
  4 42  1  0
  8 43  1  0
  8 44  1  0
  8 45  1  0
  9 46  1  0
  9 47  1  0
 11 48  1  0
 12 49  1  0
 16 50  1  0
 18 51  1  0
 19 52  1  0
 22 53  1  0
 26 54  1  0
 28 55  1  0
 29 56  1  0
 32 57  1  0
 34 58  1  0
 35 59  1  0
M  END
$$$$
