
     RDKit          3D

 58 61  0  0  0  0  0  0  0  0999 V2000
    0.9202    2.1734    1.1085 C   0  0  1  0  0  0  0  0  0  0  0  0
   -0.4568    1.6139    1.1450 C   0  0  0  0  0  0  0  0  0  0  0  0
   -0.3058    0.3451    0.2889 C   0  0  2  0  0  0  0  0  0  0  0  0
   -1.2079   -0.5961    0.7682 O   0  0  0  0  0  0  0  0  0  0  0  0
   -2.1213   -1.2000   -0.0507 C   0  0  0  0  0  0  0  0  0  0  0  0
   -1.9440   -0.7335   -1.1974 O   0  0  0  0  0  0  0  0  0  0  0  0
   -3.0572   -2.1837    0.4738 C   0  0  0  0  0  0  0  0  0  0  0  0
   -2.9849   -2.4795    1.8172 C   0  0  0  0  0  0  0  0  0  0  0  0
   -3.8199   -3.3883    2.3979 C   0  0  0  0  0  0  0  0  0  0  0  0
   -4.7752   -4.0509    1.6586 C   0  0  0  0  0  0  0  0  0  0  0  0
   -4.8393   -3.7481    0.3170 C   0  0  0  0  0  0  0  0  0  0  0  0
   -4.0041   -2.8343   -0.2815 C   0  0  0  0  0  0  0  0  0  0  0  0
   -4.1279   -2.5714   -1.6703 N   0  0  0  0  0  0  0  0  0  0  0  0
   -5.1366   -3.2764   -2.4340 C   0  0  0  0  0  0  0  0  0  0  0  0
    1.1360    0.0222    0.7137 C   0  0  1  0  0  0  0  0  0  0  0  0
    1.7079   -1.0878   -0.1173 C   0  0  0  0  0  0  0  0  0  0  0  0
    3.0642   -1.1766    0.1554 O   0  0  0  0  0  0  0  0  0  0  0  0
    3.8473   -2.3611   -0.7160 P   0  0  0  0  0  0  0  0  0  0  0  0
    3.0516   -2.5327   -2.2175 O   0  0  0  0  0  0  0  0  0  0  0  0
    3.8710   -3.7107   -0.0872 O   0  0  0  0  0  0  0  0  0  0  0  0
    5.4640   -1.8808   -0.9687 O   0  0  0  0  0  0  0  0  0  0  0  0
    6.5342   -2.9624   -0.2343 P   0  0  0  0  0  0  0  0  0  0  0  0
    7.8602   -2.1290    0.3452 O   0  0  0  0  0  0  0  0  0  0  0  0
    7.0038   -4.0693   -1.4069 O   0  0  0  0  0  0  0  0  0  0  0  0
    5.8764   -3.6961    0.9137 O   0  0  0  0  0  0  0  0  0  0  0  0
    1.7324    1.2583    0.4347 O   0  0  0  0  0  0  0  0  0  0  0  0
    0.9618    3.4786    0.5361 N   0  0  0  0  0  0  0  0  0  0  0  0
    2.0662    3.8899   -0.1455 C   0  0  0  0  0  0  0  0  0  0  0  0
    1.8737    5.1390   -0.5871 N   0  0  0  0  0  0  0  0  0  0  0  0
    0.6717    5.5711   -0.2187 C   0  0  0  0  0  0  0  0  0  0  0  0
   -0.1187    6.6959   -0.3327 C   0  0  0  0  0  0  0  0  0  0  0  0
    0.4284    7.7951   -1.0507 N   0  0  0  0  0  0  0  0  0  0  0  0
   -1.3466    6.7322    0.2160 N   0  0  0  0  0  0  0  0  0  0  0  0
   -1.8774    5.6970    0.8990 C   0  0  0  0  0  0  0  0  0  0  0  0
   -1.1030    4.6053    1.0063 N   0  0  0  0  0  0  0  0  0  0  0  0
    0.1275    4.5173    0.4783 C   0  0  0  0  0  0  0  0  0  0  0  0
    1.3757    2.2414    2.1397 H   0  0  0  0  0  0  0  0  0  0  0  0
   -0.6667    1.2715    2.1900 H   0  0  0  0  0  0  0  0  0  0  0  0
   -1.2659    2.2438    0.7956 H   0  0  0  0  0  0  0  0  0  0  0  0
   -0.3505    0.5876   -0.7732 H   0  0  0  0  0  0  0  0  0  0  0  0
   -2.2556   -1.9962    2.4660 H   0  0  0  0  0  0  0  0  0  0  0  0
   -3.7431   -3.6022    3.4514 H   0  0  0  0  0  0  0  0  0  0  0  0
   -5.4373   -4.7715    2.1182 H   0  0  0  0  0  0  0  0  0  0  0  0
   -5.6076   -4.2939   -0.2275 H   0  0  0  0  0  0  0  0  0  0  0  0
   -3.5819   -1.9187   -2.2594 H   0  0  0  0  0  0  0  0  0  0  0  0
   -5.1153   -4.3781   -2.2012 H   0  0  0  0  0  0  0  0  0  0  0  0
   -6.1297   -2.9435   -2.0303 H   0  0  0  0  0  0  0  0  0  0  0  0
   -5.0574   -3.1681   -3.5190 H   0  0  0  0  0  0  0  0  0  0  0  0
    1.1641   -0.1235    1.7911 H   0  0  0  0  0  0  0  0  0  0  0  0
    1.1332   -1.9998    0.1369 H   0  0  0  0  0  0  0  0  0  0  0  0
    1.5896   -0.7948   -1.1811 H   0  0  0  0  0  0  0  0  0  0  0  0
    2.1497   -2.8613   -1.9927 H   0  0  0  0  0  0  0  0  0  0  0  0
    8.1460   -2.4269    1.2610 H   0  0  0  0  0  0  0  0  0  0  0  0
    7.1344   -3.6046   -2.2669 H   0  0  0  0  0  0  0  0  0  0  0  0
    2.9912    3.3624   -0.3461 H   0  0  0  0  0  0  0  0  0  0  0  0
    1.1577    7.6603   -1.7801 H   0  0  0  0  0  0  0  0  0  0  0  0
    0.2587    8.8152   -1.0217 H   0  0  0  0  0  0  0  0  0  0  0  0
   -2.8611    5.8351    1.2924 H   0  0  0  0  0  0  0  0  0  0  0  0
  1  2  1  0
  2  3  1  0
  3  4  1  0
  4  5  1  0
  5  6  2  0
  5  7  1  0
  7  8  2  0
  8  9  1  0
  9 10  2  0
 10 11  1  0
 11 12  2  0
 12 13  1  0
 13 14  1  0
  3 15  1  0
 15 16  1  0
 16 17  1  0
 17 18  1  0
 18 19  1  0
 18 20  2  0
 18 21  1  0
 21 22  1  0
 22 23  1  0
 22 24  1  0
 22 25  2  0
 15 26  1  0
  1 27  1  0
 27 28  1  0
 28 29  2  0
 29 30  1  0
 30 31  2  0
 31 32  1  0
 31 33  1  0
 33 34  2  0
 34 35  1  0
 35 36  2  0
 26  1  1  0
 36 27  1  0
 12  7  1  0
 36 30  1  0
  1 37  1  1
  2 38  1  0
  2 39  1  0
  3 40  1  6
  8 41  1  0
  9 42  1  0
 10 43  1  0
 11 44  1  0
 13 45  1  0
 14 46  1  0
 14 47  1  0
 14 48  1  0
 15 49  1  1
 16 50  1  0
 16 51  1  0
 19 52  1  0
 23 53  1  0
 24 54  1  0
 28 55  1  0
 32 56  1  0
 32 57  1  0
 34 58  1  0
M  END
$$$$
