
     RDKit          3D

 41 40  0  0  0  0  0  0  0  0999 V2000
   -5.6783   -0.8963   -1.0328 C   0  0  0  0  0  0  0  0  0  0  0  0
   -5.5656    0.6017   -0.8486 C   0  0  0  0  0  0  0  0  0  0  0  0
   -4.0878    0.9675   -0.8004 C   0  0  0  0  0  0  0  0  0  0  0  0
   -3.4801    0.2256    0.3722 C   0  0  0  0  0  0  0  0  0  0  0  0
   -1.9991    0.5161    0.5186 C   0  0  0  0  0  0  0  0  0  0  0  0
   -1.4349   -0.2334    1.6856 C   0  0  0  0  0  0  0  0  0  0  0  0
    0.0178    0.0040    1.8998 C   0  0  0  0  0  0  0  0  0  0  0  0
    0.8310   -0.4197    0.6959 C   0  0  0  0  0  0  0  0  0  0  0  0
    2.2722   -0.1236    1.0707 C   0  0  0  0  0  0  0  0  0  0  0  0
    3.2440   -0.4948   -0.0444 C   0  0  0  0  0  0  0  0  0  0  0  0
    4.6072   -0.1410    0.4868 C   0  0  0  0  0  0  0  0  0  0  0  0
    5.7211   -0.4531   -0.4402 C   0  0  0  0  0  0  0  0  0  0  0  0
    5.6098    0.3914   -1.9727 S   0  0  0  0  0  0  0  0  0  0  0  0
    4.2136   -0.0312   -2.7899 O   0  0  0  0  0  1  0  0  0  0  0  0
    6.7859    0.0796   -2.8613 O   0  0  0  0  0  0  0  0  0  0  0  0
    5.5905    1.8946   -1.7257 O   0  0  0  0  0  0  0  0  0  0  0  0
   -5.5593   -1.3763   -0.0345 H   0  0  0  0  0  0  0  0  0  0  0  0
   -6.6274   -1.2118   -1.4964 H   0  0  0  0  0  0  0  0  0  0  0  0
   -4.8215   -1.2564   -1.6413 H   0  0  0  0  0  0  0  0  0  0  0  0
   -5.9776    0.8750    0.1453 H   0  0  0  0  0  0  0  0  0  0  0  0
   -6.0960    1.1861   -1.6025 H   0  0  0  0  0  0  0  0  0  0  0  0
   -3.5557    0.7583   -1.7386 H   0  0  0  0  0  0  0  0  0  0  0  0
   -4.0612    2.0536   -0.5816 H   0  0  0  0  0  0  0  0  0  0  0  0
   -3.6021   -0.8707    0.2639 H   0  0  0  0  0  0  0  0  0  0  0  0
   -3.9972    0.5173    1.3075 H   0  0  0  0  0  0  0  0  0  0  0  0
   -1.4616    0.3226   -0.4261 H   0  0  0  0  0  0  0  0  0  0  0  0
   -1.8693    1.6044    0.7117 H   0  0  0  0  0  0  0  0  0  0  0  0
   -1.9748    0.0724    2.6159 H   0  0  0  0  0  0  0  0  0  0  0  0
   -1.6193   -1.3267    1.6044 H   0  0  0  0  0  0  0  0  0  0  0  0
    0.4146   -0.5101    2.8039 H   0  0  0  0  0  0  0  0  0  0  0  0
    0.2232    1.1011    2.0215 H   0  0  0  0  0  0  0  0  0  0  0  0
    0.6962   -1.4893    0.4479 H   0  0  0  0  0  0  0  0  0  0  0  0
    0.5350    0.1766   -0.1966 H   0  0  0  0  0  0  0  0  0  0  0  0
    2.3326    0.9550    1.2900 H   0  0  0  0  0  0  0  0  0  0  0  0
    2.4856   -0.6802    2.0038 H   0  0  0  0  0  0  0  0  0  0  0  0
    3.1122   -1.5368   -0.3401 H   0  0  0  0  0  0  0  0  0  0  0  0
    3.0442    0.2174   -0.8877 H   0  0  0  0  0  0  0  0  0  0  0  0
    4.5454    0.9686    0.7113 H   0  0  0  0  0  0  0  0  0  0  0  0
    4.7486   -0.5890    1.5056 H   0  0  0  0  0  0  0  0  0  0  0  0
    6.7161   -0.2850    0.0626 H   0  0  0  0  0  0  0  0  0  0  0  0
    5.7219   -1.5635   -0.6328 H   0  0  0  0  0  0  0  0  0  0  0  0
  1  2  1  0
  2  3  1  0
  3  4  1  0
  4  5  1  0
  5  6  1  0
  6  7  1  0
  7  8  1  0
  8  9  1  0
  9 10  1  0
 10 11  1  0
 11 12  1  0
 12 13  1  0
 13 14  1  0
 13 15  2  0
 13 16  2  0
  1 17  1  0
  1 18  1  0
  1 19  1  0
  2 20  1  0
  2 21  1  0
  3 22  1  0
  3 23  1  0
  4 24  1  0
  4 25  1  0
  5 26  1  0
  5 27  1  0
  6 28  1  0
  6 29  1  0
  7 30  1  0
  7 31  1  0
  8 32  1  0
  8 33  1  0
  9 34  1  0
  9 35  1  0
 10 36  1  0
 10 37  1  0
 11 38  1  0
 11 39  1  0
 12 40  1  0
 12 41  1  0
M  CHG  1  14  -1
M  END
$$$$
