
     RDKit          3D

 41 44  0  0  0  0  0  0  0  0999 V2000
   -6.7883    0.6356    1.7549 N   0  0  0  0  0  0  0  0  0  0  0  0
   -6.1078    1.3635    0.9426 C   0  0  0  0  0  0  0  0  0  0  0  0
   -6.4896    2.7158    0.7801 N   0  0  0  0  0  0  0  0  0  0  0  0
   -4.9639    0.8831    0.1753 C   0  0  0  0  0  0  0  0  0  0  0  0
   -4.6602    1.4362   -1.0730 C   0  0  0  0  0  0  0  0  0  0  0  0
   -3.5732    0.9653   -1.7798 C   0  0  0  0  0  0  0  0  0  0  0  0
   -2.7632   -0.0426   -1.2982 C   0  0  0  0  0  0  0  0  0  0  0  0
   -1.6677   -0.6858   -1.7516 N   0  0  0  0  0  0  0  0  0  0  0  0
   -1.2551   -1.6138   -0.8701 C   0  0  0  0  0  0  0  0  0  0  0  0
   -0.0781   -2.5379   -1.0001 C   0  0  0  0  0  0  0  0  0  0  0  0
    1.1463   -1.9160   -0.4328 C   0  0  0  0  0  0  0  0  0  0  0  0
    1.5642   -2.0198    0.8383 N   0  0  0  0  0  0  0  0  0  0  0  0
    2.7255   -1.3153    0.9849 C   0  0  0  0  0  0  0  0  0  0  0  0
    3.5843   -1.0678    2.0263 C   0  0  0  0  0  0  0  0  0  0  0  0
    4.7074   -0.3007    1.8759 C   0  0  0  0  0  0  0  0  0  0  0  0
    5.0142    0.2567    0.6485 C   0  0  0  0  0  0  0  0  0  0  0  0
    6.1860    1.0771    0.4233 C   0  0  0  0  0  0  0  0  0  0  0  0
    6.7671    1.1172   -0.7225 N   0  0  0  0  0  0  0  0  0  0  0  0
    6.7156    1.8588    1.4782 N   0  0  0  0  0  0  0  0  0  0  0  0
    4.1383    0.0040   -0.4127 C   0  0  0  0  0  0  0  0  0  0  0  0
    3.0071   -0.7696   -0.2578 C   0  0  0  0  0  0  0  0  0  0  0  0
    2.0360   -1.1513   -1.0877 N   0  0  0  0  0  0  0  0  0  0  0  0
   -2.1186   -1.5439    0.1580 N   0  0  0  0  0  0  0  0  0  0  0  0
   -3.0576   -0.5923   -0.0674 C   0  0  0  0  0  0  0  0  0  0  0  0
   -4.1433   -0.1283    0.6482 C   0  0  0  0  0  0  0  0  0  0  0  0
   -6.5936   -0.3640    1.9466 H   0  0  0  0  0  0  0  0  0  0  0  0
   -5.7674    3.4274    0.6233 H   0  0  0  0  0  0  0  0  0  0  0  0
   -7.4943    2.9636    0.8224 H   0  0  0  0  0  0  0  0  0  0  0  0
   -5.3102    2.2189   -1.4192 H   0  0  0  0  0  0  0  0  0  0  0  0
   -3.3541    1.3944   -2.7265 H   0  0  0  0  0  0  0  0  0  0  0  0
    0.0892   -2.8121   -2.0707 H   0  0  0  0  0  0  0  0  0  0  0  0
   -0.2885   -3.5152   -0.4878 H   0  0  0  0  0  0  0  0  0  0  0  0
    3.3646   -1.4928    2.9935 H   0  0  0  0  0  0  0  0  0  0  0  0
    5.3772   -0.1094    2.6943 H   0  0  0  0  0  0  0  0  0  0  0  0
    6.3936    0.5534   -1.5026 H   0  0  0  0  0  0  0  0  0  0  0  0
    7.7055    2.1463    1.4637 H   0  0  0  0  0  0  0  0  0  0  0  0
    6.1108    2.1511    2.2792 H   0  0  0  0  0  0  0  0  0  0  0  0
    4.3291    0.4136   -1.3909 H   0  0  0  0  0  0  0  0  0  0  0  0
    1.9639   -0.9011   -2.0987 H   0  0  0  0  0  0  0  0  0  0  0  0
   -2.1004   -2.1230    1.0227 H   0  0  0  0  0  0  0  0  0  0  0  0
   -4.3509   -0.5793    1.6133 H   0  0  0  0  0  0  0  0  0  0  0  0
  1  2  2  3
  2  3  1  0
  2  4  1  0
  4  5  2  0
  5  6  1  0
  6  7  2  0
  7  8  1  0
  8  9  2  0
  9 10  1  0
 10 11  1  0
 11 12  2  0
 12 13  1  0
 13 14  2  0
 14 15  1  0
 15 16  2  0
 16 17  1  0
 17 18  2  3
 17 19  1  0
 16 20  1  0
 20 21  2  0
 21 22  1  0
  9 23  1  0
 23 24  1  0
 24 25  2  0
 25  4  1  0
 24  7  1  0
 22 11  1  0
 21 13  1  0
  1 26  1  0
  3 27  1  0
  3 28  1  0
  5 29  1  0
  6 30  1  0
 10 31  1  0
 10 32  1  0
 14 33  1  0
 15 34  1  0
 18 35  1  0
 19 36  1  0
 19 37  1  0
 20 38  1  0
 22 39  1  0
 23 40  1  0
 25 41  1  0
M  END
$$$$
