
     RDKit          3D

 63 67  0  0  0  0  0  0  0  0999 V2000
    3.9167   -1.7198    2.2684 O   0  0  0  0  0  0  0  0  0  0  0  0
    4.6978   -0.9213    1.6833 C   0  0  0  0  0  0  0  0  0  0  0  0
    6.0398   -0.8274    1.9024 N   0  0  0  0  0  0  0  0  0  0  0  0
    6.5754    0.1073    1.1302 C   0  0  0  0  0  0  0  0  0  0  0  0
    7.8567    0.5870    0.9652 C   0  0  0  0  0  0  0  0  0  0  0  0
    8.0632    1.5909    0.0502 C   0  0  0  0  0  0  0  0  0  0  0  0
    7.0423    2.1278   -0.6996 C   0  0  0  0  0  0  0  0  0  0  0  0
    5.7650    1.6416   -0.5272 C   0  0  0  0  0  0  0  0  0  0  0  0
    5.5372    0.6343    0.3861 C   0  0  0  0  0  0  0  0  0  0  0  0
    4.3898   -0.0148    0.7439 N   0  0  0  0  0  0  0  0  0  0  0  0
    3.0867    0.2532    0.1871 C   0  0  0  0  0  0  0  0  0  0  0  0
    2.7402   -0.7204   -0.9278 C   0  0  0  0  0  0  0  0  0  0  0  0
    1.5039   -0.1605   -1.6483 C   0  0  0  0  0  0  0  0  0  0  0  0
    0.5567    0.1670   -0.6524 N   0  0  0  0  0  0  0  0  0  0  0  0
   -0.8219    0.2564   -1.0854 C   0  0  0  0  0  0  0  0  0  0  0  0
   -1.3853   -1.0741   -1.4855 C   0  0  0  0  0  0  0  0  0  0  0  0
   -2.7735   -0.9780   -1.9628 C   0  0  0  0  0  0  0  0  0  0  0  0
   -3.8764   -0.5016   -1.1385 C   0  0  0  0  0  0  0  0  0  0  0  0
   -3.7821    0.8740   -0.5807 C   0  0  0  0  0  0  0  0  0  0  0  0
   -3.6082    1.9789   -1.3852 C   0  0  0  0  0  0  0  0  0  0  0  0
   -3.5548    3.2624   -0.8868 C   0  0  0  0  0  0  0  0  0  0  0  0
   -3.6799    3.4444    0.4637 C   0  0  0  0  0  0  0  0  0  0  0  0
   -3.6257    4.7033    0.9390 F   0  0  0  0  0  0  0  0  0  0  0  0
   -3.8538    2.3378    1.2659 C   0  0  0  0  0  0  0  0  0  0  0  0
   -3.9109    1.0501    0.7997 C   0  0  0  0  0  0  0  0  0  0  0  0
   -4.5587   -1.4288   -0.2297 C   0  0  0  0  0  0  0  0  0  0  0  0
   -5.8605   -1.1416    0.1502 C   0  0  0  0  0  0  0  0  0  0  0  0
   -6.5840   -1.9612    0.9887 C   0  0  0  0  0  0  0  0  0  0  0  0
   -6.0048   -3.1106    1.4739 C   0  0  0  0  0  0  0  0  0  0  0  0
   -6.7217   -3.9302    2.3099 F   0  0  0  0  0  0  0  0  0  0  0  0
   -4.7200   -3.3991    1.1019 C   0  0  0  0  0  0  0  0  0  0  0  0
   -3.9852   -2.5585    0.2449 C   0  0  0  0  0  0  0  0  0  0  0  0
    0.7640   -0.3563    0.6489 C   0  0  0  0  0  0  0  0  0  0  0  0
    1.9966    0.3532    1.2272 C   0  0  0  0  0  0  0  0  0  0  0  0
    6.5882   -1.4072    2.5843 H   0  0  0  0  0  0  0  0  0  0  0  0
    8.6979    0.2072    1.5233 H   0  0  0  0  0  0  0  0  0  0  0  0
    9.0664    1.9974   -0.1090 H   0  0  0  0  0  0  0  0  0  0  0  0
    7.2093    2.9245   -1.4253 H   0  0  0  0  0  0  0  0  0  0  0  0
    4.9150    2.0160   -1.0819 H   0  0  0  0  0  0  0  0  0  0  0  0
    3.1116    1.2628   -0.3215 H   0  0  0  0  0  0  0  0  0  0  0  0
    2.5886   -1.7443   -0.5759 H   0  0  0  0  0  0  0  0  0  0  0  0
    3.5663   -0.6689   -1.6583 H   0  0  0  0  0  0  0  0  0  0  0  0
    1.2302   -0.9150   -2.3825 H   0  0  0  0  0  0  0  0  0  0  0  0
    1.8332    0.8005   -2.1334 H   0  0  0  0  0  0  0  0  0  0  0  0
   -1.3612    0.6780   -0.2263 H   0  0  0  0  0  0  0  0  0  0  0  0
   -0.8672    0.9903   -1.9103 H   0  0  0  0  0  0  0  0  0  0  0  0
   -0.7386   -1.4022   -2.3842 H   0  0  0  0  0  0  0  0  0  0  0  0
   -1.1526   -1.8662   -0.7509 H   0  0  0  0  0  0  0  0  0  0  0  0
   -3.0812   -2.0018   -2.3927 H   0  0  0  0  0  0  0  0  0  0  0  0
   -2.8027   -0.3559   -2.9348 H   0  0  0  0  0  0  0  0  0  0  0  0
   -4.7380   -0.3205   -1.9452 H   0  0  0  0  0  0  0  0  0  0  0  0
   -3.5057    1.8678   -2.4564 H   0  0  0  0  0  0  0  0  0  0  0  0
   -3.4166    4.0942   -1.5723 H   0  0  0  0  0  0  0  0  0  0  0  0
   -3.9470    2.5513    2.3416 H   0  0  0  0  0  0  0  0  0  0  0  0
   -4.0493    0.2027    1.4624 H   0  0  0  0  0  0  0  0  0  0  0  0
   -6.3651   -0.2430   -0.2065 H   0  0  0  0  0  0  0  0  0  0  0  0
   -7.5969   -1.7341    1.2823 H   0  0  0  0  0  0  0  0  0  0  0  0
   -4.2721   -4.2999    1.4848 H   0  0  0  0  0  0  0  0  0  0  0  0
   -2.9918   -2.9032    0.0269 H   0  0  0  0  0  0  0  0  0  0  0  0
    0.9957   -1.4350    0.6521 H   0  0  0  0  0  0  0  0  0  0  0  0
   -0.1194   -0.1860    1.2948 H   0  0  0  0  0  0  0  0  0  0  0  0
    2.2529   -0.0916    2.1918 H   0  0  0  0  0  0  0  0  0  0  0  0
    1.7253    1.4167    1.4420 H   0  0  0  0  0  0  0  0  0  0  0  0
  1  2  2  0
  2  3  1  0
  3  4  1  0
  4  5  2  0
  5  6  1  0
  6  7  2  0
  7  8  1  0
  8  9  2  0
  9 10  1  0
 10 11  1  0
 11 12  1  0
 12 13  1  0
 13 14  1  0
 14 15  1  0
 15 16  1  0
 16 17  1  0
 17 18  1  0
 18 19  1  0
 19 20  2  0
 20 21  1  0
 21 22  2  0
 22 23  1  0
 22 24  1  0
 24 25  2  0
 18 26  1  0
 26 27  2  0
 27 28  1  0
 28 29  2  0
 29 30  1  0
 29 31  1  0
 31 32  2  0
 14 33  1  0
 33 34  1  0
 10  2  1  0
 34 11  1  0
  9  4  1  0
 25 19  1  0
 32 26  1  0
  3 35  1  0
  5 36  1  0
  6 37  1  0
  7 38  1  0
  8 39  1  0
 11 40  1  0
 12 41  1  0
 12 42  1  0
 13 43  1  0
 13 44  1  0
 15 45  1  0
 15 46  1  0
 16 47  1  0
 16 48  1  0
 17 49  1  0
 17 50  1  0
 18 51  1  0
 20 52  1  0
 21 53  1  0
 24 54  1  0
 25 55  1  0
 27 56  1  0
 28 57  1  0
 31 58  1  0
 32 59  1  0
 33 60  1  0
 33 61  1  0
 34 62  1  0
 34 63  1  0
M  END
$$$$
