
     RDKit          3D

 53 56  0  0  0  0  0  0  0  0999 V2000
    7.1656   -0.0149   -1.3815 C   0  0  0  0  0  0  0  0  0  0  0  0
    6.1106    0.8775   -1.6654 O   0  0  0  0  0  0  0  0  0  0  0  0
    5.0199    0.9735   -0.8264 C   0  0  0  0  0  0  0  0  0  0  0  0
    4.8549    0.2456    0.3246 C   0  0  0  0  0  0  0  0  0  0  0  0
    3.7166    0.4267    1.0868 C   0  0  0  0  0  0  0  0  0  0  0  0
    2.7213    1.3294    0.7251 C   0  0  0  0  0  0  0  0  0  0  0  0
    1.5100    1.5320    1.5467 C   0  0  0  0  0  0  0  0  0  0  0  0
    0.4638    0.5934    1.2507 N   0  0  0  0  0  0  0  0  0  0  0  0
   -0.3673    0.6457    0.1152 C   0  0  0  0  0  0  0  0  0  0  0  0
   -0.1648    1.5998   -0.7031 O   0  0  0  0  0  0  0  0  0  0  0  0
   -1.4133   -0.3021   -0.1656 C   0  0  0  0  0  0  0  0  0  0  0  0
   -2.5228   -0.4205    0.6899 C   0  0  0  0  0  0  0  0  0  0  0  0
   -3.5146   -1.3370    0.4239 C   0  0  0  0  0  0  0  0  0  0  0  0
   -4.6967   -1.5161    1.2799 C   0  0  0  0  0  0  0  0  0  0  0  0
   -5.6463   -2.4654    0.9422 C   0  0  0  0  0  0  0  0  0  0  0  0
   -6.7473   -2.6942    1.6617 N   0  0  0  0  0  0  0  0  0  0  0  0
   -6.9625   -1.9733    2.7779 C   0  0  0  0  0  0  0  0  0  0  0  0
   -6.0585   -1.0111    3.1743 C   0  0  0  0  0  0  0  0  0  0  0  0
   -6.3364   -0.2321    4.4246 C   0  0  0  0  0  0  0  0  0  0  0  0
   -4.9183   -0.7824    2.4184 C   0  0  0  0  0  0  0  0  0  0  0  0
   -3.3771   -2.1051   -0.6794 N   0  0  0  0  0  0  0  0  0  0  0  0
   -2.3141   -2.0092   -1.5214 C   0  0  0  0  0  0  0  0  0  0  0  0
   -1.3412   -1.1104   -1.2593 C   0  0  0  0  0  0  0  0  0  0  0  0
   -0.1226   -0.9299   -2.1393 C   0  0  0  0  0  0  0  0  0  0  0  0
    0.8248   -0.3204   -2.2604 N   0  0  0  0  0  0  0  0  0  0  0  0
    1.7643   -0.4004   -3.2062 C   0  0  0  0  0  0  0  0  0  0  0  0
    1.5825   -1.3021   -4.1283 C   0  0  0  0  0  0  0  0  0  0  0  0
   -0.0109   -2.0825   -3.6295 S   0  0  0  0  0  0  0  0  0  0  0  0
    2.9105    2.0247   -0.4031 N   0  0  0  0  0  0  0  0  0  0  0  0
    4.0119    1.8744   -1.1738 C   0  0  0  0  0  0  0  0  0  0  0  0
    4.1492    2.6329   -2.3413 O   0  0  0  0  0  0  0  0  0  0  0  0
    3.1527    3.5441   -2.7096 C   0  0  0  0  0  0  0  0  0  0  0  0
    7.3750    0.0341   -0.2982 H   0  0  0  0  0  0  0  0  0  0  0  0
    8.0881    0.3327   -1.9330 H   0  0  0  0  0  0  0  0  0  0  0  0
    6.8841   -1.0407   -1.7332 H   0  0  0  0  0  0  0  0  0  0  0  0
    5.6240   -0.4562    0.6062 H   0  0  0  0  0  0  0  0  0  0  0  0
    3.5851   -0.1438    1.9941 H   0  0  0  0  0  0  0  0  0  0  0  0
    1.7379    1.5090    2.6368 H   0  0  0  0  0  0  0  0  0  0  0  0
    1.1430    2.5781    1.3232 H   0  0  0  0  0  0  0  0  0  0  0  0
    0.2911   -0.2031    1.9286 H   0  0  0  0  0  0  0  0  0  0  0  0
   -2.5967    0.2131    1.5617 H   0  0  0  0  0  0  0  0  0  0  0  0
   -5.4619   -3.0379    0.0418 H   0  0  0  0  0  0  0  0  0  0  0  0
   -7.8511   -2.1236    3.4011 H   0  0  0  0  0  0  0  0  0  0  0  0
   -7.2952    0.2868    4.3307 H   0  0  0  0  0  0  0  0  0  0  0  0
   -6.4789   -1.0084    5.2281 H   0  0  0  0  0  0  0  0  0  0  0  0
   -5.4998    0.4390    4.6377 H   0  0  0  0  0  0  0  0  0  0  0  0
   -4.2258   -0.0291    2.7420 H   0  0  0  0  0  0  0  0  0  0  0  0
   -2.2359   -2.6447   -2.3994 H   0  0  0  0  0  0  0  0  0  0  0  0
    2.6432    0.2897   -3.1718 H   0  0  0  0  0  0  0  0  0  0  0  0
    2.1487   -1.6440   -5.0507 H   0  0  0  0  0  0  0  0  0  0  0  0
    3.6310    4.4223   -3.1945 H   0  0  0  0  0  0  0  0  0  0  0  0
    2.5076    3.0820   -3.4667 H   0  0  0  0  0  0  0  0  0  0  0  0
    2.5427    3.8543   -1.8328 H   0  0  0  0  0  0  0  0  0  0  0  0
  1  2  1  0
  2  3  1  0
  3  4  2  0
  4  5  1  0
  5  6  2  0
  6  7  1  0
  7  8  1  0
  8  9  1  0
  9 10  2  0
  9 11  1  0
 11 12  2  0
 12 13  1  0
 13 14  1  0
 14 15  2  0
 15 16  1  0
 16 17  2  0
 17 18  1  0
 18 19  1  0
 18 20  2  0
 13 21  2  0
 21 22  1  0
 22 23  2  0
 23 24  1  0
 24 25  2  0
 25 26  1  0
 26 27  2  0
 27 28  1  0
  6 29  1  0
 29 30  2  0
 30 31  1  0
 31 32  1  0
 30  3  1  0
 23 11  1  0
 28 24  1  0
 20 14  1  0
  1 33  1  0
  1 34  1  0
  1 35  1  0
  4 36  1  0
  5 37  1  0
  7 38  1  0
  7 39  1  0
  8 40  1  0
 12 41  1  0
 15 42  1  0
 17 43  1  0
 19 44  1  0
 19 45  1  0
 19 46  1  0
 20 47  1  0
 22 48  1  0
 26 49  1  0
 27 50  1  0
 32 51  1  0
 32 52  1  0
 32 53  1  0
M  END
$$$$
