
     RDKit          3D

 26 27  0  0  0  0  0  0  0  0999 V2000
    5.0363    0.0150    0.2091 O   0  0  0  0  0  0  0  0  0  0  0  0
    4.1525   -1.0369    0.2552 C   0  0  0  0  0  0  0  0  0  0  0  0
    4.6226   -2.2063    0.3626 O   0  0  0  0  0  0  0  0  0  0  0  0
    2.6997   -1.0143    0.1975 C   0  0  0  0  0  0  0  0  0  0  0  0
    2.3203   -2.2074    0.2738 O   0  0  0  0  0  0  0  0  0  0  0  0
    1.8069    0.0757    0.0799 N   0  0  0  0  0  0  0  0  0  0  0  0
    0.3980    0.0444    0.0279 C   0  0  0  0  0  0  0  0  0  0  0  0
   -0.3398   -1.1122    0.0879 C   0  0  0  0  0  0  0  0  0  0  0  0
   -1.7173   -1.1470    0.0375 C   0  0  0  0  0  0  0  0  0  0  0  0
   -2.3950    0.0487   -0.0801 C   0  0  0  0  0  0  0  0  0  0  0  0
   -3.7560   -0.2203   -0.1119 C   0  0  0  0  0  0  0  0  0  0  0  0
   -3.8709   -1.5872   -0.0118 C   0  0  0  0  0  0  0  0  0  0  0  0
   -2.6574   -2.1160    0.0754 N   0  0  0  0  0  0  0  0  0  0  0  0
   -1.6420    1.1914   -0.1384 C   0  0  0  0  0  0  0  0  0  0  0  0
   -0.2620    1.2355   -0.0886 C   0  0  0  0  0  0  0  0  0  0  0  0
    0.3188    2.5639   -0.1706 C   0  0  0  0  0  0  0  0  0  0  0  0
   -0.4286    3.7196   -0.2843 O   0  0  0  0  0  0  0  0  0  0  0  0
    1.5095    2.9539   -0.1604 O   0  0  0  0  0  0  0  0  0  0  0  0
    5.9541   -0.0668   -0.2262 H   0  0  0  0  0  0  0  0  0  0  0  0
    2.4092    0.9024    0.0401 H   0  0  0  0  0  0  0  0  0  0  0  0
    0.0932   -2.0932    0.1797 H   0  0  0  0  0  0  0  0  0  0  0  0
   -4.5241    0.5187   -0.1981 H   0  0  0  0  0  0  0  0  0  0  0  0
   -4.8506   -2.0446   -0.0146 H   0  0  0  0  0  0  0  0  0  0  0  0
   -2.4438   -3.1333    0.1615 H   0  0  0  0  0  0  0  0  0  0  0  0
   -2.2280    2.1041   -0.2308 H   0  0  0  0  0  0  0  0  0  0  0  0
   -0.2055    4.6120    0.1343 H   0  0  0  0  0  0  0  0  0  0  0  0
  1  2  1  0
  2  3  2  0
  2  4  1  0
  4  5  2  0
  4  6  1  0
  6  7  1  0
  7  8  2  0
  8  9  1  0
  9 10  2  0
 10 11  1  0
 11 12  2  0
 12 13  1  0
 10 14  1  0
 14 15  2  0
 15 16  1  0
 16 17  1  0
 16 18  2  0
 15  7  1  0
 13  9  1  0
  1 19  1  0
  6 20  1  0
  8 21  1  0
 11 22  1  0
 12 23  1  0
 13 24  1  0
 14 25  1  0
 17 26  1  0
M  END
$$$$
