
     RDKit          3D

 80 83  0  0  0  0  0  0  0  0999 V2000
  -10.3094    1.8107    0.1056 C   0  0  0  0  0  0  0  0  0  0  0  0
   -9.5514    0.6436    0.3743 N   0  0  0  0  0  0  0  0  0  0  0  0
   -8.8336    0.6377    1.6048 C   0  0  0  0  0  0  0  0  0  0  0  0
   -9.2350   -0.5935    2.3896 C   0  0  0  0  0  0  0  0  0  0  0  0
   -9.2467    1.8449    2.4303 C   0  0  0  0  0  0  0  0  0  0  0  0
   -7.3491    0.6773    1.4695 C   0  0  0  0  0  0  0  0  0  0  0  0
   -6.7641   -0.3396    0.5263 C   0  0  0  0  0  0  0  0  0  0  0  0
   -5.6726    0.1832   -0.1810 O   0  0  0  0  0  0  0  0  0  0  0  0
   -4.3703   -0.2404   -0.1431 C   0  0  0  0  0  0  0  0  0  0  0  0
   -3.8673   -1.2747    0.6066 C   0  0  0  0  0  0  0  0  0  0  0  0
   -2.5058   -1.5887    0.5374 C   0  0  0  0  0  0  0  0  0  0  0  0
   -1.6533   -0.8748   -0.2747 C   0  0  0  0  0  0  0  0  0  0  0  0
   -0.2418   -1.2303   -0.3228 C   0  0  0  0  0  0  0  0  0  0  0  0
    0.1992   -2.1802    0.3741 O   0  0  0  0  0  0  0  0  0  0  0  0
    0.6885   -0.5289   -1.1490 N   0  0  0  0  0  0  0  0  0  0  0  0
    2.0694   -0.8605   -1.2100 C   0  0  0  0  0  0  0  0  0  0  0  0
    2.5768   -1.7724   -2.1057 C   0  0  0  0  0  0  0  0  0  0  0  0
    3.9100   -2.0888   -2.1616 C   0  0  0  0  0  0  0  0  0  0  0  0
    4.8532   -1.4987   -1.3022 C   0  0  0  0  0  0  0  0  0  0  0  0
    6.2111   -1.8630   -1.4055 N   0  0  0  0  0  0  0  0  0  0  0  0
    7.2634   -1.3738   -0.6411 C   0  0  0  0  0  0  0  0  0  0  0  0
    7.0915   -0.5243    0.2509 O   0  0  0  0  0  0  0  0  0  0  0  0
    8.6305   -1.8270   -0.8393 N   0  0  0  0  0  0  0  0  0  0  0  0
    9.6854   -1.3097   -0.0449 C   0  0  0  0  0  0  0  0  0  0  0  0
   10.4377   -0.1777   -0.3775 C   0  0  0  0  0  0  0  0  0  0  0  0
   11.3682    0.0190    0.6297 C   0  0  0  0  0  0  0  0  0  0  0  0
   12.3407    1.1240    0.6221 C   0  0  0  0  0  0  0  0  0  0  0  0
   13.5897    0.6537   -0.0844 C   0  0  0  0  0  0  0  0  0  0  0  0
   11.7332    2.3092   -0.1039 C   0  0  0  0  0  0  0  0  0  0  0  0
   12.6565    1.5806    2.0395 C   0  0  0  0  0  0  0  0  0  0  0  0
   11.1753   -0.9367    1.4995 O   0  0  0  0  0  0  0  0  0  0  0  0
   10.1957   -1.7212    1.1198 N   0  0  0  0  0  0  0  0  0  0  0  0
    4.3384   -0.5939   -0.4161 C   0  0  0  0  0  0  0  0  0  0  0  0
    2.9698   -0.2704   -0.3600 C   0  0  0  0  0  0  0  0  0  0  0  0
   -2.1594    0.1225   -0.9925 N   0  0  0  0  0  0  0  0  0  0  0  0
   -3.4650    0.4516   -0.9497 C   0  0  0  0  0  0  0  0  0  0  0  0
   -7.8180   -0.9155   -0.3915 C   0  0  0  0  0  0  0  0  0  0  0  0
   -8.8381    0.1124   -0.7460 C   0  0  0  0  0  0  0  0  0  0  0  0
   -8.1762    1.2395   -1.5211 C   0  0  0  0  0  0  0  0  0  0  0  0
   -9.8459   -0.5266   -1.6884 C   0  0  0  0  0  0  0  0  0  0  0  0
   -9.8818    2.7413    0.5308 H   0  0  0  0  0  0  0  0  0  0  0  0
  -10.3433    1.9716   -1.0054 H   0  0  0  0  0  0  0  0  0  0  0  0
  -11.3602    1.6435    0.4129 H   0  0  0  0  0  0  0  0  0  0  0  0
   -9.9404   -0.3364    3.2060 H   0  0  0  0  0  0  0  0  0  0  0  0
   -8.3552   -1.0808    2.8606 H   0  0  0  0  0  0  0  0  0  0  0  0
   -9.7894   -1.3122    1.7355 H   0  0  0  0  0  0  0  0  0  0  0  0
   -8.6598    2.7426    2.1633 H   0  0  0  0  0  0  0  0  0  0  0  0
  -10.3274    1.9995    2.4397 H   0  0  0  0  0  0  0  0  0  0  0  0
   -8.9507    1.6015    3.4856 H   0  0  0  0  0  0  0  0  0  0  0  0
   -6.9139    0.5520    2.4884 H   0  0  0  0  0  0  0  0  0  0  0  0
   -6.9865    1.6808    1.1247 H   0  0  0  0  0  0  0  0  0  0  0  0
   -6.4009   -1.1853    1.1432 H   0  0  0  0  0  0  0  0  0  0  0  0
   -4.5092   -1.8388    1.2406 H   0  0  0  0  0  0  0  0  0  0  0  0
   -2.1734   -2.4086    1.1481 H   0  0  0  0  0  0  0  0  0  0  0  0
    0.2799    0.2571   -1.7149 H   0  0  0  0  0  0  0  0  0  0  0  0
    1.8872   -2.2471   -2.7820 H   0  0  0  0  0  0  0  0  0  0  0  0
    4.2969   -2.8126   -2.8758 H   0  0  0  0  0  0  0  0  0  0  0  0
    6.4830   -2.5893   -2.1412 H   0  0  0  0  0  0  0  0  0  0  0  0
    8.8188   -2.5253   -1.5622 H   0  0  0  0  0  0  0  0  0  0  0  0
   10.2785    0.4056   -1.2771 H   0  0  0  0  0  0  0  0  0  0  0  0
   13.5374    0.8421   -1.1766 H   0  0  0  0  0  0  0  0  0  0  0  0
   14.4662    1.1660    0.3820 H   0  0  0  0  0  0  0  0  0  0  0  0
   13.7595   -0.4367    0.0429 H   0  0  0  0  0  0  0  0  0  0  0  0
   11.4751    2.0536   -1.1556 H   0  0  0  0  0  0  0  0  0  0  0  0
   10.7797    2.5694    0.4202 H   0  0  0  0  0  0  0  0  0  0  0  0
   12.4336    3.1426   -0.0424 H   0  0  0  0  0  0  0  0  0  0  0  0
   12.6001    0.7471    2.7474 H   0  0  0  0  0  0  0  0  0  0  0  0
   13.6593    2.0525    1.9925 H   0  0  0  0  0  0  0  0  0  0  0  0
   11.8901    2.3190    2.3129 H   0  0  0  0  0  0  0  0  0  0  0  0
    4.9897   -0.0872    0.2872 H   0  0  0  0  0  0  0  0  0  0  0  0
    2.6360    0.4447    0.3565 H   0  0  0  0  0  0  0  0  0  0  0  0
   -3.7949    1.2651   -1.5555 H   0  0  0  0  0  0  0  0  0  0  0  0
   -8.2189   -1.8495   -0.0041 H   0  0  0  0  0  0  0  0  0  0  0  0
   -7.2753   -1.1760   -1.3467 H   0  0  0  0  0  0  0  0  0  0  0  0
   -8.7319    1.4779   -2.4599 H   0  0  0  0  0  0  0  0  0  0  0  0
   -7.1677    0.9114   -1.8356 H   0  0  0  0  0  0  0  0  0  0  0  0
   -8.1594    2.1811   -0.9315 H   0  0  0  0  0  0  0  0  0  0  0  0
   -9.7753   -1.6206   -1.7134 H   0  0  0  0  0  0  0  0  0  0  0  0
  -10.8915   -0.2813   -1.3814 H   0  0  0  0  0  0  0  0  0  0  0  0
   -9.7454   -0.1522   -2.7275 H   0  0  0  0  0  0  0  0  0  0  0  0
  1  2  1  0
  2  3  1  0
  3  4  1  0
  3  5  1  0
  3  6  1  0
  6  7  1  0
  7  8  1  0
  8  9  1  0
  9 10  2  0
 10 11  1  0
 11 12  2  0
 12 13  1  0
 13 14  2  0
 13 15  1  0
 15 16  1  0
 16 17  2  0
 17 18  1  0
 18 19  2  0
 19 20  1  0
 20 21  1  0
 21 22  2  0
 21 23  1  0
 23 24  1  0
 24 25  1  0
 25 26  2  0
 26 27  1  0
 27 28  1  0
 27 29  1  0
 27 30  1  0
 26 31  1  0
 31 32  1  0
 19 33  1  0
 33 34  2  0
 12 35  1  0
 35 36  2  0
  7 37  1  0
 37 38  1  0
 38 39  1  0
 38 40  1  0
 38  2  1  0
 36  9  1  0
 34 16  1  0
 32 24  2  0
  1 41  1  0
  1 42  1  0
  1 43  1  0
  4 44  1  0
  4 45  1  0
  4 46  1  0
  5 47  1  0
  5 48  1  0
  5 49  1  0
  6 50  1  0
  6 51  1  0
  7 52  1  0
 10 53  1  0
 11 54  1  0
 15 55  1  0
 17 56  1  0
 18 57  1  0
 20 58  1  0
 23 59  1  0
 25 60  1  0
 28 61  1  0
 28 62  1  0
 28 63  1  0
 29 64  1  0
 29 65  1  0
 29 66  1  0
 30 67  1  0
 30 68  1  0
 30 69  1  0
 33 70  1  0
 34 71  1  0
 36 72  1  0
 37 73  1  0
 37 74  1  0
 39 75  1  0
 39 76  1  0
 39 77  1  0
 40 78  1  0
 40 79  1  0
 40 80  1  0
M  END
$$$$
