
     RDKit          3D

 30 32  0  0  0  0  0  0  0  0999 V2000
    1.8077   -2.8081    1.2863 O   0  0  0  0  0  0  0  0  0  0  0  0
    1.4969   -1.6890    0.7821 C   0  0  0  0  0  0  0  0  0  0  0  0
    0.1819   -1.3077    0.6805 C   0  0  0  0  0  0  0  0  0  0  0  0
   -0.1936   -0.0765    0.1269 C   0  0  0  0  0  0  0  0  0  0  0  0
   -1.5578    0.2688    0.0471 N   0  0  0  0  0  0  0  0  0  0  0  0
   -2.1403    1.3630    0.7929 C   0  0  0  0  0  0  0  0  0  0  0  0
   -3.6160    1.5040    0.5107 C   0  0  0  0  0  0  0  0  0  0  0  0
   -4.3128    0.3187    0.6324 O   0  0  0  0  0  0  0  0  0  0  0  0
   -3.6648   -0.7918    0.1314 C   0  0  0  0  0  0  0  0  0  0  0  0
   -2.5094   -0.4726   -0.7891 C   0  0  0  0  0  0  0  0  0  0  0  0
    0.7863    0.6869   -0.2865 O   0  0  0  0  0  0  0  0  0  0  0  0
    2.0512    0.3635   -0.2074 C   0  0  0  0  0  0  0  0  0  0  0  0
    3.0422    1.2351   -0.6698 C   0  0  0  0  0  0  0  0  0  0  0  0
    4.3619    0.8905   -0.5852 C   0  0  0  0  0  0  0  0  0  0  0  0
    4.7487   -0.3141   -0.0462 C   0  0  0  0  0  0  0  0  0  0  0  0
    3.8040   -1.2049    0.4231 C   0  0  0  0  0  0  0  0  0  0  0  0
    2.4786   -0.8368    0.3277 C   0  0  0  0  0  0  0  0  0  0  0  0
   -0.6157   -1.9485    1.0261 H   0  0  0  0  0  0  0  0  0  0  0  0
   -1.6579    2.3046    0.3984 H   0  0  0  0  0  0  0  0  0  0  0  0
   -1.9073    1.3193    1.8593 H   0  0  0  0  0  0  0  0  0  0  0  0
   -4.0228    2.2039    1.2681 H   0  0  0  0  0  0  0  0  0  0  0  0
   -3.7795    1.9727   -0.4833 H   0  0  0  0  0  0  0  0  0  0  0  0
   -4.3862   -1.4355   -0.3917 H   0  0  0  0  0  0  0  0  0  0  0  0
   -3.2476   -1.3510    1.0003 H   0  0  0  0  0  0  0  0  0  0  0  0
   -2.0753   -1.4589   -1.0855 H   0  0  0  0  0  0  0  0  0  0  0  0
   -2.7930    0.1626   -1.6288 H   0  0  0  0  0  0  0  0  0  0  0  0
    2.6922    2.1745   -1.0904 H   0  0  0  0  0  0  0  0  0  0  0  0
    5.0784    1.6179   -0.9666 H   0  0  0  0  0  0  0  0  0  0  0  0
    5.8231   -0.5482    0.0053 H   0  0  0  0  0  0  0  0  0  0  0  0
    4.1268   -2.1426    0.8432 H   0  0  0  0  0  0  0  0  0  0  0  0
  1  2  2  0
  2  3  1  0
  3  4  2  0
  4  5  1  0
  5  6  1  0
  6  7  1  0
  7  8  1  0
  8  9  1  0
  9 10  1  0
  4 11  1  0
 11 12  1  0
 12 13  2  0
 13 14  1  0
 14 15  2  0
 15 16  1  0
 16 17  2  0
 17  2  1  0
 10  5  1  0
 17 12  1  0
  3 18  1  0
  6 19  1  0
  6 20  1  0
  7 21  1  0
  7 22  1  0
  9 23  1  0
  9 24  1  0
 10 25  1  0
 10 26  1  0
 13 27  1  0
 14 28  1  0
 15 29  1  0
 16 30  1  0
M  END
$$$$
