
     RDKit          3D

 45 46  0  0  0  0  0  0  0  0999 V2000
    0.2991    1.0897   -1.5950 C   0  0  0  0  0  0  0  0  0  0  0  0
    0.4950    0.3077   -0.3460 C   0  0  0  0  0  0  0  0  0  0  0  0
    1.9181    0.3286    0.1847 C   0  0  0  0  0  0  0  0  0  0  0  0
    2.8701   -0.2607   -0.8052 C   0  0  0  0  0  0  0  0  0  0  0  0
    4.2871   -0.2555   -0.3234 C   0  0  0  0  0  0  0  0  0  0  0  0
    4.7543   -1.3475    0.4214 C   0  0  0  0  0  0  0  0  0  0  0  0
    6.0654   -1.2930    0.8410 C   0  0  0  0  0  0  0  0  0  0  0  0
    6.9585   -0.2641    0.5958 C   0  0  0  0  0  0  0  0  0  0  0  0
    8.2274   -0.4462    1.1289 O   0  0  0  0  0  0  0  0  0  0  0  0
    6.4634    0.8080   -0.1483 C   0  0  0  0  0  0  0  0  0  0  0  0
    5.1635    0.7745   -0.5753 C   0  0  0  0  0  0  0  0  0  0  0  0
   -0.3834    0.6648    0.7032 N   0  0  0  0  0  0  0  0  0  0  0  0
   -1.7111    0.2237    0.5723 C   0  0  0  0  0  0  0  0  0  0  0  0
   -2.5668    0.8291   -0.5068 C   0  0  0  0  0  0  0  0  0  0  0  0
   -3.9247    0.1578   -0.3466 C   0  0  0  0  0  0  0  0  0  0  0  0
   -4.9315    0.6283    0.4571 C   0  0  0  0  0  0  0  0  0  0  0  0
   -6.1553    0.0736    0.6382 C   0  0  0  0  0  0  0  0  0  0  0  0
   -7.1051    0.6291    1.4768 O   0  0  0  0  0  0  0  0  0  0  0  0
   -6.3729   -1.1022   -0.0919 C   0  0  0  0  0  0  0  0  0  0  0  0
   -7.5952   -1.7503    0.0210 O   0  0  0  0  0  0  0  0  0  0  0  0
   -5.4208   -1.6539   -0.9277 C   0  0  0  0  0  0  0  0  0  0  0  0
   -4.1867   -1.0023   -1.0441 C   0  0  0  0  0  0  0  0  0  0  0  0
    1.2997    1.5217   -1.8862 H   0  0  0  0  0  0  0  0  0  0  0  0
   -0.0586    0.5485   -2.4706 H   0  0  0  0  0  0  0  0  0  0  0  0
   -0.3396    2.0058   -1.4337 H   0  0  0  0  0  0  0  0  0  0  0  0
    0.3304   -0.7870   -0.6386 H   0  0  0  0  0  0  0  0  0  0  0  0
    1.9498   -0.2797    1.1101 H   0  0  0  0  0  0  0  0  0  0  0  0
    2.1496    1.3620    0.4622 H   0  0  0  0  0  0  0  0  0  0  0  0
    2.6442   -1.3462   -1.0040 H   0  0  0  0  0  0  0  0  0  0  0  0
    2.8802    0.2857   -1.7582 H   0  0  0  0  0  0  0  0  0  0  0  0
    4.0988   -2.1777    0.6421 H   0  0  0  0  0  0  0  0  0  0  0  0
    6.3647   -2.1810    1.4182 H   0  0  0  0  0  0  0  0  0  0  0  0
    8.2540   -0.7205    2.1228 H   0  0  0  0  0  0  0  0  0  0  0  0
    7.1827    1.5859   -0.3198 H   0  0  0  0  0  0  0  0  0  0  0  0
    4.8012    1.6176   -1.1517 H   0  0  0  0  0  0  0  0  0  0  0  0
   -0.2888    1.6260    1.0486 H   0  0  0  0  0  0  0  0  0  0  0  0
   -2.2324    0.3293    1.5804 H   0  0  0  0  0  0  0  0  0  0  0  0
   -1.7090   -0.8908    0.3586 H   0  0  0  0  0  0  0  0  0  0  0  0
   -2.6597    1.9048   -0.3194 H   0  0  0  0  0  0  0  0  0  0  0  0
   -2.1985    0.6152   -1.5338 H   0  0  0  0  0  0  0  0  0  0  0  0
   -4.7154    1.5394    0.9985 H   0  0  0  0  0  0  0  0  0  0  0  0
   -7.4337    1.5677    1.4550 H   0  0  0  0  0  0  0  0  0  0  0  0
   -8.4136   -1.2887    0.4418 H   0  0  0  0  0  0  0  0  0  0  0  0
   -5.6448   -2.5604   -1.4642 H   0  0  0  0  0  0  0  0  0  0  0  0
   -3.4097   -1.4168   -1.6993 H   0  0  0  0  0  0  0  0  0  0  0  0
  1  2  1  0
  2  3  1  0
  3  4  1  0
  4  5  1  0
  5  6  2  0
  6  7  1  0
  7  8  2  0
  8  9  1  0
  8 10  1  0
 10 11  2  0
  2 12  1  0
 12 13  1  0
 13 14  1  0
 14 15  1  0
 15 16  2  0
 16 17  1  0
 17 18  1  0
 17 19  2  0
 19 20  1  0
 19 21  1  0
 21 22  2  0
 11  5  1  0
 22 15  1  0
  1 23  1  0
  1 24  1  0
  1 25  1  0
  2 26  1  0
  3 27  1  0
  3 28  1  0
  4 29  1  0
  4 30  1  0
  6 31  1  0
  7 32  1  0
  9 33  1  0
 10 34  1  0
 11 35  1  0
 12 36  1  0
 13 37  1  0
 13 38  1  0
 14 39  1  0
 14 40  1  0
 16 41  1  0
 18 42  1  0
 20 43  1  0
 21 44  1  0
 22 45  1  0
M  END
$$$$
