
     RDKit          3D

 76 80  0  0  0  0  0  0  0  0999 V2000
   -4.1939    4.7114   -2.9530 C   0  0  0  0  0  0  0  0  0  0  0  0
   -4.3673    3.5092   -2.0820 C   0  0  0  0  0  0  0  0  0  0  0  0
   -3.7309    2.3304   -2.3886 C   0  0  0  0  0  0  0  0  0  0  0  0
   -3.8789    1.1961   -1.5879 C   0  0  0  0  0  0  0  0  0  0  0  0
   -4.6716    1.2232   -0.4597 C   0  0  0  0  0  0  0  0  0  0  0  0
   -4.8463    0.0826    0.3877 N   0  0  0  0  0  0  0  0  0  0  0  0
   -5.8320   -0.7959    0.3990 N   0  0  0  0  0  0  0  0  0  0  0  0
   -5.6565   -1.7369    1.3397 C   0  0  0  0  0  0  0  0  0  0  0  0
   -6.5694   -2.8964    1.6449 C   0  0  0  0  0  0  0  0  0  0  0  0
   -6.1124   -4.0589    0.7948 C   0  0  0  0  0  0  0  0  0  0  0  0
   -6.4766   -3.2573    3.0943 C   0  0  0  0  0  0  0  0  0  0  0  0
   -7.9591   -2.5173    1.2184 C   0  0  0  0  0  0  0  0  0  0  0  0
   -4.4689   -1.4271    1.9692 C   0  0  0  0  0  0  0  0  0  0  0  0
   -3.9761   -0.2914    1.3650 C   0  0  0  0  0  0  0  0  0  0  0  0
   -2.7754    0.4289    1.6489 N   0  0  0  0  0  0  0  0  0  0  0  0
   -1.5453    0.1073    0.9820 C   0  0  0  0  0  0  0  0  0  0  0  0
   -1.5728   -0.8345    0.1474 O   0  0  0  0  0  0  0  0  0  0  0  0
   -0.3352    0.8005    1.2288 N   0  0  0  0  0  0  0  0  0  0  0  0
    0.8873    0.4819    0.5651 C   0  0  0  0  0  0  0  0  0  0  0  0
    1.7839   -0.4248    1.0745 C   0  0  0  0  0  0  0  0  0  0  0  0
    2.9428   -0.6683    0.3529 C   0  0  0  0  0  0  0  0  0  0  0  0
    3.2548   -0.0609   -0.8401 C   0  0  0  0  0  0  0  0  0  0  0  0
    4.3632   -0.2596   -1.5852 O   0  0  0  0  0  0  0  0  0  0  0  0
    5.4952   -1.0309   -1.4590 C   0  0  0  0  0  0  0  0  0  0  0  0
    6.3143   -0.6310   -0.2865 C   0  0  0  0  0  0  0  0  0  0  0  0
    7.5152   -1.4201   -0.1184 N   0  0  0  0  0  0  0  0  0  0  0  0
    8.5039   -1.2196   -1.1399 C   0  0  0  0  0  0  0  0  0  0  0  0
    9.4062   -0.0472   -0.8911 C   0  0  0  0  0  0  0  0  0  0  0  0
   10.0568   -0.2817    0.3303 O   0  0  0  0  0  0  0  0  0  0  0  0
    9.0563   -0.1597    1.3144 C   0  0  0  0  0  0  0  0  0  0  0  0
    8.0614   -1.2946    1.2174 C   0  0  0  0  0  0  0  0  0  0  0  0
    2.3188    0.8635   -1.3401 C   0  0  0  0  0  0  0  0  0  0  0  0
    2.5945    1.5057   -2.5535 C   0  0  0  0  0  0  0  0  0  0  0  0
    1.6595    2.3995   -3.0099 C   0  0  0  0  0  0  0  0  0  0  0  0
    0.4930    2.6803   -2.3373 C   0  0  0  0  0  0  0  0  0  0  0  0
    0.2481    2.0359   -1.1491 C   0  0  0  0  0  0  0  0  0  0  0  0
    1.1735    1.1114   -0.6383 C   0  0  0  0  0  0  0  0  0  0  0  0
   -5.3042    2.4130   -0.1642 C   0  0  0  0  0  0  0  0  0  0  0  0
   -5.1603    3.5364   -0.9533 C   0  0  0  0  0  0  0  0  0  0  0  0
   -4.7348    4.6142   -3.9145 H   0  0  0  0  0  0  0  0  0  0  0  0
   -3.1271    4.9181   -3.1742 H   0  0  0  0  0  0  0  0  0  0  0  0
   -4.5637    5.5942   -2.3587 H   0  0  0  0  0  0  0  0  0  0  0  0
   -3.0996    2.3015   -3.2841 H   0  0  0  0  0  0  0  0  0  0  0  0
   -3.3725    0.2890   -1.8479 H   0  0  0  0  0  0  0  0  0  0  0  0
   -5.3687   -4.6832    1.3506 H   0  0  0  0  0  0  0  0  0  0  0  0
   -5.6977   -3.7214   -0.1841 H   0  0  0  0  0  0  0  0  0  0  0  0
   -6.9937   -4.7387    0.6240 H   0  0  0  0  0  0  0  0  0  0  0  0
   -7.1122   -4.1679    3.2442 H   0  0  0  0  0  0  0  0  0  0  0  0
   -6.8838   -2.4767    3.7531 H   0  0  0  0  0  0  0  0  0  0  0  0
   -5.4525   -3.5535    3.3277 H   0  0  0  0  0  0  0  0  0  0  0  0
   -8.4263   -3.3230    0.6085 H   0  0  0  0  0  0  0  0  0  0  0  0
   -8.5744   -2.2570    2.1009 H   0  0  0  0  0  0  0  0  0  0  0  0
   -7.9249   -1.6221    0.5677 H   0  0  0  0  0  0  0  0  0  0  0  0
   -4.0089   -1.9687    2.7811 H   0  0  0  0  0  0  0  0  0  0  0  0
   -2.7599    1.2084    2.3435 H   0  0  0  0  0  0  0  0  0  0  0  0
   -0.3059    1.5813    1.9199 H   0  0  0  0  0  0  0  0  0  0  0  0
    1.5509   -0.9063    2.0081 H   0  0  0  0  0  0  0  0  0  0  0  0
    3.6008   -1.4023    0.7894 H   0  0  0  0  0  0  0  0  0  0  0  0
    5.1327   -2.1073   -1.3620 H   0  0  0  0  0  0  0  0  0  0  0  0
    6.0584   -0.9494   -2.4283 H   0  0  0  0  0  0  0  0  0  0  0  0
    5.7479   -0.7117    0.6395 H   0  0  0  0  0  0  0  0  0  0  0  0
    6.5977    0.4394   -0.3966 H   0  0  0  0  0  0  0  0  0  0  0  0
    9.1674   -2.1343   -1.1157 H   0  0  0  0  0  0  0  0  0  0  0  0
    8.0519   -1.2074   -2.1281 H   0  0  0  0  0  0  0  0  0  0  0  0
   10.1809   -0.0522   -1.6846 H   0  0  0  0  0  0  0  0  0  0  0  0
    8.8896    0.9121   -0.8306 H   0  0  0  0  0  0  0  0  0  0  0  0
    8.5448    0.8028    1.0914 H   0  0  0  0  0  0  0  0  0  0  0  0
    9.5387   -0.2031    2.2891 H   0  0  0  0  0  0  0  0  0  0  0  0
    8.5238   -2.2312    1.5893 H   0  0  0  0  0  0  0  0  0  0  0  0
    7.2317   -1.0426    1.9177 H   0  0  0  0  0  0  0  0  0  0  0  0
    3.5129    1.2832   -3.0808 H   0  0  0  0  0  0  0  0  0  0  0  0
    1.8563    2.9122   -3.9566 H   0  0  0  0  0  0  0  0  0  0  0  0
   -0.2156    3.3995   -2.7460 H   0  0  0  0  0  0  0  0  0  0  0  0
   -0.6652    2.2243   -0.5757 H   0  0  0  0  0  0  0  0  0  0  0  0
   -5.9285    2.4149    0.7346 H   0  0  0  0  0  0  0  0  0  0  0  0
   -5.6664    4.4613   -0.7030 H   0  0  0  0  0  0  0  0  0  0  0  0
  1  2  1  0
  2  3  2  0
  3  4  1  0
  4  5  2  0
  5  6  1  0
  6  7  1  0
  7  8  2  0
  8  9  1  0
  9 10  1  0
  9 11  1  0
  9 12  1  0
  8 13  1  0
 13 14  2  0
 14 15  1  0
 15 16  1  0
 16 17  2  0
 16 18  1  0
 18 19  1  0
 19 20  2  0
 20 21  1  0
 21 22  2  0
 22 23  1  0
 23 24  1  0
 24 25  1  0
 25 26  1  0
 26 27  1  0
 27 28  1  0
 28 29  1  0
 29 30  1  0
 30 31  1  0
 22 32  1  0
 32 33  2  0
 33 34  1  0
 34 35  2  0
 35 36  1  0
 36 37  2  0
  5 38  1  0
 38 39  2  0
 39  2  1  0
 14  6  1  0
 37 19  1  0
 31 26  1  0
 37 32  1  0
  1 40  1  0
  1 41  1  0
  1 42  1  0
  3 43  1  0
  4 44  1  0
 10 45  1  0
 10 46  1  0
 10 47  1  0
 11 48  1  0
 11 49  1  0
 11 50  1  0
 12 51  1  0
 12 52  1  0
 12 53  1  0
 13 54  1  0
 15 55  1  0
 18 56  1  0
 20 57  1  0
 21 58  1  0
 24 59  1  0
 24 60  1  0
 25 61  1  0
 25 62  1  0
 27 63  1  0
 27 64  1  0
 28 65  1  0
 28 66  1  0
 30 67  1  0
 30 68  1  0
 31 69  1  0
 31 70  1  0
 33 71  1  0
 34 72  1  0
 35 73  1  0
 36 74  1  0
 38 75  1  0
 39 76  1  0
M  END
$$$$
