
     RDKit          3D

 51 53  0  0  0  0  0  0  0  0999 V2000
    8.5604    0.7196    0.7489 C   0  0  0  0  0  0  0  0  0  0  0  0
    7.8157   -0.4250    1.0769 O   0  0  0  0  0  0  0  0  0  0  0  0
    6.4677   -0.4739    0.7306 C   0  0  0  0  0  0  0  0  0  0  0  0
    5.7525   -1.5975    1.0570 C   0  0  0  0  0  0  0  0  0  0  0  0
    4.4694   -1.6779    0.7420 N   0  0  0  0  0  0  0  0  0  0  0  0
    3.7751   -0.6839    0.0886 C   0  0  0  0  0  0  0  0  0  0  0  0
    2.3864   -0.9316   -0.1521 C   0  0  0  0  0  0  0  0  0  0  0  0
    1.8149   -1.8152    0.6054 O   0  0  0  0  0  0  0  0  0  0  0  0
    1.5192   -0.3646   -1.1013 N   0  0  0  0  0  0  0  0  0  0  0  0
    0.1308   -0.7355   -1.1901 C   0  0  0  0  0  0  0  0  0  0  0  0
   -0.2097   -1.7815   -2.0154 C   0  0  0  0  0  0  0  0  0  0  0  0
   -1.5329   -2.1766   -2.1349 C   0  0  0  0  0  0  0  0  0  0  0  0
   -1.8844   -3.2071   -2.9454 F   0  0  0  0  0  0  0  0  0  0  0  0
   -2.5404   -1.5435   -1.4403 C   0  0  0  0  0  0  0  0  0  0  0  0
   -3.8484   -1.9541   -1.5754 F   0  0  0  0  0  0  0  0  0  0  0  0
   -2.1933   -0.4918   -0.6113 C   0  0  0  0  0  0  0  0  0  0  0  0
   -3.2935    0.1962    0.1470 C   0  0  2  0  0  0  0  0  0  0  0  0
   -2.6102    1.3366    0.9162 C   0  0  0  0  0  0  0  0  0  0  0  0
   -3.9002   -0.7001    1.1878 C   0  0  0  0  0  0  0  0  0  0  0  0
   -5.3781   -0.7846    1.2089 C   0  0  1  0  0  0  0  0  0  0  0  0
   -6.0530    0.0770    2.2576 C   0  0  0  0  0  0  0  0  0  0  0  0
   -7.4265   -0.1714    2.0904 F   0  0  0  0  0  0  0  0  0  0  0  0
   -5.7257   -0.2720    3.5347 F   0  0  0  0  0  0  0  0  0  0  0  0
   -5.9186    1.4310    2.0103 F   0  0  0  0  0  0  0  0  0  0  0  0
   -5.9946   -0.5264   -0.0068 O   0  0  0  0  0  0  0  0  0  0  0  0
   -5.4810    0.4279   -0.8659 C   0  0  0  0  0  0  0  0  0  0  0  0
   -6.3748    1.0048   -1.8043 N   0  0  0  0  0  0  0  0  0  0  0  0
   -4.2478    0.7471   -0.7841 N   0  0  0  0  0  0  0  0  0  0  0  0
   -0.8724   -0.1004   -0.4944 C   0  0  0  0  0  0  0  0  0  0  0  0
    4.4842    0.4187   -0.2276 C   0  0  0  0  0  0  0  0  0  0  0  0
    3.8494    1.5744   -0.8825 C   0  0  0  0  0  0  0  0  0  0  0  0
    5.8351    0.5528    0.0802 C   0  0  0  0  0  0  0  0  0  0  0  0
    8.3737    1.0239   -0.2888 H   0  0  0  0  0  0  0  0  0  0  0  0
    8.2652    1.5378    1.4510 H   0  0  0  0  0  0  0  0  0  0  0  0
    9.6593    0.4925    0.8626 H   0  0  0  0  0  0  0  0  0  0  0  0
    6.2312   -2.4140    1.5684 H   0  0  0  0  0  0  0  0  0  0  0  0
    1.8859    0.3213   -1.7770 H   0  0  0  0  0  0  0  0  0  0  0  0
    0.5768   -2.2989   -2.5773 H   0  0  0  0  0  0  0  0  0  0  0  0
   -3.3568    1.9506    1.4735 H   0  0  0  0  0  0  0  0  0  0  0  0
   -2.0935    2.0185    0.2121 H   0  0  0  0  0  0  0  0  0  0  0  0
   -1.9034    0.8885    1.6419 H   0  0  0  0  0  0  0  0  0  0  0  0
   -3.5068   -0.4874    2.2103 H   0  0  0  0  0  0  0  0  0  0  0  0
   -3.4951   -1.7347    0.9605 H   0  0  0  0  0  0  0  0  0  0  0  0
   -5.6551   -1.8378    1.4892 H   0  0  0  0  0  0  0  0  0  0  0  0
   -6.8281    1.9059   -1.6167 H   0  0  0  0  0  0  0  0  0  0  0  0
   -6.5693    0.5059   -2.6893 H   0  0  0  0  0  0  0  0  0  0  0  0
   -0.5643    0.7257    0.1524 H   0  0  0  0  0  0  0  0  0  0  0  0
    2.8729    1.8554   -0.4761 H   0  0  0  0  0  0  0  0  0  0  0  0
    4.5110    2.4863   -0.6908 H   0  0  0  0  0  0  0  0  0  0  0  0
    3.8413    1.4591   -1.9732 H   0  0  0  0  0  0  0  0  0  0  0  0
    6.3797    1.4416   -0.1837 H   0  0  0  0  0  0  0  0  0  0  0  0
  1  2  1  0
  2  3  1  0
  3  4  2  0
  4  5  1  0
  5  6  2  0
  6  7  1  0
  7  8  2  0
  7  9  1  0
  9 10  1  0
 10 11  2  0
 11 12  1  0
 12 13  1  0
 12 14  2  0
 14 15  1  0
 14 16  1  0
 16 17  1  0
 17 18  1  1
 17 19  1  0
 19 20  1  0
 20 21  1  0
 21 22  1  0
 21 23  1  0
 21 24  1  0
 20 25  1  0
 25 26  1  0
 26 27  1  0
 26 28  2  0
 16 29  2  0
  6 30  1  0
 30 31  1  0
 30 32  2  0
 32  3  1  0
 29 10  1  0
 28 17  1  0
  1 33  1  0
  1 34  1  0
  1 35  1  0
  4 36  1  0
  9 37  1  0
 11 38  1  0
 18 39  1  0
 18 40  1  0
 18 41  1  0
 19 42  1  0
 19 43  1  0
 20 44  1  1
 27 45  1  0
 27 46  1  0
 29 47  1  0
 31 48  1  0
 31 49  1  0
 31 50  1  0
 32 51  1  0
M  END
$$$$
