
     RDKit          3D

 19 20  0  0  0  0  0  0  0  0999 V2000
   -4.6482    0.0594    0.0517 Cl  0  0  0  0  0  0  0  0  0  0  0  0
   -2.8911   -0.0109    0.0520 C   0  0  0  0  0  0  0  0  0  0  0  0
   -2.2708   -1.2379   -0.1167 C   0  0  0  0  0  0  0  0  0  0  0  0
   -0.8999   -1.2635   -0.1124 C   0  0  0  0  0  0  0  0  0  0  0  0
   -0.1851   -0.0956    0.0555 C   0  0  0  0  0  0  0  0  0  0  0  0
   -0.8049    1.1451    0.2261 C   0  0  0  0  0  0  0  0  0  0  0  0
   -2.1989    1.1673    0.2212 C   0  0  0  0  0  0  0  0  0  0  0  0
    1.2727   -0.0668    0.0679 C   0  0  0  0  0  0  0  0  0  0  0  0
    2.0914   -1.1698   -0.0822 C   0  0  0  0  0  0  0  0  0  0  0  0
    3.3791   -0.7843   -0.0208 N   0  0  0  0  0  0  0  0  0  0  0  0
    3.3914    0.5547    0.1672 C   0  0  0  0  0  0  0  0  0  0  0  0
    2.1352    0.9765    0.2192 N   0  0  0  0  0  0  0  0  0  0  0  0
   -2.8283   -2.1665   -0.2502 H   0  0  0  0  0  0  0  0  0  0  0  0
   -0.3633   -2.2161   -0.2431 H   0  0  0  0  0  0  0  0  0  0  0  0
   -0.2845    2.0756    0.3596 H   0  0  0  0  0  0  0  0  0  0  0  0
   -2.7160    2.1296    0.3533 H   0  0  0  0  0  0  0  0  0  0  0  0
    1.7899   -2.2184   -0.2311 H   0  0  0  0  0  0  0  0  0  0  0  0
    4.2641    1.1694    0.2584 H   0  0  0  0  0  0  0  0  0  0  0  0
    1.7673    1.9520    0.3540 H   0  0  0  0  0  0  0  0  0  0  0  0
  1  2  1  0
  2  3  2  0
  3  4  1  0
  4  5  2  0
  5  6  1  0
  6  7  2  0
  5  8  1  0
  8  9  2  0
  9 10  1  0
 10 11  2  0
 11 12  1  0
  7  2  1  0
 12  8  1  0
  3 13  1  0
  4 14  1  0
  6 15  1  0
  7 16  1  0
  9 17  1  0
 11 18  1  0
 12 19  1  0
M  END
$$$$
