
     RDKit          3D

 33 33  0  0  0  0  0  0  0  0999 V2000
   -5.1303    0.5803   -0.5482 C   0  0  0  0  0  0  0  0  0  0  0  0
   -4.1631    1.3602    0.3133 C   0  0  0  0  0  0  0  0  0  0  0  0
   -2.9020    0.5227    0.4833 C   0  0  0  0  0  0  0  0  0  0  0  0
   -2.3493    0.2924   -0.9068 C   0  0  0  0  0  0  0  0  0  0  0  0
   -1.1467   -0.4944   -0.8726 N   0  0  0  0  0  0  0  0  0  0  0  0
   -1.0996   -2.1963   -0.9589 S   0  0  0  0  0  0  0  0  0  0  0  0
    0.7140   -2.3368   -0.8523 C   0  0  0  0  0  0  0  0  0  0  0  0
    1.3795   -3.4263   -0.8677 O   0  0  0  0  0  0  0  0  0  0  0  0
    1.0630   -1.0381   -0.7623 N   0  0  0  0  0  0  0  0  0  0  0  0
    2.5158   -0.7080   -0.6541 C   0  0  0  0  0  0  0  0  0  0  0  0
    2.8098   -0.6983    0.8169 C   0  0  0  0  0  0  0  0  0  0  0  0
    4.2651   -0.3742    1.0930 C   0  0  0  0  0  0  0  0  0  0  0  0
    4.6405    0.9875    0.5478 C   0  0  0  0  0  0  0  0  0  0  0  0
    0.1370   -0.1290   -0.7727 C   0  0  0  0  0  0  0  0  0  0  0  0
    0.3733    1.1477   -0.6908 O   0  0  0  0  0  0  0  0  0  0  0  0
   -5.0842   -0.4920   -0.3433 H   0  0  0  0  0  0  0  0  0  0  0  0
   -6.1789    0.9332   -0.4340 H   0  0  0  0  0  0  0  0  0  0  0  0
   -4.8642    0.7758   -1.6229 H   0  0  0  0  0  0  0  0  0  0  0  0
   -4.6403    1.5721    1.3019 H   0  0  0  0  0  0  0  0  0  0  0  0
   -3.8953    2.3064   -0.2099 H   0  0  0  0  0  0  0  0  0  0  0  0
   -2.2008    1.0789    1.1240 H   0  0  0  0  0  0  0  0  0  0  0  0
   -3.2156   -0.4351    0.9592 H   0  0  0  0  0  0  0  0  0  0  0  0
   -3.1076   -0.2789   -1.4792 H   0  0  0  0  0  0  0  0  0  0  0  0
   -2.1170    1.2619   -1.3565 H   0  0  0  0  0  0  0  0  0  0  0  0
    2.6519    0.2971   -1.0507 H   0  0  0  0  0  0  0  0  0  0  0  0
    3.1118   -1.4587   -1.1677 H   0  0  0  0  0  0  0  0  0  0  0  0
    2.2077    0.0956    1.2924 H   0  0  0  0  0  0  0  0  0  0  0  0
    2.5845   -1.6682    1.2852 H   0  0  0  0  0  0  0  0  0  0  0  0
    4.9429   -1.1117    0.6021 H   0  0  0  0  0  0  0  0  0  0  0  0
    4.4722   -0.3973    2.1730 H   0  0  0  0  0  0  0  0  0  0  0  0
    4.8059    0.9394   -0.5427 H   0  0  0  0  0  0  0  0  0  0  0  0
    5.5630    1.3496    1.0488 H   0  0  0  0  0  0  0  0  0  0  0  0
    3.8571    1.7426    0.7321 H   0  0  0  0  0  0  0  0  0  0  0  0
  1  2  1  0
  2  3  1  0
  3  4  1  0
  4  5  1  0
  5  6  1  0
  6  7  1  0
  7  8  2  0
  7  9  1  0
  9 10  1  0
 10 11  1  0
 11 12  1  0
 12 13  1  0
  9 14  1  0
 14 15  2  0
 14  5  1  0
  1 16  1  0
  1 17  1  0
  1 18  1  0
  2 19  1  0
  2 20  1  0
  3 21  1  0
  3 22  1  0
  4 23  1  0
  4 24  1  0
 10 25  1  0
 10 26  1  0
 11 27  1  0
 11 28  1  0
 12 29  1  0
 12 30  1  0
 13 31  1  0
 13 32  1  0
 13 33  1  0
M  END
$$$$
