
     RDKit          3D

 49 53  0  0  0  0  0  0  0  0999 V2000
    3.0072   -1.7177    2.5351 Cl  0  0  0  0  0  0  0  0  0  0  0  0
    3.9674   -0.6528    1.5139 C   0  0  0  0  0  0  0  0  0  0  0  0
    3.4150    0.3485    0.7058 C   0  0  0  0  0  0  0  0  0  0  0  0
    1.9369    0.4331    0.7844 C   0  0  0  0  0  0  0  0  0  0  0  0
    1.2569   -0.6656   -0.0127 C   0  0  0  0  0  0  0  0  0  0  0  0
   -0.1393   -0.5412    0.1184 N   0  0  0  0  0  0  0  0  0  0  0  0
   -0.7424    0.5735   -0.4876 C   0  0  0  0  0  0  0  0  0  0  0  0
   -2.2507    0.6233   -0.3073 C   0  0  0  0  0  0  0  0  0  0  0  0
   -2.8722   -0.6643   -0.6065 N   0  0  0  0  0  0  0  0  0  0  0  0
   -2.1387   -1.9081   -0.3919 C   0  0  0  0  0  0  0  0  0  0  0  0
   -0.9144   -1.6731    0.4273 C   0  0  0  0  0  0  0  0  0  0  0  0
   -4.1880   -0.5641   -1.0980 C   0  0  0  0  0  0  0  0  0  0  0  0
   -4.0971   -1.0962   -2.3995 N   0  0  0  0  0  0  0  0  0  0  0  0
   -5.8658   -0.9192   -2.9808 S   0  0  0  0  0  0  0  0  0  0  0  0
   -6.4474   -0.1767   -1.4306 C   0  0  0  0  0  0  0  0  0  0  0  0
   -7.7194    0.2462   -1.1002 C   0  0  0  0  0  0  0  0  0  0  0  0
   -7.9153    0.7839    0.1532 C   0  0  0  0  0  0  0  0  0  0  0  0
   -6.7921    0.8393    0.9525 C   0  0  0  0  0  0  0  0  0  0  0  0
   -5.5110    0.4276    0.6540 C   0  0  0  0  0  0  0  0  0  0  0  0
   -5.3832   -0.0976   -0.6076 C   0  0  0  0  0  0  0  0  0  0  0  0
    4.2920    1.1059   -0.0404 C   0  0  0  0  0  0  0  0  0  0  0  0
    5.6547    0.9037   -0.0070 C   0  0  0  0  0  0  0  0  0  0  0  0
    6.7189    1.6352   -0.7551 C   0  0  0  0  0  0  0  0  0  0  0  0
    7.9479    0.9223   -0.2535 C   0  0  0  0  0  0  0  0  0  0  0  0
    9.1041    1.2780   -0.6683 O   0  0  0  0  0  0  0  0  0  0  0  0
    7.6184   -0.1098    0.6697 N   0  0  0  0  0  0  0  0  0  0  0  0
    6.1802   -0.0871    0.7953 C   0  0  0  0  0  0  0  0  0  0  0  0
    5.3358   -0.8772    1.5656 C   0  0  0  0  0  0  0  0  0  0  0  0
    1.5975    1.4224    0.4285 H   0  0  0  0  0  0  0  0  0  0  0  0
    1.6159    0.3668    1.8648 H   0  0  0  0  0  0  0  0  0  0  0  0
    1.6549   -1.6605    0.2325 H   0  0  0  0  0  0  0  0  0  0  0  0
    1.5888   -0.4860   -1.0818 H   0  0  0  0  0  0  0  0  0  0  0  0
   -0.5023    0.6904   -1.5749 H   0  0  0  0  0  0  0  0  0  0  0  0
   -0.3757    1.5167    0.0151 H   0  0  0  0  0  0  0  0  0  0  0  0
   -2.6176    1.4329   -0.9698 H   0  0  0  0  0  0  0  0  0  0  0  0
   -2.4012    0.8357    0.7769 H   0  0  0  0  0  0  0  0  0  0  0  0
   -2.8333   -2.5643    0.2118 H   0  0  0  0  0  0  0  0  0  0  0  0
   -1.8965   -2.4104   -1.3431 H   0  0  0  0  0  0  0  0  0  0  0  0
   -1.2552   -1.5977    1.5017 H   0  0  0  0  0  0  0  0  0  0  0  0
   -0.2643   -2.5806    0.3895 H   0  0  0  0  0  0  0  0  0  0  0  0
   -8.5193    0.1579   -1.7941 H   0  0  0  0  0  0  0  0  0  0  0  0
   -8.8700    1.1371    0.4909 H   0  0  0  0  0  0  0  0  0  0  0  0
   -6.9706    1.2737    1.9516 H   0  0  0  0  0  0  0  0  0  0  0  0
   -4.7420    0.5382    1.3845 H   0  0  0  0  0  0  0  0  0  0  0  0
    3.8066    1.8558   -0.6383 H   0  0  0  0  0  0  0  0  0  0  0  0
    6.6642    1.3610   -1.8371 H   0  0  0  0  0  0  0  0  0  0  0  0
    6.7465    2.7071   -0.5688 H   0  0  0  0  0  0  0  0  0  0  0  0
    8.3212   -0.7231    1.1300 H   0  0  0  0  0  0  0  0  0  0  0  0
    5.7942   -1.6430    2.1814 H   0  0  0  0  0  0  0  0  0  0  0  0
  1  2  1  0
  2  3  2  0
  3  4  1  0
  4  5  1  0
  5  6  1  0
  6  7  1  0
  7  8  1  0
  8  9  1  0
  9 10  1  0
 10 11  1  0
  9 12  1  0
 12 13  2  0
 13 14  1  0
 14 15  1  0
 15 16  2  0
 16 17  1  0
 17 18  2  0
 18 19  1  0
 19 20  2  0
  3 21  1  0
 21 22  2  0
 22 23  1  0
 23 24  1  0
 24 25  2  0
 24 26  1  0
 26 27  1  0
 27 28  2  0
 28  2  1  0
 11  6  1  0
 20 12  1  0
 27 22  1  0
 20 15  1  0
  4 29  1  0
  4 30  1  0
  5 31  1  0
  5 32  1  0
  7 33  1  0
  7 34  1  0
  8 35  1  0
  8 36  1  0
 10 37  1  0
 10 38  1  0
 11 39  1  0
 11 40  1  0
 16 41  1  0
 17 42  1  0
 18 43  1  0
 19 44  1  0
 21 45  1  0
 23 46  1  0
 23 47  1  0
 26 48  1  0
 28 49  1  0
M  END
$$$$
