
     RDKit          3D

 49 53  0  0  0  0  0  0  0  0999 V2000
   -0.9713    0.0142    1.3770 C   0  0  0  0  0  0  0  0  0  0  0  0
   -0.7904   -0.5761    0.0763 N   0  0  0  0  0  0  0  0  0  0  0  0
    0.3429   -0.7811   -0.5761 C   0  0  0  0  0  0  0  0  0  0  0  0
    1.7498   -0.5208   -0.2937 C   0  0  0  0  0  0  0  0  0  0  0  0
    2.5248   -0.0196   -1.3644 C   0  0  0  0  0  0  0  0  0  0  0  0
    3.8598    0.2121   -1.2276 C   0  0  0  0  0  0  0  0  0  0  0  0
    4.5003   -0.0327   -0.0458 C   0  0  0  0  0  0  0  0  0  0  0  0
    5.9469    0.2236    0.0954 C   0  0  0  0  0  0  0  0  0  0  0  0
    6.7276    0.7094   -0.9131 C   0  0  0  0  0  0  0  0  0  0  0  0
    8.0528    0.9330   -0.7472 N   0  0  0  0  0  0  0  0  0  0  0  0
    8.5998    0.6648    0.4476 C   0  0  0  0  0  0  0  0  0  0  0  0
    7.8455    0.1772    1.4788 C   0  0  0  0  0  0  0  0  0  0  0  0
    6.5380   -0.0322    1.2800 N   0  0  0  0  0  0  0  0  0  0  0  0
    3.7763   -0.5210    1.0117 C   0  0  0  0  0  0  0  0  0  0  0  0
    2.4022   -0.7653    0.8843 C   0  0  0  0  0  0  0  0  0  0  0  0
    1.5736   -1.4840    2.2426 Cl  0  0  0  0  0  0  0  0  0  0  0  0
   -0.0232   -1.2868   -1.7958 N   0  0  0  0  0  0  0  0  0  0  0  0
   -1.3187   -1.3678   -1.8304 N   0  0  0  0  0  0  0  0  0  0  0  0
   -1.8642   -0.9404   -0.6922 C   0  0  0  0  0  0  0  0  0  0  0  0
   -3.2789   -0.8614   -0.3147 C   0  0  0  0  0  0  0  0  0  0  0  0
   -3.8398    0.4798   -0.1581 C   0  0  0  0  0  0  0  0  0  0  0  0
   -4.7194    0.7811    0.8400 C   0  0  0  0  0  0  0  0  0  0  0  0
   -5.2395    2.0754    0.9742 C   0  0  0  0  0  0  0  0  0  0  0  0
   -4.8828    3.0814    0.1084 C   0  0  0  0  0  0  0  0  0  0  0  0
   -5.5356    4.7171    0.2725 Cl  0  0  0  0  0  0  0  0  0  0  0  0
   -3.9972    2.7888   -0.9013 C   0  0  0  0  0  0  0  0  0  0  0  0
   -3.4924    1.5185   -1.0257 C   0  0  0  0  0  0  0  0  0  0  0  0
   -3.6474   -1.8591    0.7709 C   0  0  0  0  0  0  0  0  0  0  0  0
   -4.8706   -2.2830   -0.0355 C   0  0  0  0  0  0  0  0  0  0  0  0
   -4.9830   -3.6548   -0.1578 F   0  0  0  0  0  0  0  0  0  0  0  0
   -4.1948   -1.6685   -1.2510 C   0  0  0  0  0  0  0  0  0  0  0  0
   -1.8687    0.7242    1.3308 H   0  0  0  0  0  0  0  0  0  0  0  0
   -1.1491   -0.6857    2.1933 H   0  0  0  0  0  0  0  0  0  0  0  0
   -0.1353    0.6947    1.5945 H   0  0  0  0  0  0  0  0  0  0  0  0
    1.9905    0.1713   -2.3078 H   0  0  0  0  0  0  0  0  0  0  0  0
    4.3768    0.5992   -2.1075 H   0  0  0  0  0  0  0  0  0  0  0  0
    6.2981    0.9304   -1.8853 H   0  0  0  0  0  0  0  0  0  0  0  0
    9.6608    0.8558    0.5431 H   0  0  0  0  0  0  0  0  0  0  0  0
    8.3069   -0.0347    2.4426 H   0  0  0  0  0  0  0  0  0  0  0  0
    4.2526   -0.7260    1.9618 H   0  0  0  0  0  0  0  0  0  0  0  0
   -5.0750    0.0734    1.5755 H   0  0  0  0  0  0  0  0  0  0  0  0
   -5.9287    2.2950    1.7624 H   0  0  0  0  0  0  0  0  0  0  0  0
   -3.7187    3.5714   -1.5764 H   0  0  0  0  0  0  0  0  0  0  0  0
   -2.7897    1.2666   -1.8183 H   0  0  0  0  0  0  0  0  0  0  0  0
   -2.9230   -2.7220    0.8047 H   0  0  0  0  0  0  0  0  0  0  0  0
   -3.8492   -1.4712    1.7655 H   0  0  0  0  0  0  0  0  0  0  0  0
   -5.8004   -1.7887    0.2477 H   0  0  0  0  0  0  0  0  0  0  0  0
   -4.8313   -1.0725   -1.9024 H   0  0  0  0  0  0  0  0  0  0  0  0
   -3.6079   -2.4030   -1.8417 H   0  0  0  0  0  0  0  0  0  0  0  0
  1  2  1  0
  2  3  1  0
  3  4  1  0
  4  5  2  0
  5  6  1  0
  6  7  2  0
  7  8  1  0
  8  9  2  0
  9 10  1  0
 10 11  2  0
 11 12  1  0
 12 13  2  0
  7 14  1  0
 14 15  2  0
 15 16  1  0
  3 17  2  0
 17 18  1  0
 18 19  2  0
 19 20  1  0
 20 21  1  0
 21 22  2  0
 22 23  1  0
 23 24  2  0
 24 25  1  0
 24 26  1  0
 26 27  2  0
 20 28  1  0
 28 29  1  0
 29 30  1  0
 29 31  1  0
 19  2  1  0
 31 20  1  0
 15  4  1  0
 27 21  1  0
 13  8  1  0
  1 32  1  0
  1 33  1  0
  1 34  1  0
  5 35  1  0
  6 36  1  0
  9 37  1  0
 11 38  1  0
 12 39  1  0
 14 40  1  0
 22 41  1  0
 23 42  1  0
 26 43  1  0
 27 44  1  0
 28 45  1  0
 28 46  1  0
 29 47  1  0
 31 48  1  0
 31 49  1  0
M  END
$$$$
