
     RDKit          3D

 71 73  0  0  0  0  0  0  0  0999 V2000
    1.9913    2.2849   -2.4550 C   0  0  0  0  0  0  0  0  0  0  0  0
    2.6525    0.9634   -2.7948 C   0  0  2  0  0  0  0  0  0  0  0  0
    2.0421   -0.1100   -2.1764 O   0  0  0  0  0  0  0  0  0  0  0  0
    2.4604   -0.3304   -0.8907 C   0  0  1  0  0  0  0  0  0  0  0  0
    1.7610   -1.2622   -0.1730 O   0  0  0  0  0  0  0  0  0  0  0  0
    1.2400   -0.8699    1.0240 C   0  0  2  0  0  0  0  0  0  0  0  0
    1.8676   -1.5721    2.2127 C   0  0  1  0  0  0  0  0  0  0  0  0
    1.4555   -0.8499    3.3317 O   0  0  0  0  0  0  0  0  0  0  0  0
    1.2954   -2.9606    2.2766 C   0  0  1  0  0  0  0  0  0  0  0  0
    1.9804   -3.8015    3.1553 O   0  0  0  0  0  0  0  0  0  0  0  0
   -0.1576   -2.8252    2.6823 C   0  0  1  0  0  0  0  0  0  0  0  0
   -0.2555   -3.0512    4.1628 C   0  0  0  0  0  0  0  0  0  0  0  0
   -1.5961   -2.8976    4.5734 O   0  0  0  0  0  0  0  0  0  0  0  0
   -0.6019   -1.5175    2.4175 O   0  0  0  0  0  0  0  0  0  0  0  0
   -0.2379   -1.1357    1.1162 C   0  0  1  0  0  0  0  0  0  0  0  0
   -0.9188    0.0017    0.7970 O   0  0  0  0  0  0  0  0  0  0  0  0
   -1.7949   -0.1283   -0.2985 C   0  0  1  0  0  0  0  0  0  0  0  0
   -3.1729    0.0884    0.2230 C   0  0  2  0  0  0  0  0  0  0  0  0
   -4.0050   -0.9692   -0.1655 O   0  0  0  0  0  0  0  0  0  0  0  0
   -3.8098    1.3711   -0.1661 C   0  0  1  0  0  0  0  0  0  0  0  0
   -3.5816    2.4252    0.8335 N   0  0  0  0  0  0  0  0  0  0  0  0
   -4.6527    3.0733    1.4837 C   0  0  0  0  0  0  0  0  0  0  0  0
   -4.3246    4.1245    2.4779 C   0  0  0  0  0  0  0  0  0  0  0  0
   -5.8551    2.7631    1.2227 O   0  0  0  0  0  0  0  0  0  0  0  0
   -3.3885    1.9477   -1.4756 C   0  0  2  0  0  0  0  0  0  0  0  0
   -4.0871    1.3414   -2.5093 O   0  0  0  0  0  0  0  0  0  0  0  0
   -2.0324    1.9283   -1.5767 O   0  0  0  0  0  0  0  0  0  0  0  0
   -1.3940    0.7384   -1.4313 C   0  0  2  0  0  0  0  0  0  0  0  0
   -1.4218    0.0045   -2.7710 C   0  0  0  0  0  0  0  0  0  0  0  0
   -0.7872   -1.2334   -2.7040 O   0  0  0  0  0  0  0  0  0  0  0  0
    3.9253   -0.8169   -0.8870 C   0  0  1  0  0  0  0  0  0  0  0  0
    3.9006   -2.1905   -0.8136 O   0  0  0  0  0  0  0  0  0  0  0  0
    4.5698   -0.4309   -2.2082 C   0  0  2  0  0  0  0  0  0  0  0  0
    5.9447   -0.5182   -2.0150 O   0  0  0  0  0  0  0  0  0  0  0  0
    4.1268    0.9877   -2.4822 C   0  0  2  0  0  0  0  0  0  0  0  0
    4.3202    1.7748   -1.3227 O   0  0  0  0  0  0  0  0  0  0  0  0
    1.8245    2.3137   -1.3569 H   0  0  0  0  0  0  0  0  0  0  0  0
    2.6773    3.0719   -2.8270 H   0  0  0  0  0  0  0  0  0  0  0  0
    0.9874    2.3054   -2.9596 H   0  0  0  0  0  0  0  0  0  0  0  0
    2.5918    0.8153   -3.9088 H   0  0  0  0  0  0  0  0  0  0  0  0
    2.5105    0.6665   -0.3696 H   0  0  0  0  0  0  0  0  0  0  0  0
    1.4788    0.2154    1.1765 H   0  0  0  0  0  0  0  0  0  0  0  0
    2.9604   -1.5422    2.2081 H   0  0  0  0  0  0  0  0  0  0  0  0
    1.8884    0.0521    3.2392 H   0  0  0  0  0  0  0  0  0  0  0  0
    1.3068   -3.4294    1.2609 H   0  0  0  0  0  0  0  0  0  0  0  0
    2.7904   -4.1271    2.7002 H   0  0  0  0  0  0  0  0  0  0  0  0
   -0.7686   -3.5730    2.1522 H   0  0  0  0  0  0  0  0  0  0  0  0
    0.1319   -4.0419    4.4754 H   0  0  0  0  0  0  0  0  0  0  0  0
    0.3074   -2.3059    4.7483 H   0  0  0  0  0  0  0  0  0  0  0  0
   -2.1577   -3.0293    3.7668 H   0  0  0  0  0  0  0  0  0  0  0  0
   -0.4963   -1.9662    0.4073 H   0  0  0  0  0  0  0  0  0  0  0  0
   -1.6787   -1.2021   -0.6083 H   0  0  0  0  0  0  0  0  0  0  0  0
   -3.2031    0.0494    1.3515 H   0  0  0  0  0  0  0  0  0  0  0  0
   -4.8121   -0.9365    0.4283 H   0  0  0  0  0  0  0  0  0  0  0  0
   -4.9344    1.2742   -0.2196 H   0  0  0  0  0  0  0  0  0  0  0  0
   -2.5815    2.6614    1.0297 H   0  0  0  0  0  0  0  0  0  0  0  0
   -3.6352    3.7817    3.2645 H   0  0  0  0  0  0  0  0  0  0  0  0
   -5.2440    4.5333    2.9348 H   0  0  0  0  0  0  0  0  0  0  0  0
   -3.8633    4.9890    1.9213 H   0  0  0  0  0  0  0  0  0  0  0  0
   -3.7003    3.0245   -1.4724 H   0  0  0  0  0  0  0  0  0  0  0  0
   -4.5526    0.5311   -2.1999 H   0  0  0  0  0  0  0  0  0  0  0  0
   -0.3055    0.9943   -1.2761 H   0  0  0  0  0  0  0  0  0  0  0  0
   -2.4432   -0.1861   -3.1378 H   0  0  0  0  0  0  0  0  0  0  0  0
   -0.9064    0.5929   -3.5573 H   0  0  0  0  0  0  0  0  0  0  0  0
   -1.0496   -1.7182   -3.5275 H   0  0  0  0  0  0  0  0  0  0  0  0
    4.4617   -0.4073   -0.0149 H   0  0  0  0  0  0  0  0  0  0  0  0
    3.3758   -2.5353   -1.6010 H   0  0  0  0  0  0  0  0  0  0  0  0
    4.1736   -1.0847   -2.9866 H   0  0  0  0  0  0  0  0  0  0  0  0
    6.4483   -0.2773   -2.8392 H   0  0  0  0  0  0  0  0  0  0  0  0
    4.7224    1.4302   -3.3129 H   0  0  0  0  0  0  0  0  0  0  0  0
    4.2367    2.7130   -1.5634 H   0  0  0  0  0  0  0  0  0  0  0  0
  1  2  1  0
  2  3  1  0
  3  4  1  0
  4  5  1  0
  5  6  1  0
  6  7  1  0
  7  8  1  0
  7  9  1  0
  9 10  1  0
  9 11  1  0
 11 12  1  0
 12 13  1  0
 11 14  1  0
 14 15  1  0
 15 16  1  0
 16 17  1  0
 17 18  1  0
 18 19  1  0
 18 20  1  0
 20 21  1  0
 21 22  1  0
 22 23  1  0
 22 24  2  0
 20 25  1  0
 25 26  1  0
 25 27  1  0
 27 28  1  0
 28 29  1  0
 29 30  1  0
  4 31  1  0
 31 32  1  0
 31 33  1  0
 33 34  1  0
 33 35  1  0
 35 36  1  0
 35  2  1  0
 15  6  1  0
 28 17  1  0
  1 37  1  0
  1 38  1  0
  1 39  1  0
  2 40  1  6
  4 41  1  1
  6 42  1  1
  7 43  1  6
  8 44  1  0
  9 45  1  6
 10 46  1  0
 11 47  1  6
 12 48  1  0
 12 49  1  0
 13 50  1  0
 15 51  1  6
 17 52  1  6
 18 53  1  1
 19 54  1  0
 20 55  1  6
 21 56  1  0
 23 57  1  0
 23 58  1  0
 23 59  1  0
 25 60  1  1
 26 61  1  0
 28 62  1  1
 29 63  1  0
 29 64  1  0
 30 65  1  0
 31 66  1  1
 32 67  1  0
 33 68  1  6
 34 69  1  0
 35 70  1  6
 36 71  1  0
M  END
$$$$
