
     RDKit          3D

 47 51  0  0  0  0  0  0  0  0999 V2000
    7.8403   -3.0912    0.5414 C   0  0  0  0  0  0  0  0  0  0  0  0
    6.5463   -2.4369    0.1191 C   0  0  0  0  0  0  0  0  0  0  0  0
    5.4784   -3.0086   -0.4611 N   0  0  0  0  0  0  0  0  0  0  0  0
    4.5604   -2.1190   -0.6720 O   0  0  0  0  0  0  0  0  0  0  0  0
    4.9747   -0.9273   -0.2433 C   0  0  0  0  0  0  0  0  0  0  0  0
    4.2421    0.3254   -0.2984 C   0  0  0  0  0  0  0  0  0  0  0  0
    4.7181    1.4808   -0.8219 N   0  0  0  0  0  0  0  0  0  0  0  0
    3.8209    2.4351   -0.6991 N   0  0  0  0  0  0  0  0  0  0  0  0
    2.7317    1.9185   -0.0871 C   0  0  0  0  0  0  0  0  0  0  0  0
    3.0192    0.6275    0.1436 N   0  0  0  0  0  0  0  0  0  0  0  0
    2.0199   -0.2367    0.7907 C   0  0  0  0  0  0  0  0  0  0  0  0
    0.6432    0.1089    0.2334 C   0  0  0  0  0  0  0  0  0  0  0  0
    0.3852    1.5251    0.2280 N   0  0  0  0  0  0  0  0  0  0  0  0
   -0.9416    1.9934    0.1258 C   0  0  0  0  0  0  0  0  0  0  0  0
   -1.1573    3.2572    0.1050 O   0  0  0  0  0  0  0  0  0  0  0  0
   -2.1510    1.1895    0.0398 C   0  0  0  0  0  0  0  0  0  0  0  0
   -2.5720    0.3890    1.0713 C   0  0  0  0  0  0  0  0  0  0  0  0
   -3.7563   -0.3574    1.0112 C   0  0  0  0  0  0  0  0  0  0  0  0
   -4.5202   -0.2728   -0.1357 C   0  0  0  0  0  0  0  0  0  0  0  0
   -5.7662   -1.0539   -0.1814 C   0  0  0  0  0  0  0  0  0  0  0  0
   -6.7162   -1.1449   -1.1041 C   0  0  0  0  0  0  0  0  0  0  0  0
   -7.7967   -1.9230   -0.9342 C   0  0  0  0  0  0  0  0  0  0  0  0
   -7.8685   -2.6343    0.2648 C   0  0  0  0  0  0  0  0  0  0  0  0
   -6.3497   -2.1286    1.0922 S   0  0  0  0  0  0  0  0  0  0  0  0
   -4.1279    0.5177   -1.1857 C   0  0  0  0  0  0  0  0  0  0  0  0
   -2.9621    1.2387   -1.1016 C   0  0  0  0  0  0  0  0  0  0  0  0
    1.4356    2.4764    0.3543 C   0  0  2  0  0  0  0  0  0  0  0  0
    1.1628    3.7946   -0.3442 C   0  0  0  0  0  0  0  0  0  0  0  0
    6.2135   -1.1481    0.2452 N   0  0  0  0  0  0  0  0  0  0  0  0
    8.1708   -2.6995    1.5483 H   0  0  0  0  0  0  0  0  0  0  0  0
    8.6083   -2.7333   -0.1731 H   0  0  0  0  0  0  0  0  0  0  0  0
    7.6984   -4.1688    0.5679 H   0  0  0  0  0  0  0  0  0  0  0  0
    2.0151   -0.1174    1.8906 H   0  0  0  0  0  0  0  0  0  0  0  0
    2.1931   -1.3032    0.5725 H   0  0  0  0  0  0  0  0  0  0  0  0
    0.5111   -0.2725   -0.8017 H   0  0  0  0  0  0  0  0  0  0  0  0
   -0.0760   -0.3925    0.8897 H   0  0  0  0  0  0  0  0  0  0  0  0
   -1.9954    0.3128    1.9959 H   0  0  0  0  0  0  0  0  0  0  0  0
   -4.0610   -0.9807    1.8436 H   0  0  0  0  0  0  0  0  0  0  0  0
   -6.5986   -0.5401   -2.0625 H   0  0  0  0  0  0  0  0  0  0  0  0
   -8.6320   -2.0395   -1.6777 H   0  0  0  0  0  0  0  0  0  0  0  0
   -8.6326   -3.3366    0.6565 H   0  0  0  0  0  0  0  0  0  0  0  0
   -4.7457    0.5566   -2.0602 H   0  0  0  0  0  0  0  0  0  0  0  0
   -2.6581    1.8632   -1.9363 H   0  0  0  0  0  0  0  0  0  0  0  0
    1.5624    2.6532    1.4691 H   0  0  0  0  0  0  0  0  0  0  0  0
    2.1800    4.2282   -0.5674 H   0  0  0  0  0  0  0  0  0  0  0  0
    0.6964    4.5506    0.3238 H   0  0  0  0  0  0  0  0  0  0  0  0
    0.6573    3.6245   -1.2867 H   0  0  0  0  0  0  0  0  0  0  0  0
  1  2  1  0
  2  3  2  0
  3  4  1  0
  4  5  1  0
  5  6  1  0
  6  7  2  0
  7  8  1  0
  8  9  2  0
  9 10  1  0
 10 11  1  0
 11 12  1  0
 12 13  1  0
 13 14  1  0
 14 15  2  0
 14 16  1  0
 16 17  2  0
 17 18  1  0
 18 19  2  0
 19 20  1  0
 20 21  2  0
 21 22  1  0
 22 23  2  0
 23 24  1  0
 19 25  1  0
 25 26  2  0
 13 27  1  0
 27 28  1  0
  5 29  2  0
 29  2  1  0
 10  6  1  0
 26 16  1  0
 27  9  1  0
 24 20  1  0
  1 30  1  0
  1 31  1  0
  1 32  1  0
 11 33  1  0
 11 34  1  0
 12 35  1  0
 12 36  1  0
 17 37  1  0
 18 38  1  0
 21 39  1  0
 22 40  1  0
 23 41  1  0
 25 42  1  0
 26 43  1  0
 27 44  1  1
 28 45  1  0
 28 46  1  0
 28 47  1  0
M  END
$$$$
