
     RDKit          3D

 61 65  0  0  0  0  0  0  0  0999 V2000
   -5.9475   -1.0489   -5.8292 C   0  0  0  0  0  0  0  0  0  0  0  0
   -5.3834   -0.6135   -4.5702 N   0  0  0  0  0  0  0  0  0  0  0  0
   -4.3206   -1.1625   -3.9794 C   0  0  0  0  0  0  0  0  0  0  0  0
   -4.0209   -0.5192   -2.7675 C   0  0  0  0  0  0  0  0  0  0  0  0
   -2.9040   -0.8990   -1.9084 C   0  0  0  0  0  0  0  0  0  0  0  0
   -2.0557   -1.9459   -2.2842 C   0  0  0  0  0  0  0  0  0  0  0  0
   -1.1249   -2.0908   -1.3206 C   0  0  0  0  0  0  0  0  0  0  0  0
   -0.0719   -2.9969   -1.2637 C   0  0  0  0  0  0  0  0  0  0  0  0
    0.7358   -2.9499   -0.2116 N   0  0  0  0  0  0  0  0  0  0  0  0
    0.5410   -2.0373    0.7888 C   0  0  0  0  0  0  0  0  0  0  0  0
    1.4923   -2.0908    1.8259 N   0  0  0  0  0  0  0  0  0  0  0  0
    2.7504   -1.4714    1.6278 C   0  0  0  0  0  0  0  0  0  0  0  0
    3.0062   -0.8135    0.4172 C   0  0  0  0  0  0  0  0  0  0  0  0
    4.1917   -0.2118    0.1391 C   0  0  0  0  0  0  0  0  0  0  0  0
    5.1813   -0.2544    1.0925 C   0  0  0  0  0  0  0  0  0  0  0  0
    6.4468    0.3745    0.8350 C   0  0  0  0  0  0  0  0  0  0  0  0
    7.2612    0.9343    1.7972 C   0  0  0  0  0  0  0  0  0  0  0  0
    8.4650    1.5285    1.4221 C   0  0  0  0  0  0  0  0  0  0  0  0
    8.8764    1.5769    0.1056 C   0  0  0  0  0  0  0  0  0  0  0  0
    8.0567    1.0184   -0.8181 N   0  0  0  0  0  0  0  0  0  0  0  0
    6.8814    0.4337   -0.4873 C   0  0  0  0  0  0  0  0  0  0  0  0
    4.9477   -0.8999    2.2970 C   0  0  0  0  0  0  0  0  0  0  0  0
    3.7316   -1.5104    2.5700 C   0  0  0  0  0  0  0  0  0  0  0  0
    3.4591   -2.3169    4.1084 Cl  0  0  0  0  0  0  0  0  0  0  0  0
   -0.5114   -1.1432    0.7207 C   0  0  0  0  0  0  0  0  0  0  0  0
   -1.3726   -1.1665   -0.3623 C   0  0  0  0  0  0  0  0  0  0  0  0
   -2.4783   -0.4386   -0.7423 N   0  0  0  0  0  0  0  0  0  0  0  0
   -3.0192    0.5838    0.0612 C   0  0  0  0  0  0  0  0  0  0  0  0
   -3.9633    1.3433   -0.1566 O   0  0  0  0  0  0  0  0  0  0  0  0
   -2.4272    0.8173    1.3317 O   0  0  0  0  0  0  0  0  0  0  0  0
   -2.9624    1.8451    2.1560 C   0  0  0  0  0  0  0  0  0  0  0  0
   -2.8609    3.2052    1.5104 C   0  0  0  0  0  0  0  0  0  0  0  0
   -2.2085    1.8541    3.4493 C   0  0  0  0  0  0  0  0  0  0  0  0
   -4.4498    1.5946    2.4103 C   0  0  0  0  0  0  0  0  0  0  0  0
   -4.9881    0.4449   -2.6952 C   0  0  0  0  0  0  0  0  0  0  0  0
   -5.7777    0.3456   -3.7998 N   0  0  0  0  0  0  0  0  0  0  0  0
   -5.3197   -0.6442   -6.6753 H   0  0  0  0  0  0  0  0  0  0  0  0
   -5.8524   -2.1663   -5.9418 H   0  0  0  0  0  0  0  0  0  0  0  0
   -6.9869   -0.7435   -5.9310 H   0  0  0  0  0  0  0  0  0  0  0  0
   -3.7644   -1.9991   -4.3900 H   0  0  0  0  0  0  0  0  0  0  0  0
   -2.1241   -2.5512   -3.1999 H   0  0  0  0  0  0  0  0  0  0  0  0
    0.0961   -3.7188   -2.0425 H   0  0  0  0  0  0  0  0  0  0  0  0
    1.2843   -2.5646    2.7091 H   0  0  0  0  0  0  0  0  0  0  0  0
    2.2135   -0.7814   -0.3419 H   0  0  0  0  0  0  0  0  0  0  0  0
    4.3134    0.2786   -0.8218 H   0  0  0  0  0  0  0  0  0  0  0  0
    6.9250    0.8871    2.8142 H   0  0  0  0  0  0  0  0  0  0  0  0
    9.0836    1.9574    2.1866 H   0  0  0  0  0  0  0  0  0  0  0  0
    9.8132    2.0469   -0.1459 H   0  0  0  0  0  0  0  0  0  0  0  0
    6.2731    0.0081   -1.2705 H   0  0  0  0  0  0  0  0  0  0  0  0
    5.7120   -0.9382    3.0402 H   0  0  0  0  0  0  0  0  0  0  0  0
   -0.6433   -0.4431    1.5087 H   0  0  0  0  0  0  0  0  0  0  0  0
   -3.7940    3.7855    1.6789 H   0  0  0  0  0  0  0  0  0  0  0  0
   -2.0701    3.8197    2.0346 H   0  0  0  0  0  0  0  0  0  0  0  0
   -2.6293    3.1400    0.4283 H   0  0  0  0  0  0  0  0  0  0  0  0
   -2.9233    2.0108    4.3068 H   0  0  0  0  0  0  0  0  0  0  0  0
   -1.3901    2.6143    3.4821 H   0  0  0  0  0  0  0  0  0  0  0  0
   -1.7169    0.8712    3.6788 H   0  0  0  0  0  0  0  0  0  0  0  0
   -4.7647    0.6505    1.9083 H   0  0  0  0  0  0  0  0  0  0  0  0
   -5.0823    2.4030    1.9761 H   0  0  0  0  0  0  0  0  0  0  0  0
   -4.6565    1.5727    3.4943 H   0  0  0  0  0  0  0  0  0  0  0  0
   -5.1723    1.1856   -1.9562 H   0  0  0  0  0  0  0  0  0  0  0  0
  1  2  1  0
  2  3  1  0
  3  4  2  0
  4  5  1  0
  5  6  2  0
  6  7  1  0
  7  8  2  0
  8  9  1  0
  9 10  2  0
 10 11  1  0
 11 12  1  0
 12 13  2  0
 13 14  1  0
 14 15  2  0
 15 16  1  0
 16 17  2  0
 17 18  1  0
 18 19  2  0
 19 20  1  0
 20 21  2  0
 15 22  1  0
 22 23  2  0
 23 24  1  0
 10 25  1  0
 25 26  2  0
 26 27  1  0
 27 28  1  0
 28 29  2  0
 28 30  1  0
 30 31  1  0
 31 32  1  0
 31 33  1  0
 31 34  1  0
  4 35  1  0
 35 36  2  0
 36  2  1  0
 27  5  1  0
 26  7  1  0
 23 12  1  0
 21 16  1  0
  1 37  1  0
  1 38  1  0
  1 39  1  0
  3 40  1  0
  6 41  1  0
  8 42  1  0
 11 43  1  0
 13 44  1  0
 14 45  1  0
 17 46  1  0
 18 47  1  0
 19 48  1  0
 21 49  1  0
 22 50  1  0
 25 51  1  0
 32 52  1  0
 32 53  1  0
 32 54  1  0
 33 55  1  0
 33 56  1  0
 33 57  1  0
 34 58  1  0
 34 59  1  0
 34 60  1  0
 35 61  1  0
M  END
$$$$
