
     RDKit          3D

 29 31  0  0  0  0  0  0  0  0999 V2000
    4.7799    0.3123   -0.5219 O   0  0  0  0  0  0  0  0  0  0  0  0
    3.8216   -0.6997   -0.5251 C   0  0  0  0  0  0  0  0  0  0  0  0
    2.4647   -0.0611   -0.4779 C   0  0  2  0  0  0  0  0  0  0  0  0
    2.2049    0.6544    0.8297 C   0  0  0  0  0  0  0  0  0  0  0  0
    0.6934    0.8845    0.6920 C   0  0  0  0  0  0  0  0  0  0  0  0
    0.3413   -0.1275   -0.3860 C   0  0  1  0  0  0  0  0  0  0  0  0
    1.4071   -0.9961   -0.4760 O   0  0  0  0  0  0  0  0  0  0  0  0
   -0.8999   -0.7762   -0.0398 N   0  0  0  0  0  0  0  0  0  0  0  0
   -1.1100   -2.0726    0.2406 C   0  0  0  0  0  0  0  0  0  0  0  0
   -2.4263   -2.2433    0.5111 N   0  0  0  0  0  0  0  0  0  0  0  0
   -3.0047   -1.0384    0.3908 C   0  0  0  0  0  0  0  0  0  0  0  0
   -2.0591   -0.0967    0.0434 C   0  0  0  0  0  0  0  0  0  0  0  0
   -2.5009    1.1646   -0.1121 N   0  0  0  0  0  0  0  0  0  0  0  0
   -3.7847    1.5272    0.0529 C   0  0  0  0  0  0  0  0  0  0  0  0
   -4.6847    0.5821    0.3926 N   0  0  0  0  0  0  0  0  0  0  0  0
   -4.3362   -0.7064    0.5702 C   0  0  0  0  0  0  0  0  0  0  0  0
   -5.2591   -1.4961    0.8850 O   0  0  0  0  0  0  0  0  0  0  0  0
    4.3829    1.1653   -0.2593 H   0  0  0  0  0  0  0  0  0  0  0  0
    3.9081   -1.1700   -1.5401 H   0  0  0  0  0  0  0  0  0  0  0  0
    3.9752   -1.4727    0.2238 H   0  0  0  0  0  0  0  0  0  0  0  0
    2.2589    0.5919   -1.3366 H   0  0  0  0  0  0  0  0  0  0  0  0
    2.7252    1.6248    0.9174 H   0  0  0  0  0  0  0  0  0  0  0  0
    2.3743   -0.0395    1.6713 H   0  0  0  0  0  0  0  0  0  0  0  0
    0.1912    0.5814    1.6232 H   0  0  0  0  0  0  0  0  0  0  0  0
    0.4901    1.9258    0.3690 H   0  0  0  0  0  0  0  0  0  0  0  0
    0.2135    0.3501   -1.3776 H   0  0  0  0  0  0  0  0  0  0  0  0
   -0.3178   -2.8117    0.2350 H   0  0  0  0  0  0  0  0  0  0  0  0
   -1.7911    1.8861   -0.3756 H   0  0  0  0  0  0  0  0  0  0  0  0
   -4.0576    2.5574   -0.0901 H   0  0  0  0  0  0  0  0  0  0  0  0
  1  2  1  0
  2  3  1  0
  3  4  1  0
  4  5  1  0
  5  6  1  0
  6  7  1  0
  6  8  1  0
  8  9  1  0
  9 10  2  0
 10 11  1  0
 11 12  2  0
 12 13  1  0
 13 14  1  0
 14 15  2  0
 15 16  1  0
 16 17  2  0
  7  3  1  0
 12  8  1  0
 16 11  1  0
  1 18  1  0
  2 19  1  0
  2 20  1  0
  3 21  1  6
  4 22  1  0
  4 23  1  0
  5 24  1  0
  5 25  1  0
  6 26  1  6
  9 27  1  0
 13 28  1  0
 14 29  1  0
M  END
$$$$
