
     RDKit          3D

 55 58  0  0  0  0  0  0  0  0999 V2000
    1.2433   -4.9431   -0.3831 C   0  0  0  0  0  0  0  0  0  0  0  0
    1.1536   -3.5158   -0.3877 O   0  0  0  0  0  0  0  0  0  0  0  0
   -0.0807   -2.8908   -0.2818 C   0  0  0  0  0  0  0  0  0  0  0  0
   -0.1494   -1.5136   -0.2878 C   0  0  0  0  0  0  0  0  0  0  0  0
    1.0458   -0.8179   -0.4018 O   0  0  0  0  0  0  0  0  0  0  0  0
    1.0048    0.5721   -0.4094 C   0  0  0  0  0  0  0  0  0  0  0  0
    2.3581    1.2165   -0.5386 C   0  0  0  0  0  0  0  0  0  0  0  0
    3.3108    0.8739    0.5610 C   0  0  0  0  0  0  0  0  0  0  0  0
    4.5630    1.5707    0.2874 N   0  0  0  0  0  0  0  0  0  0  0  0
    5.2465    1.0677   -0.8689 C   0  0  0  0  0  0  0  0  0  0  0  0
    6.6527    0.6199   -0.5867 C   0  0  0  0  0  0  0  0  0  0  0  0
    7.4098    1.5146    0.1283 O   0  0  0  0  0  0  0  0  0  0  0  0
    6.7026    2.2930    1.0258 C   0  0  0  0  0  0  0  0  0  0  0  0
    5.3891    1.6735    1.4610 C   0  0  0  0  0  0  0  0  0  0  0  0
   -1.3734   -0.9082   -0.1826 C   0  0  0  0  0  0  0  0  0  0  0  0
   -2.5769   -1.5643   -0.0680 C   0  0  0  0  0  0  0  0  0  0  0  0
   -3.8113   -0.9641    0.0381 C   0  0  0  0  0  0  0  0  0  0  0  0
   -3.8703    0.4513    0.0373 N   0  0  0  0  0  0  0  0  0  0  0  0
   -4.9923    1.3156    0.1096 C   0  0  0  0  0  0  0  0  0  0  0  0
   -4.9535    2.7022    0.2361 C   0  0  0  0  0  0  0  0  0  0  0  0
   -6.0522    3.4970    0.2979 C   0  0  0  0  0  0  0  0  0  0  0  0
   -5.7974    5.2167    0.4582 Cl  0  0  0  0  0  0  0  0  0  0  0  0
   -7.3175    2.9564    0.2361 C   0  0  0  0  0  0  0  0  0  0  0  0
   -8.3432    3.8145    0.3048 F   0  0  0  0  0  0  0  0  0  0  0  0
   -7.4075    1.5934    0.1109 C   0  0  0  0  0  0  0  0  0  0  0  0
   -6.2717    0.8160    0.0513 C   0  0  0  0  0  0  0  0  0  0  0  0
   -4.8760   -1.7641    0.1409 N   0  0  0  0  0  0  0  0  0  0  0  0
   -4.7874   -3.0952    0.1443 C   0  0  0  0  0  0  0  0  0  0  0  0
   -3.5817   -3.6754    0.0406 N   0  0  0  0  0  0  0  0  0  0  0  0
   -2.4614   -2.9341   -0.0665 C   0  0  0  0  0  0  0  0  0  0  0  0
   -1.2590   -3.5969   -0.1693 C   0  0  0  0  0  0  0  0  0  0  0  0
    2.2905   -5.2692   -0.3907 H   0  0  0  0  0  0  0  0  0  0  0  0
    0.7372   -5.3725   -1.2649 H   0  0  0  0  0  0  0  0  0  0  0  0
    0.7301   -5.2890    0.5518 H   0  0  0  0  0  0  0  0  0  0  0  0
    0.4885    0.9119    0.4918 H   0  0  0  0  0  0  0  0  0  0  0  0
    0.4231    0.8927   -1.2993 H   0  0  0  0  0  0  0  0  0  0  0  0
    2.1985    2.3145   -0.5032 H   0  0  0  0  0  0  0  0  0  0  0  0
    2.7999    0.9808   -1.5249 H   0  0  0  0  0  0  0  0  0  0  0  0
    3.4667   -0.2124    0.7024 H   0  0  0  0  0  0  0  0  0  0  0  0
    2.9293    1.2858    1.5175 H   0  0  0  0  0  0  0  0  0  0  0  0
    4.7169    0.2333   -1.3560 H   0  0  0  0  0  0  0  0  0  0  0  0
    5.2812    1.8985   -1.6164 H   0  0  0  0  0  0  0  0  0  0  0  0
    6.6749   -0.3943   -0.1464 H   0  0  0  0  0  0  0  0  0  0  0  0
    7.1457    0.5356   -1.5994 H   0  0  0  0  0  0  0  0  0  0  0  0
    6.4573    3.2468    0.5250 H   0  0  0  0  0  0  0  0  0  0  0  0
    7.3076    2.4499    1.9529 H   0  0  0  0  0  0  0  0  0  0  0  0
    4.9185    2.4364    2.1356 H   0  0  0  0  0  0  0  0  0  0  0  0
    5.5172    0.7422    2.0178 H   0  0  0  0  0  0  0  0  0  0  0  0
   -1.3502    0.1599   -0.1952 H   0  0  0  0  0  0  0  0  0  0  0  0
   -3.0339    1.0275   -0.0214 H   0  0  0  0  0  0  0  0  0  0  0  0
   -3.9495    3.1506    0.2875 H   0  0  0  0  0  0  0  0  0  0  0  0
   -8.4258    1.2279    0.0669 H   0  0  0  0  0  0  0  0  0  0  0  0
   -6.5382   -0.2098   -0.0478 H   0  0  0  0  0  0  0  0  0  0  0  0
   -5.7156   -3.6487    0.2326 H   0  0  0  0  0  0  0  0  0  0  0  0
   -1.1870   -4.6799   -0.1657 H   0  0  0  0  0  0  0  0  0  0  0  0
  1  2  1  0
  2  3  1  0
  3  4  2  0
  4  5  1  0
  5  6  1  0
  6  7  1  0
  7  8  1  0
  8  9  1  0
  9 10  1  0
 10 11  1  0
 11 12  1  0
 12 13  1  0
 13 14  1  0
  4 15  1  0
 15 16  2  0
 16 17  1  0
 17 18  1  0
 18 19  1  0
 19 20  2  0
 20 21  1  0
 21 22  1  0
 21 23  2  0
 23 24  1  0
 23 25  1  0
 25 26  2  0
 17 27  2  0
 27 28  1  0
 28 29  2  0
 29 30  1  0
 30 31  2  0
 31  3  1  0
 14  9  1  0
 30 16  1  0
 26 19  1  0
  1 32  1  0
  1 33  1  0
  1 34  1  0
  6 35  1  0
  6 36  1  0
  7 37  1  0
  7 38  1  0
  8 39  1  0
  8 40  1  0
 10 41  1  0
 10 42  1  0
 11 43  1  0
 11 44  1  0
 13 45  1  0
 13 46  1  0
 14 47  1  0
 14 48  1  0
 15 49  1  0
 18 50  1  0
 20 51  1  0
 25 52  1  0
 26 53  1  0
 28 54  1  0
 31 55  1  0
M  END
$$$$
