
     RDKit          3D

 51 55  0  0  0  0  0  0  0  0999 V2000
    7.3240    1.5311    1.3100 C   0  0  0  0  0  0  0  0  0  0  0  0
    6.2271    0.9497    0.4846 C   0  0  0  0  0  0  0  0  0  0  0  0
    6.4495    0.1848   -0.6368 C   0  0  0  0  0  0  0  0  0  0  0  0
    5.2194   -0.1840   -1.1487 C   0  0  0  0  0  0  0  0  0  0  0  0
    4.8892   -0.9362   -2.2390 N   0  0  0  0  0  0  0  0  0  0  0  0
    3.5852   -1.1370   -2.5038 C   0  0  0  0  0  0  0  0  0  0  0  0
    2.6307   -0.5880   -1.6821 C   0  0  0  0  0  0  0  0  0  0  0  0
    2.9847    0.1579   -0.6013 C   0  0  0  0  0  0  0  0  0  0  0  0
    4.2816    0.3505   -0.3482 N   0  0  0  0  0  0  0  0  0  0  0  0
    4.9100    1.0262    0.6245 N   0  0  0  0  0  0  0  0  0  0  0  0
    1.7710    0.6103    0.0852 C   0  0  0  0  0  0  0  0  0  0  0  0
    0.6506   -0.0222   -0.5787 N   0  0  0  0  0  0  0  0  0  0  0  0
   -0.0542   -0.8107    0.3589 C   0  0  1  0  0  0  0  0  0  0  0  0
   -0.5615    0.0497    1.4764 C   0  0  0  0  0  0  0  0  0  0  0  0
   -2.0024    0.4013    1.4267 C   0  0  0  0  0  0  0  0  0  0  0  0
   -2.6503    0.3520    0.0761 C   0  0  2  0  0  0  0  0  0  0  0  0
   -4.1190    0.3556    0.3126 C   0  0  0  0  0  0  0  0  0  0  0  0
   -4.8091   -0.7987    0.6215 C   0  0  0  0  0  0  0  0  0  0  0  0
   -6.1656   -0.8204    0.8538 C   0  0  0  0  0  0  0  0  0  0  0  0
   -6.8105   -1.9681    1.1543 F   0  0  0  0  0  0  0  0  0  0  0  0
   -6.8834    0.3463    0.7804 C   0  0  0  0  0  0  0  0  0  0  0  0
   -8.2265    0.3422    1.0073 F   0  0  0  0  0  0  0  0  0  0  0  0
   -6.2110    1.5002    0.4747 C   0  0  0  0  0  0  0  0  0  0  0  0
   -4.8654    1.5197    0.2446 C   0  0  0  0  0  0  0  0  0  0  0  0
   -4.1991    2.6632   -0.0582 F   0  0  0  0  0  0  0  0  0  0  0  0
   -2.2975   -0.8282   -0.7552 C   0  0  1  0  0  0  0  0  0  0  0  0
   -1.9203   -0.3181   -2.0870 N   0  0  0  0  0  0  0  0  0  0  0  0
   -1.1636   -1.6451   -0.1710 C   0  0  0  0  0  0  0  0  0  0  0  0
    1.1641   -0.6381   -1.7256 C   0  0  0  0  0  0  0  0  0  0  0  0
    7.8074    2.3130    0.7193 H   0  0  0  0  0  0  0  0  0  0  0  0
    8.0887    0.7387    1.5606 H   0  0  0  0  0  0  0  0  0  0  0  0
    6.9303    1.9095    2.2691 H   0  0  0  0  0  0  0  0  0  0  0  0
    7.4207   -0.0894   -1.0581 H   0  0  0  0  0  0  0  0  0  0  0  0
    3.2432   -1.7215   -3.3489 H   0  0  0  0  0  0  0  0  0  0  0  0
    1.6561    1.7108    0.1341 H   0  0  0  0  0  0  0  0  0  0  0  0
    1.8658    0.2419    1.1499 H   0  0  0  0  0  0  0  0  0  0  0  0
    0.6838   -1.5249    0.8240 H   0  0  0  0  0  0  0  0  0  0  0  0
   -0.2953   -0.3640    2.4815 H   0  0  0  0  0  0  0  0  0  0  0  0
    0.0110    1.0241    1.4301 H   0  0  0  0  0  0  0  0  0  0  0  0
   -2.1842    1.4442    1.8224 H   0  0  0  0  0  0  0  0  0  0  0  0
   -2.5618   -0.2775    2.1360 H   0  0  0  0  0  0  0  0  0  0  0  0
   -2.4354    1.3261   -0.4395 H   0  0  0  0  0  0  0  0  0  0  0  0
   -4.2897   -1.7553    0.6989 H   0  0  0  0  0  0  0  0  0  0  0  0
   -6.7925    2.4236    0.4188 H   0  0  0  0  0  0  0  0  0  0  0  0
   -3.2019   -1.4274   -0.9502 H   0  0  0  0  0  0  0  0  0  0  0  0
   -2.7742   -0.0485   -2.6247 H   0  0  0  0  0  0  0  0  0  0  0  0
   -1.5515   -1.1793   -2.5939 H   0  0  0  0  0  0  0  0  0  0  0  0
   -0.8391   -2.4350   -0.8791 H   0  0  0  0  0  0  0  0  0  0  0  0
   -1.6015   -2.1985    0.6987 H   0  0  0  0  0  0  0  0  0  0  0  0
    0.8671   -1.6846   -1.9025 H   0  0  0  0  0  0  0  0  0  0  0  0
    0.8053   -0.0717   -2.6362 H   0  0  0  0  0  0  0  0  0  0  0  0
  1  2  1  0
  2  3  1  0
  3  4  2  0
  4  5  1  0
  5  6  2  0
  6  7  1  0
  7  8  2  0
  8  9  1  0
  9 10  1  0
  8 11  1  0
 11 12  1  0
 12 13  1  0
 13 14  1  0
 14 15  1  0
 15 16  1  0
 16 17  1  0
 17 18  2  0
 18 19  1  0
 19 20  1  0
 19 21  2  0
 21 22  1  0
 21 23  1  0
 23 24  2  0
 24 25  1  0
 16 26  1  0
 26 27  1  0
 26 28  1  0
 12 29  1  0
 10  2  2  0
 28 13  1  0
  9  4  1  0
 24 17  1  0
 29  7  1  0
  1 30  1  0
  1 31  1  0
  1 32  1  0
  3 33  1  0
  6 34  1  0
 11 35  1  0
 11 36  1  0
 13 37  1  1
 14 38  1  0
 14 39  1  0
 15 40  1  0
 15 41  1  0
 16 42  1  6
 18 43  1  0
 23 44  1  0
 26 45  1  6
 27 46  1  0
 27 47  1  0
 28 48  1  0
 28 49  1  0
 29 50  1  0
 29 51  1  0
M  END
$$$$
