
     RDKit          3D

 53 55  0  0  0  0  0  0  0  0999 V2000
    0.7613    1.9968   -1.8636 C   0  0  0  0  0  0  0  0  0  0  0  0
    1.0855    0.5886   -1.5480 C   0  0  0  0  0  0  0  0  0  0  0  0
    2.3519    0.3966   -0.9971 C   0  0  0  0  0  0  0  0  0  0  0  0
    2.8008   -0.8449   -0.6692 C   0  0  0  0  0  0  0  0  0  0  0  0
    4.0696   -1.0441   -0.1141 O   0  0  0  0  0  0  0  0  0  0  0  0
    4.8709    0.1073    0.0920 C   0  0  0  0  0  0  0  0  0  0  0  0
    6.1918   -0.2010    0.6906 C   0  0  0  0  0  0  0  0  0  0  0  0
    6.4351    0.0673    2.0261 C   0  0  0  0  0  0  0  0  0  0  0  0
    7.6637   -0.2095    2.5884 C   0  0  0  0  0  0  0  0  0  0  0  0
    8.6755   -0.7600    1.8293 C   0  0  0  0  0  0  0  0  0  0  0  0
    9.8510   -1.0155    2.3992 F   0  0  0  0  0  0  0  0  0  0  0  0
    8.4488   -1.0303    0.5092 C   0  0  0  0  0  0  0  0  0  0  0  0
    7.2090   -0.7508   -0.0575 C   0  0  0  0  0  0  0  0  0  0  0  0
    6.9537   -1.0095   -1.3687 F   0  0  0  0  0  0  0  0  0  0  0  0
    1.9887   -1.9199   -0.8883 C   0  0  0  0  0  0  0  0  0  0  0  0
    2.5158   -3.5333   -0.4893 Cl  0  0  0  0  0  0  0  0  0  0  0  0
    0.7408   -1.6915   -1.4356 C   0  0  0  0  0  0  0  0  0  0  0  0
    0.0446   -2.7419   -1.6110 O   0  0  0  0  0  0  0  0  0  0  0  0
    0.2813   -0.4583   -1.7654 N   0  0  0  0  0  0  0  0  0  0  0  0
   -1.0282   -0.2966   -2.3328 C   0  0  0  0  0  0  0  0  0  0  0  0
   -2.0661   -0.1190   -1.2870 C   0  0  0  0  0  0  0  0  0  0  0  0
   -2.7711   -1.2185   -0.7939 C   0  0  0  0  0  0  0  0  0  0  0  0
   -3.7394   -1.1102    0.1815 C   0  0  0  0  0  0  0  0  0  0  0  0
   -4.0745    0.1276    0.7399 C   0  0  0  0  0  0  0  0  0  0  0  0
   -5.0980    0.2385    1.7988 C   0  0  0  0  0  0  0  0  0  0  0  0
   -6.4381    0.3981    1.3731 N   0  0  0  0  0  0  0  0  0  0  0  0
   -6.9956    1.6152    0.9089 C   0  0  0  0  0  0  0  0  0  0  0  0
   -6.2671    2.6359    0.8654 O   0  0  0  0  0  0  0  0  0  0  0  0
   -8.4415    1.6848    0.4746 C   0  0  0  0  0  0  0  0  0  0  0  0
   -9.0503    0.4520    0.6063 O   0  0  0  0  0  0  0  0  0  0  0  0
   -3.3868    1.2160    0.2603 C   0  0  0  0  0  0  0  0  0  0  0  0
   -2.4040    1.0901   -0.7330 C   0  0  0  0  0  0  0  0  0  0  0  0
    1.6798    2.4701   -2.3123 H   0  0  0  0  0  0  0  0  0  0  0  0
    0.5602    2.5677   -0.9317 H   0  0  0  0  0  0  0  0  0  0  0  0
   -0.0381    2.1634   -2.5700 H   0  0  0  0  0  0  0  0  0  0  0  0
    3.0200    1.2534   -0.8150 H   0  0  0  0  0  0  0  0  0  0  0  0
    4.3092    0.8533    0.7097 H   0  0  0  0  0  0  0  0  0  0  0  0
    5.0758    0.6255   -0.8813 H   0  0  0  0  0  0  0  0  0  0  0  0
    5.6165    0.4961    2.5799 H   0  0  0  0  0  0  0  0  0  0  0  0
    7.7838    0.0238    3.6251 H   0  0  0  0  0  0  0  0  0  0  0  0
    9.2267   -1.4593   -0.0961 H   0  0  0  0  0  0  0  0  0  0  0  0
   -1.2722   -1.2233   -2.9493 H   0  0  0  0  0  0  0  0  0  0  0  0
   -1.0394    0.5136   -3.0797 H   0  0  0  0  0  0  0  0  0  0  0  0
   -2.5365   -2.1948   -1.2183 H   0  0  0  0  0  0  0  0  0  0  0  0
   -4.2783   -1.9710    0.5550 H   0  0  0  0  0  0  0  0  0  0  0  0
   -4.7469    1.0533    2.4820 H   0  0  0  0  0  0  0  0  0  0  0  0
   -5.0369   -0.6869    2.4465 H   0  0  0  0  0  0  0  0  0  0  0  0
   -7.1185   -0.4234    1.3813 H   0  0  0  0  0  0  0  0  0  0  0  0
   -8.9370    2.4711    1.1174 H   0  0  0  0  0  0  0  0  0  0  0  0
   -8.4478    2.0869   -0.5501 H   0  0  0  0  0  0  0  0  0  0  0  0
   -9.4805    0.4029    1.5180 H   0  0  0  0  0  0  0  0  0  0  0  0
   -3.6064    2.2079    0.6685 H   0  0  0  0  0  0  0  0  0  0  0  0
   -1.9122    1.9953   -1.0689 H   0  0  0  0  0  0  0  0  0  0  0  0
  1  2  1  0
  2  3  2  0
  3  4  1  0
  4  5  1  0
  5  6  1  0
  6  7  1  0
  7  8  2  0
  8  9  1  0
  9 10  2  0
 10 11  1  0
 10 12  1  0
 12 13  2  0
 13 14  1  0
  4 15  2  0
 15 16  1  0
 15 17  1  0
 17 18  2  0
 17 19  1  0
 19 20  1  0
 20 21  1  0
 21 22  2  0
 22 23  1  0
 23 24  2  0
 24 25  1  0
 25 26  1  0
 26 27  1  0
 27 28  2  0
 27 29  1  0
 29 30  1  0
 24 31  1  0
 31 32  2  0
 19  2  1  0
 32 21  1  0
 13  7  1  0
  1 33  1  0
  1 34  1  0
  1 35  1  0
  3 36  1  0
  6 37  1  0
  6 38  1  0
  8 39  1  0
  9 40  1  0
 12 41  1  0
 20 42  1  0
 20 43  1  0
 22 44  1  0
 23 45  1  0
 25 46  1  0
 25 47  1  0
 26 48  1  0
 29 49  1  0
 29 50  1  0
 30 51  1  0
 31 52  1  0
 32 53  1  0
M  END
$$$$
