
     RDKit          3D

 71 76  0  0  0  0  0  0  0  0999 V2000
   -2.1126    7.4449    1.8321 C   0  0  0  0  0  0  0  0  0  0  0  0
   -1.7195    6.1085    1.7844 O   0  0  0  0  0  0  0  0  0  0  0  0
   -1.1443    5.4792    0.7083 C   0  0  0  0  0  0  0  0  0  0  0  0
   -0.8076    4.1458    0.8104 C   0  0  0  0  0  0  0  0  0  0  0  0
   -0.2201    3.4761   -0.2682 C   0  0  0  0  0  0  0  0  0  0  0  0
    0.1502    2.1130   -0.2390 N   0  0  0  0  0  0  0  0  0  0  0  0
    1.4304    1.6616    0.1823 C   0  0  0  0  0  0  0  0  0  0  0  0
    2.2652    2.2727    0.9109 O   0  0  0  0  0  0  0  0  0  0  0  0
    1.6083    0.3539   -0.3830 N   0  0  0  0  0  0  0  0  0  0  0  0
    2.7410   -0.4940   -0.2354 C   0  0  0  0  0  0  0  0  0  0  0  0
    3.7534   -0.3884   -1.1648 C   0  0  0  0  0  0  0  0  0  0  0  0
    4.8724   -1.1904   -1.0620 C   0  0  0  0  0  0  0  0  0  0  0  0
    4.9305   -2.0796   -0.0136 C   0  0  0  0  0  0  0  0  0  0  0  0
    6.1002   -2.9282    0.1055 C   0  0  0  0  0  0  0  0  0  0  0  0
    7.3095   -2.4458   -0.3206 C   0  0  0  0  0  0  0  0  0  0  0  0
    8.4329   -3.2684   -0.2029 C   0  0  0  0  0  0  0  0  0  0  0  0
    8.2964   -4.5443    0.3387 C   0  0  0  0  0  0  0  0  0  0  0  0
    9.4614   -5.3774    0.4528 C   0  0  0  0  0  0  0  0  0  0  0  0
   10.3914   -6.0507    0.5539 N   0  0  0  0  0  0  0  0  0  0  0  0
    7.0699   -5.0283    0.7688 C   0  0  0  0  0  0  0  0  0  0  0  0
    5.9661   -4.1998    0.6450 C   0  0  0  0  0  0  0  0  0  0  0  0
    3.9069   -2.1862    0.9262 C   0  0  0  0  0  0  0  0  0  0  0  0
    2.7871   -1.3777    0.8156 C   0  0  0  0  0  0  0  0  0  0  0  0
    0.4367    0.0317   -1.1371 C   0  0  0  0  0  0  0  0  0  0  0  0
    0.4012   -0.8393   -2.0377 O   0  0  0  0  0  0  0  0  0  0  0  0
   -0.6080    0.9348   -0.5965 C   0  0  0  0  0  0  0  0  0  0  0  0
   -1.2632    0.3767    0.6364 C   0  0  0  0  0  0  0  0  0  0  0  0
   -2.7592    0.3236    0.5595 C   0  0  0  0  0  0  0  0  0  0  0  0
   -3.2384   -0.3339   -0.6165 N   0  0  0  0  0  0  0  0  0  0  0  0
   -4.6455   -0.1909   -0.8136 C   0  0  0  0  0  0  0  0  0  0  0  0
   -5.4516   -0.7512    0.2854 C   0  0  0  0  0  0  0  0  0  0  0  0
   -6.0313    0.0521    1.1871 N   0  0  0  0  0  0  0  0  0  0  0  0
   -6.7722   -0.3994    2.2047 C   0  0  0  0  0  0  0  0  0  0  0  0
   -6.9637   -1.7565    2.3547 C   0  0  0  0  0  0  0  0  0  0  0  0
   -6.3781   -2.5835    1.4422 C   0  0  0  0  0  0  0  0  0  0  0  0
   -5.6156   -2.1062    0.3962 C   0  0  0  0  0  0  0  0  0  0  0  0
   -5.0103   -3.0763   -0.5568 C   0  0  0  0  0  0  0  0  0  0  0  0
   -2.4993   -0.0299   -1.8208 C   0  0  0  0  0  0  0  0  0  0  0  0
   -1.6305    1.1941   -1.6484 C   0  0  0  0  0  0  0  0  0  0  0  0
   -0.0104    4.1923   -1.3777 N   0  0  0  0  0  0  0  0  0  0  0  0
   -0.3317    5.4935   -1.4966 C   0  0  0  0  0  0  0  0  0  0  0  0
   -0.8996    6.1204   -0.4387 N   0  0  0  0  0  0  0  0  0  0  0  0
   -3.1934    7.5999    1.8975 H   0  0  0  0  0  0  0  0  0  0  0  0
   -1.6704    7.8857    2.7730 H   0  0  0  0  0  0  0  0  0  0  0  0
   -1.6454    8.0473    1.0054 H   0  0  0  0  0  0  0  0  0  0  0  0
   -0.9702    3.5516    1.7004 H   0  0  0  0  0  0  0  0  0  0  0  0
    3.6937    0.3129   -1.9802 H   0  0  0  0  0  0  0  0  0  0  0  0
    5.6409   -1.0755   -1.8107 H   0  0  0  0  0  0  0  0  0  0  0  0
    7.4104   -1.4431   -0.7451 H   0  0  0  0  0  0  0  0  0  0  0  0
    9.3663   -2.8752   -0.5400 H   0  0  0  0  0  0  0  0  0  0  0  0
    6.9553   -6.0155    1.1898 H   0  0  0  0  0  0  0  0  0  0  0  0
    4.9752   -4.4996    0.9554 H   0  0  0  0  0  0  0  0  0  0  0  0
    3.9877   -2.8939    1.7336 H   0  0  0  0  0  0  0  0  0  0  0  0
    1.9926   -1.4633    1.5482 H   0  0  0  0  0  0  0  0  0  0  0  0
   -0.8740   -0.6470    0.8954 H   0  0  0  0  0  0  0  0  0  0  0  0
   -1.0056    1.0012    1.5319 H   0  0  0  0  0  0  0  0  0  0  0  0
   -3.2024    1.3320    0.6927 H   0  0  0  0  0  0  0  0  0  0  0  0
   -3.1039   -0.2759    1.4417 H   0  0  0  0  0  0  0  0  0  0  0  0
   -4.8926    0.9042   -0.9397 H   0  0  0  0  0  0  0  0  0  0  0  0
   -4.9370   -0.6612   -1.7578 H   0  0  0  0  0  0  0  0  0  0  0  0
   -7.2082    0.3178    2.8931 H   0  0  0  0  0  0  0  0  0  0  0  0
   -7.5621   -2.1286    3.1760 H   0  0  0  0  0  0  0  0  0  0  0  0
   -6.5362   -3.6549    1.5702 H   0  0  0  0  0  0  0  0  0  0  0  0
   -4.0991   -3.4703   -0.0977 H   0  0  0  0  0  0  0  0  0  0  0  0
   -4.8909   -2.6892   -1.5681 H   0  0  0  0  0  0  0  0  0  0  0  0
   -5.7276   -3.9391   -0.6301 H   0  0  0  0  0  0  0  0  0  0  0  0
   -1.9248   -0.9443   -2.0761 H   0  0  0  0  0  0  0  0  0  0  0  0
   -3.1986    0.1137   -2.6877 H   0  0  0  0  0  0  0  0  0  0  0  0
   -2.3052    2.0140   -1.3189 H   0  0  0  0  0  0  0  0  0  0  0  0
   -1.1349    1.4278   -2.6115 H   0  0  0  0  0  0  0  0  0  0  0  0
   -0.1385    6.0199   -2.4195 H   0  0  0  0  0  0  0  0  0  0  0  0
  1  2  1  0
  2  3  1  0
  3  4  2  0
  4  5  1  0
  5  6  1  0
  6  7  1  0
  7  8  2  0
  7  9  1  0
  9 10  1  0
 10 11  2  0
 11 12  1  0
 12 13  2  0
 13 14  1  0
 14 15  2  0
 15 16  1  0
 16 17  2  0
 17 18  1  0
 18 19  3  0
 17 20  1  0
 20 21  2  0
 13 22  1  0
 22 23  2  0
  9 24  1  0
 24 25  2  0
 24 26  1  0
 26 27  1  0
 27 28  1  0
 28 29  1  0
 29 30  1  0
 30 31  1  0
 31 32  2  0
 32 33  1  0
 33 34  2  0
 34 35  1  0
 35 36  2  0
 36 37  1  0
 29 38  1  0
 38 39  1  0
  5 40  2  0
 40 41  1  0
 41 42  2  0
 42  3  1  0
 26  6  1  0
 36 31  1  0
 23 10  1  0
 39 26  1  0
 21 14  1  0
  1 43  1  0
  1 44  1  0
  1 45  1  0
  4 46  1  0
 11 47  1  0
 12 48  1  0
 15 49  1  0
 16 50  1  0
 20 51  1  0
 21 52  1  0
 22 53  1  0
 23 54  1  0
 27 55  1  0
 27 56  1  0
 28 57  1  0
 28 58  1  0
 30 59  1  0
 30 60  1  0
 33 61  1  0
 34 62  1  0
 35 63  1  0
 37 64  1  0
 37 65  1  0
 37 66  1  0
 38 67  1  0
 38 68  1  0
 39 69  1  0
 39 70  1  0
 41 71  1  0
M  END
$$$$
