
     RDKit          3D

 43 46  0  0  0  0  0  0  0  0999 V2000
    5.6788    0.4555   -0.9277 C   0  0  0  0  0  0  0  0  0  0  0  0
    4.4183    0.7906   -0.2913 N   0  0  0  0  0  0  0  0  0  0  0  0
    3.1646    0.6290   -0.7733 C   0  0  0  0  0  0  0  0  0  0  0  0
    2.3202    1.0986    0.2051 C   0  0  0  0  0  0  0  0  0  0  0  0
    0.8226    1.1744    0.2322 C   0  0  1  0  0  0  0  0  0  0  0  0
    0.2812    0.5515   -0.9886 C   0  0  0  0  0  0  0  0  0  0  0  0
   -0.2457   -0.8377   -0.7002 C   0  0  1  0  0  0  0  0  0  0  0  0
    0.8951   -1.6805   -0.2062 C   0  0  0  0  0  0  0  0  0  0  0  0
    0.2128   -3.2978    0.2295 S   0  0  0  0  0  0  0  0  0  0  0  0
   -1.4843   -3.0390    0.7127 C   0  0  0  0  0  0  0  0  0  0  0  0
   -2.2306   -4.2128    1.0767 N   0  0  0  0  0  0  0  0  0  0  0  0
   -1.9662   -1.8740    0.7215 N   0  0  0  0  0  0  0  0  0  0  0  0
   -1.3032   -0.6365    0.3751 C   0  0  2  0  0  0  0  0  0  0  0  0
   -2.3245    0.2978   -0.1077 C   0  0  0  0  0  0  0  0  0  0  0  0
   -2.5785    1.5132    0.4889 C   0  0  0  0  0  0  0  0  0  0  0  0
   -3.5347    2.3881    0.0352 C   0  0  0  0  0  0  0  0  0  0  0  0
   -4.2906    2.0685   -1.0613 C   0  0  0  0  0  0  0  0  0  0  0  0
   -5.2430    2.9476   -1.5074 F   0  0  0  0  0  0  0  0  0  0  0  0
   -4.0665    0.8667   -1.6820 C   0  0  0  0  0  0  0  0  0  0  0  0
   -3.1044    0.0055   -1.2115 C   0  0  0  0  0  0  0  0  0  0  0  0
   -2.9326   -1.1819   -1.8800 F   0  0  0  0  0  0  0  0  0  0  0  0
   -0.5718   -0.1577    1.5886 C   0  0  0  0  0  0  0  0  0  0  0  0
    0.4220    0.7267    1.4281 O   0  0  0  0  0  0  0  0  0  0  0  0
    3.0946    1.5343    1.2596 C   0  0  0  0  0  0  0  0  0  0  0  0
    4.3616    1.3364    0.9328 N   0  0  0  0  0  0  0  0  0  0  0  0
    6.3826    1.3186   -0.8241 H   0  0  0  0  0  0  0  0  0  0  0  0
    5.5561    0.2837   -2.0148 H   0  0  0  0  0  0  0  0  0  0  0  0
    6.1797   -0.4051   -0.4247 H   0  0  0  0  0  0  0  0  0  0  0  0
    2.8987    0.2225   -1.7125 H   0  0  0  0  0  0  0  0  0  0  0  0
    0.6296    2.2919    0.1738 H   0  0  0  0  0  0  0  0  0  0  0  0
    0.9259    0.5458   -1.8796 H   0  0  0  0  0  0  0  0  0  0  0  0
   -0.6370    1.1262   -1.3290 H   0  0  0  0  0  0  0  0  0  0  0  0
   -0.6643   -1.3245   -1.5980 H   0  0  0  0  0  0  0  0  0  0  0  0
    1.6049   -1.8002   -1.0470 H   0  0  0  0  0  0  0  0  0  0  0  0
    1.4434   -1.2209    0.6376 H   0  0  0  0  0  0  0  0  0  0  0  0
   -2.6670   -4.3484    1.9991 H   0  0  0  0  0  0  0  0  0  0  0  0
   -2.3080   -4.9439    0.3291 H   0  0  0  0  0  0  0  0  0  0  0  0
   -2.0137    1.8196    1.3572 H   0  0  0  0  0  0  0  0  0  0  0  0
   -3.6887    3.3402    0.5539 H   0  0  0  0  0  0  0  0  0  0  0  0
   -4.6503    0.6048   -2.5398 H   0  0  0  0  0  0  0  0  0  0  0  0
   -1.3613    0.1547    2.3357 H   0  0  0  0  0  0  0  0  0  0  0  0
   -0.1349   -1.0866    2.0711 H   0  0  0  0  0  0  0  0  0  0  0  0
    2.7092    1.9549    2.1710 H   0  0  0  0  0  0  0  0  0  0  0  0
  1  2  1  0
  2  3  1  0
  3  4  2  0
  4  5  1  0
  5  6  1  0
  6  7  1  0
  7  8  1  0
  8  9  1  0
  9 10  1  0
 10 11  1  0
 10 12  2  0
 12 13  1  0
 13 14  1  6
 14 15  2  0
 15 16  1  0
 16 17  2  0
 17 18  1  0
 17 19  1  0
 19 20  2  0
 20 21  1  0
 13 22  1  0
 22 23  1  0
  4 24  1  0
 24 25  2  0
 25  2  1  0
 23  5  1  0
 13  7  1  0
 20 14  1  0
  1 26  1  0
  1 27  1  0
  1 28  1  0
  3 29  1  0
  5 30  1  6
  6 31  1  0
  6 32  1  0
  7 33  1  6
  8 34  1  0
  8 35  1  0
 11 36  1  0
 11 37  1  0
 15 38  1  0
 16 39  1  0
 19 40  1  0
 22 41  1  0
 22 42  1  0
 24 43  1  0
M  END
$$$$
