
     RDKit          3D

142145  0  0  0  0  0  0  0  0999 V2000
   10.4917    0.0264    0.7168 C   0  0  0  0  0  0  0  0  0  0  0  0
    9.5772   -0.8491    1.0964 C   0  0  0  0  0  0  0  0  0  0  0  0
    8.4571   -1.7760    0.9639 C   0  0  1  0  0  0  0  0  0  0  0  0
    7.4216   -1.4519    2.0178 C   0  0  0  0  0  0  0  0  0  0  0  0
    7.9158   -1.8120   -0.4411 C   0  0  1  0  0  0  0  0  0  0  0  0
    6.8678   -2.7816   -0.4977 O   0  0  0  0  0  0  0  0  0  0  0  0
    7.1920   -3.8804   -1.2420 C   0  0  0  0  0  0  0  0  0  0  0  0
    7.4632   -0.5334   -0.9935 C   0  0  1  0  0  0  0  0  0  0  0  0
    6.9898   -0.8411   -2.4526 C   0  0  0  0  0  0  0  0  0  0  0  0
    6.3387    0.1922   -0.3750 C   0  0  0  0  0  0  0  0  0  0  0  0
    6.6055    1.3369    0.0459 O   0  0  0  0  0  0  0  0  0  0  0  0
    5.0023   -0.3196   -0.2375 C   0  0  0  0  0  0  0  0  0  0  0  0
    3.8193    0.5853   -0.1873 C   0  0  0  0  0  0  0  0  0  0  0  0
    3.4393    1.3599   -1.3601 C   0  0  2  0  0  0  0  0  0  0  0  0
    4.5168    2.3077   -1.8423 C   0  0  0  0  0  0  0  0  0  0  0  0
    2.1644    2.0597   -1.4539 C   0  0  2  0  0  0  0  0  0  0  0  0
    0.8432    1.4610   -1.4128 C   0  0  0  0  0  0  0  0  0  0  0  0
    0.2764    0.7280   -0.2848 C   0  0  2  0  0  0  0  0  0  0  0  0
   -1.0732    0.2509   -0.5894 O   0  0  0  0  0  0  0  0  0  0  0  0
   -1.4117   -1.0515   -0.5155 C   0  0  0  0  0  0  0  0  0  0  0  0
   -0.5340   -1.8358   -0.1711 O   0  0  0  0  0  0  0  0  0  0  0  0
   -2.6780   -1.8356   -0.7667 C   0  0  0  0  0  0  0  0  0  0  0  0
   -2.5601   -3.2394   -0.4080 C   0  0  2  0  0  0  0  0  0  0  0  0
   -3.7306   -4.0912   -0.7778 C   0  0  0  0  0  0  0  0  0  0  0  0
   -5.0117   -4.0201   -0.0698 C   0  0  2  0  0  0  0  0  0  0  0  0
   -5.9521   -5.1001   -0.6673 C   0  0  0  0  0  0  0  0  0  0  0  0
   -5.7293   -2.6872    0.0329 C   0  0  0  0  0  0  0  0  0  0  0  0
   -7.0477   -2.8566    0.7270 C   0  0  2  0  0  0  0  0  0  0  0  0
   -7.8517   -3.7154   -0.0606 O   0  0  0  0  0  0  0  0  0  0  0  0
   -7.8069   -1.6586    1.1102 C   0  0  2  0  0  0  0  0  0  0  0  0
   -8.8792   -2.1570    2.1548 C   0  0  0  0  0  0  0  0  0  0  0  0
   -8.6383   -1.0385    0.0482 C   0  0  1  0  0  0  0  0  0  0  0  0
   -9.4587   -0.0367    0.6786 O   0  0  0  0  0  0  0  0  0  0  0  0
  -10.7898   -0.2811    0.4314 C   0  0  0  0  0  0  0  0  0  0  0  0
   -7.8801   -0.3302   -0.9836 C   0  0  0  0  0  0  0  0  0  0  0  0
   -7.3363   -0.4423   -2.2764 C   0  0  0  0  0  0  0  0  0  0  0  0
   -6.7962    0.7285   -2.6170 O   0  0  0  0  0  0  0  0  0  0  0  0
   -6.9749    1.5314   -1.6276 C   0  0  0  0  0  0  0  0  0  0  0  0
   -7.6129    0.9567   -0.6266 N   0  0  0  0  0  0  0  0  0  0  0  0
   -6.7291    2.8829   -1.1891 C   0  0  0  0  0  0  0  0  0  0  0  0
   -7.1096    3.9623   -1.9999 C   0  0  0  0  0  0  0  0  0  0  0  0
   -6.7573    5.0582   -1.3212 O   0  0  0  0  0  0  0  0  0  0  0  0
   -6.2090    4.6875   -0.1942 C   0  0  0  0  0  0  0  0  0  0  0  0
   -6.1714    3.3514   -0.0716 N   0  0  0  0  0  0  0  0  0  0  0  0
   -5.7518    5.7257    0.6978 C   0  0  0  0  0  0  0  0  0  0  0  0
   -5.9590    6.8629    1.4073 C   0  0  0  0  0  0  0  0  0  0  0  0
   -4.7972    7.1091    2.0232 O   0  0  0  0  0  0  0  0  0  0  0  0
   -3.9167    6.2091    1.7350 C   0  0  0  0  0  0  0  0  0  0  0  0
   -4.5117    5.3529    0.9128 N   0  0  0  0  0  0  0  0  0  0  0  0
   -2.5440    5.7624    1.9502 C   0  0  0  0  0  0  0  0  0  0  0  0
   -2.1088    4.5154    1.9191 C   0  0  0  0  0  0  0  0  0  0  0  0
   -1.1154    3.4186    2.0052 C   0  0  0  0  0  0  0  0  0  0  0  0
   -1.0184    2.6441    0.6968 C   0  0  2  0  0  0  0  0  0  0  0  0
   -2.2182    2.1096    0.3206 O   0  0  0  0  0  0  0  0  0  0  0  0
   -2.8048    2.5819   -0.8125 C   0  0  0  0  0  0  0  0  0  0  0  0
    0.0354    1.5620    0.9619 C   0  0  1  0  0  0  0  0  0  0  0  0
   -0.4940    0.5957    1.9999 C   0  0  0  0  0  0  0  0  0  0  0  0
   -2.3220   -3.5309    0.9226 O   0  0  0  0  0  0  0  0  0  0  0  0
   -1.2432   -4.2515    1.2787 C   0  0  2  0  0  0  0  0  0  0  0  0
   -1.6265   -5.6133    1.7568 N   0  0  0  0  0  0  0  0  0  0  0  0
   -0.3616   -3.7014    2.1839 O   0  0  0  0  0  0  0  0  0  0  0  0
    2.2009    2.9080   -2.5942 O   0  0  0  0  0  0  0  0  0  0  0  0
    2.0598    4.2389   -2.2136 C   0  0  0  0  0  0  0  0  0  0  0  0
   11.5191    0.7488    1.3780 N   0  0  0  0  0  0  0  0  0  0  0  0
   11.3697    2.0571    2.0188 C   0  0  0  0  0  0  0  0  0  0  0  0
   12.7416   -0.0259    1.3134 C   0  0  0  0  0  0  0  0  0  0  0  0
   12.4642   -1.2416    1.9455 O   0  0  0  0  0  0  0  0  0  0  0  0
   10.3026    0.0774   -0.3401 H   0  0  0  0  0  0  0  0  0  0  0  0
    9.8268   -0.9089    2.1939 H   0  0  0  0  0  0  0  0  0  0  0  0
    8.8737   -2.8067    1.2101 H   0  0  0  0  0  0  0  0  0  0  0  0
    6.5600   -2.1251    1.9813 H   0  0  0  0  0  0  0  0  0  0  0  0
    7.2237   -0.3847    2.0646 H   0  0  0  0  0  0  0  0  0  0  0  0
    7.9318   -1.6936    2.9967 H   0  0  0  0  0  0  0  0  0  0  0  0
    8.7072   -2.2426   -1.0675 H   0  0  0  0  0  0  0  0  0  0  0  0
    6.2873   -4.5580   -1.2042 H   0  0  0  0  0  0  0  0  0  0  0  0
    8.0189   -4.4842   -0.7921 H   0  0  0  0  0  0  0  0  0  0  0  0
    7.3829   -3.6501   -2.2880 H   0  0  0  0  0  0  0  0  0  0  0  0
    8.3056    0.1388   -1.1714 H   0  0  0  0  0  0  0  0  0  0  0  0
    6.8444    0.0765   -3.0166 H   0  0  0  0  0  0  0  0  0  0  0  0
    6.1499   -1.5345   -2.4001 H   0  0  0  0  0  0  0  0  0  0  0  0
    7.8738   -1.4066   -2.8680 H   0  0  0  0  0  0  0  0  0  0  0  0
    4.7912   -1.2103   -0.9239 H   0  0  0  0  0  0  0  0  0  0  0  0
    4.9510   -0.8648    0.7641 H   0  0  0  0  0  0  0  0  0  0  0  0
    2.9735   -0.1223    0.0657 H   0  0  0  0  0  0  0  0  0  0  0  0
    3.8483    1.2425    0.7432 H   0  0  0  0  0  0  0  0  0  0  0  0
    3.4427    0.5532   -2.2226 H   0  0  0  0  0  0  0  0  0  0  0  0
    4.1118    2.9603   -2.6780 H   0  0  0  0  0  0  0  0  0  0  0  0
    4.8726    3.0223   -1.0927 H   0  0  0  0  0  0  0  0  0  0  0  0
    5.3966    1.7477   -2.2280 H   0  0  0  0  0  0  0  0  0  0  0  0
    2.1337    2.8702   -0.6213 H   0  0  0  0  0  0  0  0  0  0  0  0
    0.6674    0.9042   -2.3952 H   0  0  0  0  0  0  0  0  0  0  0  0
    0.1129    2.3340   -1.5760 H   0  0  0  0  0  0  0  0  0  0  0  0
    0.7822   -0.1940   -0.0526 H   0  0  0  0  0  0  0  0  0  0  0  0
   -2.7277   -1.7919   -1.9111 H   0  0  0  0  0  0  0  0  0  0  0  0
   -3.5152   -1.2322   -0.4586 H   0  0  0  0  0  0  0  0  0  0  0  0
   -1.6773   -3.6891   -0.9608 H   0  0  0  0  0  0  0  0  0  0  0  0
   -3.4197   -5.1817   -0.8560 H   0  0  0  0  0  0  0  0  0  0  0  0
   -3.9833   -3.8889   -1.8913 H   0  0  0  0  0  0  0  0  0  0  0  0
   -4.9117   -4.3737    1.0142 H   0  0  0  0  0  0  0  0  0  0  0  0
   -6.5746   -5.5486    0.1237 H   0  0  0  0  0  0  0  0  0  0  0  0
   -5.2257   -5.9321   -0.9399 H   0  0  0  0  0  0  0  0  0  0  0  0
   -6.4539   -4.7612   -1.5690 H   0  0  0  0  0  0  0  0  0  0  0  0
   -5.1243   -2.0815    0.7777 H   0  0  0  0  0  0  0  0  0  0  0  0
   -5.7465   -2.1919   -0.9334 H   0  0  0  0  0  0  0  0  0  0  0  0
   -6.8352   -3.4687    1.6498 H   0  0  0  0  0  0  0  0  0  0  0  0
   -8.1287   -3.2601   -0.8927 H   0  0  0  0  0  0  0  0  0  0  0  0
   -7.2048   -0.9349    1.6703 H   0  0  0  0  0  0  0  0  0  0  0  0
   -9.3801   -1.2439    2.4840 H   0  0  0  0  0  0  0  0  0  0  0  0
   -9.5504   -2.8680    1.6703 H   0  0  0  0  0  0  0  0  0  0  0  0
   -8.3135   -2.5820    3.0011 H   0  0  0  0  0  0  0  0  0  0  0  0
   -9.3291   -1.7478   -0.4340 H   0  0  0  0  0  0  0  0  0  0  0  0
  -11.0790   -1.2560    0.8167 H   0  0  0  0  0  0  0  0  0  0  0  0
  -11.3521    0.5559    0.9319 H   0  0  0  0  0  0  0  0  0  0  0  0
  -10.9996   -0.1726   -0.6568 H   0  0  0  0  0  0  0  0  0  0  0  0
   -7.4358   -1.4012   -2.7609 H   0  0  0  0  0  0  0  0  0  0  0  0
   -7.5955    3.9799   -2.9920 H   0  0  0  0  0  0  0  0  0  0  0  0
   -6.9723    7.2111    1.2605 H   0  0  0  0  0  0  0  0  0  0  0  0
   -1.9896    6.6960    2.1351 H   0  0  0  0  0  0  0  0  0  0  0  0
   -2.9935    3.8796    1.6985 H   0  0  0  0  0  0  0  0  0  0  0  0
   -1.3084    2.8242    2.8844 H   0  0  0  0  0  0  0  0  0  0  0  0
   -0.1280    3.9647    2.0624 H   0  0  0  0  0  0  0  0  0  0  0  0
   -0.7070    3.3956   -0.0393 H   0  0  0  0  0  0  0  0  0  0  0  0
   -2.1998    2.4417   -1.7086 H   0  0  0  0  0  0  0  0  0  0  0  0
   -2.9917    3.6894   -0.6802 H   0  0  0  0  0  0  0  0  0  0  0  0
   -3.8210    2.1745   -1.0007 H   0  0  0  0  0  0  0  0  0  0  0  0
    0.9572    1.9922    1.3933 H   0  0  0  0  0  0  0  0  0  0  0  0
   -1.4490    0.1215    1.7261 H   0  0  0  0  0  0  0  0  0  0  0  0
   -0.4604    0.9745    3.0332 H   0  0  0  0  0  0  0  0  0  0  0  0
    0.2589   -0.2483    2.0000 H   0  0  0  0  0  0  0  0  0  0  0  0
   -0.6613   -4.5034    0.3644 H   0  0  0  0  0  0  0  0  0  0  0  0
   -2.2989   -5.4881    2.5188 H   0  0  0  0  0  0  0  0  0  0  0  0
   -0.7320   -6.0658    2.0488 H   0  0  0  0  0  0  0  0  0  0  0  0
    0.5843   -3.7537    1.9483 H   0  0  0  0  0  0  0  0  0  0  0  0
    2.1211    4.8666   -3.1147 H   0  0  0  0  0  0  0  0  0  0  0  0
    2.8628    4.5125   -1.5193 H   0  0  0  0  0  0  0  0  0  0  0  0
    1.0479    4.3562   -1.7315 H   0  0  0  0  0  0  0  0  0  0  0  0
   12.1684    2.7131    1.6624 H   0  0  0  0  0  0  0  0  0  0  0  0
   10.3515    2.4092    1.7943 H   0  0  0  0  0  0  0  0  0  0  0  0
   11.4522    1.8930    3.1133 H   0  0  0  0  0  0  0  0  0  0  0  0
   13.0477   -0.1979    0.2711 H   0  0  0  0  0  0  0  0  0  0  0  0
   13.5922    0.4685    1.8323 H   0  0  0  0  0  0  0  0  0  0  0  0
   12.2098   -1.8777    1.2236 H   0  0  0  0  0  0  0  0  0  0  0  0
  1  2  2  0
  2  3  1  0
  3  4  1  0
  3  5  1  0
  5  6  1  0
  6  7  1  0
  5  8  1  0
  8  9  1  0
  8 10  1  0
 10 11  2  0
 10 12  1  0
 12 13  1  0
 13 14  1  0
 14 15  1  0
 14 16  1  0
 16 17  1  0
 17 18  1  0
 18 19  1  0
 19 20  1  0
 20 21  2  0
 20 22  1  0
 22 23  1  0
 23 24  1  0
 24 25  1  0
 25 26  1  0
 25 27  1  0
 27 28  1  0
 28 29  1  0
 28 30  1  0
 30 31  1  0
 30 32  1  0
 32 33  1  0
 33 34  1  0
 32 35  1  0
 35 36  2  0
 36 37  1  0
 37 38  1  0
 38 39  2  0
 38 40  1  0
 40 41  2  0
 41 42  1  0
 42 43  1  0
 43 44  2  0
 43 45  1  0
 45 46  2  0
 46 47  1  0
 47 48  1  0
 48 49  2  0
 48 50  1  0
 50 51  2  0
 51 52  1  0
 52 53  1  0
 53 54  1  0
 54 55  1  0
 53 56  1  0
 56 57  1  0
 23 58  1  0
 58 59  1  0
 59 60  1  0
 59 61  1  0
 16 62  1  0
 62 63  1  0
  1 64  1  0
 64 65  1  0
 64 66  1  0
 66 67  1  0
 56 18  1  0
 39 35  1  0
 44 40  1  0
 49 45  1  0
  1 68  1  0
  2 69  1  0
  3 70  1  1
  4 71  1  0
  4 72  1  0
  4 73  1  0
  5 74  1  6
  7 75  1  0
  7 76  1  0
  7 77  1  0
  8 78  1  6
  9 79  1  0
  9 80  1  0
  9 81  1  0
 12 82  1  0
 12 83  1  0
 13 84  1  0
 13 85  1  0
 14 86  1  6
 15 87  1  0
 15 88  1  0
 15 89  1  0
 16 90  1  1
 17 91  1  0
 17 92  1  0
 18 93  1  1
 22 94  1  0
 22 95  1  0
 23 96  1  6
 24 97  1  0
 24 98  1  0
 25 99  1  1
 26100  1  0
 26101  1  0
 26102  1  0
 27103  1  0
 27104  1  0
 28105  1  1
 29106  1  0
 30107  1  1
 31108  1  0
 31109  1  0
 31110  1  0
 32111  1  6
 34112  1  0
 34113  1  0
 34114  1  0
 36115  1  0
 41116  1  0
 46117  1  0
 50118  1  0
 51119  1  0
 52120  1  0
 52121  1  0
 53122  1  6
 55123  1  0
 55124  1  0
 55125  1  0
 56126  1  1
 57127  1  0
 57128  1  0
 57129  1  0
 59130  1  6
 60131  1  0
 60132  1  0
 61133  1  0
 63134  1  0
 63135  1  0
 63136  1  0
 65137  1  0
 65138  1  0
 65139  1  0
 66140  1  0
 66141  1  0
 67142  1  0
M  END
$$$$
