
     RDKit          3D

 60 64  0  0  0  0  0  0  0  0999 V2000
   -0.9010   -0.3282    2.2424 C   0  0  0  0  0  0  0  0  0  0  0  0
   -0.8473    0.1924    0.7703 C   0  0  2  0  0  0  0  0  0  0  0  0
    0.4399   -0.3966    0.2207 C   0  0  0  0  0  0  0  0  0  0  0  0
    1.5746    0.4252    0.2204 C   0  0  0  0  0  0  0  0  0  0  0  0
    2.8217   -0.1037   -0.1352 C   0  0  0  0  0  0  0  0  0  0  0  0
    4.0371    0.6922   -0.1947 C   0  0  0  0  0  0  0  0  0  0  0  0
    5.0122    0.4097    0.6033 C   0  0  0  0  0  0  0  0  0  0  0  0
    4.8859   -0.6365    1.5173 F   0  0  0  0  0  0  0  0  0  0  0  0
    6.2581    1.1427    0.6100 C   0  0  0  0  0  0  0  0  0  0  0  0
    7.2124    0.8171    1.7158 C   0  0  0  0  0  0  0  0  0  0  0  0
    8.3396    1.6164    1.5815 C   0  0  0  0  0  0  0  0  0  0  0  0
    8.6468    2.5139    0.7156 C   0  0  0  0  0  0  0  0  0  0  0  0
    9.8970    3.2849    0.5860 C   0  0  0  0  0  0  0  0  0  0  0  0
   10.9565    3.9311    0.4555 N   0  0  0  0  0  0  0  0  0  0  0  0
    7.6893    2.7782   -0.3295 C   0  0  0  0  0  0  0  0  0  0  0  0
    6.5872    2.0204   -0.2233 N   0  0  0  0  0  0  0  0  0  0  0  0
    2.8933   -1.4603   -0.4836 C   0  0  0  0  0  0  0  0  0  0  0  0
    1.7867   -2.2306   -0.4852 C   0  0  0  0  0  0  0  0  0  0  0  0
    0.5557   -1.7010   -0.1331 C   0  0  0  0  0  0  0  0  0  0  0  0
   -0.5355   -2.5140   -0.1949 F   0  0  0  0  0  0  0  0  0  0  0  0
   -0.5374    1.6348    0.9548 N   0  0  0  0  0  0  0  0  0  0  0  0
   -1.3929    2.4136    1.3698 C   0  0  0  0  0  0  0  0  0  0  0  0
   -1.2877    3.7948    1.6000 N   0  0  0  0  0  0  0  0  0  0  0  0
   -3.1043    1.7785    1.5960 S   0  0  0  0  0  0  0  0  0  0  0  0
   -3.2666    0.6424    0.2102 C   0  0  1  0  0  0  0  0  0  0  0  0
   -4.6127    0.2357   -0.2222 C   0  0  0  0  0  0  0  0  0  0  0  0
   -5.4168    1.2345   -0.3871 O   0  0  0  0  0  0  0  0  0  0  0  0
   -5.1323   -1.0216   -0.4766 N   0  0  0  0  0  0  0  0  0  0  0  0
   -6.5161   -1.0996   -1.0124 C   0  0  0  0  0  0  0  0  0  0  0  0
   -6.5100   -2.0894   -2.1504 C   0  0  0  0  0  0  0  0  0  0  0  0
   -5.1691   -2.4352   -2.7059 C   0  0  0  0  0  0  0  0  0  0  0  0
   -4.6309   -1.4033   -3.4619 F   0  0  0  0  0  0  0  0  0  0  0  0
   -4.1566   -2.8865   -1.6647 C   0  0  0  0  0  0  0  0  0  0  0  0
   -4.5591   -2.3232   -0.3086 C   0  0  0  0  0  0  0  0  0  0  0  0
   -2.3804    0.9430   -1.0356 C   0  0  0  0  0  0  0  0  0  0  0  0
   -2.0365   -0.1270   -0.0386 C   0  0  1  0  0  0  0  0  0  0  0  0
   -1.6876    0.2314    2.7977 H   0  0  0  0  0  0  0  0  0  0  0  0
   -1.1343   -1.3941    2.2744 H   0  0  0  0  0  0  0  0  0  0  0  0
    0.1004   -0.0476    2.6872 H   0  0  0  0  0  0  0  0  0  0  0  0
    1.5302    1.4711    0.4528 H   0  0  0  0  0  0  0  0  0  0  0  0
    4.0637    1.4772   -0.9171 H   0  0  0  0  0  0  0  0  0  0  0  0
    6.9425    0.1146    2.3829 H   0  0  0  0  0  0  0  0  0  0  0  0
    9.1280    1.3527    2.3855 H   0  0  0  0  0  0  0  0  0  0  0  0
    7.9403    3.4791   -1.0536 H   0  0  0  0  0  0  0  0  0  0  0  0
    3.8589   -1.8529   -0.7250 H   0  0  0  0  0  0  0  0  0  0  0  0
    1.8546   -3.2841   -0.7911 H   0  0  0  0  0  0  0  0  0  0  0  0
   -0.3518    4.1626    1.9597 H   0  0  0  0  0  0  0  0  0  0  0  0
   -2.0301    4.4714    1.4266 H   0  0  0  0  0  0  0  0  0  0  0  0
   -7.1294   -1.4793   -0.1851 H   0  0  0  0  0  0  0  0  0  0  0  0
   -6.8950   -0.1251   -1.3253 H   0  0  0  0  0  0  0  0  0  0  0  0
   -7.1278   -1.6350   -3.0004 H   0  0  0  0  0  0  0  0  0  0  0  0
   -7.0903   -2.9871   -1.8354 H   0  0  0  0  0  0  0  0  0  0  0  0
   -5.2966   -3.2679   -3.4195 H   0  0  0  0  0  0  0  0  0  0  0  0
   -4.1203   -3.9863   -1.6514 H   0  0  0  0  0  0  0  0  0  0  0  0
   -3.1954   -2.4616   -1.9541 H   0  0  0  0  0  0  0  0  0  0  0  0
   -3.8380   -2.4588    0.4778 H   0  0  0  0  0  0  0  0  0  0  0  0
   -5.4260   -3.0182    0.0033 H   0  0  0  0  0  0  0  0  0  0  0  0
   -2.7551    0.7540   -2.0248 H   0  0  0  0  0  0  0  0  0  0  0  0
   -1.8326    1.9327   -0.9455 H   0  0  0  0  0  0  0  0  0  0  0  0
   -2.1089   -1.1932   -0.3636 H   0  0  0  0  0  0  0  0  0  0  0  0
  2  1  1  1
  2  3  1  0
  3  4  2  0
  4  5  1  0
  5  6  1  0
  6  7  2  0
  7  8  1  0
  7  9  1  0
  9 10  2  0
 10 11  1  0
 11 12  2  0
 12 13  1  0
 13 14  3  0
 12 15  1  0
 15 16  2  0
  5 17  2  0
 17 18  1  0
 18 19  2  0
 19 20  1  0
  2 21  1  0
 21 22  2  0
 22 23  1  0
 22 24  1  0
 24 25  1  0
 25 26  1  6
 26 27  2  0
 26 28  1  0
 28 29  1  0
 29 30  1  0
 30 31  1  0
 31 32  1  0
 31 33  1  0
 33 34  1  0
 25 35  1  0
 35 36  1  0
 36  2  1  0
 19  3  1  0
 36 25  1  0
 16  9  1  0
 34 28  1  0
  1 37  1  0
  1 38  1  0
  1 39  1  0
  4 40  1  0
  6 41  1  0
 10 42  1  0
 11 43  1  0
 15 44  1  0
 17 45  1  0
 18 46  1  0
 23 47  1  0
 23 48  1  0
 29 49  1  0
 29 50  1  0
 30 51  1  0
 30 52  1  0
 31 53  1  0
 33 54  1  0
 33 55  1  0
 34 56  1  0
 34 57  1  0
 35 58  1  0
 35 59  1  0
 36 60  1  6
M  END
$$$$
