
     RDKit          3D

 73 78  0  0  0  0  0  0  0  0999 V2000
   -3.0593    7.1802    1.3506 C   0  0  0  0  0  0  0  0  0  0  0  0
   -2.4779    5.8961    1.5573 O   0  0  0  0  0  0  0  0  0  0  0  0
   -1.9102    5.1931    0.4853 C   0  0  0  0  0  0  0  0  0  0  0  0
   -1.3643    3.9688    0.7259 C   0  0  0  0  0  0  0  0  0  0  0  0
   -0.7984    3.2485   -0.2956 C   0  0  0  0  0  0  0  0  0  0  0  0
   -0.2094    1.9702   -0.1006 N   0  0  0  0  0  0  0  0  0  0  0  0
    1.1734    1.7225    0.2250 C   0  0  0  0  0  0  0  0  0  0  0  0
    1.9396    2.6034    0.7297 O   0  0  0  0  0  0  0  0  0  0  0  0
    1.5381    0.3827   -0.0948 N   0  0  0  0  0  0  0  0  0  0  0  0
    2.8006   -0.2482    0.0808 C   0  0  0  0  0  0  0  0  0  0  0  0
    3.7999   -0.2415   -0.8667 C   0  0  0  0  0  0  0  0  0  0  0  0
    5.0276   -0.8490   -0.7197 C   0  0  0  0  0  0  0  0  0  0  0  0
    5.2979   -1.5157    0.4466 C   0  0  0  0  0  0  0  0  0  0  0  0
    6.5671   -2.1894    0.6643 C   0  0  0  0  0  0  0  0  0  0  0  0
    7.4035   -1.8140    1.7150 C   0  0  0  0  0  0  0  0  0  0  0  0
    8.6360   -2.3953    1.9245 C   0  0  0  0  0  0  0  0  0  0  0  0
    9.0750   -3.3776    1.0840 C   0  0  0  0  0  0  0  0  0  0  0  0
    8.2725   -3.7603    0.0508 C   0  0  0  0  0  0  0  0  0  0  0  0
    7.0173   -3.1813   -0.1761 C   0  0  0  0  0  0  0  0  0  0  0  0
    6.2354   -3.7138   -1.2685 C   0  0  0  0  0  0  0  0  0  0  0  0
    6.7641   -4.6031   -2.0056 O   0  0  0  0  0  0  0  0  0  0  0  0
    4.9441   -3.3542   -1.6040 O   0  0  0  0  0  0  0  0  0  0  0  0
    4.3252   -1.5487    1.4256 C   0  0  0  0  0  0  0  0  0  0  0  0
    3.1014   -0.9353    1.2630 C   0  0  0  0  0  0  0  0  0  0  0  0
    0.3351   -0.1925   -0.6302 C   0  0  0  0  0  0  0  0  0  0  0  0
    0.2590   -1.2111   -1.3422 O   0  0  0  0  0  0  0  0  0  0  0  0
   -0.8163    0.6550   -0.1772 C   0  0  0  0  0  0  0  0  0  0  0  0
   -1.2732    0.1250    1.1371 C   0  0  0  0  0  0  0  0  0  0  0  0
   -2.7130   -0.4098    0.9408 C   0  0  0  0  0  0  0  0  0  0  0  0
   -2.6941   -1.3724   -0.0900 N   0  0  0  0  0  0  0  0  0  0  0  0
   -3.7401   -2.3356   -0.1556 C   0  0  0  0  0  0  0  0  0  0  0  0
   -5.0563   -1.8753   -0.6071 C   0  0  0  0  0  0  0  0  0  0  0  0
   -5.3856   -2.0504   -1.9231 N   0  0  0  0  0  0  0  0  0  0  0  0
   -6.5414   -1.6461   -2.4435 C   0  0  0  0  0  0  0  0  0  0  0  0
   -7.4754   -1.0188   -1.6545 C   0  0  0  0  0  0  0  0  0  0  0  0
   -7.1719   -0.8320   -0.3365 C   0  0  0  0  0  0  0  0  0  0  0  0
   -5.9625   -1.2581    0.1985 C   0  0  0  0  0  0  0  0  0  0  0  0
   -5.7446   -1.0345    1.6567 C   0  0  0  0  0  0  0  0  0  0  0  0
   -2.4902   -0.7218   -1.3798 C   0  0  0  0  0  0  0  0  0  0  0  0
   -1.8796    0.6216   -1.2199 C   0  0  0  0  0  0  0  0  0  0  0  0
   -0.8223    3.8305   -1.5322 N   0  0  0  0  0  0  0  0  0  0  0  0
   -1.3627    5.0367   -1.7579 C   0  0  0  0  0  0  0  0  0  0  0  0
   -1.9122    5.7328   -0.7571 N   0  0  0  0  0  0  0  0  0  0  0  0
   -2.5178    7.8735    2.0474 H   0  0  0  0  0  0  0  0  0  0  0  0
   -4.1136    7.1110    1.6777 H   0  0  0  0  0  0  0  0  0  0  0  0
   -2.9414    7.4958    0.2901 H   0  0  0  0  0  0  0  0  0  0  0  0
   -1.3415    3.4944    1.7169 H   0  0  0  0  0  0  0  0  0  0  0  0
    3.5950    0.2888   -1.8052 H   0  0  0  0  0  0  0  0  0  0  0  0
    5.7781   -0.7849   -1.5336 H   0  0  0  0  0  0  0  0  0  0  0  0
    7.0764   -1.0397    2.3915 H   0  0  0  0  0  0  0  0  0  0  0  0
    9.2757   -2.0903    2.7497 H   0  0  0  0  0  0  0  0  0  0  0  0
   10.0500   -3.8720    1.2079 H   0  0  0  0  0  0  0  0  0  0  0  0
    8.6418   -4.5502   -0.6133 H   0  0  0  0  0  0  0  0  0  0  0  0
    4.7383   -3.1384   -2.5925 H   0  0  0  0  0  0  0  0  0  0  0  0
    4.4876   -2.0647    2.3736 H   0  0  0  0  0  0  0  0  0  0  0  0
    2.3380   -0.9593    2.0277 H   0  0  0  0  0  0  0  0  0  0  0  0
   -0.6378   -0.7067    1.4934 H   0  0  0  0  0  0  0  0  0  0  0  0
   -1.3063    0.8666    1.9427 H   0  0  0  0  0  0  0  0  0  0  0  0
   -2.9994   -0.8552    1.9304 H   0  0  0  0  0  0  0  0  0  0  0  0
   -3.3411    0.4556    0.7048 H   0  0  0  0  0  0  0  0  0  0  0  0
   -3.3886   -3.1404   -0.8586 H   0  0  0  0  0  0  0  0  0  0  0  0
   -3.7920   -2.8361    0.8381 H   0  0  0  0  0  0  0  0  0  0  0  0
   -6.7848   -1.7982   -3.5092 H   0  0  0  0  0  0  0  0  0  0  0  0
   -8.4081   -0.7002   -2.1085 H   0  0  0  0  0  0  0  0  0  0  0  0
   -7.9005   -0.3366    0.3005 H   0  0  0  0  0  0  0  0  0  0  0  0
   -5.3983   -0.0253    1.9051 H   0  0  0  0  0  0  0  0  0  0  0  0
   -5.1476   -1.8542    2.1051 H   0  0  0  0  0  0  0  0  0  0  0  0
   -6.7659   -1.1111    2.1389 H   0  0  0  0  0  0  0  0  0  0  0  0
   -3.5099   -0.6048   -1.8260 H   0  0  0  0  0  0  0  0  0  0  0  0
   -1.9503   -1.3909   -2.0644 H   0  0  0  0  0  0  0  0  0  0  0  0
   -2.6280    1.4273   -1.0459 H   0  0  0  0  0  0  0  0  0  0  0  0
   -1.3906    0.8908   -2.1996 H   0  0  0  0  0  0  0  0  0  0  0  0
   -1.3693    5.4739   -2.7404 H   0  0  0  0  0  0  0  0  0  0  0  0
  1  2  1  0
  2  3  1  0
  3  4  2  0
  4  5  1  0
  5  6  1  0
  6  7  1  0
  7  8  2  0
  7  9  1  0
  9 10  1  0
 10 11  2  0
 11 12  1  0
 12 13  2  0
 13 14  1  0
 14 15  2  0
 15 16  1  0
 16 17  2  0
 17 18  1  0
 18 19  2  0
 19 20  1  0
 20 21  2  0
 20 22  1  0
 13 23  1  0
 23 24  2  0
  9 25  1  0
 25 26  2  0
 25 27  1  0
 27 28  1  0
 28 29  1  0
 29 30  1  0
 30 31  1  0
 31 32  1  0
 32 33  2  0
 33 34  1  0
 34 35  2  0
 35 36  1  0
 36 37  2  0
 37 38  1  0
 30 39  1  0
 39 40  1  0
  5 41  2  0
 41 42  1  0
 42 43  2  0
 43  3  1  0
 27  6  1  0
 37 32  1  0
 24 10  1  0
 40 27  1  0
 19 14  1  0
  1 44  1  0
  1 45  1  0
  1 46  1  0
  4 47  1  0
 11 48  1  0
 12 49  1  0
 15 50  1  0
 16 51  1  0
 17 52  1  0
 18 53  1  0
 22 54  1  0
 23 55  1  0
 24 56  1  0
 28 57  1  0
 28 58  1  0
 29 59  1  0
 29 60  1  0
 31 61  1  0
 31 62  1  0
 34 63  1  0
 35 64  1  0
 36 65  1  0
 38 66  1  0
 38 67  1  0
 38 68  1  0
 39 69  1  0
 39 70  1  0
 40 71  1  0
 40 72  1  0
 42 73  1  0
M  END
$$$$
