
     RDKit          3D

 37 37  0  0  0  0  0  0  0  0999 V2000
    4.6271   -2.3676    0.2458 C   0  0  0  0  0  0  0  0  0  0  0  0
    3.4215   -2.2853    1.1702 C   0  0  0  0  0  0  0  0  0  0  0  0
    2.5906   -1.1134    0.8588 C   0  0  0  0  0  0  0  0  0  0  0  0
    1.9041   -0.1558    0.5923 C   0  0  0  0  0  0  0  0  0  0  0  0
    1.0781    1.0280    0.2481 C   0  0  0  0  0  0  0  0  0  0  0  0
    1.6449    1.7924   -0.9278 C   0  0  0  0  0  0  0  0  0  0  0  0
   -0.3273    0.5998    0.0011 C   0  0  0  0  0  0  0  0  0  0  0  0
   -0.4413   -0.3950   -1.1390 C   0  0  0  0  0  0  0  0  0  0  0  0
   -1.8907   -0.7411   -1.2823 C   0  0  0  0  0  0  0  0  0  0  0  0
   -2.2463   -2.0119   -1.1288 C   0  0  0  0  0  0  0  0  0  0  0  0
   -0.8461    0.0165    1.2694 C   0  0  0  0  0  0  0  0  0  0  0  0
   -0.0479   -0.4365    2.1364 O   0  0  0  0  0  0  0  0  0  0  0  0
   -2.2351   -0.0568    1.5584 N   0  0  0  0  0  0  0  0  0  0  0  0
   -3.1168    0.8356    0.8935 C   0  0  0  0  0  0  0  0  0  0  0  0
   -4.3514    0.7966    1.1269 O   0  0  0  0  0  0  0  0  0  0  0  0
   -2.5636    1.7795   -0.0480 N   0  0  0  0  0  0  0  0  0  0  0  0
   -3.4737    2.7013   -0.7350 C   0  0  0  0  0  0  0  0  0  0  0  0
   -1.1504    1.7929   -0.2869 C   0  0  0  0  0  0  0  0  0  0  0  0
   -0.7616    2.9167   -0.7508 O   0  0  0  0  0  0  0  0  0  0  0  0
    4.3407   -2.7196   -0.7568 H   0  0  0  0  0  0  0  0  0  0  0  0
    5.0051   -1.3204    0.1463 H   0  0  0  0  0  0  0  0  0  0  0  0
    5.4051   -2.9841    0.7286 H   0  0  0  0  0  0  0  0  0  0  0  0
    3.8430   -2.1340    2.1916 H   0  0  0  0  0  0  0  0  0  0  0  0
    2.7858   -3.2013    1.1059 H   0  0  0  0  0  0  0  0  0  0  0  0
    1.0705    1.7137    1.1196 H   0  0  0  0  0  0  0  0  0  0  0  0
    1.0018    1.8117   -1.8133 H   0  0  0  0  0  0  0  0  0  0  0  0
    2.5855    1.2495   -1.2251 H   0  0  0  0  0  0  0  0  0  0  0  0
    1.9717    2.8205   -0.6257 H   0  0  0  0  0  0  0  0  0  0  0  0
   -0.0420    0.0778   -2.0531 H   0  0  0  0  0  0  0  0  0  0  0  0
    0.1610   -1.3001   -0.9308 H   0  0  0  0  0  0  0  0  0  0  0  0
   -2.9449   -0.9352   -1.3956 H   0  0  0  0  0  0  0  0  0  0  0  0
   -1.6593   -2.9083   -0.9059 H   0  0  0  0  0  0  0  0  0  0  0  0
   -1.6432   -2.9059   -0.9041 H   0  0  0  0  0  0  0  0  0  0  0  0
   -2.5506   -0.7608    2.2451 H   0  0  0  0  0  0  0  0  0  0  0  0
   -4.4228    2.7305   -0.1769 H   0  0  0  0  0  0  0  0  0  0  0  0
   -3.0097    3.7067   -0.8266 H   0  0  0  0  0  0  0  0  0  0  0  0
   -3.7119    2.3633   -1.7660 H   0  0  0  0  0  0  0  0  0  0  0  0
  1  2  1  0
  2  3  1  0
  3  4  3  0
  4  5  1  0
  5  6  1  0
  5  7  1  0
  7  8  1  0
  8  9  1  0
  9 10  2  0
  7 11  1  0
 11 12  2  0
 11 13  1  0
 13 14  1  0
 14 15  2  0
 14 16  1  0
 16 17  1  0
 16 18  1  0
 18 19  2  0
 18  7  1  0
  1 20  1  0
  1 21  1  0
  1 22  1  0
  2 23  1  0
  2 24  1  0
  5 25  1  0
  6 26  1  0
  6 27  1  0
  6 28  1  0
  8 29  1  0
  8 30  1  0
  9 31  1  0
 10 32  1  0
 10 33  1  0
 13 34  1  0
 17 35  1  0
 17 36  1  0
 17 37  1  0
M  END
$$$$
