
     RDKit          3D

 59 61  0  0  0  0  0  0  0  0999 V2000
   -5.7831   -3.0840    0.2927 C   0  0  0  0  0  0  0  0  0  0  0  0
   -5.4254   -2.1206   -0.8122 C   0  0  0  0  0  0  0  0  0  0  0  0
   -4.2196   -1.2938   -0.4924 C   0  0  0  0  0  0  0  0  0  0  0  0
   -2.7980   -2.3220   -0.2195 S   0  0  0  0  0  6  0  0  0  0  0  0
   -3.0946   -3.1745    0.9808 O   0  0  0  0  0  0  0  0  0  0  0  0
   -2.5409   -3.2419   -1.3764 O   0  0  0  0  0  0  0  0  0  0  0  0
   -1.4083   -1.3714    0.1475 N   0  0  0  0  0  0  0  0  0  0  0  0
   -1.0433   -0.4881   -0.9010 C   0  0  0  0  0  0  0  0  0  0  0  0
   -0.5056    0.8376   -0.5389 C   0  0  0  0  0  0  0  0  0  0  0  0
    0.1434    0.9793    0.8075 C   0  0  0  0  0  0  0  0  0  0  0  0
    1.6402    0.8374    0.6163 C   0  0  0  0  0  0  0  0  0  0  0  0
    2.0642   -0.4040    0.0762 N   0  0  0  0  0  0  0  0  0  0  0  0
    3.4426   -0.6288   -0.1506 C   0  0  0  0  0  0  0  0  0  0  0  0
    4.2600    0.3099    0.1446 O   0  0  0  0  0  0  0  0  0  0  0  0
    3.9966   -1.8338   -0.6888 C   0  0  0  0  0  0  0  0  0  0  0  0
    4.6767   -1.8446   -1.8852 C   0  0  0  0  0  0  0  0  0  0  0  0
    5.2116   -3.0220   -2.4015 C   0  0  0  0  0  0  0  0  0  0  0  0
    5.0594   -4.1997   -1.7048 C   0  0  0  0  0  0  0  0  0  0  0  0
    5.7444   -5.6629   -2.3824 Cl  0  0  0  0  0  0  0  0  0  0  0  0
    4.3802   -4.1842   -0.5117 C   0  0  0  0  0  0  0  0  0  0  0  0
    3.8468   -3.0151    0.0051 C   0  0  0  0  0  0  0  0  0  0  0  0
    3.0017   -3.1193    1.5348 Cl  0  0  0  0  0  0  0  0  0  0  0  0
   -0.0746    2.4178    1.2011 C   0  0  0  0  0  0  0  0  0  0  0  0
   -1.2020    2.7499    1.9014 C   0  0  0  0  0  0  0  0  0  0  0  0
   -1.3656    4.0765    2.2357 C   0  0  0  0  0  0  0  0  0  0  0  0
   -0.4270    5.0240    1.8755 C   0  0  0  0  0  0  0  0  0  0  0  0
    0.7154    4.6579    1.1607 C   0  0  0  0  0  0  0  0  0  0  0  0
    1.6022    5.5113    0.8122 O   0  0  0  0  0  0  0  0  0  0  0  0
    2.5496    6.3060    0.4191 C   0  0  0  0  0  0  0  0  0  0  0  0
    0.8306    3.3346    0.8545 N   0  0  0  0  0  0  0  0  0  0  0  0
   -0.3817    0.0464    1.8517 C   0  0  0  0  0  0  0  0  0  0  0  0
   -1.5771   -0.7401    1.4282 C   0  0  0  0  0  0  0  0  0  0  0  0
   -6.8875   -3.1798    0.3093 H   0  0  0  0  0  0  0  0  0  0  0  0
   -5.2841   -4.0667    0.1855 H   0  0  0  0  0  0  0  0  0  0  0  0
   -5.4832   -2.6040    1.2520 H   0  0  0  0  0  0  0  0  0  0  0  0
   -5.2990   -2.6745   -1.7576 H   0  0  0  0  0  0  0  0  0  0  0  0
   -6.2836   -1.4247   -0.9663 H   0  0  0  0  0  0  0  0  0  0  0  0
   -4.3984   -0.7399    0.4557 H   0  0  0  0  0  0  0  0  0  0  0  0
   -4.0691   -0.5785   -1.3216 H   0  0  0  0  0  0  0  0  0  0  0  0
   -0.4120   -1.0241   -1.6666 H   0  0  0  0  0  0  0  0  0  0  0  0
   -2.0012   -0.3076   -1.4930 H   0  0  0  0  0  0  0  0  0  0  0  0
   -1.2912    1.6291   -0.6916 H   0  0  0  0  0  0  0  0  0  0  0  0
    0.2527    1.1016   -1.3441 H   0  0  0  0  0  0  0  0  0  0  0  0
    2.0461    1.6520   -0.0138 H   0  0  0  0  0  0  0  0  0  0  0  0
    2.1503    0.9415    1.6185 H   0  0  0  0  0  0  0  0  0  0  0  0
    1.3924   -1.1517   -0.1519 H   0  0  0  0  0  0  0  0  0  0  0  0
    4.8300   -0.9552   -2.4794 H   0  0  0  0  0  0  0  0  0  0  0  0
    5.7499   -3.0024   -3.3591 H   0  0  0  0  0  0  0  0  0  0  0  0
    4.2591   -5.0923    0.0323 H   0  0  0  0  0  0  0  0  0  0  0  0
   -1.8918    1.9735    2.1510 H   0  0  0  0  0  0  0  0  0  0  0  0
   -2.2589    4.3429    2.7915 H   0  0  0  0  0  0  0  0  0  0  0  0
   -0.6039    6.0379    2.1605 H   0  0  0  0  0  0  0  0  0  0  0  0
    2.3432    6.7306   -0.6168 H   0  0  0  0  0  0  0  0  0  0  0  0
    2.6980    7.1999    1.0960 H   0  0  0  0  0  0  0  0  0  0  0  0
    3.5592    5.8231    0.2711 H   0  0  0  0  0  0  0  0  0  0  0  0
    0.4060   -0.7167    2.1352 H   0  0  0  0  0  0  0  0  0  0  0  0
   -0.6194    0.5411    2.8253 H   0  0  0  0  0  0  0  0  0  0  0  0
   -1.6931   -1.5782    2.1768 H   0  0  0  0  0  0  0  0  0  0  0  0
   -2.5292   -0.2144    1.4228 H   0  0  0  0  0  0  0  0  0  0  0  0
  1  2  1  0
  2  3  1  0
  3  4  1  0
  4  5  2  0
  4  6  2  0
  4  7  1  0
  7  8  1  0
  8  9  1  0
  9 10  1  0
 10 11  1  0
 11 12  1  0
 12 13  1  0
 13 14  2  0
 13 15  1  0
 15 16  2  0
 16 17  1  0
 17 18  2  0
 18 19  1  0
 18 20  1  0
 20 21  2  0
 21 22  1  0
 10 23  1  0
 23 24  2  0
 24 25  1  0
 25 26  2  0
 26 27  1  0
 27 28  1  0
 28 29  1  0
 27 30  2  0
 10 31  1  0
 31 32  1  0
 32  7  1  0
 21 15  1  0
 30 23  1  0
  1 33  1  0
  1 34  1  0
  1 35  1  0
  2 36  1  0
  2 37  1  0
  3 38  1  0
  3 39  1  0
  8 40  1  0
  8 41  1  0
  9 42  1  0
  9 43  1  0
 11 44  1  0
 11 45  1  0
 12 46  1  0
 16 47  1  0
 17 48  1  0
 20 49  1  0
 24 50  1  0
 25 51  1  0
 26 52  1  0
 29 53  1  0
 29 54  1  0
 29 55  1  0
 31 56  1  0
 31 57  1  0
 32 58  1  0
 32 59  1  0
M  END
$$$$
