
     RDKit          3D

 51 55  0  0  0  0  0  0  0  0999 V2000
   -0.1554   -2.4907    2.0858 C   0  0  0  0  0  0  0  0  0  0  0  0
   -1.2934   -1.7049    1.5535 C   0  0  0  0  0  0  0  0  0  0  0  0
   -2.6172   -2.1515    1.6974 C   0  0  0  0  0  0  0  0  0  0  0  0
   -2.8704   -3.3186    2.3314 F   0  0  0  0  0  0  0  0  0  0  0  0
   -3.6221   -1.3683    1.1773 C   0  0  0  0  0  0  0  0  0  0  0  0
   -3.3914   -0.1787    0.5288 C   0  0  0  0  0  0  0  0  0  0  0  0
   -4.4555    0.6550   -0.0244 C   0  0  0  0  0  0  0  0  0  0  0  0
   -4.1102    1.7267   -0.5976 O   0  0  0  0  0  0  0  0  0  0  0  0
   -5.8248    0.3232    0.0514 N   0  0  0  0  0  0  0  0  0  0  0  0
   -6.8854    1.1474   -0.4963 C   0  0  0  0  0  0  0  0  0  0  0  0
   -8.2523    1.0704    0.0854 C   0  0  0  0  0  0  0  0  0  0  0  0
   -7.9686    0.3816   -1.2150 C   0  0  0  0  0  0  0  0  0  0  0  0
   -2.0505    0.2248    0.4104 C   0  0  0  0  0  0  0  0  0  0  0  0
   -1.0199   -0.5240    0.9133 C   0  0  0  0  0  0  0  0  0  0  0  0
    0.3537   -0.0911    0.7812 C   0  0  0  0  0  0  0  0  0  0  0  0
    1.0112    0.6873    1.6844 C   0  0  0  0  0  0  0  0  0  0  0  0
    2.3277    1.0220    1.4221 C   0  0  0  0  0  0  0  0  0  0  0  0
    3.2071    1.7521    2.1040 N   0  0  0  0  0  0  0  0  0  0  0  0
    4.3481    1.7873    1.4455 N   0  0  0  0  0  0  0  0  0  0  0  0
    4.2288    1.0744    0.3143 C   0  0  0  0  0  0  0  0  0  0  0  0
    5.3200    0.9190   -0.6355 C   0  0  0  0  0  0  0  0  0  0  0  0
    5.5085    1.8051   -1.6779 C   0  0  0  0  0  0  0  0  0  0  0  0
    4.6344    2.8589   -1.8300 F   0  0  0  0  0  0  0  0  0  0  0  0
    6.5580    1.6366   -2.5544 C   0  0  0  0  0  0  0  0  0  0  0  0
    7.4497    0.5889   -2.4256 C   0  0  0  0  0  0  0  0  0  0  0  0
    7.2535   -0.2903   -1.3821 C   0  0  0  0  0  0  0  0  0  0  0  0
    6.2073   -0.1296   -0.5013 C   0  0  0  0  0  0  0  0  0  0  0  0
    6.0155   -1.3001    0.8191 Cl  0  0  0  0  0  0  0  0  0  0  0  0
    2.9783    0.6020    0.3020 N   0  0  0  0  0  0  0  0  0  0  0  0
    2.3466   -0.1519   -0.5758 N   0  0  0  0  0  0  0  0  0  0  0  0
    3.0182   -0.6230   -1.7949 C   0  0  0  0  0  0  0  0  0  0  0  0
    1.0846   -0.4821   -0.3404 C   0  0  0  0  0  0  0  0  0  0  0  0
    0.4852   -1.2092   -1.1932 O   0  0  0  0  0  0  0  0  0  0  0  0
    0.7659   -2.3215    1.5256 H   0  0  0  0  0  0  0  0  0  0  0  0
   -0.4363   -3.5832    2.1150 H   0  0  0  0  0  0  0  0  0  0  0  0
   -0.0085   -2.2200    3.1727 H   0  0  0  0  0  0  0  0  0  0  0  0
   -4.6381   -1.7048    1.2842 H   0  0  0  0  0  0  0  0  0  0  0  0
   -6.0992   -0.5591    0.5240 H   0  0  0  0  0  0  0  0  0  0  0  0
   -6.6071    2.0972   -1.0065 H   0  0  0  0  0  0  0  0  0  0  0  0
   -8.4250    0.4826    1.0054 H   0  0  0  0  0  0  0  0  0  0  0  0
   -8.8771    1.9768    0.0014 H   0  0  0  0  0  0  0  0  0  0  0  0
   -7.9881   -0.7242   -1.1582 H   0  0  0  0  0  0  0  0  0  0  0  0
   -8.3939    0.7890   -2.1553 H   0  0  0  0  0  0  0  0  0  0  0  0
   -1.8543    1.1477   -0.0913 H   0  0  0  0  0  0  0  0  0  0  0  0
    0.4889    1.0154    2.5682 H   0  0  0  0  0  0  0  0  0  0  0  0
    6.6800    2.3520   -3.3661 H   0  0  0  0  0  0  0  0  0  0  0  0
    8.2570    0.4910   -3.1305 H   0  0  0  0  0  0  0  0  0  0  0  0
    7.9506   -1.1096   -1.2812 H   0  0  0  0  0  0  0  0  0  0  0  0
    3.2858    0.1875   -2.4741 H   0  0  0  0  0  0  0  0  0  0  0  0
    2.2684   -1.2436   -2.3709 H   0  0  0  0  0  0  0  0  0  0  0  0
    3.8111   -1.3218   -1.5199 H   0  0  0  0  0  0  0  0  0  0  0  0
  1  2  1  0
  2  3  2  0
  3  4  1  0
  3  5  1  0
  5  6  2  0
  6  7  1  0
  7  8  2  0
  7  9  1  0
  9 10  1  0
 10 11  1  0
 11 12  1  0
  6 13  1  0
 13 14  2  0
 14 15  1  0
 15 16  2  0
 16 17  1  0
 17 18  2  0
 18 19  1  0
 19 20  2  0
 20 21  1  0
 21 22  2  0
 22 23  1  0
 22 24  1  0
 24 25  2  0
 25 26  1  0
 26 27  2  0
 27 28  1  0
 20 29  1  0
 29 30  1  0
 30 31  1  0
 30 32  1  0
 32 33  2  0
 14  2  1  0
 32 15  1  0
 12 10  1  0
 29 17  1  0
 27 21  1  0
  1 34  1  0
  1 35  1  0
  1 36  1  0
  5 37  1  0
  9 38  1  0
 10 39  1  0
 11 40  1  0
 11 41  1  0
 12 42  1  0
 12 43  1  0
 13 44  1  0
 16 45  1  0
 24 46  1  0
 25 47  1  0
 26 48  1  0
 31 49  1  0
 31 50  1  0
 31 51  1  0
M  END
$$$$
