
     RDKit          3D

 97 98  0  0  0  0  0  0  0  0999 V2000
   -5.9940    2.6844   -2.3515 C   0  0  0  0  0  0  0  0  0  0  0  0
   -5.3778    3.3347   -1.1438 C   0  0  0  0  0  0  0  0  0  0  0  0
   -5.2700    2.4196    0.0483 C   0  0  2  0  0  0  0  0  0  0  0  0
   -4.6563    3.1175    1.2357 C   0  0  0  0  0  0  0  0  0  0  0  0
   -4.5531    1.1154   -0.2486 C   0  0  2  0  0  0  0  0  0  0  0  0
   -4.5600    0.3846    1.0095 N   0  0  0  0  0  0  0  0  0  0  0  0
   -5.4338   -0.7271    1.1451 C   0  0  0  0  0  0  0  0  0  0  0  0
   -6.1646   -1.0271    0.1615 O   0  0  0  0  0  0  0  0  0  0  0  0
   -5.5437   -1.4961    2.2608 O   0  0  0  0  0  0  0  0  0  0  0  0
   -6.3716   -2.6002    2.4923 C   0  0  0  0  0  0  0  0  0  0  0  0
   -6.1829   -3.7417    1.5881 C   0  0  0  0  0  0  0  0  0  0  0  0
   -6.9356   -3.9189    0.4564 C   0  0  0  0  0  0  0  0  0  0  0  0
   -6.6855   -5.0169   -0.3417 C   0  0  0  0  0  0  0  0  0  0  0  0
   -5.7052   -5.9312   -0.0283 C   0  0  0  0  0  0  0  0  0  0  0  0
   -4.9514   -5.7423    1.1178 C   0  0  0  0  0  0  0  0  0  0  0  0
   -5.2020   -4.6500    1.9082 C   0  0  0  0  0  0  0  0  0  0  0  0
   -3.2213    1.2636   -0.8151 C   0  0  0  0  0  0  0  0  0  0  0  0
   -3.0727    1.8357   -1.9178 O   0  0  0  0  0  0  0  0  0  0  0  0
   -1.9997    0.7986   -0.2112 N   0  0  0  0  0  0  0  0  0  0  0  0
   -0.7209    0.9842   -0.8492 C   0  0  1  0  0  0  0  0  0  0  0  0
    0.0463    2.0506   -0.0482 C   0  0  0  0  0  0  0  0  0  0  0  0
   -0.8207    3.3020   -0.1133 C   0  0  0  0  0  0  0  0  0  0  0  0
   -0.2348    4.4266    0.6110 C   0  0  0  0  0  0  0  0  0  0  0  0
    0.6123    5.2986   -0.0354 C   0  0  0  0  0  0  0  0  0  0  0  0
    1.1673    6.3716    0.6583 C   0  0  0  0  0  0  0  0  0  0  0  0
    0.8795    6.5735    1.9851 C   0  0  0  0  0  0  0  0  0  0  0  0
    0.0371    5.7000    2.6138 C   0  0  0  0  0  0  0  0  0  0  0  0
   -0.5304    4.6189    1.9412 C   0  0  0  0  0  0  0  0  0  0  0  0
    0.0851   -0.2669   -0.9308 C   0  0  0  0  0  0  0  0  0  0  0  0
   -0.3458   -1.3365   -0.4342 O   0  0  0  0  0  0  0  0  0  0  0  0
    1.3549   -0.2490   -1.5783 N   0  0  0  0  0  0  0  0  0  0  0  0
    2.1020   -1.4926   -1.6269 C   0  0  1  0  0  0  0  0  0  0  0  0
    2.2523   -1.8404   -3.0896 C   0  0  0  0  0  0  0  0  0  0  0  0
    3.4360   -1.3553   -1.0267 C   0  0  0  0  0  0  0  0  0  0  0  0
    3.8410   -0.2533   -0.5273 O   0  0  0  0  0  0  0  0  0  0  0  0
    4.3221   -2.4638   -0.9829 N   0  0  0  0  0  0  0  0  0  0  0  0
    5.6426   -2.4063   -0.3946 C   0  0  2  0  0  0  0  0  0  0  0  0
    5.6013   -2.5076    1.0735 C   0  0  0  0  0  0  0  0  0  0  0  0
    6.6977   -2.5319    1.8025 C   0  0  0  0  0  0  0  0  0  0  0  0
    6.6190   -2.6544    3.5702 S   0  0  0  0  0  6  0  0  0  0  0  0
    6.3017   -1.0695    4.3030 C   0  0  0  0  0  0  0  0  0  0  0  0
    7.8777   -3.2480    4.0970 O   0  0  0  0  0  0  0  0  0  0  0  0
    5.4855   -3.5932    3.9162 O   0  0  0  0  0  0  0  0  0  0  0  0
    6.5231   -1.3074   -0.9130 C   0  0  0  0  0  0  0  0  0  0  0  0
    6.8409   -1.3831   -2.3758 C   0  0  0  0  0  0  0  0  0  0  0  0
    5.6787   -1.3379   -3.3039 C   0  0  0  0  0  0  0  0  0  0  0  0
    7.7782   -0.2108   -2.6958 C   0  0  0  0  0  0  0  0  0  0  0  0
   -6.9026    3.2949   -2.6406 H   0  0  0  0  0  0  0  0  0  0  0  0
   -6.4167    1.6748   -2.1403 H   0  0  0  0  0  0  0  0  0  0  0  0
   -5.3038    2.6840   -3.2005 H   0  0  0  0  0  0  0  0  0  0  0  0
   -6.0300    4.2172   -0.8751 H   0  0  0  0  0  0  0  0  0  0  0  0
   -4.3592    3.7121   -1.4520 H   0  0  0  0  0  0  0  0  0  0  0  0
   -6.3106    2.1362    0.3363 H   0  0  0  0  0  0  0  0  0  0  0  0
   -5.3587    3.1208    2.1217 H   0  0  0  0  0  0  0  0  0  0  0  0
   -4.5556    4.1853    0.9634 H   0  0  0  0  0  0  0  0  0  0  0  0
   -3.7381    2.6437    1.6071 H   0  0  0  0  0  0  0  0  0  0  0  0
   -5.2016    0.5767   -0.9565 H   0  0  0  0  0  0  0  0  0  0  0  0
   -3.9574    0.6282    1.8251 H   0  0  0  0  0  0  0  0  0  0  0  0
   -6.3310   -2.8850    3.5658 H   0  0  0  0  0  0  0  0  0  0  0  0
   -7.4286   -2.2238    2.3503 H   0  0  0  0  0  0  0  0  0  0  0  0
   -7.7351   -3.2137    0.1778 H   0  0  0  0  0  0  0  0  0  0  0  0
   -7.2798   -5.1674   -1.2460 H   0  0  0  0  0  0  0  0  0  0  0  0
   -5.5286   -6.7860   -0.6724 H   0  0  0  0  0  0  0  0  0  0  0  0
   -4.1707   -6.4576    1.3800 H   0  0  0  0  0  0  0  0  0  0  0  0
   -4.6007   -4.4960    2.8240 H   0  0  0  0  0  0  0  0  0  0  0  0
   -2.0994    0.3260    0.7053 H   0  0  0  0  0  0  0  0  0  0  0  0
   -0.8195    1.4309   -1.8572 H   0  0  0  0  0  0  0  0  0  0  0  0
    0.1742    1.6760    0.9736 H   0  0  0  0  0  0  0  0  0  0  0  0
    1.0494    2.2058   -0.4776 H   0  0  0  0  0  0  0  0  0  0  0  0
   -0.9477    3.5185   -1.2148 H   0  0  0  0  0  0  0  0  0  0  0  0
   -1.8220    3.0148    0.2355 H   0  0  0  0  0  0  0  0  0  0  0  0
    0.8901    5.2104   -1.0767 H   0  0  0  0  0  0  0  0  0  0  0  0
    1.8263    7.0380    0.1290 H   0  0  0  0  0  0  0  0  0  0  0  0
    1.3144    7.4079    2.5138 H   0  0  0  0  0  0  0  0  0  0  0  0
   -0.1934    5.8521    3.6551 H   0  0  0  0  0  0  0  0  0  0  0  0
   -1.1832    3.9854    2.5225 H   0  0  0  0  0  0  0  0  0  0  0  0
    1.7160    0.6332   -1.9946 H   0  0  0  0  0  0  0  0  0  0  0  0
    1.5523   -2.2820   -1.0832 H   0  0  0  0  0  0  0  0  0  0  0  0
    1.2431   -1.8833   -3.5869 H   0  0  0  0  0  0  0  0  0  0  0  0
    2.8151   -1.0847   -3.6510 H   0  0  0  0  0  0  0  0  0  0  0  0
    2.7761   -2.8178   -3.1989 H   0  0  0  0  0  0  0  0  0  0  0  0
    3.9456   -3.3578   -1.4192 H   0  0  0  0  0  0  0  0  0  0  0  0
    6.1566   -3.3578   -0.7726 H   0  0  0  0  0  0  0  0  0  0  0  0
    4.6419   -2.5667    1.5822 H   0  0  0  0  0  0  0  0  0  0  0  0
    7.6543   -2.4783    1.3311 H   0  0  0  0  0  0  0  0  0  0  0  0
    7.2769   -0.5478    4.4382 H   0  0  0  0  0  0  0  0  0  0  0  0
    5.5791   -0.4769    3.7083 H   0  0  0  0  0  0  0  0  0  0  0  0
    5.8455   -1.2109    5.3055 H   0  0  0  0  0  0  0  0  0  0  0  0
    6.1391   -0.2844   -0.6998 H   0  0  0  0  0  0  0  0  0  0  0  0
    7.5068   -1.4108   -0.3704 H   0  0  0  0  0  0  0  0  0  0  0  0
    7.4527   -2.2944   -2.5802 H   0  0  0  0  0  0  0  0  0  0  0  0
    5.0632   -0.4288   -3.1719 H   0  0  0  0  0  0  0  0  0  0  0  0
    5.0806   -2.2485   -3.2313 H   0  0  0  0  0  0  0  0  0  0  0  0
    6.0723   -1.2393   -4.3612 H   0  0  0  0  0  0  0  0  0  0  0  0
    8.5203   -0.1916   -1.8880 H   0  0  0  0  0  0  0  0  0  0  0  0
    8.2023   -0.3950   -3.7031 H   0  0  0  0  0  0  0  0  0  0  0  0
    7.1309    0.6926   -2.7414 H   0  0  0  0  0  0  0  0  0  0  0  0
  1  2  1  0
  2  3  1  0
  3  4  1  0
  3  5  1  0
  5  6  1  0
  6  7  1  0
  7  8  2  0
  7  9  1  0
  9 10  1  0
 10 11  1  0
 11 12  2  0
 12 13  1  0
 13 14  2  0
 14 15  1  0
 15 16  2  0
  5 17  1  0
 17 18  2  0
 17 19  1  0
 19 20  1  0
 20 21  1  0
 21 22  1  0
 22 23  1  0
 23 24  2  0
 24 25  1  0
 25 26  2  0
 26 27  1  0
 27 28  2  0
 20 29  1  0
 29 30  2  0
 29 31  1  0
 31 32  1  0
 32 33  1  0
 32 34  1  0
 34 35  2  0
 34 36  1  0
 36 37  1  0
 37 38  1  0
 38 39  2  3
 39 40  1  0
 40 41  1  0
 40 42  2  0
 40 43  2  0
 37 44  1  0
 44 45  1  0
 45 46  1  0
 45 47  1  0
 16 11  1  0
 28 23  1  0
  1 48  1  0
  1 49  1  0
  1 50  1  0
  2 51  1  0
  2 52  1  0
  3 53  1  1
  4 54  1  0
  4 55  1  0
  4 56  1  0
  5 57  1  6
  6 58  1  0
 10 59  1  0
 10 60  1  0
 12 61  1  0
 13 62  1  0
 14 63  1  0
 15 64  1  0
 16 65  1  0
 19 66  1  0
 20 67  1  6
 21 68  1  0
 21 69  1  0
 22 70  1  0
 22 71  1  0
 24 72  1  0
 25 73  1  0
 26 74  1  0
 27 75  1  0
 28 76  1  0
 31 77  1  0
 32 78  1  1
 33 79  1  0
 33 80  1  0
 33 81  1  0
 36 82  1  0
 37 83  1  6
 38 84  1  0
 39 85  1  0
 41 86  1  0
 41 87  1  0
 41 88  1  0
 44 89  1  0
 44 90  1  0
 45 91  1  0
 46 92  1  0
 46 93  1  0
 46 94  1  0
 47 95  1  0
 47 96  1  0
 47 97  1  0
M  END
$$$$
