
     RDKit          3D

 86 91  0  0  0  0  0  0  0  0999 V2000
   10.1778   -0.5690   -0.4546 C   0  0  0  0  0  0  0  0  0  0  0  0
    8.9437   -1.0892   -0.8967 O   0  0  0  0  0  0  0  0  0  0  0  0
    7.7842   -0.4099   -0.6311 C   0  0  0  0  0  0  0  0  0  0  0  0
    7.8215    0.7847    0.0666 C   0  0  0  0  0  0  0  0  0  0  0  0
    6.6316    1.4253    0.3071 C   0  0  0  0  0  0  0  0  0  0  0  0
    5.4453    0.8866   -0.1362 C   0  0  0  0  0  0  0  0  0  0  0  0
    5.4292   -0.2888   -0.8206 C   0  0  0  0  0  0  0  0  0  0  0  0
    6.6004   -0.9635   -1.0832 C   0  0  0  0  0  0  0  0  0  0  0  0
    6.6163   -2.1519   -1.7716 O   0  0  0  0  0  0  0  0  0  0  0  0
    5.4592   -2.7716   -2.2623 C   0  0  0  0  0  0  0  0  0  0  0  0
    4.1953    1.6698    0.1939 C   0  0  0  0  0  0  0  0  0  0  0  0
    4.4266    3.0074   -0.1369 N   0  0  0  0  0  0  0  0  0  0  0  0
    3.5155    3.7279   -0.9208 C   0  0  0  0  0  0  0  0  0  0  0  0
    2.1924    4.0706   -0.3301 C   0  0  0  0  0  0  0  0  0  0  0  0
    1.3423    2.9622    0.0865 C   0  0  0  0  0  0  0  0  0  0  0  0
    0.4371    2.3323   -0.7311 C   0  0  0  0  0  0  0  0  0  0  0  0
   -0.3724    1.2774   -0.2862 C   0  0  0  0  0  0  0  0  0  0  0  0
   -0.2907    0.8272    1.0003 C   0  0  0  0  0  0  0  0  0  0  0  0
   -1.0637   -0.2114    1.5713 N   0  0  0  0  0  0  0  0  0  0  0  0
   -2.1494   -0.8992    0.9907 C   0  0  0  0  0  0  0  0  0  0  0  0
   -2.5052   -0.5743   -0.1608 O   0  0  0  0  0  0  0  0  0  0  0  0
   -2.8556   -1.9780    1.7170 C   0  0  0  0  0  0  0  0  0  0  0  0
   -2.4474   -2.4421    2.9493 C   0  0  0  0  0  0  0  0  0  0  0  0
   -3.1167   -3.4772    3.6106 C   0  0  0  0  0  0  0  0  0  0  0  0
   -2.6843   -3.9267    4.8529 O   0  0  0  0  0  0  0  0  0  0  0  0
   -1.5347   -3.3146    5.4575 C   0  0  0  0  0  0  0  0  0  0  0  0
   -4.2074   -4.0159    2.9737 C   0  0  0  0  0  0  0  0  0  0  0  0
   -4.8741   -5.0530    3.6405 O   0  0  0  0  0  0  0  0  0  0  0  0
   -5.9956   -5.6562    3.0570 C   0  0  0  0  0  0  0  0  0  0  0  0
   -4.6148   -3.5510    1.7417 C   0  0  0  0  0  0  0  0  0  0  0  0
   -3.9542   -2.5271    1.0865 C   0  0  0  0  0  0  0  0  0  0  0  0
   -4.3837   -2.0388   -0.1802 N   0  0  0  0  0  0  0  0  0  0  0  0
   -5.3064   -0.9629   -0.2273 C   0  0  0  0  0  0  0  0  0  0  0  0
   -5.6820   -0.5047    0.9090 O   0  0  0  0  0  0  0  0  0  0  0  0
   -5.8300   -0.3744   -1.4609 C   0  0  0  0  0  0  0  0  0  0  0  0
   -5.4735   -0.8637   -2.6957 C   0  0  0  0  0  0  0  0  0  0  0  0
   -5.9778   -0.3022   -3.8371 N   0  0  0  0  0  0  0  0  0  0  0  0
   -6.8270    0.7305   -3.8328 C   0  0  0  0  0  0  0  0  0  0  0  0
   -7.3235    1.2837   -5.0076 C   0  0  0  0  0  0  0  0  0  0  0  0
   -8.2039    2.3572   -5.0036 C   0  0  0  0  0  0  0  0  0  0  0  0
   -8.5642    2.8508   -3.7704 C   0  0  0  0  0  0  0  0  0  0  0  0
   -8.0760    2.3076   -2.6032 C   0  0  0  0  0  0  0  0  0  0  0  0
   -7.2035    1.2444   -2.5991 C   0  0  0  0  0  0  0  0  0  0  0  0
   -6.7045    0.6897   -1.4400 C   0  0  0  0  0  0  0  0  0  0  0  0
    0.6310    1.4633    1.8449 C   0  0  0  0  0  0  0  0  0  0  0  0
    1.4091    2.4922    1.3823 C   0  0  0  0  0  0  0  0  0  0  0  0
    5.6010    3.6479    0.3044 C   0  0  0  0  0  0  0  0  0  0  0  0
    6.5487    2.7249    1.0454 C   0  0  0  0  0  0  0  0  0  0  0  0
   10.4365    0.3914   -0.9291 H   0  0  0  0  0  0  0  0  0  0  0  0
   10.1545   -0.3769    0.6488 H   0  0  0  0  0  0  0  0  0  0  0  0
   11.0060   -1.2693   -0.6534 H   0  0  0  0  0  0  0  0  0  0  0  0
    8.7259    1.2311    0.4256 H   0  0  0  0  0  0  0  0  0  0  0  0
    4.4886   -0.6985   -1.1625 H   0  0  0  0  0  0  0  0  0  0  0  0
    4.8145   -1.9789   -2.7196 H   0  0  0  0  0  0  0  0  0  0  0  0
    5.7362   -3.4802   -3.0769 H   0  0  0  0  0  0  0  0  0  0  0  0
    4.9448   -3.2978   -1.4487 H   0  0  0  0  0  0  0  0  0  0  0  0
    4.0935    1.5673    1.3044 H   0  0  0  0  0  0  0  0  0  0  0  0
    3.3390    1.2796   -0.3740 H   0  0  0  0  0  0  0  0  0  0  0  0
    4.0136    4.7218   -1.1741 H   0  0  0  0  0  0  0  0  0  0  0  0
    3.4152    3.2148   -1.9136 H   0  0  0  0  0  0  0  0  0  0  0  0
    2.3486    4.7486    0.5506 H   0  0  0  0  0  0  0  0  0  0  0  0
    1.5796    4.7045   -1.0330 H   0  0  0  0  0  0  0  0  0  0  0  0
    0.3274    2.6427   -1.7563 H   0  0  0  0  0  0  0  0  0  0  0  0
   -1.0541    0.8259   -0.9731 H   0  0  0  0  0  0  0  0  0  0  0  0
   -0.8021   -0.5194    2.5563 H   0  0  0  0  0  0  0  0  0  0  0  0
   -1.6035   -2.0365    3.4550 H   0  0  0  0  0  0  0  0  0  0  0  0
   -1.7823   -2.2454    5.6438 H   0  0  0  0  0  0  0  0  0  0  0  0
   -0.6701   -3.3210    4.7819 H   0  0  0  0  0  0  0  0  0  0  0  0
   -1.3320   -3.7624    6.4488 H   0  0  0  0  0  0  0  0  0  0  0  0
   -6.8802   -5.0169    3.0053 H   0  0  0  0  0  0  0  0  0  0  0  0
   -6.2662   -6.5245    3.7003 H   0  0  0  0  0  0  0  0  0  0  0  0
   -5.6610   -6.0410    2.0557 H   0  0  0  0  0  0  0  0  0  0  0  0
   -5.4808   -3.9838    1.2448 H   0  0  0  0  0  0  0  0  0  0  0  0
   -4.0353   -2.4564   -1.0656 H   0  0  0  0  0  0  0  0  0  0  0  0
   -4.7887   -1.6990   -2.7535 H   0  0  0  0  0  0  0  0  0  0  0  0
   -7.0170    0.8657   -5.9607 H   0  0  0  0  0  0  0  0  0  0  0  0
   -8.5742    2.7662   -5.9404 H   0  0  0  0  0  0  0  0  0  0  0  0
   -9.2600    3.7010   -3.7039 H   0  0  0  0  0  0  0  0  0  0  0  0
   -8.3648    2.7032   -1.6174 H   0  0  0  0  0  0  0  0  0  0  0  0
   -7.0118    1.1063   -0.4687 H   0  0  0  0  0  0  0  0  0  0  0  0
    0.7206    1.1361    2.8579 H   0  0  0  0  0  0  0  0  0  0  0  0
    2.1059    2.9491    2.0778 H   0  0  0  0  0  0  0  0  0  0  0  0
    6.1689    4.0233   -0.5876 H   0  0  0  0  0  0  0  0  0  0  0  0
    5.4409    4.5393    0.9524 H   0  0  0  0  0  0  0  0  0  0  0  0
    6.1789    2.5670    2.0809 H   0  0  0  0  0  0  0  0  0  0  0  0
    7.5593    3.1761    1.0287 H   0  0  0  0  0  0  0  0  0  0  0  0
  1  2  1  0
  2  3  1  0
  3  4  2  0
  4  5  1  0
  5  6  2  0
  6  7  1  0
  7  8  2  0
  8  9  1  0
  9 10  1  0
  6 11  1  0
 11 12  1  0
 12 13  1  0
 13 14  1  0
 14 15  1  0
 15 16  2  0
 16 17  1  0
 17 18  2  0
 18 19  1  0
 19 20  1  0
 20 21  2  0
 20 22  1  0
 22 23  2  0
 23 24  1  0
 24 25  1  0
 25 26  1  0
 24 27  2  0
 27 28  1  0
 28 29  1  0
 27 30  1  0
 30 31  2  0
 31 32  1  0
 32 33  1  0
 33 34  2  0
 33 35  1  0
 35 36  2  0
 36 37  1  0
 37 38  2  0
 38 39  1  0
 39 40  2  0
 40 41  1  0
 41 42  2  0
 42 43  1  0
 43 44  2  0
 18 45  1  0
 45 46  2  0
 12 47  1  0
 47 48  1  0
  8  3  1  0
 46 15  1  0
 48  5  1  0
 31 22  1  0
 44 35  1  0
 43 38  1  0
  1 49  1  0
  1 50  1  0
  1 51  1  0
  4 52  1  0
  7 53  1  0
 10 54  1  0
 10 55  1  0
 10 56  1  0
 11 57  1  0
 11 58  1  0
 13 59  1  0
 13 60  1  0
 14 61  1  0
 14 62  1  0
 16 63  1  0
 17 64  1  0
 19 65  1  0
 23 66  1  0
 26 67  1  0
 26 68  1  0
 26 69  1  0
 29 70  1  0
 29 71  1  0
 29 72  1  0
 30 73  1  0
 32 74  1  0
 36 75  1  0
 39 76  1  0
 40 77  1  0
 41 78  1  0
 42 79  1  0
 44 80  1  0
 45 81  1  0
 46 82  1  0
 47 83  1  0
 47 84  1  0
 48 85  1  0
 48 86  1  0
M  END
$$$$
