
     RDKit          3D

 32 34  0  0  0  0  0  0  0  0999 V2000
    5.3520    0.0927   -1.1628 N   0  0  0  0  0  0  0  0  0  0  0  0
    4.2170    0.6348   -0.4812 C   0  0  0  0  0  0  0  0  0  0  0  0
    4.3008    1.7417    0.3072 N   0  0  0  0  0  0  0  0  0  0  0  0
    3.1899    2.2201    0.9362 C   0  0  0  0  0  0  0  0  0  0  0  0
    2.0166    1.6027    0.7795 N   0  0  0  0  0  0  0  0  0  0  0  0
    1.8582    0.4976    0.0111 C   0  0  0  0  0  0  0  0  0  0  0  0
    2.9854    0.0416   -0.6056 C   0  0  0  0  0  0  0  0  0  0  0  0
    2.5897   -1.0512   -1.3053 N   0  0  0  0  0  0  0  0  0  0  0  0
    1.2665   -1.2442   -1.1139 C   0  0  0  0  0  0  0  0  0  0  0  0
    0.8035   -0.3031   -0.3094 N   0  0  0  0  0  0  0  0  0  0  0  0
   -0.4949   -0.0517    0.2008 C   0  0  2  0  0  0  0  0  0  0  0  0
   -1.2983   -1.1837    0.3534 O   0  0  0  0  0  0  0  0  0  0  0  0
   -2.5257   -0.6904    0.7102 C   0  0  2  0  0  0  0  0  0  0  0  0
   -3.6636   -1.5904    0.2333 C   0  0  0  0  0  0  0  0  0  0  0  0
   -3.6808   -1.7359   -1.1412 O   0  0  0  0  0  0  0  0  0  0  0  0
   -2.6921    0.6599    0.0769 C   0  0  1  0  0  0  0  0  0  0  0  0
   -2.6929    1.6372    1.0680 O   0  0  0  0  0  0  0  0  0  0  0  0
   -1.3781    0.8054   -0.6825 C   0  0  2  0  0  0  0  0  0  0  0  0
   -1.5742    0.2508   -1.9248 O   0  0  0  0  0  0  0  0  0  0  0  0
    6.0218    0.3738   -1.9076 H   0  0  0  0  0  0  0  0  0  0  0  0
    5.5222   -0.8583   -0.7692 H   0  0  0  0  0  0  0  0  0  0  0  0
    3.2816    3.1023    1.5583 H   0  0  0  0  0  0  0  0  0  0  0  0
    0.6898   -2.0454   -1.5549 H   0  0  0  0  0  0  0  0  0  0  0  0
   -0.4666    0.4249    1.2014 H   0  0  0  0  0  0  0  0  0  0  0  0
   -2.5792   -0.6640    1.8130 H   0  0  0  0  0  0  0  0  0  0  0  0
   -4.6394   -1.1676    0.5462 H   0  0  0  0  0  0  0  0  0  0  0  0
   -3.5756   -2.6000    0.6937 H   0  0  0  0  0  0  0  0  0  0  0  0
   -4.5957   -2.0517   -1.3890 H   0  0  0  0  0  0  0  0  0  0  0  0
   -3.5608    0.7200   -0.6039 H   0  0  0  0  0  0  0  0  0  0  0  0
   -2.3791    1.2609    1.9450 H   0  0  0  0  0  0  0  0  0  0  0  0
   -1.0413    1.8573   -0.7131 H   0  0  0  0  0  0  0  0  0  0  0  0
   -1.2567   -0.6858   -1.9049 H   0  0  0  0  0  0  0  0  0  0  0  0
  1  2  1  0
  2  3  2  0
  3  4  1  0
  4  5  2  0
  5  6  1  0
  6  7  2  0
  7  8  1  0
  8  9  2  0
  9 10  1  0
 10 11  1  0
 11 12  1  0
 12 13  1  0
 13 14  1  0
 14 15  1  0
 13 16  1  0
 16 17  1  0
 16 18  1  0
 18 19  1  0
  7  2  1  0
 18 11  1  0
 10  6  1  0
  1 20  1  0
  1 21  1  0
  4 22  1  0
  9 23  1  0
 11 24  1  1
 13 25  1  1
 14 26  1  0
 14 27  1  0
 15 28  1  0
 16 29  1  6
 17 30  1  0
 18 31  1  6
 19 32  1  0
M  END
$$$$
