
     RDKit          3D

 46 47  0  0  0  0  0  0  0  0999 V2000
    5.4928    1.3495    1.3432 C   0  0  0  0  0  0  0  0  0  0  0  0
    4.2959    1.5064    0.4467 C   0  0  0  0  0  0  0  0  0  0  0  0
    3.3587    0.4750    0.7833 O   0  0  0  0  0  0  0  0  0  0  0  0
    2.1521    0.3858    0.1021 C   0  0  0  0  0  0  0  0  0  0  0  0
    2.2195    1.3407   -0.7145 O   0  0  0  0  0  0  0  0  0  0  0  0
    1.1264   -0.6194    0.3594 C   0  0  0  0  0  0  0  0  0  0  0  0
    1.2830   -1.5459    1.2919 C   0  0  0  0  0  0  0  0  0  0  0  0
    2.5036   -1.6279    2.1359 C   0  0  0  0  0  0  0  0  0  0  0  0
    0.2048   -2.4638    1.4373 N   0  0  0  0  0  0  0  0  0  0  0  0
   -0.9973   -2.4606    0.6757 C   0  0  0  0  0  0  0  0  0  0  0  0
   -2.0645   -3.4496    0.8922 C   0  0  0  0  0  0  0  0  0  0  0  0
   -1.0876   -1.5071   -0.2391 C   0  0  0  0  0  0  0  0  0  0  0  0
   -0.0546   -0.4645   -0.5254 C   0  0  0  0  0  0  0  0  0  0  0  0
   -0.7147    0.8550   -0.2963 C   0  0  0  0  0  0  0  0  0  0  0  0
   -0.8614    1.8155   -1.2769 C   0  0  0  0  0  0  0  0  0  0  0  0
   -1.4786    3.0237   -1.0234 C   0  0  0  0  0  0  0  0  0  0  0  0
   -1.9609    3.2738    0.2469 C   0  0  0  0  0  0  0  0  0  0  0  0
   -1.8306    2.3366    1.2475 C   0  0  0  0  0  0  0  0  0  0  0  0
   -1.2143    1.1563    0.9540 C   0  0  0  0  0  0  0  0  0  0  0  0
   -1.6138    3.9930   -2.0569 N   0  0  0  0  0  4  0  0  0  0  0  0
   -1.1339    3.7415   -3.3174 O   0  0  0  0  0  1  0  0  0  0  0  0
   -2.1767    5.0788   -1.8006 O   0  0  0  0  0  0  0  0  0  0  0  0
   -2.2896   -1.4213   -1.0747 C   0  0  0  0  0  0  0  0  0  0  0  0
   -2.4925   -0.5509   -1.9860 O   0  0  0  0  0  0  0  0  0  0  0  0
   -3.3284   -2.2926   -0.9462 O   0  0  0  0  0  0  0  0  0  0  0  0
   -4.4857   -2.2019   -1.7580 C   0  0  0  0  0  0  0  0  0  0  0  0
    6.3794    1.8950    0.9559 H   0  0  0  0  0  0  0  0  0  0  0  0
    5.7513    0.2749    1.4715 H   0  0  0  0  0  0  0  0  0  0  0  0
    5.2478    1.7936    2.3290 H   0  0  0  0  0  0  0  0  0  0  0  0
    4.5994    1.4241   -0.5991 H   0  0  0  0  0  0  0  0  0  0  0  0
    3.8607    2.5030    0.6705 H   0  0  0  0  0  0  0  0  0  0  0  0
    2.6444   -0.6807    2.6846 H   0  0  0  0  0  0  0  0  0  0  0  0
    2.3830   -2.5007    2.8109 H   0  0  0  0  0  0  0  0  0  0  0  0
    3.3644   -1.7664    1.4446 H   0  0  0  0  0  0  0  0  0  0  0  0
    0.3300   -3.2054    2.1836 H   0  0  0  0  0  0  0  0  0  0  0  0
   -2.2517   -4.1218    0.0396 H   0  0  0  0  0  0  0  0  0  0  0  0
   -2.9985   -2.9578    1.2713 H   0  0  0  0  0  0  0  0  0  0  0  0
   -1.7522   -4.1158    1.7292 H   0  0  0  0  0  0  0  0  0  0  0  0
    0.2820   -0.5334   -1.5744 H   0  0  0  0  0  0  0  0  0  0  0  0
   -0.4645    1.5652   -2.2535 H   0  0  0  0  0  0  0  0  0  0  0  0
   -2.4362    4.2343    0.3954 H   0  0  0  0  0  0  0  0  0  0  0  0
   -2.2439    2.6419    2.1956 H   0  0  0  0  0  0  0  0  0  0  0  0
   -1.1192    0.4335    1.7445 H   0  0  0  0  0  0  0  0  0  0  0  0
   -4.2983   -1.5349   -2.6194 H   0  0  0  0  0  0  0  0  0  0  0  0
   -5.3699   -1.8658   -1.1747 H   0  0  0  0  0  0  0  0  0  0  0  0
   -4.7598   -3.2086   -2.1828 H   0  0  0  0  0  0  0  0  0  0  0  0
  1  2  1  0
  2  3  1  0
  3  4  1  0
  4  5  2  0
  4  6  1  0
  6  7  2  0
  7  8  1  0
  7  9  1  0
  9 10  1  0
 10 11  1  0
 10 12  2  0
 12 13  1  0
 13 14  1  0
 14 15  2  0
 15 16  1  0
 16 17  2  0
 17 18  1  0
 18 19  2  0
 16 20  1  0
 20 21  1  0
 20 22  2  0
 12 23  1  0
 23 24  2  0
 23 25  1  0
 25 26  1  0
 13  6  1  0
 19 14  1  0
  1 27  1  0
  1 28  1  0
  1 29  1  0
  2 30  1  0
  2 31  1  0
  8 32  1  0
  8 33  1  0
  8 34  1  0
  9 35  1  0
 11 36  1  0
 11 37  1  0
 11 38  1  0
 13 39  1  0
 15 40  1  0
 17 41  1  0
 18 42  1  0
 19 43  1  0
 26 44  1  0
 26 45  1  0
 26 46  1  0
M  CHG  2  20   1  21  -1
M  END
$$$$
