
     RDKit          3D

 83 85  0  0  0  0  0  0  0  0999 V2000
    8.7653   -0.8144   -3.3124 C   0  0  0  0  0  0  0  0  0  0  0  0
    7.3490   -0.3436   -3.3251 C   0  0  0  0  0  0  0  0  0  0  0  0
    6.7447   -0.2533   -1.9239 C   0  0  0  0  0  0  0  0  0  0  0  0
    6.7910   -1.6398   -1.2955 C   0  0  0  0  0  0  0  0  0  0  0  0
    6.0319   -2.6410   -2.0665 C   0  0  0  0  0  0  0  0  0  0  0  0
    4.5889   -2.4289   -2.2840 C   0  0  0  0  0  0  0  0  0  0  0  0
    3.6864   -2.4738   -1.1190 C   0  0  0  0  0  0  0  0  0  0  0  0
    3.8845   -1.5161   -0.0530 C   0  0  0  0  0  0  0  0  0  0  0  0
    4.3948   -1.9328    1.0163 O   0  0  0  0  0  0  0  0  0  0  0  0
    3.4466    0.1983   -0.1568 S   0  0  0  0  0  0  0  0  0  0  0  0
    2.3511    0.5530   -1.5153 C   0  0  0  0  0  0  0  0  0  0  0  0
    0.9550    0.0268   -1.2093 C   0  0  0  0  0  0  0  0  0  0  0  0
    0.4374    0.7032    0.0122 C   0  0  0  0  0  0  0  0  0  0  0  0
    0.1083    0.0219    1.0786 C   0  0  0  0  0  0  0  0  0  0  0  0
   -0.4064    0.8227    2.2619 C   0  0  2  0  0  0  0  0  0  0  0  0
   -0.5166   -0.1419    3.4378 C   0  0  0  0  0  0  0  0  0  0  0  0
   -1.6165   -1.0916    3.3190 C   0  0  0  0  0  0  0  0  0  0  0  0
   -2.5250   -0.7369    2.4338 O   0  0  0  0  0  0  0  0  0  0  0  0
   -2.0297   -2.2998    3.8685 N   0  0  0  0  0  0  0  0  0  0  0  0
   -3.2635   -2.9885    3.5306 C   0  0  0  0  0  0  0  0  0  0  0  0
   -3.4295   -3.3178    2.1617 C   0  0  0  0  0  0  0  0  0  0  0  0
   -3.7390   -2.5336    1.1739 N   0  0  0  0  0  0  0  0  0  0  0  0
   -3.9476   -2.7921   -0.0361 C   0  0  0  0  0  0  0  0  0  0  0  0
   -3.8311   -4.1760   -0.4231 C   0  0  0  0  0  0  0  0  0  0  0  0
   -3.3903   -4.9286    1.2216 S   0  0  0  0  0  0  0  0  0  0  0  0
   -4.3162   -1.6987   -0.9704 C   0  0  0  0  0  0  0  0  0  0  0  0
   -3.6565   -0.6531   -1.0729 N   0  0  0  0  0  0  0  0  0  0  0  0
   -4.2700    0.5587   -1.4832 C   0  0  1  0  0  0  0  0  0  0  0  0
   -3.6991    0.8142   -2.9058 C   0  0  0  0  0  0  0  0  0  0  0  0
   -5.7306    0.3792   -1.7046 C   0  0  0  0  0  0  0  0  0  0  0  0
   -5.6645   -1.4577   -2.1143 S   0  0  0  0  0  0  0  0  0  0  0  0
   -3.8378    1.6330   -0.5740 C   0  0  0  0  0  0  0  0  0  0  0  0
   -3.1747    2.6003   -1.1650 O   0  0  0  0  0  0  0  0  0  0  0  0
   -3.9183    1.9557    0.7679 N   0  0  0  0  0  0  0  0  0  0  0  0
   -3.2551    3.1663    1.3343 C   0  0  1  0  0  0  0  0  0  0  0  0
   -4.1351    3.8197    2.3459 C   0  0  0  0  0  0  0  0  0  0  0  0
   -3.4482    5.0544    2.9243 C   0  0  0  0  0  0  0  0  0  0  0  0
   -5.4413    4.2977    1.7347 C   0  0  0  0  0  0  0  0  0  0  0  0
   -1.9097    2.7613    1.8500 C   0  0  0  0  0  0  0  0  0  0  0  0
   -1.0503    3.5640    2.2537 O   0  0  0  0  0  0  0  0  0  0  0  0
   -1.6022    1.4149    1.8726 O   0  0  0  0  0  0  0  0  0  0  0  0
    9.3298   -0.2690   -4.0896 H   0  0  0  0  0  0  0  0  0  0  0  0
    9.1873   -0.6288   -2.2984 H   0  0  0  0  0  0  0  0  0  0  0  0
    8.8615   -1.8973   -3.5643 H   0  0  0  0  0  0  0  0  0  0  0  0
    6.6630   -0.9678   -3.9299 H   0  0  0  0  0  0  0  0  0  0  0  0
    7.3402    0.7085   -3.7301 H   0  0  0  0  0  0  0  0  0  0  0  0
    5.7217    0.1111   -2.0375 H   0  0  0  0  0  0  0  0  0  0  0  0
    7.3943    0.4074   -1.3285 H   0  0  0  0  0  0  0  0  0  0  0  0
    6.5039   -1.5742   -0.2571 H   0  0  0  0  0  0  0  0  0  0  0  0
    7.8935   -1.9480   -1.3832 H   0  0  0  0  0  0  0  0  0  0  0  0
    6.2224   -3.6473   -1.5626 H   0  0  0  0  0  0  0  0  0  0  0  0
    6.4970   -2.8084   -3.0925 H   0  0  0  0  0  0  0  0  0  0  0  0
    4.2006   -3.1457   -3.1007 H   0  0  0  0  0  0  0  0  0  0  0  0
    4.4560   -1.4041   -2.7935 H   0  0  0  0  0  0  0  0  0  0  0  0
    3.6853   -3.5401   -0.6756 H   0  0  0  0  0  0  0  0  0  0  0  0
    2.6305   -2.4171   -1.5450 H   0  0  0  0  0  0  0  0  0  0  0  0
    2.2670    1.6631   -1.7112 H   0  0  0  0  0  0  0  0  0  0  0  0
    2.7277    0.1040   -2.4579 H   0  0  0  0  0  0  0  0  0  0  0  0
    0.3093    0.3309   -2.0785 H   0  0  0  0  0  0  0  0  0  0  0  0
    0.8801   -1.0425   -1.0823 H   0  0  0  0  0  0  0  0  0  0  0  0
    0.3400    1.7923   -0.0064 H   0  0  0  0  0  0  0  0  0  0  0  0
    0.1826   -1.0444    1.1566 H   0  0  0  0  0  0  0  0  0  0  0  0
    0.3369    1.5968    2.4810 H   0  0  0  0  0  0  0  0  0  0  0  0
   -0.7408    0.5362    4.3198 H   0  0  0  0  0  0  0  0  0  0  0  0
    0.4861   -0.5194    3.6161 H   0  0  0  0  0  0  0  0  0  0  0  0
   -1.5184   -2.8326    4.5707 H   0  0  0  0  0  0  0  0  0  0  0  0
   -3.3170   -3.9507    4.1445 H   0  0  0  0  0  0  0  0  0  0  0  0
   -4.1531   -2.4285    3.9486 H   0  0  0  0  0  0  0  0  0  0  0  0
   -3.9588   -4.6179   -1.2984 H   0  0  0  0  0  0  0  0  0  0  0  0
   -4.0299    1.8198   -3.1941 H   0  0  0  0  0  0  0  0  0  0  0  0
   -4.2163    0.0836   -3.5596 H   0  0  0  0  0  0  0  0  0  0  0  0
   -2.6114    0.7618   -2.9096 H   0  0  0  0  0  0  0  0  0  0  0  0
   -6.3309    0.4405   -0.7993 H   0  0  0  0  0  0  0  0  0  0  0  0
   -6.1099    0.8982   -2.5859 H   0  0  0  0  0  0  0  0  0  0  0  0
   -4.3994    1.4805    1.4920 H   0  0  0  0  0  0  0  0  0  0  0  0
   -3.0273    3.9142    0.5478 H   0  0  0  0  0  0  0  0  0  0  0  0
   -4.3237    3.1368    3.2023 H   0  0  0  0  0  0  0  0  0  0  0  0
   -2.8321    4.8020    3.8134 H   0  0  0  0  0  0  0  0  0  0  0  0
   -4.2058    5.8218    3.1158 H   0  0  0  0  0  0  0  0  0  0  0  0
   -2.7869    5.4502    2.1027 H   0  0  0  0  0  0  0  0  0  0  0  0
   -6.2361    3.5333    1.7549 H   0  0  0  0  0  0  0  0  0  0  0  0
   -5.3029    4.5757    0.6592 H   0  0  0  0  0  0  0  0  0  0  0  0
   -5.7466    5.2302    2.2420 H   0  0  0  0  0  0  0  0  0  0  0  0
  1  2  1  0
  2  3  1  0
  3  4  1  0
  4  5  1  0
  5  6  1  0
  6  7  1  0
  7  8  1  0
  8  9  2  0
  8 10  1  0
 10 11  1  0
 11 12  1  0
 12 13  1  0
 13 14  2  0
 14 15  1  0
 15 16  1  0
 16 17  1  0
 17 18  2  0
 17 19  1  0
 19 20  1  0
 20 21  1  0
 21 22  2  0
 22 23  1  0
 23 24  2  0
 24 25  1  0
 23 26  1  0
 26 27  2  0
 27 28  1  0
 28 29  1  6
 28 30  1  0
 30 31  1  0
 28 32  1  0
 32 33  2  0
 32 34  1  0
 34 35  1  0
 35 36  1  0
 36 37  1  0
 36 38  1  0
 35 39  1  0
 39 40  2  0
 39 41  1  0
 41 15  1  0
 25 21  1  0
 31 26  1  0
  1 42  1  0
  1 43  1  0
  1 44  1  0
  2 45  1  0
  2 46  1  0
  3 47  1  0
  3 48  1  0
  4 49  1  0
  4 50  1  0
  5 51  1  0
  5 52  1  0
  6 53  1  0
  6 54  1  0
  7 55  1  0
  7 56  1  0
 11 57  1  0
 11 58  1  0
 12 59  1  0
 12 60  1  0
 13 61  1  0
 14 62  1  0
 15 63  1  1
 16 64  1  0
 16 65  1  0
 19 66  1  0
 20 67  1  0
 20 68  1  0
 24 69  1  0
 29 70  1  0
 29 71  1  0
 29 72  1  0
 30 73  1  0
 30 74  1  0
 34 75  1  0
 35 76  1  6
 36 77  1  0
 37 78  1  0
 37 79  1  0
 37 80  1  0
 38 81  1  0
 38 82  1  0
 38 83  1  0
M  END
$$$$
