
     RDKit          3D

120123  0  0  0  0  0  0  0  0999 V2000
   -2.9355   -5.3219   -3.0297 C   0  0  0  0  0  0  0  0  0  0  0  0
   -2.9366   -3.9007   -3.3556 N   0  0  0  0  0  0  0  0  0  0  0  0
   -3.9708   -3.0395   -2.8632 C   0  0  0  0  0  0  0  0  0  0  0  0
   -5.1808   -3.6596   -1.9561 S   0  0  0  0  0  0  0  0  0  0  0  0
   -3.9822   -1.6610   -3.1687 N   0  0  0  0  0  0  0  0  0  0  0  0
   -5.0160   -0.8088   -2.6656 C   0  0  0  0  0  0  0  0  0  0  0  0
   -4.9528   -0.6127   -1.2110 C   0  0  0  0  0  0  0  0  0  0  0  0
   -3.7600    0.0409   -0.6101 C   0  0  0  0  0  0  0  0  0  0  0  0
   -2.4398   -0.6289   -0.8020 C   0  0  0  0  0  0  0  0  0  0  0  0
   -1.3148    0.1051   -0.0975 C   0  0  0  0  0  0  0  0  0  0  0  0
   -1.3480    0.2170    1.2912 N   0  0  0  0  0  0  0  0  0  0  0  0
   -1.9723   -0.6581    2.2148 C   0  0  0  0  0  0  0  0  0  0  0  0
   -2.5850   -1.6306    1.7179 O   0  0  0  0  0  0  0  0  0  0  0  0
   -1.8819   -0.4341    3.6612 C   0  0  0  0  0  0  0  0  0  0  0  0
   -2.7559    0.6473    4.1731 C   0  0  0  0  0  0  0  0  0  0  0  0
   -4.1999    0.3964    3.9657 C   0  0  0  0  0  0  0  0  0  0  0  0
   -4.9220    0.9649    2.9420 C   0  0  0  0  0  0  0  0  0  0  0  0
   -6.2565    0.6940    2.7655 C   0  0  0  0  0  0  0  0  0  0  0  0
   -6.9419   -0.1596    3.6026 C   0  0  0  0  0  0  0  0  0  0  0  0
   -6.1942   -0.7260    4.6338 C   0  0  0  0  0  0  0  0  0  0  0  0
   -4.8723   -0.4780    4.8353 C   0  0  0  0  0  0  0  0  0  0  0  0
   -2.3993   -1.6814    4.3020 N   0  0  0  0  0  0  0  0  0  0  0  0
   -1.1559   -2.3553    5.2978 S   0  0  0  0  0  6  0  0  0  0  0  0
   -0.3592   -1.1777    5.8376 O   0  0  0  0  0  0  0  0  0  0  0  0
   -1.7034   -3.1814    6.4174 O   0  0  0  0  0  0  0  0  0  0  0  0
   -0.1042   -3.2849    4.3394 N   0  0  0  0  0  0  0  0  0  0  0  0
   -0.7533   -4.4089    3.6901 C   0  0  0  0  0  0  0  0  0  0  0  0
    0.2965   -5.1763    2.9017 C   0  0  0  0  0  0  0  0  0  0  0  0
    1.3273   -5.6187    3.7060 O   0  0  0  0  0  0  0  0  0  0  0  0
    1.9660   -4.4606    4.2155 C   0  0  0  0  0  0  0  0  0  0  0  0
    0.9585   -3.8528    5.1776 C   0  0  0  0  0  0  0  0  0  0  0  0
   -0.0477   -0.5314   -0.5096 C   0  0  0  0  0  0  0  0  0  0  0  0
    0.3718   -1.5108    0.2030 O   0  0  0  0  0  0  0  0  0  0  0  0
    0.7124   -0.1037   -1.6469 N   0  0  0  0  0  0  0  0  0  0  0  0
    1.9358   -0.7439   -2.0484 C   0  0  0  0  0  0  0  0  0  0  0  0
    2.0512   -1.1860   -3.4456 C   0  0  0  0  0  0  0  0  0  0  0  0
    1.9574   -0.2184   -4.5516 C   0  0  0  0  0  0  0  0  0  0  0  0
    2.1268   -1.0458   -5.8493 C   0  0  0  0  0  0  0  0  0  0  0  0
    2.4211   -0.1168   -6.9991 C   0  0  0  0  0  0  0  0  0  0  0  0
    1.3941    1.0002   -7.0197 C   0  0  0  0  0  0  0  0  0  0  0  0
    0.2063    0.5861   -6.1788 C   0  0  0  0  0  0  0  0  0  0  0  0
    0.5983    0.4430   -4.7167 C   0  0  0  0  0  0  0  0  0  0  0  0
    3.1622   -0.0968   -1.4482 C   0  0  1  0  0  0  0  0  0  0  0  0
    4.3334   -0.7055   -1.8500 O   0  0  0  0  0  0  0  0  0  0  0  0
    3.1455    1.3958   -1.6198 C   0  0  0  0  0  0  0  0  0  0  0  0
    4.3850    1.9965   -1.0000 C   0  0  0  0  0  0  0  0  0  0  0  0
    5.1604    1.2313   -0.3868 O   0  0  0  0  0  0  0  0  0  0  0  0
    4.6909    3.3667   -1.0843 N   0  0  0  0  0  0  0  0  0  0  0  0
    3.8584    4.3079   -1.7927 C   0  0  0  0  0  0  0  0  0  0  0  0
    4.0150    5.6314   -1.0736 C   0  0  0  0  0  0  0  0  0  0  0  0
    4.2200    5.4878    0.2717 O   0  0  0  0  0  0  0  0  0  0  0  0
    5.3894    4.8391    0.6387 C   0  0  0  0  0  0  0  0  0  0  0  0
    6.4633    5.8153    1.0574 C   0  0  0  0  0  0  0  0  0  0  0  0
    7.7451    5.1544    1.4883 C   0  0  0  0  0  0  0  0  0  0  0  0
    8.3030    4.3945    0.4057 N   0  0  0  0  0  0  0  0  0  0  0  0
    5.8816    3.8790   -0.4333 C   0  0  0  0  0  0  0  0  0  0  0  0
   -1.9388   -5.7551   -3.1862 H   0  0  0  0  0  0  0  0  0  0  0  0
   -3.7727   -5.8658   -3.5035 H   0  0  0  0  0  0  0  0  0  0  0  0
   -3.1463   -5.4063   -1.9197 H   0  0  0  0  0  0  0  0  0  0  0  0
   -2.1941   -3.4907   -3.9473 H   0  0  0  0  0  0  0  0  0  0  0  0
   -3.2445   -1.2201   -3.7934 H   0  0  0  0  0  0  0  0  0  0  0  0
   -5.9892   -1.3094   -2.9738 H   0  0  0  0  0  0  0  0  0  0  0  0
   -5.0488    0.1707   -3.2143 H   0  0  0  0  0  0  0  0  0  0  0  0
   -5.9102   -0.0784   -0.9054 H   0  0  0  0  0  0  0  0  0  0  0  0
   -5.0682   -1.5949   -0.6493 H   0  0  0  0  0  0  0  0  0  0  0  0
   -3.6834    1.0670   -1.1181 H   0  0  0  0  0  0  0  0  0  0  0  0
   -4.0100    0.2315    0.4502 H   0  0  0  0  0  0  0  0  0  0  0  0
   -2.1674   -0.5222   -1.8946 H   0  0  0  0  0  0  0  0  0  0  0  0
   -2.4572   -1.7124   -0.6177 H   0  0  0  0  0  0  0  0  0  0  0  0
   -1.3643    1.1402   -0.5551 H   0  0  0  0  0  0  0  0  0  0  0  0
   -0.8465    1.0593    1.7195 H   0  0  0  0  0  0  0  0  0  0  0  0
   -0.8133   -0.3022    3.9780 H   0  0  0  0  0  0  0  0  0  0  0  0
   -2.4875    1.6482    3.7439 H   0  0  0  0  0  0  0  0  0  0  0  0
   -2.6201    0.6822    5.2840 H   0  0  0  0  0  0  0  0  0  0  0  0
   -4.3920    1.6652    2.2678 H   0  0  0  0  0  0  0  0  0  0  0  0
   -6.7968    1.1671    1.9390 H   0  0  0  0  0  0  0  0  0  0  0  0
   -7.9838   -0.3963    3.4991 H   0  0  0  0  0  0  0  0  0  0  0  0
   -6.7485   -1.4017    5.2943 H   0  0  0  0  0  0  0  0  0  0  0  0
   -4.3007   -0.9269    5.6415 H   0  0  0  0  0  0  0  0  0  0  0  0
   -2.7126   -2.3626    3.5953 H   0  0  0  0  0  0  0  0  0  0  0  0
   -1.5014   -4.0748    2.9405 H   0  0  0  0  0  0  0  0  0  0  0  0
   -1.1942   -5.0675    4.4455 H   0  0  0  0  0  0  0  0  0  0  0  0
   -0.2006   -6.0727    2.4787 H   0  0  0  0  0  0  0  0  0  0  0  0
    0.6537   -4.5279    2.0683 H   0  0  0  0  0  0  0  0  0  0  0  0
    2.1283   -3.7970    3.3378 H   0  0  0  0  0  0  0  0  0  0  0  0
    2.9328   -4.6914    4.6897 H   0  0  0  0  0  0  0  0  0  0  0  0
    1.3604   -3.0498    5.7940 H   0  0  0  0  0  0  0  0  0  0  0  0
    0.5050   -4.6628    5.7959 H   0  0  0  0  0  0  0  0  0  0  0  0
    0.3213    0.7023   -2.1548 H   0  0  0  0  0  0  0  0  0  0  0  0
    1.8934   -1.7435   -1.4480 H   0  0  0  0  0  0  0  0  0  0  0  0
    1.2901   -2.0019   -3.6032 H   0  0  0  0  0  0  0  0  0  0  0  0
    3.0332   -1.7482   -3.5300 H   0  0  0  0  0  0  0  0  0  0  0  0
    2.7322    0.5393   -4.6165 H   0  0  0  0  0  0  0  0  0  0  0  0
    1.2057   -1.6477   -6.0170 H   0  0  0  0  0  0  0  0  0  0  0  0
    2.9801   -1.7527   -5.7594 H   0  0  0  0  0  0  0  0  0  0  0  0
    2.3956   -0.6929   -7.9499 H   0  0  0  0  0  0  0  0  0  0  0  0
    3.4051    0.3334   -6.8457 H   0  0  0  0  0  0  0  0  0  0  0  0
    1.7816    1.9671   -6.7041 H   0  0  0  0  0  0  0  0  0  0  0  0
    1.0398    1.1049   -8.0642 H   0  0  0  0  0  0  0  0  0  0  0  0
   -0.2608   -0.3347   -6.5216 H   0  0  0  0  0  0  0  0  0  0  0  0
   -0.5409    1.3946   -6.2464 H   0  0  0  0  0  0  0  0  0  0  0  0
    0.6339    1.4872   -4.3239 H   0  0  0  0  0  0  0  0  0  0  0  0
   -0.2084   -0.1738   -4.2729 H   0  0  0  0  0  0  0  0  0  0  0  0
    3.1361   -0.2525   -0.3226 H   0  0  0  0  0  0  0  0  0  0  0  0
    4.4104   -1.5984   -1.4836 H   0  0  0  0  0  0  0  0  0  0  0  0
    3.0246    1.7678   -2.6319 H   0  0  0  0  0  0  0  0  0  0  0  0
    2.2540    1.7596   -1.0237 H   0  0  0  0  0  0  0  0  0  0  0  0
    2.8075    4.0317   -1.8505 H   0  0  0  0  0  0  0  0  0  0  0  0
    4.3033    4.4738   -2.8185 H   0  0  0  0  0  0  0  0  0  0  0  0
    3.0828    6.2283   -1.2020 H   0  0  0  0  0  0  0  0  0  0  0  0
    4.8366    6.2370   -1.5057 H   0  0  0  0  0  0  0  0  0  0  0  0
    5.1511    4.2543    1.5755 H   0  0  0  0  0  0  0  0  0  0  0  0
    6.6983    6.5407    0.2389 H   0  0  0  0  0  0  0  0  0  0  0  0
    6.0640    6.3463    1.9668 H   0  0  0  0  0  0  0  0  0  0  0  0
    8.4857    5.8884    1.8739 H   0  0  0  0  0  0  0  0  0  0  0  0
    7.5225    4.4050    2.3125 H   0  0  0  0  0  0  0  0  0  0  0  0
    8.9017    5.0331   -0.1757 H   0  0  0  0  0  0  0  0  0  0  0  0
    8.9192    3.6375    0.8092 H   0  0  0  0  0  0  0  0  0  0  0  0
    6.4379    3.0585    0.0774 H   0  0  0  0  0  0  0  0  0  0  0  0
    6.5187    4.4459   -1.1291 H   0  0  0  0  0  0  0  0  0  0  0  0
  1  2  1  0
  2  3  1  0
  3  4  2  0
  3  5  1  0
  5  6  1  0
  6  7  1  0
  7  8  1  0
  8  9  1  0
  9 10  1  0
 10 11  1  0
 11 12  1  0
 12 13  2  0
 12 14  1  0
 14 15  1  0
 15 16  1  0
 16 17  2  0
 17 18  1  0
 18 19  2  0
 19 20  1  0
 20 21  2  0
 14 22  1  0
 22 23  1  0
 23 24  2  0
 23 25  2  0
 23 26  1  0
 26 27  1  0
 27 28  1  0
 28 29  1  0
 29 30  1  0
 30 31  1  0
 10 32  1  0
 32 33  2  0
 32 34  1  0
 34 35  1  0
 35 36  1  0
 36 37  1  0
 37 38  1  0
 38 39  1  0
 39 40  1  0
 40 41  1  0
 41 42  1  0
 35 43  1  0
 43 44  1  0
 43 45  1  0
 45 46  1  0
 46 47  2  0
 46 48  1  0
 48 49  1  0
 49 50  1  0
 50 51  1  0
 51 52  1  0
 52 53  1  0
 53 54  1  0
 54 55  1  0
 52 56  1  0
 21 16  1  0
 31 26  1  0
 42 37  1  0
 56 48  1  0
  1 57  1  0
  1 58  1  0
  1 59  1  0
  2 60  1  0
  5 61  1  0
  6 62  1  0
  6 63  1  0
  7 64  1  0
  7 65  1  0
  8 66  1  0
  8 67  1  0
  9 68  1  0
  9 69  1  0
 10 70  1  0
 11 71  1  0
 14 72  1  0
 15 73  1  0
 15 74  1  0
 17 75  1  0
 18 76  1  0
 19 77  1  0
 20 78  1  0
 21 79  1  0
 22 80  1  0
 27 81  1  0
 27 82  1  0
 28 83  1  0
 28 84  1  0
 30 85  1  0
 30 86  1  0
 31 87  1  0
 31 88  1  0
 34 89  1  0
 35 90  1  0
 36 91  1  0
 36 92  1  0
 37 93  1  0
 38 94  1  0
 38 95  1  0
 39 96  1  0
 39 97  1  0
 40 98  1  0
 40 99  1  0
 41100  1  0
 41101  1  0
 42102  1  0
 42103  1  0
 43104  1  1
 44105  1  0
 45106  1  0
 45107  1  0
 49108  1  0
 49109  1  0
 50110  1  0
 50111  1  0
 52112  1  0
 53113  1  0
 53114  1  0
 54115  1  0
 54116  1  0
 55117  1  0
 55118  1  0
 56119  1  0
 56120  1  0
M  END
$$$$
