
     RDKit          3D

 44 48  0  0  0  0  0  0  0  0999 V2000
   -3.3535    2.1460   -0.5373 C   0  0  0  0  0  0  0  0  0  0  0  0
   -4.5923    1.2902   -0.5288 C   0  0  0  0  0  0  0  0  0  0  0  0
   -5.8284    1.8576   -0.7056 C   0  0  0  0  0  0  0  0  0  0  0  0
   -6.9432    1.0544   -0.6935 C   0  0  0  0  0  0  0  0  0  0  0  0
   -6.8315   -0.3105   -0.5062 C   0  0  0  0  0  0  0  0  0  0  0  0
   -5.5684   -0.8914   -0.3254 C   0  0  0  0  0  0  0  0  0  0  0  0
   -5.4974   -2.6419   -0.0922 Cl  0  0  0  0  0  0  0  0  0  0  0  0
   -4.4474   -0.0992   -0.3355 C   0  0  0  0  0  0  0  0  0  0  0  0
   -3.1166   -0.6536   -0.1530 C   0  0  0  0  0  0  0  0  0  0  0  0
   -1.9743    0.0878   -0.1620 N   0  0  0  0  0  0  0  0  0  0  0  0
   -0.8942   -0.6537    0.0247 C   0  0  0  0  0  0  0  0  0  0  0  0
   -1.3255   -1.9402    0.1644 C   0  0  0  0  0  0  0  0  0  0  0  0
   -2.6920   -1.8937    0.0488 N   0  0  0  0  0  0  0  0  0  0  0  0
   -0.4413   -2.9746    0.3751 C   0  0  0  0  0  0  0  0  0  0  0  0
   -0.8592   -4.1675    0.5032 O   0  0  0  0  0  0  0  0  0  0  0  0
    0.8687   -2.7216    0.4456 N   0  0  0  0  0  0  0  0  0  0  0  0
    1.3230   -1.4656    0.3119 C   0  0  0  0  0  0  0  0  0  0  0  0
    2.6949   -1.2060    0.3862 C   0  0  0  0  0  0  0  0  0  0  0  0
    3.2073    0.0604    0.2555 C   0  0  0  0  0  0  0  0  0  0  0  0
    4.6477    0.3421    0.3324 C   0  0  0  0  0  0  0  0  0  0  0  0
    5.1996    1.3875   -0.3894 C   0  0  0  0  0  0  0  0  0  0  0  0
    6.5415    1.6774   -0.3394 C   0  0  0  0  0  0  0  0  0  0  0  0
    7.3680    0.8927    0.4635 C   0  0  0  0  0  0  0  0  0  0  0  0
    6.8616   -0.1439    1.1878 C   0  0  0  0  0  0  0  0  0  0  0  0
    5.5024   -0.4073    1.1128 C   0  0  0  0  0  0  0  0  0  0  0  0
    2.3011    1.1021    0.0421 C   0  0  0  0  0  0  0  0  0  0  0  0
    0.9449    0.8628   -0.0338 C   0  0  0  0  0  0  0  0  0  0  0  0
    0.4585   -0.4156    0.1006 C   0  0  0  0  0  0  0  0  0  0  0  0
   -2.8336    2.1627    0.4198 H   0  0  0  0  0  0  0  0  0  0  0  0
   -2.7432    1.8802   -1.4205 H   0  0  0  0  0  0  0  0  0  0  0  0
   -3.7086    3.1996   -0.7758 H   0  0  0  0  0  0  0  0  0  0  0  0
   -5.9528    2.9107   -0.8532 H   0  0  0  0  0  0  0  0  0  0  0  0
   -7.9161    1.5150   -0.8345 H   0  0  0  0  0  0  0  0  0  0  0  0
   -7.6856   -0.9648   -0.4919 H   0  0  0  0  0  0  0  0  0  0  0  0
   -3.2284   -2.7607    0.1236 H   0  0  0  0  0  0  0  0  0  0  0  0
    1.5848   -3.4783    0.6053 H   0  0  0  0  0  0  0  0  0  0  0  0
    3.3744   -2.0213    0.5508 H   0  0  0  0  0  0  0  0  0  0  0  0
    4.5681    1.9889   -1.0042 H   0  0  0  0  0  0  0  0  0  0  0  0
    7.0121    2.4810   -0.8846 H   0  0  0  0  0  0  0  0  0  0  0  0
    8.4354    1.0924    0.5282 H   0  0  0  0  0  0  0  0  0  0  0  0
    7.5241   -0.7485    1.8120 H   0  0  0  0  0  0  0  0  0  0  0  0
    5.0665   -1.2200    1.6723 H   0  0  0  0  0  0  0  0  0  0  0  0
    2.7101    2.1005   -0.0605 H   0  0  0  0  0  0  0  0  0  0  0  0
    0.2390    1.6879   -0.2020 H   0  0  0  0  0  0  0  0  0  0  0  0
  1  2  1  0
  2  3  2  0
  3  4  1  0
  4  5  2  0
  5  6  1  0
  6  7  1  0
  6  8  2  0
  8  9  1  0
  9 10  2  0
 10 11  1  0
 11 12  2  0
 12 13  1  0
 12 14  1  0
 14 15  2  0
 14 16  1  0
 16 17  1  0
 17 18  2  0
 18 19  1  0
 19 20  1  0
 20 21  2  0
 21 22  1  0
 22 23  2  0
 23 24  1  0
 24 25  2  0
 19 26  2  0
 26 27  1  0
 27 28  2  0
  8  2  1  0
 13  9  1  0
 28 17  1  0
 28 11  1  0
 25 20  1  0
  1 29  1  0
  1 30  1  0
  1 31  1  0
  3 32  1  0
  4 33  1  0
  5 34  1  0
 13 35  1  0
 16 36  1  0
 18 37  1  0
 21 38  1  0
 22 39  1  0
 23 40  1  0
 24 41  1  0
 25 42  1  0
 26 43  1  0
 27 44  1  0
M  END
$$$$
