
     RDKit          3D

 29 30  0  0  0  0  0  0  0  0999 V2000
   -0.9216   -2.0590   -0.2145 C   0  0  0  0  0  0  0  0  0  0  0  0
   -1.1597   -0.6757   -0.5296 N   0  0  0  0  0  0  0  0  0  0  0  0
   -0.2140    0.4401   -0.4157 C   0  0  0  0  0  0  0  0  0  0  0  0
    1.1550    0.0269   -0.1094 C   0  0  0  0  0  0  0  0  0  0  0  0
    1.7826   -1.0152   -0.7567 C   0  0  0  0  0  0  0  0  0  0  0  0
    3.0731   -1.4105   -0.4724 C   0  0  0  0  0  0  0  0  0  0  0  0
    3.8037   -0.7577    0.4987 C   0  0  0  0  0  0  0  0  0  0  0  0
    5.4436   -1.2352    0.8828 Cl  0  0  0  0  0  0  0  0  0  0  0  0
    3.2083    0.2909    1.1683 C   0  0  0  0  0  0  0  0  0  0  0  0
    1.9128    0.6567    0.8543 C   0  0  0  0  0  0  0  0  0  0  0  0
   -0.8834    1.5231    0.8227 S   0  0  0  0  0  0  0  0  0  0  0  0
   -0.6153    1.0047    2.2157 O   0  0  0  0  0  0  0  0  0  0  0  0
   -0.2163    2.8606    0.7160 O   0  0  0  0  0  0  0  0  0  0  0  0
   -2.6279    1.6286    0.5206 C   0  0  0  0  0  0  0  0  0  0  0  0
   -2.8739    1.1327   -0.9043 C   0  0  0  0  0  0  0  0  0  0  0  0
   -2.4695   -0.3128   -1.0157 C   0  0  0  0  0  0  0  0  0  0  0  0
   -3.2763   -1.1597   -1.5248 O   0  0  0  0  0  0  0  0  0  0  0  0
   -0.8288   -2.6451   -1.1352 H   0  0  0  0  0  0  0  0  0  0  0  0
   -1.8271   -2.4480    0.3239 H   0  0  0  0  0  0  0  0  0  0  0  0
   -0.0409   -2.1235    0.4652 H   0  0  0  0  0  0  0  0  0  0  0  0
   -0.2816    1.0124   -1.3798 H   0  0  0  0  0  0  0  0  0  0  0  0
    1.2808   -1.5780   -1.5302 H   0  0  0  0  0  0  0  0  0  0  0  0
    3.5665   -2.2246   -0.9766 H   0  0  0  0  0  0  0  0  0  0  0  0
    3.7828    0.8097    1.9370 H   0  0  0  0  0  0  0  0  0  0  0  0
    1.5331    1.4841    1.4280 H   0  0  0  0  0  0  0  0  0  0  0  0
   -3.2192    1.0507    1.2568 H   0  0  0  0  0  0  0  0  0  0  0  0
   -2.8872    2.7005    0.6125 H   0  0  0  0  0  0  0  0  0  0  0  0
   -2.2648    1.7683   -1.5749 H   0  0  0  0  0  0  0  0  0  0  0  0
   -3.9347    1.2552   -1.1625 H   0  0  0  0  0  0  0  0  0  0  0  0
  1  2  1  0
  2  3  1  0
  3  4  1  0
  4  5  2  0
  5  6  1  0
  6  7  2  0
  7  8  1  0
  7  9  1  0
  9 10  2  0
  3 11  1  0
 11 12  2  0
 11 13  2  0
 11 14  1  0
 14 15  1  0
 15 16  1  0
 16 17  2  0
 16  2  1  0
 10  4  1  0
  1 18  1  0
  1 19  1  0
  1 20  1  0
  3 21  1  0
  5 22  1  0
  6 23  1  0
  9 24  1  0
 10 25  1  0
 14 26  1  0
 14 27  1  0
 15 28  1  0
 15 29  1  0
M  END
$$$$
