
     RDKit          3D

 80 82  0  0  0  0  0  0  0  0999 V2000
    2.3014   -2.5364    3.1054 C   0  0  0  0  0  0  0  0  0  0  0  0
    2.6401   -1.9572    1.7511 C   0  0  0  0  0  0  0  0  0  0  0  0
    2.0854   -0.5288    1.6805 C   0  0  0  0  0  0  0  0  0  0  0  0
    2.4521    0.0211    0.2835 C   0  0  2  0  0  0  0  0  0  0  0  0
    3.8730   -0.0212    0.2259 N   0  0  0  0  0  0  0  0  0  0  0  0
    4.4888    0.3560   -0.9977 C   0  0  1  0  0  0  0  0  0  0  0  0
    6.0074    0.2784   -0.8266 C   0  0  0  0  0  0  0  0  0  0  0  0
    6.4562   -1.1195   -0.4661 C   0  0  0  0  0  0  0  0  0  0  0  0
    7.9451   -1.0830   -0.3254 C   0  0  0  0  0  0  0  0  0  0  0  0
    8.7778   -1.3246   -1.3976 C   0  0  0  0  0  0  0  0  0  0  0  0
   10.1650   -1.2844   -1.2518 C   0  0  0  0  0  0  0  0  0  0  0  0
   10.7475   -1.0035   -0.0386 C   0  0  0  0  0  0  0  0  0  0  0  0
    9.9039   -0.7613    1.0367 C   0  0  0  0  0  0  0  0  0  0  0  0
    8.5377   -0.8003    0.8962 C   0  0  0  0  0  0  0  0  0  0  0  0
    4.1593   -0.4991   -2.1411 C   0  0  0  0  0  0  0  0  0  0  0  0
    3.4018   -1.4829   -2.0241 O   0  0  0  0  0  0  0  0  0  0  0  0
    4.6971   -0.2134   -3.3788 O   0  0  0  0  0  0  0  0  0  0  0  0
    1.9026    1.4005    0.1865 C   0  0  0  0  0  0  0  0  0  0  0  0
    2.6925    2.3787    0.1355 O   0  0  0  0  0  0  0  0  0  0  0  0
    0.5103    1.6715    0.1472 N   0  0  0  0  0  0  0  0  0  0  0  0
   -0.6259    0.7737    0.1836 C   0  0  0  0  0  0  0  0  0  0  0  0
   -1.7231    1.4221   -0.6338 C   0  0  1  0  0  0  0  0  0  0  0  0
   -2.9279    1.4592    0.1393 N   0  0  0  0  0  0  0  0  0  0  0  0
   -4.1401    0.8019   -0.2074 C   0  0  0  0  0  0  0  0  0  0  0  0
   -4.1837    0.1373   -1.2549 O   0  0  0  0  0  0  0  0  0  0  0  0
   -5.3558    0.8835    0.6403 C   0  0  0  0  0  0  0  0  0  0  0  0
   -6.4767    0.0783    0.0162 C   0  0  2  0  0  0  0  0  0  0  0  0
   -6.7862    0.5990   -1.3117 N   0  0  0  0  0  0  0  0  0  0  0  0
   -7.7142    0.1006    0.8976 C   0  0  0  0  0  0  0  0  0  0  0  0
   -8.8180   -0.6865    0.2946 C   0  0  0  0  0  0  0  0  0  0  0  0
   -9.8629   -0.0412   -0.3121 C   0  0  0  0  0  0  0  0  0  0  0  0
  -10.8830   -0.7600   -0.8715 C   0  0  0  0  0  0  0  0  0  0  0  0
  -11.9168   -0.0990   -1.4727 F   0  0  0  0  0  0  0  0  0  0  0  0
  -10.8650   -2.1454   -0.8276 C   0  0  0  0  0  0  0  0  0  0  0  0
  -11.8894   -2.8460   -1.3904 F   0  0  0  0  0  0  0  0  0  0  0  0
   -9.8303   -2.7948   -0.2265 C   0  0  0  0  0  0  0  0  0  0  0  0
   -8.8136   -2.0797    0.3311 C   0  0  0  0  0  0  0  0  0  0  0  0
   -7.7621   -2.7053    0.9414 F   0  0  0  0  0  0  0  0  0  0  0  0
   -1.1808    2.7988   -0.9396 C   0  0  0  0  0  0  0  0  0  0  0  0
   -0.0607    3.0013    0.0548 C   0  0  1  0  0  0  0  0  0  0  0  0
   -0.6670    3.4239    1.3386 C   0  0  0  0  0  0  0  0  0  0  0  0
   -0.6534    2.7115    2.3688 O   0  0  0  0  0  0  0  0  0  0  0  0
   -1.2827    4.6666    1.4164 O   0  0  0  0  0  0  0  0  0  0  0  0
    2.8749   -3.4378    3.3422 H   0  0  0  0  0  0  0  0  0  0  0  0
    2.4501   -1.7908    3.9319 H   0  0  0  0  0  0  0  0  0  0  0  0
    1.2175   -2.8303    3.0987 H   0  0  0  0  0  0  0  0  0  0  0  0
    3.7365   -1.9690    1.5913 H   0  0  0  0  0  0  0  0  0  0  0  0
    2.1509   -2.5534    0.9795 H   0  0  0  0  0  0  0  0  0  0  0  0
    0.9873   -0.6485    1.6868 H   0  0  0  0  0  0  0  0  0  0  0  0
    2.4771    0.1109    2.4742 H   0  0  0  0  0  0  0  0  0  0  0  0
    1.9442   -0.6255   -0.4343 H   0  0  0  0  0  0  0  0  0  0  0  0
    4.2577    0.5822    0.9879 H   0  0  0  0  0  0  0  0  0  0  0  0
    4.2860    1.4242   -1.2069 H   0  0  0  0  0  0  0  0  0  0  0  0
    6.4655    0.5560   -1.7965 H   0  0  0  0  0  0  0  0  0  0  0  0
    6.2870    0.9443   -0.0017 H   0  0  0  0  0  0  0  0  0  0  0  0
    6.0276   -1.4540    0.4811 H   0  0  0  0  0  0  0  0  0  0  0  0
    6.2353   -1.8604   -1.2600 H   0  0  0  0  0  0  0  0  0  0  0  0
    8.3524   -1.5502   -2.3714 H   0  0  0  0  0  0  0  0  0  0  0  0
   10.8321   -1.4753   -2.0991 H   0  0  0  0  0  0  0  0  0  0  0  0
   11.8236   -0.9705    0.0832 H   0  0  0  0  0  0  0  0  0  0  0  0
   10.3590   -0.5390    1.9971 H   0  0  0  0  0  0  0  0  0  0  0  0
    7.8608   -0.6148    1.7204 H   0  0  0  0  0  0  0  0  0  0  0  0
    4.7032   -0.8805   -4.1529 H   0  0  0  0  0  0  0  0  0  0  0  0
   -0.9465    0.6865    1.2560 H   0  0  0  0  0  0  0  0  0  0  0  0
   -0.3794   -0.2314   -0.2192 H   0  0  0  0  0  0  0  0  0  0  0  0
   -1.8275    0.8230   -1.5680 H   0  0  0  0  0  0  0  0  0  0  0  0
   -2.9389    2.0049    1.0281 H   0  0  0  0  0  0  0  0  0  0  0  0
   -5.1613    0.5580    1.6712 H   0  0  0  0  0  0  0  0  0  0  0  0
   -5.6820    1.9452    0.7072 H   0  0  0  0  0  0  0  0  0  0  0  0
   -6.1853   -0.9828   -0.1164 H   0  0  0  0  0  0  0  0  0  0  0  0
   -6.2707    1.4741   -1.5088 H   0  0  0  0  0  0  0  0  0  0  0  0
   -6.6370   -0.1035   -2.0518 H   0  0  0  0  0  0  0  0  0  0  0  0
   -7.9954    1.1459    1.0515 H   0  0  0  0  0  0  0  0  0  0  0  0
   -7.4978   -0.3387    1.8918 H   0  0  0  0  0  0  0  0  0  0  0  0
   -9.8655    1.0565   -0.3406 H   0  0  0  0  0  0  0  0  0  0  0  0
   -9.7994   -3.8779   -0.1827 H   0  0  0  0  0  0  0  0  0  0  0  0
   -0.7444    2.8021   -1.9428 H   0  0  0  0  0  0  0  0  0  0  0  0
   -1.9204    3.6019   -0.7563 H   0  0  0  0  0  0  0  0  0  0  0  0
    0.6844    3.7425   -0.3135 H   0  0  0  0  0  0  0  0  0  0  0  0
   -1.4873    5.0856    2.3300 H   0  0  0  0  0  0  0  0  0  0  0  0
  1  2  1  0
  2  3  1  0
  3  4  1  0
  4  5  1  0
  5  6  1  0
  6  7  1  0
  7  8  1  0
  8  9  1  0
  9 10  2  0
 10 11  1  0
 11 12  2  0
 12 13  1  0
 13 14  2  0
  6 15  1  0
 15 16  2  0
 15 17  1  0
  4 18  1  0
 18 19  2  0
 18 20  1  0
 20 21  1  0
 21 22  1  0
 22 23  1  0
 23 24  1  0
 24 25  2  0
 24 26  1  0
 26 27  1  0
 27 28  1  0
 27 29  1  0
 29 30  1  0
 30 31  2  0
 31 32  1  0
 32 33  1  0
 32 34  2  0
 34 35  1  0
 34 36  1  0
 36 37  2  0
 37 38  1  0
 22 39  1  0
 39 40  1  0
 40 41  1  0
 41 42  2  0
 41 43  1  0
 14  9  1  0
 40 20  1  0
 37 30  1  0
  1 44  1  0
  1 45  1  0
  1 46  1  0
  2 47  1  0
  2 48  1  0
  3 49  1  0
  3 50  1  0
  4 51  1  6
  5 52  1  0
  6 53  1  6
  7 54  1  0
  7 55  1  0
  8 56  1  0
  8 57  1  0
 10 58  1  0
 11 59  1  0
 12 60  1  0
 13 61  1  0
 14 62  1  0
 17 63  1  0
 21 64  1  0
 21 65  1  0
 22 66  1  6
 23 67  1  0
 26 68  1  0
 26 69  1  0
 27 70  1  6
 28 71  1  0
 28 72  1  0
 29 73  1  0
 29 74  1  0
 31 75  1  0
 36 76  1  0
 39 77  1  0
 39 78  1  0
 40 79  1  6
 43 80  1  0
M  END
$$$$
