
     RDKit          3D

 52 56  0  0  0  0  0  0  0  0999 V2000
    4.1897    3.3125    0.4764 O   0  0  0  0  0  0  0  0  0  0  0  0
    4.9969    2.3480    0.4575 C   0  0  0  0  0  0  0  0  0  0  0  0
    5.9246    2.2725    1.4856 O   0  0  0  0  0  0  0  0  0  0  0  0
    4.9272    1.3583   -0.6331 C   0  0  0  0  0  0  0  0  0  0  0  0
    3.9755    0.3104   -0.2696 N   0  0  0  0  0  0  0  0  0  0  0  0
    2.6416    0.3962   -0.5742 C   0  0  0  0  0  0  0  0  0  0  0  0
    2.0823   -0.7492   -0.0857 C   0  0  0  0  0  0  0  0  0  0  0  0
    3.0763   -1.5331    0.5170 C   0  0  0  0  0  0  0  0  0  0  0  0
    3.0651   -2.7509    1.1511 C   0  0  0  0  0  0  0  0  0  0  0  0
    4.2407   -3.3057    1.6702 C   0  0  0  0  0  0  0  0  0  0  0  0
    4.2451   -4.4987    2.2960 F   0  0  0  0  0  0  0  0  0  0  0  0
    5.4217   -2.6114    1.5377 C   0  0  0  0  0  0  0  0  0  0  0  0
    5.4122   -1.3953    0.9009 C   0  0  0  0  0  0  0  0  0  0  0  0
    4.2452   -0.8280    0.3771 C   0  0  0  0  0  0  0  0  0  0  0  0
    0.6317   -1.0267   -0.2227 C   0  0  0  0  0  0  0  0  0  0  0  0
   -0.0317    0.0679   -0.8865 N   0  0  0  0  0  0  0  0  0  0  0  0
   -1.3635    0.4250   -0.5374 C   0  0  0  0  0  0  0  0  0  0  0  0
   -1.9624    1.3868   -1.1087 O   0  0  0  0  0  0  0  0  0  0  0  0
   -2.1001   -0.3200    0.5133 C   0  0  0  0  0  0  0  0  0  0  0  0
   -3.4462    0.2401    0.7023 C   0  0  0  0  0  0  0  0  0  0  0  0
   -3.6960    1.0380    1.8103 C   0  0  0  0  0  0  0  0  0  0  0  0
   -4.9371    1.5918    2.0383 C   0  0  0  0  0  0  0  0  0  0  0  0
   -5.9321    1.3261    1.1238 C   0  0  0  0  0  0  0  0  0  0  0  0
   -5.7263    0.5405    0.0126 C   0  0  0  0  0  0  0  0  0  0  0  0
   -6.7751    0.3158   -0.8663 C   0  0  0  0  0  0  0  0  0  0  0  0
   -6.5526   -0.4719   -1.9725 C   0  0  0  0  0  0  0  0  0  0  0  0
   -5.3044   -1.0033   -2.1629 C   0  0  0  0  0  0  0  0  0  0  0  0
   -4.2702   -0.7779   -1.2899 C   0  0  0  0  0  0  0  0  0  0  0  0
   -4.4706    0.0064   -0.1780 C   0  0  0  0  0  0  0  0  0  0  0  0
    0.6735    0.8179   -1.9253 C   0  0  0  0  0  0  0  0  0  0  0  0
    1.8727    1.4651   -1.2774 C   0  0  0  0  0  0  0  0  0  0  0  0
    5.9996    3.0277    2.1561 H   0  0  0  0  0  0  0  0  0  0  0  0
    4.5777    1.8263   -1.5682 H   0  0  0  0  0  0  0  0  0  0  0  0
    5.9415    0.9030   -0.7380 H   0  0  0  0  0  0  0  0  0  0  0  0
    2.1443   -3.2909    1.2539 H   0  0  0  0  0  0  0  0  0  0  0  0
    6.3266   -3.0587    1.9469 H   0  0  0  0  0  0  0  0  0  0  0  0
    6.3379   -0.8597    0.8025 H   0  0  0  0  0  0  0  0  0  0  0  0
    0.2041   -1.0948    0.8080 H   0  0  0  0  0  0  0  0  0  0  0  0
    0.4544   -1.9987   -0.7510 H   0  0  0  0  0  0  0  0  0  0  0  0
   -1.5047   -0.2027    1.4642 H   0  0  0  0  0  0  0  0  0  0  0  0
   -2.1167   -1.4119    0.3064 H   0  0  0  0  0  0  0  0  0  0  0  0
   -2.9042    1.2356    2.5185 H   0  0  0  0  0  0  0  0  0  0  0  0
   -5.1152    2.2124    2.9050 H   0  0  0  0  0  0  0  0  0  0  0  0
   -6.9185    1.7662    1.3053 H   0  0  0  0  0  0  0  0  0  0  0  0
   -7.7179    0.7655   -0.6485 H   0  0  0  0  0  0  0  0  0  0  0  0
   -7.3940   -0.6425   -2.6619 H   0  0  0  0  0  0  0  0  0  0  0  0
   -5.1643   -1.6228   -3.0512 H   0  0  0  0  0  0  0  0  0  0  0  0
   -3.3112   -1.2199   -1.4900 H   0  0  0  0  0  0  0  0  0  0  0  0
    1.0827    0.0615   -2.6438 H   0  0  0  0  0  0  0  0  0  0  0  0
   -0.0094    1.5256   -2.3964 H   0  0  0  0  0  0  0  0  0  0  0  0
    2.4633    1.9370   -2.0952 H   0  0  0  0  0  0  0  0  0  0  0  0
    1.5702    2.1947   -0.5024 H   0  0  0  0  0  0  0  0  0  0  0  0
  1  2  2  0
  2  3  1  0
  2  4  1  0
  4  5  1  0
  5  6  1  0
  6  7  2  0
  7  8  1  0
  8  9  2  0
  9 10  1  0
 10 11  1  0
 10 12  2  0
 12 13  1  0
 13 14  2  0
  7 15  1  0
 15 16  1  0
 16 17  1  0
 17 18  2  0
 17 19  1  0
 19 20  1  0
 20 21  2  0
 21 22  1  0
 22 23  2  0
 23 24  1  0
 24 25  2  0
 25 26  1  0
 26 27  2  0
 27 28  1  0
 28 29  2  0
 16 30  1  0
 30 31  1  0
 14  5  1  0
 29 20  1  0
 31  6  1  0
 14  8  1  0
 29 24  1  0
  3 32  1  0
  4 33  1  0
  4 34  1  0
  9 35  1  0
 12 36  1  0
 13 37  1  0
 15 38  1  0
 15 39  1  0
 19 40  1  0
 19 41  1  0
 21 42  1  0
 22 43  1  0
 23 44  1  0
 25 45  1  0
 26 46  1  0
 27 47  1  0
 28 48  1  0
 30 49  1  0
 30 50  1  0
 31 51  1  0
 31 52  1  0
M  END
$$$$
