
     RDKit          3D

 59 63  0  0  0  0  0  0  0  0999 V2000
   -8.1522    1.6950    1.7582 O   0  0  0  0  0  0  0  0  0  0  0  0
   -8.0963    0.6253    1.1026 C   0  0  0  0  0  0  0  0  0  0  0  0
   -7.8551   -0.5517    1.7950 O   0  0  0  0  0  0  0  0  0  0  0  0
   -8.2790    0.5970   -0.3644 C   0  0  0  0  0  0  0  0  0  0  0  0
   -7.0259    0.9981   -1.0880 C   0  0  1  0  0  0  0  0  0  0  0  0
   -6.5438    2.3799   -0.7663 C   0  0  0  0  0  0  0  0  0  0  0  0
   -5.1064    2.3163   -1.3043 C   0  0  0  0  0  0  0  0  0  0  0  0
   -4.7149    0.9372   -0.8634 C   0  0  0  0  0  0  0  0  0  0  0  0
   -5.8679    0.1605   -0.7363 C   0  0  0  0  0  0  0  0  0  0  0  0
   -5.4902   -1.0521   -0.3440 N   0  0  0  0  0  0  0  0  0  0  0  0
   -4.1555   -1.1257   -0.2036 C   0  0  0  0  0  0  0  0  0  0  0  0
   -3.3209   -2.1668    0.1783 C   0  0  0  0  0  0  0  0  0  0  0  0
   -1.9631   -1.9361    0.2306 C   0  0  0  0  0  0  0  0  0  0  0  0
   -1.4106   -0.7021   -0.0854 C   0  0  0  0  0  0  0  0  0  0  0  0
   -0.0397   -0.5021   -0.0231 O   0  0  0  0  0  0  0  0  0  0  0  0
    0.7800   -1.5612    0.3631 C   0  0  0  0  0  0  0  0  0  0  0  0
    2.2161   -1.2049    0.3848 C   0  0  0  0  0  0  0  0  0  0  0  0
    2.8519   -0.6951    1.4959 C   0  0  0  0  0  0  0  0  0  0  0  0
    4.2170   -0.3780    1.4526 C   0  0  0  0  0  0  0  0  0  0  0  0
    4.9577   -0.5657    0.3050 C   0  0  0  0  0  0  0  0  0  0  0  0
    6.3918   -0.2335    0.2414 C   0  0  0  0  0  0  0  0  0  0  0  0
    6.6288    1.1955   -0.1767 C   0  0  0  0  0  0  0  0  0  0  0  0
    7.2433    1.9191    0.9670 C   0  0  0  0  0  0  0  0  0  0  0  0
    7.3708    0.9684    2.1096 C   0  0  0  0  0  0  0  0  0  0  0  0
    7.1094   -0.3698    1.5289 C   0  0  0  0  0  0  0  0  0  0  0  0
    4.3412   -1.0722   -0.8098 C   0  0  0  0  0  0  0  0  0  0  0  0
    5.0866   -1.2948   -2.0391 C   0  0  0  0  0  0  0  0  0  0  0  0
    5.6766   -0.1697   -2.5667 F   0  0  0  0  0  0  0  0  0  0  0  0
    4.1751   -1.6998   -3.0374 F   0  0  0  0  0  0  0  0  0  0  0  0
    5.9508   -2.3726   -1.9287 F   0  0  0  0  0  0  0  0  0  0  0  0
    2.9811   -1.3799   -0.7414 C   0  0  0  0  0  0  0  0  0  0  0  0
   -2.2834    0.3094   -0.4618 C   0  0  0  0  0  0  0  0  0  0  0  0
   -3.6488    0.1188   -0.5266 C   0  0  0  0  0  0  0  0  0  0  0  0
   -8.1039   -0.5623    2.7975 H   0  0  0  0  0  0  0  0  0  0  0  0
   -8.6080   -0.3920   -0.7278 H   0  0  0  0  0  0  0  0  0  0  0  0
   -9.0980    1.3084   -0.6551 H   0  0  0  0  0  0  0  0  0  0  0  0
   -7.1788    0.9200   -2.1901 H   0  0  0  0  0  0  0  0  0  0  0  0
   -6.4957    2.5055    0.3269 H   0  0  0  0  0  0  0  0  0  0  0  0
   -7.1040    3.1773   -1.2788 H   0  0  0  0  0  0  0  0  0  0  0  0
   -4.4819    3.0967   -0.8535 H   0  0  0  0  0  0  0  0  0  0  0  0
   -5.1086    2.3239   -2.4003 H   0  0  0  0  0  0  0  0  0  0  0  0
   -6.1334   -1.8437   -0.1674 H   0  0  0  0  0  0  0  0  0  0  0  0
   -3.6811   -3.1505    0.4368 H   0  0  0  0  0  0  0  0  0  0  0  0
   -1.2910   -2.7414    0.5284 H   0  0  0  0  0  0  0  0  0  0  0  0
    0.5948   -2.4424   -0.2940 H   0  0  0  0  0  0  0  0  0  0  0  0
    0.4662   -1.8467    1.4106 H   0  0  0  0  0  0  0  0  0  0  0  0
    2.2836   -0.5480    2.3866 H   0  0  0  0  0  0  0  0  0  0  0  0
    4.6520    0.0132    2.3501 H   0  0  0  0  0  0  0  0  0  0  0  0
    6.9064   -0.8407   -0.5755 H   0  0  0  0  0  0  0  0  0  0  0  0
    7.3313    1.2924   -1.0462 H   0  0  0  0  0  0  0  0  0  0  0  0
    5.6829    1.6850   -0.5322 H   0  0  0  0  0  0  0  0  0  0  0  0
    8.2786    2.3041    0.7258 H   0  0  0  0  0  0  0  0  0  0  0  0
    6.6833    2.8342    1.2651 H   0  0  0  0  0  0  0  0  0  0  0  0
    8.4129    0.9690    2.5302 H   0  0  0  0  0  0  0  0  0  0  0  0
    6.6295    1.1819    2.9136 H   0  0  0  0  0  0  0  0  0  0  0  0
    8.1012   -0.8628    1.3057 H   0  0  0  0  0  0  0  0  0  0  0  0
    6.6188   -1.0657    2.2480 H   0  0  0  0  0  0  0  0  0  0  0  0
    2.4804   -1.7863   -1.6334 H   0  0  0  0  0  0  0  0  0  0  0  0
   -1.8617    1.2841   -0.7137 H   0  0  0  0  0  0  0  0  0  0  0  0
  1  2  2  0
  2  3  1  0
  2  4  1  0
  4  5  1  0
  5  6  1  0
  6  7  1  0
  7  8  1  0
  8  9  2  0
  9 10  1  0
 10 11  1  0
 11 12  2  0
 12 13  1  0
 13 14  2  0
 14 15  1  0
 15 16  1  0
 16 17  1  0
 17 18  2  0
 18 19  1  0
 19 20  2  0
 20 21  1  0
 21 22  1  0
 22 23  1  0
 23 24  1  0
 24 25  1  0
 20 26  1  0
 26 27  1  0
 27 28  1  0
 27 29  1  0
 27 30  1  0
 26 31  2  0
 14 32  1  0
 32 33  2  0
  9  5  1  0
 33 11  1  0
 33  8  1  0
 31 17  1  0
 25 21  1  0
  3 34  1  0
  4 35  1  0
  4 36  1  0
  5 37  1  6
  6 38  1  0
  6 39  1  0
  7 40  1  0
  7 41  1  0
 10 42  1  0
 12 43  1  0
 13 44  1  0
 16 45  1  0
 16 46  1  0
 18 47  1  0
 19 48  1  0
 21 49  1  0
 22 50  1  0
 22 51  1  0
 23 52  1  0
 23 53  1  0
 24 54  1  0
 24 55  1  0
 25 56  1  0
 25 57  1  0
 31 58  1  0
 32 59  1  0
M  END
$$$$
