
     RDKit          3D

 51 55  0  0  0  0  0  0  0  0999 V2000
   -6.5169    2.3539   -1.7575 N   0  0  0  0  0  0  0  0  0  0  0  0
   -6.0260    1.3959   -0.8142 C   0  0  0  0  0  0  0  0  0  0  0  0
   -4.7692    1.3309   -0.6162 N   0  0  0  0  0  0  0  0  0  0  0  0
   -4.0849    0.4371    0.2887 C   0  0  1  0  0  0  0  0  0  0  0  0
   -3.1546   -0.3773   -0.5116 C   0  0  0  0  0  0  0  0  0  0  0  0
   -1.7908   -0.4594   -0.3466 C   0  0  0  0  0  0  0  0  0  0  0  0
   -0.9462   -1.2343   -1.0925 C   0  0  0  0  0  0  0  0  0  0  0  0
    0.4577   -1.3268   -0.9344 N   0  0  0  0  0  0  0  0  0  0  0  0
    1.2316   -0.6326    0.0165 C   0  0  0  0  0  0  0  0  0  0  0  0
    0.7340    0.1597    0.8406 O   0  0  0  0  0  0  0  0  0  0  0  0
    2.6913   -0.7990    0.1000 C   0  0  0  0  0  0  0  0  0  0  0  0
    3.4763   -0.1423    1.0095 C   0  0  0  0  0  0  0  0  0  0  0  0
    4.8106   -0.3660    1.0027 N   0  0  0  0  0  0  0  0  0  0  0  0
    5.3853   -1.2115    0.1316 C   0  0  0  0  0  0  0  0  0  0  0  0
    6.7347   -1.4759    0.0812 O   0  0  0  0  0  0  0  0  0  0  0  0
    7.6376   -0.8603    0.9630 C   0  0  0  0  0  0  0  0  0  0  0  0
    7.6036    0.6214    0.7985 C   0  0  0  0  0  0  0  0  0  0  0  0
    8.3130    1.4539   -0.0413 C   0  0  0  0  0  0  0  0  0  0  0  0
    8.0150    2.7409    0.1057 N   0  0  0  0  0  0  0  0  0  0  0  0
    7.2973    3.2562    0.7845 C   0  0  0  0  0  0  0  0  0  0  0  0
    6.5691    1.7767    1.7251 S   0  0  0  0  0  0  0  0  0  0  0  0
    4.5724   -1.8769   -0.7933 C   0  0  0  0  0  0  0  0  0  0  0  0
    3.2677   -1.6404   -0.7660 N   0  0  0  0  0  0  0  0  0  0  0  0
   -1.5208   -2.0093   -2.1096 C   0  0  0  0  0  0  0  0  0  0  0  0
   -2.8717   -1.9561   -2.3053 C   0  0  0  0  0  0  0  0  0  0  0  0
   -3.6903   -1.1597   -1.5296 C   0  0  0  0  0  0  0  0  0  0  0  0
   -5.0119   -1.1888   -1.8160 F   0  0  0  0  0  0  0  0  0  0  0  0
   -3.2709    1.3589    1.1871 C   0  0  0  0  0  0  0  0  0  0  0  0
   -2.4240    2.0774    0.3638 F   0  0  0  0  0  0  0  0  0  0  0  0
   -4.0765    2.2912    1.8095 F   0  0  0  0  0  0  0  0  0  0  0  0
   -4.9979   -0.4490    1.0925 C   0  0  1  0  0  0  0  0  0  0  0  0
   -5.8780    0.0497    2.1464 C   0  0  0  0  0  0  0  0  0  0  0  0
   -6.4175   -0.4140    0.7770 C   0  0  1  0  0  0  0  0  0  0  0  0
   -6.8516    0.5494   -0.1187 O   0  0  0  0  0  0  0  0  0  0  0  0
   -6.8208    3.2833   -1.4565 H   0  0  0  0  0  0  0  0  0  0  0  0
   -6.5513    2.0676   -2.7532 H   0  0  0  0  0  0  0  0  0  0  0  0
   -1.3770    0.1295    0.4407 H   0  0  0  0  0  0  0  0  0  0  0  0
    1.0054   -1.9747   -1.5818 H   0  0  0  0  0  0  0  0  0  0  0  0
    3.0141    0.5445    1.7180 H   0  0  0  0  0  0  0  0  0  0  0  0
    8.6826   -1.2057    0.7972 H   0  0  0  0  0  0  0  0  0  0  0  0
    7.3520   -1.1511    2.0009 H   0  0  0  0  0  0  0  0  0  0  0  0
    9.0543    1.0265   -0.7557 H   0  0  0  0  0  0  0  0  0  0  0  0
    6.8365    4.2807    1.1332 H   0  0  0  0  0  0  0  0  0  0  0  0
    5.0432   -2.5676   -1.5047 H   0  0  0  0  0  0  0  0  0  0  0  0
   -0.8728   -2.6489   -2.7346 H   0  0  0  0  0  0  0  0  0  0  0  0
   -3.2894   -2.5644   -3.0969 H   0  0  0  0  0  0  0  0  0  0  0  0
   -2.7397    0.8120    1.9761 H   0  0  0  0  0  0  0  0  0  0  0  0
   -4.5667   -1.4708    1.2703 H   0  0  0  0  0  0  0  0  0  0  0  0
   -6.1074   -0.6125    3.0221 H   0  0  0  0  0  0  0  0  0  0  0  0
   -6.0982    1.0994    2.3448 H   0  0  0  0  0  0  0  0  0  0  0  0
   -7.0620   -1.3211    0.8213 H   0  0  0  0  0  0  0  0  0  0  0  0
  1  2  1  0
  2  3  2  0
  3  4  1  0
  4  5  1  0
  5  6  2  0
  6  7  1  0
  7  8  1  0
  8  9  1  0
  9 10  2  0
  9 11  1  0
 11 12  2  0
 12 13  1  0
 13 14  2  0
 14 15  1  0
 15 16  1  0
 16 17  1  0
 17 18  2  0
 18 19  1  0
 19 20  2  0
 20 21  1  0
 14 22  1  0
 22 23  2  0
  7 24  2  0
 24 25  1  0
 25 26  2  0
 26 27  1  0
  4 28  1  1
 28 29  1  0
 28 30  1  0
  4 31  1  0
 31 32  1  0
 32 33  1  0
 33 34  1  0
 34  2  1  0
 26  5  1  0
 33 31  1  0
 23 11  1  0
 21 17  1  0
  1 35  1  0
  1 36  1  0
  6 37  1  0
  8 38  1  0
 12 39  1  0
 16 40  1  0
 16 41  1  0
 18 42  1  0
 20 43  1  0
 22 44  1  0
 24 45  1  0
 25 46  1  0
 28 47  1  0
 31 48  1  1
 32 49  1  0
 32 50  1  0
 33 51  1  1
M  END
$$$$
