
     RDKit          3D

 38 40  0  0  0  0  0  0  0  0999 V2000
   -1.4413    2.7328    0.5956 C   0  0  0  0  0  0  0  0  0  0  0  0
   -2.6908    1.9902    0.4125 C   0  0  0  0  0  0  0  0  0  0  0  0
   -3.8370    2.1730    1.1553 C   0  0  0  0  0  0  0  0  0  0  0  0
   -4.9854    1.4415    0.9355 C   0  0  0  0  0  0  0  0  0  0  0  0
   -6.4253    1.6951    1.8948 Cl  0  0  0  0  0  0  0  0  0  0  0  0
   -5.0003    0.4898   -0.0603 C   0  0  0  0  0  0  0  0  0  0  0  0
   -3.8631    0.2932   -0.8133 C   0  0  0  0  0  0  0  0  0  0  0  0
   -2.7146    1.0210   -0.5976 C   0  0  0  0  0  0  0  0  0  0  0  0
   -1.5467    0.7925   -1.4334 C   0  0  0  0  0  0  0  0  0  0  0  0
   -0.4655    0.1467   -0.9150 O   0  0  0  0  0  0  0  0  0  0  0  0
   -0.3288   -1.1062   -0.4058 C   0  0  0  0  0  0  0  0  0  0  0  0
   -1.2822   -2.0818   -0.2838 C   0  0  0  0  0  0  0  0  0  0  0  0
   -0.7052   -3.2219    0.2976 C   0  0  0  0  0  0  0  0  0  0  0  0
    0.5610   -2.9044    0.5056 N   0  0  0  0  0  0  0  0  0  0  0  0
    0.8101   -1.6767    0.1053 N   0  0  0  0  0  0  0  0  0  0  0  0
    2.0561   -0.9997    0.1702 C   0  0  0  0  0  0  0  0  0  0  0  0
    3.2571   -1.6742    0.2042 C   0  0  0  0  0  0  0  0  0  0  0  0
    4.4707   -1.0299    0.2661 C   0  0  0  0  0  0  0  0  0  0  0  0
    5.7329   -1.7405    0.3018 C   0  0  0  0  0  0  0  0  0  0  0  0
    5.7328   -2.9958    0.2760 O   0  0  0  0  0  0  0  0  0  0  0  0
    6.9192   -1.0460    0.3634 O   0  0  0  0  0  0  0  0  0  0  0  0
    4.4484    0.3559    0.2940 C   0  0  0  0  0  0  0  0  0  0  0  0
    3.2469    1.0109    0.2596 C   0  0  0  0  0  0  0  0  0  0  0  0
    2.0944    0.3399    0.1996 N   0  0  0  0  0  0  0  0  0  0  0  0
   -0.9593    3.1031   -0.3069 H   0  0  0  0  0  0  0  0  0  0  0  0
   -0.7251    2.2030    1.2870 H   0  0  0  0  0  0  0  0  0  0  0  0
   -1.7130    3.6645    1.1781 H   0  0  0  0  0  0  0  0  0  0  0  0
   -3.8344    2.9178    1.9386 H   0  0  0  0  0  0  0  0  0  0  0  0
   -5.8995   -0.0805   -0.2304 H   0  0  0  0  0  0  0  0  0  0  0  0
   -3.8759   -0.4622   -1.6034 H   0  0  0  0  0  0  0  0  0  0  0  0
   -1.8972    0.2429   -2.3673 H   0  0  0  0  0  0  0  0  0  0  0  0
   -1.2545    1.8153   -1.8425 H   0  0  0  0  0  0  0  0  0  0  0  0
   -2.3206   -2.0525   -0.5689 H   0  0  0  0  0  0  0  0  0  0  0  0
   -1.2389   -4.1310    0.5037 H   0  0  0  0  0  0  0  0  0  0  0  0
    3.2866   -2.7568    0.1828 H   0  0  0  0  0  0  0  0  0  0  0  0
    7.7591   -1.4735   -0.0067 H   0  0  0  0  0  0  0  0  0  0  0  0
    5.3863    0.9002    0.3427 H   0  0  0  0  0  0  0  0  0  0  0  0
    3.2428    2.1045    0.2820 H   0  0  0  0  0  0  0  0  0  0  0  0
  1  2  1  0
  2  3  2  0
  3  4  1  0
  4  5  1  0
  4  6  2  0
  6  7  1  0
  7  8  2  0
  8  9  1  0
  9 10  1  0
 10 11  1  0
 11 12  2  0
 12 13  1  0
 13 14  2  0
 14 15  1  0
 15 16  1  0
 16 17  2  0
 17 18  1  0
 18 19  1  0
 19 20  2  0
 19 21  1  0
 18 22  2  0
 22 23  1  0
 23 24  2  0
  8  2  1  0
 15 11  1  0
 24 16  1  0
  1 25  1  0
  1 26  1  0
  1 27  1  0
  3 28  1  0
  6 29  1  0
  7 30  1  0
  9 31  1  0
  9 32  1  0
 12 33  1  0
 13 34  1  0
 17 35  1  0
 21 36  1  0
 22 37  1  0
 23 38  1  0
M  END
$$$$
