
     RDKit          3D

 32 35  0  0  0  0  0  0  0  0999 V2000
   -2.1873   -2.5767   -1.5247 C   0  0  0  0  0  0  0  0  0  0  0  0
   -1.3590   -1.8730   -0.5366 N   0  0  0  0  0  0  0  0  0  0  0  0
   -0.1846   -2.4101    0.0388 C   0  0  0  0  0  0  0  0  0  0  0  0
    0.3679   -3.5105   -0.1465 O   0  0  0  0  0  0  0  0  0  0  0  0
    0.3324   -1.3808    0.9731 C   0  0  0  0  0  0  0  0  0  0  0  0
    1.7034   -0.9479    0.6222 C   0  0  0  0  0  0  0  0  0  0  0  0
    2.6097   -1.0775    1.4806 O   0  0  0  0  0  0  0  0  0  0  0  0
    2.0587   -0.3963   -0.6213 N   0  0  0  0  0  0  0  0  0  0  0  0
    3.4041    0.0209   -0.9457 C   0  0  0  0  0  0  0  0  0  0  0  0
    4.0199    0.5125   -1.8830 N   0  0  0  0  0  0  0  0  0  0  0  0
    5.2743    0.7770   -1.8587 N   0  0  0  0  0  0  0  0  0  0  0  0
    6.0158    0.5707   -0.8930 C   0  0  0  0  0  0  0  0  0  0  0  0
    4.7207   -0.1595    0.2813 S   0  0  0  0  0  0  0  0  0  0  0  0
   -0.6174   -0.2398    0.8877 C   0  0  0  0  0  0  0  0  0  0  0  0
   -0.5795    0.9659    1.5641 C   0  0  0  0  0  0  0  0  0  0  0  0
   -1.5677    1.8994    1.3389 C   0  0  0  0  0  0  0  0  0  0  0  0
   -1.7698    3.0972    1.8343 O   0  0  0  0  0  0  0  0  0  0  0  0
   -2.8736    3.6069    1.2961 C   0  0  0  0  0  0  0  0  0  0  0  0
   -3.3972    2.6751    0.4096 C   0  0  0  0  0  0  0  0  0  0  0  0
   -2.5627    1.5904    0.4404 C   0  0  0  0  0  0  0  0  0  0  0  0
   -2.5867    0.3898   -0.2230 C   0  0  0  0  0  0  0  0  0  0  0  0
   -1.5985   -0.5747   -0.0145 C   0  0  0  0  0  0  0  0  0  0  0  0
   -1.5549   -3.0806   -2.2835 H   0  0  0  0  0  0  0  0  0  0  0  0
   -2.7550   -3.3701   -1.0033 H   0  0  0  0  0  0  0  0  0  0  0  0
   -2.8856   -1.8508   -1.9983 H   0  0  0  0  0  0  0  0  0  0  0  0
    0.3389   -1.7663    2.0005 H   0  0  0  0  0  0  0  0  0  0  0  0
    1.3613   -0.2689   -1.3543 H   0  0  0  0  0  0  0  0  0  0  0  0
    7.0270    0.6571   -0.5409 H   0  0  0  0  0  0  0  0  0  0  0  0
    0.1964    1.2235    2.2736 H   0  0  0  0  0  0  0  0  0  0  0  0
   -3.2997    4.5756    1.5036 H   0  0  0  0  0  0  0  0  0  0  0  0
   -4.2917    2.7892   -0.1873 H   0  0  0  0  0  0  0  0  0  0  0  0
   -3.3594    0.1324   -0.9301 H   0  0  0  0  0  0  0  0  0  0  0  0
  1  2  1  0
  2  3  1  0
  3  4  2  0
  3  5  1  0
  5  6  1  0
  6  7  2  0
  6  8  1  0
  8  9  1  0
  9 10  2  0
 10 11  1  0
 11 12  2  0
 12 13  1  0
  5 14  1  0
 14 15  2  0
 15 16  1  0
 16 17  1  0
 17 18  1  0
 18 19  2  0
 19 20  1  0
 20 21  1  0
 21 22  2  0
 22  2  1  0
 13  9  1  0
 22 14  1  0
 20 16  2  0
  1 23  1  0
  1 24  1  0
  1 25  1  0
  5 26  1  0
  8 27  1  0
 12 28  1  0
 15 29  1  0
 18 30  1  0
 19 31  1  0
 21 32  1  0
M  END
$$$$
