
     RDKit          3D

 62 64  0  0  0  0  0  0  0  0999 V2000
   -2.1143   -1.7281    1.7810 C   0  0  0  0  0  0  0  0  0  0  0  0
   -2.1884   -0.2298    1.5391 C   0  0  0  0  0  0  0  0  0  0  0  0
   -2.2787    0.4982    2.8238 C   0  0  0  0  0  0  0  0  0  0  0  0
   -3.3147    0.0616    0.6011 C   0  0  0  0  0  0  0  0  0  0  0  0
   -4.6525   -0.3404    1.0378 C   0  0  0  0  0  0  0  0  0  0  0  0
   -5.1144   -1.6039    0.6404 C   0  0  0  0  0  0  0  0  0  0  0  0
   -6.3492   -2.0130    1.0803 C   0  0  0  0  0  0  0  0  0  0  0  0
   -7.1783   -1.2673    1.8914 C   0  0  0  0  0  0  0  0  0  0  0  0
   -6.7224   -0.0273    2.2788 C   0  0  0  0  0  0  0  0  0  0  0  0
   -5.4667    0.4110    1.8420 C   0  0  0  0  0  0  0  0  0  0  0  0
   -5.0578    1.7439    2.2396 C   0  0  0  0  0  0  0  0  0  0  0  0
   -4.7498    2.8086    2.5654 N   0  0  0  0  0  0  0  0  0  0  0  0
   -0.9169    0.2594    0.8446 C   0  0  0  0  0  0  0  0  0  0  0  0
    0.1926   -0.0002    1.6091 O   0  0  0  0  0  0  0  0  0  0  0  0
    1.3784   -0.0335    0.8845 C   0  0  0  0  0  0  0  0  0  0  0  0
    1.1627    0.8011   -0.3861 C   0  0  0  0  0  0  0  0  0  0  0  0
    2.4391    1.2246   -1.0259 C   0  0  0  0  0  0  0  0  0  0  0  0
    3.3523    0.1699   -1.4461 C   0  0  0  0  0  0  0  0  0  0  0  0
    4.5901   -0.0101   -1.0139 C   0  0  0  0  0  0  0  0  0  0  0  0
    5.2674    0.8413   -0.0157 C   0  0  0  0  0  0  0  0  0  0  0  0
    6.5259    1.4608   -0.6525 C   0  0  0  0  0  0  0  0  0  0  0  0
    7.1851    2.3064    0.3572 C   0  0  0  0  0  0  0  0  0  0  0  0
    6.7072    2.4355    1.5113 O   0  0  0  0  0  0  0  0  0  0  0  0
    8.3559    2.9872    0.0636 O   0  0  0  0  0  0  0  0  0  0  0  0
    0.0807    0.2858   -1.2392 C   0  0  0  0  0  0  0  0  0  0  0  0
    0.4084   -0.7070   -2.2563 C   0  0  0  0  0  0  0  0  0  0  0  0
    0.5181   -0.3074   -3.5717 C   0  0  0  0  0  0  0  0  0  0  0  0
    0.8163   -1.2371   -4.5706 C   0  0  0  0  0  0  0  0  0  0  0  0
    1.0000   -2.5567   -4.2313 C   0  0  0  0  0  0  0  0  0  0  0  0
    0.8885   -2.9193   -2.9506 N   0  0  0  0  0  0  0  0  0  0  0  0
    0.6025   -2.0395   -1.9787 C   0  0  0  0  0  0  0  0  0  0  0  0
   -0.8740   -0.3294   -0.3882 O   0  0  0  0  0  0  0  0  0  0  0  0
   -2.0518   -2.2966    0.8302 H   0  0  0  0  0  0  0  0  0  0  0  0
   -1.2785   -1.9672    2.4571 H   0  0  0  0  0  0  0  0  0  0  0  0
   -3.0634   -2.0072    2.2942 H   0  0  0  0  0  0  0  0  0  0  0  0
   -3.0928    0.1555    3.4873 H   0  0  0  0  0  0  0  0  0  0  0  0
   -1.3216    0.2691    3.3859 H   0  0  0  0  0  0  0  0  0  0  0  0
   -2.2509    1.5871    2.6381 H   0  0  0  0  0  0  0  0  0  0  0  0
   -3.3319    1.1852    0.4501 H   0  0  0  0  0  0  0  0  0  0  0  0
   -3.0968   -0.3303   -0.4294 H   0  0  0  0  0  0  0  0  0  0  0  0
   -4.4973   -2.2464   -0.0072 H   0  0  0  0  0  0  0  0  0  0  0  0
   -6.7020   -2.9985    0.7676 H   0  0  0  0  0  0  0  0  0  0  0  0
   -8.1537   -1.6191    2.2240 H   0  0  0  0  0  0  0  0  0  0  0  0
   -7.3426    0.5928    2.9167 H   0  0  0  0  0  0  0  0  0  0  0  0
   -1.1139    1.3622    0.6928 H   0  0  0  0  0  0  0  0  0  0  0  0
    2.1395    0.5201    1.4738 H   0  0  0  0  0  0  0  0  0  0  0  0
    1.7521   -1.0346    0.6695 H   0  0  0  0  0  0  0  0  0  0  0  0
    0.7440    1.7820    0.0626 H   0  0  0  0  0  0  0  0  0  0  0  0
    2.9421    1.9161   -0.3223 H   0  0  0  0  0  0  0  0  0  0  0  0
    2.1440    1.8976   -1.8850 H   0  0  0  0  0  0  0  0  0  0  0  0
    3.0087   -0.5449   -2.1899 H   0  0  0  0  0  0  0  0  0  0  0  0
    5.1658   -0.8654   -1.4322 H   0  0  0  0  0  0  0  0  0  0  0  0
    4.7013    1.6958    0.3588 H   0  0  0  0  0  0  0  0  0  0  0  0
    5.6172    0.2187    0.8460 H   0  0  0  0  0  0  0  0  0  0  0  0
    7.1799    0.6929   -1.0784 H   0  0  0  0  0  0  0  0  0  0  0  0
    6.1518    2.0772   -1.5048 H   0  0  0  0  0  0  0  0  0  0  0  0
    8.7204    3.7651    0.5964 H   0  0  0  0  0  0  0  0  0  0  0  0
   -0.5128    1.1519   -1.6767 H   0  0  0  0  0  0  0  0  0  0  0  0
    0.3871    0.6966   -3.8929 H   0  0  0  0  0  0  0  0  0  0  0  0
    0.9096   -0.9586   -5.6143 H   0  0  0  0  0  0  0  0  0  0  0  0
    1.2319   -3.2651   -5.0283 H   0  0  0  0  0  0  0  0  0  0  0  0
    0.5210   -2.3773   -0.9539 H   0  0  0  0  0  0  0  0  0  0  0  0
  1  2  1  0
  2  3  1  0
  2  4  1  0
  4  5  1  0
  5  6  2  0
  6  7  1  0
  7  8  2  0
  8  9  1  0
  9 10  2  0
 10 11  1  0
 11 12  3  0
  2 13  1  0
 13 14  1  0
 14 15  1  0
 15 16  1  0
 16 17  1  0
 17 18  1  0
 18 19  2  0
 19 20  1  0
 20 21  1  0
 21 22  1  0
 22 23  2  0
 22 24  1  0
 16 25  1  0
 25 26  1  0
 26 27  2  0
 27 28  1  0
 28 29  2  0
 29 30  1  0
 30 31  2  0
 25 32  1  0
 10  5  1  0
 32 13  1  0
 31 26  1  0
  1 33  1  0
  1 34  1  0
  1 35  1  0
  3 36  1  0
  3 37  1  0
  3 38  1  0
  4 39  1  0
  4 40  1  0
  6 41  1  0
  7 42  1  0
  8 43  1  0
  9 44  1  0
 13 45  1  0
 15 46  1  0
 15 47  1  0
 16 48  1  0
 17 49  1  0
 17 50  1  0
 18 51  1  0
 19 52  1  0
 20 53  1  0
 20 54  1  0
 21 55  1  0
 21 56  1  0
 24 57  1  0
 25 58  1  0
 27 59  1  0
 28 60  1  0
 29 61  1  0
 31 62  1  0
M  END
$$$$
