
     RDKit          3D

 66 69  0  0  0  0  0  0  0  0999 V2000
    0.4141    2.5279    2.6307 C   0  0  0  0  0  0  0  0  0  0  0  0
    0.4925    2.1708    1.1592 C   0  0  1  0  0  0  0  0  0  0  0  0
    1.7862    1.5464    0.8134 C   0  0  0  0  0  0  0  0  0  0  0  0
    2.1441    0.2616    1.1398 C   0  0  0  0  0  0  0  0  0  0  0  0
    3.3709   -0.3057    0.7832 C   0  0  0  0  0  0  0  0  0  0  0  0
    4.2848    0.4234    0.0757 C   0  0  0  0  0  0  0  0  0  0  0  0
    5.5852   -0.1526   -0.3121 C   0  0  0  0  0  0  0  0  0  0  0  0
    6.6986    0.6393   -0.4259 C   0  0  0  0  0  0  0  0  0  0  0  0
    7.9089    0.1005   -0.7875 C   0  0  0  0  0  0  0  0  0  0  0  0
    8.0169   -1.2359   -1.0385 N   0  0  0  0  0  0  0  0  0  0  0  0
    9.2981   -1.7771   -1.4162 C   0  0  0  0  0  0  0  0  0  0  0  0
    6.9176   -2.0013   -0.9234 C   0  0  0  0  0  0  0  0  0  0  0  0
    7.0526   -3.2454   -1.1649 O   0  0  0  0  0  0  0  0  0  0  0  0
    5.6800   -1.5029   -0.5627 C   0  0  0  0  0  0  0  0  0  0  0  0
    3.9703    1.7018   -0.2676 C   0  0  0  0  0  0  0  0  0  0  0  0
    2.7621    2.2490    0.0875 C   0  0  0  0  0  0  0  0  0  0  0  0
   -0.6834    1.4862    0.7008 N   0  0  0  0  0  0  0  0  0  0  0  0
   -1.0885    0.2042    1.1997 C   0  0  0  0  0  0  0  0  0  0  0  0
   -2.5811    0.0111    1.2070 C   0  0  0  0  0  0  0  0  0  0  0  0
   -3.2939    0.3754   -0.0232 C   0  0  2  0  0  0  0  0  0  0  0  0
   -4.6297    0.9875    0.2384 C   0  0  0  0  0  0  0  0  0  0  0  0
   -5.6614    0.2518    0.9530 C   0  0  0  0  0  0  0  0  0  0  0  0
   -6.1144   -1.0465    0.3390 C   0  0  0  0  0  0  0  0  0  0  0  0
   -5.4691    0.0118    2.4256 C   0  0  0  0  0  0  0  0  0  0  0  0
   -6.8238    1.0791    0.8798 O   0  0  0  0  0  0  0  0  0  0  0  0
   -3.3714   -0.7236   -1.0617 C   0  0  0  0  0  0  0  0  0  0  0  0
   -2.8049   -1.9406   -0.8889 C   0  0  0  0  0  0  0  0  0  0  0  0
   -2.9031   -2.9074   -1.8561 C   0  0  0  0  0  0  0  0  0  0  0  0
   -3.5973   -2.6239   -3.0292 C   0  0  0  0  0  0  0  0  0  0  0  0
   -4.1685   -1.3781   -3.1892 C   0  0  0  0  0  0  0  0  0  0  0  0
   -4.0613   -0.4219   -2.2122 C   0  0  0  0  0  0  0  0  0  0  0  0
   -2.5869    1.4043   -0.7633 O   0  0  0  0  0  0  0  0  0  0  0  0
   -1.5324    2.0970   -0.2781 C   0  0  0  0  0  0  0  0  0  0  0  0
   -1.2714    3.2510   -0.6528 O   0  0  0  0  0  0  0  0  0  0  0  0
    0.1519    1.6666    3.2597 H   0  0  0  0  0  0  0  0  0  0  0  0
    1.3805    2.9799    2.9133 H   0  0  0  0  0  0  0  0  0  0  0  0
   -0.3623    3.3038    2.8007 H   0  0  0  0  0  0  0  0  0  0  0  0
    0.5157    3.1815    0.6345 H   0  0  0  0  0  0  0  0  0  0  0  0
    1.4818   -0.3761    1.7128 H   0  0  0  0  0  0  0  0  0  0  0  0
    3.6084   -1.3390    1.0688 H   0  0  0  0  0  0  0  0  0  0  0  0
    6.6585    1.7100   -0.2351 H   0  0  0  0  0  0  0  0  0  0  0  0
    8.7867    0.7211   -0.8778 H   0  0  0  0  0  0  0  0  0  0  0  0
    9.1844   -2.8876   -1.4871 H   0  0  0  0  0  0  0  0  0  0  0  0
    9.6575   -1.4148   -2.3994 H   0  0  0  0  0  0  0  0  0  0  0  0
   10.0927   -1.5682   -0.6601 H   0  0  0  0  0  0  0  0  0  0  0  0
    4.8443   -2.1813   -0.4917 H   0  0  0  0  0  0  0  0  0  0  0  0
    4.6711    2.3240   -0.8340 H   0  0  0  0  0  0  0  0  0  0  0  0
    2.5136    3.2723   -0.1882 H   0  0  0  0  0  0  0  0  0  0  0  0
   -0.5592   -0.5789    0.6304 H   0  0  0  0  0  0  0  0  0  0  0  0
   -0.7231    0.1240    2.2399 H   0  0  0  0  0  0  0  0  0  0  0  0
   -2.9564    0.6948    2.0271 H   0  0  0  0  0  0  0  0  0  0  0  0
   -2.8201   -1.0031    1.5566 H   0  0  0  0  0  0  0  0  0  0  0  0
   -4.4102    1.9167    0.8507 H   0  0  0  0  0  0  0  0  0  0  0  0
   -5.0826    1.4260   -0.6944 H   0  0  0  0  0  0  0  0  0  0  0  0
   -7.0087   -1.3688    0.9482 H   0  0  0  0  0  0  0  0  0  0  0  0
   -6.5214   -0.9091   -0.6878 H   0  0  0  0  0  0  0  0  0  0  0  0
   -5.3941   -1.8608    0.4231 H   0  0  0  0  0  0  0  0  0  0  0  0
   -4.9218   -0.9109    2.6742 H   0  0  0  0  0  0  0  0  0  0  0  0
   -6.5065   -0.1850    2.8407 H   0  0  0  0  0  0  0  0  0  0  0  0
   -5.1358    0.9077    2.9839 H   0  0  0  0  0  0  0  0  0  0  0  0
   -7.2768    0.8937    0.0098 H   0  0  0  0  0  0  0  0  0  0  0  0
   -2.2636   -2.1526    0.0259 H   0  0  0  0  0  0  0  0  0  0  0  0
   -2.4393   -3.8572   -1.6771 H   0  0  0  0  0  0  0  0  0  0  0  0
   -3.6669   -3.3913   -3.7803 H   0  0  0  0  0  0  0  0  0  0  0  0
   -4.7009   -1.1786   -4.1032 H   0  0  0  0  0  0  0  0  0  0  0  0
   -4.5375    0.5240   -2.4222 H   0  0  0  0  0  0  0  0  0  0  0  0
  1  2  1  0
  2  3  1  0
  3  4  2  0
  4  5  1  0
  5  6  2  0
  6  7  1  0
  7  8  1  0
  8  9  2  0
  9 10  1  0
 10 11  1  0
 10 12  1  0
 12 13  2  0
 12 14  1  0
  6 15  1  0
 15 16  2  0
  2 17  1  0
 17 18  1  0
 18 19  1  0
 19 20  1  0
 20 21  1  1
 21 22  1  0
 22 23  1  0
 22 24  1  0
 22 25  1  0
 20 26  1  0
 26 27  2  0
 27 28  1  0
 28 29  2  0
 29 30  1  0
 30 31  2  0
 20 32  1  0
 32 33  1  0
 33 34  2  0
 16  3  1  0
 33 17  1  0
 14  7  2  0
 31 26  1  0
  1 35  1  0
  1 36  1  0
  1 37  1  0
  2 38  1  6
  4 39  1  0
  5 40  1  0
  8 41  1  0
  9 42  1  0
 11 43  1  0
 11 44  1  0
 11 45  1  0
 14 46  1  0
 15 47  1  0
 16 48  1  0
 18 49  1  0
 18 50  1  0
 19 51  1  0
 19 52  1  0
 21 53  1  0
 21 54  1  0
 23 55  1  0
 23 56  1  0
 23 57  1  0
 24 58  1  0
 24 59  1  0
 24 60  1  0
 25 61  1  0
 27 62  1  0
 28 63  1  0
 29 64  1  0
 30 65  1  0
 31 66  1  0
M  END
$$$$
