
     RDKit          3D

 95100  0  0  0  0  0  0  0  0999 V2000
   11.3393    3.8907    1.6334 O   0  0  0  0  0  0  0  0  0  0  0  0
   10.4435    4.7669    1.5279 C   0  0  0  0  0  0  0  0  0  0  0  0
    9.0225    4.4719    1.6948 C   0  0  0  0  0  0  0  0  0  0  0  0
    8.7302    3.0292    1.9838 C   0  0  0  0  0  0  0  0  0  0  0  0
    9.1739    2.0816    0.9036 C   0  0  0  0  0  0  0  0  0  0  0  0
    8.5189    2.3329   -0.4128 C   0  0  0  0  0  0  0  0  0  0  0  0
    7.0077    2.1757   -0.3822 C   0  0  0  0  0  0  0  0  0  0  0  0
    6.6762    0.7653    0.0124 C   0  0  0  0  0  0  0  0  0  0  0  0
    5.1930    0.5818    0.0200 C   0  0  0  0  0  0  0  0  0  0  0  0
    4.3639    1.4927   -0.1848 O   0  0  0  0  0  0  0  0  0  0  0  0
    4.7368   -0.7321    0.2798 N   0  0  0  0  0  0  0  0  0  0  0  0
    3.3594   -1.1156    0.3267 C   0  0  0  0  0  0  0  0  0  0  0  0
    2.6887   -1.5109   -0.8166 C   0  0  0  0  0  0  0  0  0  0  0  0
    1.3677   -1.9106   -0.7897 C   0  0  0  0  0  0  0  0  0  0  0  0
    0.6424   -1.9363    0.3915 C   0  0  0  0  0  0  0  0  0  0  0  0
   -0.7827   -2.3783    0.4066 C   0  0  2  0  0  0  0  0  0  0  0  0
   -0.9280   -3.5153   -0.4302 O   0  0  0  0  0  0  0  0  0  0  0  0
   -2.0080   -4.2149    0.1573 C   0  0  2  0  0  0  0  0  0  0  0  0
   -2.2869   -5.4727   -0.5307 C   0  0  0  0  0  0  0  0  0  0  0  0
   -2.3324   -5.5849   -1.9121 C   0  0  0  0  0  0  0  0  0  0  0  0
   -2.6033   -6.8116   -2.5091 C   0  0  0  0  0  0  0  0  0  0  0  0
   -2.8299   -7.9309   -1.7676 C   0  0  0  0  0  0  0  0  0  0  0  0
   -3.1221   -9.2643   -2.3610 C   0  0  0  0  0  0  0  0  0  0  0  0
   -1.9873  -10.0032   -2.5881 O   0  0  0  0  0  0  0  0  0  0  0  0
   -2.7867   -7.8306   -0.3965 C   0  0  0  0  0  0  0  0  0  0  0  0
   -2.5178   -6.6125    0.1984 C   0  0  0  0  0  0  0  0  0  0  0  0
   -3.2022   -3.2930    0.2109 C   0  0  0  0  0  0  0  0  0  0  0  0
   -2.9127   -1.9078   -0.2531 C   0  0  2  0  0  0  0  0  0  0  0  0
   -3.3373   -1.7130   -1.7144 C   0  0  0  0  0  0  0  0  0  0  0  0
   -2.9709    0.0044   -2.2286 S   0  0  0  0  0  0  0  0  0  0  0  0
   -4.0851    1.0607   -1.2722 C   0  0  0  0  0  0  0  0  0  0  0  0
   -4.1141    2.3991   -1.3533 N   0  0  0  0  0  0  0  0  0  0  0  0
   -5.0553    2.8378   -0.5110 C   0  0  0  0  0  0  0  0  0  0  0  0
   -5.4836    4.1900   -0.2194 C   0  0  0  0  0  0  0  0  0  0  0  0
   -6.7880    4.5529   -0.5409 C   0  0  0  0  0  0  0  0  0  0  0  0
   -7.1883    5.8330   -0.2571 C   0  0  0  0  0  0  0  0  0  0  0  0
   -6.3792    6.7737    0.3236 C   0  0  0  0  0  0  0  0  0  0  0  0
   -5.0880    6.3896    0.6337 C   0  0  0  0  0  0  0  0  0  0  0  0
   -4.6445    5.1291    0.3711 C   0  0  0  0  0  0  0  0  0  0  0  0
   -5.5883    1.7203    0.0769 C   0  0  0  0  0  0  0  0  0  0  0  0
   -6.6645    1.7299    1.0788 C   0  0  0  0  0  0  0  0  0  0  0  0
   -6.4122    2.3722    2.2667 C   0  0  0  0  0  0  0  0  0  0  0  0
   -7.4194    2.3949    3.2213 C   0  0  0  0  0  0  0  0  0  0  0  0
   -8.6398    1.7770    2.9568 C   0  0  0  0  0  0  0  0  0  0  0  0
   -8.8636    1.1374    1.7493 C   0  0  0  0  0  0  0  0  0  0  0  0
   -7.8692    1.1206    0.8192 C   0  0  0  0  0  0  0  0  0  0  0  0
   -4.9852    0.6926   -0.4026 O   0  0  0  0  0  0  0  0  0  0  0  0
   -1.6466   -1.4336   -0.0515 O   0  0  0  0  0  0  0  0  0  0  0  0
    1.3010   -1.5452    1.5282 C   0  0  0  0  0  0  0  0  0  0  0  0
    2.6372   -1.1407    1.5010 C   0  0  0  0  0  0  0  0  0  0  0  0
   10.8731    6.1121    1.2288 N   0  0  0  0  0  0  0  0  0  0  0  0
   12.2052    6.3541    1.0788 O   0  0  0  0  0  0  0  0  0  0  0  0
    8.4645    4.8469    0.8037 H   0  0  0  0  0  0  0  0  0  0  0  0
    8.6333    5.0491    2.5700 H   0  0  0  0  0  0  0  0  0  0  0  0
    9.2224    2.7574    2.9276 H   0  0  0  0  0  0  0  0  0  0  0  0
    7.6480    2.9150    2.1192 H   0  0  0  0  0  0  0  0  0  0  0  0
   10.2719    2.0642    0.7379 H   0  0  0  0  0  0  0  0  0  0  0  0
    8.9173    1.0577    1.2425 H   0  0  0  0  0  0  0  0  0  0  0  0
    8.9632    1.5933   -1.1362 H   0  0  0  0  0  0  0  0  0  0  0  0
    8.7206    3.3312   -0.8272 H   0  0  0  0  0  0  0  0  0  0  0  0
    6.5805    2.3374   -1.3946 H   0  0  0  0  0  0  0  0  0  0  0  0
    6.5652    2.8998    0.3239 H   0  0  0  0  0  0  0  0  0  0  0  0
    7.1896    0.0111   -0.6174 H   0  0  0  0  0  0  0  0  0  0  0  0
    7.0009    0.5214    1.0677 H   0  0  0  0  0  0  0  0  0  0  0  0
    5.4696   -1.4837    0.4497 H   0  0  0  0  0  0  0  0  0  0  0  0
    3.2322   -1.5022   -1.7600 H   0  0  0  0  0  0  0  0  0  0  0  0
    0.8174   -2.2263   -1.6742 H   0  0  0  0  0  0  0  0  0  0  0  0
   -1.0613   -2.6215    1.4572 H   0  0  0  0  0  0  0  0  0  0  0  0
   -1.6793   -4.4327    1.1912 H   0  0  0  0  0  0  0  0  0  0  0  0
   -2.1551   -4.7098   -2.5132 H   0  0  0  0  0  0  0  0  0  0  0  0
   -2.6438   -6.9230   -3.6018 H   0  0  0  0  0  0  0  0  0  0  0  0
   -3.8385   -9.8191   -1.7275 H   0  0  0  0  0  0  0  0  0  0  0  0
   -3.6553   -9.0954   -3.3372 H   0  0  0  0  0  0  0  0  0  0  0  0
   -1.7418   -9.9221   -3.5663 H   0  0  0  0  0  0  0  0  0  0  0  0
   -2.9633   -8.7048    0.2074 H   0  0  0  0  0  0  0  0  0  0  0  0
   -2.4956   -6.5960    1.2905 H   0  0  0  0  0  0  0  0  0  0  0  0
   -3.9557   -3.7277   -0.5099 H   0  0  0  0  0  0  0  0  0  0  0  0
   -3.7143   -3.3439    1.1948 H   0  0  0  0  0  0  0  0  0  0  0  0
   -3.6130   -1.2233    0.3130 H   0  0  0  0  0  0  0  0  0  0  0  0
   -2.7691   -2.4071   -2.3547 H   0  0  0  0  0  0  0  0  0  0  0  0
   -4.4105   -1.9369   -1.8530 H   0  0  0  0  0  0  0  0  0  0  0  0
   -7.4243    3.8112   -0.9975 H   0  0  0  0  0  0  0  0  0  0  0  0
   -8.2096    6.1498   -0.4975 H   0  0  0  0  0  0  0  0  0  0  0  0
   -6.6797    7.7892    0.5542 H   0  0  0  0  0  0  0  0  0  0  0  0
   -4.3808    7.0861    1.1005 H   0  0  0  0  0  0  0  0  0  0  0  0
   -3.6314    4.7756    0.5977 H   0  0  0  0  0  0  0  0  0  0  0  0
   -5.4729    2.8590    2.4960 H   0  0  0  0  0  0  0  0  0  0  0  0
   -7.2635    2.8901    4.1683 H   0  0  0  0  0  0  0  0  0  0  0  0
   -9.4351    1.7741    3.6666 H   0  0  0  0  0  0  0  0  0  0  0  0
   -9.8236    0.6480    1.5351 H   0  0  0  0  0  0  0  0  0  0  0  0
   -7.9838    0.6354   -0.1490 H   0  0  0  0  0  0  0  0  0  0  0  0
    0.7302   -1.5642    2.4600 H   0  0  0  0  0  0  0  0  0  0  0  0
    3.1405   -0.8369    2.4045 H   0  0  0  0  0  0  0  0  0  0  0  0
   10.1296    6.8332    1.1430 H   0  0  0  0  0  0  0  0  0  0  0  0
   12.5466    6.1282    0.1847 H   0  0  0  0  0  0  0  0  0  0  0  0
  1  2  2  0
  2  3  1  0
  3  4  1  0
  4  5  1  0
  5  6  1  0
  6  7  1  0
  7  8  1  0
  8  9  1  0
  9 10  2  0
  9 11  1  0
 11 12  1  0
 12 13  2  0
 13 14  1  0
 14 15  2  0
 15 16  1  0
 16 17  1  0
 17 18  1  0
 18 19  1  0
 19 20  2  0
 20 21  1  0
 21 22  2  0
 22 23  1  0
 23 24  1  0
 22 25  1  0
 25 26  2  0
 18 27  1  0
 27 28  1  0
 28 29  1  0
 29 30  1  0
 30 31  1  0
 31 32  2  0
 32 33  1  0
 33 34  1  0
 34 35  2  0
 35 36  1  0
 36 37  2  0
 37 38  1  0
 38 39  2  0
 33 40  2  0
 40 41  1  0
 41 42  2  0
 42 43  1  0
 43 44  2  0
 44 45  1  0
 45 46  2  0
 40 47  1  0
 28 48  1  0
 15 49  1  0
 49 50  2  0
  2 51  1  0
 51 52  1  0
 50 12  1  0
 48 16  1  0
 26 19  1  0
 47 31  1  0
 39 34  1  0
 46 41  1  0
  3 53  1  0
  3 54  1  0
  4 55  1  0
  4 56  1  0
  5 57  1  0
  5 58  1  0
  6 59  1  0
  6 60  1  0
  7 61  1  0
  7 62  1  0
  8 63  1  0
  8 64  1  0
 11 65  1  0
 13 66  1  0
 14 67  1  0
 16 68  1  1
 18 69  1  1
 20 70  1  0
 21 71  1  0
 23 72  1  0
 23 73  1  0
 24 74  1  0
 25 75  1  0
 26 76  1  0
 27 77  1  0
 27 78  1  0
 28 79  1  1
 29 80  1  0
 29 81  1  0
 35 82  1  0
 36 83  1  0
 37 84  1  0
 38 85  1  0
 39 86  1  0
 42 87  1  0
 43 88  1  0
 44 89  1  0
 45 90  1  0
 46 91  1  0
 49 92  1  0
 50 93  1  0
 51 94  1  0
 52 95  1  0
M  END
$$$$
