
     RDKit          3D

 67 72  0  0  0  0  0  0  0  0999 V2000
   -4.8355   -2.8715   -1.1381 C   0  0  0  0  0  0  0  0  0  0  0  0
   -4.9997   -2.7481    0.3460 C   0  0  0  0  0  0  0  0  0  0  0  0
   -6.1250   -3.0790    0.9531 O   0  0  0  0  0  0  0  0  0  0  0  0
   -6.0156   -2.8811    2.2467 C   0  0  0  0  0  0  0  0  0  0  0  0
   -4.7363   -2.3877    2.5126 C   0  0  0  0  0  0  0  0  0  0  0  0
   -4.1210   -2.3144    1.3010 C   0  0  0  0  0  0  0  0  0  0  0  0
   -2.7678   -1.8549    1.0436 C   0  0  0  0  0  0  0  0  0  0  0  0
   -1.6888   -2.5745    1.4713 N   0  0  0  0  0  0  0  0  0  0  0  0
   -0.4475   -2.1311    1.2193 C   0  0  0  0  0  0  0  0  0  0  0  0
    0.7152   -2.8510    1.6481 N   0  0  0  0  0  0  0  0  0  0  0  0
   -0.2865   -0.9456    0.5265 C   0  0  0  0  0  0  0  0  0  0  0  0
    1.0053   -0.5202    0.2850 O   0  0  0  0  0  0  0  0  0  0  0  0
    1.2401    0.6850   -0.4185 C   0  0  0  0  0  0  0  0  0  0  0  0
    2.7289    0.9521   -0.5687 C   0  0  1  0  0  0  0  0  0  0  0  0
    2.9176    2.1663   -1.2742 N   0  0  0  0  0  0  0  0  0  0  0  0
    3.3772    0.8681    0.7866 C   0  0  0  0  0  0  0  0  0  0  0  0
    4.8242    1.1237    0.7562 C   0  0  0  0  0  0  0  0  0  0  0  0
    5.4922    2.3145    0.7548 C   0  0  0  0  0  0  0  0  0  0  0  0
    4.9479    3.6497    0.8877 C   0  0  0  0  0  0  0  0  0  0  0  0
    3.6161    3.9552    1.1772 N   0  0  0  0  0  0  0  0  0  0  0  0
    5.7215    4.6649    0.7374 O   0  0  0  0  0  0  0  0  0  0  0  0
    6.8078    2.0164    0.6569 N   0  0  0  0  0  0  0  0  0  0  0  0
    6.9891    0.6865    0.5991 C   0  0  0  0  0  0  0  0  0  0  0  0
    8.0970   -0.1350    0.4976 C   0  0  0  0  0  0  0  0  0  0  0  0
    7.9884   -1.5066    0.4575 C   0  0  0  0  0  0  0  0  0  0  0  0
    6.7390   -2.0884    0.5199 C   0  0  0  0  0  0  0  0  0  0  0  0
    5.6349   -1.2983    0.6200 C   0  0  0  0  0  0  0  0  0  0  0  0
    5.7565    0.0754    0.6594 C   0  0  0  0  0  0  0  0  0  0  0  0
   -1.3431   -0.1915    0.0788 C   0  0  0  0  0  0  0  0  0  0  0  0
   -2.6267   -0.6607    0.3457 C   0  0  0  0  0  0  0  0  0  0  0  0
   -3.8053    0.0765   -0.0904 C   0  0  0  0  0  0  0  0  0  0  0  0
   -4.7663    0.5864    0.7531 C   0  0  0  0  0  0  0  0  0  0  0  0
   -5.8236    1.2593    0.2998 N   0  0  0  0  0  0  0  0  0  0  0  0
   -5.9914    1.4669   -1.0163 C   0  0  0  0  0  0  0  0  0  0  0  0
   -6.9353    2.0947   -1.7514 N   0  0  0  0  0  0  0  0  0  0  0  0
   -6.6105    2.0016   -3.0142 N   0  0  0  0  0  0  0  0  0  0  0  0
   -5.4573    1.3192   -3.1589 C   0  0  0  0  0  0  0  0  0  0  0  0
   -4.8033    1.0300   -4.4413 C   0  0  0  0  0  0  0  0  0  0  0  0
   -5.0410    0.9656   -1.8893 C   0  0  0  0  0  0  0  0  0  0  0  0
   -3.9664    0.2801   -1.4089 N   0  0  0  0  0  0  0  0  0  0  0  0
   -5.4004   -2.1140   -1.6914 H   0  0  0  0  0  0  0  0  0  0  0  0
   -5.2251   -3.8670   -1.4772 H   0  0  0  0  0  0  0  0  0  0  0  0
   -3.7520   -2.8637   -1.4073 H   0  0  0  0  0  0  0  0  0  0  0  0
   -6.7589   -3.0547    3.0147 H   0  0  0  0  0  0  0  0  0  0  0  0
   -4.3622   -2.1313    3.5070 H   0  0  0  0  0  0  0  0  0  0  0  0
    0.9905   -3.7033    1.1185 H   0  0  0  0  0  0  0  0  0  0  0  0
    1.3079   -2.5790    2.4584 H   0  0  0  0  0  0  0  0  0  0  0  0
    0.8223    1.5148    0.1881 H   0  0  0  0  0  0  0  0  0  0  0  0
    0.7467    0.5964   -1.4077 H   0  0  0  0  0  0  0  0  0  0  0  0
    3.0992    0.1194   -1.2395 H   0  0  0  0  0  0  0  0  0  0  0  0
    2.0311    2.6225   -1.5754 H   0  0  0  0  0  0  0  0  0  0  0  0
    3.6249    2.1301   -2.0402 H   0  0  0  0  0  0  0  0  0  0  0  0
    2.8137    1.5557    1.4527 H   0  0  0  0  0  0  0  0  0  0  0  0
    3.1730   -0.1521    1.2285 H   0  0  0  0  0  0  0  0  0  0  0  0
    2.9797    4.3443    0.4578 H   0  0  0  0  0  0  0  0  0  0  0  0
    3.1809    3.8124    2.1380 H   0  0  0  0  0  0  0  0  0  0  0  0
    7.5684    2.7408    0.6312 H   0  0  0  0  0  0  0  0  0  0  0  0
    9.0895    0.2902    0.4469 H   0  0  0  0  0  0  0  0  0  0  0  0
    8.8644   -2.1483    0.3775 H   0  0  0  0  0  0  0  0  0  0  0  0
    6.6968   -3.1815    0.4846 H   0  0  0  0  0  0  0  0  0  0  0  0
    4.6543   -1.7274    0.6699 H   0  0  0  0  0  0  0  0  0  0  0  0
   -1.2148    0.7361   -0.4632 H   0  0  0  0  0  0  0  0  0  0  0  0
   -4.6465    0.4273    1.8375 H   0  0  0  0  0  0  0  0  0  0  0  0
   -7.7847    2.5766   -1.3921 H   0  0  0  0  0  0  0  0  0  0  0  0
   -4.7353   -0.0744   -4.6202 H   0  0  0  0  0  0  0  0  0  0  0  0
   -5.3831    1.4605   -5.2786 H   0  0  0  0  0  0  0  0  0  0  0  0
   -3.7855    1.4714   -4.4965 H   0  0  0  0  0  0  0  0  0  0  0  0
  1  2  1  0
  2  3  1  0
  3  4  1  0
  4  5  2  0
  5  6  1  0
  6  7  1  0
  7  8  2  0
  8  9  1  0
  9 10  1  0
  9 11  2  0
 11 12  1  0
 12 13  1  0
 13 14  1  0
 14 15  1  0
 14 16  1  0
 16 17  1  0
 17 18  2  0
 18 19  1  0
 19 20  1  0
 19 21  2  0
 18 22  1  0
 22 23  1  0
 23 24  2  0
 24 25  1  0
 25 26  2  0
 26 27  1  0
 27 28  2  0
 11 29  1  0
 29 30  2  0
 30 31  1  0
 31 32  2  0
 32 33  1  0
 33 34  2  0
 34 35  1  0
 35 36  1  0
 36 37  2  0
 37 38  1  0
 37 39  1  0
 39 40  2  0
  6  2  2  0
 30  7  1  0
 40 31  1  0
 28 17  1  0
 39 34  1  0
 28 23  1  0
  1 41  1  0
  1 42  1  0
  1 43  1  0
  4 44  1  0
  5 45  1  0
 10 46  1  0
 10 47  1  0
 13 48  1  0
 13 49  1  0
 14 50  1  6
 15 51  1  0
 15 52  1  0
 16 53  1  0
 16 54  1  0
 20 55  1  0
 20 56  1  0
 22 57  1  0
 24 58  1  0
 25 59  1  0
 26 60  1  0
 27 61  1  0
 29 62  1  0
 32 63  1  0
 35 64  1  0
 38 65  1  0
 38 66  1  0
 38 67  1  0
M  END
$$$$
