
     RDKit          3D

 72 76  0  0  0  0  0  0  0  0999 V2000
   -5.9003    3.2408   -1.0051 C   0  0  0  0  0  0  0  0  0  0  0  0
   -6.0949    1.7754   -1.1850 C   0  0  0  0  0  0  0  0  0  0  0  0
   -7.0046    1.3422   -2.0419 N   0  0  0  0  0  0  0  0  0  0  0  0
   -7.1999    0.0288   -2.2244 C   0  0  0  0  0  0  0  0  0  0  0  0
   -8.1849   -0.4523   -3.1484 N   0  0  0  0  0  0  0  0  0  0  0  0
   -6.4522   -0.8889   -1.5216 C   0  0  0  0  0  0  0  0  0  0  0  0
   -5.4697   -0.5165   -0.6008 C   0  0  0  0  0  0  0  0  0  0  0  0
   -5.3127    0.8878   -0.4475 C   0  0  0  0  0  0  0  0  0  0  0  0
   -4.4372    1.4595    0.5275 C   0  0  0  0  0  0  0  0  0  0  0  0
   -2.9945    1.4659    0.2511 N   0  0  0  0  0  0  0  0  0  0  0  0
   -2.1824    2.1087    1.1960 C   0  0  0  0  0  0  0  0  0  0  0  0
   -3.0349    2.5675    2.1016 O   0  0  0  0  0  0  0  0  0  0  0  0
   -0.7651    2.3799    1.4266 C   0  0  0  0  0  0  0  0  0  0  0  0
   -0.3087    3.6423    1.9088 C   0  0  0  0  0  0  0  0  0  0  0  0
    0.9788    3.5284    2.0745 N   0  0  0  0  0  0  0  0  0  0  0  0
    1.4027    2.2762    1.7347 N   0  0  0  0  0  0  0  0  0  0  0  0
    0.3534    1.5732    1.3363 C   0  0  0  0  0  0  0  0  0  0  0  0
    2.8128    1.9135    1.9309 C   0  0  0  0  0  0  0  0  0  0  0  0
    3.5249    1.4114    0.7577 C   0  0  0  0  0  0  0  0  0  0  0  0
    4.2746    2.2583   -0.0183 C   0  0  0  0  0  0  0  0  0  0  0  0
    4.9760    1.7904   -1.0920 C   0  0  0  0  0  0  0  0  0  0  0  0
    4.9256    0.4630   -1.3902 C   0  0  0  0  0  0  0  0  0  0  0  0
    5.7050   -0.0232   -2.5737 C   0  0  0  0  0  0  0  0  0  0  0  0
    7.0556   -0.4167   -2.1790 N   0  0  0  0  0  0  0  0  0  0  0  0
    8.1345    0.4010   -2.1560 C   0  0  0  0  0  0  0  0  0  0  0  0
    9.2339   -0.2961   -1.7381 C   0  0  0  0  0  0  0  0  0  0  0  0
    8.7928   -1.5858   -1.5011 C   0  0  0  0  0  0  0  0  0  0  0  0
    7.4810   -1.5927   -1.7835 N   0  0  0  0  0  0  0  0  0  0  0  0
    4.1737   -0.3982   -0.6165 C   0  0  0  0  0  0  0  0  0  0  0  0
    3.4429    0.0136    0.4795 C   0  0  0  0  0  0  0  0  0  0  0  0
    2.7189   -0.7105    1.2429 O   0  0  0  0  0  0  0  0  0  0  0  0
    1.9738   -1.4557    2.0290 C   0  0  0  0  0  0  0  0  0  0  0  0
    1.0501   -2.3267    1.1760 C   0  0  0  0  0  0  0  0  0  0  0  0
   -0.0297   -3.0253    1.9561 C   0  0  0  0  0  0  0  0  0  0  0  0
   -0.7470   -3.8670    0.9660 C   0  0  0  0  0  0  0  0  0  0  0  0
   -1.9701   -3.8157    0.6012 C   0  0  0  0  0  0  0  0  0  0  0  0
   -2.9969   -2.8651    1.1024 C   0  0  0  0  0  0  0  0  0  0  0  0
   -3.5018   -2.0414   -0.0867 C   0  0  0  0  0  0  0  0  0  0  0  0
   -4.6784   -1.3627    0.1333 O   0  0  0  0  0  0  0  0  0  0  0  0
   -4.8201    3.4929   -0.9715 H   0  0  0  0  0  0  0  0  0  0  0  0
   -6.4242    3.7493   -1.8375 H   0  0  0  0  0  0  0  0  0  0  0  0
   -6.4411    3.5290   -0.0795 H   0  0  0  0  0  0  0  0  0  0  0  0
   -7.8283   -0.9844   -3.9586 H   0  0  0  0  0  0  0  0  0  0  0  0
   -9.1806   -0.2448   -2.9576 H   0  0  0  0  0  0  0  0  0  0  0  0
   -6.6817   -1.9524   -1.7033 H   0  0  0  0  0  0  0  0  0  0  0  0
   -4.5889    0.8829    1.4997 H   0  0  0  0  0  0  0  0  0  0  0  0
   -4.7790    2.4897    0.8013 H   0  0  0  0  0  0  0  0  0  0  0  0
   -2.7863    0.9843   -0.6198 H   0  0  0  0  0  0  0  0  0  0  0  0
   -0.9461    4.5340    2.1012 H   0  0  0  0  0  0  0  0  0  0  0  0
    0.3458    0.4771    0.9512 H   0  0  0  0  0  0  0  0  0  0  0  0
    3.4178    2.8277    2.2420 H   0  0  0  0  0  0  0  0  0  0  0  0
    2.9619    1.2631    2.8380 H   0  0  0  0  0  0  0  0  0  0  0  0
    4.3168    3.3325    0.2213 H   0  0  0  0  0  0  0  0  0  0  0  0
    5.5624    2.4747   -1.6931 H   0  0  0  0  0  0  0  0  0  0  0  0
    5.2258   -0.9124   -3.0222 H   0  0  0  0  0  0  0  0  0  0  0  0
    5.7867    0.7546   -3.3585 H   0  0  0  0  0  0  0  0  0  0  0  0
    8.1579    1.4458   -2.4203 H   0  0  0  0  0  0  0  0  0  0  0  0
   10.2499    0.0306   -1.6021 H   0  0  0  0  0  0  0  0  0  0  0  0
    9.3747   -2.4456   -1.1533 H   0  0  0  0  0  0  0  0  0  0  0  0
    4.2212   -1.4416   -0.9678 H   0  0  0  0  0  0  0  0  0  0  0  0
    2.6164   -2.2206    2.5711 H   0  0  0  0  0  0  0  0  0  0  0  0
    1.4038   -0.9798    2.8572 H   0  0  0  0  0  0  0  0  0  0  0  0
    0.6307   -1.7849    0.3344 H   0  0  0  0  0  0  0  0  0  0  0  0
    1.6666   -3.1606    0.7170 H   0  0  0  0  0  0  0  0  0  0  0  0
   -0.6681   -2.3767    2.5474 H   0  0  0  0  0  0  0  0  0  0  0  0
    0.4444   -3.7362    2.6756 H   0  0  0  0  0  0  0  0  0  0  0  0
   -0.1002   -4.6402    0.4947 H   0  0  0  0  0  0  0  0  0  0  0  0
   -2.3408   -4.5353   -0.1634 H   0  0  0  0  0  0  0  0  0  0  0  0
   -2.5065   -2.1414    1.7780 H   0  0  0  0  0  0  0  0  0  0  0  0
   -3.7945   -3.4270    1.5932 H   0  0  0  0  0  0  0  0  0  0  0  0
   -2.6503   -1.3847   -0.3974 H   0  0  0  0  0  0  0  0  0  0  0  0
   -3.5913   -2.7873   -0.8985 H   0  0  0  0  0  0  0  0  0  0  0  0
  1  2  1  0
  2  3  2  0
  3  4  1  0
  4  5  1  0
  4  6  2  0
  6  7  1  0
  7  8  2  0
  8  9  1  0
  9 10  1  0
 10 11  1  0
 11 12  2  0
 11 13  1  0
 13 14  1  0
 14 15  2  0
 15 16  1  0
 16 17  1  0
 16 18  1  0
 18 19  1  0
 19 20  2  0
 20 21  1  0
 21 22  2  0
 22 23  1  0
 23 24  1  0
 24 25  1  0
 25 26  2  0
 26 27  1  0
 27 28  2  0
 22 29  1  0
 29 30  2  0
 30 31  1  0
 31 32  1  0
 32 33  1  0
 33 34  1  0
 34 35  1  0
 35 36  2  0
 36 37  1  0
 37 38  1  0
 38 39  1  0
  8  2  1  0
 17 13  2  0
 30 19  1  0
 39  7  1  0
 28 24  1  0
  1 40  1  0
  1 41  1  0
  1 42  1  0
  5 43  1  0
  5 44  1  0
  6 45  1  0
  9 46  1  0
  9 47  1  0
 10 48  1  0
 14 49  1  0
 17 50  1  0
 18 51  1  0
 18 52  1  0
 20 53  1  0
 21 54  1  0
 23 55  1  0
 23 56  1  0
 25 57  1  0
 26 58  1  0
 27 59  1  0
 29 60  1  0
 32 61  1  0
 32 62  1  0
 33 63  1  0
 33 64  1  0
 34 65  1  0
 34 66  1  0
 35 67  1  0
 36 68  1  0
 37 69  1  0
 37 70  1  0
 38 71  1  0
 38 72  1  0
M  END
$$$$
