
     RDKit          3D

 51 54  0  0  0  0  0  0  0  0999 V2000
   -3.9512   -2.7296    0.4800 C   0  0  0  0  0  0  0  0  0  0  0  0
   -3.6532   -1.5859    0.2823 C   0  0  0  0  0  0  0  0  0  0  0  0
   -3.3035   -0.2009    0.0663 C   0  0  2  0  0  0  0  0  0  0  0  0
   -4.1681    0.6673    0.7344 O   0  0  0  0  0  0  0  0  0  0  0  0
   -3.4236    0.1235   -1.4206 C   0  0  0  0  0  0  0  0  0  0  0  0
   -2.0299    0.3877   -1.9351 C   0  0  0  0  0  0  0  0  0  0  0  0
   -1.1799   -0.1949   -0.8602 C   0  0  1  0  0  0  0  0  0  0  0  0
    0.2281    0.2160   -0.7870 C   0  0  2  0  0  0  0  0  0  0  0  0
    0.9387   -0.1092   -2.1140 C   0  0  0  0  0  0  0  0  0  0  0  0
    2.2975    0.5155   -2.0236 C   0  0  0  0  0  0  0  0  0  0  0  0
    2.9257    0.3809   -0.6889 C   0  0  0  0  0  0  0  0  0  0  0  0
    4.2169    0.6488   -0.5812 C   0  0  0  0  0  0  0  0  0  0  0  0
    4.8312    0.5150    0.7316 C   0  0  0  0  0  0  0  0  0  0  0  0
    5.6590    1.3874    1.1306 O   0  0  0  0  0  0  0  0  0  0  0  0
    4.4616   -0.6524    1.5634 C   0  0  0  0  0  0  0  0  0  0  0  0
    3.0185   -0.9681    1.3906 C   0  0  0  0  0  0  0  0  0  0  0  0
    2.2379   -0.0229    0.5419 C   0  0  2  0  0  0  0  0  0  0  0  0
    0.9009   -0.6591    0.2442 C   0  0  1  0  0  0  0  0  0  0  0  0
    0.1376   -0.9241    1.4684 C   0  0  0  0  0  0  0  0  0  0  0  0
   -1.3371   -1.0931    1.3509 C   0  0  0  0  0  0  0  0  0  0  0  0
   -1.8649    0.0227    0.4373 C   0  0  2  0  0  0  0  0  0  0  0  0
   -1.6297    1.2866    1.1634 C   0  0  0  0  0  0  0  0  0  0  0  0
   -2.0093    2.5515    0.4515 C   0  0  0  0  0  0  0  0  0  0  0  0
   -4.2310   -3.7348    0.6582 H   0  0  0  0  0  0  0  0  0  0  0  0
   -4.9886    0.8169    0.1958 H   0  0  0  0  0  0  0  0  0  0  0  0
   -4.0984    0.9540   -1.6259 H   0  0  0  0  0  0  0  0  0  0  0  0
   -3.8607   -0.7680   -1.9586 H   0  0  0  0  0  0  0  0  0  0  0  0
   -1.8831   -0.2140   -2.8815 H   0  0  0  0  0  0  0  0  0  0  0  0
   -1.8254    1.4157   -2.2087 H   0  0  0  0  0  0  0  0  0  0  0  0
   -1.1717   -1.3140   -1.0513 H   0  0  0  0  0  0  0  0  0  0  0  0
    0.4247    1.2884   -0.6340 H   0  0  0  0  0  0  0  0  0  0  0  0
    1.0608   -1.2120   -2.1265 H   0  0  0  0  0  0  0  0  0  0  0  0
    0.3887    0.2781   -2.9705 H   0  0  0  0  0  0  0  0  0  0  0  0
    2.2827    1.5753   -2.3155 H   0  0  0  0  0  0  0  0  0  0  0  0
    2.9747   -0.0376   -2.7375 H   0  0  0  0  0  0  0  0  0  0  0  0
    4.8150    0.9664   -1.4434 H   0  0  0  0  0  0  0  0  0  0  0  0
    4.6497   -0.4551    2.6523 H   0  0  0  0  0  0  0  0  0  0  0  0
    5.1023   -1.5320    1.2526 H   0  0  0  0  0  0  0  0  0  0  0  0
    2.9282   -2.0254    1.0000 H   0  0  0  0  0  0  0  0  0  0  0  0
    2.4951   -1.0224    2.3922 H   0  0  0  0  0  0  0  0  0  0  0  0
    2.0262    0.9236    1.1179 H   0  0  0  0  0  0  0  0  0  0  0  0
    1.1393   -1.6415   -0.2605 H   0  0  0  0  0  0  0  0  0  0  0  0
    0.3950   -0.2212    2.3172 H   0  0  0  0  0  0  0  0  0  0  0  0
    0.5156   -1.9121    1.8837 H   0  0  0  0  0  0  0  0  0  0  0  0
   -1.5604   -2.0366    0.8152 H   0  0  0  0  0  0  0  0  0  0  0  0
   -1.7926   -1.0567    2.3392 H   0  0  0  0  0  0  0  0  0  0  0  0
   -0.5795    1.3578    1.5076 H   0  0  0  0  0  0  0  0  0  0  0  0
   -2.2394    1.2523    2.0960 H   0  0  0  0  0  0  0  0  0  0  0  0
   -2.7967    2.4567   -0.2865 H   0  0  0  0  0  0  0  0  0  0  0  0
   -1.0947    3.0072    0.0223 H   0  0  0  0  0  0  0  0  0  0  0  0
   -2.3790    3.3282    1.1872 H   0  0  0  0  0  0  0  0  0  0  0  0
  1  2  3  0
  3  2  1  6
  3  4  1  0
  3  5  1  0
  5  6  1  0
  6  7  1  0
  7  8  1  0
  8  9  1  0
  9 10  1  0
 10 11  1  0
 11 12  2  0
 12 13  1  0
 13 14  2  0
 13 15  1  0
 15 16  1  0
 16 17  1  0
 17 18  1  0
 18 19  1  0
 19 20  1  0
 20 21  1  0
 21 22  1  1
 22 23  1  0
 21  3  1  0
 21  7  1  0
 18  8  1  0
 17 11  1  0
  1 24  1  0
  4 25  1  0
  5 26  1  0
  5 27  1  0
  6 28  1  0
  6 29  1  0
  7 30  1  6
  8 31  1  1
  9 32  1  0
  9 33  1  0
 10 34  1  0
 10 35  1  0
 12 36  1  0
 15 37  1  0
 15 38  1  0
 16 39  1  0
 16 40  1  0
 17 41  1  1
 18 42  1  6
 19 43  1  0
 19 44  1  0
 20 45  1  0
 20 46  1  0
 22 47  1  0
 22 48  1  0
 23 49  1  0
 23 50  1  0
 23 51  1  0
M  END
$$$$
