
     RDKit          3D

 73 75  0  0  0  0  0  0  0  0999 V2000
    7.2817    0.0974   -0.1949 C   0  0  0  0  0  0  0  0  0  0  0  0
    6.9301   -1.3039   -0.6666 C   0  0  0  0  0  0  0  0  0  0  0  0
    6.9121   -2.2455    0.5132 C   0  0  0  0  0  0  0  0  0  0  0  0
    5.5942   -1.3105   -1.4121 C   0  0  1  0  0  0  0  0  0  0  0  0
    5.2276   -2.6930   -1.8887 C   0  0  0  0  0  0  0  0  0  0  0  0
    4.5819   -0.7451   -0.4829 C   0  0  0  0  0  0  0  0  0  0  0  0
    3.9143    0.3752   -0.7179 C   0  0  0  0  0  0  0  0  0  0  0  0
    2.9110    0.8270    0.3261 C   0  0  1  0  0  0  0  0  0  0  0  0
    3.3393    2.2378    0.6884 C   0  0  0  0  0  0  0  0  0  0  0  0
    1.5433    0.9084   -0.2627 C   0  0  1  0  0  0  0  0  0  0  0  0
    1.0993   -0.4618   -0.8274 C   0  0  0  0  0  0  0  0  0  0  0  0
   -0.3991   -0.3211   -0.9965 C   0  0  0  0  0  0  0  0  0  0  0  0
   -0.6939    1.0135   -0.3916 C   0  0  1  0  0  0  0  0  0  0  0  0
   -2.0462    1.1448    0.1752 C   0  0  0  0  0  0  0  0  0  0  0  0
   -2.2515    1.9251    1.4379 C   0  0  0  0  0  0  0  0  0  0  0  0
   -1.0690    2.6004    1.9807 C   0  0  0  0  0  0  0  0  0  0  0  0
    0.2394    2.4465    1.2807 C   0  0  0  0  0  0  0  0  0  0  0  0
    0.4067    1.1099    0.6737 C   0  0  2  0  0  0  0  0  0  0  0  0
    0.2949   -0.0235    1.6624 C   0  0  0  0  0  0  0  0  0  0  0  0
   -3.1405    0.5934   -0.3898 C   0  0  0  0  0  0  0  0  0  0  0  0
   -4.4245    0.7936    0.2677 C   0  0  0  0  0  0  0  0  0  0  0  0
   -5.5963    0.3372   -0.1471 C   0  0  0  0  0  0  0  0  0  0  0  0
   -6.9118    0.5595    0.5618 C   0  0  0  0  0  0  0  0  0  0  0  0
   -7.5226   -0.8027    0.7448 C   0  0  1  0  0  0  0  0  0  0  0  0
   -8.9184   -0.7658    0.6042 O   0  0  0  0  0  0  0  0  0  0  0  0
   -6.8987   -1.8990   -0.0448 C   0  0  0  0  0  0  0  0  0  0  0  0
   -6.6065   -1.5658   -1.4899 C   0  0  0  0  0  0  0  0  0  0  0  0
   -5.6137   -0.4228   -1.4067 C   0  0  0  0  0  0  0  0  0  0  0  0
   -4.7565   -0.0072   -2.3239 C   0  0  0  0  0  0  0  0  0  0  0  0
    7.0235    0.2496    0.8877 H   0  0  0  0  0  0  0  0  0  0  0  0
    8.3741    0.2840   -0.2751 H   0  0  0  0  0  0  0  0  0  0  0  0
    6.7640    0.8438   -0.8134 H   0  0  0  0  0  0  0  0  0  0  0  0
    7.7434   -1.6346   -1.3450 H   0  0  0  0  0  0  0  0  0  0  0  0
    5.8798   -2.6729    0.5717 H   0  0  0  0  0  0  0  0  0  0  0  0
    7.1298   -1.6660    1.4547 H   0  0  0  0  0  0  0  0  0  0  0  0
    7.6746   -3.0277    0.4259 H   0  0  0  0  0  0  0  0  0  0  0  0
    5.7167   -0.5818   -2.2487 H   0  0  0  0  0  0  0  0  0  0  0  0
    4.6196   -2.5882   -2.8276 H   0  0  0  0  0  0  0  0  0  0  0  0
    4.6544   -3.1964   -1.0780 H   0  0  0  0  0  0  0  0  0  0  0  0
    6.1309   -3.2820   -2.1478 H   0  0  0  0  0  0  0  0  0  0  0  0
    4.3829   -1.2927    0.4467 H   0  0  0  0  0  0  0  0  0  0  0  0
    4.0868    0.9270   -1.6102 H   0  0  0  0  0  0  0  0  0  0  0  0
    3.0022    0.2172    1.2377 H   0  0  0  0  0  0  0  0  0  0  0  0
    4.3476    2.4924    0.2297 H   0  0  0  0  0  0  0  0  0  0  0  0
    3.4147    2.4030    1.7842 H   0  0  0  0  0  0  0  0  0  0  0  0
    2.6558    3.0108    0.2866 H   0  0  0  0  0  0  0  0  0  0  0  0
    1.4657    1.6147   -1.1018 H   0  0  0  0  0  0  0  0  0  0  0  0
    1.5477   -0.6316   -1.8214 H   0  0  0  0  0  0  0  0  0  0  0  0
    1.3848   -1.2871   -0.1640 H   0  0  0  0  0  0  0  0  0  0  0  0
   -0.9503   -1.1679   -0.5458 H   0  0  0  0  0  0  0  0  0  0  0  0
   -0.6953   -0.2867   -2.0746 H   0  0  0  0  0  0  0  0  0  0  0  0
   -0.4839    1.7970   -1.1429 H   0  0  0  0  0  0  0  0  0  0  0  0
   -3.0247    2.7336    1.2526 H   0  0  0  0  0  0  0  0  0  0  0  0
   -2.7529    1.2649    2.2079 H   0  0  0  0  0  0  0  0  0  0  0  0
   -1.2391    3.7040    2.1756 H   0  0  0  0  0  0  0  0  0  0  0  0
   -0.8958    2.1946    3.0260 H   0  0  0  0  0  0  0  0  0  0  0  0
    1.0795    2.6076    2.0161 H   0  0  0  0  0  0  0  0  0  0  0  0
    0.2969    3.2194    0.5075 H   0  0  0  0  0  0  0  0  0  0  0  0
   -0.5116   -0.7473    1.4221 H   0  0  0  0  0  0  0  0  0  0  0  0
    1.2294   -0.6104    1.7472 H   0  0  0  0  0  0  0  0  0  0  0  0
    0.1464    0.4274    2.6876 H   0  0  0  0  0  0  0  0  0  0  0  0
   -2.7613    0.0851   -1.2626 H   0  0  0  0  0  0  0  0  0  0  0  0
   -4.4889    1.3567    1.1773 H   0  0  0  0  0  0  0  0  0  0  0  0
   -7.5839    1.1796   -0.0713 H   0  0  0  0  0  0  0  0  0  0  0  0
   -6.7293    1.0268    1.5499 H   0  0  0  0  0  0  0  0  0  0  0  0
   -7.3750   -1.0796    1.8322 H   0  0  0  0  0  0  0  0  0  0  0  0
   -9.2096   -1.7177    0.7746 H   0  0  0  0  0  0  0  0  0  0  0  0
   -5.9239   -2.2358    0.3892 H   0  0  0  0  0  0  0  0  0  0  0  0
   -7.5573   -2.8092    0.0199 H   0  0  0  0  0  0  0  0  0  0  0  0
   -6.0839   -2.4302   -1.9236 H   0  0  0  0  0  0  0  0  0  0  0  0
   -7.5166   -1.2464   -2.0083 H   0  0  0  0  0  0  0  0  0  0  0  0
   -4.1978    0.0749   -3.2428 H   0  0  0  0  0  0  0  0  0  0  0  0
   -4.1966    0.0760   -3.2432 H   0  0  0  0  0  0  0  0  0  0  0  0
  1  2  1  0
  2  3  1  0
  2  4  1  0
  4  5  1  0
  4  6  1  0
  6  7  2  0
  7  8  1  0
  8  9  1  0
  8 10  1  0
 10 11  1  0
 11 12  1  0
 12 13  1  0
 13 14  1  0
 14 15  1  0
 15 16  1  0
 16 17  1  0
 17 18  1  0
 18 19  1  1
 14 20  2  0
 20 21  1  0
 21 22  2  0
 22 23  1  0
 23 24  1  0
 24 25  1  0
 24 26  1  0
 26 27  1  0
 27 28  1  0
 28 29  2  0
 18 10  1  0
 28 22  1  0
 18 13  1  0
  1 30  1  0
  1 31  1  0
  1 32  1  0
  2 33  1  0
  3 34  1  0
  3 35  1  0
  3 36  1  0
  4 37  1  6
  5 38  1  0
  5 39  1  0
  5 40  1  0
  6 41  1  0
  7 42  1  0
  8 43  1  1
  9 44  1  0
  9 45  1  0
  9 46  1  0
 10 47  1  6
 11 48  1  0
 11 49  1  0
 12 50  1  0
 12 51  1  0
 13 52  1  6
 15 53  1  0
 15 54  1  0
 16 55  1  0
 16 56  1  0
 17 57  1  0
 17 58  1  0
 19 59  1  0
 19 60  1  0
 19 61  1  0
 20 62  1  0
 21 63  1  0
 23 64  1  0
 23 65  1  0
 24 66  1  1
 25 67  1  0
 26 68  1  0
 26 69  1  0
 27 70  1  0
 27 71  1  0
 29 72  1  0
 29 73  1  0
M  END
$$$$
