
     RDKit          3D

 58 60  0  0  0  0  0  0  0  0999 V2000
   -7.9412    0.4902   -0.3889 C   0  0  0  0  0  0  0  0  0  0  0  0
   -7.1332   -0.6400    0.0090 N   0  0  0  0  0  0  0  0  0  0  0  0
   -6.3541   -0.3069    1.2143 C   0  0  0  0  0  0  0  0  0  0  0  0
   -5.3118    0.7257    0.9049 C   0  0  0  0  0  0  0  0  0  0  0  0
   -4.5234    1.0715    2.0653 N   0  0  0  0  0  0  0  0  0  0  0  0
   -3.6433    2.2038    1.7176 C   0  0  0  0  0  0  0  0  0  0  0  0
   -3.6730   -0.0262    2.5254 C   0  0  0  0  0  0  0  0  0  0  0  0
   -2.6407   -0.4094    1.5477 C   0  0  0  0  0  0  0  0  0  0  0  0
   -2.8817   -1.3918    0.6275 C   0  0  0  0  0  0  0  0  0  0  0  0
   -1.9000   -1.7235   -0.2797 C   0  0  0  0  0  0  0  0  0  0  0  0
   -0.6806   -1.0975   -0.2914 C   0  0  0  0  0  0  0  0  0  0  0  0
    0.2999   -1.5386   -1.3089 C   0  0  0  0  0  0  0  0  0  0  0  0
   -0.0227   -2.5093   -2.0211 O   0  0  0  0  0  0  0  0  0  0  0  0
    1.5552   -0.9171   -1.4992 N   0  0  0  0  0  0  0  0  0  0  0  0
    2.5467   -1.2616   -2.4438 C   0  0  0  0  0  0  0  0  0  0  0  0
    2.1969   -1.9545   -3.6213 C   0  0  0  0  0  0  0  0  0  0  0  0
    3.1518   -2.3114   -4.5440 C   0  0  0  0  0  0  0  0  0  0  0  0
    4.4435   -1.9873   -4.3090 C   0  0  0  0  0  0  0  0  0  0  0  0
    5.6623   -2.4389   -5.4822 Cl  0  0  0  0  0  0  0  0  0  0  0  0
    4.8107   -1.3014   -3.1495 C   0  0  0  0  0  0  0  0  0  0  0  0
    3.8551   -0.9324   -2.2021 C   0  0  0  0  0  0  0  0  0  0  0  0
    4.3462   -0.2735   -1.0259 C   0  0  0  0  0  0  0  0  0  0  0  0
    3.5939   -0.0406   -0.0464 O   0  0  0  0  0  0  0  0  0  0  0  0
    5.6840    0.1821   -0.8257 N   0  0  0  0  0  0  0  0  0  0  0  0
    6.1221    0.8351    0.3601 C   0  0  0  0  0  0  0  0  0  0  0  0
    6.6319    0.1885    1.4636 C   0  0  0  0  0  0  0  0  0  0  0  0
    7.0561    0.8113    2.5964 C   0  0  0  0  0  0  0  0  0  0  0  0
    6.9736    2.1967    2.6565 C   0  0  0  0  0  0  0  0  0  0  0  0
    7.5031    3.0667    4.0895 Cl  0  0  0  0  0  0  0  0  0  0  0  0
    6.4644    2.8510    1.5567 C   0  0  0  0  0  0  0  0  0  0  0  0
    6.0497    2.1854    0.4377 N   0  0  0  0  0  0  0  0  0  0  0  0
   -0.4189   -0.1140    0.6189 C   0  0  0  0  0  0  0  0  0  0  0  0
   -1.4277    0.2106    1.5338 C   0  0  0  0  0  0  0  0  0  0  0  0
   -8.5881    0.2164   -1.2288 H   0  0  0  0  0  0  0  0  0  0  0  0
   -8.5534    0.8131    0.4655 H   0  0  0  0  0  0  0  0  0  0  0  0
   -7.2743    1.3103   -0.7637 H   0  0  0  0  0  0  0  0  0  0  0  0
   -6.4803   -0.9414   -0.7383 H   0  0  0  0  0  0  0  0  0  0  0  0
   -5.8664   -1.2108    1.6030 H   0  0  0  0  0  0  0  0  0  0  0  0
   -7.1014    0.0591    1.9590 H   0  0  0  0  0  0  0  0  0  0  0  0
   -4.6284    0.3249    0.1209 H   0  0  0  0  0  0  0  0  0  0  0  0
   -5.7508    1.6806    0.5365 H   0  0  0  0  0  0  0  0  0  0  0  0
   -3.0319    1.9444    0.8504 H   0  0  0  0  0  0  0  0  0  0  0  0
   -4.3236    3.0753    1.4917 H   0  0  0  0  0  0  0  0  0  0  0  0
   -3.0421    2.4743    2.6086 H   0  0  0  0  0  0  0  0  0  0  0  0
   -4.3393   -0.8480    2.8386 H   0  0  0  0  0  0  0  0  0  0  0  0
   -3.1618    0.3374    3.4470 H   0  0  0  0  0  0  0  0  0  0  0  0
   -3.8551   -1.9136    0.6176 H   0  0  0  0  0  0  0  0  0  0  0  0
   -2.1670   -2.5244   -0.9910 H   0  0  0  0  0  0  0  0  0  0  0  0
    1.7069   -0.0827   -0.8605 H   0  0  0  0  0  0  0  0  0  0  0  0
    1.1512   -2.1758   -3.7745 H   0  0  0  0  0  0  0  0  0  0  0  0
    2.8410   -2.8394   -5.4280 H   0  0  0  0  0  0  0  0  0  0  0  0
    5.8329   -1.0766   -3.0171 H   0  0  0  0  0  0  0  0  0  0  0  0
    6.3768    0.0400   -1.5708 H   0  0  0  0  0  0  0  0  0  0  0  0
    6.6875   -0.8947    1.3951 H   0  0  0  0  0  0  0  0  0  0  0  0
    7.4569    0.3082    3.4640 H   0  0  0  0  0  0  0  0  0  0  0  0
    6.4011    3.9320    1.6053 H   0  0  0  0  0  0  0  0  0  0  0  0
    0.5158    0.3842    0.6325 H   0  0  0  0  0  0  0  0  0  0  0  0
   -1.2007    0.9944    2.2510 H   0  0  0  0  0  0  0  0  0  0  0  0
  1  2  1  0
  2  3  1  0
  3  4  1  0
  4  5  1  0
  5  6  1  0
  5  7  1  0
  7  8  1  0
  8  9  2  0
  9 10  1  0
 10 11  2  0
 11 12  1  0
 12 13  2  0
 12 14  1  0
 14 15  1  0
 15 16  2  0
 16 17  1  0
 17 18  2  0
 18 19  1  0
 18 20  1  0
 20 21  2  0
 21 22  1  0
 22 23  2  0
 22 24  1  0
 24 25  1  0
 25 26  2  0
 26 27  1  0
 27 28  2  0
 28 29  1  0
 28 30  1  0
 30 31  2  0
 11 32  1  0
 32 33  2  0
 33  8  1  0
 21 15  1  0
 31 25  1  0
  1 34  1  0
  1 35  1  0
  1 36  1  0
  2 37  1  0
  3 38  1  0
  3 39  1  0
  4 40  1  0
  4 41  1  0
  6 42  1  0
  6 43  1  0
  6 44  1  0
  7 45  1  0
  7 46  1  0
  9 47  1  0
 10 48  1  0
 14 49  1  0
 16 50  1  0
 17 51  1  0
 20 52  1  0
 24 53  1  0
 26 54  1  0
 27 55  1  0
 30 56  1  0
 32 57  1  0
 33 58  1  0
M  END
$$$$
