
     RDKit          3D

 45 48  0  0  0  0  0  0  0  0999 V2000
   -3.3632   -2.4412    1.6608 C   0  0  0  0  0  0  0  0  0  0  0  0
   -2.9083   -1.3095    0.8283 N   0  0  0  0  0  0  0  0  0  0  0  0
   -1.8638   -0.3666    1.1246 C   0  0  0  0  0  0  0  0  0  0  0  0
   -1.1847   -0.3080    2.1349 O   0  0  0  0  0  0  0  0  0  0  0  0
   -1.7014    0.5625   -0.0504 C   0  0  0  0  0  0  0  0  0  0  0  0
   -1.9860    1.9488    0.2093 C   0  0  0  0  0  0  0  0  0  0  0  0
   -1.9735    2.5606    1.4005 C   0  0  0  0  0  0  0  0  0  0  0  0
   -2.3016    3.9240    1.5881 C   0  0  0  0  0  0  0  0  0  0  0  0
   -2.6380    4.6174    0.5248 N   0  0  0  0  0  0  0  0  0  0  0  0
   -2.6875    4.0716   -0.6986 C   0  0  0  0  0  0  0  0  0  0  0  0
   -2.3699    2.7494   -0.8910 C   0  0  0  0  0  0  0  0  0  0  0  0
   -0.4075    0.1905   -0.6701 C   0  0  0  0  0  0  0  0  0  0  0  0
   -0.4931   -0.5039   -1.8960 C   0  0  0  0  0  0  0  0  0  0  0  0
    0.6422   -1.0532   -2.4515 C   0  0  0  0  0  0  0  0  0  0  0  0
    1.7950   -0.8811   -1.7662 C   0  0  0  0  0  0  0  0  0  0  0  0
    1.9781   -0.2439   -0.5854 C   0  0  0  0  0  0  0  0  0  0  0  0
    3.1410   -0.5281    0.2447 C   0  0  0  0  0  0  0  0  0  0  0  0
    3.4101   -1.8934    0.4364 C   0  0  0  0  0  0  0  0  0  0  0  0
    4.5709   -2.3326    0.9977 C   0  0  0  0  0  0  0  0  0  0  0  0
    5.5314   -1.4996    1.4079 C   0  0  0  0  0  0  0  0  0  0  0  0
    5.2681   -0.0595    1.2231 C   0  0  0  0  0  0  0  0  0  0  0  0
    6.5008    0.6914    1.3588 C   0  0  0  0  0  0  0  0  0  0  0  0
    7.5952    1.3385    1.4820 N   0  0  0  0  0  0  0  0  0  0  0  0
    4.1367    0.3629    0.6755 C   0  0  0  0  0  0  0  0  0  0  0  0
    0.7998    0.3289   -0.0314 C   0  0  0  0  0  0  0  0  0  0  0  0
   -2.7880    0.0809   -0.9094 N   0  0  0  0  0  0  0  0  0  0  0  0
   -3.4068   -0.9280   -0.4229 C   0  0  0  0  0  0  0  0  0  0  0  0
   -4.4739   -1.6345   -1.1262 N   0  0  0  0  0  0  0  0  0  0  0  0
   -2.5688   -2.5847    2.3754 H   0  0  0  0  0  0  0  0  0  0  0  0
   -4.3135   -2.1645    2.1428 H   0  0  0  0  0  0  0  0  0  0  0  0
   -3.5434   -3.3118    0.9963 H   0  0  0  0  0  0  0  0  0  0  0  0
   -1.6845    2.0191    2.2583 H   0  0  0  0  0  0  0  0  0  0  0  0
   -2.2885    4.3924    2.5626 H   0  0  0  0  0  0  0  0  0  0  0  0
   -2.9692    4.7087   -1.5028 H   0  0  0  0  0  0  0  0  0  0  0  0
   -2.4053    2.3228   -1.8909 H   0  0  0  0  0  0  0  0  0  0  0  0
   -1.4460   -0.6183   -2.3738 H   0  0  0  0  0  0  0  0  0  0  0  0
    0.5609   -1.6207   -3.3952 H   0  0  0  0  0  0  0  0  0  0  0  0
    2.7203   -1.3520   -2.2394 H   0  0  0  0  0  0  0  0  0  0  0  0
    2.6293   -2.5997    0.1478 H   0  0  0  0  0  0  0  0  0  0  0  0
    4.7503   -3.4105    1.1144 H   0  0  0  0  0  0  0  0  0  0  0  0
    6.4801   -1.7735    1.8513 H   0  0  0  0  0  0  0  0  0  0  0  0
    4.0099    1.4218    0.4876 H   0  0  0  0  0  0  0  0  0  0  0  0
    0.8717    0.8374    0.9062 H   0  0  0  0  0  0  0  0  0  0  0  0
   -4.2397   -2.5493   -1.5240 H   0  0  0  0  0  0  0  0  0  0  0  0
   -5.3854   -1.1614   -1.2146 H   0  0  0  0  0  0  0  0  0  0  0  0
  1  2  1  0
  2  3  1  0
  3  4  2  0
  3  5  1  0
  5  6  1  0
  6  7  2  0
  7  8  1  0
  8  9  2  0
  9 10  1  0
 10 11  2  0
  5 12  1  0
 12 13  2  0
 13 14  1  0
 14 15  2  0
 15 16  1  0
 16 17  1  0
 17 18  2  0
 18 19  1  0
 19 20  2  0
 20 21  1  0
 21 22  1  0
 22 23  3  0
 21 24  2  0
 16 25  2  0
  5 26  1  0
 26 27  2  0
 27 28  1  0
 27  2  1  0
 11  6  1  0
 25 12  1  0
 24 17  1  0
  1 29  1  0
  1 30  1  0
  1 31  1  0
  7 32  1  0
  8 33  1  0
 10 34  1  0
 11 35  1  0
 13 36  1  0
 14 37  1  0
 15 38  1  0
 18 39  1  0
 19 40  1  0
 20 41  1  0
 24 42  1  0
 25 43  1  0
 28 44  1  0
 28 45  1  0
M  END
$$$$
