
     RDKit          3D

 75 79  0  0  0  0  0  0  0  0999 V2000
    4.8996   -0.2336   -2.6071 O   0  0  0  0  0  0  0  0  0  0  0  0
    5.8755    0.2641   -1.7827 C   0  0  1  0  0  0  0  0  0  0  0  0
    5.4253    0.9337   -0.5352 C   0  0  2  0  0  0  0  0  0  0  0  0
    4.4888    1.9706   -0.7602 N   0  0  0  0  0  0  0  0  0  0  0  0
    3.2277    1.6211   -1.2756 C   0  0  0  0  0  0  0  0  0  0  0  0
    2.5212    0.5817   -0.4451 C   0  0  0  0  0  0  0  0  0  0  0  0
    1.6702    0.8124    0.6150 C   0  0  0  0  0  0  0  0  0  0  0  0
    1.2291   -0.3631    1.1099 N   0  0  0  0  0  0  0  0  0  0  0  0
    0.3065   -0.5430    2.2417 C   0  0  0  0  0  0  0  0  0  0  0  0
   -1.0526   -0.5534    1.6712 C   0  0  0  0  0  0  0  0  0  0  0  0
   -1.6713   -1.7124    1.2554 C   0  0  0  0  0  0  0  0  0  0  0  0
   -2.9430   -1.7097    0.7230 C   0  0  0  0  0  0  0  0  0  0  0  0
   -3.5806   -2.8614    0.3002 O   0  0  0  0  0  0  0  0  0  0  0  0
   -4.8674   -2.8194   -0.2335 C   0  0  0  0  0  0  0  0  0  0  0  0
   -5.3312   -4.1808   -0.6117 C   0  0  0  0  0  0  0  0  0  0  0  0
   -5.1014   -4.6919   -1.8735 C   0  0  0  0  0  0  0  0  0  0  0  0
   -5.5335   -5.9518   -2.2153 C   0  0  0  0  0  0  0  0  0  0  0  0
   -6.2080   -6.7483   -1.3185 C   0  0  0  0  0  0  0  0  0  0  0  0
   -6.4363   -6.2416   -0.0663 C   0  0  0  0  0  0  0  0  0  0  0  0
   -6.0107   -4.9768    0.2995 C   0  0  0  0  0  0  0  0  0  0  0  0
   -3.6008   -0.5071    0.6099 C   0  0  0  0  0  0  0  0  0  0  0  0
   -3.0018    0.6666    1.0195 C   0  0  0  0  0  0  0  0  0  0  0  0
   -3.6211    1.9006    0.9269 O   0  0  0  0  0  0  0  0  0  0  0  0
   -4.9031    2.1111    0.4182 C   0  0  0  0  0  0  0  0  0  0  0  0
   -5.2162    3.5549    0.4819 C   0  0  0  0  0  0  0  0  0  0  0  0
   -4.9120    4.3968   -0.5735 C   0  0  0  0  0  0  0  0  0  0  0  0
   -5.2076    5.7419   -0.5050 C   0  0  0  0  0  0  0  0  0  0  0  0
   -5.8145    6.2848    0.6173 C   0  0  0  0  0  0  0  0  0  0  0  0
   -6.1258    5.4491    1.6859 C   0  0  0  0  0  0  0  0  0  0  0  0
   -5.8183    4.1000    1.5923 C   0  0  0  0  0  0  0  0  0  0  0  0
   -1.7272    0.6399    1.5498 C   0  0  0  0  0  0  0  0  0  0  0  0
    1.7939   -1.3040    0.3730 N   0  0  0  0  0  0  0  0  0  0  0  0
    2.5693   -0.7559   -0.5609 N   0  0  0  0  0  0  0  0  0  0  0  0
    6.6668    1.5384    0.1485 C   0  0  1  0  0  0  0  0  0  0  0  0
    6.2859    2.2796    1.2642 O   0  0  0  0  0  0  0  0  0  0  0  0
    7.6162    0.4243    0.5192 C   0  0  2  0  0  0  0  0  0  0  0  0
    8.6806    0.8888    1.2494 O   0  0  0  0  0  0  0  0  0  0  0  0
    8.0730   -0.1850   -0.8158 C   0  0  1  0  0  0  0  0  0  0  0  0
    9.1521   -1.0193   -0.6646 O   0  0  0  0  0  0  0  0  0  0  0  0
    6.8474   -0.8658   -1.3777 C   0  0  2  0  0  0  0  0  0  0  0  0
    7.1255   -1.6994   -2.4338 O   0  0  0  0  0  0  0  0  0  0  0  0
    5.0895    0.0455   -3.5323 H   0  0  0  0  0  0  0  0  0  0  0  0
    6.5500    0.9988   -2.3167 H   0  0  0  0  0  0  0  0  0  0  0  0
    5.0246    0.1498    0.1844 H   0  0  0  0  0  0  0  0  0  0  0  0
    4.4915    2.6856   -0.0086 H   0  0  0  0  0  0  0  0  0  0  0  0
    3.2823    1.2303   -2.2996 H   0  0  0  0  0  0  0  0  0  0  0  0
    2.5656    2.5501   -1.3134 H   0  0  0  0  0  0  0  0  0  0  0  0
    1.3880    1.7782    1.0044 H   0  0  0  0  0  0  0  0  0  0  0  0
    0.5751   -1.5386    2.6787 H   0  0  0  0  0  0  0  0  0  0  0  0
    0.4571    0.2280    3.0100 H   0  0  0  0  0  0  0  0  0  0  0  0
   -1.1788   -2.6840    1.3303 H   0  0  0  0  0  0  0  0  0  0  0  0
   -5.5821   -2.3988    0.5151 H   0  0  0  0  0  0  0  0  0  0  0  0
   -4.9182   -2.1702   -1.1486 H   0  0  0  0  0  0  0  0  0  0  0  0
   -4.5701   -4.0824   -2.6011 H   0  0  0  0  0  0  0  0  0  0  0  0
   -5.3488   -6.3450   -3.2078 H   0  0  0  0  0  0  0  0  0  0  0  0
   -6.5504   -7.7510   -1.5951 H   0  0  0  0  0  0  0  0  0  0  0  0
   -6.9667   -6.8486    0.6624 H   0  0  0  0  0  0  0  0  0  0  0  0
   -6.1793   -4.5546    1.2827 H   0  0  0  0  0  0  0  0  0  0  0  0
   -4.6081   -0.4132    0.2008 H   0  0  0  0  0  0  0  0  0  0  0  0
   -4.9196    1.7659   -0.6397 H   0  0  0  0  0  0  0  0  0  0  0  0
   -5.6589    1.5433    1.0214 H   0  0  0  0  0  0  0  0  0  0  0  0
   -4.4387    3.9274   -1.4288 H   0  0  0  0  0  0  0  0  0  0  0  0
   -4.9579    6.3687   -1.3433 H   0  0  0  0  0  0  0  0  0  0  0  0
   -6.0473    7.3439    0.6713 H   0  0  0  0  0  0  0  0  0  0  0  0
   -6.6003    5.8282    2.5829 H   0  0  0  0  0  0  0  0  0  0  0  0
   -6.0641    3.4387    2.4365 H   0  0  0  0  0  0  0  0  0  0  0  0
   -1.2535    1.5730    1.8743 H   0  0  0  0  0  0  0  0  0  0  0  0
    7.1592    2.1508   -0.6331 H   0  0  0  0  0  0  0  0  0  0  0  0
    6.3359    1.7186    2.0933 H   0  0  0  0  0  0  0  0  0  0  0  0
    7.0224   -0.3302    1.0938 H   0  0  0  0  0  0  0  0  0  0  0  0
    8.9169    0.2305    1.9291 H   0  0  0  0  0  0  0  0  0  0  0  0
    8.3118    0.7077   -1.4647 H   0  0  0  0  0  0  0  0  0  0  0  0
    9.5793   -0.7980    0.2201 H   0  0  0  0  0  0  0  0  0  0  0  0
    6.3276   -1.3921   -0.5292 H   0  0  0  0  0  0  0  0  0  0  0  0
    6.9961   -1.1931   -3.2855 H   0  0  0  0  0  0  0  0  0  0  0  0
  1  2  1  0
  2  3  1  0
  3  4  1  0
  4  5  1  0
  5  6  1  0
  6  7  2  0
  7  8  1  0
  8  9  1  0
  9 10  1  0
 10 11  2  0
 11 12  1  0
 12 13  1  0
 13 14  1  0
 14 15  1  0
 15 16  2  0
 16 17  1  0
 17 18  2  0
 18 19  1  0
 19 20  2  0
 12 21  2  0
 21 22  1  0
 22 23  1  0
 23 24  1  0
 24 25  1  0
 25 26  2  0
 26 27  1  0
 27 28  2  0
 28 29  1  0
 29 30  2  0
 22 31  2  0
  8 32  1  0
 32 33  2  0
  3 34  1  0
 34 35  1  0
 34 36  1  0
 36 37  1  0
 36 38  1  0
 38 39  1  0
 38 40  1  0
 40 41  1  0
 40  2  1  0
 33  6  1  0
 31 10  1  0
 20 15  1  0
 30 25  1  0
  1 42  1  0
  2 43  1  6
  3 44  1  1
  4 45  1  0
  5 46  1  0
  5 47  1  0
  7 48  1  0
  9 49  1  0
  9 50  1  0
 11 51  1  0
 14 52  1  0
 14 53  1  0
 16 54  1  0
 17 55  1  0
 18 56  1  0
 19 57  1  0
 20 58  1  0
 21 59  1  0
 24 60  1  0
 24 61  1  0
 26 62  1  0
 27 63  1  0
 28 64  1  0
 29 65  1  0
 30 66  1  0
 31 67  1  0
 34 68  1  6
 35 69  1  0
 36 70  1  1
 37 71  1  0
 38 72  1  6
 39 73  1  0
 40 74  1  1
 41 75  1  0
M  END
$$$$
