
     RDKit          3D

 42 44  0  0  0  0  0  0  0  0999 V2000
   -6.6124   -1.6080   -0.4009 N   0  0  0  0  0  0  0  0  0  0  0  0
   -5.5293   -0.7558   -0.7803 C   0  0  0  0  0  0  0  0  0  0  0  0
   -5.4933   -0.1694   -1.9799 N   0  0  0  0  0  0  0  0  0  0  0  0
   -4.4493    0.6375   -2.3148 C   0  0  0  0  0  0  0  0  0  0  0  0
   -3.4076    0.9053   -1.5060 N   0  0  0  0  0  0  0  0  0  0  0  0
   -3.4053    0.3291   -0.2777 C   0  0  0  0  0  0  0  0  0  0  0  0
   -4.4716   -0.4937    0.0616 C   0  0  0  0  0  0  0  0  0  0  0  0
   -4.2432   -0.9386    1.3098 N   0  0  0  0  0  0  0  0  0  0  0  0
   -3.0808   -0.4097    1.7230 C   0  0  0  0  0  0  0  0  0  0  0  0
   -2.5400    0.3736    0.7725 N   0  0  0  0  0  0  0  0  0  0  0  0
   -1.3297    1.1600    0.7015 C   0  0  2  0  0  0  0  0  0  0  0  0
   -0.4177    0.6873   -0.2267 O   0  0  0  0  0  0  0  0  0  0  0  0
    0.8213    0.6347    0.3754 C   0  0  2  0  0  0  0  0  0  0  0  0
    1.7514   -0.3625   -0.2577 C   0  0  0  0  0  0  0  0  0  0  0  0
    1.9655   -0.0473   -1.5987 O   0  0  0  0  0  0  0  0  0  0  0  0
    3.2259   -1.6125   -1.9885 W   0  0  0  0  0  5  0  0  0  0  0  0
    3.7680   -1.3640   -3.6501 O   0  0  0  0  0  0  0  0  0  0  0  0
    2.1061   -3.0294   -1.7960 O   0  0  0  0  0  0  0  0  0  0  0  0
    4.4142   -1.4638   -0.7790 O   0  0  0  0  0  0  0  0  0  0  0  0
    5.5556   -0.5786   -0.4217 W   0  0  0  0  0  5  0  0  0  0  0  0
    6.3949   -0.1580    0.9606 O   0  0  0  0  0  0  0  0  0  0  0  0
    6.0042    0.8413   -1.7933 O   0  0  0  0  0  0  0  0  0  0  0  0
    7.3393   -1.7518   -1.3976 O   0  0  0  0  0  0  0  0  0  0  0  0
    0.4482    0.1517    1.7696 C   0  0  1  0  0  0  0  0  0  0  0  0
    1.4840    0.2321    2.6725 O   0  0  0  0  0  0  0  0  0  0  0  0
   -0.6327    1.2035    2.0490 C   0  0  1  0  0  0  0  0  0  0  0  0
    0.0532    2.4115    2.1618 O   0  0  0  0  0  0  0  0  0  0  0  0
   -6.9321   -2.5288   -0.8037 H   0  0  0  0  0  0  0  0  0  0  0  0
   -7.1411   -1.1962    0.4208 H   0  0  0  0  0  0  0  0  0  0  0  0
   -4.4122    1.1169   -3.2852 H   0  0  0  0  0  0  0  0  0  0  0  0
   -2.5969   -0.5576    2.6777 H   0  0  0  0  0  0  0  0  0  0  0  0
   -1.5408    2.2313    0.4222 H   0  0  0  0  0  0  0  0  0  0  0  0
    1.2620    1.6376    0.4995 H   0  0  0  0  0  0  0  0  0  0  0  0
    2.7008   -0.3157    0.3356 H   0  0  0  0  0  0  0  0  0  0  0  0
    1.2860   -1.3681   -0.1387 H   0  0  0  0  0  0  0  0  0  0  0  0
    4.4621   -0.6585   -3.6719 H   0  0  0  0  0  0  0  0  0  0  0  0
    6.3955    0.7692    1.3149 H   0  0  0  0  0  0  0  0  0  0  0  0
    5.4988    1.5787   -1.3637 H   0  0  0  0  0  0  0  0  0  0  0  0
   -0.0199   -0.8441    1.6805 H   0  0  0  0  0  0  0  0  0  0  0  0
    1.9971   -0.6126    2.6237 H   0  0  0  0  0  0  0  0  0  0  0  0
   -1.2620    0.9689    2.8994 H   0  0  0  0  0  0  0  0  0  0  0  0
    0.5839    2.4049    3.0004 H   0  0  0  0  0  0  0  0  0  0  0  0
  1  2  1  0
  2  3  2  0
  3  4  1  0
  4  5  2  0
  5  6  1  0
  6  7  2  0
  7  8  1  0
  8  9  2  0
  9 10  1  0
 10 11  1  0
 11 12  1  0
 12 13  1  0
 13 14  1  0
 14 15  1  0
 15 16  1  0
 16 17  1  0
 16 18  2  0
 16 19  1  0
 19 20  1  0
 20 21  1  0
 20 22  1  0
 20 23  2  0
 13 24  1  0
 24 25  1  0
 24 26  1  0
 26 27  1  0
  7  2  1  0
 26 11  1  0
 10  6  1  0
  1 28  1  0
  1 29  1  0
  4 30  1  0
  9 31  1  0
 11 32  1  6
 13 33  1  1
 14 34  1  0
 14 35  1  0
 17 36  1  0
 21 37  1  0
 22 38  1  0
 24 39  1  6
 25 40  1  0
 26 41  1  1
 27 42  1  0
M  END
$$$$
