
     RDKit          3D

 75 80  0  0  0  0  0  0  0  0999 V2000
   -4.1561   -7.6315    1.1071 C   0  0  0  0  0  0  0  0  0  0  0  0
   -3.7510   -6.2773    1.0471 N   0  0  0  0  0  0  0  0  0  0  0  0
   -3.5824   -5.7975   -0.3692 C   0  0  1  0  0  0  0  0  0  0  0  0
   -5.0774   -5.6943   -0.7972 C   0  0  0  0  0  0  0  0  0  0  0  0
   -2.9936   -4.4888   -0.2409 C   0  0  0  0  0  0  0  0  0  0  0  0
   -3.4756   -3.8101    0.7628 O   0  0  0  0  0  0  0  0  0  0  0  0
   -1.9994   -3.8573   -1.0338 N   0  0  0  0  0  0  0  0  0  0  0  0
   -1.6445   -2.5060   -0.7325 C   0  0  0  0  0  0  0  0  0  0  0  0
   -2.1250   -1.6644   -0.0788 C   0  0  0  0  0  0  0  0  0  0  0  0
   -2.1844   -0.4475    0.4696 C   0  0  0  0  0  0  0  0  0  0  0  0
   -0.7753    0.2011   -0.1285 C   0  0  0  0  0  0  0  0  0  0  0  0
   -0.8240    1.5434    0.5787 C   0  0  0  0  0  0  0  0  0  0  0  0
   -1.5213    2.4821    0.1906 C   0  0  0  0  0  0  0  0  0  0  0  0
   -2.0678    3.2977   -0.9679 C   0  0  0  0  0  0  0  0  0  0  0  0
   -3.4197    3.3837   -1.1000 C   0  0  0  0  0  0  0  0  0  0  0  0
   -3.9226    4.4794   -1.9518 C   0  0  0  0  0  0  0  0  0  0  0  0
   -2.9578    5.3289   -2.4822 C   0  0  0  0  0  0  0  0  0  0  0  0
   -3.4573    6.4380   -3.2907 O   0  0  0  0  0  0  0  0  0  0  0  0
   -2.8473    7.4619   -3.7070 C   0  0  0  0  0  0  0  0  0  0  0  0
   -1.6971    5.1906   -2.2893 N   0  0  0  0  0  0  0  0  0  0  0  0
   -1.1468    4.1444   -1.5205 C   0  0  0  0  0  0  0  0  0  0  0  0
   -2.0776    3.1941    1.4297 N   0  0  0  0  0  0  0  0  0  0  0  0
   -1.2799    2.2429    2.5518 C   0  0  0  0  0  0  0  0  0  0  0  0
   -1.7519    2.8822    3.7168 C   0  0  0  0  0  0  0  0  0  0  0  0
   -0.9352    1.8170    4.8433 C   0  0  0  0  0  0  0  0  0  0  0  0
   -1.4729    2.1737    6.1018 C   0  0  0  0  0  0  0  0  0  0  0  0
   -0.3460    1.0527    4.0796 C   0  0  0  0  0  0  0  0  0  0  0  0
    0.0198    0.5792    2.8390 C   0  0  0  0  0  0  0  0  0  0  0  0
   -0.7775    1.5701    1.9065 N   0  0  0  0  0  0  0  0  0  0  0  0
   -0.2712   -0.6045   -0.7971 C   0  0  0  0  0  0  0  0  0  0  0  0
    1.2863   -0.3683   -0.9226 C   0  0  0  0  0  0  0  0  0  0  0  0
    2.5406   -0.1805   -1.0270 C   0  0  0  0  0  0  0  0  0  0  0  0
    4.0314    0.0205   -1.1515 C   0  0  0  0  0  0  0  0  0  0  0  0
    4.5272   -1.2812   -1.4902 C   0  0  0  0  0  0  0  0  0  0  0  0
    5.9119   -1.3284   -1.5610 C   0  0  0  0  0  0  0  0  0  0  0  0
    6.6968   -0.2235   -1.3194 C   0  0  0  0  0  0  0  0  0  0  0  0
    8.0397   -0.3279   -1.3313 C   0  0  0  0  0  0  0  0  0  0  0  0
    8.7684   -1.6121   -1.6114 C   0  0  0  0  0  0  0  0  0  0  0  0
    8.8572    0.7309   -1.0675 N   0  0  0  0  0  0  0  0  0  0  0  0
    8.2071    1.9550   -0.7507 C   0  0  0  0  0  0  0  0  0  0  0  0
    6.8590    2.0440   -0.7436 C   0  0  0  0  0  0  0  0  0  0  0  0
    6.0362    1.0001   -1.0123 C   0  0  0  0  0  0  0  0  0  0  0  0
    4.5959    1.0851   -0.9327 C   0  0  0  0  0  0  0  0  0  0  0  0
   -0.3336   -1.9669   -1.3631 N   0  0  0  0  0  0  0  0  0  0  0  0
   -3.3251   -8.2505    1.5782 H   0  0  0  0  0  0  0  0  0  0  0  0
   -5.0092   -7.8167    1.8481 H   0  0  0  0  0  0  0  0  0  0  0  0
   -4.3627   -8.0982    0.1475 H   0  0  0  0  0  0  0  0  0  0  0  0
   -4.5424   -5.6954    1.4705 H   0  0  0  0  0  0  0  0  0  0  0  0
   -3.1062   -6.5691   -0.9385 H   0  0  0  0  0  0  0  0  0  0  0  0
   -5.6037   -6.5499   -0.3048 H   0  0  0  0  0  0  0  0  0  0  0  0
   -5.5081   -4.7969   -0.2736 H   0  0  0  0  0  0  0  0  0  0  0  0
   -5.2376   -5.6775   -1.8554 H   0  0  0  0  0  0  0  0  0  0  0  0
   -1.5394   -4.3464   -1.7751 H   0  0  0  0  0  0  0  0  0  0  0  0
   -3.2850   -2.0897    0.3222 H   0  0  0  0  0  0  0  0  0  0  0  0
   -2.6974    0.1671    1.0112 H   0  0  0  0  0  0  0  0  0  0  0  0
   -4.1060    2.7876   -0.5681 H   0  0  0  0  0  0  0  0  0  0  0  0
   -4.9560    4.5769   -2.1180 H   0  0  0  0  0  0  0  0  0  0  0  0
   -2.1188    7.9424   -2.8670 H   0  0  0  0  0  0  0  0  0  0  0  0
   -3.6240    8.4033   -3.6976 H   0  0  0  0  0  0  0  0  0  0  0  0
   -2.2582    7.5959   -4.6314 H   0  0  0  0  0  0  0  0  0  0  0  0
   -0.0805    4.0271   -1.4910 H   0  0  0  0  0  0  0  0  0  0  0  0
   -2.2279    3.4795    4.1764 H   0  0  0  0  0  0  0  0  0  0  0  0
   -2.6993    2.2236    5.9584 H   0  0  0  0  0  0  0  0  0  0  0  0
   -1.3296    3.2299    6.3792 H   0  0  0  0  0  0  0  0  0  0  0  0
   -1.4189    1.4335    6.9038 H   0  0  0  0  0  0  0  0  0  0  0  0
    0.2756    0.2599    4.8582 H   0  0  0  0  0  0  0  0  0  0  0  0
    0.5432   -0.0470    2.3820 H   0  0  0  0  0  0  0  0  0  0  0  0
    3.9572   -2.1181   -1.7242 H   0  0  0  0  0  0  0  0  0  0  0  0
    6.3428   -2.2994   -1.8204 H   0  0  0  0  0  0  0  0  0  0  0  0
    9.6228   -1.7287   -0.8767 H   0  0  0  0  0  0  0  0  0  0  0  0
    9.1622   -1.5670   -2.6802 H   0  0  0  0  0  0  0  0  0  0  0  0
    8.1076   -2.4973   -1.4833 H   0  0  0  0  0  0  0  0  0  0  0  0
    8.8936    2.7558   -0.4860 H   0  0  0  0  0  0  0  0  0  0  0  0
    6.4183    2.9823   -0.4714 H   0  0  0  0  0  0  0  0  0  0  0  0
    4.2075    2.0525   -0.8259 H   0  0  0  0  0  0  0  0  0  0  0  0
  1  2  1  0
  2  3  1  0
  3  4  1  0
  3  5  1  0
  5  6  2  0
  5  7  1  0
  7  8  1  0
  8  9  2  0
  9 10  1  0
 10 11  2  0
 11 12  1  0
 12 13  2  0
 13 14  1  0
 14 15  2  0
 15 16  1  0
 16 17  2  0
 17 18  1  0
 18 19  1  0
 17 20  1  0
 20 21  2  0
 13 22  1  0
 22 23  2  0
 23 24  1  0
 24 25  2  0
 25 26  1  0
 25 27  1  0
 27 28  2  0
 28 29  1  0
 11 30  1  0
 30 31  1  0
 31 32  3  0
 32 33  1  0
 33 34  2  0
 34 35  1  0
 35 36  2  0
 36 37  1  0
 37 38  1  0
 37 39  2  0
 39 40  1  0
 40 41  2  0
 41 42  1  0
 42 43  2  0
 30 44  2  0
 44  8  1  0
 29 12  1  0
 43 33  1  0
 21 14  1  0
 29 23  1  0
 42 36  1  0
  1 45  1  0
  1 46  1  0
  1 47  1  0
  2 48  1  0
  3 49  1  6
  4 50  1  0
  4 51  1  0
  4 52  1  0
  7 53  1  0
  9 54  1  0
 10 55  1  0
 15 56  1  0
 16 57  1  0
 19 58  1  0
 19 59  1  0
 19 60  1  0
 21 61  1  0
 24 62  1  0
 26 63  1  0
 26 64  1  0
 26 65  1  0
 27 66  1  0
 28 67  1  0
 34 68  1  0
 35 69  1  0
 38 70  1  0
 38 71  1  0
 38 72  1  0
 40 73  1  0
 41 74  1  0
 43 75  1  0
M  END
$$$$
