
     RDKit          3D

 64 69  0  0  0  0  0  0  0  0999 V2000
   -5.6342    1.2499    1.6769 C   0  0  0  0  0  0  0  0  0  0  0  0
   -5.4095    1.8242    0.3283 C   0  0  0  0  0  0  0  0  0  0  0  0
   -5.8756    3.0841    0.0241 C   0  0  0  0  0  0  0  0  0  0  0  0
   -5.6567    3.6061   -1.2431 C   0  0  0  0  0  0  0  0  0  0  0  0
   -4.9675    2.8082   -2.1419 C   0  0  0  0  0  0  0  0  0  0  0  0
   -4.5280    1.5798   -1.8041 N   0  0  0  0  0  0  0  0  0  0  0  0
   -4.7216    1.0433   -0.5886 C   0  0  0  0  0  0  0  0  0  0  0  0
   -4.2287   -0.3124   -0.2447 C   0  0  0  0  0  0  0  0  0  0  0  0
   -3.0260   -0.2596    0.6019 N   0  0  0  0  0  0  0  0  0  0  0  0
   -2.6753   -1.6437    0.8675 C   0  0  0  0  0  0  0  0  0  0  0  0
   -1.2629   -1.8123    1.3653 C   0  0  0  0  0  0  0  0  0  0  0  0
   -0.3151   -1.3486    0.3177 C   0  0  0  0  0  0  0  0  0  0  0  0
   -0.9654   -0.4879   -0.7322 C   0  0  0  0  0  0  0  0  0  0  0  0
   -1.9876    0.4292   -0.1005 C   0  0  0  0  0  0  0  0  0  0  0  0
    0.6780   -0.4418    1.0182 C   0  0  0  0  0  0  0  0  0  0  0  0
    0.5111    0.2596    2.0348 O   0  0  0  0  0  0  0  0  0  0  0  0
    1.8960   -0.5223    0.2924 N   0  0  0  0  0  0  0  0  0  0  0  0
    2.9864    0.3702    0.3218 C   0  0  0  0  0  0  0  0  0  0  0  0
    3.0274    1.4499   -0.5616 C   0  0  0  0  0  0  0  0  0  0  0  0
    4.0548    2.3504   -0.5842 C   0  0  0  0  0  0  0  0  0  0  0  0
    5.1118    2.2172    0.2888 C   0  0  0  0  0  0  0  0  0  0  0  0
    6.1816    3.1615    0.2608 N   0  0  0  0  0  0  0  0  0  0  0  0
    7.2835    3.1590    1.0319 C   0  0  0  0  0  0  0  0  0  0  0  0
    8.0682    4.2435    0.6904 C   0  0  0  0  0  0  0  0  0  0  0  0
    7.3914    4.9008   -0.3207 C   0  0  0  0  0  0  0  0  0  0  0  0
    6.2749    4.1975   -0.5233 N   0  0  0  0  0  0  0  0  0  0  0  0
    5.0852    1.1603    1.1631 C   0  0  0  0  0  0  0  0  0  0  0  0
    4.0496    0.2482    1.1896 C   0  0  0  0  0  0  0  0  0  0  0  0
    1.8088   -1.6942   -0.4839 C   0  0  0  0  0  0  0  0  0  0  0  0
    2.7237   -2.0731   -1.2556 O   0  0  0  0  0  0  0  0  0  0  0  0
    0.5466   -2.3442   -0.2463 N   0  0  0  0  0  0  0  0  0  0  0  0
    0.2532   -3.7015   -0.5202 C   0  0  0  0  0  0  0  0  0  0  0  0
    1.1588   -4.6094   -1.0214 C   0  0  0  0  0  0  0  0  0  0  0  0
    0.8348   -5.9228   -1.2818 C   0  0  0  0  0  0  0  0  0  0  0  0
    1.6975   -6.7027   -1.7365 O   0  0  0  0  0  0  0  0  0  0  0  0
   -0.3995   -6.3645   -1.0492 N   0  0  0  0  0  0  0  0  0  0  0  0
   -1.3062   -5.4922   -0.5572 C   0  0  0  0  0  0  0  0  0  0  0  0
   -0.9857   -4.2151   -0.3056 N   0  0  0  0  0  0  0  0  0  0  0  0
   -6.2878    1.9299    2.2555 H   0  0  0  0  0  0  0  0  0  0  0  0
   -4.6708    1.1595    2.2007 H   0  0  0  0  0  0  0  0  0  0  0  0
   -6.1288    0.2526    1.5090 H   0  0  0  0  0  0  0  0  0  0  0  0
   -6.4150    3.6929    0.7463 H   0  0  0  0  0  0  0  0  0  0  0  0
   -6.0199    4.6028   -1.5000 H   0  0  0  0  0  0  0  0  0  0  0  0
   -4.8057    3.2356   -3.1317 H   0  0  0  0  0  0  0  0  0  0  0  0
   -5.0257   -0.9020    0.2422 H   0  0  0  0  0  0  0  0  0  0  0  0
   -3.9771   -0.8152   -1.2171 H   0  0  0  0  0  0  0  0  0  0  0  0
   -3.3628   -2.0273    1.6411 H   0  0  0  0  0  0  0  0  0  0  0  0
   -2.8670   -2.1928   -0.0518 H   0  0  0  0  0  0  0  0  0  0  0  0
   -1.1567   -1.2431    2.3241 H   0  0  0  0  0  0  0  0  0  0  0  0
   -1.0873   -2.8569    1.6043 H   0  0  0  0  0  0  0  0  0  0  0  0
   -1.4277   -1.0362   -1.5509 H   0  0  0  0  0  0  0  0  0  0  0  0
   -0.1715    0.1674   -1.1556 H   0  0  0  0  0  0  0  0  0  0  0  0
   -2.3950    1.0665   -0.9094 H   0  0  0  0  0  0  0  0  0  0  0  0
   -1.5007    1.1437    0.6186 H   0  0  0  0  0  0  0  0  0  0  0  0
    2.2059    1.5729   -1.2564 H   0  0  0  0  0  0  0  0  0  0  0  0
    4.0109    3.1596   -1.2999 H   0  0  0  0  0  0  0  0  0  0  0  0
    7.5036    2.4138    1.7966 H   0  0  0  0  0  0  0  0  0  0  0  0
    9.0199    4.5352    1.1155 H   0  0  0  0  0  0  0  0  0  0  0  0
    7.7451    5.8089   -0.8182 H   0  0  0  0  0  0  0  0  0  0  0  0
    5.9164    1.0477    1.8560 H   0  0  0  0  0  0  0  0  0  0  0  0
    4.0378   -0.5833    1.8837 H   0  0  0  0  0  0  0  0  0  0  0  0
    2.1840   -4.2726   -1.2197 H   0  0  0  0  0  0  0  0  0  0  0  0
   -0.6831   -7.3756   -1.2397 H   0  0  0  0  0  0  0  0  0  0  0  0
   -2.3184   -5.8786   -0.3728 H   0  0  0  0  0  0  0  0  0  0  0  0
  1  2  1  0
  2  3  2  0
  3  4  1  0
  4  5  2  0
  5  6  1  0
  6  7  2  0
  7  8  1  0
  8  9  1  0
  9 10  1  0
 10 11  1  0
 11 12  1  0
 12 13  1  0
 13 14  1  0
 12 15  1  0
 15 16  2  0
 15 17  1  0
 17 18  1  0
 18 19  2  0
 19 20  1  0
 20 21  2  0
 21 22  1  0
 22 23  1  0
 23 24  2  0
 24 25  1  0
 25 26  2  0
 21 27  1  0
 27 28  2  0
 17 29  1  0
 29 30  2  0
 29 31  1  0
 31 32  1  0
 32 33  2  0
 33 34  1  0
 34 35  2  0
 34 36  1  0
 36 37  1  0
 37 38  2  0
  7  2  1  0
 14  9  1  0
 28 18  1  0
 38 32  1  0
 31 12  1  0
 26 22  1  0
  1 39  1  0
  1 40  1  0
  1 41  1  0
  3 42  1  0
  4 43  1  0
  5 44  1  0
  8 45  1  0
  8 46  1  0
 10 47  1  0
 10 48  1  0
 11 49  1  0
 11 50  1  0
 13 51  1  0
 13 52  1  0
 14 53  1  0
 14 54  1  0
 19 55  1  0
 20 56  1  0
 23 57  1  0
 24 58  1  0
 25 59  1  0
 27 60  1  0
 28 61  1  0
 33 62  1  0
 36 63  1  0
 37 64  1  0
M  END
$$$$
