
     RDKit          3D

 39 39  0  0  0  0  0  0  0  0999 V2000
   -3.9895   -1.9196   -0.0078 O   0  0  0  0  0  0  0  0  0  0  0  0
   -4.8526   -1.3842   -0.7273 C   0  0  0  0  0  0  0  0  0  0  0  0
   -4.5797   -0.0813   -1.3434 C   0  0  0  0  0  0  0  0  0  0  0  0
   -3.2668    0.5296   -1.0005 C   0  0  0  0  0  0  0  0  0  0  0  0
   -3.1271    0.7876    0.4598 C   0  0  0  0  0  0  0  0  0  0  0  0
   -1.7882    1.4143    0.8126 C   0  0  0  0  0  0  0  0  0  0  0  0
   -0.6203    0.5440    0.4282 C   0  0  0  0  0  0  0  0  0  0  0  0
    0.6337    1.2761    0.8320 C   0  0  0  0  0  0  0  0  0  0  0  0
    1.8566    0.4798    0.4859 C   0  0  0  0  0  0  0  0  0  0  0  0
    1.6820   -0.6230   -0.0607 O   0  0  0  0  0  0  0  0  0  0  0  0
    3.1481    0.9331    0.7545 N   0  0  0  0  0  0  0  0  0  0  0  0
    4.3757    0.3046    0.4907 C   0  0  0  0  0  0  0  0  0  0  0  0
    4.5096   -0.9150   -0.1023 C   0  0  0  0  0  0  0  0  0  0  0  0
    5.7613   -1.5101   -0.3487 C   0  0  0  0  0  0  0  0  0  0  0  0
    6.9176   -0.8623    0.0106 C   0  0  0  0  0  0  0  0  0  0  0  0
    6.7896    0.3716    0.6107 C   0  0  0  0  0  0  0  0  0  0  0  0
    5.5656    0.9565    0.8532 C   0  0  0  0  0  0  0  0  0  0  0  0
   -6.0869   -2.0811   -0.9180 N   0  0  0  0  0  0  0  0  0  0  0  0
   -6.2649   -3.2784   -0.3169 O   0  0  0  0  0  0  0  0  0  0  0  0
   -5.4445    0.5886   -1.0676 H   0  0  0  0  0  0  0  0  0  0  0  0
   -4.7095   -0.2199   -2.4555 H   0  0  0  0  0  0  0  0  0  0  0  0
   -2.4397   -0.0589   -1.4483 H   0  0  0  0  0  0  0  0  0  0  0  0
   -3.1927    1.5367   -1.5068 H   0  0  0  0  0  0  0  0  0  0  0  0
   -3.3313   -0.0403    1.1335 H   0  0  0  0  0  0  0  0  0  0  0  0
   -3.8895    1.5842    0.7098 H   0  0  0  0  0  0  0  0  0  0  0  0
   -1.8236    1.6192    1.8999 H   0  0  0  0  0  0  0  0  0  0  0  0
   -1.7161    2.4280    0.3274 H   0  0  0  0  0  0  0  0  0  0  0  0
   -0.7135   -0.3930    1.0371 H   0  0  0  0  0  0  0  0  0  0  0  0
   -0.6146    0.2630   -0.6272 H   0  0  0  0  0  0  0  0  0  0  0  0
    0.6097    1.4234    1.9179 H   0  0  0  0  0  0  0  0  0  0  0  0
    0.6495    2.2771    0.3522 H   0  0  0  0  0  0  0  0  0  0  0  0
    3.1888    1.8990    1.2292 H   0  0  0  0  0  0  0  0  0  0  0  0
    3.6353   -1.4653   -0.4036 H   0  0  0  0  0  0  0  0  0  0  0  0
    5.8001   -2.4748   -0.8202 H   0  0  0  0  0  0  0  0  0  0  0  0
    7.8905   -1.3164   -0.1769 H   0  0  0  0  0  0  0  0  0  0  0  0
    7.7014    0.8847    0.8952 H   0  0  0  0  0  0  0  0  0  0  0  0
    5.4806    1.9336    1.3290 H   0  0  0  0  0  0  0  0  0  0  0  0
   -6.7927   -1.6215   -1.5187 H   0  0  0  0  0  0  0  0  0  0  0  0
   -6.9519   -3.7897   -0.8101 H   0  0  0  0  0  0  0  0  0  0  0  0
  1  2  2  0
  2  3  1  0
  3  4  1  0
  4  5  1  0
  5  6  1  0
  6  7  1  0
  7  8  1  0
  8  9  1  0
  9 10  2  0
  9 11  1  0
 11 12  1  0
 12 13  2  0
 13 14  1  0
 14 15  2  0
 15 16  1  0
 16 17  2  0
  2 18  1  0
 18 19  1  0
 17 12  1  0
  3 20  1  0
  3 21  1  0
  4 22  1  0
  4 23  1  0
  5 24  1  0
  5 25  1  0
  6 26  1  0
  6 27  1  0
  7 28  1  0
  7 29  1  0
  8 30  1  0
  8 31  1  0
 11 32  1  0
 13 33  1  0
 14 34  1  0
 15 35  1  0
 16 36  1  0
 17 37  1  0
 18 38  1  0
 19 39  1  0
M  END
$$$$
