
     RDKit          3D

 51 55  0  0  0  0  0  0  0  0999 V2000
    6.1334   -1.6363    3.6087 O   0  0  0  0  0  1  0  0  0  0  0  0
    6.9656   -0.7325    3.0025 N   0  0  0  0  0  4  0  0  0  0  0  0
    8.0376   -0.7234    3.6699 O   0  0  0  0  0  0  0  0  0  0  0  0
    6.8287    0.1056    1.8649 C   0  0  0  0  0  0  0  0  0  0  0  0
    5.6194    0.0233    1.2029 C   0  0  0  0  0  0  0  0  0  0  0  0
    5.4442    0.8166    0.0967 C   0  0  0  0  0  0  0  0  0  0  0  0
    6.4048    1.6824   -0.3816 C   0  0  0  0  0  0  0  0  0  0  0  0
    7.5937    1.6994    0.3494 C   0  0  0  0  0  0  0  0  0  0  0  0
    7.8446    0.9342    1.4681 C   0  0  0  0  0  0  0  0  0  0  0  0
    4.1858    0.7595   -0.6348 C   0  0  0  0  0  0  0  0  0  0  0  0
    3.0207    0.0111   -0.4505 C   0  0  0  0  0  0  0  0  0  0  0  0
    2.0080    0.2138   -1.3540 C   0  0  0  0  0  0  0  0  0  0  0  0
    2.1845    1.1270   -2.3787 C   0  0  0  0  0  0  0  0  0  0  0  0
    3.8084    1.7743   -2.1421 S   0  0  0  0  0  0  0  0  0  0  0  0
    1.0795    1.1880   -3.1681 C   0  0  0  0  0  0  0  0  0  0  0  0
    0.2251    0.2773   -2.5843 C   0  0  0  0  0  0  0  0  0  0  0  0
    0.7756   -0.3038   -1.5040 N   0  0  0  0  0  0  0  0  0  0  0  0
   -0.2382   -1.2147   -1.0258 C   0  0  0  0  0  0  0  0  0  0  0  0
   -0.0872   -2.1889    0.2810 S   0  0  0  0  0  0  0  0  0  0  0  0
   -1.3826   -1.1621   -1.8326 N   0  0  0  0  0  0  0  0  0  0  0  0
   -2.6211   -1.9051   -1.7251 C   0  0  0  0  0  0  0  0  0  0  0  0
   -3.6559   -1.2186   -0.9069 C   0  0  0  0  0  0  0  0  0  0  0  0
   -3.2357   -0.9595    0.5012 C   0  0  0  0  0  0  0  0  0  0  0  0
   -4.2610   -0.2941    1.2798 N   0  0  0  0  0  0  0  0  0  0  0  0
   -4.5055    1.0480    0.8589 C   0  0  0  0  0  0  0  0  0  0  0  0
   -5.5876    1.6627    1.6912 C   0  0  0  0  0  0  0  0  0  0  0  0
   -6.7241    0.8340    1.5464 O   0  0  0  0  0  0  0  0  0  0  0  0
   -6.4362   -0.3165    2.2790 C   0  0  0  0  0  0  0  0  0  0  0  0
   -5.4203   -1.1048    1.4835 C   0  0  0  0  0  0  0  0  0  0  0  0
   -1.1141   -0.2044   -2.8519 C   0  0  0  0  0  0  0  0  0  0  0  0
   -1.9260    0.1045   -3.7627 O   0  0  0  0  0  0  0  0  0  0  0  0
    4.8015   -0.6160    1.4891 H   0  0  0  0  0  0  0  0  0  0  0  0
    6.2926    2.3190   -1.2515 H   0  0  0  0  0  0  0  0  0  0  0  0
    8.3912    2.3701    0.0125 H   0  0  0  0  0  0  0  0  0  0  0  0
    8.7911    0.9955    1.9899 H   0  0  0  0  0  0  0  0  0  0  0  0
    3.0794   -0.6437    0.4039 H   0  0  0  0  0  0  0  0  0  0  0  0
    1.0034    1.8307   -4.0182 H   0  0  0  0  0  0  0  0  0  0  0  0
   -3.0595   -2.1045   -2.7439 H   0  0  0  0  0  0  0  0  0  0  0  0
   -2.3488   -2.9133   -1.3470 H   0  0  0  0  0  0  0  0  0  0  0  0
   -4.5621   -1.8931   -0.9168 H   0  0  0  0  0  0  0  0  0  0  0  0
   -3.9834   -0.3081   -1.4356 H   0  0  0  0  0  0  0  0  0  0  0  0
   -2.3675   -0.2623    0.4960 H   0  0  0  0  0  0  0  0  0  0  0  0
   -2.9780   -1.8902    1.0120 H   0  0  0  0  0  0  0  0  0  0  0  0
   -3.5399    1.5972    0.9419 H   0  0  0  0  0  0  0  0  0  0  0  0
   -4.8499    1.1201   -0.2048 H   0  0  0  0  0  0  0  0  0  0  0  0
   -5.8754    2.6300    1.1902 H   0  0  0  0  0  0  0  0  0  0  0  0
   -5.3383    1.8113    2.7508 H   0  0  0  0  0  0  0  0  0  0  0  0
   -6.0008    0.0239    3.2504 H   0  0  0  0  0  0  0  0  0  0  0  0
   -7.3803   -0.9161    2.4360 H   0  0  0  0  0  0  0  0  0  0  0  0
   -5.1349   -1.9765    2.1177 H   0  0  0  0  0  0  0  0  0  0  0  0
   -5.9043   -1.4711    0.5588 H   0  0  0  0  0  0  0  0  0  0  0  0
  1  2  1  0
  2  3  2  0
  2  4  1  0
  4  5  2  0
  5  6  1  0
  6  7  2  0
  7  8  1  0
  8  9  2  0
  6 10  1  0
 10 11  2  0
 11 12  1  0
 12 13  2  0
 13 14  1  0
 13 15  1  0
 15 16  2  0
 16 17  1  0
 17 18  1  0
 18 19  2  0
 18 20  1  0
 20 21  1  0
 21 22  1  0
 22 23  1  0
 23 24  1  0
 24 25  1  0
 25 26  1  0
 26 27  1  0
 27 28  1  0
 28 29  1  0
 20 30  1  0
 30 31  2  0
  9  4  1  0
 14 10  1  0
 30 16  1  0
 17 12  1  0
 29 24  1  0
  5 32  1  0
  7 33  1  0
  8 34  1  0
  9 35  1  0
 11 36  1  0
 15 37  1  0
 21 38  1  0
 21 39  1  0
 22 40  1  0
 22 41  1  0
 23 42  1  0
 23 43  1  0
 25 44  1  0
 25 45  1  0
 26 46  1  0
 26 47  1  0
 28 48  1  0
 28 49  1  0
 29 50  1  0
 29 51  1  0
M  CHG  2   1  -1   2   1
M  END
$$$$
