
     RDKit          3D

 61 65  0  0  0  0  0  0  0  0999 V2000
   -4.7900   -3.7945   -0.9743 C   0  0  0  0  0  0  0  0  0  0  0  0
   -4.0883   -2.4914   -0.7277 N   0  0  0  0  0  0  0  0  0  0  0  0
   -2.8763   -2.6077    0.0207 C   0  0  0  0  0  0  0  0  0  0  0  0
   -4.6984   -1.3450   -1.2624 C   0  0  0  0  0  0  0  0  0  0  0  0
   -5.8083   -1.5558   -1.9207 O   0  0  0  0  0  0  0  0  0  0  0  0
   -4.2915    0.0488   -1.2021 C   0  0  2  0  0  0  0  0  0  0  0  0
   -2.9349    0.4560   -1.7581 C   0  0  0  0  0  0  0  0  0  0  0  0
   -3.2545    0.5296   -0.3191 C   0  0  1  0  0  0  0  0  0  0  0  0
   -3.4426    1.8278    0.3932 C   0  0  1  0  0  0  0  0  0  0  0  0
   -4.3198    1.5047    1.6041 C   0  0  0  0  0  0  0  0  0  0  0  0
   -2.0900    2.2499    0.9089 C   0  0  0  0  0  0  0  0  0  0  0  0
   -0.9570    1.5664    0.5257 C   0  0  0  0  0  0  0  0  0  0  0  0
    0.3062    1.9452    0.9703 C   0  0  0  0  0  0  0  0  0  0  0  0
    1.5218    1.2468    0.5859 C   0  0  0  0  0  0  0  0  0  0  0  0
    1.5574   -0.0616    0.5058 C   0  0  0  0  0  0  0  0  0  0  0  0
    0.4183   -0.7645    0.7956 F   0  0  0  0  0  0  0  0  0  0  0  0
    2.7217   -0.8335    0.1175 C   0  0  0  0  0  0  0  0  0  0  0  0
    3.9491   -0.2898   -0.2104 C   0  0  0  0  0  0  0  0  0  0  0  0
    4.9919   -1.0624   -0.5768 N   0  0  0  0  0  0  0  0  0  0  0  0
    4.8836   -2.3912   -0.6392 C   0  0  0  0  0  0  0  0  0  0  0  0
    5.9126   -3.2291   -1.0070 O   0  0  0  0  0  0  0  0  0  0  0  0
    7.2030   -2.7850   -1.3598 C   0  0  0  0  0  0  0  0  0  0  0  0
    7.7850   -2.0503   -0.2202 C   0  0  0  0  0  0  0  0  0  0  0  0
    7.6777   -0.7233    0.0089 N   0  0  0  0  0  0  0  0  0  0  0  0
    8.3400   -0.4288    1.1433 C   0  0  0  0  0  0  0  0  0  0  0  0
    8.8568   -1.6042    1.6065 C   0  0  0  0  0  0  0  0  0  0  0  0
    8.4947   -2.5463    0.7516 O   0  0  0  0  0  0  0  0  0  0  0  0
    3.6671   -2.9697   -0.3164 C   0  0  0  0  0  0  0  0  0  0  0  0
    2.6526   -2.1800    0.0427 N   0  0  0  0  0  0  0  0  0  0  0  0
    0.3367    3.0383    1.8088 C   0  0  0  0  0  0  0  0  0  0  0  0
   -0.7917    3.7319    2.1995 C   0  0  0  0  0  0  0  0  0  0  0  0
   -2.0309    3.3482    1.7543 C   0  0  0  0  0  0  0  0  0  0  0  0
   -3.1921    3.9557    2.0750 F   0  0  0  0  0  0  0  0  0  0  0  0
   -3.9352    2.9294   -0.3453 N   0  0  0  0  0  0  0  0  0  0  0  0
   -4.8464    2.8981   -1.2417 C   0  0  0  0  0  0  0  0  0  0  0  0
   -5.2514    4.0876   -1.9130 N   0  0  0  0  0  0  0  0  0  0  0  0
   -5.5648    1.3095   -1.5949 S   0  0  0  0  0  0  0  0  0  0  0  0
   -5.8436   -3.5729   -1.1367 H   0  0  0  0  0  0  0  0  0  0  0  0
   -4.6891   -4.4187   -0.0861 H   0  0  0  0  0  0  0  0  0  0  0  0
   -4.2847   -4.3005   -1.8177 H   0  0  0  0  0  0  0  0  0  0  0  0
   -1.9830   -2.2113   -0.4918 H   0  0  0  0  0  0  0  0  0  0  0  0
   -2.9695   -2.3086    1.0948 H   0  0  0  0  0  0  0  0  0  0  0  0
   -2.6151   -3.7218    0.1257 H   0  0  0  0  0  0  0  0  0  0  0  0
   -2.8253    1.3558   -2.3739 H   0  0  0  0  0  0  0  0  0  0  0  0
   -2.3457   -0.3956   -2.1258 H   0  0  0  0  0  0  0  0  0  0  0  0
   -2.6777   -0.1891    0.3272 H   0  0  0  0  0  0  0  0  0  0  0  0
   -3.6604    1.2900    2.4556 H   0  0  0  0  0  0  0  0  0  0  0  0
   -4.9201    0.5925    1.4154 H   0  0  0  0  0  0  0  0  0  0  0  0
   -5.0469    2.3166    1.8045 H   0  0  0  0  0  0  0  0  0  0  0  0
   -0.9841    0.7133   -0.1464 H   0  0  0  0  0  0  0  0  0  0  0  0
    2.4247    1.7904    0.3575 H   0  0  0  0  0  0  0  0  0  0  0  0
    4.0808    0.7778   -0.1742 H   0  0  0  0  0  0  0  0  0  0  0  0
    7.8500   -3.6345   -1.6604 H   0  0  0  0  0  0  0  0  0  0  0  0
    7.1199   -2.0659   -2.2139 H   0  0  0  0  0  0  0  0  0  0  0  0
    8.4543    0.5325    1.6126 H   0  0  0  0  0  0  0  0  0  0  0  0
    9.4466   -1.7853    2.4835 H   0  0  0  0  0  0  0  0  0  0  0  0
    3.5904   -4.0510   -0.3695 H   0  0  0  0  0  0  0  0  0  0  0  0
    1.3198    3.3510    2.1687 H   0  0  0  0  0  0  0  0  0  0  0  0
   -0.7534    4.5883    2.8582 H   0  0  0  0  0  0  0  0  0  0  0  0
   -6.2446    4.2640   -2.1484 H   0  0  0  0  0  0  0  0  0  0  0  0
   -4.5555    4.8183   -2.1882 H   0  0  0  0  0  0  0  0  0  0  0  0
  1  2  1  0
  2  3  1  0
  2  4  1  0
  4  5  2  0
  6  4  1  1
  6  7  1  0
  7  8  1  0
  8  9  1  0
  9 10  1  1
  9 11  1  0
 11 12  2  0
 12 13  1  0
 13 14  1  0
 14 15  2  0
 15 16  1  0
 15 17  1  0
 17 18  2  0
 18 19  1  0
 19 20  2  0
 20 21  1  0
 21 22  1  0
 22 23  1  0
 23 24  2  0
 24 25  1  0
 25 26  2  0
 26 27  1  0
 20 28  1  0
 28 29  2  0
 13 30  2  0
 30 31  1  0
 31 32  2  0
 32 33  1  0
  9 34  1  0
 34 35  2  0
 35 36  1  0
 35 37  1  0
  8  6  1  0
 32 11  1  0
 37  6  1  0
 29 17  1  0
 27 23  1  0
  1 38  1  0
  1 39  1  0
  1 40  1  0
  3 41  1  0
  3 42  1  0
  3 43  1  0
  7 44  1  0
  7 45  1  0
  8 46  1  1
 10 47  1  0
 10 48  1  0
 10 49  1  0
 12 50  1  0
 14 51  1  0
 18 52  1  0
 22 53  1  0
 22 54  1  0
 25 55  1  0
 26 56  1  0
 28 57  1  0
 30 58  1  0
 31 59  1  0
 36 60  1  0
 36 61  1  0
M  END
$$$$
