
     RDKit          3D

 30 32  0  0  0  0  0  0  0  0999 V2000
    0.8776   -1.1135    1.3405 C   0  0  2  0  0  0  0  0  0  0  0  0
    0.1635   -1.5165    0.0927 C   0  0  0  0  0  0  0  0  0  0  0  0
   -0.9227   -0.5168   -0.3162 C   0  0  1  0  0  0  0  0  0  0  0  0
   -1.4099   -0.9868   -1.5848 N   0  0  0  0  0  0  0  0  0  0  0  0
   -2.6479   -1.2896   -1.4543 C   0  0  0  0  0  0  0  0  0  0  0  0
   -3.3058   -1.7702   -2.5875 O   0  0  0  0  0  0  0  0  0  0  0  0
   -3.0823   -1.0525   -0.1168 N   0  0  0  0  0  0  0  0  0  0  0  0
   -2.0834   -0.5964    0.5747 C   0  0  0  0  0  0  0  0  0  0  0  0
   -2.2198   -0.2764    1.9183 O   0  0  0  0  0  0  0  0  0  0  0  0
   -0.3558    0.8542   -0.3984 C   0  0  0  0  0  0  0  0  0  0  0  0
    0.4942    1.1646    0.6445 C   0  0  0  0  0  0  0  0  0  0  0  0
    0.7681    0.2537    1.6560 O   0  0  0  0  0  0  0  0  0  0  0  0
    1.0668    2.4415    0.6337 C   0  0  0  0  0  0  0  0  0  0  0  0
    0.7477    3.2985   -0.4083 C   0  0  0  0  0  0  0  0  0  0  0  0
   -0.1083    2.9447   -1.4311 C   0  0  0  0  0  0  0  0  0  0  0  0
   -0.3820    3.8155   -2.4155 F   0  0  0  0  0  0  0  0  0  0  0  0
   -0.6787    1.6955   -1.4353 C   0  0  0  0  0  0  0  0  0  0  0  0
    2.3460   -1.3717    1.1284 C   0  0  0  0  0  0  0  0  0  0  0  0
    3.1039   -1.0282    2.2375 O   0  0  0  0  0  0  0  0  0  0  0  0
    2.9259   -1.8581    0.0618 N   0  0  0  0  0  0  0  0  0  0  0  0
    0.5072   -1.7449    2.1712 H   0  0  0  0  0  0  0  0  0  0  0  0
    0.8349   -1.6563   -0.7886 H   0  0  0  0  0  0  0  0  0  0  0  0
   -0.3848   -2.4877    0.2052 H   0  0  0  0  0  0  0  0  0  0  0  0
   -2.8517   -2.4564   -3.2050 H   0  0  0  0  0  0  0  0  0  0  0  0
   -3.0542    0.1490    2.3030 H   0  0  0  0  0  0  0  0  0  0  0  0
    1.7496    2.7460    1.4345 H   0  0  0  0  0  0  0  0  0  0  0  0
    1.1915    4.3004   -0.4250 H   0  0  0  0  0  0  0  0  0  0  0  0
   -1.3506    1.3430   -2.1882 H   0  0  0  0  0  0  0  0  0  0  0  0
    4.0877   -1.3042    2.2850 H   0  0  0  0  0  0  0  0  0  0  0  0
    3.9735   -1.9806    0.0682 H   0  0  0  0  0  0  0  0  0  0  0  0
  1  2  1  0
  3  2  1  1
  3  4  1  0
  4  5  2  0
  5  6  1  0
  5  7  1  0
  7  8  2  0
  8  9  1  0
  3 10  1  0
 10 11  2  0
 11 12  1  0
 11 13  1  0
 13 14  2  0
 14 15  1  0
 15 16  1  0
 15 17  2  0
  1 18  1  0
 18 19  1  0
 18 20  2  3
 12  1  1  0
  8  3  1  0
 17 10  1  0
  1 21  1  1
  2 22  1  0
  2 23  1  0
  6 24  1  0
  9 25  1  0
 13 26  1  0
 14 27  1  0
 17 28  1  0
 19 29  1  0
 20 30  1  0
M  END
$$$$
