
     RDKit          3D

  8  7  0  0  0  0  0  0  0  0999 V2000
    0.6881   -0.0641   -0.2006 C   0  0  0  0  0  0  0  0  0  0  0  0
    1.4865   -1.3762    0.6682 Cl  0  0  0  0  0  0  0  0  0  0  0  0
    1.5749    1.5891    0.2613 Br  0  0  0  0  0  0  0  0  0  0  0  0
   -0.7861    0.0233    0.1067 C   0  0  0  0  0  0  0  0  0  0  0  0
   -1.3068    1.0835   -0.6272 F   0  0  0  0  0  0  0  0  0  0  0  0
   -1.0642    0.1126    1.4349 F   0  0  0  0  0  0  0  0  0  0  0  0
   -1.4076   -1.1187   -0.3669 F   0  0  0  0  0  0  0  0  0  0  0  0
    0.8152   -0.2494   -1.2765 H   0  0  0  0  0  0  0  0  0  0  0  0
  1  2  1  0
  1  3  1  0
  1  4  1  0
  4  5  1  0
  4  6  1  0
  4  7  1  0
  1  8  1  0
M  END
$$$$
