
     RDKit          3D

 46 49  0  0  0  0  0  0  0  0999 V2000
    6.8254    1.0662    0.5442 O   0  0  0  0  0  0  0  0  0  0  0  0
    6.0031    0.4630   -0.1811 C   0  0  0  0  0  0  0  0  0  0  0  0
    6.3809    0.1170   -1.4969 N   0  0  0  0  0  0  0  0  0  0  0  0
    7.6482    0.4744   -1.8944 O   0  0  0  0  0  0  0  0  0  0  0  0
    4.6968    0.1420    0.3531 C   0  0  0  0  0  0  0  0  0  0  0  0
    4.3900    0.5105    1.6684 C   0  0  0  0  0  0  0  0  0  0  0  0
    3.1591    0.2112    2.1777 C   0  0  0  0  0  0  0  0  0  0  0  0
    2.2166   -0.4413    1.4330 C   0  0  0  0  0  0  0  0  0  0  0  0
    2.5301   -0.8058    0.1229 C   0  0  0  0  0  0  0  0  0  0  0  0
    3.7820   -0.5145   -0.4313 C   0  0  0  0  0  0  0  0  0  0  0  0
    1.5145   -1.5206   -0.6705 C   0  0  0  0  0  0  0  0  0  0  0  0
    0.1511   -0.9543   -0.4738 C   0  0  2  0  0  0  0  0  0  0  0  0
   -0.0981   -0.0188   -1.5774 N   0  0  0  0  0  0  0  0  0  0  0  0
   -1.4096    0.5721   -1.6675 C   0  0  0  0  0  0  0  0  0  0  0  0
   -1.6521    1.4693   -2.6626 N   0  0  0  0  0  0  0  0  0  0  0  0
   -2.8541    2.0329   -2.7949 C   0  0  0  0  0  0  0  0  0  0  0  0
   -3.8718    1.6899   -1.8933 C   0  0  0  0  0  0  0  0  0  0  0  0
   -3.6475    0.7875   -0.8839 C   0  0  0  0  0  0  0  0  0  0  0  0
   -4.6532    0.3721    0.0765 C   0  0  0  0  0  0  0  0  0  0  0  0
   -4.3730   -0.5591    1.0601 C   0  0  0  0  0  0  0  0  0  0  0  0
   -5.3447   -0.9485    1.9834 C   0  0  0  0  0  0  0  0  0  0  0  0
   -6.6079   -0.4010    1.9211 C   0  0  0  0  0  0  0  0  0  0  0  0
   -6.8818    0.5008    0.9693 N   0  0  0  0  0  0  0  0  0  0  0  0
   -5.9292    0.8742    0.0744 C   0  0  0  0  0  0  0  0  0  0  0  0
   -2.3981    0.2611   -0.8193 N   0  0  0  0  0  0  0  0  0  0  0  0
   -0.0877   -0.2623    0.8309 C   0  0  0  0  0  0  0  0  0  0  0  0
    0.8529   -0.7942    1.9024 C   0  0  0  0  0  0  0  0  0  0  0  0
    5.7652   -0.3833   -2.1682 H   0  0  0  0  0  0  0  0  0  0  0  0
    8.2185   -0.3175   -1.6442 H   0  0  0  0  0  0  0  0  0  0  0  0
    5.1469    1.0183    2.2235 H   0  0  0  0  0  0  0  0  0  0  0  0
    2.9094    0.4903    3.1918 H   0  0  0  0  0  0  0  0  0  0  0  0
    3.9873   -0.8175   -1.4628 H   0  0  0  0  0  0  0  0  0  0  0  0
    1.8170   -1.5510   -1.7514 H   0  0  0  0  0  0  0  0  0  0  0  0
    1.4821   -2.5892   -0.3038 H   0  0  0  0  0  0  0  0  0  0  0  0
   -0.6461   -1.7540   -0.5763 H   0  0  0  0  0  0  0  0  0  0  0  0
    0.6403    0.2138   -2.2728 H   0  0  0  0  0  0  0  0  0  0  0  0
   -3.0556    2.7564   -3.5944 H   0  0  0  0  0  0  0  0  0  0  0  0
   -4.8324    2.1416   -2.0006 H   0  0  0  0  0  0  0  0  0  0  0  0
   -3.4036   -0.9862    1.1091 H   0  0  0  0  0  0  0  0  0  0  0  0
   -5.1241   -1.6848    2.7616 H   0  0  0  0  0  0  0  0  0  0  0  0
   -7.3563   -0.7185    2.6531 H   0  0  0  0  0  0  0  0  0  0  0  0
   -6.1968    1.6168   -0.6889 H   0  0  0  0  0  0  0  0  0  0  0  0
   -1.1180   -0.4328    1.1635 H   0  0  0  0  0  0  0  0  0  0  0  0
    0.0866    0.8393    0.7694 H   0  0  0  0  0  0  0  0  0  0  0  0
    0.6056   -0.2869    2.8690 H   0  0  0  0  0  0  0  0  0  0  0  0
    0.7318   -1.8788    2.0358 H   0  0  0  0  0  0  0  0  0  0  0  0
  1  2  2  0
  2  3  1  0
  3  4  1  0
  2  5  1  0
  5  6  2  0
  6  7  1  0
  7  8  2  0
  8  9  1  0
  9 10  2  0
  9 11  1  0
 11 12  1  0
 12 13  1  0
 13 14  1  0
 14 15  2  0
 15 16  1  0
 16 17  2  0
 17 18  1  0
 18 19  1  0
 19 20  2  0
 20 21  1  0
 21 22  2  0
 22 23  1  0
 23 24  2  0
 18 25  2  0
 12 26  1  0
 26 27  1  0
 10  5  1  0
 25 14  1  0
 27  8  1  0
 24 19  1  0
  3 28  1  0
  4 29  1  0
  6 30  1  0
  7 31  1  0
 10 32  1  0
 11 33  1  0
 11 34  1  0
 12 35  1  6
 13 36  1  0
 16 37  1  0
 17 38  1  0
 20 39  1  0
 21 40  1  0
 22 41  1  0
 24 42  1  0
 26 43  1  0
 26 44  1  0
 27 45  1  0
 27 46  1  0
M  END
$$$$
