
     RDKit          3D

 58 60  0  0  0  0  0  0  0  0999 V2000
    6.3557   -0.9298    1.0571 C   0  0  0  0  0  0  0  0  0  0  0  0
    5.4071   -2.0809    1.1190 C   0  0  0  0  0  0  0  0  0  0  0  0
    3.9593   -1.6473    1.0546 C   0  0  0  0  0  0  0  0  0  0  0  0
    3.5970   -0.7761   -0.4442 S   0  0  0  0  0  6  0  0  0  0  0  0
    3.9141   -1.6791   -1.5889 O   0  0  0  0  0  0  0  0  0  0  0  0
    4.4863    0.4584   -0.4704 O   0  0  0  0  0  0  0  0  0  0  0  0
    1.9980   -0.3084   -0.4935 N   0  0  0  0  0  0  0  0  0  0  0  0
    1.5251    0.5721    0.4977 C   0  0  0  0  0  0  0  0  0  0  0  0
   -0.0173    0.5007    0.6182 C   0  0  0  0  0  0  0  0  0  0  0  0
   -0.6325    0.7349   -0.7238 C   0  0  0  0  0  0  0  0  0  0  0  0
   -2.1058    0.7542   -0.7529 C   0  0  0  0  0  0  0  0  0  0  0  0
   -2.8951   -0.3286   -0.3586 N   0  0  0  0  0  0  0  0  0  0  0  0
   -3.1101   -0.9293    0.9045 C   0  0  0  0  0  0  0  0  0  0  0  0
   -2.5020   -0.3917    1.8872 O   0  0  0  0  0  0  0  0  0  0  0  0
   -3.9618   -2.0917    1.1339 C   0  0  0  0  0  0  0  0  0  0  0  0
   -4.6544   -2.7490    0.1613 C   0  0  0  0  0  0  0  0  0  0  0  0
   -5.4429   -3.8569    0.5030 C   0  0  0  0  0  0  0  0  0  0  0  0
   -5.5327   -4.2957    1.8029 C   0  0  0  0  0  0  0  0  0  0  0  0
   -4.8321   -3.6304    2.7851 C   0  0  0  0  0  0  0  0  0  0  0  0
   -4.0697   -2.5527    2.4283 C   0  0  0  0  0  0  0  0  0  0  0  0
   -0.2124    2.1288   -1.1564 C   0  0  0  0  0  0  0  0  0  0  0  0
    0.8773    2.3956   -1.9279 C   0  0  0  0  0  0  0  0  0  0  0  0
    1.2139    3.7069   -2.2898 C   0  0  0  0  0  0  0  0  0  0  0  0
    0.4341    4.7544   -1.8624 C   0  0  0  0  0  0  0  0  0  0  0  0
   -0.6592    4.4605   -1.0858 C   0  0  0  0  0  0  0  0  0  0  0  0
   -1.5315    5.5880   -0.6034 C   0  0  0  0  0  0  0  0  0  0  0  0
   -0.9557    3.1954   -0.7559 N   0  0  0  0  0  0  0  0  0  0  0  0
   -0.0923   -0.2571   -1.7458 C   0  0  0  0  0  0  0  0  0  0  0  0
    1.0922   -1.0197   -1.2723 C   0  0  0  0  0  0  0  0  0  0  0  0
    6.5650   -0.5734    0.0270 H   0  0  0  0  0  0  0  0  0  0  0  0
    7.3273   -1.2484    1.4770 H   0  0  0  0  0  0  0  0  0  0  0  0
    5.9772   -0.1080    1.7015 H   0  0  0  0  0  0  0  0  0  0  0  0
    5.5819   -2.8099    0.2974 H   0  0  0  0  0  0  0  0  0  0  0  0
    5.5794   -2.6145    2.0725 H   0  0  0  0  0  0  0  0  0  0  0  0
    3.2732   -2.5160    1.1068 H   0  0  0  0  0  0  0  0  0  0  0  0
    3.7777   -1.0187    1.9587 H   0  0  0  0  0  0  0  0  0  0  0  0
    1.7550    1.6154    0.2224 H   0  0  0  0  0  0  0  0  0  0  0  0
    1.9166    0.3289    1.4942 H   0  0  0  0  0  0  0  0  0  0  0  0
   -0.3674    1.1504    1.4216 H   0  0  0  0  0  0  0  0  0  0  0  0
   -0.1570   -0.5680    0.9503 H   0  0  0  0  0  0  0  0  0  0  0  0
   -2.4522    1.0638   -1.8015 H   0  0  0  0  0  0  0  0  0  0  0  0
   -2.4038    1.7220   -0.1835 H   0  0  0  0  0  0  0  0  0  0  0  0
   -3.4602   -0.8267   -1.1404 H   0  0  0  0  0  0  0  0  0  0  0  0
   -4.5893   -2.4125   -0.8571 H   0  0  0  0  0  0  0  0  0  0  0  0
   -5.9889   -4.3711   -0.2793 H   0  0  0  0  0  0  0  0  0  0  0  0
   -6.1600   -5.1701    2.0464 H   0  0  0  0  0  0  0  0  0  0  0  0
   -4.9264   -4.0049    3.8016 H   0  0  0  0  0  0  0  0  0  0  0  0
   -3.5309   -2.0569    3.2476 H   0  0  0  0  0  0  0  0  0  0  0  0
    1.5404    1.6483   -2.3097 H   0  0  0  0  0  0  0  0  0  0  0  0
    2.0821    3.9038   -2.9027 H   0  0  0  0  0  0  0  0  0  0  0  0
    0.6526    5.7849   -2.1153 H   0  0  0  0  0  0  0  0  0  0  0  0
   -1.0703    6.5420   -0.8499 H   0  0  0  0  0  0  0  0  0  0  0  0
   -1.5083    5.4940    0.5192 H   0  0  0  0  0  0  0  0  0  0  0  0
   -2.5731    5.4612   -0.8996 H   0  0  0  0  0  0  0  0  0  0  0  0
   -0.8987   -1.0214   -1.9374 H   0  0  0  0  0  0  0  0  0  0  0  0
    0.1445    0.3043   -2.6630 H   0  0  0  0  0  0  0  0  0  0  0  0
    0.7133   -1.8937   -0.6586 H   0  0  0  0  0  0  0  0  0  0  0  0
    1.5475   -1.5305   -2.1671 H   0  0  0  0  0  0  0  0  0  0  0  0
  1  2  1  0
  2  3  1  0
  3  4  1  0
  4  5  2  0
  4  6  2  0
  4  7  1  0
  7  8  1  0
  8  9  1  0
  9 10  1  0
 10 11  1  0
 11 12  1  0
 12 13  1  0
 13 14  2  0
 13 15  1  0
 15 16  2  0
 16 17  1  0
 17 18  2  0
 18 19  1  0
 19 20  2  0
 10 21  1  0
 21 22  2  0
 22 23  1  0
 23 24  2  0
 24 25  1  0
 25 26  1  0
 25 27  2  0
 10 28  1  0
 28 29  1  0
 29  7  1  0
 20 15  1  0
 27 21  1  0
  1 30  1  0
  1 31  1  0
  1 32  1  0
  2 33  1  0
  2 34  1  0
  3 35  1  0
  3 36  1  0
  8 37  1  0
  8 38  1  0
  9 39  1  0
  9 40  1  0
 11 41  1  0
 11 42  1  0
 12 43  1  0
 16 44  1  0
 17 45  1  0
 18 46  1  0
 19 47  1  0
 20 48  1  0
 22 49  1  0
 23 50  1  0
 24 51  1  0
 26 52  1  0
 26 53  1  0
 26 54  1  0
 28 55  1  0
 28 56  1  0
 29 57  1  0
 29 58  1  0
M  END
$$$$
