
     RDKit          3D

 81 87  0  0  0  0  0  0  0  0999 V2000
   -6.3553    4.6608    1.5078 C   0  0  0  0  0  0  0  0  0  0  0  0
   -6.1283    3.2285    1.1456 C   0  0  0  0  0  0  0  0  0  0  0  0
   -6.3671    2.2214    2.0589 C   0  0  0  0  0  0  0  0  0  0  0  0
   -6.1553    0.8965    1.7209 C   0  0  0  0  0  0  0  0  0  0  0  0
   -5.7016    0.5227    0.4727 C   0  0  0  0  0  0  0  0  0  0  0  0
   -5.4757   -0.8382    0.1070 N   0  0  0  0  0  0  0  0  0  0  0  0
   -6.3026   -1.6980   -0.4576 N   0  0  0  0  0  0  0  0  0  0  0  0
   -5.7572   -2.8861   -0.6560 C   0  0  0  0  0  0  0  0  0  0  0  0
   -6.3643   -4.1203   -1.2675 C   0  0  0  0  0  0  0  0  0  0  0  0
   -7.7996   -3.7528   -1.6438 C   0  0  0  0  0  0  0  0  0  0  0  0
   -6.4497   -5.2321   -0.2674 C   0  0  0  0  0  0  0  0  0  0  0  0
   -5.6423   -4.4763   -2.5275 C   0  0  0  0  0  0  0  0  0  0  0  0
   -4.4595   -2.8178   -0.1865 C   0  0  0  0  0  0  0  0  0  0  0  0
   -4.3111   -1.5286    0.2840 C   0  0  0  0  0  0  0  0  0  0  0  0
   -3.1635   -0.9378    0.8721 N   0  0  0  0  0  0  0  0  0  0  0  0
   -2.1603   -0.2660    0.0652 C   0  0  0  0  0  0  0  0  0  0  0  0
   -2.3890   -0.2612   -1.1413 O   0  0  0  0  0  0  0  0  0  0  0  0
   -1.0323    0.3205    0.6495 N   0  0  0  0  0  0  0  0  0  0  0  0
   -0.0116    0.9775   -0.0792 C   0  0  0  0  0  0  0  0  0  0  0  0
    0.0717    0.9270   -1.4555 C   0  0  0  0  0  0  0  0  0  0  0  0
    1.0734    1.6013   -2.1596 C   0  0  0  0  0  0  0  0  0  0  0  0
    2.0215    2.3482   -1.4722 C   0  0  0  0  0  0  0  0  0  0  0  0
    3.0156    3.0152   -2.1738 O   0  0  0  0  0  0  0  0  0  0  0  0
    4.3621    2.6525   -2.0171 C   0  0  0  0  0  0  0  0  0  0  0  0
    5.3240    3.3781   -2.7142 C   0  0  0  0  0  0  0  0  0  0  0  0
    6.6341    3.0226   -2.5595 C   0  0  0  0  0  0  0  0  0  0  0  0
    6.9327    2.0000   -1.7504 N   0  0  0  0  0  0  0  0  0  0  0  0
    6.0435    1.2753   -1.0615 C   0  0  0  0  0  0  0  0  0  0  0  0
    6.3339    0.1961   -0.2017 N   0  0  0  0  0  0  0  0  0  0  0  0
    7.6080   -0.3246    0.0714 C   0  0  0  0  0  0  0  0  0  0  0  0
    8.7771    0.1188   -0.4787 C   0  0  0  0  0  0  0  0  0  0  0  0
   10.0142   -0.4710   -0.1455 C   0  0  0  0  0  0  0  0  0  0  0  0
   10.0863   -1.5164    0.7480 C   0  0  0  0  0  0  0  0  0  0  0  0
    8.9158   -1.9712    1.3084 C   0  0  0  0  0  0  0  0  0  0  0  0
    8.7261   -2.9642    2.1939 N   0  0  0  0  0  0  0  0  0  0  0  0
    7.4044   -3.0238    2.4338 C   0  0  0  0  0  0  0  0  0  0  0  0
    6.7458   -2.0602    1.6947 C   0  0  0  0  0  0  0  0  0  0  0  0
    7.7108   -1.3859    0.9743 C   0  0  0  0  0  0  0  0  0  0  0  0
    4.7272    1.6384   -1.2221 N   0  0  0  0  0  0  0  0  0  0  0  0
    1.9673    2.4219   -0.0985 C   0  0  0  0  0  0  0  0  0  0  0  0
    2.8960    3.1825    0.5984 C   0  0  0  0  0  0  0  0  0  0  0  0
    2.8367    3.2728    1.9692 C   0  0  0  0  0  0  0  0  0  0  0  0
    1.8519    2.6054    2.6384 C   0  0  0  0  0  0  0  0  0  0  0  0
    0.9030    1.8325    1.9464 C   0  0  0  0  0  0  0  0  0  0  0  0
    0.9620    1.7426    0.5808 C   0  0  0  0  0  0  0  0  0  0  0  0
   -5.4626    1.5276   -0.4409 C   0  0  0  0  0  0  0  0  0  0  0  0
   -5.6748    2.8561   -0.1029 C   0  0  0  0  0  0  0  0  0  0  0  0
   -6.6979    5.2700    0.6713 H   0  0  0  0  0  0  0  0  0  0  0  0
   -7.1091    4.7322    2.3169 H   0  0  0  0  0  0  0  0  0  0  0  0
   -5.4239    5.1244    1.9140 H   0  0  0  0  0  0  0  0  0  0  0  0
   -6.7268    2.5119    3.0512 H   0  0  0  0  0  0  0  0  0  0  0  0
   -6.3447    0.1143    2.4423 H   0  0  0  0  0  0  0  0  0  0  0  0
   -8.4080   -4.6732   -1.5747 H   0  0  0  0  0  0  0  0  0  0  0  0
   -7.8498   -3.3700   -2.6866 H   0  0  0  0  0  0  0  0  0  0  0  0
   -8.2224   -2.9967   -0.9775 H   0  0  0  0  0  0  0  0  0  0  0  0
   -6.7656   -4.7593    0.7062 H   0  0  0  0  0  0  0  0  0  0  0  0
   -5.5025   -5.7675   -0.1871 H   0  0  0  0  0  0  0  0  0  0  0  0
   -7.3062   -5.8739   -0.5586 H   0  0  0  0  0  0  0  0  0  0  0  0
   -5.8086   -3.6487   -3.2503 H   0  0  0  0  0  0  0  0  0  0  0  0
   -6.1027   -5.3905   -2.9536 H   0  0  0  0  0  0  0  0  0  0  0  0
   -4.5715   -4.5832   -2.3195 H   0  0  0  0  0  0  0  0  0  0  0  0
   -3.7027   -3.6078   -0.1825 H   0  0  0  0  0  0  0  0  0  0  0  0
   -2.9899   -0.9542    1.8921 H   0  0  0  0  0  0  0  0  0  0  0  0
   -0.9585    0.2406    1.7083 H   0  0  0  0  0  0  0  0  0  0  0  0
   -0.6156    0.3623   -2.0480 H   0  0  0  0  0  0  0  0  0  0  0  0
    1.1521    1.5714   -3.2341 H   0  0  0  0  0  0  0  0  0  0  0  0
    4.9800    4.1831   -3.3401 H   0  0  0  0  0  0  0  0  0  0  0  0
    7.3858    3.5858   -3.1002 H   0  0  0  0  0  0  0  0  0  0  0  0
    5.4881   -0.2570    0.2804 H   0  0  0  0  0  0  0  0  0  0  0  0
    8.7809    0.9291   -1.1811 H   0  0  0  0  0  0  0  0  0  0  0  0
   10.9049   -0.0991   -0.5936 H   0  0  0  0  0  0  0  0  0  0  0  0
   11.0637   -1.9264    0.9625 H   0  0  0  0  0  0  0  0  0  0  0  0
    9.4140   -3.6029    2.6480 H   0  0  0  0  0  0  0  0  0  0  0  0
    6.8710   -3.6978    3.0924 H   0  0  0  0  0  0  0  0  0  0  0  0
    5.6958   -1.8330    1.6477 H   0  0  0  0  0  0  0  0  0  0  0  0
    3.6764    3.7393    0.0763 H   0  0  0  0  0  0  0  0  0  0  0  0
    3.5601    3.8621    2.4824 H   0  0  0  0  0  0  0  0  0  0  0  0
    1.7729    2.6515    3.7135 H   0  0  0  0  0  0  0  0  0  0  0  0
    0.1718    1.3559    2.5759 H   0  0  0  0  0  0  0  0  0  0  0  0
   -5.1031    1.2580   -1.4348 H   0  0  0  0  0  0  0  0  0  0  0  0
   -5.4894    3.6386   -0.8112 H   0  0  0  0  0  0  0  0  0  0  0  0
  1  2  1  0
  2  3  2  0
  3  4  1  0
  4  5  2  0
  5  6  1  0
  6  7  1  0
  7  8  2  0
  8  9  1  0
  9 10  1  0
  9 11  1  0
  9 12  1  0
  8 13  1  0
 13 14  2  0
 14 15  1  0
 15 16  1  0
 16 17  2  0
 16 18  1  0
 18 19  1  0
 19 20  2  0
 20 21  1  0
 21 22  2  0
 22 23  1  0
 23 24  1  0
 24 25  2  0
 25 26  1  0
 26 27  2  0
 27 28  1  0
 28 29  1  0
 29 30  1  0
 30 31  2  0
 31 32  1  0
 32 33  2  0
 33 34  1  0
 34 35  1  0
 35 36  1  0
 36 37  2  0
 37 38  1  0
 28 39  2  0
 22 40  1  0
 40 41  2  0
 41 42  1  0
 42 43  2  0
 43 44  1  0
 44 45  2  0
  5 46  1  0
 46 47  2  0
 47  2  1  0
 14  6  1  0
 45 19  1  0
 39 24  1  0
 45 40  1  0
 38 30  1  0
 38 34  2  0
  1 48  1  0
  1 49  1  0
  1 50  1  0
  3 51  1  0
  4 52  1  0
 10 53  1  0
 10 54  1  0
 10 55  1  0
 11 56  1  0
 11 57  1  0
 11 58  1  0
 12 59  1  0
 12 60  1  0
 12 61  1  0
 13 62  1  0
 15 63  1  0
 18 64  1  0
 20 65  1  0
 21 66  1  0
 25 67  1  0
 26 68  1  0
 29 69  1  0
 31 70  1  0
 32 71  1  0
 33 72  1  0
 35 73  1  0
 36 74  1  0
 37 75  1  0
 41 76  1  0
 42 77  1  0
 43 78  1  0
 44 79  1  0
 46 80  1  0
 47 81  1  0
M  END
$$$$
