
     RDKit          3D

 52 53  0  0  0  0  0  0  0  0999 V2000
   -3.3889   -2.0453   -0.2869 C   0  0  2  0  0  0  0  0  0  0  0  0
   -3.7017   -1.8035   -1.7417 C   0  0  0  0  0  0  0  0  0  0  0  0
   -2.2515   -1.2433    0.1598 N   0  0  0  0  0  0  0  0  0  0  0  0
   -2.3842   -0.3405    1.2440 C   0  0  0  0  0  0  0  0  0  0  0  0
   -3.5277   -0.2676    1.7976 O   0  0  0  0  0  0  0  0  0  0  0  0
   -1.3493    0.5385    1.8206 C   0  0  2  0  0  0  0  0  0  0  0  0
   -1.7559    1.9923    1.8433 C   0  0  0  0  0  0  0  0  0  0  0  0
   -2.0413    2.5498    0.5010 C   0  0  0  0  0  0  0  0  0  0  0  0
   -1.0647    3.1476   -0.2871 C   0  0  0  0  0  0  0  0  0  0  0  0
   -1.3708    3.6547   -1.5315 C   0  0  0  0  0  0  0  0  0  0  0  0
   -2.6422    3.5989   -2.0571 C   0  0  0  0  0  0  0  0  0  0  0  0
   -3.6277    3.0119   -1.2968 C   0  0  0  0  0  0  0  0  0  0  0  0
   -3.3046    2.5100   -0.0548 C   0  0  0  0  0  0  0  0  0  0  0  0
   -0.0616    0.4394    1.1779 N   0  0  0  0  0  0  0  0  0  0  0  0
    1.0966    0.0247    1.8848 C   0  0  0  0  0  0  0  0  0  0  0  0
    0.9060   -0.2486    3.1166 O   0  0  0  0  0  0  0  0  0  0  0  0
    2.4018   -0.0765    1.2361 C   0  0  2  0  0  0  0  0  0  0  0  0
    3.1037    1.5070    0.7151 S   0  0  0  0  0  0  0  0  0  0  0  0
    2.4843   -1.0269    0.0863 C   0  0  0  0  0  0  0  0  0  0  0  0
    3.8961   -0.9651   -0.4142 C   0  0  0  0  0  0  0  0  0  0  0  0
    4.3756   -0.1034   -1.3907 C   0  0  0  0  0  0  0  0  0  0  0  0
    5.7281   -0.1910   -1.7294 C   0  0  0  0  0  0  0  0  0  0  0  0
    6.5900   -1.0851   -1.1412 C   0  0  0  0  0  0  0  0  0  0  0  0
    6.1469   -1.9402   -0.1824 C   0  0  0  0  0  0  0  0  0  0  0  0
    4.8108   -1.8575    0.1560 C   0  0  0  0  0  0  0  0  0  0  0  0
   -3.0329   -3.4671   -0.0320 C   0  0  0  0  0  0  0  0  0  0  0  0
   -3.9393   -4.4687   -0.3632 O   0  0  0  0  0  0  0  0  0  0  0  0
   -1.9327   -3.7837    0.4752 O   0  0  0  0  0  0  0  0  0  0  0  0
   -4.2340   -1.7868    0.3556 H   0  0  0  0  0  0  0  0  0  0  0  0
   -4.0802   -2.7604   -2.1551 H   0  0  0  0  0  0  0  0  0  0  0  0
   -2.8565   -1.4371   -2.3253 H   0  0  0  0  0  0  0  0  0  0  0  0
   -4.5620   -1.0840   -1.7659 H   0  0  0  0  0  0  0  0  0  0  0  0
   -1.3023   -1.2806   -0.2732 H   0  0  0  0  0  0  0  0  0  0  0  0
   -1.2888    0.2505    2.9092 H   0  0  0  0  0  0  0  0  0  0  0  0
   -0.9068    2.5358    2.3301 H   0  0  0  0  0  0  0  0  0  0  0  0
   -2.6093    2.1385    2.5570 H   0  0  0  0  0  0  0  0  0  0  0  0
   -0.0513    3.2190    0.0742 H   0  0  0  0  0  0  0  0  0  0  0  0
   -0.6418    4.1303   -2.1827 H   0  0  0  0  0  0  0  0  0  0  0  0
   -2.9059    3.9895   -3.0299 H   0  0  0  0  0  0  0  0  0  0  0  0
   -4.6413    2.9576   -1.6948 H   0  0  0  0  0  0  0  0  0  0  0  0
   -4.1362    2.0661    0.4762 H   0  0  0  0  0  0  0  0  0  0  0  0
   -0.0393    0.6914    0.1652 H   0  0  0  0  0  0  0  0  0  0  0  0
    3.1232   -0.4707    2.0099 H   0  0  0  0  0  0  0  0  0  0  0  0
    2.2098    2.2964   -0.0079 H   0  0  0  0  0  0  0  0  0  0  0  0
    1.7729   -0.7737   -0.7362 H   0  0  0  0  0  0  0  0  0  0  0  0
    2.2766   -2.0847    0.3321 H   0  0  0  0  0  0  0  0  0  0  0  0
    3.6674    0.5656   -1.8111 H   0  0  0  0  0  0  0  0  0  0  0  0
    6.0859    0.4882   -2.4928 H   0  0  0  0  0  0  0  0  0  0  0  0
    7.6378   -1.1420   -1.4141 H   0  0  0  0  0  0  0  0  0  0  0  0
    6.7698   -2.6630    0.3162 H   0  0  0  0  0  0  0  0  0  0  0  0
    4.4520   -2.5509    0.9333 H   0  0  0  0  0  0  0  0  0  0  0  0
   -3.9029   -5.3556    0.1593 H   0  0  0  0  0  0  0  0  0  0  0  0
  1  2  1  0
  1  3  1  0
  3  4  1  0
  4  5  2  0
  4  6  1  0
  6  7  1  0
  7  8  1  0
  8  9  2  0
  9 10  1  0
 10 11  2  0
 11 12  1  0
 12 13  2  0
  6 14  1  0
 14 15  1  0
 15 16  2  0
 15 17  1  0
 17 18  1  0
 17 19  1  0
 19 20  1  0
 20 21  2  0
 21 22  1  0
 22 23  2  0
 23 24  1  0
 24 25  2  0
  1 26  1  0
 26 27  1  0
 26 28  2  0
 13  8  1  0
 25 20  1  0
  1 29  1  1
  2 30  1  0
  2 31  1  0
  2 32  1  0
  3 33  1  0
  6 34  1  1
  7 35  1  0
  7 36  1  0
  9 37  1  0
 10 38  1  0
 11 39  1  0
 12 40  1  0
 13 41  1  0
 14 42  1  0
 17 43  1  1
 18 44  1  0
 19 45  1  0
 19 46  1  0
 21 47  1  0
 22 48  1  0
 23 49  1  0
 24 50  1  0
 25 51  1  0
 27 52  1  0
M  END
$$$$
