
     RDKit          3D

 34 37  0  0  0  0  0  0  0  0999 V2000
   -4.3263    3.3301    0.0833 Cl  0  0  0  0  0  0  0  0  0  0  0  0
   -4.7405    1.6097    0.0657 C   0  0  0  0  0  0  0  0  0  0  0  0
   -6.0625    1.2401    0.0504 C   0  0  0  0  0  0  0  0  0  0  0  0
   -6.4147   -0.0912    0.0364 C   0  0  0  0  0  0  0  0  0  0  0  0
   -5.4371   -1.0597    0.0379 C   0  0  0  0  0  0  0  0  0  0  0  0
   -4.0859   -0.6616    0.0537 C   0  0  0  0  0  0  0  0  0  0  0  0
   -3.7058    0.6543    0.0678 C   0  0  0  0  0  0  0  0  0  0  0  0
   -2.3853    1.0956    0.0837 N   0  0  0  0  0  0  0  0  0  0  0  0
   -1.1930    0.3474    0.0888 C   0  0  0  0  0  0  0  0  0  0  0  0
    0.0374    1.0150    0.1057 C   0  0  0  0  0  0  0  0  0  0  0  0
    1.2539    0.3781    0.1119 C   0  0  0  0  0  0  0  0  0  0  0  0
    2.5439    0.7590    0.1270 N   0  0  0  0  0  0  0  0  0  0  0  0
    3.3428   -0.3231    0.1257 C   0  0  0  0  0  0  0  0  0  0  0  0
    4.8010   -0.3621    0.1389 C   0  0  0  0  0  0  0  0  0  0  0  0
    5.5946   -1.4869    0.1373 C   0  0  0  0  0  0  0  0  0  0  0  0
    6.8892   -1.1244    0.1522 N   0  0  0  0  0  0  0  0  0  0  0  0
    6.9217    0.1933    0.1630 N   0  0  0  0  0  0  0  0  0  0  0  0
    5.6705    0.7057    0.1555 C   0  0  0  0  0  0  0  0  0  0  0  0
    2.5219   -1.4307    0.1091 C   0  0  0  0  0  0  0  0  0  0  0  0
    1.2074   -1.0037    0.1003 C   0  0  0  0  0  0  0  0  0  0  0  0
   -0.0104   -1.6481    0.0837 C   0  0  0  0  0  0  0  0  0  0  0  0
   -1.1510   -0.9785    0.0785 N   0  0  0  0  0  0  0  0  0  0  0  0
   -6.8585    1.9873    0.0488 H   0  0  0  0  0  0  0  0  0  0  0  0
   -7.4499   -0.4111    0.0242 H   0  0  0  0  0  0  0  0  0  0  0  0
   -5.6550   -2.1234    0.0274 H   0  0  0  0  0  0  0  0  0  0  0  0
   -3.3191   -1.4204    0.0549 H   0  0  0  0  0  0  0  0  0  0  0  0
   -2.2348    2.1618    0.0936 H   0  0  0  0  0  0  0  0  0  0  0  0
    0.0695    2.1206    0.1149 H   0  0  0  0  0  0  0  0  0  0  0  0
    2.8697    1.7713    0.1383 H   0  0  0  0  0  0  0  0  0  0  0  0
    5.2593   -2.5189    0.1260 H   0  0  0  0  0  0  0  0  0  0  0  0
    7.8033    0.7464    0.1755 H   0  0  0  0  0  0  0  0  0  0  0  0
    5.3765    1.7544    0.1611 H   0  0  0  0  0  0  0  0  0  0  0  0
    2.8168   -2.4874    0.1033 H   0  0  0  0  0  0  0  0  0  0  0  0
    0.0505   -2.7391    0.0754 H   0  0  0  0  0  0  0  0  0  0  0  0
  1  2  1  0
  2  3  2  0
  3  4  1  0
  4  5  2  0
  5  6  1  0
  6  7  2  0
  7  8  1  0
  8  9  1  0
  9 10  2  0
 10 11  1  0
 11 12  1  0
 12 13  1  0
 13 14  1  0
 14 15  1  0
 15 16  2  0
 16 17  1  0
 17 18  1  0
 13 19  2  0
 19 20  1  0
 20 21  1  0
 21 22  2  0
  7  2  1  0
 22  9  1  0
 20 11  2  0
 18 14  2  0
  3 23  1  0
  4 24  1  0
  5 25  1  0
  6 26  1  0
  8 27  1  0
 10 28  1  0
 12 29  1  0
 15 30  1  0
 17 31  1  0
 18 32  1  0
 19 33  1  0
 21 34  1  0
M  END
$$$$
