
     RDKit          3D

 56 59  0  0  0  0  0  0  0  0999 V2000
  -10.5150   -1.5324    0.4393 C   0  0  0  0  0  0  0  0  0  0  0  0
   -9.5627   -0.4707    0.0561 C   0  0  0  0  0  0  0  0  0  0  0  0
  -10.0366    0.6335   -0.3104 O   0  0  0  0  0  0  0  0  0  0  0  0
   -8.1908   -0.6280    0.0798 O   0  0  0  0  0  0  0  0  0  0  0  0
   -7.2931    0.3889   -0.2869 C   0  0  0  0  0  0  0  0  0  0  0  0
   -5.8807   -0.0550   -0.1663 C   0  0  0  0  0  0  0  0  0  0  0  0
   -5.6710   -1.2284    0.2297 O   0  0  0  0  0  0  0  0  0  0  0  0
   -4.8134    0.8251   -0.4899 N   0  0  0  0  0  0  0  0  0  0  0  0
   -3.4659    0.3687   -0.3636 C   0  0  0  0  0  0  0  0  0  0  0  0
   -2.6924    0.4224   -1.6529 C   0  0  0  0  0  0  0  0  0  0  0  0
   -1.2372    0.1094   -1.3746 C   0  0  0  0  0  0  0  0  0  0  0  0
   -1.1247   -0.4418   -0.0665 N   0  0  0  0  0  0  0  0  0  0  0  0
    0.0598   -1.2011    0.1881 C   0  0  0  0  0  0  0  0  0  0  0  0
    1.3188   -0.4336    0.0339 C   0  0  0  0  0  0  0  0  0  0  0  0
    1.8303    0.2324    1.1344 C   0  0  0  0  0  0  0  0  0  0  0  0
    2.9962    0.9381    0.9789 C   0  0  0  0  0  0  0  0  0  0  0  0
    3.6705    1.0095   -0.2148 C   0  0  0  0  0  0  0  0  0  0  0  0
    4.8457    1.7106   -0.4049 O   0  0  0  0  0  0  0  0  0  0  0  0
    6.0498    1.1044   -0.2081 C   0  0  0  0  0  0  0  0  0  0  0  0
    7.2643    1.3183   -0.2536 N   0  0  0  0  0  0  0  0  0  0  0  0
    8.2401    0.5081    0.0000 C   0  0  0  0  0  0  0  0  0  0  0  0
    9.6144    0.7674   -0.0566 C   0  0  0  0  0  0  0  0  0  0  0  0
   10.5234   -0.2053    0.2442 C   0  0  0  0  0  0  0  0  0  0  0  0
   10.1836   -1.4740    0.6142 C   0  0  0  0  0  0  0  0  0  0  0  0
    8.8197   -1.7618    0.6794 C   0  0  0  0  0  0  0  0  0  0  0  0
    7.8963   -0.7917    0.3792 C   0  0  0  0  0  0  0  0  0  0  0  0
    6.1221   -0.7101    0.3292 S   0  0  0  0  0  0  0  0  0  0  0  0
    3.1352    0.3357   -1.2904 C   0  0  0  0  0  0  0  0  0  0  0  0
    1.9504   -0.3985   -1.1885 C   0  0  0  0  0  0  0  0  0  0  0  0
   -1.3339    0.6217    0.8954 C   0  0  0  0  0  0  0  0  0  0  0  0
   -2.7148    1.1888    0.6750 C   0  0  0  0  0  0  0  0  0  0  0  0
  -10.0082   -2.3962    0.9273 H   0  0  0  0  0  0  0  0  0  0  0  0
  -11.1806   -1.8423   -0.3919 H   0  0  0  0  0  0  0  0  0  0  0  0
  -11.2005   -1.0749    1.2107 H   0  0  0  0  0  0  0  0  0  0  0  0
   -7.4665    1.2686    0.3927 H   0  0  0  0  0  0  0  0  0  0  0  0
   -7.5082    0.7698   -1.3116 H   0  0  0  0  0  0  0  0  0  0  0  0
   -5.0710    1.7996   -0.8169 H   0  0  0  0  0  0  0  0  0  0  0  0
   -3.4427   -0.6721   -0.0095 H   0  0  0  0  0  0  0  0  0  0  0  0
   -2.8158    1.4139   -2.1533 H   0  0  0  0  0  0  0  0  0  0  0  0
   -3.0591   -0.3766   -2.3540 H   0  0  0  0  0  0  0  0  0  0  0  0
   -0.7919   -0.5213   -2.1709 H   0  0  0  0  0  0  0  0  0  0  0  0
   -0.7044    1.1024   -1.3907 H   0  0  0  0  0  0  0  0  0  0  0  0
    0.0749   -2.0497   -0.5297 H   0  0  0  0  0  0  0  0  0  0  0  0
   -0.0278   -1.6319    1.2060 H   0  0  0  0  0  0  0  0  0  0  0  0
    1.3045    0.1854    2.0937 H   0  0  0  0  0  0  0  0  0  0  0  0
    3.4231    1.4758    1.8383 H   0  0  0  0  0  0  0  0  0  0  0  0
    9.9798    1.7612   -0.3450 H   0  0  0  0  0  0  0  0  0  0  0  0
   11.6080    0.0455    0.1859 H   0  0  0  0  0  0  0  0  0  0  0  0
   10.9178   -2.2179    0.8448 H   0  0  0  0  0  0  0  0  0  0  0  0
    8.4485   -2.7245    0.9586 H   0  0  0  0  0  0  0  0  0  0  0  0
    3.6436    0.3737   -2.2423 H   0  0  0  0  0  0  0  0  0  0  0  0
    1.5684   -0.9096   -2.0527 H   0  0  0  0  0  0  0  0  0  0  0  0
   -0.5970    1.4438    0.7054 H   0  0  0  0  0  0  0  0  0  0  0  0
   -1.1767    0.2465    1.9136 H   0  0  0  0  0  0  0  0  0  0  0  0
   -2.6662    2.2236    0.2629 H   0  0  0  0  0  0  0  0  0  0  0  0
   -3.2403    1.1565    1.6518 H   0  0  0  0  0  0  0  0  0  0  0  0
  1  2  1  0
  2  3  2  0
  2  4  1  0
  4  5  1  0
  5  6  1  0
  6  7  2  0
  6  8  1  0
  8  9  1  0
  9 10  1  0
 10 11  1  0
 11 12  1  0
 12 13  1  0
 13 14  1  0
 14 15  2  0
 15 16  1  0
 16 17  2  0
 17 18  1  0
 18 19  1  0
 19 20  2  0
 20 21  1  0
 21 22  2  0
 22 23  1  0
 23 24  2  0
 24 25  1  0
 25 26  2  0
 26 27  1  0
 17 28  1  0
 28 29  2  0
 12 30  1  0
 30 31  1  0
 31  9  1  0
 29 14  1  0
 27 19  1  0
 26 21  1  0
  1 32  1  0
  1 33  1  0
  1 34  1  0
  5 35  1  0
  5 36  1  0
  8 37  1  0
  9 38  1  0
 10 39  1  0
 10 40  1  0
 11 41  1  0
 11 42  1  0
 13 43  1  0
 13 44  1  0
 15 45  1  0
 16 46  1  0
 22 47  1  0
 23 48  1  0
 24 49  1  0
 25 50  1  0
 28 51  1  0
 29 52  1  0
 30 53  1  0
 30 54  1  0
 31 55  1  0
 31 56  1  0
M  END
$$$$
