
     RDKit          3D

 45 47  0  0  0  0  0  0  0  0999 V2000
    6.8629    1.5110   -0.0782 N   0  0  0  0  0  0  0  0  0  0  0  0
    6.4943    0.4132    1.2075 S   0  0  0  0  0  0  0  0  0  0  0  0
    7.7395    0.0236    1.9488 O   0  0  0  0  0  0  0  0  0  0  0  0
    5.4700    1.0459    2.1322 O   0  0  0  0  0  0  0  0  0  0  0  0
    5.8374   -0.9948    0.4919 O   0  0  0  0  0  0  0  0  0  0  0  0
    4.5900   -0.9058   -0.0592 C   0  0  0  0  0  0  0  0  0  0  0  0
    4.2981   -0.5690   -1.3572 C   0  0  0  0  0  0  0  0  0  0  0  0
    3.0247   -0.4893   -1.8783 C   0  0  0  0  0  0  0  0  0  0  0  0
    1.9294   -0.7569   -1.0831 C   0  0  0  0  0  0  0  0  0  0  0  0
    0.5271   -0.7436   -1.3830 C   0  0  0  0  0  0  0  0  0  0  0  0
   -0.3011   -1.0571   -0.3678 C   0  0  0  0  0  0  0  0  0  0  0  0
   -1.7910   -1.0940   -0.5035 C   0  0  0  0  0  0  0  0  0  0  0  0
   -2.3839   -0.0791    0.4479 C   0  0  0  0  0  0  0  0  0  0  0  0
   -1.9020    1.3294    0.1691 C   0  0  0  0  0  0  0  0  0  0  0  0
   -2.9501    2.1902   -0.6071 C   0  0  0  0  0  0  0  0  0  0  0  0
   -4.1291    1.4563   -0.5361 C   0  0  0  0  0  0  0  0  0  0  0  0
   -5.3297    0.7293   -0.5459 C   0  0  0  0  0  0  0  0  0  0  0  0
   -4.9721   -0.5861    0.2299 C   0  0  0  0  0  0  0  0  0  0  0  0
   -3.6750   -0.4189    1.0125 C   0  0  0  0  0  0  0  0  0  0  0  0
    0.6973   -1.3874    1.0325 S   0  0  0  0  0  0  0  0  0  0  0  0
    0.4407   -0.3695    2.0709 O   0  0  0  0  0  0  0  0  0  0  0  0
    0.5938   -2.7977    1.5018 O   0  0  0  0  0  0  0  0  0  0  0  0
    2.2452   -1.0932    0.2174 C   0  0  0  0  0  0  0  0  0  0  0  0
    3.5028   -1.1744    0.7415 C   0  0  0  0  0  0  0  0  0  0  0  0
    7.2800    0.9329   -0.8420 H   0  0  0  0  0  0  0  0  0  0  0  0
    5.9341    1.8635   -0.4472 H   0  0  0  0  0  0  0  0  0  0  0  0
    5.1378   -0.3503   -2.0170 H   0  0  0  0  0  0  0  0  0  0  0  0
    2.9248   -0.2098   -2.9304 H   0  0  0  0  0  0  0  0  0  0  0  0
    0.1456   -0.4901   -2.3896 H   0  0  0  0  0  0  0  0  0  0  0  0
   -2.0550   -1.0599   -1.5370 H   0  0  0  0  0  0  0  0  0  0  0  0
   -2.1714   -2.0985   -0.1296 H   0  0  0  0  0  0  0  0  0  0  0  0
   -1.7213   -0.2916    1.3328 H   0  0  0  0  0  0  0  0  0  0  0  0
   -0.9976    1.2093   -0.4357 H   0  0  0  0  0  0  0  0  0  0  0  0
   -1.6428    1.9155    1.0684 H   0  0  0  0  0  0  0  0  0  0  0  0
   -2.4860    2.4297   -1.6063 H   0  0  0  0  0  0  0  0  0  0  0  0
   -2.9803    3.2309   -0.1585 H   0  0  0  0  0  0  0  0  0  0  0  0
   -3.6513    0.6465   -1.1241 H   0  0  0  0  0  0  0  0  0  0  0  0
   -4.1353    1.5043    0.5723 H   0  0  0  0  0  0  0  0  0  0  0  0
   -5.7840    0.3963   -1.5050 H   0  0  0  0  0  0  0  0  0  0  0  0
   -6.2222    1.2141   -0.0438 H   0  0  0  0  0  0  0  0  0  0  0  0
   -5.7345   -0.7276    0.9918 H   0  0  0  0  0  0  0  0  0  0  0  0
   -4.9155   -1.4194   -0.4653 H   0  0  0  0  0  0  0  0  0  0  0  0
   -3.5624   -1.5051    1.3355 H   0  0  0  0  0  0  0  0  0  0  0  0
   -3.8343    0.0781    1.9949 H   0  0  0  0  0  0  0  0  0  0  0  0
    3.6523   -1.4509    1.7912 H   0  0  0  0  0  0  0  0  0  0  0  0
  1  2  1  0
  2  3  2  0
  2  4  2  0
  2  5  1  0
  5  6  1  0
  6  7  2  0
  7  8  1  0
  8  9  2  0
  9 10  1  0
 10 11  2  0
 11 12  1  0
 12 13  1  0
 13 14  1  0
 14 15  1  0
 15 16  1  0
 16 17  1  0
 17 18  1  0
 18 19  1  0
 11 20  1  0
 20 21  2  0
 20 22  2  0
 20 23  1  0
 23 24  2  0
 24  6  1  0
 23  9  1  0
 19 13  1  0
  1 25  1  0
  1 26  1  0
  7 27  1  0
  8 28  1  0
 10 29  1  0
 12 30  1  0
 12 31  1  0
 13 32  1  0
 14 33  1  0
 14 34  1  0
 15 35  1  0
 15 36  1  0
 16 37  1  0
 16 38  1  0
 17 39  1  0
 17 40  1  0
 18 41  1  0
 18 42  1  0
 19 43  1  0
 19 44  1  0
 24 45  1  0
M  END
$$$$
