
     RDKit          3D

 32 34  0  0  0  0  0  0  0  0999 V2000
    0.5616    1.4797    0.7391 C   0  0  0  0  0  0  0  0  0  0  0  0
    0.1656    0.3328   -0.1984 C   0  0  2  0  0  0  0  0  0  0  0  0
    1.2197    0.0517   -1.2049 C   0  0  0  0  0  0  0  0  0  0  0  0
    2.4976   -0.3202   -0.6648 N   0  0  0  0  0  0  0  0  0  0  0  0
    2.9606   -1.5354   -0.3813 C   0  0  0  0  0  0  0  0  0  0  0  0
    4.2324   -1.3785    0.1187 C   0  0  0  0  0  0  0  0  0  0  0  0
    4.4983   -0.0641    0.1208 N   0  0  0  0  0  0  0  0  0  0  0  0
    3.4398    0.5491   -0.3547 N   0  0  0  0  0  0  0  0  0  0  0  0
   -1.1582    0.7235   -0.8125 C   0  0  2  0  0  0  0  0  0  0  0  0
   -1.5189    2.1450   -0.5634 C   0  0  0  0  0  0  0  0  0  0  0  0
   -2.6147    2.4126   -0.0178 O   0  0  0  0  0  0  0  0  0  0  0  0
   -0.6927    3.2017   -0.9095 O   0  0  0  0  0  0  0  0  0  0  0  0
   -2.1753   -0.1764   -0.3874 N   0  0  0  0  0  0  0  0  0  0  0  0
   -3.3290   -1.0093   -0.3992 C   0  0  0  0  0  0  0  0  0  0  0  0
   -4.3343   -1.1735   -1.1384 O   0  0  0  0  0  0  0  0  0  0  0  0
   -2.9514   -1.7076    0.8648 C   0  0  0  0  0  0  0  0  0  0  0  0
   -1.9909   -0.5844    1.0191 C   0  0  1  0  0  0  0  0  0  0  0  0
   -0.2470   -1.0409    0.8491 S   0  0  0  0  0  6  0  0  0  0  0  0
    0.4514   -1.0250    2.1502 O   0  0  0  0  0  0  0  0  0  0  0  0
   -0.1600   -2.3518    0.1210 O   0  0  0  0  0  0  0  0  0  0  0  0
    1.0917    1.0744    1.6296 H   0  0  0  0  0  0  0  0  0  0  0  0
    1.1111    2.2699    0.2312 H   0  0  0  0  0  0  0  0  0  0  0  0
   -0.3878    1.8965    1.1287 H   0  0  0  0  0  0  0  0  0  0  0  0
    1.3417    0.9912   -1.8141 H   0  0  0  0  0  0  0  0  0  0  0  0
    0.8569   -0.7000   -1.9491 H   0  0  0  0  0  0  0  0  0  0  0  0
    2.4811   -2.5059   -0.5003 H   0  0  0  0  0  0  0  0  0  0  0  0
    4.8867   -2.1809    0.4464 H   0  0  0  0  0  0  0  0  0  0  0  0
   -1.0127    0.6436   -1.9204 H   0  0  0  0  0  0  0  0  0  0  0  0
   -0.8256    4.1173   -0.4942 H   0  0  0  0  0  0  0  0  0  0  0  0
   -3.7588   -1.6488    1.6271 H   0  0  0  0  0  0  0  0  0  0  0  0
   -2.4633   -2.6758    0.7470 H   0  0  0  0  0  0  0  0  0  0  0  0
   -2.1755    0.1893    1.7574 H   0  0  0  0  0  0  0  0  0  0  0  0
  2  1  1  1
  2  3  1  0
  3  4  1  0
  4  5  1  0
  5  6  2  0
  6  7  1  0
  7  8  2  0
  2  9  1  0
  9 10  1  0
 10 11  2  0
 10 12  1  0
  9 13  1  0
 13 14  1  0
 14 15  2  0
 14 16  1  0
 16 17  1  0
 17 18  1  0
 18 19  2  0
 18 20  2  0
 18  2  1  0
  8  4  1  0
 17 13  1  0
  1 21  1  0
  1 22  1  0
  1 23  1  0
  3 24  1  0
  3 25  1  0
  5 26  1  0
  6 27  1  0
  9 28  1  6
 12 29  1  0
 16 30  1  0
 16 31  1  0
 17 32  1  1
M  END
$$$$
