
     RDKit          3D

 51 51  0  0  0  0  0  0  0  0999 V2000
   -3.5953    1.0624    1.7733 C   0  0  1  0  0  0  0  0  0  0  0  0
   -3.8288    0.1440    2.8034 O   0  0  0  0  0  0  0  0  0  0  0  0
   -2.2782    0.8689    1.1004 C   0  0  0  0  0  0  0  0  0  0  0  0
   -2.2034   -0.2740    0.2177 N   0  0  0  0  0  0  0  0  0  0  0  0
   -1.3896   -0.0016   -0.9515 C   0  0  0  0  0  0  0  0  0  0  0  0
    0.0491    0.1642   -0.5168 C   0  0  0  0  0  0  0  0  0  0  0  0
    0.9593    0.4541   -1.6910 C   0  0  0  0  0  0  0  0  0  0  0  0
    2.3938    0.6198   -1.2545 C   0  0  0  0  0  0  0  0  0  0  0  0
    2.9742   -0.5773   -0.5805 C   0  0  0  0  0  0  0  0  0  0  0  0
    4.4169   -0.2038   -0.2233 C   0  0  0  0  0  0  0  0  0  0  0  0
    5.1321   -1.3332    0.4702 C   0  0  0  0  0  0  0  0  0  0  0  0
    6.5463   -0.8811    0.7864 C   0  0  0  0  0  0  0  0  0  0  0  0
    6.5653    0.3323    1.6880 C   0  0  0  0  0  0  0  0  0  0  0  0
   -3.5260   -0.7374   -0.0876 C   0  0  2  0  0  0  0  0  0  0  0  0
   -3.5870   -1.8254   -1.0995 C   0  0  0  0  0  0  0  0  0  0  0  0
   -4.9621   -2.1393   -1.2501 O   0  0  0  0  0  0  0  0  0  0  0  0
   -4.3910    0.4524   -0.5075 C   0  0  1  0  0  0  0  0  0  0  0  0
   -5.4846    0.0219   -1.2263 O   0  0  0  0  0  0  0  0  0  0  0  0
   -4.7491    1.1456    0.7943 C   0  0  2  0  0  0  0  0  0  0  0  0
   -5.0528    2.4577    0.4685 O   0  0  0  0  0  0  0  0  0  0  0  0
   -3.5510    2.0506    2.2813 H   0  0  0  0  0  0  0  0  0  0  0  0
   -4.7921   -0.0278    2.8905 H   0  0  0  0  0  0  0  0  0  0  0  0
   -1.5260    0.6985    1.9089 H   0  0  0  0  0  0  0  0  0  0  0  0
   -2.0565    1.8042    0.5270 H   0  0  0  0  0  0  0  0  0  0  0  0
   -1.7177    0.8528   -1.5462 H   0  0  0  0  0  0  0  0  0  0  0  0
   -1.4242   -0.9243   -1.5865 H   0  0  0  0  0  0  0  0  0  0  0  0
    0.3637   -0.7599   -0.0102 H   0  0  0  0  0  0  0  0  0  0  0  0
    0.1494    1.0253    0.1847 H   0  0  0  0  0  0  0  0  0  0  0  0
    0.9502   -0.4270   -2.3894 H   0  0  0  0  0  0  0  0  0  0  0  0
    0.6472    1.3895   -2.1822 H   0  0  0  0  0  0  0  0  0  0  0  0
    2.3728    1.4356   -0.4733 H   0  0  0  0  0  0  0  0  0  0  0  0
    3.0371    1.0160   -2.0525 H   0  0  0  0  0  0  0  0  0  0  0  0
    3.0080   -1.4768   -1.1931 H   0  0  0  0  0  0  0  0  0  0  0  0
    2.4738   -0.7415    0.4131 H   0  0  0  0  0  0  0  0  0  0  0  0
    4.4553    0.6731    0.4554 H   0  0  0  0  0  0  0  0  0  0  0  0
    4.9462    0.0830   -1.1315 H   0  0  0  0  0  0  0  0  0  0  0  0
    4.6671   -1.5667    1.4529 H   0  0  0  0  0  0  0  0  0  0  0  0
    5.2174   -2.2441   -0.1375 H   0  0  0  0  0  0  0  0  0  0  0  0
    7.1007   -1.6897    1.3186 H   0  0  0  0  0  0  0  0  0  0  0  0
    7.1070   -0.6724   -0.1506 H   0  0  0  0  0  0  0  0  0  0  0  0
    6.5703    1.2286    1.0410 H   0  0  0  0  0  0  0  0  0  0  0  0
    5.6312    0.3235    2.2609 H   0  0  0  0  0  0  0  0  0  0  0  0
    7.4910    0.3721    2.3055 H   0  0  0  0  0  0  0  0  0  0  0  0
   -3.9577   -1.1519    0.8569 H   0  0  0  0  0  0  0  0  0  0  0  0
   -3.1098   -2.7339   -0.7021 H   0  0  0  0  0  0  0  0  0  0  0  0
   -3.2646   -1.5403   -2.1233 H   0  0  0  0  0  0  0  0  0  0  0  0
   -5.4184   -2.1891   -0.3653 H   0  0  0  0  0  0  0  0  0  0  0  0
   -3.8105    1.1496   -1.1340 H   0  0  0  0  0  0  0  0  0  0  0  0
   -5.6627    0.6323   -1.9738 H   0  0  0  0  0  0  0  0  0  0  0  0
   -5.5967    0.6044    1.2386 H   0  0  0  0  0  0  0  0  0  0  0  0
   -4.2897    3.0561    0.6759 H   0  0  0  0  0  0  0  0  0  0  0  0
  1  2  1  0
  1  3  1  0
  3  4  1  0
  4  5  1  0
  5  6  1  0
  6  7  1  0
  7  8  1  0
  8  9  1  0
  9 10  1  0
 10 11  1  0
 11 12  1  0
 12 13  1  0
  4 14  1  0
 14 15  1  0
 15 16  1  0
 14 17  1  0
 17 18  1  0
 17 19  1  0
 19 20  1  0
 19  1  1  0
  1 21  1  1
  2 22  1  0
  3 23  1  0
  3 24  1  0
  5 25  1  0
  5 26  1  0
  6 27  1  0
  6 28  1  0
  7 29  1  0
  7 30  1  0
  8 31  1  0
  8 32  1  0
  9 33  1  0
  9 34  1  0
 10 35  1  0
 10 36  1  0
 11 37  1  0
 11 38  1  0
 12 39  1  0
 12 40  1  0
 13 41  1  0
 13 42  1  0
 13 43  1  0
 14 44  1  1
 15 45  1  0
 15 46  1  0
 16 47  1  0
 17 48  1  6
 18 49  1  0
 19 50  1  1
 20 51  1  0
M  END
$$$$
