
     RDKit          3D

 59 64  0  0  0  0  0  0  0  0999 V2000
    1.0307    0.1527    1.2929 C   0  0  0  0  0  0  0  0  0  0  0  0
   -0.4399    0.0935    0.7652 C   0  0  2  0  0  0  0  0  0  0  0  0
   -0.4190    0.9140   -0.4778 C   0  0  0  0  0  0  0  0  0  0  0  0
    0.7488    1.3075   -1.0883 C   0  0  0  0  0  0  0  0  0  0  0  0
    0.8323    2.1027   -2.2016 C   0  0  0  0  0  0  0  0  0  0  0  0
    1.9351    2.6542   -2.8791 C   0  0  0  0  0  0  0  0  0  0  0  0
    3.0267    2.2996   -3.4530 C   0  0  0  0  0  0  0  0  0  0  0  0
    3.3120    0.9719   -3.4671 F   0  0  0  0  0  0  0  0  0  0  0  0
    3.9161    3.2282   -4.1449 C   0  0  0  0  0  0  0  0  0  0  0  0
    3.4393    4.5494   -4.4511 C   0  0  0  0  0  0  0  0  0  0  0  0
    4.3540    5.3831   -5.0292 C   0  0  0  0  0  0  0  0  0  0  0  0
    5.6325    5.1026   -5.3352 C   0  0  0  0  0  0  0  0  0  0  0  0
    6.5026    6.1629   -5.9194 C   0  0  0  0  0  0  0  0  0  0  0  0
    7.1504    6.9779   -6.3750 N   0  0  0  0  0  0  0  0  0  0  0  0
    6.0801    3.8057   -5.0302 C   0  0  0  0  0  0  0  0  0  0  0  0
    5.1579    3.0022   -4.4607 N   0  0  0  0  0  0  0  0  0  0  0  0
   -0.4214    2.5285   -2.7415 C   0  0  0  0  0  0  0  0  0  0  0  0
   -1.5903    2.1604   -2.1718 C   0  0  0  0  0  0  0  0  0  0  0  0
   -1.6090    1.3592   -1.0438 C   0  0  0  0  0  0  0  0  0  0  0  0
   -2.7913    1.1062   -0.4707 F   0  0  0  0  0  0  0  0  0  0  0  0
   -1.1380    0.8625    1.7565 N   0  0  0  0  0  0  0  0  0  0  0  0
   -2.0784    0.6032    2.5480 C   0  0  0  0  0  0  0  0  0  0  0  0
   -2.4679    1.7148    3.3752 N   0  0  0  0  0  0  0  0  0  0  0  0
   -2.7582   -1.0075    2.5330 S   0  0  0  0  0  0  0  0  0  0  0  0
   -1.7403   -2.0054    1.3811 C   0  0  1  0  0  0  0  0  0  0  0  0
   -1.8093   -3.4269    1.6725 C   0  0  0  0  0  0  0  0  0  0  0  0
   -1.9903   -4.2663    0.7137 O   0  0  0  0  0  0  0  0  0  0  0  0
   -1.7145   -4.0497    2.9354 N   0  0  0  0  0  0  0  0  0  0  0  0
   -1.3530   -3.4159    4.1704 C   0  0  0  0  0  0  0  0  0  0  0  0
   -2.4982   -3.6897    5.1717 C   0  0  0  0  0  0  0  0  0  0  0  0
   -3.6162   -4.2258    4.5465 O   0  0  0  0  0  0  0  0  0  0  0  0
   -3.3450   -5.4727    4.0065 C   0  0  1  0  0  0  0  0  0  0  0  0
   -3.5620   -5.6930    2.5482 C   0  0  0  0  0  0  0  0  0  0  0  0
   -2.1481   -5.4674    3.1128 C   0  0  1  0  0  0  0  0  0  0  0  0
   -1.9919   -1.7501   -0.1306 C   0  0  0  0  0  0  0  0  0  0  0  0
   -0.7439   -1.3150    0.6153 C   0  0  1  0  0  0  0  0  0  0  0  0
    1.6941   -0.4912    0.7308 H   0  0  0  0  0  0  0  0  0  0  0  0
    1.4100    1.1882    1.2756 H   0  0  0  0  0  0  0  0  0  0  0  0
    1.0405   -0.2117    2.3644 H   0  0  0  0  0  0  0  0  0  0  0  0
    1.7250    0.9820   -0.6956 H   0  0  0  0  0  0  0  0  0  0  0  0
    1.8727    3.8352   -2.8790 H   0  0  0  0  0  0  0  0  0  0  0  0
    2.4422    4.8094   -4.2476 H   0  0  0  0  0  0  0  0  0  0  0  0
    4.0100    6.4250   -5.3023 H   0  0  0  0  0  0  0  0  0  0  0  0
    7.0866    3.5548   -5.2621 H   0  0  0  0  0  0  0  0  0  0  0  0
   -0.4328    3.1666   -3.6107 H   0  0  0  0  0  0  0  0  0  0  0  0
   -2.5356    2.4926   -2.6040 H   0  0  0  0  0  0  0  0  0  0  0  0
   -2.6472    2.6306    2.8364 H   0  0  0  0  0  0  0  0  0  0  0  0
   -2.5652    1.6446    4.3617 H   0  0  0  0  0  0  0  0  0  0  0  0
   -1.2102   -2.3424    4.0062 H   0  0  0  0  0  0  0  0  0  0  0  0
   -0.4255   -3.8936    4.6072 H   0  0  0  0  0  0  0  0  0  0  0  0
   -2.7974   -2.6685    5.5379 H   0  0  0  0  0  0  0  0  0  0  0  0
   -2.1376   -4.3148    5.9984 H   0  0  0  0  0  0  0  0  0  0  0  0
   -3.4773   -6.3413    4.6473 H   0  0  0  0  0  0  0  0  0  0  0  0
   -3.8504   -6.6933    2.2081 H   0  0  0  0  0  0  0  0  0  0  0  0
   -3.9990   -4.8724    1.9563 H   0  0  0  0  0  0  0  0  0  0  0  0
   -1.4636   -6.2768    3.0976 H   0  0  0  0  0  0  0  0  0  0  0  0
   -1.8692   -2.6602   -0.8008 H   0  0  0  0  0  0  0  0  0  0  0  0
   -2.9180   -1.2149   -0.2357 H   0  0  0  0  0  0  0  0  0  0  0  0
    0.1556   -2.0055    0.3439 H   0  0  0  0  0  0  0  0  0  0  0  0
  2  1  1  1
  2  3  1  0
  3  4  2  0
  4  5  1  0
  5  6  1  0
  6  7  2  0
  7  8  1  0
  7  9  1  0
  9 10  2  0
 10 11  1  0
 11 12  2  0
 12 13  1  0
 13 14  3  0
 12 15  1  0
 15 16  2  0
  5 17  2  0
 17 18  1  0
 18 19  2  0
 19 20  1  0
  2 21  1  0
 21 22  2  0
 22 23  1  0
 22 24  1  0
 24 25  1  0
 25 26  1  6
 26 27  2  0
 26 28  1  0
 28 29  1  0
 29 30  1  0
 30 31  1  0
 31 32  1  0
 32 33  1  0
 33 34  1  0
 25 35  1  0
 35 36  1  0
 36  2  1  0
 19  3  1  0
 36 25  1  0
 16  9  1  0
 34 28  1  0
 34 32  1  0
  1 37  1  0
  1 38  1  0
  1 39  1  0
  4 40  1  0
  6 41  1  0
 10 42  1  0
 11 43  1  0
 15 44  1  0
 17 45  1  0
 18 46  1  0
 23 47  1  0
 23 48  1  0
 29 49  1  0
 29 50  1  0
 30 51  1  0
 30 52  1  0
 32 53  1  1
 33 54  1  0
 33 55  1  0
 34 56  1  1
 35 57  1  0
 35 58  1  0
 36 59  1  6
M  END
$$$$
