
     RDKit          3D

 56 61  0  0  0  0  0  0  0  0999 V2000
   10.2380    2.7904   -0.6827 N   0  0  0  0  0  0  0  0  0  0  0  0
    9.2441    2.3185   -0.9986 C   0  0  0  0  0  0  0  0  0  0  0  0
    7.9771    1.7230   -1.3748 C   0  0  0  0  0  0  0  0  0  0  0  0
    7.7456    0.4281   -1.5972 C   0  0  0  0  0  0  0  0  0  0  0  0
    6.5137   -0.0831   -1.8835 C   0  0  0  0  0  0  0  0  0  0  0  0
    5.4038    0.7411   -1.9580 C   0  0  0  0  0  0  0  0  0  0  0  0
    4.0715    0.2540   -2.1887 C   0  0  0  0  0  0  0  0  0  0  0  0
    3.7997   -0.9606   -2.3031 O   0  0  0  0  0  0  0  0  0  0  0  0
    2.9356    1.1433   -2.2981 N   0  0  0  0  0  0  0  0  0  0  0  0
    1.6109    0.6454   -2.4585 C   0  0  0  0  0  0  0  0  0  0  0  0
    1.0313    0.2883   -3.6096 C   0  0  0  0  0  0  0  0  0  0  0  0
   -0.2576   -0.1947   -3.6106 C   0  0  0  0  0  0  0  0  0  0  0  0
   -0.9408   -0.2994   -2.3789 C   0  0  0  0  0  0  0  0  0  0  0  0
   -0.3856    0.0556   -1.2488 C   0  0  0  0  0  0  0  0  0  0  0  0
    0.9183    0.5430   -1.2362 C   0  0  0  0  0  0  0  0  0  0  0  0
   -1.1386    0.1157    0.0630 C   0  0  0  0  0  0  0  0  0  0  0  0
   -1.5971    1.6358    0.0375 C   0  0  0  0  0  0  0  0  0  0  0  0
   -1.4940    2.2284    1.4124 C   0  0  0  0  0  0  0  0  0  0  0  0
   -0.1785    2.0411    1.8806 O   0  0  0  0  0  0  0  0  0  0  0  0
    0.2002    0.5616    2.0364 C   0  0  0  0  0  0  0  0  0  0  0  0
    1.0318    0.5603    3.2010 N   0  0  0  0  0  0  0  0  0  0  0  0
   -0.2890   -0.0613    1.1964 N   0  0  0  0  0  0  0  0  0  0  0  0
   -2.3784   -0.6111   -0.0215 C   0  0  0  0  0  0  0  0  0  0  0  0
   -3.1864   -0.8564    1.0984 C   0  0  0  0  0  0  0  0  0  0  0  0
   -4.4196   -1.3980    1.0533 C   0  0  0  0  0  0  0  0  0  0  0  0
   -5.2074   -1.7912    2.2076 C   0  0  0  0  0  0  0  0  0  0  0  0
   -6.4216   -2.4816    2.0313 C   0  0  0  0  0  0  0  0  0  0  0  0
   -7.1067   -2.9592    3.1106 C   0  0  0  0  0  0  0  0  0  0  0  0
   -6.6919   -2.8168    4.3822 N   0  0  0  0  0  0  0  0  0  0  0  0
   -5.5289   -2.1488    4.5970 C   0  0  0  0  0  0  0  0  0  0  0  0
   -5.0691   -1.9453    5.8217 F   0  0  0  0  0  0  0  0  0  0  0  0
   -4.8032   -1.6469    3.4883 C   0  0  0  0  0  0  0  0  0  0  0  0
   -4.9408   -1.7420   -0.2150 N   0  0  0  0  0  0  0  0  0  0  0  0
   -4.1875   -1.5147   -1.2516 C   0  0  0  0  0  0  0  0  0  0  0  0
   -4.7193   -1.8723   -2.4759 F   0  0  0  0  0  0  0  0  0  0  0  0
   -2.9355   -0.9756   -1.2269 C   0  0  0  0  0  0  0  0  0  0  0  0
   -2.2467   -0.8328   -2.4403 O   0  0  0  0  0  0  0  0  0  0  0  0
    5.6408    2.0419   -1.7374 N   0  0  0  0  0  0  0  0  0  0  0  0
    6.8247    2.6016   -1.4545 C   0  0  0  0  0  0  0  0  0  0  0  0
    8.6406   -0.2501   -1.5573 H   0  0  0  0  0  0  0  0  0  0  0  0
    6.3918   -1.1321   -2.0488 H   0  0  0  0  0  0  0  0  0  0  0  0
    3.1535    2.1663   -2.2570 H   0  0  0  0  0  0  0  0  0  0  0  0
    1.5444    0.3637   -4.5865 H   0  0  0  0  0  0  0  0  0  0  0  0
   -0.7612   -0.4982   -4.4859 H   0  0  0  0  0  0  0  0  0  0  0  0
    1.3675    0.8253   -0.2991 H   0  0  0  0  0  0  0  0  0  0  0  0
   -2.6336    1.6358   -0.2866 H   0  0  0  0  0  0  0  0  0  0  0  0
   -0.9389    2.1258   -0.6734 H   0  0  0  0  0  0  0  0  0  0  0  0
   -1.7806    3.3071    1.4187 H   0  0  0  0  0  0  0  0  0  0  0  0
   -2.2117    1.7276    2.0740 H   0  0  0  0  0  0  0  0  0  0  0  0
    1.9768    0.9886    3.1294 H   0  0  0  0  0  0  0  0  0  0  0  0
    0.6961    0.1474    4.0836 H   0  0  0  0  0  0  0  0  0  0  0  0
   -2.7582   -0.5913    2.0666 H   0  0  0  0  0  0  0  0  0  0  0  0
   -6.8239   -2.6393    1.0232 H   0  0  0  0  0  0  0  0  0  0  0  0
   -8.0577   -3.5099    2.9940 H   0  0  0  0  0  0  0  0  0  0  0  0
   -3.8850   -1.1315    3.7221 H   0  0  0  0  0  0  0  0  0  0  0  0
    7.0169    3.6266   -1.2846 H   0  0  0  0  0  0  0  0  0  0  0  0
  1  2  3  0
  2  3  1  0
  3  4  2  0
  4  5  1  0
  5  6  2  0
  6  7  1  0
  7  8  2  0
  7  9  1  0
  9 10  1  0
 10 11  2  0
 11 12  1  0
 12 13  2  0
 13 14  1  0
 14 15  2  0
 14 16  1  0
 16 17  1  0
 17 18  1  0
 18 19  1  0
 19 20  1  0
 20 21  1  0
 20 22  2  0
 16 23  1  0
 23 24  2  0
 24 25  1  0
 25 26  1  0
 26 27  2  0
 27 28  1  0
 28 29  2  0
 29 30  1  0
 30 31  1  0
 30 32  2  0
 25 33  2  0
 33 34  1  0
 34 35  1  0
 34 36  2  0
 36 37  1  0
  6 38  1  0
 38 39  2  0
 39  3  1  0
 15 10  1  0
 22 16  1  0
 36 23  1  0
 37 13  1  0
 32 26  1  0
  4 40  1  0
  5 41  1  0
  9 42  1  0
 11 43  1  0
 12 44  1  0
 15 45  1  0
 17 46  1  0
 17 47  1  0
 18 48  1  0
 18 49  1  0
 21 50  1  0
 21 51  1  0
 24 52  1  0
 27 53  1  0
 28 54  1  0
 32 55  1  0
 39 56  1  0
M  END
$$$$
