
     RDKit          3D

 58 62  0  0  0  0  0  0  0  0999 V2000
    8.6242   -1.1886    2.3802 C   0  0  0  0  0  0  0  0  0  0  0  0
    7.2794   -1.4946    2.7565 O   0  0  0  0  0  0  0  0  0  0  0  0
    6.2609   -0.7110    2.2161 C   0  0  0  0  0  0  0  0  0  0  0  0
    6.5366    0.3266    1.3464 C   0  0  0  0  0  0  0  0  0  0  0  0
    5.5356    1.1056    0.8086 C   0  0  0  0  0  0  0  0  0  0  0  0
    4.1975    0.8894    1.1115 C   0  0  0  0  0  0  0  0  0  0  0  0
    3.1497    1.7568    0.5130 C   0  0  0  0  0  0  0  0  0  0  0  0
    2.6561    1.2568   -0.7456 N   0  0  0  0  0  0  0  0  0  0  0  0
    3.1673    1.5178   -2.0408 C   0  0  0  0  0  0  0  0  0  0  0  0
    4.1559    2.2304   -2.3732 O   0  0  0  0  0  0  0  0  0  0  0  0
    2.3480    0.8071   -3.0136 C   0  0  0  0  0  0  0  0  0  0  0  0
    2.4501    0.7634   -4.2636 O   0  0  0  0  0  0  0  0  0  0  0  0
    1.3246    0.1135   -2.2100 C   0  0  0  0  0  0  0  0  0  0  0  0
    0.2873   -0.7015   -2.5787 C   0  0  0  0  0  0  0  0  0  0  0  0
   -0.5549   -1.2440   -1.6434 C   0  0  0  0  0  0  0  0  0  0  0  0
   -1.8731   -2.2840   -2.1990 S   0  0  0  0  0  6  0  0  0  0  0  0
   -1.4201   -2.9395   -3.4587 O   0  0  0  0  0  0  0  0  0  0  0  0
   -2.1508   -3.2776   -1.1113 O   0  0  0  0  0  0  0  0  0  0  0  0
   -3.2360   -1.2572   -2.4649 N   0  0  0  0  0  0  0  0  0  0  0  0
   -3.0432   -0.2481   -3.4672 C   0  0  0  0  0  0  0  0  0  0  0  0
   -3.8229    0.7166   -2.5994 C   0  0  0  0  0  0  0  0  0  0  0  0
   -3.3946   -0.2059   -1.4793 C   0  0  1  0  0  0  0  0  0  0  0  0
   -4.5535   -0.4173   -0.5289 C   0  0  0  0  0  0  0  0  0  0  0  0
   -4.6008    0.6721    0.3774 O   0  0  0  0  0  0  0  0  0  0  0  0
   -5.5834    0.6971    1.3458 C   0  0  0  0  0  0  0  0  0  0  0  0
   -6.5269   -0.2967    1.4719 C   0  0  0  0  0  0  0  0  0  0  0  0
   -7.5086   -0.2334    2.4694 C   0  0  0  0  0  0  0  0  0  0  0  0
   -7.5397    0.8327    3.3409 C   0  0  0  0  0  0  0  0  0  0  0  0
   -6.6092    1.7898    3.1984 N   0  0  0  0  0  0  0  0  0  0  0  0
   -5.6449    1.7450    2.2324 C   0  0  0  0  0  0  0  0  0  0  0  0
   -0.3549   -0.9669   -0.3247 C   0  0  0  0  0  0  0  0  0  0  0  0
    0.6672   -0.1614    0.0644 C   0  0  0  0  0  0  0  0  0  0  0  0
    1.5330    0.3978   -0.8825 C   0  0  0  0  0  0  0  0  0  0  0  0
    3.9284   -0.1476    1.9800 C   0  0  0  0  0  0  0  0  0  0  0  0
    4.9346   -0.9301    2.5205 C   0  0  0  0  0  0  0  0  0  0  0  0
    8.8168   -0.1122    2.6646 H   0  0  0  0  0  0  0  0  0  0  0  0
    9.3496   -1.7857    2.9487 H   0  0  0  0  0  0  0  0  0  0  0  0
    8.7533   -1.2363    1.2936 H   0  0  0  0  0  0  0  0  0  0  0  0
    7.5812    0.5166    1.0924 H   0  0  0  0  0  0  0  0  0  0  0  0
    5.7586    1.9257    0.1212 H   0  0  0  0  0  0  0  0  0  0  0  0
    2.2856    1.8907    1.1987 H   0  0  0  0  0  0  0  0  0  0  0  0
    3.5341    2.7866    0.3191 H   0  0  0  0  0  0  0  0  0  0  0  0
    0.1644   -0.8966   -3.6369 H   0  0  0  0  0  0  0  0  0  0  0  0
   -2.0144    0.1121   -3.6131 H   0  0  0  0  0  0  0  0  0  0  0  0
   -3.6183   -0.4884   -4.3844 H   0  0  0  0  0  0  0  0  0  0  0  0
   -3.3596    1.7361   -2.5423 H   0  0  0  0  0  0  0  0  0  0  0  0
   -4.9229    0.7153   -2.7708 H   0  0  0  0  0  0  0  0  0  0  0  0
   -2.4712    0.1127   -0.9893 H   0  0  0  0  0  0  0  0  0  0  0  0
   -5.5148   -0.5025   -1.0953 H   0  0  0  0  0  0  0  0  0  0  0  0
   -4.4605   -1.3715    0.0326 H   0  0  0  0  0  0  0  0  0  0  0  0
   -6.4787   -1.1181    0.7766 H   0  0  0  0  0  0  0  0  0  0  0  0
   -8.2444   -1.0147    2.5618 H   0  0  0  0  0  0  0  0  0  0  0  0
   -8.3012    0.9040    4.1336 H   0  0  0  0  0  0  0  0  0  0  0  0
   -4.9078    2.5330    2.1412 H   0  0  0  0  0  0  0  0  0  0  0  0
   -1.0243   -1.3981    0.4211 H   0  0  0  0  0  0  0  0  0  0  0  0
    0.8296    0.0653    1.1264 H   0  0  0  0  0  0  0  0  0  0  0  0
    2.9010   -0.3508    2.2431 H   0  0  0  0  0  0  0  0  0  0  0  0
    4.7251   -1.7526    3.2086 H   0  0  0  0  0  0  0  0  0  0  0  0
  1  2  1  0
  2  3  1  0
  3  4  2  0
  4  5  1  0
  5  6  2  0
  6  7  1  0
  7  8  1  0
  8  9  1  0
  9 10  2  0
  9 11  1  0
 11 12  2  0
 11 13  1  0
 13 14  2  0
 14 15  1  0
 15 16  1  0
 16 17  2  0
 16 18  2  0
 16 19  1  0
 19 20  1  0
 20 21  1  0
 21 22  1  0
 22 23  1  0
 23 24  1  0
 24 25  1  0
 25 26  2  0
 26 27  1  0
 27 28  2  0
 28 29  1  0
 29 30  2  0
 15 31  2  0
 31 32  1  0
 32 33  2  0
  6 34  1  0
 34 35  2  0
 35  3  1  0
 33  8  1  0
 33 13  1  0
 22 19  1  0
 30 25  1  0
  1 36  1  0
  1 37  1  0
  1 38  1  0
  4 39  1  0
  5 40  1  0
  7 41  1  0
  7 42  1  0
 14 43  1  0
 20 44  1  0
 20 45  1  0
 21 46  1  0
 21 47  1  0
 22 48  1  1
 23 49  1  0
 23 50  1  0
 26 51  1  0
 27 52  1  0
 28 53  1  0
 30 54  1  0
 31 55  1  0
 32 56  1  0
 34 57  1  0
 35 58  1  0
M  END
$$$$
