
     RDKit          3D

127129  0  0  0  0  0  0  0  0999 V2000
   -2.9985    2.8504    0.5896 C   0  0  0  0  0  0  0  0  0  0  0  0
   -3.0065    2.2024   -0.6445 O   0  0  0  0  0  0  0  0  0  0  0  0
   -3.4188    0.8974   -0.5674 C   0  0  1  0  0  0  0  0  0  0  0  0
   -4.7435    0.7770   -1.2457 C   0  0  1  0  0  0  0  0  0  0  0  0
   -5.7584    1.5189   -0.4243 C   0  0  0  0  0  0  0  0  0  0  0  0
   -7.1473    1.2360   -0.9000 C   0  0  0  0  0  0  0  0  0  0  0  0
   -7.4936    0.7625   -2.0104 O   0  0  0  0  0  0  0  0  0  0  0  0
   -8.2457    1.4773   -0.0861 O   0  0  0  0  0  0  0  0  0  0  0  0
   -9.5622    1.1746   -0.4893 C   0  0  2  0  0  0  0  0  0  0  0  0
  -10.3760    2.4620   -0.6545 C   0  0  0  0  0  0  0  0  0  0  0  0
  -10.2913    0.3747    0.5587 C   0  0  0  0  0  0  0  0  0  0  0  0
   -9.6373   -0.9280    0.9058 C   0  0  0  0  0  0  0  0  0  0  0  0
   -8.6348   -1.7086    0.6447 C   0  0  0  0  0  0  0  0  0  0  0  0
   -7.5681   -2.6594    0.4462 C   0  0  0  0  0  0  0  0  0  0  0  0
   -6.5266   -2.6585   -0.3633 C   0  0  0  0  0  0  0  0  0  0  0  0
   -5.3410   -3.4057   -0.7842 C   0  0  2  0  0  0  0  0  0  0  0  0
   -5.6228   -4.8046   -0.8096 O   0  0  0  0  0  0  0  0  0  0  0  0
   -4.1344   -3.2768    0.0931 C   0  0  2  0  0  0  0  0  0  0  0  0
   -4.5703   -3.7075    1.5117 C   0  0  0  0  0  0  0  0  0  0  0  0
   -3.4559   -1.9670    0.2019 C   0  0  0  0  0  0  0  0  0  0  0  0
   -2.8920   -1.4434   -1.0557 C   0  0  2  0  0  0  0  0  0  0  0  0
   -1.9691   -2.4836   -1.6324 C   0  0  0  0  0  0  0  0  0  0  0  0
   -0.8582   -2.9030   -0.7541 C   0  0  0  0  0  0  0  0  0  0  0  0
   -0.0365   -3.7500   -1.1014 O   0  0  0  0  0  0  0  0  0  0  0  0
   -2.3502   -0.0361   -1.0450 C   0  0  2  0  0  0  0  0  0  0  0  0
   -1.2857    0.2374   -0.2533 O   0  0  0  0  0  0  0  0  0  0  0  0
   -0.1227    0.6734   -0.7789 C   0  0  2  0  0  0  0  0  0  0  0  0
    0.8351   -0.3132   -0.5841 O   0  0  0  0  0  0  0  0  0  0  0  0
    1.3546   -0.3657    0.6689 C   0  0  2  0  0  0  0  0  0  0  0  0
    0.4001   -0.6420    1.7948 C   0  0  0  0  0  0  0  0  0  0  0  0
    2.1980    0.8403    0.9006 C   0  0  1  0  0  0  0  0  0  0  0  0
    3.4201    0.6233    0.2672 O   0  0  0  0  0  0  0  0  0  0  0  0
    4.4760    0.6402    1.1771 C   0  0  1  0  0  0  0  0  0  0  0  0
    5.0871   -0.7171    1.1986 C   0  0  0  0  0  0  0  0  0  0  0  0
    6.4255   -0.5869    1.9395 C   0  0  1  0  0  0  0  0  0  0  0  0
    6.2346   -0.0549    3.3439 C   0  0  0  0  0  0  0  0  0  0  0  0
    7.0393   -1.8517    2.0308 O   0  0  0  0  0  0  0  0  0  0  0  0
    7.2776    0.2852    1.0904 C   0  0  1  0  0  0  0  0  0  0  0  0
    8.0449   -0.5262    0.2227 O   0  0  0  0  0  0  0  0  0  0  0  0
    9.4347   -0.5401    0.2052 C   0  0  0  0  0  0  0  0  0  0  0  0
   10.0257    0.2296    1.0237 O   0  0  0  0  0  0  0  0  0  0  0  0
   10.1378   -1.4349   -0.7498 C   0  0  0  0  0  0  0  0  0  0  0  0
   11.6319   -1.2053   -0.5646 C   0  0  0  0  0  0  0  0  0  0  0  0
   12.3993   -2.0981   -1.5186 C   0  0  0  0  0  0  0  0  0  0  0  0
   12.0635   -1.3704    0.8635 C   0  0  0  0  0  0  0  0  0  0  0  0
    6.5163    1.2676    0.2546 C   0  0  2  0  0  0  0  0  0  0  0  0
    7.3982    2.4712    0.0252 C   0  0  0  0  0  0  0  0  0  0  0  0
    5.3056    1.6458    0.7528 O   0  0  0  0  0  0  0  0  0  0  0  0
    1.5802    2.1286    0.4291 C   0  0  1  0  0  0  0  0  0  0  0  0
    0.4378    2.0062   -0.5061 C   0  0  1  0  0  0  0  0  0  0  0  0
    0.9252    2.5492   -1.7430 O   0  0  0  0  0  0  0  0  0  0  0  0
    1.1822    2.9704    1.5692 N   0  0  0  0  0  0  0  0  0  0  0  0
    0.6758    4.2084    1.0098 C   0  0  0  0  0  0  0  0  0  0  0  0
    2.3089    3.2902    2.4112 C   0  0  0  0  0  0  0  0  0  0  0  0
   -4.7501    1.2311   -2.5705 O   0  0  0  0  0  0  0  0  0  0  0  0
   -5.1330    0.4126   -3.5990 C   0  0  0  0  0  0  0  0  0  0  0  0
   -5.1257    0.9357   -4.9891 C   0  0  0  0  0  0  0  0  0  0  0  0
   -5.5389   -0.7933   -3.7498 O   0  0  0  0  0  0  0  0  0  0  0  0
   -2.6743    3.9078    0.5008 H   0  0  0  0  0  0  0  0  0  0  0  0
   -3.9001    2.7176    1.1966 H   0  0  0  0  0  0  0  0  0  0  0  0
   -2.1765    2.3786    1.2122 H   0  0  0  0  0  0  0  0  0  0  0  0
   -3.6095    0.7404    0.5506 H   0  0  0  0  0  0  0  0  0  0  0  0
   -5.1172   -0.2645   -1.2800 H   0  0  0  0  0  0  0  0  0  0  0  0
   -5.5660    2.6303   -0.4580 H   0  0  0  0  0  0  0  0  0  0  0  0
   -5.6571    1.2171    0.6348 H   0  0  0  0  0  0  0  0  0  0  0  0
   -9.5477    0.6983   -1.4830 H   0  0  0  0  0  0  0  0  0  0  0  0
   -9.7738    3.2769   -1.0812 H   0  0  0  0  0  0  0  0  0  0  0  0
  -10.8352    2.7608    0.3087 H   0  0  0  0  0  0  0  0  0  0  0  0
  -11.2005    2.2252   -1.3562 H   0  0  0  0  0  0  0  0  0  0  0  0
  -11.2982    0.1722    0.1546 H   0  0  0  0  0  0  0  0  0  0  0  0
  -10.4200    0.9824    1.4822 H   0  0  0  0  0  0  0  0  0  0  0  0
  -10.3083   -1.3601    1.7022 H   0  0  0  0  0  0  0  0  0  0  0  0
   -8.3564   -1.0058   -0.1421 H   0  0  0  0  0  0  0  0  0  0  0  0
   -8.1069   -3.2149    1.2319 H   0  0  0  0  0  0  0  0  0  0  0  0
   -6.6931   -1.7406   -0.9012 H   0  0  0  0  0  0  0  0  0  0  0  0
   -5.0939   -3.1903   -1.8573 H   0  0  0  0  0  0  0  0  0  0  0  0
   -6.5908   -4.8838   -0.8194 H   0  0  0  0  0  0  0  0  0  0  0  0
   -3.4417   -4.0915   -0.2763 H   0  0  0  0  0  0  0  0  0  0  0  0
   -5.4083   -4.4217    1.4354 H   0  0  0  0  0  0  0  0  0  0  0  0
   -4.9711   -2.8108    2.0233 H   0  0  0  0  0  0  0  0  0  0  0  0
   -3.7083   -4.0612    2.0966 H   0  0  0  0  0  0  0  0  0  0  0  0
   -4.1913   -1.2784    0.6910 H   0  0  0  0  0  0  0  0  0  0  0  0
   -2.6472   -2.0841    0.9668 H   0  0  0  0  0  0  0  0  0  0  0  0
   -3.7281   -1.4203   -1.8233 H   0  0  0  0  0  0  0  0  0  0  0  0
   -1.5276   -2.1479   -2.6055 H   0  0  0  0  0  0  0  0  0  0  0  0
   -2.5217   -3.4025   -1.9131 H   0  0  0  0  0  0  0  0  0  0  0  0
   -0.0576   -3.1822   -0.0784 H   0  0  0  0  0  0  0  0  0  0  0  0
   -2.1813    0.1942   -2.1282 H   0  0  0  0  0  0  0  0  0  0  0  0
   -0.3027    0.6459   -1.9042 H   0  0  0  0  0  0  0  0  0  0  0  0
    2.0521   -1.2568    0.6623 H   0  0  0  0  0  0  0  0  0  0  0  0
   -0.5207   -1.1180    1.4801 H   0  0  0  0  0  0  0  0  0  0  0  0
    0.8865   -1.2534    2.5860 H   0  0  0  0  0  0  0  0  0  0  0  0
    0.1899    0.3523    2.2811 H   0  0  0  0  0  0  0  0  0  0  0  0
    2.3912    0.9502    2.0043 H   0  0  0  0  0  0  0  0  0  0  0  0
    4.0379    0.8199    2.1799 H   0  0  0  0  0  0  0  0  0  0  0  0
    4.4589   -1.3669    1.8462 H   0  0  0  0  0  0  0  0  0  0  0  0
    5.3187   -1.1295    0.2134 H   0  0  0  0  0  0  0  0  0  0  0  0
    5.8295    0.9637    3.3520 H   0  0  0  0  0  0  0  0  0  0  0  0
    5.5095   -0.7105    3.8654 H   0  0  0  0  0  0  0  0  0  0  0  0
    7.2139   -0.1263    3.8360 H   0  0  0  0  0  0  0  0  0  0  0  0
    7.5647   -1.9426    2.8756 H   0  0  0  0  0  0  0  0  0  0  0  0
    7.9635    0.8716    1.7502 H   0  0  0  0  0  0  0  0  0  0  0  0
    9.9358   -2.5047   -0.4894 H   0  0  0  0  0  0  0  0  0  0  0  0
    9.8146   -1.2281   -1.7741 H   0  0  0  0  0  0  0  0  0  0  0  0
   11.8793   -0.1607   -0.8769 H   0  0  0  0  0  0  0  0  0  0  0  0
   13.4761   -1.9545   -1.3257 H   0  0  0  0  0  0  0  0  0  0  0  0
   12.1145   -3.1585   -1.3922 H   0  0  0  0  0  0  0  0  0  0  0  0
   12.1519   -1.7260   -2.5550 H   0  0  0  0  0  0  0  0  0  0  0  0
   12.2787   -0.3769    1.3304 H   0  0  0  0  0  0  0  0  0  0  0  0
   12.9837   -2.0104    0.8600 H   0  0  0  0  0  0  0  0  0  0  0  0
   11.2387   -1.8461    1.4412 H   0  0  0  0  0  0  0  0  0  0  0  0
    6.3353    0.7950   -0.7331 H   0  0  0  0  0  0  0  0  0  0  0  0
    7.7298    2.5748   -1.0290 H   0  0  0  0  0  0  0  0  0  0  0  0
    6.8831    3.4164    0.2841 H   0  0  0  0  0  0  0  0  0  0  0  0
    8.3467    2.4169    0.6245 H   0  0  0  0  0  0  0  0  0  0  0  0
    2.4308    2.7188   -0.0142 H   0  0  0  0  0  0  0  0  0  0  0  0
   -0.3306    2.7547   -0.2354 H   0  0  0  0  0  0  0  0  0  0  0  0
    1.2920    1.7855   -2.2874 H   0  0  0  0  0  0  0  0  0  0  0  0
    1.1919    5.0995    1.4819 H   0  0  0  0  0  0  0  0  0  0  0  0
    0.9154    4.3357   -0.0760 H   0  0  0  0  0  0  0  0  0  0  0  0
   -0.4103    4.3262    1.1140 H   0  0  0  0  0  0  0  0  0  0  0  0
    2.3335    2.5841    3.2639 H   0  0  0  0  0  0  0  0  0  0  0  0
    3.2717    3.3739    1.8777 H   0  0  0  0  0  0  0  0  0  0  0  0
    2.1303    4.2954    2.8823 H   0  0  0  0  0  0  0  0  0  0  0  0
   -6.1799    0.9702   -5.3345 H   0  0  0  0  0  0  0  0  0  0  0  0
   -4.5201    0.3266   -5.6897 H   0  0  0  0  0  0  0  0  0  0  0  0
   -4.7973    2.0038   -4.9883 H   0  0  0  0  0  0  0  0  0  0  0  0
  1  2  1  0
  2  3  1  0
  3  4  1  0
  4  5  1  0
  5  6  1  0
  6  7  2  0
  6  8  1  0
  8  9  1  0
  9 10  1  0
  9 11  1  0
 11 12  1  0
 12 13  2  0
 13 14  1  0
 14 15  2  0
 15 16  1  0
 16 17  1  0
 16 18  1  0
 18 19  1  0
 18 20  1  0
 20 21  1  0
 21 22  1  0
 22 23  1  0
 23 24  2  0
 21 25  1  0
 25 26  1  0
 26 27  1  0
 27 28  1  0
 28 29  1  0
 29 30  1  0
 29 31  1  0
 31 32  1  0
 32 33  1  0
 33 34  1  0
 34 35  1  0
 35 36  1  0
 35 37  1  1
 35 38  1  0
 38 39  1  0
 39 40  1  0
 40 41  2  0
 40 42  1  0
 42 43  1  0
 43 44  1  0
 43 45  1  0
 38 46  1  0
 46 47  1  0
 46 48  1  0
 31 49  1  0
 49 50  1  0
 50 51  1  0
 49 52  1  0
 52 53  1  0
 52 54  1  0
  4 55  1  0
 55 56  1  0
 56 57  1  0
 56 58  2  0
 25  3  1  0
 50 27  1  0
 48 33  1  0
  1 59  1  0
  1 60  1  0
  1 61  1  0
  3 62  1  1
  4 63  1  6
  5 64  1  0
  5 65  1  0
  9 66  1  6
 10 67  1  0
 10 68  1  0
 10 69  1  0
 11 70  1  0
 11 71  1  0
 12 72  1  0
 13 73  1  0
 14 74  1  0
 15 75  1  0
 16 76  1  6
 17 77  1  0
 18 78  1  6
 19 79  1  0
 19 80  1  0
 19 81  1  0
 20 82  1  0
 20 83  1  0
 21 84  1  6
 22 85  1  0
 22 86  1  0
 23 87  1  0
 25 88  1  6
 27 89  1  6
 29 90  1  6
 30 91  1  0
 30 92  1  0
 30 93  1  0
 31 94  1  1
 33 95  1  1
 34 96  1  0
 34 97  1  0
 36 98  1  0
 36 99  1  0
 36100  1  0
 37101  1  0
 38102  1  1
 42103  1  0
 42104  1  0
 43105  1  0
 44106  1  0
 44107  1  0
 44108  1  0
 45109  1  0
 45110  1  0
 45111  1  0
 46112  1  6
 47113  1  0
 47114  1  0
 47115  1  0
 49116  1  6
 50117  1  1
 51118  1  0
 53119  1  0
 53120  1  0
 53121  1  0
 54122  1  0
 54123  1  0
 54124  1  0
 57125  1  0
 57126  1  0
 57127  1  0
M  END
$$$$
