
     RDKit          3D

 38 40  0  0  0  0  0  0  0  0999 V2000
   -4.1926   -0.5705    1.7010 C   0  0  0  0  0  0  0  0  0  0  0  0
   -3.2252    0.5567    1.5263 C   0  0  0  0  0  0  0  0  0  0  0  0
   -2.6696    0.4426    0.1840 N   0  0  0  0  0  0  0  0  0  0  0  0
   -3.1711    1.0268   -1.0134 C   0  0  0  0  0  0  0  0  0  0  0  0
   -4.3695    1.8646   -1.0810 C   0  0  0  0  0  0  0  0  0  0  0  0
   -2.2306    0.5032   -1.6310 O   0  0  0  0  0  0  0  0  0  0  0  0
   -1.4947   -0.3012   -0.1380 C   0  0  0  0  0  0  0  0  0  0  0  0
   -1.6438   -1.6303   -0.4822 C   0  0  0  0  0  0  0  0  0  0  0  0
   -0.5068   -2.3749   -0.8005 C   0  0  0  0  0  0  0  0  0  0  0  0
    0.7236   -1.7485   -0.7575 C   0  0  0  0  0  0  0  0  0  0  0  0
    0.8153   -0.4158   -0.4065 C   0  0  0  0  0  0  0  0  0  0  0  0
   -0.2773    0.3582   -0.0848 C   0  0  0  0  0  0  0  0  0  0  0  0
    2.1375    0.2087   -0.3735 C   0  0  0  0  0  0  0  0  0  0  0  0
    2.2651    1.4561   -0.9518 C   0  0  0  0  0  0  0  0  0  0  0  0
    3.5010    2.1080   -0.9542 C   0  0  0  0  0  0  0  0  0  0  0  0
    4.5374    1.4567   -0.3695 N   0  0  0  0  0  0  0  0  0  0  0  0
    4.3734    0.2324    0.1881 C   0  0  0  0  0  0  0  0  0  0  0  0
    5.2428   -0.6309    0.8339 C   0  0  0  0  0  0  0  0  0  0  0  0
    4.5695   -1.7779    1.2231 C   0  0  0  0  0  0  0  0  0  0  0  0
    3.2904   -1.5766    0.7966 N   0  0  0  0  0  0  0  0  0  0  0  0
    3.1886   -0.4105    0.1993 N   0  0  0  0  0  0  0  0  0  0  0  0
    6.6489   -0.4269    1.0944 C   0  0  0  0  0  0  0  0  0  0  0  0
    7.7797   -0.2567    1.2890 N   0  0  0  0  0  0  0  0  0  0  0  0
   -4.6685   -0.5730    2.7004 H   0  0  0  0  0  0  0  0  0  0  0  0
   -3.7102   -1.5465    1.4938 H   0  0  0  0  0  0  0  0  0  0  0  0
   -5.0030   -0.4452    0.9569 H   0  0  0  0  0  0  0  0  0  0  0  0
   -3.8176    1.5155    1.5643 H   0  0  0  0  0  0  0  0  0  0  0  0
   -2.4569    0.6437    2.2940 H   0  0  0  0  0  0  0  0  0  0  0  0
   -4.4606    2.2216   -2.1412 H   0  0  0  0  0  0  0  0  0  0  0  0
   -5.2679    1.3325   -0.7271 H   0  0  0  0  0  0  0  0  0  0  0  0
   -4.1695    2.7886   -0.4717 H   0  0  0  0  0  0  0  0  0  0  0  0
   -2.5619   -2.1598   -0.5310 H   0  0  0  0  0  0  0  0  0  0  0  0
   -0.5786   -3.4029   -1.0712 H   0  0  0  0  0  0  0  0  0  0  0  0
    1.6166   -2.3134   -1.0022 H   0  0  0  0  0  0  0  0  0  0  0  0
   -0.2526    1.3974    0.1938 H   0  0  0  0  0  0  0  0  0  0  0  0
    1.4192    1.9739   -1.4222 H   0  0  0  0  0  0  0  0  0  0  0  0
    3.6388    3.0962   -1.4030 H   0  0  0  0  0  0  0  0  0  0  0  0
    4.9809   -2.6218    1.7420 H   0  0  0  0  0  0  0  0  0  0  0  0
  1  2  1  0
  2  3  1  0
  3  4  1  0
  4  5  1  0
  4  6  2  0
  3  7  1  0
  7  8  2  0
  8  9  1  0
  9 10  2  0
 10 11  1  0
 11 12  2  0
 11 13  1  0
 13 14  2  0
 14 15  1  0
 15 16  2  0
 16 17  1  0
 17 18  2  0
 18 19  1  0
 19 20  2  0
 20 21  1  0
 18 22  1  0
 22 23  3  0
 12  7  1  0
 21 13  1  0
 21 17  1  0
  1 24  1  0
  1 25  1  0
  1 26  1  0
  2 27  1  0
  2 28  1  0
  5 29  1  0
  5 30  1  0
  5 31  1  0
  8 32  1  0
  9 33  1  0
 10 34  1  0
 12 35  1  0
 14 36  1  0
 15 37  1  0
 19 38  1  0
M  END
$$$$
