
     RDKit          3D

 54 56  0  0  0  0  0  0  0  0999 V2000
    6.8957    0.1565    1.3907 C   0  0  0  0  0  0  0  0  0  0  0  0
    5.6820    0.8354    1.5962 O   0  0  0  0  0  0  0  0  0  0  0  0
    4.4958    0.4810    0.9710 C   0  0  0  0  0  0  0  0  0  0  0  0
    4.4189   -0.5725    0.0946 C   0  0  0  0  0  0  0  0  0  0  0  0
    3.2148   -0.9415   -0.5476 C   0  0  0  0  0  0  0  0  0  0  0  0
    2.0797   -0.2446   -0.3028 C   0  0  0  0  0  0  0  0  0  0  0  0
    0.7843   -0.5876   -0.8658 C   0  0  0  0  0  0  0  0  0  0  0  0
   -0.1703    0.3037   -0.6175 N   0  0  0  0  0  0  0  0  0  0  0  0
   -1.4657    0.2115   -1.0579 N   0  0  0  0  0  0  0  0  0  0  0  0
   -2.4577    1.2012   -0.7340 C   0  0  0  0  0  0  0  0  0  0  0  0
   -3.1766    0.8660    0.5545 C   0  0  0  0  0  0  0  0  0  0  0  0
   -4.2040    1.9404    0.8410 C   0  0  0  0  0  0  0  0  0  0  0  0
   -4.9254    1.6041    2.1342 C   0  0  0  0  0  0  0  0  0  0  0  0
   -5.9620    2.6269    2.4850 C   0  0  0  0  0  0  0  0  0  0  0  0
   -5.2054    4.3854    2.7180 Br  0  0  0  0  0  0  0  0  0  0  0  0
   -1.8420   -0.9216   -1.8653 C   0  0  0  0  0  0  0  0  0  0  0  0
   -2.9469   -1.3675   -1.9573 O   0  0  0  0  0  0  0  0  0  0  0  0
   -0.6464   -1.5035   -2.6081 C   0  0  0  0  0  0  0  0  0  0  0  0
   -0.9841   -2.7165   -3.3834 C   0  0  0  0  0  0  0  0  0  0  0  0
   -0.7139   -4.0109   -2.7191 C   0  0  0  0  0  0  0  0  0  0  0  0
    0.3113   -4.1572   -1.9307 C   0  0  0  0  0  0  0  0  0  0  0  0
    1.2206   -2.9546   -1.7148 C   0  0  0  0  0  0  0  0  0  0  0  0
    0.3261   -1.8039   -1.5045 C   0  0  0  0  0  0  0  0  0  0  0  0
    2.1761    0.8336    0.5978 C   0  0  0  0  0  0  0  0  0  0  0  0
    3.3424    1.1928    1.2199 C   0  0  0  0  0  0  0  0  0  0  0  0
    3.4347    2.2560    2.1073 O   0  0  0  0  0  0  0  0  0  0  0  0
    2.2563    2.9963    2.3722 C   0  0  0  0  0  0  0  0  0  0  0  0
    6.9500   -0.7966    1.9469 H   0  0  0  0  0  0  0  0  0  0  0  0
    7.7791    0.7748    1.6254 H   0  0  0  0  0  0  0  0  0  0  0  0
    6.9552   -0.0336    0.2782 H   0  0  0  0  0  0  0  0  0  0  0  0
    5.2962   -1.1472   -0.1216 H   0  0  0  0  0  0  0  0  0  0  0  0
    3.2705   -1.7578   -1.2496 H   0  0  0  0  0  0  0  0  0  0  0  0
   -1.8990    2.1568   -0.5397 H   0  0  0  0  0  0  0  0  0  0  0  0
   -3.1717    1.3208   -1.5475 H   0  0  0  0  0  0  0  0  0  0  0  0
   -2.4428    0.8018    1.3932 H   0  0  0  0  0  0  0  0  0  0  0  0
   -3.7331   -0.0869    0.4199 H   0  0  0  0  0  0  0  0  0  0  0  0
   -3.7424    2.9282    0.8687 H   0  0  0  0  0  0  0  0  0  0  0  0
   -4.9707    1.8598    0.0294 H   0  0  0  0  0  0  0  0  0  0  0  0
   -5.4391    0.6247    2.0551 H   0  0  0  0  0  0  0  0  0  0  0  0
   -4.1878    1.5785    2.9647 H   0  0  0  0  0  0  0  0  0  0  0  0
   -6.7698    2.7059    1.7313 H   0  0  0  0  0  0  0  0  0  0  0  0
   -6.4315    2.3089    3.4375 H   0  0  0  0  0  0  0  0  0  0  0  0
   -0.2551   -0.7450   -3.3224 H   0  0  0  0  0  0  0  0  0  0  0  0
   -0.4134   -2.7754   -4.3638 H   0  0  0  0  0  0  0  0  0  0  0  0
   -2.0819   -2.6429   -3.6505 H   0  0  0  0  0  0  0  0  0  0  0  0
   -1.4111   -4.8301   -2.9216 H   0  0  0  0  0  0  0  0  0  0  0  0
    0.5164   -5.0873   -1.4473 H   0  0  0  0  0  0  0  0  0  0  0  0
    1.8658   -2.9404   -2.5957 H   0  0  0  0  0  0  0  0  0  0  0  0
    1.7350   -3.1670   -0.7437 H   0  0  0  0  0  0  0  0  0  0  0  0
   -0.4160   -2.2470   -0.6701 H   0  0  0  0  0  0  0  0  0  0  0  0
    1.3018    1.4205    0.8252 H   0  0  0  0  0  0  0  0  0  0  0  0
    1.8926    3.5277    1.4595 H   0  0  0  0  0  0  0  0  0  0  0  0
    1.4133    2.3538    2.6985 H   0  0  0  0  0  0  0  0  0  0  0  0
    2.4511    3.7857    3.1222 H   0  0  0  0  0  0  0  0  0  0  0  0
  1  2  1  0
  2  3  1  0
  3  4  2  0
  4  5  1  0
  5  6  2  0
  6  7  1  0
  7  8  2  0
  8  9  1  0
  9 10  1  0
 10 11  1  0
 11 12  1  0
 12 13  1  0
 13 14  1  0
 14 15  1  0
  9 16  1  0
 16 17  2  0
 16 18  1  0
 18 19  1  0
 19 20  1  0
 20 21  2  0
 21 22  1  0
 22 23  1  0
  6 24  1  0
 24 25  2  0
 25 26  1  0
 26 27  1  0
 25  3  1  0
 23  7  1  0
 23 18  1  0
  1 28  1  0
  1 29  1  0
  1 30  1  0
  4 31  1  0
  5 32  1  0
 10 33  1  0
 10 34  1  0
 11 35  1  0
 11 36  1  0
 12 37  1  0
 12 38  1  0
 13 39  1  0
 13 40  1  0
 14 41  1  0
 14 42  1  0
 18 43  1  0
 19 44  1  0
 19 45  1  0
 20 46  1  0
 21 47  1  0
 22 48  1  0
 22 49  1  0
 23 50  1  0
 24 51  1  0
 27 52  1  0
 27 53  1  0
 27 54  1  0
M  END
$$$$
