
     RDKit          3D

 51 55  0  0  0  0  0  0  0  0999 V2000
    7.1989    1.8365    1.9132 C   0  0  0  0  0  0  0  0  0  0  0  0
    6.0062    0.9559    1.8746 C   0  0  0  0  0  0  0  0  0  0  0  0
    5.5749    0.3953    3.0561 C   0  0  0  0  0  0  0  0  0  0  0  0
    4.4684   -0.4211    3.0073 C   0  0  0  0  0  0  0  0  0  0  0  0
    3.8398   -0.6438    1.7854 C   0  0  0  0  0  0  0  0  0  0  0  0
    4.2927   -0.0697    0.6194 C   0  0  0  0  0  0  0  0  0  0  0  0
    3.6674   -0.2745   -0.6927 C   0  0  0  0  0  0  0  0  0  0  0  0
    4.2883   -0.3601   -1.8870 N   0  0  0  0  0  0  0  0  0  0  0  0
    3.4288   -0.5452   -2.8381 N   0  0  0  0  0  0  0  0  0  0  0  0
    2.1983   -0.5831   -2.2499 C   0  0  0  0  0  0  0  0  0  0  0  0
    2.3569   -0.4163   -0.9416 N   0  0  0  0  0  0  0  0  0  0  0  0
    1.2314   -0.3935   -0.0201 C   0  0  0  0  0  0  0  0  0  0  0  0
    0.0117    0.1852   -0.7411 C   0  0  0  0  0  0  0  0  0  0  0  0
   -0.1931   -0.4156   -2.0148 N   0  0  0  0  0  0  0  0  0  0  0  0
   -1.5579   -0.6703   -2.4713 C   0  0  0  0  0  0  0  0  0  0  0  0
   -1.7348   -1.1970   -3.5905 O   0  0  0  0  0  0  0  0  0  0  0  0
   -2.6345   -0.2894   -1.5819 C   0  0  0  0  0  0  0  0  0  0  0  0
   -3.4760   -1.2630   -1.0909 C   0  0  0  0  0  0  0  0  0  0  0  0
   -4.5294   -0.9442   -0.2282 C   0  0  0  0  0  0  0  0  0  0  0  0
   -4.6910    0.3921    0.1119 C   0  0  0  0  0  0  0  0  0  0  0  0
   -5.7688    0.7841    1.0065 C   0  0  0  0  0  0  0  0  0  0  0  0
   -6.1436    1.9687    1.4998 C   0  0  0  0  0  0  0  0  0  0  0  0
   -7.1893    2.0653    2.3221 C   0  0  0  0  0  0  0  0  0  0  0  0
   -7.8579    0.8791    2.6322 C   0  0  0  0  0  0  0  0  0  0  0  0
   -6.9556   -0.3404    1.7265 S   0  0  0  0  0  0  0  0  0  0  0  0
   -3.8703    1.3834   -0.3604 C   0  0  0  0  0  0  0  0  0  0  0  0
   -2.8514    1.0116   -1.2050 C   0  0  0  0  0  0  0  0  0  0  0  0
    0.8934   -0.7837   -2.8743 C   0  0  2  0  0  0  0  0  0  0  0  0
    0.7610   -2.2496   -3.2852 C   0  0  0  0  0  0  0  0  0  0  0  0
    5.3779    0.7228    0.7075 N   0  0  0  0  0  0  0  0  0  0  0  0
    7.9214    1.4041    1.1655 H   0  0  0  0  0  0  0  0  0  0  0  0
    7.6775    1.8367    2.9047 H   0  0  0  0  0  0  0  0  0  0  0  0
    6.9891    2.8637    1.5350 H   0  0  0  0  0  0  0  0  0  0  0  0
    6.0740    0.5759    4.0100 H   0  0  0  0  0  0  0  0  0  0  0  0
    4.1280   -0.8597    3.9202 H   0  0  0  0  0  0  0  0  0  0  0  0
    2.9854   -1.2784    1.7585 H   0  0  0  0  0  0  0  0  0  0  0  0
    1.4092    0.2588    0.8343 H   0  0  0  0  0  0  0  0  0  0  0  0
    0.9431   -1.3933    0.3528 H   0  0  0  0  0  0  0  0  0  0  0  0
   -0.9111   -0.0056   -0.1192 H   0  0  0  0  0  0  0  0  0  0  0  0
    0.1000    1.2831   -0.8806 H   0  0  0  0  0  0  0  0  0  0  0  0
   -3.3584   -2.3122   -1.3499 H   0  0  0  0  0  0  0  0  0  0  0  0
   -5.1544   -1.7278    0.1274 H   0  0  0  0  0  0  0  0  0  0  0  0
   -5.5632    2.8913    1.2123 H   0  0  0  0  0  0  0  0  0  0  0  0
   -7.5584    3.0314    2.7734 H   0  0  0  0  0  0  0  0  0  0  0  0
   -8.7437    0.7285    3.2883 H   0  0  0  0  0  0  0  0  0  0  0  0
   -4.0317    2.4025   -0.0719 H   0  0  0  0  0  0  0  0  0  0  0  0
   -2.1943    1.7756   -1.5878 H   0  0  0  0  0  0  0  0  0  0  0  0
    0.8278   -0.2207   -3.8468 H   0  0  0  0  0  0  0  0  0  0  0  0
    0.1846   -2.3698   -4.2168 H   0  0  0  0  0  0  0  0  0  0  0  0
    0.3382   -2.8682   -2.4895 H   0  0  0  0  0  0  0  0  0  0  0  0
    1.7942   -2.6086   -3.5092 H   0  0  0  0  0  0  0  0  0  0  0  0
  1  2  1  0
  2  3  2  0
  3  4  1  0
  4  5  2  0
  5  6  1  0
  6  7  1  0
  7  8  2  0
  8  9  1  0
  9 10  2  0
 10 11  1  0
 11 12  1  0
 12 13  1  0
 13 14  1  0
 14 15  1  0
 15 16  2  0
 15 17  1  0
 17 18  2  0
 18 19  1  0
 19 20  2  0
 20 21  1  0
 21 22  2  0
 22 23  1  0
 23 24  2  0
 24 25  1  0
 20 26  1  0
 26 27  2  0
 14 28  1  0
 28 29  1  0
  6 30  2  0
 30  2  1  0
 11  7  1  0
 27 17  1  0
 28 10  1  0
 25 21  1  0
  1 31  1  0
  1 32  1  0
  1 33  1  0
  3 34  1  0
  4 35  1  0
  5 36  1  0
 12 37  1  0
 12 38  1  0
 13 39  1  0
 13 40  1  0
 18 41  1  0
 19 42  1  0
 22 43  1  0
 23 44  1  0
 24 45  1  0
 26 46  1  0
 27 47  1  0
 28 48  1  6
 29 49  1  0
 29 50  1  0
 29 51  1  0
M  END
$$$$
