
     RDKit          3D

 70 75  0  0  0  0  0  0  0  0999 V2000
   -1.2055    7.8946    1.5363 C   0  0  0  0  0  0  0  0  0  0  0  0
   -0.6403    6.6087    1.6478 O   0  0  0  0  0  0  0  0  0  0  0  0
   -1.0008    5.6044    0.7679 C   0  0  0  0  0  0  0  0  0  0  0  0
   -0.4591    4.3413    0.8617 C   0  0  0  0  0  0  0  0  0  0  0  0
   -0.8418    3.3666   -0.0318 C   0  0  0  0  0  0  0  0  0  0  0  0
   -0.3397    2.0515   -0.0097 N   0  0  0  0  0  0  0  0  0  0  0  0
    0.8318    1.6348   -0.7403 C   0  0  0  0  0  0  0  0  0  0  0  0
    1.3368    2.1915   -1.7570 O   0  0  0  0  0  0  0  0  0  0  0  0
    1.3498    0.4642   -0.1233 N   0  0  0  0  0  0  0  0  0  0  0  0
    2.4959   -0.2948   -0.5035 C   0  0  0  0  0  0  0  0  0  0  0  0
    3.7138    0.0448    0.0322 C   0  0  0  0  0  0  0  0  0  0  0  0
    4.8756   -0.6414   -0.2818 C   0  0  0  0  0  0  0  0  0  0  0  0
    4.7513   -1.6908   -1.1650 C   0  0  0  0  0  0  0  0  0  0  0  0
    5.9786   -2.4790   -1.5378 C   0  0  0  0  0  0  0  0  0  0  0  0
    6.0362   -3.0333   -2.8135 C   0  0  0  0  0  0  0  0  0  0  0  0
    7.6488   -3.8666   -2.7940 S   0  0  0  0  0  0  0  0  0  0  0  0
    8.0845   -3.4033   -1.1128 C   0  0  0  0  0  0  0  0  0  0  0  0
    9.3007   -3.7597   -0.4360 C   0  0  0  0  0  0  0  0  0  0  0  0
   10.1668   -4.4488   -1.0115 O   0  0  0  0  0  0  0  0  0  0  0  0
    9.5248   -3.3438    0.8598 O   0  0  0  0  0  0  0  0  0  0  0  0
    7.0064   -2.6804   -0.7225 C   0  0  0  0  0  0  0  0  0  0  0  0
    3.5386   -2.0422   -1.7090 C   0  0  0  0  0  0  0  0  0  0  0  0
    2.3838   -1.3404   -1.3811 C   0  0  0  0  0  0  0  0  0  0  0  0
    0.4909    0.1813    0.9733 C   0  0  0  0  0  0  0  0  0  0  0  0
    0.7649   -0.5131    1.9959 O   0  0  0  0  0  0  0  0  0  0  0  0
   -0.7868    0.8698    0.6635 C   0  0  0  0  0  0  0  0  0  0  0  0
   -1.5270    1.1133    1.9371 C   0  0  0  0  0  0  0  0  0  0  0  0
   -2.4794    0.0209    2.3115 C   0  0  0  0  0  0  0  0  0  0  0  0
   -3.2342   -0.5575    1.2636 N   0  0  0  0  0  0  0  0  0  0  0  0
   -3.2301   -2.0037    1.2432 C   0  0  0  0  0  0  0  0  0  0  0  0
   -4.0704   -2.4155    0.0989 C   0  0  0  0  0  0  0  0  0  0  0  0
   -3.4748   -2.8508   -1.0181 N   0  0  0  0  0  0  0  0  0  0  0  0
   -4.1708   -3.2410   -2.1014 C   0  0  0  0  0  0  0  0  0  0  0  0
   -5.5473   -3.1883   -2.0531 C   0  0  0  0  0  0  0  0  0  0  0  0
   -6.1958   -2.7381   -0.8996 C   0  0  0  0  0  0  0  0  0  0  0  0
   -5.4312   -2.3516    0.1786 C   0  0  0  0  0  0  0  0  0  0  0  0
   -6.0685   -1.8676    1.4219 C   0  0  0  0  0  0  0  0  0  0  0  0
   -3.0297    0.0338   -0.0134 C   0  0  0  0  0  0  0  0  0  0  0  0
   -1.5458    0.0135   -0.3153 C   0  0  0  0  0  0  0  0  0  0  0  0
   -1.7422    3.6978   -0.9711 N   0  0  0  0  0  0  0  0  0  0  0  0
   -2.2751    4.9187   -1.0728 C   0  0  0  0  0  0  0  0  0  0  0  0
   -1.9036    5.8637   -0.2060 N   0  0  0  0  0  0  0  0  0  0  0  0
   -1.3629    8.3144    2.5543 H   0  0  0  0  0  0  0  0  0  0  0  0
   -0.5300    8.5087    0.9168 H   0  0  0  0  0  0  0  0  0  0  0  0
   -2.1926    7.7733    1.0079 H   0  0  0  0  0  0  0  0  0  0  0  0
    0.2579    4.1591    1.6463 H   0  0  0  0  0  0  0  0  0  0  0  0
    3.7406    0.8949    0.7325 H   0  0  0  0  0  0  0  0  0  0  0  0
    5.8210   -0.3478    0.1582 H   0  0  0  0  0  0  0  0  0  0  0  0
    5.3484   -3.0118   -3.6336 H   0  0  0  0  0  0  0  0  0  0  0  0
   10.0848   -3.8884    1.5266 H   0  0  0  0  0  0  0  0  0  0  0  0
    7.0042   -2.2476    0.3276 H   0  0  0  0  0  0  0  0  0  0  0  0
    3.4261   -2.8769   -2.4139 H   0  0  0  0  0  0  0  0  0  0  0  0
    1.4335   -1.6052   -1.7996 H   0  0  0  0  0  0  0  0  0  0  0  0
   -2.0924    2.0655    1.8763 H   0  0  0  0  0  0  0  0  0  0  0  0
   -0.7899    1.2286    2.7601 H   0  0  0  0  0  0  0  0  0  0  0  0
   -1.8663   -0.8025    2.7828 H   0  0  0  0  0  0  0  0  0  0  0  0
   -3.1689    0.3522    3.1100 H   0  0  0  0  0  0  0  0  0  0  0  0
   -2.2405   -2.4401    1.1294 H   0  0  0  0  0  0  0  0  0  0  0  0
   -3.6573   -2.4250    2.1856 H   0  0  0  0  0  0  0  0  0  0  0  0
   -3.6965   -3.5933   -3.0061 H   0  0  0  0  0  0  0  0  0  0  0  0
   -6.1065   -3.5040   -2.9290 H   0  0  0  0  0  0  0  0  0  0  0  0
   -7.2574   -2.7140   -0.9067 H   0  0  0  0  0  0  0  0  0  0  0  0
   -7.1802   -2.0499    1.3960 H   0  0  0  0  0  0  0  0  0  0  0  0
   -5.6867   -2.3549    2.3361 H   0  0  0  0  0  0  0  0  0  0  0  0
   -5.9613   -0.7582    1.4393 H   0  0  0  0  0  0  0  0  0  0  0  0
   -3.5684   -0.4827   -0.8075 H   0  0  0  0  0  0  0  0  0  0  0  0
   -3.3037    1.1197    0.0686 H   0  0  0  0  0  0  0  0  0  0  0  0
   -1.1447   -1.0085   -0.2844 H   0  0  0  0  0  0  0  0  0  0  0  0
   -1.3997    0.3948   -1.3457 H   0  0  0  0  0  0  0  0  0  0  0  0
   -2.9912    5.1361   -1.8399 H   0  0  0  0  0  0  0  0  0  0  0  0
  1  2  1  0
  2  3  1  0
  3  4  2  0
  4  5  1  0
  5  6  1  0
  6  7  1  0
  7  8  2  0
  7  9  1  0
  9 10  1  0
 10 11  2  0
 11 12  1  0
 12 13  2  0
 13 14  1  0
 14 15  2  0
 15 16  1  0
 16 17  1  0
 17 18  1  0
 18 19  2  0
 18 20  1  0
 17 21  2  0
 13 22  1  0
 22 23  2  0
  9 24  1  0
 24 25  2  0
 24 26  1  0
 26 27  1  0
 27 28  1  0
 28 29  1  0
 29 30  1  0
 30 31  1  0
 31 32  2  0
 32 33  1  0
 33 34  2  0
 34 35  1  0
 35 36  2  0
 36 37  1  0
 29 38  1  0
 38 39  1  0
  5 40  2  0
 40 41  1  0
 41 42  2  0
 42  3  1  0
 26  6  1  0
 36 31  1  0
 23 10  1  0
 39 26  1  0
 21 14  1  0
  1 43  1  0
  1 44  1  0
  1 45  1  0
  4 46  1  0
 11 47  1  0
 12 48  1  0
 15 49  1  0
 20 50  1  0
 21 51  1  0
 22 52  1  0
 23 53  1  0
 27 54  1  0
 27 55  1  0
 28 56  1  0
 28 57  1  0
 30 58  1  0
 30 59  1  0
 33 60  1  0
 34 61  1  0
 35 62  1  0
 37 63  1  0
 37 64  1  0
 37 65  1  0
 38 66  1  0
 38 67  1  0
 39 68  1  0
 39 69  1  0
 41 70  1  0
M  END
$$$$
