
     RDKit          3D

 60 65  0  0  0  0  0  0  0  0999 V2000
   -5.2648    3.4517    1.6025 C   0  0  0  0  0  0  0  0  0  0  0  0
   -5.8406    2.6795    0.4767 C   0  0  0  0  0  0  0  0  0  0  0  0
   -6.9898    2.9354   -0.1739 N   0  0  0  0  0  0  0  0  0  0  0  0
   -7.1827    2.0340   -1.1233 N   0  0  0  0  0  0  0  0  0  0  0  0
   -6.1396    1.1615   -1.1024 C   0  0  0  0  0  0  0  0  0  0  0  0
   -5.8190    0.0453   -1.8510 C   0  0  0  0  0  0  0  0  0  0  0  0
   -4.6578   -0.6309   -1.5652 C   0  0  0  0  0  0  0  0  0  0  0  0
   -3.7995   -0.2255   -0.5484 C   0  0  0  0  0  0  0  0  0  0  0  0
   -2.5972   -1.0056   -0.3258 C   0  0  0  0  0  0  0  0  0  0  0  0
   -1.3318   -0.4895   -0.4845 C   0  0  0  0  0  0  0  0  0  0  0  0
   -0.2282   -1.2883   -0.2589 C   0  0  0  0  0  0  0  0  0  0  0  0
    1.0122   -0.7063   -0.4361 O   0  0  0  0  0  0  0  0  0  0  0  0
    2.2395   -1.3824   -0.2480 C   0  0  0  0  0  0  0  0  0  0  0  0
    3.3309   -0.3679   -0.5445 C   0  0  1  0  0  0  0  0  0  0  0  0
    3.1626    0.7198    0.3873 N   0  0  0  0  0  0  0  0  0  0  0  0
    4.7005   -0.9627   -0.3886 C   0  0  0  0  0  0  0  0  0  0  0  0
    5.8139   -0.0540   -0.6485 C   0  0  0  0  0  0  0  0  0  0  0  0
    6.4826   -0.0154   -1.8786 C   0  0  0  0  0  0  0  0  0  0  0  0
    7.4293    0.9307   -1.8296 N   0  0  0  0  0  0  0  0  0  0  0  0
    7.3937    1.5033   -0.6089 C   0  0  0  0  0  0  0  0  0  0  0  0
    8.1532    2.5241   -0.0260 C   0  0  0  0  0  0  0  0  0  0  0  0
    7.9205    2.9321    1.2699 C   0  0  0  0  0  0  0  0  0  0  0  0
    6.9185    2.3074    1.9793 C   0  0  0  0  0  0  0  0  0  0  0  0
    6.1474    1.2959    1.4372 C   0  0  0  0  0  0  0  0  0  0  0  0
    6.4010    0.9069    0.1356 C   0  0  0  0  0  0  0  0  0  0  0  0
   -0.4198   -2.5861    0.1205 C   0  0  0  0  0  0  0  0  0  0  0  0
   -1.6448   -3.0709    0.2698 N   0  0  0  0  0  0  0  0  0  0  0  0
   -2.7484   -2.3223    0.0590 C   0  0  0  0  0  0  0  0  0  0  0  0
   -4.0584   -2.9118    0.2444 C   0  0  0  0  0  0  0  0  0  0  0  0
   -4.6357   -3.9630   -0.4286 C   0  0  0  0  0  0  0  0  0  0  0  0
   -5.8950   -4.1215    0.1412 C   0  0  0  0  0  0  0  0  0  0  0  0
   -6.0523   -3.2387    1.0744 O   0  0  0  0  0  0  0  0  0  0  0  0
   -4.9818   -2.4938    1.1718 C   0  0  0  0  0  0  0  0  0  0  0  0
   -4.1279    0.8842    0.1884 C   0  0  0  0  0  0  0  0  0  0  0  0
   -5.2975    1.5582   -0.1057 C   0  0  0  0  0  0  0  0  0  0  0  0
   -5.2564    4.5150    1.3040 H   0  0  0  0  0  0  0  0  0  0  0  0
   -5.9300    3.3513    2.4933 H   0  0  0  0  0  0  0  0  0  0  0  0
   -4.2416    3.0725    1.8182 H   0  0  0  0  0  0  0  0  0  0  0  0
   -7.9641    1.9357   -1.8079 H   0  0  0  0  0  0  0  0  0  0  0  0
   -6.4609   -0.2950   -2.6454 H   0  0  0  0  0  0  0  0  0  0  0  0
   -4.4011   -1.5058   -2.1481 H   0  0  0  0  0  0  0  0  0  0  0  0
   -1.2543    0.5446   -0.7870 H   0  0  0  0  0  0  0  0  0  0  0  0
    2.3411   -1.7562    0.8001 H   0  0  0  0  0  0  0  0  0  0  0  0
    2.2618   -2.2319   -0.9522 H   0  0  0  0  0  0  0  0  0  0  0  0
    3.1398   -0.0420   -1.6007 H   0  0  0  0  0  0  0  0  0  0  0  0
    2.6657    1.5359    0.0035 H   0  0  0  0  0  0  0  0  0  0  0  0
    2.8361    0.4149    1.3204 H   0  0  0  0  0  0  0  0  0  0  0  0
    4.8500   -1.4096    0.6206 H   0  0  0  0  0  0  0  0  0  0  0  0
    4.7570   -1.8176   -1.0937 H   0  0  0  0  0  0  0  0  0  0  0  0
    6.3056   -0.6242   -2.7541 H   0  0  0  0  0  0  0  0  0  0  0  0
    8.1098    1.2220   -2.5758 H   0  0  0  0  0  0  0  0  0  0  0  0
    8.9379    2.9845   -0.6367 H   0  0  0  0  0  0  0  0  0  0  0  0
    8.5254    3.7293    1.7021 H   0  0  0  0  0  0  0  0  0  0  0  0
    6.7295    2.6230    3.0010 H   0  0  0  0  0  0  0  0  0  0  0  0
    5.3796    0.8032    1.9786 H   0  0  0  0  0  0  0  0  0  0  0  0
    0.4584   -3.2003    0.2936 H   0  0  0  0  0  0  0  0  0  0  0  0
   -4.1967   -4.5446   -1.2346 H   0  0  0  0  0  0  0  0  0  0  0  0
   -6.6242   -4.8726   -0.1577 H   0  0  0  0  0  0  0  0  0  0  0  0
   -4.8826   -1.6877    1.8841 H   0  0  0  0  0  0  0  0  0  0  0  0
   -3.4789    1.2223    0.9860 H   0  0  0  0  0  0  0  0  0  0  0  0
  1  2  1  0
  2  3  2  0
  3  4  1  0
  4  5  1  0
  5  6  2  0
  6  7  1  0
  7  8  2  0
  8  9  1  0
  9 10  2  0
 10 11  1  0
 11 12  1  0
 12 13  1  0
 13 14  1  0
 14 15  1  0
 14 16  1  0
 16 17  1  0
 17 18  2  0
 18 19  1  0
 19 20  1  0
 20 21  2  0
 21 22  1  0
 22 23  2  0
 23 24  1  0
 24 25  2  0
 11 26  2  0
 26 27  1  0
 27 28  2  0
 28 29  1  0
 29 30  1  0
 30 31  2  0
 31 32  1  0
 32 33  1  0
  8 34  1  0
 34 35  2  0
 35  2  1  0
 35  5  1  0
 28  9  1  0
 33 29  2  0
 25 17  1  0
 25 20  1  0
  1 36  1  0
  1 37  1  0
  1 38  1  0
  4 39  1  0
  6 40  1  0
  7 41  1  0
 10 42  1  0
 13 43  1  0
 13 44  1  0
 14 45  1  6
 15 46  1  0
 15 47  1  0
 16 48  1  0
 16 49  1  0
 18 50  1  0
 19 51  1  0
 21 52  1  0
 22 53  1  0
 23 54  1  0
 24 55  1  0
 26 56  1  0
 30 57  1  0
 31 58  1  0
 33 59  1  0
 34 60  1  0
M  END
$$$$
