
     RDKit          3D

 51 51  0  0  0  0  0  0  0  0999 V2000
    6.1913   -0.0749   -1.2673 C   0  0  0  0  0  0  0  0  0  0  0  0
    6.1091    0.5581    0.0680 C   0  0  0  0  0  0  0  0  0  0  0  0
    5.1737   -0.0150    1.0656 C   0  0  0  0  0  0  0  0  0  0  0  0
    3.7108    0.0160    0.7902 C   0  0  0  0  0  0  0  0  0  0  0  0
    3.3406   -0.7106   -0.4400 C   0  0  0  0  0  0  0  0  0  0  0  0
    1.8341   -0.7446   -0.7253 C   0  0  0  0  0  0  0  0  0  0  0  0
    1.1421   -1.4257    0.3806 C   0  0  0  0  0  0  0  0  0  0  0  0
   -0.3433   -1.5302    0.1231 C   0  0  0  0  0  0  0  0  0  0  0  0
   -0.9430   -0.1845    0.0115 C   0  0  0  0  0  0  0  0  0  0  0  0
   -2.3687   -0.1423   -0.2209 N   0  0  0  0  0  0  0  0  0  0  0  0
   -3.0452   -0.5988    0.9480 C   0  0  0  0  0  0  0  0  0  0  0  0
   -4.5020   -0.9673    0.7189 C   0  0  2  0  0  0  0  0  0  0  0  0
   -4.5296   -2.2940    0.2954 O   0  0  0  0  0  0  0  0  0  0  0  0
   -4.9729   -0.1290   -0.4699 C   0  0  1  0  0  0  0  0  0  0  0  0
   -6.3422   -0.0799   -0.4896 O   0  0  0  0  0  0  0  0  0  0  0  0
   -4.3330    1.2147   -0.3025 C   0  0  2  0  0  0  0  0  0  0  0  0
   -4.9220    2.1835   -1.1270 O   0  0  0  0  0  0  0  0  0  0  0  0
   -2.8632    1.1070   -0.6481 C   0  0  1  0  0  0  0  0  0  0  0  0
   -2.2054    2.3192   -0.0462 C   0  0  0  0  0  0  0  0  0  0  0  0
   -2.3315    2.3462    1.3414 O   0  0  0  0  0  0  0  0  0  0  0  0
    7.3081   -0.1349   -1.5488 H   0  0  0  0  0  0  0  0  0  0  0  0
    5.8356   -1.1149   -1.2564 H   0  0  0  0  0  0  0  0  0  0  0  0
    5.7881    0.5133   -2.1156 H   0  0  0  0  0  0  0  0  0  0  0  0
    7.1413    0.4788    0.5481 H   0  0  0  0  0  0  0  0  0  0  0  0
    5.9637    1.6838   -0.0330 H   0  0  0  0  0  0  0  0  0  0  0  0
    5.4226   -1.0931    1.2976 H   0  0  0  0  0  0  0  0  0  0  0  0
    5.3208    0.4920    2.0763 H   0  0  0  0  0  0  0  0  0  0  0  0
    3.1965   -0.4950    1.6543 H   0  0  0  0  0  0  0  0  0  0  0  0
    3.3203    1.0774    0.7911 H   0  0  0  0  0  0  0  0  0  0  0  0
    3.7425   -0.1751   -1.3609 H   0  0  0  0  0  0  0  0  0  0  0  0
    3.6792   -1.7576   -0.3812 H   0  0  0  0  0  0  0  0  0  0  0  0
    1.7459   -1.4068   -1.6370 H   0  0  0  0  0  0  0  0  0  0  0  0
    1.4798    0.2485   -1.0090 H   0  0  0  0  0  0  0  0  0  0  0  0
    1.3259   -0.9825    1.3891 H   0  0  0  0  0  0  0  0  0  0  0  0
    1.5952   -2.4630    0.4712 H   0  0  0  0  0  0  0  0  0  0  0  0
   -0.5272   -2.0924   -0.8448 H   0  0  0  0  0  0  0  0  0  0  0  0
   -0.7230   -2.1691    0.9473 H   0  0  0  0  0  0  0  0  0  0  0  0
   -0.7699    0.3410    0.9954 H   0  0  0  0  0  0  0  0  0  0  0  0
   -0.3854    0.4164   -0.7168 H   0  0  0  0  0  0  0  0  0  0  0  0
   -3.0732    0.1771    1.7623 H   0  0  0  0  0  0  0  0  0  0  0  0
   -2.5662   -1.5317    1.3069 H   0  0  0  0  0  0  0  0  0  0  0  0
   -5.1302   -0.7930    1.6093 H   0  0  0  0  0  0  0  0  0  0  0  0
   -4.0128   -2.3305   -0.5657 H   0  0  0  0  0  0  0  0  0  0  0  0
   -4.5922   -0.6283   -1.3826 H   0  0  0  0  0  0  0  0  0  0  0  0
   -6.7171   -0.6596    0.2349 H   0  0  0  0  0  0  0  0  0  0  0  0
   -4.4401    1.5455    0.7670 H   0  0  0  0  0  0  0  0  0  0  0  0
   -4.8180    1.8419   -2.0670 H   0  0  0  0  0  0  0  0  0  0  0  0
   -2.7975    1.1694   -1.7541 H   0  0  0  0  0  0  0  0  0  0  0  0
   -1.1609    2.4728   -0.3640 H   0  0  0  0  0  0  0  0  0  0  0  0
   -2.7730    3.2128   -0.4266 H   0  0  0  0  0  0  0  0  0  0  0  0
   -2.1782    3.3092    1.6067 H   0  0  0  0  0  0  0  0  0  0  0  0
  1  2  1  0
  2  3  1  0
  3  4  1  0
  4  5  1  0
  5  6  1  0
  6  7  1  0
  7  8  1  0
  8  9  1  0
  9 10  1  0
 10 11  1  0
 11 12  1  0
 12 13  1  0
 12 14  1  0
 14 15  1  0
 14 16  1  0
 16 17  1  0
 16 18  1  0
 18 19  1  0
 19 20  1  0
 18 10  1  0
  1 21  1  0
  1 22  1  0
  1 23  1  0
  2 24  1  0
  2 25  1  0
  3 26  1  0
  3 27  1  0
  4 28  1  0
  4 29  1  0
  5 30  1  0
  5 31  1  0
  6 32  1  0
  6 33  1  0
  7 34  1  0
  7 35  1  0
  8 36  1  0
  8 37  1  0
  9 38  1  0
  9 39  1  0
 11 40  1  0
 11 41  1  0
 12 42  1  1
 13 43  1  0
 14 44  1  6
 15 45  1  0
 16 46  1  1
 17 47  1  0
 18 48  1  6
 19 49  1  0
 19 50  1  0
 20 51  1  0
M  END
$$$$
