
     RDKit          3D

 40 42  0  0  0  0  0  0  0  0999 V2000
   -2.2812   -2.7763   -0.3270 C   0  0  0  0  0  0  0  0  0  0  0  0
   -2.7376   -1.3915    0.0677 C   0  0  0  0  0  0  0  0  0  0  0  0
   -4.0108   -0.9947   -0.6520 C   0  0  0  0  0  0  0  0  0  0  0  0
   -3.8563    0.4823   -0.7313 C   0  0  0  0  0  0  0  0  0  0  0  0
   -4.7651    1.5204   -0.9512 C   0  0  0  0  0  0  0  0  0  0  0  0
   -4.3927    2.8355   -0.9840 C   0  0  0  0  0  0  0  0  0  0  0  0
   -3.0661    3.1807   -0.7944 C   0  0  0  0  0  0  0  0  0  0  0  0
   -2.1232    2.1766   -0.5715 C   0  0  0  0  0  0  0  0  0  0  0  0
   -2.5401    0.8540   -0.5453 C   0  0  0  0  0  0  0  0  0  0  0  0
   -1.8270   -0.3607   -0.3445 N   0  0  0  0  0  0  0  0  0  0  0  0
   -0.4303   -0.4732   -0.5382 N   0  0  0  0  0  0  0  0  0  0  0  0
    0.2101   -0.1764    0.6832 C   0  0  0  0  0  0  0  0  0  0  0  0
   -0.6259    0.1059    1.6080 O   0  0  0  0  0  0  0  0  0  0  0  0
    1.6703   -0.1846    0.8920 C   0  0  0  0  0  0  0  0  0  0  0  0
    2.5427   -0.4872   -0.1036 C   0  0  0  0  0  0  0  0  0  0  0  0
    3.8910   -0.4666    0.1954 C   0  0  0  0  0  0  0  0  0  0  0  0
    4.3628   -0.1531    1.4526 C   0  0  0  0  0  0  0  0  0  0  0  0
    6.0613   -0.1129    1.8824 Cl  0  0  0  0  0  0  0  0  0  0  0  0
    3.4474    0.1492    2.4398 C   0  0  0  0  0  0  0  0  0  0  0  0
    2.0961    0.1350    2.1646 C   0  0  0  0  0  0  0  0  0  0  0  0
    5.0729   -0.8417   -1.0223 S   0  0  0  0  0  0  0  0  0  0  0  0
    6.1324    0.5238   -1.2515 N   0  0  0  0  0  0  0  0  0  0  0  0
    4.4339   -1.1428   -2.3480 O   0  0  0  0  0  0  0  0  0  0  0  0
    5.9362   -1.9737   -0.5331 O   0  0  0  0  0  0  0  0  0  0  0  0
   -3.1512   -3.4617   -0.3612 H   0  0  0  0  0  0  0  0  0  0  0  0
   -1.7401   -2.6947   -1.2747 H   0  0  0  0  0  0  0  0  0  0  0  0
   -1.5984   -3.1444    0.4503 H   0  0  0  0  0  0  0  0  0  0  0  0
   -2.9680   -1.3171    1.1485 H   0  0  0  0  0  0  0  0  0  0  0  0
   -4.0544   -1.3964   -1.6853 H   0  0  0  0  0  0  0  0  0  0  0  0
   -4.9216   -1.2578   -0.0764 H   0  0  0  0  0  0  0  0  0  0  0  0
   -5.8157    1.3198   -1.1065 H   0  0  0  0  0  0  0  0  0  0  0  0
   -5.1056    3.6237   -1.1547 H   0  0  0  0  0  0  0  0  0  0  0  0
   -2.6796    4.2081   -0.8046 H   0  0  0  0  0  0  0  0  0  0  0  0
   -1.0626    2.3933   -0.4157 H   0  0  0  0  0  0  0  0  0  0  0  0
    0.1864   -0.7209   -1.3687 H   0  0  0  0  0  0  0  0  0  0  0  0
    2.2073   -0.7329   -1.0831 H   0  0  0  0  0  0  0  0  0  0  0  0
    3.7369    0.4081    3.4616 H   0  0  0  0  0  0  0  0  0  0  0  0
    1.3858    0.3754    2.9525 H   0  0  0  0  0  0  0  0  0  0  0  0
    5.5544    1.3935   -1.2124 H   0  0  0  0  0  0  0  0  0  0  0  0
    6.8257    0.5761   -0.4544 H   0  0  0  0  0  0  0  0  0  0  0  0
  1  2  1  0
  2  3  1  0
  3  4  1  0
  4  5  2  0
  5  6  1  0
  6  7  2  0
  7  8  1  0
  8  9  2  0
  9 10  1  0
 10 11  1  0
 11 12  1  0
 12 13  2  0
 12 14  1  0
 14 15  2  0
 15 16  1  0
 16 17  2  0
 17 18  1  0
 17 19  1  0
 19 20  2  0
 16 21  1  0
 21 22  1  0
 21 23  2  0
 21 24  2  0
 10  2  1  0
 20 14  1  0
  9  4  1  0
  1 25  1  0
  1 26  1  0
  1 27  1  0
  2 28  1  0
  3 29  1  0
  3 30  1  0
  5 31  1  0
  6 32  1  0
  7 33  1  0
  8 34  1  0
 11 35  1  0
 15 36  1  0
 19 37  1  0
 20 38  1  0
 22 39  1  0
 22 40  1  0
M  END
$$$$
