
     RDKit          3D

 43 45  0  0  0  0  0  0  0  0999 V2000
   -5.4524    0.4970   -0.6948 C   0  0  0  0  0  0  0  0  0  0  0  0
   -4.6209    0.2014    0.5217 C   0  0  0  0  0  0  0  0  0  0  0  0
   -4.1433   -1.2280    0.5518 C   0  0  0  0  0  0  0  0  0  0  0  0
   -3.1431   -1.6215   -0.8598 S   0  0  0  0  0  6  0  0  0  0  0  0
   -3.9277   -1.4933   -2.1159 O   0  0  0  0  0  0  0  0  0  0  0  0
   -2.6952   -3.0501   -0.7149 O   0  0  0  0  0  0  0  0  0  0  0  0
   -1.7372   -0.6057   -0.9301 N   0  0  0  0  0  0  0  0  0  0  0  0
   -0.9251   -0.8037    0.2242 C   0  0  1  0  0  0  0  0  0  0  0  0
    0.5789   -0.9393   -0.0562 C   0  0  0  0  0  0  0  0  0  0  0  0
    0.8050   -0.1826    1.2156 C   0  0  1  0  0  0  0  0  0  0  0  0
    1.8547    0.7859    1.2165 N   0  0  0  0  0  0  0  0  0  0  0  0
    2.0806    1.5321    2.4479 C   0  0  0  0  0  0  0  0  0  0  0  0
    2.7009    1.0875    0.1237 C   0  0  0  0  0  0  0  0  0  0  0  0
    2.7099    2.3324   -0.3769 N   0  0  0  0  0  0  0  0  0  0  0  0
    3.5000    2.6812   -1.4257 C   0  0  0  0  0  0  0  0  0  0  0  0
    4.3079    1.7672   -1.9976 N   0  0  0  0  0  0  0  0  0  0  0  0
    4.3482    0.5062   -1.5475 C   0  0  0  0  0  0  0  0  0  0  0  0
    5.0695   -0.5388   -1.9672 N   0  0  0  0  0  0  0  0  0  0  0  0
    4.7313   -1.5804   -1.1664 C   0  0  0  0  0  0  0  0  0  0  0  0
    3.7778   -1.1543   -0.2348 C   0  0  0  0  0  0  0  0  0  0  0  0
    3.5364    0.1737   -0.4801 C   0  0  0  0  0  0  0  0  0  0  0  0
   -0.5523    0.4761    0.9846 C   0  0  0  0  0  0  0  0  0  0  0  0
   -6.2939    1.1932   -0.4431 H   0  0  0  0  0  0  0  0  0  0  0  0
   -4.8139    0.9803   -1.4505 H   0  0  0  0  0  0  0  0  0  0  0  0
   -5.9319   -0.4401   -1.0516 H   0  0  0  0  0  0  0  0  0  0  0  0
   -3.7852    0.9095    0.5598 H   0  0  0  0  0  0  0  0  0  0  0  0
   -5.2385    0.3540    1.4306 H   0  0  0  0  0  0  0  0  0  0  0  0
   -3.5552   -1.3884    1.4575 H   0  0  0  0  0  0  0  0  0  0  0  0
   -5.0189   -1.9051    0.5235 H   0  0  0  0  0  0  0  0  0  0  0  0
   -1.9950    0.3777   -1.1207 H   0  0  0  0  0  0  0  0  0  0  0  0
   -1.3258   -1.5405    0.9254 H   0  0  0  0  0  0  0  0  0  0  0  0
    0.8413   -2.0081    0.0072 H   0  0  0  0  0  0  0  0  0  0  0  0
    0.8637   -0.4335   -0.9886 H   0  0  0  0  0  0  0  0  0  0  0  0
    0.7904   -0.8798    2.0899 H   0  0  0  0  0  0  0  0  0  0  0  0
    1.4855    1.1539    3.2853 H   0  0  0  0  0  0  0  0  0  0  0  0
    1.8598    2.6092    2.3275 H   0  0  0  0  0  0  0  0  0  0  0  0
    3.1475    1.4604    2.7526 H   0  0  0  0  0  0  0  0  0  0  0  0
    3.5189    3.6729   -1.8380 H   0  0  0  0  0  0  0  0  0  0  0  0
    5.7681   -0.6301   -2.7371 H   0  0  0  0  0  0  0  0  0  0  0  0
    5.1062   -2.5932   -1.1995 H   0  0  0  0  0  0  0  0  0  0  0  0
    3.3038   -1.7240    0.5371 H   0  0  0  0  0  0  0  0  0  0  0  0
   -1.1186    0.6378    1.9015 H   0  0  0  0  0  0  0  0  0  0  0  0
   -0.4124    1.3506    0.3133 H   0  0  0  0  0  0  0  0  0  0  0  0
  1  2  1  0
  2  3  1  0
  3  4  1  0
  4  5  2  0
  4  6  2  0
  4  7  1  0
  7  8  1  0
  8  9  1  0
  9 10  1  0
 10 11  1  0
 11 12  1  0
 11 13  1  0
 13 14  2  0
 14 15  1  0
 15 16  2  0
 16 17  1  0
 17 18  1  0
 18 19  1  0
 19 20  2  0
 20 21  1  0
 10 22  1  0
 22  8  1  0
 21 13  1  0
 21 17  2  0
  1 23  1  0
  1 24  1  0
  1 25  1  0
  2 26  1  0
  2 27  1  0
  3 28  1  0
  3 29  1  0
  7 30  1  0
  8 31  1  1
  9 32  1  0
  9 33  1  0
 10 34  1  1
 12 35  1  0
 12 36  1  0
 12 37  1  0
 15 38  1  0
 18 39  1  0
 19 40  1  0
 20 41  1  0
 22 42  1  0
 22 43  1  0
M  END
$$$$
