
     RDKit          3D

 49 51  0  0  0  0  0  0  0  0999 V2000
   -3.8957    0.5436    0.4851 C   0  0  0  0  0  0  0  0  0  0  0  0
   -4.3265   -0.6583   -0.1339 N   0  0  0  0  0  0  0  0  0  0  0  0
   -3.6525   -1.0346   -1.3361 C   0  0  0  0  0  0  0  0  0  0  0  0
   -2.2306   -1.4532   -1.1576 C   0  0  0  0  0  0  0  0  0  0  0  0
   -1.4266   -0.4091   -0.5968 O   0  0  0  0  0  0  0  0  0  0  0  0
   -0.0583   -0.6525   -0.3738 C   0  0  0  0  0  0  0  0  0  0  0  0
    0.5202   -1.8495   -0.6740 C   0  0  0  0  0  0  0  0  0  0  0  0
    1.8691   -2.0561   -0.4415 C   0  0  0  0  0  0  0  0  0  0  0  0
    2.6751   -1.0738    0.0959 C   0  0  0  0  0  0  0  0  0  0  0  0
    4.0937   -1.2537    0.3517 C   0  0  0  0  0  0  0  0  0  0  0  0
    4.7649   -0.6389    1.3648 C   0  0  0  0  0  0  0  0  0  0  0  0
    6.1175   -0.8152    1.5951 C   0  0  0  0  0  0  0  0  0  0  0  0
    6.8169   -1.6554    0.7570 C   0  0  0  0  0  0  0  0  0  0  0  0
    6.1458   -2.2872   -0.2770 C   0  0  0  0  0  0  0  0  0  0  0  0
    7.0564   -3.3542   -1.3376 Cl  0  0  0  0  0  0  0  0  0  0  0  0
    4.7995   -2.1082   -0.5031 C   0  0  0  0  0  0  0  0  0  0  0  0
    2.0729    0.1384    0.3959 C   0  0  0  0  0  0  0  0  0  0  0  0
    0.7205    0.3556    0.1668 C   0  0  0  0  0  0  0  0  0  0  0  0
    0.1160    1.6378    0.4935 C   0  0  0  0  0  0  0  0  0  0  0  0
   -0.9722    1.6858    1.1086 O   0  0  0  0  0  0  0  0  0  0  0  0
    0.7695    2.8518    0.1062 C   0  0  0  0  0  0  0  0  0  0  0  0
    0.3701    4.1637    0.2095 C   0  0  0  0  0  0  0  0  0  0  0  0
    1.1731    5.1398   -0.2171 C   0  0  0  0  0  0  0  0  0  0  0  0
    2.4128    4.8027   -0.7651 C   0  0  0  0  0  0  0  0  0  0  0  0
    2.3886    2.9948   -0.6443 S   0  0  0  0  0  0  0  0  0  0  0  0
   -5.7416   -0.7771   -0.3114 C   0  0  0  0  0  0  0  0  0  0  0  0
   -6.4848   -0.9331    0.9381 C   0  0  0  0  0  0  0  0  0  0  0  0
   -5.8866   -0.9958    2.0301 O   0  0  0  0  0  0  0  0  0  0  0  0
   -7.8629   -1.0122    0.9197 O   0  0  0  0  0  0  0  0  0  0  0  0
   -3.3309    0.3115    1.4089 H   0  0  0  0  0  0  0  0  0  0  0  0
   -4.7048    1.2423    0.7851 H   0  0  0  0  0  0  0  0  0  0  0  0
   -3.2800    1.1110   -0.2479 H   0  0  0  0  0  0  0  0  0  0  0  0
   -3.6547   -0.1371   -2.0231 H   0  0  0  0  0  0  0  0  0  0  0  0
   -4.2553   -1.8084   -1.8606 H   0  0  0  0  0  0  0  0  0  0  0  0
   -2.1167   -2.3728   -0.5472 H   0  0  0  0  0  0  0  0  0  0  0  0
   -1.7948   -1.6888   -2.1570 H   0  0  0  0  0  0  0  0  0  0  0  0
   -0.1098   -2.6284   -1.0997 H   0  0  0  0  0  0  0  0  0  0  0  0
    2.2784   -3.0055   -0.6920 H   0  0  0  0  0  0  0  0  0  0  0  0
    4.2285    0.0168    2.0202 H   0  0  0  0  0  0  0  0  0  0  0  0
    6.5878   -0.3003    2.4117 H   0  0  0  0  0  0  0  0  0  0  0  0
    7.8802   -1.8304    0.8938 H   0  0  0  0  0  0  0  0  0  0  0  0
    4.2748   -2.5958   -1.3022 H   0  0  0  0  0  0  0  0  0  0  0  0
    2.6470    0.9263    0.8137 H   0  0  0  0  0  0  0  0  0  0  0  0
   -0.6572    4.3319    0.6715 H   0  0  0  0  0  0  0  0  0  0  0  0
    0.8764    6.2357   -0.1472 H   0  0  0  0  0  0  0  0  0  0  0  0
    3.2238    5.4234   -1.1751 H   0  0  0  0  0  0  0  0  0  0  0  0
   -5.9218   -1.6157   -1.0387 H   0  0  0  0  0  0  0  0  0  0  0  0
   -6.0789    0.1478   -0.8639 H   0  0  0  0  0  0  0  0  0  0  0  0
   -8.4364   -1.0594    1.7441 H   0  0  0  0  0  0  0  0  0  0  0  0
  1  2  1  0
  2  3  1  0
  3  4  1  0
  4  5  1  0
  5  6  1  0
  6  7  2  0
  7  8  1  0
  8  9  2  0
  9 10  1  0
 10 11  2  0
 11 12  1  0
 12 13  2  0
 13 14  1  0
 14 15  1  0
 14 16  2  0
  9 17  1  0
 17 18  2  0
 18 19  1  0
 19 20  2  0
 19 21  1  0
 21 22  2  0
 22 23  1  0
 23 24  2  0
 24 25  1  0
  2 26  1  0
 26 27  1  0
 27 28  2  0
 27 29  1  0
 18  6  1  0
 25 21  1  0
 16 10  1  0
  1 30  1  0
  1 31  1  0
  1 32  1  0
  3 33  1  0
  3 34  1  0
  4 35  1  0
  4 36  1  0
  7 37  1  0
  8 38  1  0
 11 39  1  0
 12 40  1  0
 13 41  1  0
 16 42  1  0
 17 43  1  0
 22 44  1  0
 23 45  1  0
 24 46  1  0
 26 47  1  0
 26 48  1  0
 29 49  1  0
M  END
$$$$
