
     RDKit          3D

 38 38  0  0  0  0  0  0  0  0999 V2000
    0.0866   -2.4790   -1.2663 C   0  0  0  0  0  0  0  0  0  0  0  0
    0.3420   -1.0541   -1.6158 C   0  0  0  0  0  0  0  0  0  0  0  0
    0.8649   -0.2072   -0.4736 C   0  0  0  0  0  0  0  0  0  0  0  0
    2.0875   -0.7793   -0.0483 N   0  0  0  0  0  0  0  0  0  0  0  0
    2.8076   -0.1992    1.0138 C   0  0  0  0  0  0  0  0  0  0  0  0
    4.1210   -0.9993    1.1339 C   0  0  0  0  0  0  0  0  0  0  0  0
    3.1910    1.2323    0.8802 C   0  0  0  0  0  0  0  0  0  0  0  0
   -0.0989   -0.0654    0.6383 C   0  0  0  0  0  0  0  0  0  0  0  0
    0.3334    0.7602    1.6647 O   0  0  0  0  0  0  0  0  0  0  0  0
   -1.4221    0.4833    0.2152 C   0  0  0  0  0  0  0  0  0  0  0  0
   -2.5331   -0.3108   -0.0194 C   0  0  0  0  0  0  0  0  0  0  0  0
   -3.7550    0.1713   -0.4076 C   0  0  0  0  0  0  0  0  0  0  0  0
   -4.8048   -0.7141   -0.6163 O   0  0  0  0  0  0  0  0  0  0  0  0
   -3.8491    1.5445   -0.5659 C   0  0  0  0  0  0  0  0  0  0  0  0
   -5.1040    2.0251   -0.9632 O   0  0  0  0  0  0  0  0  0  0  0  0
   -2.7663    2.3803   -0.3432 C   0  0  0  0  0  0  0  0  0  0  0  0
   -1.5354    1.8470    0.0525 C   0  0  0  0  0  0  0  0  0  0  0  0
   -0.0343   -2.6555   -0.1769 H   0  0  0  0  0  0  0  0  0  0  0  0
   -0.7732   -2.8944   -1.8483 H   0  0  0  0  0  0  0  0  0  0  0  0
    0.9731   -3.0755   -1.5670 H   0  0  0  0  0  0  0  0  0  0  0  0
    1.0317   -1.0165   -2.4832 H   0  0  0  0  0  0  0  0  0  0  0  0
   -0.6284   -0.6351   -2.0148 H   0  0  0  0  0  0  0  0  0  0  0  0
    1.1089    0.7710   -0.9501 H   0  0  0  0  0  0  0  0  0  0  0  0
    2.6126   -1.3222   -0.7509 H   0  0  0  0  0  0  0  0  0  0  0  0
    2.2775   -0.3431    1.9790 H   0  0  0  0  0  0  0  0  0  0  0  0
    4.6663   -0.6708    2.0281 H   0  0  0  0  0  0  0  0  0  0  0  0
    3.8931   -2.0846    1.1720 H   0  0  0  0  0  0  0  0  0  0  0  0
    4.6658   -0.8214    0.1862 H   0  0  0  0  0  0  0  0  0  0  0  0
    4.2146    1.3175    0.4410 H   0  0  0  0  0  0  0  0  0  0  0  0
    2.4637    1.8703    0.3302 H   0  0  0  0  0  0  0  0  0  0  0  0
    3.2790    1.6683    1.8969 H   0  0  0  0  0  0  0  0  0  0  0  0
   -0.3237   -1.0429    1.1162 H   0  0  0  0  0  0  0  0  0  0  0  0
    0.0086    0.4488    2.5531 H   0  0  0  0  0  0  0  0  0  0  0  0
   -2.3473   -1.3686    0.1342 H   0  0  0  0  0  0  0  0  0  0  0  0
   -5.7752   -0.3969   -0.6386 H   0  0  0  0  0  0  0  0  0  0  0  0
   -5.6260    2.6965   -0.4147 H   0  0  0  0  0  0  0  0  0  0  0  0
   -2.9382    3.4173   -0.4909 H   0  0  0  0  0  0  0  0  0  0  0  0
   -0.7140    2.5019    0.2194 H   0  0  0  0  0  0  0  0  0  0  0  0
  1  2  1  0
  2  3  1  0
  3  4  1  0
  4  5  1  0
  5  6  1  0
  5  7  1  0
  3  8  1  0
  8  9  1  0
  8 10  1  0
 10 11  2  0
 11 12  1  0
 12 13  1  0
 12 14  2  0
 14 15  1  0
 14 16  1  0
 16 17  2  0
 17 10  1  0
  1 18  1  0
  1 19  1  0
  1 20  1  0
  2 21  1  0
  2 22  1  0
  3 23  1  0
  4 24  1  0
  5 25  1  0
  6 26  1  0
  6 27  1  0
  6 28  1  0
  7 29  1  0
  7 30  1  0
  7 31  1  0
  8 32  1  0
  9 33  1  0
 11 34  1  0
 13 35  1  0
 15 36  1  0
 16 37  1  0
 17 38  1  0
M  END
$$$$
