
     RDKit          3D

 45 47  0  0  0  0  0  0  0  0999 V2000
    7.5486   -0.0478    0.6862 C   0  0  0  0  0  0  0  0  0  0  0  0
    6.2879    0.5646    0.5356 O   0  0  0  0  0  0  0  0  0  0  0  0
    5.1420   -0.1570    0.2505 C   0  0  0  0  0  0  0  0  0  0  0  0
    3.9308    0.5056    0.1138 C   0  0  0  0  0  0  0  0  0  0  0  0
    2.7442   -0.1498   -0.1705 C   0  0  0  0  0  0  0  0  0  0  0  0
    2.7808   -1.5149   -0.3214 C   0  0  0  0  0  0  0  0  0  0  0  0
    3.9690   -2.2408   -0.1961 C   0  0  0  0  0  0  0  0  0  0  0  0
    5.1316   -1.5201    0.0915 C   0  0  0  0  0  0  0  0  0  0  0  0
    1.5212    0.6394   -0.2965 C   0  0  0  0  0  0  0  0  0  0  0  0
    0.3019    0.0982    0.0566 C   0  0  0  0  0  0  0  0  0  0  0  0
   -0.8671    0.8212   -0.0528 C   0  0  0  0  0  0  0  0  0  0  0  0
   -0.7822    2.1230   -0.5334 C   0  0  0  0  0  0  0  0  0  0  0  0
    0.4270    2.6911   -0.8950 C   0  0  0  0  0  0  0  0  0  0  0  0
    1.5939    1.9408   -0.7754 C   0  0  0  0  0  0  0  0  0  0  0  0
   -2.2263    0.3557    0.2906 C   0  0  2  0  0  0  0  0  0  0  0  0
   -2.4629    0.7046    1.7652 C   0  0  0  0  0  0  0  0  0  0  0  0
   -2.3551   -1.1365    0.1954 C   0  0  0  0  0  0  0  0  0  0  0  0
   -3.7470   -1.5056    0.6327 C   0  0  0  0  0  0  0  0  0  0  0  0
   -4.2180   -2.2949    1.5210 O   0  0  0  0  0  0  0  0  0  0  0  0
   -4.7458   -0.8010   -0.1336 N   0  0  0  0  0  0  0  0  0  0  0  0
   -6.0892   -1.3392   -0.3972 C   0  0  0  0  0  0  0  0  0  0  0  0
   -4.3824    0.4932   -0.6530 C   0  0  0  0  0  0  0  0  0  0  0  0
   -5.3572    1.2231   -1.4241 N   0  0  0  0  0  0  0  0  0  0  0  0
   -3.2331    1.0461   -0.4726 N   0  0  0  0  0  0  0  0  0  0  0  0
    8.3771    0.6837    0.6276 H   0  0  0  0  0  0  0  0  0  0  0  0
    7.6643   -0.8506   -0.0909 H   0  0  0  0  0  0  0  0  0  0  0  0
    7.5716   -0.5018    1.7133 H   0  0  0  0  0  0  0  0  0  0  0  0
    3.9288    1.5658    0.2355 H   0  0  0  0  0  0  0  0  0  0  0  0
    1.8559   -2.0287   -0.5436 H   0  0  0  0  0  0  0  0  0  0  0  0
    4.0063   -3.3028   -0.3123 H   0  0  0  0  0  0  0  0  0  0  0  0
    6.0603   -2.0923    0.1888 H   0  0  0  0  0  0  0  0  0  0  0  0
    0.1890   -0.8953    0.4298 H   0  0  0  0  0  0  0  0  0  0  0  0
   -1.6243    2.7893   -0.6653 H   0  0  0  0  0  0  0  0  0  0  0  0
    0.5045    3.7178   -1.2757 H   0  0  0  0  0  0  0  0  0  0  0  0
    2.5439    2.3750   -1.0548 H   0  0  0  0  0  0  0  0  0  0  0  0
   -1.6236    0.3723    2.3919 H   0  0  0  0  0  0  0  0  0  0  0  0
   -2.4636    1.8287    1.7746 H   0  0  0  0  0  0  0  0  0  0  0  0
   -3.4547    0.3618    2.1009 H   0  0  0  0  0  0  0  0  0  0  0  0
   -1.6628   -1.5598    0.9781 H   0  0  0  0  0  0  0  0  0  0  0  0
   -2.1787   -1.5621   -0.7930 H   0  0  0  0  0  0  0  0  0  0  0  0
   -6.2711   -1.4793   -1.4831 H   0  0  0  0  0  0  0  0  0  0  0  0
   -6.8157   -0.6116    0.0505 H   0  0  0  0  0  0  0  0  0  0  0  0
   -6.1812   -2.2894    0.1325 H   0  0  0  0  0  0  0  0  0  0  0  0
   -5.6071    2.1286   -0.9703 H   0  0  0  0  0  0  0  0  0  0  0  0
   -5.7315    0.8515   -2.3112 H   0  0  0  0  0  0  0  0  0  0  0  0
  1  2  1  0
  2  3  1  0
  3  4  2  0
  4  5  1  0
  5  6  2  0
  6  7  1  0
  7  8  2  0
  5  9  1  0
  9 10  2  0
 10 11  1  0
 11 12  2  0
 12 13  1  0
 13 14  2  0
 11 15  1  0
 15 16  1  1
 15 17  1  0
 17 18  1  0
 18 19  2  0
 18 20  1  0
 20 21  1  0
 20 22  1  0
 22 23  1  0
 22 24  2  0
  8  3  1  0
 14  9  1  0
 24 15  1  0
  1 25  1  0
  1 26  1  0
  1 27  1  0
  4 28  1  0
  6 29  1  0
  7 30  1  0
  8 31  1  0
 10 32  1  0
 12 33  1  0
 13 34  1  0
 14 35  1  0
 16 36  1  0
 16 37  1  0
 16 38  1  0
 17 39  1  0
 17 40  1  0
 21 41  1  0
 21 42  1  0
 21 43  1  0
 23 44  1  0
 23 45  1  0
M  END
$$$$
