
     RDKit          3D

 64 67  0  0  0  0  0  0  0  0999 V2000
    9.6593    2.6114   -0.3052 C   0  0  0  0  0  0  0  0  0  0  0  0
    8.5161    2.6648   -0.9573 C   0  0  0  0  0  0  0  0  0  0  0  0
    7.3397    1.9045   -0.6038 C   0  0  0  0  0  0  0  0  0  0  0  0
    6.2553    1.9988   -1.2760 O   0  0  0  0  0  0  0  0  0  0  0  0
    7.2821    1.0116    0.4875 N   0  0  0  0  0  0  0  0  0  0  0  0
    6.0864    0.2757    0.8029 C   0  0  0  0  0  0  0  0  0  0  0  0
    5.1417    0.7880    1.6650 C   0  0  0  0  0  0  0  0  0  0  0  0
    3.9958    0.0797    1.9657 C   0  0  0  0  0  0  0  0  0  0  0  0
    3.7353   -1.1654    1.4265 C   0  0  0  0  0  0  0  0  0  0  0  0
    2.2749   -2.0465    1.8221 S   0  0  0  0  0  6  0  0  0  0  0  0
    2.5296   -3.5475    1.8175 O   0  0  0  0  0  0  0  0  0  0  0  0
    1.8201   -1.7263    3.2334 O   0  0  0  0  0  0  0  0  0  0  0  0
    0.9808   -1.7355    0.7603 N   0  0  0  0  0  0  0  0  0  0  0  0
    0.6261   -0.3572    0.8097 C   0  0  0  0  0  0  0  0  0  0  0  0
    0.1249    0.1062   -0.5840 C   0  0  0  0  0  0  0  0  0  0  0  0
   -0.8133   -0.9011   -0.9896 N   0  0  0  0  0  0  0  0  0  0  0  0
   -2.1819   -0.9241   -1.0743 C   0  0  0  0  0  0  0  0  0  0  0  0
   -2.6942   -2.0701   -1.4340 O   0  0  0  0  0  0  0  0  0  0  0  0
   -3.1893    0.0741   -0.8401 N   0  0  0  0  0  0  0  0  0  0  0  0
   -2.7787    1.4047   -0.5755 C   0  0  0  0  0  0  0  0  0  0  0  0
   -3.8363    2.4485   -0.6478 C   0  0  0  0  0  0  0  0  0  0  0  0
   -5.1430    1.9393   -0.1243 C   0  0  0  0  0  0  0  0  0  0  0  0
   -5.5643    0.7188   -0.9463 C   0  0  0  0  0  0  0  0  0  0  0  0
   -6.9556    0.3574   -0.5721 C   0  0  0  0  0  0  0  0  0  0  0  0
   -6.9963   -0.1971    0.8376 C   0  0  0  0  0  0  0  0  0  0  0  0
   -6.1479   -1.4380    0.8244 C   0  0  0  0  0  0  0  0  0  0  0  0
   -4.7305   -1.2069    0.4122 C   0  0  0  0  0  0  0  0  0  0  0  0
   -4.5764   -0.3596   -0.8378 C   0  0  0  0  0  0  0  0  0  0  0  0
   -0.0747   -2.1684   -1.4021 C   0  0  0  0  0  0  0  0  0  0  0  0
    1.1874   -2.2513   -0.5762 C   0  0  0  0  0  0  0  0  0  0  0  0
    4.6855   -1.6717    0.5644 C   0  0  0  0  0  0  0  0  0  0  0  0
    5.8319   -0.9667    0.2616 C   0  0  0  0  0  0  0  0  0  0  0  0
    9.7451    1.9626    0.5541 H   0  0  0  0  0  0  0  0  0  0  0  0
   10.5257    3.1716   -0.5659 H   0  0  0  0  0  0  0  0  0  0  0  0
    8.4813    3.3373   -1.8199 H   0  0  0  0  0  0  0  0  0  0  0  0
    8.1249    0.8770    1.0853 H   0  0  0  0  0  0  0  0  0  0  0  0
    5.3293    1.7651    2.0979 H   0  0  0  0  0  0  0  0  0  0  0  0
    3.2566    0.5026    2.6550 H   0  0  0  0  0  0  0  0  0  0  0  0
    1.4989    0.2730    1.0496 H   0  0  0  0  0  0  0  0  0  0  0  0
   -0.2092   -0.2162    1.5181 H   0  0  0  0  0  0  0  0  0  0  0  0
   -0.1857    1.1260   -0.5095 H   0  0  0  0  0  0  0  0  0  0  0  0
    1.0042    0.0609   -1.2930 H   0  0  0  0  0  0  0  0  0  0  0  0
   -2.2953    1.5173    0.4338 H   0  0  0  0  0  0  0  0  0  0  0  0
   -2.0338    1.7482   -1.3821 H   0  0  0  0  0  0  0  0  0  0  0  0
   -3.9766    2.8054   -1.7053 H   0  0  0  0  0  0  0  0  0  0  0  0
   -3.5502    3.3293   -0.0200 H   0  0  0  0  0  0  0  0  0  0  0  0
   -5.9127    2.7159   -0.3105 H   0  0  0  0  0  0  0  0  0  0  0  0
   -5.1113    1.7324    0.9439 H   0  0  0  0  0  0  0  0  0  0  0  0
   -5.5774    1.0788   -2.0168 H   0  0  0  0  0  0  0  0  0  0  0  0
   -7.6021    1.2551   -0.6504 H   0  0  0  0  0  0  0  0  0  0  0  0
   -7.3835   -0.4200   -1.2348 H   0  0  0  0  0  0  0  0  0  0  0  0
   -6.6423    0.5109    1.5972 H   0  0  0  0  0  0  0  0  0  0  0  0
   -8.0237   -0.5001    1.1056 H   0  0  0  0  0  0  0  0  0  0  0  0
   -6.6415   -2.2417    0.2333 H   0  0  0  0  0  0  0  0  0  0  0  0
   -6.1190   -1.8234    1.8750 H   0  0  0  0  0  0  0  0  0  0  0  0
   -4.1528   -0.7813    1.2573 H   0  0  0  0  0  0  0  0  0  0  0  0
   -4.2967   -2.2010    0.1917 H   0  0  0  0  0  0  0  0  0  0  0  0
   -4.6886   -1.0420   -1.7303 H   0  0  0  0  0  0  0  0  0  0  0  0
   -0.7505   -2.9724   -1.0998 H   0  0  0  0  0  0  0  0  0  0  0  0
    0.1988   -2.1102   -2.4512 H   0  0  0  0  0  0  0  0  0  0  0  0
    2.0592   -1.7633   -1.0811 H   0  0  0  0  0  0  0  0  0  0  0  0
    1.4461   -3.3242   -0.4753 H   0  0  0  0  0  0  0  0  0  0  0  0
    4.5066   -2.6596    0.1193 H   0  0  0  0  0  0  0  0  0  0  0  0
    6.5861   -1.3644   -0.4201 H   0  0  0  0  0  0  0  0  0  0  0  0
  1  2  2  3
  2  3  1  0
  3  4  2  0
  3  5  1  0
  5  6  1  0
  6  7  2  0
  7  8  1  0
  8  9  2  0
  9 10  1  0
 10 11  2  0
 10 12  2  0
 10 13  1  0
 13 14  1  0
 14 15  1  0
 15 16  1  0
 16 17  1  0
 17 18  2  0
 17 19  1  0
 19 20  1  0
 20 21  1  0
 21 22  1  0
 22 23  1  0
 23 24  1  0
 24 25  1  0
 25 26  1  0
 26 27  1  0
 27 28  1  0
 16 29  1  0
 29 30  1  0
  9 31  1  0
 31 32  2  0
 32  6  1  0
 30 13  1  0
 28 19  1  0
 28 23  1  0
  1 33  1  0
  1 34  1  0
  2 35  1  0
  5 36  1  0
  7 37  1  0
  8 38  1  0
 14 39  1  0
 14 40  1  0
 15 41  1  0
 15 42  1  0
 20 43  1  0
 20 44  1  0
 21 45  1  0
 21 46  1  0
 22 47  1  0
 22 48  1  0
 23 49  1  0
 24 50  1  0
 24 51  1  0
 25 52  1  0
 25 53  1  0
 26 54  1  0
 26 55  1  0
 27 56  1  0
 27 57  1  0
 28 58  1  0
 29 59  1  0
 29 60  1  0
 30 61  1  0
 30 62  1  0
 31 63  1  0
 32 64  1  0
M  END
$$$$
