
     RDKit          3D

 31 31  0  0  0  0  0  0  0  0999 V2000
   -1.9470    0.0779    1.1427 C   0  0  0  0  0  0  0  0  0  0  0  0
   -3.1812    0.0694    0.4019 N   0  0  0  0  0  0  0  0  0  0  0  0
   -2.0000    0.9690    2.1992 O   0  0  0  0  0  0  0  0  0  0  0  0
   -0.7287    0.2984    0.2624 C   0  0  1  0  0  0  0  0  0  0  0  0
    0.3611    0.2252    1.1230 O   0  0  0  0  0  0  0  0  0  0  0  0
    1.5771    0.1706    0.5142 C   0  0  2  0  0  0  0  0  0  0  0  0
    2.2551    1.4980    0.2821 C   0  0  0  0  0  0  0  0  0  0  0  0
    2.4856    2.1789    1.4756 O   0  0  0  0  0  0  0  0  0  0  0  0
    1.6415   -0.6972   -0.7249 C   0  0  1  0  0  0  0  0  0  0  0  0
    2.8666   -1.3321   -0.8403 O   0  0  0  0  0  0  0  0  0  0  0  0
    0.4756   -1.6515   -0.5878 C   0  0  2  0  0  0  0  0  0  0  0  0
    0.4959   -2.7161   -1.4419 O   0  0  0  0  0  0  0  0  0  0  0  0
   -0.7607   -0.7943   -0.7748 C   0  0  1  0  0  0  0  0  0  0  0  0
   -1.8470   -1.6497   -0.6594 O   0  0  0  0  0  0  0  0  0  0  0  0
   -0.6774    1.6078   -0.3264 N   0  0  0  0  0  0  0  0  0  0  0  0
   -1.6009    2.1919   -0.8457 N   0  0  0  0  0  4  0  0  0  0  0  0
   -2.4661    3.0268   -1.0308 N   0  0  0  0  0  2  0  0  0  0  0  0
   -1.8322   -0.9377    1.5754 H   0  0  0  0  0  0  0  0  0  0  0  0
   -3.0994    0.3318   -0.5986 H   0  0  0  0  0  0  0  0  0  0  0  0
   -3.9328    0.6257    0.8350 H   0  0  0  0  0  0  0  0  0  0  0  0
   -2.0268    0.5105    3.0845 H   0  0  0  0  0  0  0  0  0  0  0  0
    2.2547   -0.3659    1.2449 H   0  0  0  0  0  0  0  0  0  0  0  0
    3.2508    1.2593   -0.1484 H   0  0  0  0  0  0  0  0  0  0  0  0
    1.6764    2.1773   -0.3570 H   0  0  0  0  0  0  0  0  0  0  0  0
    3.2970    2.7270    1.3503 H   0  0  0  0  0  0  0  0  0  0  0  0
    1.4567   -0.0414   -1.6070 H   0  0  0  0  0  0  0  0  0  0  0  0
    2.7768   -2.1803   -1.3295 H   0  0  0  0  0  0  0  0  0  0  0  0
    0.5136   -2.0285    0.4582 H   0  0  0  0  0  0  0  0  0  0  0  0
    1.0155   -2.6348   -2.2562 H   0  0  0  0  0  0  0  0  0  0  0  0
   -0.7011   -0.3029   -1.7664 H   0  0  0  0  0  0  0  0  0  0  0  0
   -1.5988   -2.6131   -0.6544 H   0  0  0  0  0  0  0  0  0  0  0  0
  1  2  1  0
  1  3  1  0
  4  1  1  1
  4  5  1  0
  5  6  1  0
  6  7  1  0
  7  8  1  0
  6  9  1  0
  9 10  1  0
  9 11  1  0
 11 12  1  0
 11 13  1  0
 13 14  1  0
  4 15  1  0
 15 16  2  0
 16 17  2  0
 13  4  1  0
  1 18  1  0
  2 19  1  0
  2 20  1  0
  3 21  1  0
  6 22  1  1
  7 23  1  0
  7 24  1  0
  8 25  1  0
  9 26  1  6
 10 27  1  0
 11 28  1  1
 12 29  1  0
 13 30  1  6
 14 31  1  0
M  CHG  2  16   1  17  -1
M  END
$$$$
