
     RDKit          3D

 20 19  0  0  0  0  0  0  0  0999 V2000
    1.4609   -0.4631   -0.0694 C   0  0  2  0  0  0  0  0  0  0  0  0
    1.8163   -1.2335    1.0785 N   0  0  0  0  0  0  0  0  0  0  0  0
    1.8199    0.9410    0.1386 C   0  0  0  0  0  0  0  0  0  0  0  0
    1.6541    2.0057   -0.7066 O   0  0  0  0  0  0  0  0  0  0  0  0
    2.3540    1.1974    1.2498 O   0  0  0  0  0  0  0  0  0  0  0  0
    0.0234   -0.6651   -0.4903 C   0  0  1  0  0  0  0  0  0  0  0  0
   -0.1356   -2.0300   -0.7894 O   0  0  0  0  0  0  0  0  0  0  0  0
   -0.8884   -0.3973    0.5153 O   0  0  0  0  0  0  0  0  0  0  0  0
   -2.0487    0.6796   -0.0052 P   0  0  0  0  0  0  0  0  0  0  0  0
   -3.2447   -0.0427   -0.9464 O   0  0  0  0  0  0  0  0  0  0  0  0
   -2.8114    1.4224    1.3268 O   0  0  0  0  0  0  0  0  0  0  0  0
   -1.4338    1.7756   -0.8412 O   0  0  0  0  0  0  0  0  0  0  0  0
    2.0833   -0.8446   -0.9206 H   0  0  0  0  0  0  0  0  0  0  0  0
    2.2573   -0.7292    1.8526 H   0  0  0  0  0  0  0  0  0  0  0  0
    1.1921   -2.0132    1.3107 H   0  0  0  0  0  0  0  0  0  0  0  0
    2.1096    2.9074   -0.5705 H   0  0  0  0  0  0  0  0  0  0  0  0
   -0.2409   -0.0993   -1.3861 H   0  0  0  0  0  0  0  0  0  0  0  0
    0.3784   -2.1556   -1.6444 H   0  0  0  0  0  0  0  0  0  0  0  0
   -3.1360   -1.0196   -1.0354 H   0  0  0  0  0  0  0  0  0  0  0  0
   -3.2098    0.7642    1.9333 H   0  0  0  0  0  0  0  0  0  0  0  0
  1  2  1  0
  1  3  1  0
  3  4  1  0
  3  5  2  0
  1  6  1  0
  6  7  1  0
  6  8  1  0
  8  9  1  0
  9 10  1  0
  9 11  1  0
  9 12  2  0
  1 13  1  6
  2 14  1  0
  2 15  1  0
  4 16  1  0
  6 17  1  6
  7 18  1  0
 10 19  1  0
 11 20  1  0
M  END
$$$$
