
     RDKit          3D

 31 33  0  0  0  0  0  0  0  0999 V2000
   -5.0826    0.4556   -1.8950 C   0  0  0  0  0  0  0  0  0  0  0  0
   -3.9442    0.3210   -0.9378 C   0  0  0  0  0  0  0  0  0  0  0  0
   -2.8396   -0.4075   -1.3119 C   0  0  0  0  0  0  0  0  0  0  0  0
   -1.7452   -0.5737   -0.4790 C   0  0  0  0  0  0  0  0  0  0  0  0
   -1.7589    0.0079    0.7651 C   0  0  0  0  0  0  0  0  0  0  0  0
   -0.6659   -0.0638    1.7193 C   0  0  0  0  0  0  0  0  0  0  0  0
   -0.9276    0.0158    2.9613 O   0  0  0  0  0  0  0  0  0  0  0  0
    0.7393   -0.2250    1.2898 C   0  0  0  0  0  0  0  0  0  0  0  0
    1.8156   -0.4703    1.6618 N   0  0  0  0  0  0  0  0  0  0  0  0
    2.9578   -0.4925    1.0172 C   0  0  0  0  0  0  0  0  0  0  0  0
    4.2370   -0.7924    1.5034 C   0  0  0  0  0  0  0  0  0  0  0  0
    5.3193   -0.7583    0.6600 C   0  0  0  0  0  0  0  0  0  0  0  0
    5.2407   -0.4430   -0.6648 C   0  0  0  0  0  0  0  0  0  0  0  0
    6.3477   -0.4246   -1.4599 O   0  0  0  0  0  0  0  0  0  0  0  0
    3.9778   -0.1408   -1.1726 C   0  0  0  0  0  0  0  0  0  0  0  0
    2.8821   -0.1772   -0.3102 C   0  0  0  0  0  0  0  0  0  0  0  0
    1.1406    0.1337   -0.5409 S   0  0  0  0  0  0  0  0  0  0  0  0
   -2.8826    0.7502    1.1505 C   0  0  0  0  0  0  0  0  0  0  0  0
   -3.9577    0.9023    0.3078 C   0  0  0  0  0  0  0  0  0  0  0  0
   -5.0789    1.6325    0.6699 O   0  0  0  0  0  0  0  0  0  0  0  0
   -6.0141    0.3411   -1.3280 H   0  0  0  0  0  0  0  0  0  0  0  0
   -5.0229    1.5029   -2.2950 H   0  0  0  0  0  0  0  0  0  0  0  0
   -4.9397   -0.2356   -2.7247 H   0  0  0  0  0  0  0  0  0  0  0  0
   -2.7906   -0.8838   -2.2870 H   0  0  0  0  0  0  0  0  0  0  0  0
   -0.8943   -1.1621   -0.7824 H   0  0  0  0  0  0  0  0  0  0  0  0
    4.4219   -1.0587    2.5391 H   0  0  0  0  0  0  0  0  0  0  0  0
    6.3172   -0.9999    1.0829 H   0  0  0  0  0  0  0  0  0  0  0  0
    7.2596   -0.7235   -1.2164 H   0  0  0  0  0  0  0  0  0  0  0  0
    3.8212    0.1145   -2.1945 H   0  0  0  0  0  0  0  0  0  0  0  0
   -2.8957    1.2126    2.1443 H   0  0  0  0  0  0  0  0  0  0  0  0
   -5.0369    2.6424    0.7770 H   0  0  0  0  0  0  0  0  0  0  0  0
  1  2  1  0
  2  3  2  0
  3  4  1  0
  4  5  2  0
  5  6  1  0
  6  7  2  0
  6  8  1  0
  8  9  2  0
  9 10  1  0
 10 11  2  0
 11 12  1  0
 12 13  2  0
 13 14  1  0
 13 15  1  0
 15 16  2  0
 16 17  1  0
  5 18  1  0
 18 19  2  0
 19 20  1  0
 19  2  1  0
 17  8  1  0
 16 10  1  0
  1 21  1  0
  1 22  1  0
  1 23  1  0
  3 24  1  0
  4 25  1  0
 11 26  1  0
 12 27  1  0
 14 28  1  0
 15 29  1  0
 18 30  1  0
 20 31  1  0
M  END
$$$$
