
     RDKit          3D

 59 63  0  0  0  0  0  0  0  0999 V2000
   -0.2508    0.7264   -1.7015 C   0  0  0  0  0  0  0  0  0  0  0  0
   -0.0887   -0.7067   -1.3832 C   0  0  2  0  0  0  0  0  0  0  0  0
    1.2368   -1.0477   -0.7992 C   0  0  0  0  0  0  0  0  0  0  0  0
    2.2818   -0.2097   -0.7309 C   0  0  0  0  0  0  0  0  0  0  0  0
    3.4954   -0.5442   -0.0770 C   0  0  0  0  0  0  0  0  0  0  0  0
    4.6335    0.4320    0.0645 C   0  0  0  0  0  0  0  0  0  0  0  0
    5.1477    0.4269    1.3008 C   0  0  0  0  0  0  0  0  0  0  0  0
    4.6104   -0.4025    2.2412 F   0  0  0  0  0  0  0  0  0  0  0  0
    6.2683    1.2236    1.7623 C   0  0  0  0  0  0  0  0  0  0  0  0
    6.7364    2.2636    0.8415 C   0  0  0  0  0  0  0  0  0  0  0  0
    7.7701    2.9005    1.3507 N   0  0  0  0  0  0  0  0  0  0  0  0
    8.3817    2.7417    2.4618 C   0  0  0  0  0  0  0  0  0  0  0  0
    9.3468    3.7325    2.8595 C   0  0  0  0  0  0  0  0  0  0  0  0
   10.2113    4.6323    3.1951 N   0  0  0  0  0  0  0  0  0  0  0  0
    7.9549    1.7194    3.3692 C   0  0  0  0  0  0  0  0  0  0  0  0
    6.8591    1.0370    2.8629 N   0  0  0  0  0  0  0  0  0  0  0  0
    3.5951   -1.7870    0.4836 C   0  0  0  0  0  0  0  0  0  0  0  0
    2.5606   -2.7191    0.4164 C   0  0  0  0  0  0  0  0  0  0  0  0
    1.3665   -2.2867   -0.2408 C   0  0  0  0  0  0  0  0  0  0  0  0
    0.3439   -3.1805   -0.2711 F   0  0  0  0  0  0  0  0  0  0  0  0
   -0.3079   -1.6347   -2.4830 N   0  0  0  0  0  0  0  0  0  0  0  0
   -1.4315   -1.7606   -3.0912 C   0  0  0  0  0  0  0  0  0  0  0  0
   -1.6620   -2.6541   -4.1150 N   0  0  0  0  0  0  0  0  0  0  0  0
   -2.7790   -0.6893   -2.4391 S   0  0  0  0  0  0  0  0  0  0  0  0
   -2.5331   -0.7765   -0.6682 C   0  0  1  0  0  0  0  0  0  0  0  0
   -3.3432   -0.0460    0.3143 C   0  0  0  0  0  0  0  0  0  0  0  0
   -2.7824    0.7685    1.0215 O   0  0  0  0  0  0  0  0  0  0  0  0
   -4.7326   -0.2709    0.4639 N   0  0  0  0  0  0  0  0  0  0  0  0
   -5.2907    0.2382    1.7400 C   0  0  0  0  0  0  0  0  0  0  0  0
   -5.6765    1.7063    1.4057 C   0  0  0  0  0  0  0  0  0  0  0  0
   -5.9160    1.7184   -0.1344 C   0  0  0  0  0  0  0  0  0  0  0  0
   -6.7866    0.5165   -0.4240 C   0  0  0  0  0  0  0  0  0  0  0  0
   -5.7646   -0.7035   -0.4730 C   0  0  0  0  0  0  0  0  0  0  0  0
   -2.0316   -2.1932   -0.2570 C   0  0  0  0  0  0  0  0  0  0  0  0
   -1.1096   -1.0508   -0.2586 C   0  0  1  0  0  0  0  0  0  0  0  0
    0.4871    1.3698   -1.1743 H   0  0  0  0  0  0  0  0  0  0  0  0
   -1.2568    1.1292   -1.3764 H   0  0  0  0  0  0  0  0  0  0  0  0
   -0.1588    0.9948   -2.8057 H   0  0  0  0  0  0  0  0  0  0  0  0
    2.2833    0.7985   -1.1748 H   0  0  0  0  0  0  0  0  0  0  0  0
    4.9942    1.0251   -0.7155 H   0  0  0  0  0  0  0  0  0  0  0  0
    6.2495    2.3450   -0.0652 H   0  0  0  0  0  0  0  0  0  0  0  0
    8.4495    1.5587    4.2537 H   0  0  0  0  0  0  0  0  0  0  0  0
    4.5393   -2.1229    0.9206 H   0  0  0  0  0  0  0  0  0  0  0  0
    2.5768   -3.6622    0.8925 H   0  0  0  0  0  0  0  0  0  0  0  0
   -2.4164   -2.7678   -4.7417 H   0  0  0  0  0  0  0  0  0  0  0  0
   -0.8455   -3.3793   -4.2289 H   0  0  0  0  0  0  0  0  0  0  0  0
   -6.2042   -0.3542    2.0129 H   0  0  0  0  0  0  0  0  0  0  0  0
   -4.5249    0.2139    2.5719 H   0  0  0  0  0  0  0  0  0  0  0  0
   -4.8373    2.3099    1.6251 H   0  0  0  0  0  0  0  0  0  0  0  0
   -6.6426    1.9039    1.8790 H   0  0  0  0  0  0  0  0  0  0  0  0
   -4.8705    1.4421   -0.5768 H   0  0  0  0  0  0  0  0  0  0  0  0
   -6.1528    2.6485   -0.5756 H   0  0  0  0  0  0  0  0  0  0  0  0
   -7.2956    0.2965    0.5585 H   0  0  0  0  0  0  0  0  0  0  0  0
   -7.4506    0.5510   -1.2115 H   0  0  0  0  0  0  0  0  0  0  0  0
   -5.4597   -0.8292   -1.4791 H   0  0  0  0  0  0  0  0  0  0  0  0
   -6.3869   -1.5077   -0.1287 H   0  0  0  0  0  0  0  0  0  0  0  0
   -2.4983   -2.5252    0.7071 H   0  0  0  0  0  0  0  0  0  0  0  0
   -2.1106   -2.9556   -1.0481 H   0  0  0  0  0  0  0  0  0  0  0  0
   -0.7820   -0.6028    0.7059 H   0  0  0  0  0  0  0  0  0  0  0  0
  2  1  1  6
  2  3  1  0
  3  4  2  0
  4  5  1  0
  5  6  1  0
  6  7  2  0
  7  8  1  0
  7  9  1  0
  9 10  2  0
 10 11  1  0
 11 12  2  0
 12 13  1  0
 13 14  3  0
 12 15  1  0
 15 16  2  0
  5 17  2  0
 17 18  1  0
 18 19  2  0
 19 20  1  0
  2 21  1  0
 21 22  2  0
 22 23  1  0
 22 24  1  0
 24 25  1  0
 25 26  1  1
 26 27  2  0
 26 28  1  0
 28 29  1  0
 29 30  1  0
 30 31  1  0
 31 32  1  0
 32 33  1  0
 25 34  1  0
 34 35  1  0
 35  2  1  0
 19  3  1  0
 35 25  1  0
 16  9  1  0
 33 28  1  0
  1 36  1  0
  1 37  1  0
  1 38  1  0
  4 39  1  0
  6 40  1  0
 10 41  1  0
 15 42  1  0
 17 43  1  0
 18 44  1  0
 23 45  1  0
 23 46  1  0
 29 47  1  0
 29 48  1  0
 30 49  1  0
 30 50  1  0
 31 51  1  0
 31 52  1  0
 32 53  1  0
 32 54  1  0
 33 55  1  0
 33 56  1  0
 34 57  1  0
 34 58  1  0
 35 59  1  1
M  END
$$$$
