
     RDKit          3D

 36 38  0  0  0  0  0  0  0  0999 V2000
   -1.6221    0.4478   -3.0992 C   0  0  0  0  0  0  0  0  0  0  0  0
   -2.1286    0.4888   -1.6920 C   0  0  0  0  0  0  0  0  0  0  0  0
   -3.0197    1.4106   -1.2721 N   0  0  0  0  0  0  0  0  0  0  0  0
   -3.2660    1.1757    0.0291 C   0  0  0  0  0  0  0  0  0  0  0  0
   -4.0775    1.7879    0.9612 C   0  0  0  0  0  0  0  0  0  0  0  0
   -4.1555    1.3423    2.2715 C   0  0  0  0  0  0  0  0  0  0  0  0
   -3.3995    0.2585    2.6457 C   0  0  0  0  0  0  0  0  0  0  0  0
   -2.5930   -0.3479    1.7144 C   0  0  0  0  0  0  0  0  0  0  0  0
   -2.5096    0.0962    0.3913 C   0  0  0  0  0  0  0  0  0  0  0  0
   -1.8104   -0.3231   -0.6734 N   0  0  0  0  0  0  0  0  0  0  0  0
   -0.9104   -1.4235   -0.6875 C   0  0  0  0  0  0  0  0  0  0  0  0
    0.4832   -1.0725   -0.3542 C   0  0  0  0  0  0  0  0  0  0  0  0
    1.4130   -2.0939   -0.3487 C   0  0  0  0  0  0  0  0  0  0  0  0
    2.7411   -1.8550   -0.0476 C   0  0  0  0  0  0  0  0  0  0  0  0
    3.1832   -0.5786    0.2594 C   0  0  0  0  0  0  0  0  0  0  0  0
    4.6094   -0.3708    0.5743 C   0  0  0  0  0  0  0  0  0  0  0  0
    5.4223   -1.3249    0.5685 O   0  0  0  0  0  0  0  0  0  0  0  0
    5.0970    0.9223    0.8930 N   0  0  0  0  0  0  0  0  0  0  0  0
    6.4295    1.0528    1.1763 O   0  0  0  0  0  0  0  0  0  0  0  0
    2.2592    0.4371    0.2540 C   0  0  0  0  0  0  0  0  0  0  0  0
    0.9163    0.1863   -0.0520 C   0  0  0  0  0  0  0  0  0  0  0  0
    0.0179    1.2050   -0.0518 F   0  0  0  0  0  0  0  0  0  0  0  0
   -2.4825    0.5067   -3.8048 H   0  0  0  0  0  0  0  0  0  0  0  0
   -1.0032    1.3321   -3.2419 H   0  0  0  0  0  0  0  0  0  0  0  0
   -1.0821   -0.5052   -3.2674 H   0  0  0  0  0  0  0  0  0  0  0  0
   -4.6550    2.6311    0.6385 H   0  0  0  0  0  0  0  0  0  0  0  0
   -4.8030    1.8426    2.9868 H   0  0  0  0  0  0  0  0  0  0  0  0
   -3.4338   -0.1174    3.6574 H   0  0  0  0  0  0  0  0  0  0  0  0
   -2.0118   -1.2004    2.0487 H   0  0  0  0  0  0  0  0  0  0  0  0
   -0.9908   -1.9323   -1.6846 H   0  0  0  0  0  0  0  0  0  0  0  0
   -1.2273   -2.2076    0.0500 H   0  0  0  0  0  0  0  0  0  0  0  0
    1.1602   -3.1258   -0.5764 H   0  0  0  0  0  0  0  0  0  0  0  0
    3.4880   -2.6461   -0.0381 H   0  0  0  0  0  0  0  0  0  0  0  0
    4.5034    1.7706    0.9234 H   0  0  0  0  0  0  0  0  0  0  0  0
    6.8994    0.7895    0.3449 H   0  0  0  0  0  0  0  0  0  0  0  0
    2.5585    1.4412    0.4860 H   0  0  0  0  0  0  0  0  0  0  0  0
  1  2  1  0
  2  3  2  0
  3  4  1  0
  4  5  2  0
  5  6  1  0
  6  7  2  0
  7  8  1  0
  8  9  2  0
  9 10  1  0
 10 11  1  0
 11 12  1  0
 12 13  2  0
 13 14  1  0
 14 15  2  0
 15 16  1  0
 16 17  2  0
 16 18  1  0
 18 19  1  0
 15 20  1  0
 20 21  2  0
 21 22  1  0
 10  2  1  0
 21 12  1  0
  9  4  1  0
  1 23  1  0
  1 24  1  0
  1 25  1  0
  5 26  1  0
  6 27  1  0
  7 28  1  0
  8 29  1  0
 11 30  1  0
 11 31  1  0
 13 32  1  0
 14 33  1  0
 18 34  1  0
 19 35  1  0
 20 36  1  0
M  END
$$$$
