
     RDKit          3D

 29 30  0  0  0  0  0  0  0  0999 V2000
    6.1579   -0.7825    0.4110 O   0  0  0  0  0  0  0  0  0  0  0  0
    4.7838   -0.5762    0.2895 C   0  0  0  0  0  0  0  0  0  0  0  0
    4.3002    0.1073   -0.8060 C   0  0  0  0  0  0  0  0  0  0  0  0
    2.9580    0.3065   -0.9207 C   0  0  0  0  0  0  0  0  0  0  0  0
    2.0131   -0.1299   -0.0078 C   0  0  0  0  0  0  0  0  0  0  0  0
    0.5834    0.1278   -0.2084 C   0  0  0  0  0  0  0  0  0  0  0  0
   -0.3621   -0.2453    0.5956 C   0  0  0  0  0  0  0  0  0  0  0  0
   -1.7857    0.0148    0.3899 C   0  0  0  0  0  0  0  0  0  0  0  0
   -2.2897    0.6952   -0.6967 C   0  0  0  0  0  0  0  0  0  0  0  0
   -3.6491    0.9271   -0.8649 C   0  0  0  0  0  0  0  0  0  0  0  0
   -4.0381    1.6235   -1.9986 O   0  0  0  0  0  0  0  0  0  0  0  0
   -4.5626    0.4789    0.0629 C   0  0  0  0  0  0  0  0  0  0  0  0
   -4.0588   -0.2011    1.1489 C   0  0  0  0  0  0  0  0  0  0  0  0
   -5.0019   -0.6508    2.0844 O   0  0  0  0  0  0  0  0  0  0  0  0
   -2.7193   -0.4393    1.3312 C   0  0  0  0  0  0  0  0  0  0  0  0
    2.5107   -0.8118    1.0826 C   0  0  0  0  0  0  0  0  0  0  0  0
    3.8864   -1.0335    1.2304 C   0  0  0  0  0  0  0  0  0  0  0  0
    6.8529   -0.1196    0.1124 H   0  0  0  0  0  0  0  0  0  0  0  0
    4.9966    0.4773   -1.5623 H   0  0  0  0  0  0  0  0  0  0  0  0
    2.5843    0.8516   -1.7966 H   0  0  0  0  0  0  0  0  0  0  0  0
    0.3236    0.6714   -1.1009 H   0  0  0  0  0  0  0  0  0  0  0  0
   -0.0878   -0.7900    1.4877 H   0  0  0  0  0  0  0  0  0  0  0  0
   -1.5983    1.0740   -1.4672 H   0  0  0  0  0  0  0  0  0  0  0  0
   -4.0804    2.6328   -2.0000 H   0  0  0  0  0  0  0  0  0  0  0  0
   -5.6231    0.6534   -0.0572 H   0  0  0  0  0  0  0  0  0  0  0  0
   -5.8501   -1.1355    1.7597 H   0  0  0  0  0  0  0  0  0  0  0  0
   -2.3738   -0.9744    2.1945 H   0  0  0  0  0  0  0  0  0  0  0  0
    1.8504   -1.1862    1.8403 H   0  0  0  0  0  0  0  0  0  0  0  0
    4.2794   -1.5652    2.0798 H   0  0  0  0  0  0  0  0  0  0  0  0
  1  2  1  0
  2  3  2  0
  3  4  1  0
  4  5  2  0
  5  6  1  0
  6  7  2  0
  7  8  1  0
  8  9  2  0
  9 10  1  0
 10 11  1  0
 10 12  2  0
 12 13  1  0
 13 14  1  0
 13 15  2  0
  5 16  1  0
 16 17  2  0
 17  2  1  0
 15  8  1  0
  1 18  1  0
  3 19  1  0
  4 20  1  0
  6 21  1  0
  7 22  1  0
  9 23  1  0
 11 24  1  0
 12 25  1  0
 14 26  1  0
 15 27  1  0
 16 28  1  0
 17 29  1  0
M  END
$$$$
