
     RDKit          3D

 56 58  0  0  0  0  0  0  0  0999 V2000
   -0.2257   -3.1170   -1.1523 C   0  0  0  0  0  0  0  0  0  0  0  0
    1.0634   -3.1349   -1.1557 C   0  0  0  0  0  0  0  0  0  0  0  0
    1.6998   -4.3382   -1.8182 C   0  0  0  0  0  0  0  0  0  0  0  0
    1.9295   -2.1280   -0.6026 C   0  0  0  0  0  0  0  0  0  0  0  0
    3.2904   -2.4719   -0.5205 C   0  0  0  0  0  0  0  0  0  0  0  0
    4.1964   -1.7009    0.0345 N   0  0  0  0  0  0  0  0  0  0  0  0
    3.8611   -0.5080    0.5704 C   0  0  0  0  0  0  0  0  0  0  0  0
    4.9221    0.2645    1.1914 C   0  0  0  0  0  0  0  0  0  0  0  0
    6.2450   -0.1941    1.1567 C   0  0  0  0  0  0  0  0  0  0  0  0
    7.2870    0.4740    1.7571 C   0  0  0  0  0  0  0  0  0  0  0  0
    8.9309   -0.1040    1.7219 Cl  0  0  0  0  0  0  0  0  0  0  0  0
    7.0250    1.6505    2.4227 C   0  0  0  0  0  0  0  0  0  0  0  0
    5.7572    2.1230    2.4741 C   0  0  0  0  0  0  0  0  0  0  0  0
    4.7089    1.4258    1.8592 C   0  0  0  0  0  0  0  0  0  0  0  0
    3.4930    2.0186    2.0011 F   0  0  0  0  0  0  0  0  0  0  0  0
    2.5532   -0.1314    0.5079 C   0  0  0  0  0  0  0  0  0  0  0  0
    1.5565   -0.9192   -0.0801 C   0  0  0  0  0  0  0  0  0  0  0  0
    0.2242   -0.4461   -0.1214 N   0  0  0  0  0  0  0  0  0  0  0  0
   -0.3445   -0.0243   -1.3544 C   0  0  0  0  0  0  0  0  0  0  0  0
    0.4808   -0.1034   -2.4790 C   0  0  0  0  0  0  0  0  0  0  0  0
    0.0008    0.3148   -3.7197 C   0  0  0  0  0  0  0  0  0  0  0  0
   -1.2513    0.7816   -3.7690 N   0  0  0  0  0  0  0  0  0  0  0  0
   -2.0906    0.8820   -2.7234 C   0  0  0  0  0  0  0  0  0  0  0  0
   -1.6187    0.4614   -1.4504 C   0  0  0  0  0  0  0  0  0  0  0  0
   -2.4993    0.5315   -0.3152 C   0  0  0  0  0  0  0  0  0  0  0  0
   -2.2528    0.0807    0.8464 O   0  0  0  0  0  0  0  0  0  0  0  0
   -3.7908    1.1449   -0.4056 N   0  0  0  0  0  0  0  0  0  0  0  0
   -4.6918    1.2064    0.7341 C   0  0  1  0  0  0  0  0  0  0  0  0
   -4.8215    2.6186    1.2864 C   0  0  0  0  0  0  0  0  0  0  0  0
   -5.7816    2.5826    2.4799 C   0  0  0  0  0  0  0  0  0  0  0  0
   -6.0378    0.6004    0.4440 C   0  0  0  0  0  0  0  0  0  0  0  0
   -6.6873    1.2388   -0.6020 O   0  0  0  0  0  0  0  0  0  0  0  0
   -0.8745   -2.4067   -0.7550 H   0  0  0  0  0  0  0  0  0  0  0  0
   -0.7423   -3.9928   -1.6317 H   0  0  0  0  0  0  0  0  0  0  0  0
    0.9415   -4.9860   -2.2872 H   0  0  0  0  0  0  0  0  0  0  0  0
    2.2522   -4.9550   -1.0633 H   0  0  0  0  0  0  0  0  0  0  0  0
    2.4516   -3.9505   -2.5283 H   0  0  0  0  0  0  0  0  0  0  0  0
    3.6161   -3.4256   -0.9332 H   0  0  0  0  0  0  0  0  0  0  0  0
    6.4337   -1.1136    0.6264 H   0  0  0  0  0  0  0  0  0  0  0  0
    7.8460    2.1615    2.8938 H   0  0  0  0  0  0  0  0  0  0  0  0
    5.5736    3.0506    3.0119 H   0  0  0  0  0  0  0  0  0  0  0  0
    2.1988    0.8016    0.9087 H   0  0  0  0  0  0  0  0  0  0  0  0
   -0.3263   -0.4045    0.7597 H   0  0  0  0  0  0  0  0  0  0  0  0
    1.4775   -0.4919   -2.3963 H   0  0  0  0  0  0  0  0  0  0  0  0
    0.5945    0.2779   -4.6203 H   0  0  0  0  0  0  0  0  0  0  0  0
   -3.0885    1.2629   -2.8240 H   0  0  0  0  0  0  0  0  0  0  0  0
   -4.1048    1.5541   -1.2960 H   0  0  0  0  0  0  0  0  0  0  0  0
   -4.2197    0.6282    1.5551 H   0  0  0  0  0  0  0  0  0  0  0  0
   -3.8292    2.9078    1.7273 H   0  0  0  0  0  0  0  0  0  0  0  0
   -5.1020    3.3674    0.5351 H   0  0  0  0  0  0  0  0  0  0  0  0
   -5.5731    3.3747    3.2181 H   0  0  0  0  0  0  0  0  0  0  0  0
   -6.8121    2.7268    2.1040 H   0  0  0  0  0  0  0  0  0  0  0  0
   -5.6915    1.5711    2.9562 H   0  0  0  0  0  0  0  0  0  0  0  0
   -6.6909    0.7185    1.3450 H   0  0  0  0  0  0  0  0  0  0  0  0
   -5.9263   -0.4870    0.2784 H   0  0  0  0  0  0  0  0  0  0  0  0
   -7.5357    0.7319   -0.8026 H   0  0  0  0  0  0  0  0  0  0  0  0
  1  2  2  3
  2  3  1  0
  2  4  1  0
  4  5  2  0
  5  6  1  0
  6  7  2  0
  7  8  1  0
  8  9  2  0
  9 10  1  0
 10 11  1  0
 10 12  2  0
 12 13  1  0
 13 14  2  0
 14 15  1  0
  7 16  1  0
 16 17  2  0
 17 18  1  0
 18 19  1  0
 19 20  2  0
 20 21  1  0
 21 22  2  0
 22 23  1  0
 23 24  2  0
 24 25  1  0
 25 26  2  0
 25 27  1  0
 27 28  1  0
 28 29  1  0
 29 30  1  0
 28 31  1  0
 31 32  1  0
 17  4  1  0
 24 19  1  0
 14  8  1  0
  1 33  1  0
  1 34  1  0
  3 35  1  0
  3 36  1  0
  3 37  1  0
  5 38  1  0
  9 39  1  0
 12 40  1  0
 13 41  1  0
 16 42  1  0
 18 43  1  0
 20 44  1  0
 21 45  1  0
 23 46  1  0
 27 47  1  0
 28 48  1  1
 29 49  1  0
 29 50  1  0
 30 51  1  0
 30 52  1  0
 30 53  1  0
 31 54  1  0
 31 55  1  0
 32 56  1  0
M  END
$$$$
