
     RDKit          3D

 32 34  0  0  0  0  0  0  0  0999 V2000
   -4.8162    2.6851   -0.2448 N   0  0  0  0  0  0  0  0  0  0  0  0
   -3.8199    1.6610   -0.1256 C   0  0  0  0  0  0  0  0  0  0  0  0
   -2.5459    1.9508    0.1935 N   0  0  0  0  0  0  0  0  0  0  0  0
   -1.5656    1.0400    0.3209 C   0  0  0  0  0  0  0  0  0  0  0  0
   -1.8613   -0.2756    0.1167 C   0  0  0  0  0  0  0  0  0  0  0  0
   -0.9038   -1.3913    0.2176 C   0  0  0  0  0  0  0  0  0  0  0  0
    0.4537   -0.9512    0.5713 C   0  0  0  0  0  0  0  0  0  0  0  0
    0.8539   -0.8564    1.8837 C   0  0  0  0  0  0  0  0  0  0  0  0
    2.1518   -0.4352    2.2073 C   0  0  0  0  0  0  0  0  0  0  0  0
    3.0455   -0.1098    1.2078 C   0  0  0  0  0  0  0  0  0  0  0  0
    4.3008    0.2992    1.4647 N   0  0  0  0  0  0  0  0  0  0  0  0
    5.1476    0.6089    0.4706 C   0  0  0  0  0  0  0  0  0  0  0  0
    4.7883    0.5282   -0.8608 C   0  0  0  0  0  0  0  0  0  0  0  0
    3.5117    0.1132   -1.1555 C   0  0  0  0  0  0  0  0  0  0  0  0
    2.6502   -0.2028   -0.1104 C   0  0  0  0  0  0  0  0  0  0  0  0
    1.3551   -0.6237   -0.4141 C   0  0  0  0  0  0  0  0  0  0  0  0
   -3.1684   -0.5751   -0.2109 C   0  0  0  0  0  0  0  0  0  0  0  0
   -3.5437   -1.9356   -0.4379 N   0  0  0  0  0  0  0  0  0  0  0  0
   -4.1208    0.3657   -0.3289 N   0  0  0  0  0  0  0  0  0  0  0  0
   -5.3934    2.7682   -1.1097 H   0  0  0  0  0  0  0  0  0  0  0  0
   -5.0048    3.3779    0.5111 H   0  0  0  0  0  0  0  0  0  0  0  0
   -0.5511    1.3039    0.5785 H   0  0  0  0  0  0  0  0  0  0  0  0
   -0.8713   -1.8701   -0.8047 H   0  0  0  0  0  0  0  0  0  0  0  0
   -1.2947   -2.1844    0.8878 H   0  0  0  0  0  0  0  0  0  0  0  0
    0.1643   -1.1075    2.6541 H   0  0  0  0  0  0  0  0  0  0  0  0
    2.4605   -0.3628    3.2436 H   0  0  0  0  0  0  0  0  0  0  0  0
    6.1721    0.9431    0.6635 H   0  0  0  0  0  0  0  0  0  0  0  0
    5.5126    0.7912   -1.6443 H   0  0  0  0  0  0  0  0  0  0  0  0
    3.1745    0.0313   -2.1894 H   0  0  0  0  0  0  0  0  0  0  0  0
    1.0997   -0.6780   -1.4633 H   0  0  0  0  0  0  0  0  0  0  0  0
   -4.3003   -2.3771    0.1241 H   0  0  0  0  0  0  0  0  0  0  0  0
   -3.0811   -2.5311   -1.1647 H   0  0  0  0  0  0  0  0  0  0  0  0
  1  2  1  0
  2  3  2  0
  3  4  1  0
  4  5  2  0
  5  6  1  0
  6  7  1  0
  7  8  2  0
  8  9  1  0
  9 10  2  0
 10 11  1  0
 11 12  2  0
 12 13  1  0
 13 14  2  0
 14 15  1  0
 15 16  2  0
  5 17  1  0
 17 18  1  0
 17 19  2  0
 19  2  1  0
 16  7  1  0
 15 10  1  0
  1 20  1  0
  1 21  1  0
  4 22  1  0
  6 23  1  0
  6 24  1  0
  8 25  1  0
  9 26  1  0
 12 27  1  0
 13 28  1  0
 14 29  1  0
 16 30  1  0
 18 31  1  0
 18 32  1  0
M  END
$$$$
