
     RDKit          3D

 49 53  0  0  0  0  0  0  0  0999 V2000
    0.0255   -1.4799   -2.9469 C   0  0  0  0  0  0  0  0  0  0  0  0
   -0.8855   -1.0682   -1.9496 O   0  0  0  0  0  0  0  0  0  0  0  0
   -0.4021   -0.5516   -0.7680 C   0  0  0  0  0  0  0  0  0  0  0  0
    0.9770   -0.4308   -0.5534 C   0  0  0  0  0  0  0  0  0  0  0  0
    1.5074    0.0786    0.6120 C   0  0  0  0  0  0  0  0  0  0  0  0
    2.8730    0.2011    0.8383 C   0  0  0  0  0  0  0  0  0  0  0  0
    3.7821   -0.2129   -0.1355 N   0  0  0  0  0  0  0  0  0  0  0  0
    5.2071   -0.0883   -0.0262 C   0  0  0  0  0  0  0  0  0  0  0  0
    5.8552    0.7727    0.8139 C   0  0  0  0  0  0  0  0  0  0  0  0
    7.2466    0.8073    0.8631 C   0  0  0  0  0  0  0  0  0  0  0  0
    7.9868   -0.0189    0.0718 C   0  0  0  0  0  0  0  0  0  0  0  0
    7.3809   -0.9014   -0.7893 C   0  0  0  0  0  0  0  0  0  0  0  0
    8.3714   -1.9342   -1.7810 Cl  0  0  0  0  0  0  0  0  0  0  0  0
    6.0096   -0.9086   -0.8115 C   0  0  0  0  0  0  0  0  0  0  0  0
    3.2306    0.7137    2.0239 N   0  0  0  0  0  0  0  0  0  0  0  0
    2.4028    1.1095    2.9886 C   0  0  0  0  0  0  0  0  0  0  0  0
    1.0903    0.9847    2.7551 N   0  0  0  0  0  0  0  0  0  0  0  0
    0.6164    0.4871    1.6102 C   0  0  0  0  0  0  0  0  0  0  0  0
   -0.7397    0.3585    1.3754 C   0  0  0  0  0  0  0  0  0  0  0  0
   -1.2811   -0.1480    0.2180 C   0  0  0  0  0  0  0  0  0  0  0  0
   -2.6394   -0.2727   -0.0077 O   0  0  0  0  0  0  0  0  0  0  0  0
   -3.6706    0.0717    0.8565 C   0  0  2  0  0  0  0  0  0  0  0  0
   -4.5707   -1.1613    1.0030 C   0  0  0  0  0  0  0  0  0  0  0  0
   -5.1403   -1.2330   -0.2636 O   0  0  0  0  0  0  0  0  0  0  0  0
   -5.4207    0.0478   -0.6897 C   0  0  2  0  0  0  0  0  0  0  0  0
   -4.6028    1.0028    0.1016 C   0  0  1  0  0  0  0  0  0  0  0  0
   -5.4110    1.7477    0.9023 O   0  0  0  0  0  0  0  0  0  0  0  0
   -6.6973    1.3034    0.8323 C   0  0  0  0  0  0  0  0  0  0  0  0
   -6.8383    0.3875   -0.3580 C   0  0  1  0  0  0  0  0  0  0  0  0
   -7.4420    1.0076   -1.4249 F   0  0  0  0  0  0  0  0  0  0  0  0
    0.4946   -0.5897   -3.4575 H   0  0  0  0  0  0  0  0  0  0  0  0
    0.7847   -2.1568   -2.4998 H   0  0  0  0  0  0  0  0  0  0  0  0
   -0.5176   -2.0110   -3.7857 H   0  0  0  0  0  0  0  0  0  0  0  0
    1.6423   -0.7468   -1.3330 H   0  0  0  0  0  0  0  0  0  0  0  0
    3.4469   -0.6444   -1.0171 H   0  0  0  0  0  0  0  0  0  0  0  0
    5.2825    1.4423    1.4416 H   0  0  0  0  0  0  0  0  0  0  0  0
    7.7283    1.5007    1.5398 H   0  0  0  0  0  0  0  0  0  0  0  0
    9.0859   -0.0019    0.1016 H   0  0  0  0  0  0  0  0  0  0  0  0
    5.5016   -1.5929   -1.4771 H   0  0  0  0  0  0  0  0  0  0  0  0
    2.7793    1.5233    3.9417 H   0  0  0  0  0  0  0  0  0  0  0  0
   -1.3949    0.6851    2.1693 H   0  0  0  0  0  0  0  0  0  0  0  0
   -3.3821    0.4752    1.8293 H   0  0  0  0  0  0  0  0  0  0  0  0
   -5.3075   -1.0194    1.7961 H   0  0  0  0  0  0  0  0  0  0  0  0
   -3.9007   -2.0235    1.1834 H   0  0  0  0  0  0  0  0  0  0  0  0
   -5.1806    0.2092   -1.7638 H   0  0  0  0  0  0  0  0  0  0  0  0
   -3.9732    1.6845   -0.5064 H   0  0  0  0  0  0  0  0  0  0  0  0
   -7.0960    0.8750    1.7642 H   0  0  0  0  0  0  0  0  0  0  0  0
   -7.3513    2.1916    0.6112 H   0  0  0  0  0  0  0  0  0  0  0  0
   -7.4635   -0.4724   -0.0500 H   0  0  0  0  0  0  0  0  0  0  0  0
  1  2  1  0
  2  3  1  0
  3  4  2  0
  4  5  1  0
  5  6  2  0
  6  7  1  0
  7  8  1  0
  8  9  2  0
  9 10  1  0
 10 11  2  0
 11 12  1  0
 12 13  1  0
 12 14  2  0
  6 15  1  0
 15 16  2  0
 16 17  1  0
 17 18  2  0
 18 19  1  0
 19 20  2  0
 20 21  1  0
 21 22  1  0
 22 23  1  0
 23 24  1  0
 24 25  1  0
 25 26  1  0
 26 27  1  0
 27 28  1  0
 28 29  1  0
 29 30  1  0
 20  3  1  0
 26 22  1  0
 18  5  1  0
 29 25  1  0
 14  8  1  0
  1 31  1  0
  1 32  1  0
  1 33  1  0
  4 34  1  0
  7 35  1  0
  9 36  1  0
 10 37  1  0
 11 38  1  0
 14 39  1  0
 16 40  1  0
 19 41  1  0
 22 42  1  1
 23 43  1  0
 23 44  1  0
 25 45  1  6
 26 46  1  6
 28 47  1  0
 28 48  1  0
 29 49  1  1
M  END
$$$$
