
     RDKit          3D

 57 62  0  0  0  0  0  0  0  0999 V2000
    2.9453    2.8934   -1.1741 C   0  0  0  0  0  0  0  0  0  0  0  0
    2.7703    1.4857   -0.7360 C   0  0  0  0  0  0  0  0  0  0  0  0
    3.6824    0.5937   -0.3226 N   0  0  0  0  0  0  0  0  0  0  0  0
    3.1346   -0.5667   -0.0152 N   0  0  0  0  0  0  0  0  0  0  0  0
    3.7950   -1.7749    0.4685 C   0  0  0  0  0  0  0  0  0  0  0  0
    4.1092   -1.7756    1.9412 C   0  0  0  0  0  0  0  0  0  0  0  0
    5.4775   -2.1782    1.5807 N   0  0  0  0  0  0  0  0  0  0  0  0
    5.5994   -3.6218    1.6445 C   0  0  0  0  0  0  0  0  0  0  0  0
    5.2719   -1.7794    0.1867 C   0  0  0  0  0  0  0  0  0  0  0  0
    1.8167   -0.4370   -0.2329 C   0  0  0  0  0  0  0  0  0  0  0  0
    1.5468    0.8253   -0.6821 C   0  0  0  0  0  0  0  0  0  0  0  0
    0.0765    1.0214   -0.9375 C   0  0  0  0  0  0  0  0  0  0  0  0
   -0.4143    2.1699   -0.1785 C   0  0  0  0  0  0  0  0  0  0  0  0
   -0.5772    2.1564    1.1855 C   0  0  0  0  0  0  0  0  0  0  0  0
   -1.0416    3.2642    1.8548 C   0  0  0  0  0  0  0  0  0  0  0  0
   -1.3516    4.4052    1.1740 C   0  0  0  0  0  0  0  0  0  0  0  0
   -1.9468    5.8277    2.0247 Cl  0  0  0  0  0  0  0  0  0  0  0  0
   -1.2021    4.4586   -0.1916 C   0  0  0  0  0  0  0  0  0  0  0  0
   -0.7350    3.3350   -0.8390 C   0  0  0  0  0  0  0  0  0  0  0  0
   -0.5016   -0.2292   -0.6156 N   0  0  0  0  0  0  0  0  0  0  0  0
   -1.8705   -0.5820   -0.7030 C   0  0  0  0  0  0  0  0  0  0  0  0
   -2.3991   -1.1026   -1.8915 C   0  0  0  0  0  0  0  0  0  0  0  0
   -3.7203   -1.4637   -2.0284 C   0  0  0  0  0  0  0  0  0  0  0  0
   -4.2230   -2.0133   -3.3229 C   0  0  0  0  0  0  0  0  0  0  0  0
   -4.5381   -1.2937   -0.9266 C   0  0  0  0  0  0  0  0  0  0  0  0
   -5.8286   -1.5426   -0.7473 N   0  0  0  0  0  0  0  0  0  0  0  0
   -6.1454   -1.2048    0.4993 N   0  0  0  0  0  0  0  0  0  0  0  0
   -5.0623   -0.7336    1.1395 C   0  0  0  0  0  0  0  0  0  0  0  0
   -5.0246   -0.2582    2.5454 C   0  0  0  0  0  0  0  0  0  0  0  0
   -4.0531   -0.7928    0.2341 N   0  0  0  0  0  0  0  0  0  0  0  0
   -2.7638   -0.4494    0.3406 C   0  0  0  0  0  0  0  0  0  0  0  0
    0.5071   -1.1209   -0.1866 C   0  0  0  0  0  0  0  0  0  0  0  0
    0.4045   -2.3207    0.1923 O   0  0  0  0  0  0  0  0  0  0  0  0
    2.2054    3.5789   -0.7466 H   0  0  0  0  0  0  0  0  0  0  0  0
    2.8984    2.9985   -2.2768 H   0  0  0  0  0  0  0  0  0  0  0  0
    3.9488    3.2539   -0.8391 H   0  0  0  0  0  0  0  0  0  0  0  0
    3.3371   -2.7232    0.1242 H   0  0  0  0  0  0  0  0  0  0  0  0
    4.0826   -0.7343    2.3312 H   0  0  0  0  0  0  0  0  0  0  0  0
    3.5406   -2.5265    2.4960 H   0  0  0  0  0  0  0  0  0  0  0  0
    6.3398   -3.9592    0.8688 H   0  0  0  0  0  0  0  0  0  0  0  0
    4.5806   -4.0548    1.4255 H   0  0  0  0  0  0  0  0  0  0  0  0
    5.9405   -3.9327    2.6528 H   0  0  0  0  0  0  0  0  0  0  0  0
    5.6268   -2.5129   -0.5593 H   0  0  0  0  0  0  0  0  0  0  0  0
    5.7029   -0.7835   -0.0619 H   0  0  0  0  0  0  0  0  0  0  0  0
   -0.1047    1.2085   -2.0197 H   0  0  0  0  0  0  0  0  0  0  0  0
   -0.3445    1.2827    1.7434 H   0  0  0  0  0  0  0  0  0  0  0  0
   -1.1599    3.2235    2.9307 H   0  0  0  0  0  0  0  0  0  0  0  0
   -1.4590    5.3820   -0.6929 H   0  0  0  0  0  0  0  0  0  0  0  0
   -0.6175    3.3767   -1.9117 H   0  0  0  0  0  0  0  0  0  0  0  0
   -1.7239   -1.2262   -2.7504 H   0  0  0  0  0  0  0  0  0  0  0  0
   -3.4624   -2.6674   -3.7666 H   0  0  0  0  0  0  0  0  0  0  0  0
   -4.4851   -1.1979   -4.0266 H   0  0  0  0  0  0  0  0  0  0  0  0
   -5.1292   -2.6150   -3.1511 H   0  0  0  0  0  0  0  0  0  0  0  0
   -5.2739    0.8078    2.6270 H   0  0  0  0  0  0  0  0  0  0  0  0
   -4.0166   -0.4694    3.0081 H   0  0  0  0  0  0  0  0  0  0  0  0
   -5.7379   -0.8522    3.1864 H   0  0  0  0  0  0  0  0  0  0  0  0
   -2.4269   -0.0530    1.2995 H   0  0  0  0  0  0  0  0  0  0  0  0
  1  2  1  0
  2  3  2  0
  3  4  1  0
  4  5  1  0
  5  6  1  0
  6  7  1  0
  7  8  1  0
  7  9  1  0
  4 10  1  0
 10 11  2  0
 11 12  1  0
 12 13  1  0
 13 14  2  0
 14 15  1  0
 15 16  2  0
 16 17  1  0
 16 18  1  0
 18 19  2  0
 12 20  1  0
 20 21  1  0
 21 22  1  0
 22 23  2  0
 23 24  1  0
 23 25  1  0
 25 26  2  0
 26 27  1  0
 27 28  2  0
 28 29  1  0
 28 30  1  0
 30 31  1  0
 20 32  1  0
 32 33  2  0
 11  2  1  0
 19 13  1  0
 31 21  2  0
  9  5  1  0
 32 10  1  0
 30 25  1  0
  1 34  1  0
  1 35  1  0
  1 36  1  0
  5 37  1  0
  6 38  1  0
  6 39  1  0
  8 40  1  0
  8 41  1  0
  8 42  1  0
  9 43  1  0
  9 44  1  0
 12 45  1  0
 14 46  1  0
 15 47  1  0
 18 48  1  0
 19 49  1  0
 22 50  1  0
 24 51  1  0
 24 52  1  0
 24 53  1  0
 29 54  1  0
 29 55  1  0
 29 56  1  0
 31 57  1  0
M  END
$$$$
