
     RDKit          3D

 31 33  0  0  0  0  0  0  0  0999 V2000
   -1.0765   -3.3229   -1.2392 C   0  0  0  0  0  0  0  0  0  0  0  0
   -0.8770   -2.7367    0.1131 C   0  0  0  0  0  0  0  0  0  0  0  0
   -0.3281   -1.4259    0.1324 N   0  0  0  0  0  0  0  0  0  0  0  0
    0.9676   -1.1913    0.1771 N   0  0  0  0  0  0  0  0  0  0  0  0
    1.4924    0.0644    0.1956 C   0  0  0  0  0  0  0  0  0  0  0  0
    2.9571    0.2249    0.2460 C   0  0  0  0  0  0  0  0  0  0  0  0
    3.8516    0.4719    1.2000 C   0  0  0  0  0  0  0  0  0  0  0  0
    5.1449    0.5674    0.9580 C   0  0  0  0  0  0  0  0  0  0  0  0
    5.6016    0.3975   -0.3902 C   0  0  0  0  0  0  0  0  0  0  0  0
    4.0143    0.0892   -1.2779 S   0  0  0  0  0  0  0  0  0  0  0  0
    0.7015    1.1712    0.1688 N   0  0  0  0  0  0  0  0  0  0  0  0
   -0.6079    1.0134    0.1238 C   0  0  0  0  0  0  0  0  0  0  0  0
   -1.4810    2.0742    0.0941 C   0  0  0  0  0  0  0  0  0  0  0  0
   -1.0654    3.2468    0.1089 O   0  0  0  0  0  0  0  0  0  0  0  0
   -2.8032    1.7659    0.0486 N   0  0  0  0  0  0  0  0  0  0  0  0
   -3.7087    2.9156    0.0179 C   0  0  0  0  0  0  0  0  0  0  0  0
   -3.2605    0.5148    0.0324 C   0  0  0  0  0  0  0  0  0  0  0  0
   -4.5090    0.3481   -0.0106 O   0  0  0  0  0  0  0  0  0  0  0  0
   -2.4647   -0.5779    0.0593 N   0  0  0  0  0  0  0  0  0  0  0  0
   -1.1412   -0.3581    0.1049 C   0  0  0  0  0  0  0  0  0  0  0  0
   -0.3601   -2.9828   -2.0062 H   0  0  0  0  0  0  0  0  0  0  0  0
   -0.9820   -4.4257   -1.1588 H   0  0  0  0  0  0  0  0  0  0  0  0
   -2.1380   -3.1368   -1.5383 H   0  0  0  0  0  0  0  0  0  0  0  0
   -0.1620   -3.4050    0.6766 H   0  0  0  0  0  0  0  0  0  0  0  0
   -1.8337   -2.8162    0.6753 H   0  0  0  0  0  0  0  0  0  0  0  0
    3.4067    0.5971    2.2634 H   0  0  0  0  0  0  0  0  0  0  0  0
    5.8963    0.7739    1.7535 H   0  0  0  0  0  0  0  0  0  0  0  0
    6.5592    0.4280   -0.8185 H   0  0  0  0  0  0  0  0  0  0  0  0
   -3.6821    3.4278    1.0081 H   0  0  0  0  0  0  0  0  0  0  0  0
   -3.3752    3.6754   -0.7252 H   0  0  0  0  0  0  0  0  0  0  0  0
   -4.7369    2.6121   -0.2535 H   0  0  0  0  0  0  0  0  0  0  0  0
  1  2  1  0
  2  3  1  0
  3  4  1  0
  4  5  2  0
  5  6  1  0
  6  7  2  0
  7  8  1  0
  8  9  2  0
  9 10  1  0
  5 11  1  0
 11 12  2  0
 12 13  1  0
 13 14  2  0
 13 15  1  0
 15 16  1  0
 15 17  1  0
 17 18  2  0
 17 19  1  0
 19 20  2  0
 20  3  1  0
 10  6  1  0
 20 12  1  0
  1 21  1  0
  1 22  1  0
  1 23  1  0
  2 24  1  0
  2 25  1  0
  7 26  1  0
  8 27  1  0
  9 28  1  0
 16 29  1  0
 16 30  1  0
 16 31  1  0
M  END
$$$$
