
     RDKit          3D

 29 29  0  0  0  0  0  0  0  0999 V2000
   -1.7600   -3.9019   -0.3359 C   0  0  0  0  0  0  0  0  0  0  0  0
   -1.8601   -2.5924    0.4004 C   0  0  0  0  0  0  0  0  0  0  0  0
   -0.6147   -1.9703    0.3970 O   0  0  0  0  0  0  0  0  0  0  0  0
   -0.6827   -0.4822    1.2208 P   0  0  0  0  0  5  0  0  0  0  0  0
   -1.2408   -0.8218    2.5907 O   0  0  0  0  0  0  0  0  0  0  0  0
   -1.6924    0.5122    0.3457 O   0  0  0  0  0  0  0  0  0  0  0  0
   -1.5801    1.8561    0.6342 C   0  0  0  0  0  0  0  0  0  0  0  0
   -2.4841    2.7351   -0.1503 C   0  0  0  0  0  0  0  0  0  0  0  0
    0.8735    0.0767    1.4617 O   0  0  0  0  0  0  0  0  0  0  0  0
    1.8546    0.4265    0.6065 C   0  0  0  0  0  0  0  0  0  0  0  0
    3.0237    0.8474    1.1675 N   0  0  0  0  0  0  0  0  0  0  0  0
    4.0913    1.2286    0.4526 C   0  0  0  0  0  0  0  0  0  0  0  0
    5.5711    1.7616    1.2673 Cl  0  0  0  0  0  0  0  0  0  0  0  0
    3.9950    1.1907   -0.9209 C   0  0  0  0  0  0  0  0  0  0  0  0
    5.3717    1.6822   -1.8834 Cl  0  0  0  0  0  0  0  0  0  0  0  0
    2.8349    0.7730   -1.5211 C   0  0  0  0  0  0  0  0  0  0  0  0
    1.7458    0.3841   -0.7568 C   0  0  0  0  0  0  0  0  0  0  0  0
    0.2671   -0.1485   -1.5610 Cl  0  0  0  0  0  0  0  0  0  0  0  0
   -0.7252   -4.1544   -0.6322 H   0  0  0  0  0  0  0  0  0  0  0  0
   -2.1391   -4.7268    0.3064 H   0  0  0  0  0  0  0  0  0  0  0  0
   -2.3925   -3.8975   -1.2614 H   0  0  0  0  0  0  0  0  0  0  0  0
   -2.6259   -1.9725   -0.1110 H   0  0  0  0  0  0  0  0  0  0  0  0
   -2.1591   -2.7820    1.4488 H   0  0  0  0  0  0  0  0  0  0  0  0
   -0.5283    2.1475    0.4269 H   0  0  0  0  0  0  0  0  0  0  0  0
   -1.7306    2.0671    1.7270 H   0  0  0  0  0  0  0  0  0  0  0  0
   -1.9532    3.6693   -0.4299 H   0  0  0  0  0  0  0  0  0  0  0  0
   -3.3561    3.0786    0.4770 H   0  0  0  0  0  0  0  0  0  0  0  0
   -2.8338    2.2812   -1.1027 H   0  0  0  0  0  0  0  0  0  0  0  0
    2.7298    0.7326   -2.5977 H   0  0  0  0  0  0  0  0  0  0  0  0
  1  2  1  0
  2  3  1  0
  3  4  1  0
  4  5  2  0
  4  6  1  0
  6  7  1  0
  7  8  1  0
  4  9  1  0
  9 10  1  0
 10 11  2  0
 11 12  1  0
 12 13  1  0
 12 14  2  0
 14 15  1  0
 14 16  1  0
 16 17  2  0
 17 18  1  0
 17 10  1  0
  1 19  1  0
  1 20  1  0
  1 21  1  0
  2 22  1  0
  2 23  1  0
  7 24  1  0
  7 25  1  0
  8 26  1  0
  8 27  1  0
  8 28  1  0
 16 29  1  0
M  END
$$$$
