
     RDKit          3D

 46 49  0  0  0  0  0  0  0  0999 V2000
   -3.9848    2.3094   -0.8354 N   0  0  0  0  0  0  0  0  0  0  0  0
   -3.7652    2.1974    0.5618 C   0  0  0  0  0  0  0  0  0  0  0  0
   -3.8386    3.1836    1.4744 N   0  0  0  0  0  0  0  0  0  0  0  0
   -3.5669    2.6869    2.6818 N   0  0  0  0  0  0  0  0  0  0  0  0
   -3.3095    1.3602    2.5806 C   0  0  0  0  0  0  0  0  0  0  0  0
   -3.4307    1.0344    1.2459 C   0  0  0  0  0  0  0  0  0  0  0  0
   -3.2533   -0.2655    0.6148 C   0  0  0  0  0  0  0  0  0  0  0  0
   -4.2793   -1.1699    0.4440 C   0  0  0  0  0  0  0  0  0  0  0  0
   -4.0805   -2.3915   -0.1567 C   0  0  0  0  0  0  0  0  0  0  0  0
   -5.2236   -3.3391   -0.3194 C   0  0  0  0  0  0  0  0  0  0  0  0
   -6.3654   -2.7827    0.1747 F   0  0  0  0  0  0  0  0  0  0  0  0
   -5.3503   -3.5529   -1.6879 F   0  0  0  0  0  0  0  0  0  0  0  0
   -4.9355   -4.5535    0.2720 F   0  0  0  0  0  0  0  0  0  0  0  0
   -2.8282   -2.7324   -0.6041 C   0  0  0  0  0  0  0  0  0  0  0  0
   -1.7901   -1.8258   -0.4354 C   0  0  0  0  0  0  0  0  0  0  0  0
   -1.9853   -0.5982    0.1678 C   0  0  0  0  0  0  0  0  0  0  0  0
   -0.9698    0.3209    0.3507 O   0  0  0  0  0  0  0  0  0  0  0  0
    0.3460    0.0734   -0.0001 C   0  0  0  0  0  0  0  0  0  0  0  0
    0.9809    0.8357   -0.9883 C   0  0  0  0  0  0  0  0  0  0  0  0
    2.2870    0.6066   -1.3500 C   0  0  0  0  0  0  0  0  0  0  0  0
    2.8853    1.3610   -2.3147 F   0  0  0  0  0  0  0  0  0  0  0  0
    3.0172   -0.4095   -0.7266 C   0  0  0  0  0  0  0  0  0  0  0  0
    4.6625   -0.7254   -1.1867 S   0  0  0  0  0  6  0  0  0  0  0  0
    5.1943   -1.8224   -0.2665 O   0  0  0  0  0  0  0  0  0  0  0  0
    4.7422   -1.2790   -2.5897 O   0  0  0  0  0  0  0  0  0  0  0  0
    5.7009    0.6202   -1.0145 N   0  0  0  0  0  0  0  0  0  0  0  0
    5.9318    1.2098    0.2436 C   0  0  0  0  0  0  0  0  0  0  0  0
    5.3255    0.6874    1.4242 C   0  0  0  0  0  0  0  0  0  0  0  0
    5.9820    1.8098    2.6998 S   0  0  0  0  0  0  0  0  0  0  0  0
    6.9763    2.8133    1.4395 C   0  0  0  0  0  0  0  0  0  0  0  0
    6.6925    2.2356    0.4634 N   0  0  0  0  0  0  0  0  0  0  0  0
    2.4236   -1.1733    0.2454 C   0  0  0  0  0  0  0  0  0  0  0  0
    1.1101   -0.9237    0.5920 C   0  0  0  0  0  0  0  0  0  0  0  0
    0.3726   -1.8887    1.8628 Cl  0  0  0  0  0  0  0  0  0  0  0  0
   -3.8598    3.1979   -1.3523 H   0  0  0  0  0  0  0  0  0  0  0  0
   -4.2834    1.4705   -1.3685 H   0  0  0  0  0  0  0  0  0  0  0  0
   -3.5536    3.2324    3.5692 H   0  0  0  0  0  0  0  0  0  0  0  0
   -3.0534    0.6683    3.3930 H   0  0  0  0  0  0  0  0  0  0  0  0
   -5.2719   -0.8695    0.8120 H   0  0  0  0  0  0  0  0  0  0  0  0
   -2.6308   -3.6843   -1.0820 H   0  0  0  0  0  0  0  0  0  0  0  0
   -0.7929   -2.1085   -0.8123 H   0  0  0  0  0  0  0  0  0  0  0  0
    0.3929    1.6299   -1.4680 H   0  0  0  0  0  0  0  0  0  0  0  0
    6.1573    0.9892   -1.8762 H   0  0  0  0  0  0  0  0  0  0  0  0
    4.6891   -0.1022    1.5826 H   0  0  0  0  0  0  0  0  0  0  0  0
    7.5628    3.6438    1.7902 H   0  0  0  0  0  0  0  0  0  0  0  0
    2.9699   -1.9795    0.7546 H   0  0  0  0  0  0  0  0  0  0  0  0
  1  2  1  0
  2  3  2  0
  3  4  1  0
  4  5  1  0
  5  6  2  0
  6  7  1  0
  7  8  2  0
  8  9  1  0
  9 10  1  0
 10 11  1  0
 10 12  1  0
 10 13  1  0
  9 14  2  0
 14 15  1  0
 15 16  2  0
 16 17  1  0
 17 18  1  0
 18 19  2  0
 19 20  1  0
 20 21  1  0
 20 22  2  0
 22 23  1  0
 23 24  2  0
 23 25  2  0
 23 26  1  0
 26 27  1  0
 27 28  2  0
 28 29  1  0
 29 30  1  0
 30 31  2  0
 22 32  1  0
 32 33  2  0
 33 34  1  0
  6  2  1  0
 16  7  1  0
 33 18  1  0
 31 27  1  0
  1 35  1  0
  1 36  1  0
  4 37  1  0
  5 38  1  0
  8 39  1  0
 14 40  1  0
 15 41  1  0
 19 42  1  0
 26 43  1  0
 28 44  1  0
 30 45  1  0
 32 46  1  0
M  END
$$$$
