
     RDKit          3D

 39 40  0  0  0  0  0  0  0  0999 V2000
    1.3108    2.4557   -1.1792 C   0  0  0  0  0  0  0  0  0  0  0  0
    0.0396    1.9136   -1.5142 N   0  0  0  0  0  0  0  0  0  0  0  0
   -0.7393    1.3514   -0.4786 C   0  0  0  0  0  0  0  0  0  0  0  0
   -0.8348    2.2992    0.6896 C   0  0  0  0  0  0  0  0  0  0  0  0
   -0.4805   -0.0686   -0.1436 C   0  0  0  0  0  0  0  0  0  0  0  0
    0.9248   -0.2714    0.2781 C   0  0  0  0  0  0  0  0  0  0  0  0
    1.3061   -0.2267    1.6064 C   0  0  0  0  0  0  0  0  0  0  0  0
    2.6172   -0.4252    1.9621 C   0  0  0  0  0  0  0  0  0  0  0  0
    3.5834   -0.6719    1.0210 C   0  0  0  0  0  0  0  0  0  0  0  0
    5.2649   -0.9263    1.4842 Cl  0  0  0  0  0  0  0  0  0  0  0  0
    3.2335   -0.7218   -0.3091 C   0  0  0  0  0  0  0  0  0  0  0  0
    4.4491   -1.0353   -1.5281 Cl  0  0  0  0  0  0  0  0  0  0  0  0
    1.8909   -0.5172   -0.6600 C   0  0  0  0  0  0  0  0  0  0  0  0
   -0.8251   -1.0588   -1.2147 C   0  0  0  0  0  0  0  0  0  0  0  0
   -1.3278   -2.3806   -0.6068 C   0  0  0  0  0  0  0  0  0  0  0  0
   -2.6920   -2.2137   -0.0058 C   0  0  0  0  0  0  0  0  0  0  0  0
   -2.7561   -0.7433    0.4425 C   0  0  0  0  0  0  0  0  0  0  0  0
   -1.4113   -0.4275    1.0334 C   0  0  0  0  0  0  0  0  0  0  0  0
    1.3611    3.5707   -1.3565 H   0  0  0  0  0  0  0  0  0  0  0  0
    1.6352    2.2678   -0.1312 H   0  0  0  0  0  0  0  0  0  0  0  0
    2.0672    2.0509   -1.8821 H   0  0  0  0  0  0  0  0  0  0  0  0
   -0.4556    2.5441   -2.1723 H   0  0  0  0  0  0  0  0  0  0  0  0
   -1.8130    1.3439   -0.9108 H   0  0  0  0  0  0  0  0  0  0  0  0
   -0.7279    3.3358    0.2514 H   0  0  0  0  0  0  0  0  0  0  0  0
   -0.0635    2.1018    1.4471 H   0  0  0  0  0  0  0  0  0  0  0  0
   -1.8148    2.2987    1.1843 H   0  0  0  0  0  0  0  0  0  0  0  0
    0.5595   -0.0355    2.3417 H   0  0  0  0  0  0  0  0  0  0  0  0
    2.9375   -0.3944    2.9977 H   0  0  0  0  0  0  0  0  0  0  0  0
    1.7295   -0.5631   -1.7350 H   0  0  0  0  0  0  0  0  0  0  0  0
    0.0006   -1.3634   -1.8758 H   0  0  0  0  0  0  0  0  0  0  0  0
   -1.6179   -0.6422   -1.8747 H   0  0  0  0  0  0  0  0  0  0  0  0
   -1.3762   -3.0978   -1.4601 H   0  0  0  0  0  0  0  0  0  0  0  0
   -0.6087   -2.7194    0.1431 H   0  0  0  0  0  0  0  0  0  0  0  0
   -2.8820   -2.8913    0.8435 H   0  0  0  0  0  0  0  0  0  0  0  0
   -3.4843   -2.3824   -0.7620 H   0  0  0  0  0  0  0  0  0  0  0  0
   -3.5547   -0.6180    1.2125 H   0  0  0  0  0  0  0  0  0  0  0  0
   -3.0005   -0.1982   -0.4887 H   0  0  0  0  0  0  0  0  0  0  0  0
   -1.4275    0.3859    1.7760 H   0  0  0  0  0  0  0  0  0  0  0  0
   -1.0175   -1.3256    1.5745 H   0  0  0  0  0  0  0  0  0  0  0  0
  1  2  1  0
  2  3  1  0
  3  4  1  0
  3  5  1  0
  5  6  1  0
  6  7  2  0
  7  8  1  0
  8  9  2  0
  9 10  1  0
  9 11  1  0
 11 12  1  0
 11 13  2  0
  5 14  1  0
 14 15  1  0
 15 16  1  0
 16 17  1  0
 17 18  1  0
 18  5  1  0
 13  6  1  0
  1 19  1  0
  1 20  1  0
  1 21  1  0
  2 22  1  0
  3 23  1  0
  4 24  1  0
  4 25  1  0
  4 26  1  0
  7 27  1  0
  8 28  1  0
 13 29  1  0
 14 30  1  0
 14 31  1  0
 15 32  1  0
 15 33  1  0
 16 34  1  0
 16 35  1  0
 17 36  1  0
 17 37  1  0
 18 38  1  0
 18 39  1  0
M  END
$$$$
