
     RDKit          3D

 43 47  0  0  0  0  0  0  0  0999 V2000
    6.5442   -1.1811   -0.3181 C   0  0  0  0  0  0  0  0  0  0  0  0
    6.5908    0.2010   -0.6400 O   0  0  0  0  0  0  0  0  0  0  0  0
    5.4039    0.9104   -0.7489 C   0  0  0  0  0  0  0  0  0  0  0  0
    4.1558    0.3457   -0.5595 C   0  0  0  0  0  0  0  0  0  0  0  0
    2.9991    1.1009   -0.6802 C   0  0  0  0  0  0  0  0  0  0  0  0
    1.6734    0.5235   -0.4851 C   0  0  0  0  0  0  0  0  0  0  0  0
    0.6115    1.2453    0.0147 C   0  0  0  0  0  0  0  0  0  0  0  0
   -0.6467    0.6683    0.1886 C   0  0  0  0  0  0  0  0  0  0  0  0
   -0.8688   -0.6440   -0.1342 C   0  0  0  0  0  0  0  0  0  0  0  0
   -1.9896   -1.4677   -0.0708 C   0  0  0  0  0  0  0  0  0  0  0  0
   -3.3196   -1.1108    0.3932 C   0  0  0  0  0  0  0  0  0  0  0  0
   -3.7537    0.0641    0.8558 N   0  0  0  0  0  0  0  0  0  0  0  0
   -5.0605   -0.0135    1.1856 C   0  0  0  0  0  0  0  0  0  0  0  0
   -5.9600    0.8963    1.6952 C   0  0  0  0  0  0  0  0  0  0  0  0
   -7.2592    0.5136    1.9327 C   0  0  0  0  0  0  0  0  0  0  0  0
   -7.6634   -0.7928    1.6579 C   0  0  0  0  0  0  0  0  0  0  0  0
   -6.7315   -1.6819    1.1456 C   0  0  0  0  0  0  0  0  0  0  0  0
   -5.4313   -1.3123    0.9039 C   0  0  0  0  0  0  0  0  0  0  0  0
   -4.3597   -1.9630    0.4235 N   0  0  0  0  0  0  0  0  0  0  0  0
   -1.5756   -2.6742   -0.5364 N   0  0  0  0  0  0  0  0  0  0  0  0
   -0.3123   -2.6212   -0.8639 N   0  0  0  0  0  0  0  0  0  0  0  0
    0.1727   -1.3928   -0.6361 C   0  0  0  0  0  0  0  0  0  0  0  0
    1.4292   -0.8069   -0.8069 C   0  0  0  0  0  0  0  0  0  0  0  0
    3.1610    2.4339   -0.9966 C   0  0  0  0  0  0  0  0  0  0  0  0
    4.3837    3.0351   -1.1932 C   0  0  0  0  0  0  0  0  0  0  0  0
    5.5192    2.2634   -1.0677 C   0  0  0  0  0  0  0  0  0  0  0  0
    6.7344    2.8741   -1.2661 O   0  0  0  0  0  0  0  0  0  0  0  0
    7.5176   -1.5621    0.0318 H   0  0  0  0  0  0  0  0  0  0  0  0
    5.8435   -1.2640    0.5525 H   0  0  0  0  0  0  0  0  0  0  0  0
    6.1417   -1.7236   -1.1918 H   0  0  0  0  0  0  0  0  0  0  0  0
    4.0826   -0.7006   -0.3135 H   0  0  0  0  0  0  0  0  0  0  0  0
    0.7868    2.2875    0.2704 H   0  0  0  0  0  0  0  0  0  0  0  0
   -1.4856    1.2410    0.5845 H   0  0  0  0  0  0  0  0  0  0  0  0
   -5.6425    1.9042    1.9065 H   0  0  0  0  0  0  0  0  0  0  0  0
   -7.9792    1.2255    2.3354 H   0  0  0  0  0  0  0  0  0  0  0  0
   -8.6902   -1.0538    1.8575 H   0  0  0  0  0  0  0  0  0  0  0  0
   -7.0398   -2.6853    0.9341 H   0  0  0  0  0  0  0  0  0  0  0  0
   -4.3774   -2.9815    0.1292 H   0  0  0  0  0  0  0  0  0  0  0  0
    0.2409   -3.4114   -1.2454 H   0  0  0  0  0  0  0  0  0  0  0  0
    2.2338   -1.3898   -1.1957 H   0  0  0  0  0  0  0  0  0  0  0  0
    2.2855    3.0653   -1.1022 H   0  0  0  0  0  0  0  0  0  0  0  0
    4.4648    4.1045   -1.4446 H   0  0  0  0  0  0  0  0  0  0  0  0
    7.1704    3.5307   -0.6498 H   0  0  0  0  0  0  0  0  0  0  0  0
  1  2  1  0
  2  3  1  0
  3  4  2  0
  4  5  1  0
  5  6  1  0
  6  7  2  0
  7  8  1  0
  8  9  2  0
  9 10  1  0
 10 11  1  0
 11 12  2  0
 12 13  1  0
 13 14  2  0
 14 15  1  0
 15 16  2  0
 16 17  1  0
 17 18  2  0
 18 19  1  0
 10 20  2  0
 20 21  1  0
 21 22  1  0
 22 23  2  0
  5 24  2  0
 24 25  1  0
 25 26  2  0
 26 27  1  0
 26  3  1  0
 23  6  1  0
 22  9  1  0
 19 11  1  0
 18 13  1  0
  1 28  1  0
  1 29  1  0
  1 30  1  0
  4 31  1  0
  7 32  1  0
  8 33  1  0
 14 34  1  0
 15 35  1  0
 16 36  1  0
 17 37  1  0
 19 38  1  0
 21 39  1  0
 23 40  1  0
 24 41  1  0
 25 42  1  0
 27 43  1  0
M  END
$$$$
