
     RDKit          3D

 46 50  0  0  0  0  0  0  0  0999 V2000
   -6.5704    3.5735    2.6255 N   0  0  0  0  0  0  0  0  0  0  0  0
   -5.9435    2.9209    1.9014 C   0  0  0  0  0  0  0  0  0  0  0  0
   -5.1529    2.1074    0.9974 C   0  0  0  0  0  0  0  0  0  0  0  0
   -3.8000    2.2929    0.9357 C   0  0  0  0  0  0  0  0  0  0  0  0
   -3.0932    1.5144    0.0861 N   0  0  0  0  0  0  0  0  0  0  0  0
   -3.6653    0.5749   -0.6905 C   0  0  0  0  0  0  0  0  0  0  0  0
   -2.9425   -0.2235   -1.5512 C   0  0  0  0  0  0  0  0  0  0  0  0
   -1.5562   -0.0291   -1.6714 N   0  0  0  0  0  0  0  0  0  0  0  0
   -0.6313   -0.3816   -0.6823 C   0  0  0  0  0  0  0  0  0  0  0  0
   -1.0139   -0.8719    0.5393 C   0  0  0  0  0  0  0  0  0  0  0  0
   -0.0481   -1.1678    1.4713 C   0  0  0  0  0  0  0  0  0  0  0  0
    1.3083   -0.9862    1.2148 C   0  0  0  0  0  0  0  0  0  0  0  0
    2.2533   -1.2775    2.1389 F   0  0  0  0  0  0  0  0  0  0  0  0
    1.6767   -0.4881   -0.0291 C   0  0  0  0  0  0  0  0  0  0  0  0
    3.1630   -0.2727   -0.2143 C   0  0  1  0  0  0  0  0  0  0  0  0
    3.3537    0.3112   -1.6125 C   0  0  0  0  0  0  0  0  0  0  0  0
    2.9167   -0.5318   -2.5883 F   0  0  0  0  0  0  0  0  0  0  0  0
    2.7814    1.5730   -1.6516 F   0  0  0  0  0  0  0  0  0  0  0  0
    3.5534    0.6931    0.7390 N   0  0  0  0  0  0  0  0  0  0  0  0
    4.5163    0.6860    1.5258 C   0  0  0  0  0  0  0  0  0  0  0  0
    4.7644    1.7817    2.4471 N   0  0  0  0  0  0  0  0  0  0  0  0
    5.3705   -0.4097    1.5156 O   0  0  0  0  0  0  0  0  0  0  0  0
    5.0030   -1.5801    0.8884 C   0  0  2  0  0  0  0  0  0  0  0  0
    5.2459   -1.7988   -0.5677 C   0  0  0  0  0  0  0  0  0  0  0  0
    3.8887   -1.5719   -0.0794 C   0  0  2  0  0  0  0  0  0  0  0  0
    0.7385   -0.1880   -0.9687 C   0  0  0  0  0  0  0  0  0  0  0  0
   -3.5795   -1.1484   -2.2874 N   0  0  0  0  0  0  0  0  0  0  0  0
   -4.9045   -1.3443   -2.2335 C   0  0  0  0  0  0  0  0  0  0  0  0
   -5.6582   -0.5627   -1.3858 C   0  0  0  0  0  0  0  0  0  0  0  0
   -5.0356    0.3823   -0.6291 C   0  0  0  0  0  0  0  0  0  0  0  0
   -5.8063    1.1561    0.2259 C   0  0  0  0  0  0  0  0  0  0  0  0
   -3.3620    3.0416    1.5698 H   0  0  0  0  0  0  0  0  0  0  0  0
   -1.2382    0.4139   -2.5820 H   0  0  0  0  0  0  0  0  0  0  0  0
   -2.0742   -1.0368    0.7887 H   0  0  0  0  0  0  0  0  0  0  0  0
   -0.2961   -1.5627    2.4643 H   0  0  0  0  0  0  0  0  0  0  0  0
    4.4372    0.5107   -1.8082 H   0  0  0  0  0  0  0  0  0  0  0  0
    4.0366    2.4821    2.6078 H   0  0  0  0  0  0  0  0  0  0  0  0
    5.6879    1.8013    2.9103 H   0  0  0  0  0  0  0  0  0  0  0  0
    5.1030   -2.4766    1.5803 H   0  0  0  0  0  0  0  0  0  0  0  0
    5.8241   -1.0453   -1.1573 H   0  0  0  0  0  0  0  0  0  0  0  0
    5.5488   -2.8339   -0.8290 H   0  0  0  0  0  0  0  0  0  0  0  0
    3.2228   -2.4705   -0.0389 H   0  0  0  0  0  0  0  0  0  0  0  0
    1.0055    0.2086   -1.9371 H   0  0  0  0  0  0  0  0  0  0  0  0
   -5.4029   -2.0842   -2.8238 H   0  0  0  0  0  0  0  0  0  0  0  0
   -6.7400   -0.6950   -1.3147 H   0  0  0  0  0  0  0  0  0  0  0  0
   -6.8849    1.0134    0.2819 H   0  0  0  0  0  0  0  0  0  0  0  0
  1  2  3  0
  2  3  1  0
  3  4  2  0
  4  5  1  0
  5  6  2  0
  6  7  1  0
  7  8  1  0
  8  9  1  0
  9 10  2  0
 10 11  1  0
 11 12  2  0
 12 13  1  0
 12 14  1  0
 14 15  1  0
 15 16  1  6
 16 17  1  0
 16 18  1  0
 15 19  1  0
 19 20  2  0
 20 21  1  0
 20 22  1  0
 22 23  1  0
 23 24  1  0
 24 25  1  0
 14 26  2  0
  7 27  2  0
 27 28  1  0
 28 29  2  0
 29 30  1  0
 30 31  2  0
 31  3  1  0
 30  6  1  0
 26  9  1  0
 25 15  1  0
 25 23  1  0
  4 32  1  0
  8 33  1  0
 10 34  1  0
 11 35  1  0
 16 36  1  0
 21 37  1  0
 21 38  1  0
 23 39  1  1
 24 40  1  0
 24 41  1  0
 25 42  1  1
 26 43  1  0
 28 44  1  0
 29 45  1  0
 31 46  1  0
M  END
$$$$
