
     RDKit          3D

 33 35  0  0  0  0  0  0  0  0999 V2000
   -2.5125   -1.8640    2.2122 O   0  0  0  0  0  0  0  0  0  0  0  0
   -2.4932   -0.9790    1.2279 C   0  0  0  0  0  0  0  0  0  0  0  0
   -1.1429   -0.6772    0.8534 C   0  0  0  0  0  0  0  0  0  0  0  0
   -0.6393    0.0921   -0.0536 C   0  0  0  0  0  0  0  0  0  0  0  0
    0.8133    0.2559   -0.2649 C   0  0  0  0  0  0  0  0  0  0  0  0
    1.2379    1.1223   -1.2838 C   0  0  0  0  0  0  0  0  0  0  0  0
    2.5635    1.3243   -1.5380 C   0  0  0  0  0  0  0  0  0  0  0  0
    3.5463    0.6947   -0.8151 C   0  0  0  0  0  0  0  0  0  0  0  0
    4.8801    0.8947   -1.0671 C   0  0  0  0  0  0  0  0  0  0  0  0
    5.7964    0.2226   -0.2938 C   0  0  0  0  0  0  0  0  0  0  0  0
    5.4134   -0.6386    0.7185 C   0  0  0  0  0  0  0  0  0  0  0  0
    4.0778   -0.8317    0.9624 C   0  0  0  0  0  0  0  0  0  0  0  0
    3.1186   -0.1676    0.1989 C   0  0  0  0  0  0  0  0  0  0  0  0
    1.7789   -0.3734    0.4578 C   0  0  0  0  0  0  0  0  0  0  0  0
   -3.7733   -0.5333    0.7667 C   0  0  0  0  0  0  0  0  0  0  0  0
   -4.0508    0.4577   -0.1317 C   0  0  0  0  0  0  0  0  0  0  0  0
   -5.3584    0.7802   -0.5406 C   0  0  0  0  0  0  0  0  0  0  0  0
   -6.4266    0.0926   -0.0363 C   0  0  0  0  0  0  0  0  0  0  0  0
   -6.1626   -0.8777    0.8442 N   0  0  0  0  0  0  0  0  0  0  0  0
   -4.9277   -1.1969    1.2426 C   0  0  0  0  0  0  0  0  0  0  0  0
   -0.3256   -1.1976    1.4490 H   0  0  0  0  0  0  0  0  0  0  0  0
   -1.2766    0.6323   -0.7024 H   0  0  0  0  0  0  0  0  0  0  0  0
    0.5144    1.6360   -1.8746 H   0  0  0  0  0  0  0  0  0  0  0  0
    2.8574    2.0067   -2.3398 H   0  0  0  0  0  0  0  0  0  0  0  0
    5.1602    1.5655   -1.8553 H   0  0  0  0  0  0  0  0  0  0  0  0
    6.8481    0.3742   -0.4854 H   0  0  0  0  0  0  0  0  0  0  0  0
    6.1284   -1.1772    1.3385 H   0  0  0  0  0  0  0  0  0  0  0  0
    3.7716   -1.5018    1.7501 H   0  0  0  0  0  0  0  0  0  0  0  0
    1.5508   -1.0541    1.2569 H   0  0  0  0  0  0  0  0  0  0  0  0
   -3.2386    1.0361   -0.5333 H   0  0  0  0  0  0  0  0  0  0  0  0
   -5.5252    1.5689   -1.2515 H   0  0  0  0  0  0  0  0  0  0  0  0
   -7.4541    0.3103   -0.3268 H   0  0  0  0  0  0  0  0  0  0  0  0
   -4.7495   -1.9969    1.9630 H   0  0  0  0  0  0  0  0  0  0  0  0
  1  2  2  0
  2  3  1  0
  3  4  2  0
  4  5  1  0
  5  6  2  0
  6  7  1  0
  7  8  2  0
  8  9  1  0
  9 10  2  0
 10 11  1  0
 11 12  2  0
 12 13  1  0
 13 14  2  0
  2 15  1  0
 15 16  2  0
 16 17  1  0
 17 18  2  0
 18 19  1  0
 19 20  2  0
 14  5  1  0
 20 15  1  0
 13  8  1  0
  3 21  1  0
  4 22  1  0
  6 23  1  0
  7 24  1  0
  9 25  1  0
 10 26  1  0
 11 27  1  0
 12 28  1  0
 14 29  1  0
 16 30  1  0
 17 31  1  0
 18 32  1  0
 20 33  1  0
M  END
$$$$
