
     RDKit          3D

 38 39  0  0  0  0  0  0  0  0999 V2000
    4.4948   -0.1095    1.3795 C   0  0  0  0  0  0  0  0  0  0  0  0
    3.3259   -0.7359    0.8311 N   0  0  0  0  0  0  0  0  0  0  0  0
    2.1646   -0.6925    1.6722 C   0  0  0  0  0  0  0  0  0  0  0  0
    0.9107   -1.0143    0.9382 C   0  0  0  0  0  0  0  0  0  0  0  0
    0.7141   -0.0619   -0.1337 N   0  0  0  0  0  0  0  0  0  0  0  0
    1.8870    0.8044   -0.3000 C   0  0  0  0  0  0  0  0  0  0  0  0
    3.0954   -0.1241   -0.4609 C   0  0  0  0  0  0  0  0  0  0  0  0
   -0.3039    0.2714   -1.0781 C   0  0  0  0  0  0  0  0  0  0  0  0
   -1.5790    0.7425   -0.8534 C   0  0  0  0  0  0  0  0  0  0  0  0
   -1.9840    0.9330    0.5804 C   0  0  0  0  0  0  0  0  0  0  0  0
   -3.2212    1.6764    0.5577 N   0  0  0  0  0  0  0  0  0  0  0  0
   -4.2804    1.1950    0.9718 N   0  0  0  0  0  0  0  0  0  0  0  0
   -4.3941   -0.0882    1.4961 C   0  0  0  0  0  0  0  0  0  0  0  0
   -4.2911   -1.5033    1.5164 N   0  0  0  0  0  0  0  0  0  0  0  0
   -5.0207    0.5174    2.9011 S   0  0  0  0  0  0  0  0  0  0  0  0
   -2.4333    1.0182   -1.9132 C   0  0  0  0  0  0  0  0  0  0  0  0
   -1.9398    0.7957   -3.1778 C   0  0  0  0  0  0  0  0  0  0  0  0
   -0.6814    0.3272   -3.4842 C   0  0  0  0  0  0  0  0  0  0  0  0
    0.1479    0.0632   -2.3934 C   0  0  0  0  0  0  0  0  0  0  0  0
    4.2574    0.5116    2.2660 H   0  0  0  0  0  0  0  0  0  0  0  0
    5.2696   -0.8829    1.5601 H   0  0  0  0  0  0  0  0  0  0  0  0
    4.9876    0.6144    0.6635 H   0  0  0  0  0  0  0  0  0  0  0  0
    2.2992   -1.5210    2.4308 H   0  0  0  0  0  0  0  0  0  0  0  0
    2.0221    0.2818    2.2076 H   0  0  0  0  0  0  0  0  0  0  0  0
    0.0522   -0.9129    1.6376 H   0  0  0  0  0  0  0  0  0  0  0  0
    0.8864   -2.0600    0.5526 H   0  0  0  0  0  0  0  0  0  0  0  0
    1.8652    1.3940   -1.2367 H   0  0  0  0  0  0  0  0  0  0  0  0
    2.0720    1.4536    0.5677 H   0  0  0  0  0  0  0  0  0  0  0  0
    2.9731   -0.8609   -1.2507 H   0  0  0  0  0  0  0  0  0  0  0  0
    3.9311    0.5627   -0.7720 H   0  0  0  0  0  0  0  0  0  0  0  0
   -2.0767   -0.0542    1.0325 H   0  0  0  0  0  0  0  0  0  0  0  0
   -1.1964    1.5103    1.1230 H   0  0  0  0  0  0  0  0  0  0  0  0
   -5.2087   -2.0140    1.7022 H   0  0  0  0  0  0  0  0  0  0  0  0
   -3.4808   -2.1359    1.3813 H   0  0  0  0  0  0  0  0  0  0  0  0
   -3.4246    1.3849   -1.7078 H   0  0  0  0  0  0  0  0  0  0  0  0
   -2.6201    1.0137   -4.0163 H   0  0  0  0  0  0  0  0  0  0  0  0
   -0.3491    0.1682   -4.5108 H   0  0  0  0  0  0  0  0  0  0  0  0
    1.1288   -0.3007   -2.6804 H   0  0  0  0  0  0  0  0  0  0  0  0
  1  2  1  0
  2  3  1  0
  3  4  1  0
  4  5  1  0
  5  6  1  0
  6  7  1  0
  5  8  1  0
  8  9  2  0
  9 10  1  0
 10 11  1  0
 11 12  2  0
 12 13  1  0
 13 14  1  0
 13 15  2  0
  9 16  1  0
 16 17  2  0
 17 18  1  0
 18 19  2  0
  7  2  1  0
 19  8  1  0
  1 20  1  0
  1 21  1  0
  1 22  1  0
  3 23  1  0
  3 24  1  0
  4 25  1  0
  4 26  1  0
  6 27  1  0
  6 28  1  0
  7 29  1  0
  7 30  1  0
 10 31  1  0
 10 32  1  0
 14 33  1  0
 14 34  1  0
 16 35  1  0
 17 36  1  0
 18 37  1  0
 19 38  1  0
M  END
$$$$
