
     RDKit          3D

 78 81  0  0  0  0  0  0  0  0999 V2000
   -0.5631   -3.2447   -5.0201 C   0  0  0  0  0  0  0  0  0  0  0  0
   -1.5505   -2.4161   -4.2330 C   0  0  0  0  0  0  0  0  0  0  0  0
   -1.9343   -3.0283   -3.0336 N   0  0  0  0  0  0  0  0  0  0  0  0
   -2.7213   -4.1973   -3.0498 C   0  0  0  0  0  0  0  0  0  0  0  0
   -2.0765   -5.4429   -3.5665 C   0  0  0  0  0  0  0  0  0  0  0  0
   -1.2669   -2.6635   -1.8500 C   0  0  0  0  0  0  0  0  0  0  0  0
   -1.6120   -1.2439   -1.4728 C   0  0  0  0  0  0  0  0  0  0  0  0
   -0.9147   -0.8557   -0.2354 N   0  0  0  0  0  0  0  0  0  0  0  0
   -1.6212   -1.1257    0.9755 C   0  0  0  0  0  0  0  0  0  0  0  0
   -2.5898   -0.0683    1.3827 C   0  0  0  0  0  0  0  0  0  0  0  0
   -3.9224   -0.1250    1.0166 C   0  0  0  0  0  0  0  0  0  0  0  0
   -4.8255    0.8612    1.3903 C   0  0  0  0  0  0  0  0  0  0  0  0
   -4.4364    1.9470    2.1464 C   0  0  0  0  0  0  0  0  0  0  0  0
   -5.4056    2.9658    2.5315 C   0  0  0  0  0  0  0  0  0  0  0  0
   -5.2478    3.6471    3.7207 C   0  0  0  0  0  0  0  0  0  0  0  0
   -6.1389    4.6143    4.1282 C   0  0  0  0  0  0  0  0  0  0  0  0
   -7.2348    4.9469    3.3619 C   0  0  0  0  0  0  0  0  0  0  0  0
   -8.3745    6.1851    3.8843 Cl  0  0  0  0  0  0  0  0  0  0  0  0
   -7.4070    4.2734    2.1682 C   0  0  0  0  0  0  0  0  0  0  0  0
   -6.5054    3.3028    1.7676 C   0  0  0  0  0  0  0  0  0  0  0  0
   -3.1100    2.0031    2.5104 C   0  0  0  0  0  0  0  0  0  0  0  0
   -2.2009    1.0157    2.1374 C   0  0  0  0  0  0  0  0  0  0  0  0
    0.3554   -0.2553   -0.3476 C   0  0  0  0  0  0  0  0  0  0  0  0
    0.8315   -0.0531   -1.4947 O   0  0  0  0  0  0  0  0  0  0  0  0
    1.2092    0.1711    0.7897 C   0  0  0  0  0  0  0  0  0  0  0  0
    2.5090   -0.4471    0.7501 N   0  0  0  0  0  0  0  0  0  0  0  0
    2.7502   -1.6207    1.3413 C   0  0  0  0  0  0  0  0  0  0  0  0
    3.9985   -2.2284    1.3068 C   0  0  0  0  0  0  0  0  0  0  0  0
    4.2684   -3.5153    1.9524 C   0  0  0  0  0  0  0  0  0  0  0  0
    5.0096   -1.5833    0.6351 C   0  0  0  0  0  0  0  0  0  0  0  0
    6.1825   -2.0917    0.5673 O   0  0  0  0  0  0  0  0  0  0  0  0
    4.7392   -0.4130    0.0544 N   0  0  0  0  0  0  0  0  0  0  0  0
    3.5252    0.1613    0.0975 C   0  0  0  0  0  0  0  0  0  0  0  0
    3.2584    1.7167   -0.7051 S   0  0  0  0  0  0  0  0  0  0  0  0
    4.7109    2.3713   -1.4994 C   0  0  0  0  0  0  0  0  0  0  0  0
    5.7912    2.7632   -0.5580 C   0  0  0  0  0  0  0  0  0  0  0  0
    6.8423    1.9158   -0.2808 C   0  0  0  0  0  0  0  0  0  0  0  0
    7.8478    2.2836    0.6192 C   0  0  0  0  0  0  0  0  0  0  0  0
    7.8135    3.4917    1.2456 C   0  0  0  0  0  0  0  0  0  0  0  0
    8.8018    3.8587    2.1337 F   0  0  0  0  0  0  0  0  0  0  0  0
    6.7657    4.3532    0.9774 C   0  0  0  0  0  0  0  0  0  0  0  0
    5.7788    3.9841    0.0901 C   0  0  0  0  0  0  0  0  0  0  0  0
   -0.0796   -2.5454   -5.7669 H   0  0  0  0  0  0  0  0  0  0  0  0
    0.3082   -3.5536   -4.3772 H   0  0  0  0  0  0  0  0  0  0  0  0
   -1.0256   -4.0813   -5.5570 H   0  0  0  0  0  0  0  0  0  0  0  0
   -1.0028   -1.4692   -3.9909 H   0  0  0  0  0  0  0  0  0  0  0  0
   -2.3935   -2.2130   -4.9396 H   0  0  0  0  0  0  0  0  0  0  0  0
   -3.7080   -4.0081   -3.5712 H   0  0  0  0  0  0  0  0  0  0  0  0
   -3.0585   -4.4117   -1.9872 H   0  0  0  0  0  0  0  0  0  0  0  0
   -2.4295   -5.7324   -4.5798 H   0  0  0  0  0  0  0  0  0  0  0  0
   -0.9915   -5.3627   -3.5319 H   0  0  0  0  0  0  0  0  0  0  0  0
   -2.4206   -6.2984   -2.9098 H   0  0  0  0  0  0  0  0  0  0  0  0
   -1.6067   -3.3055   -1.0153 H   0  0  0  0  0  0  0  0  0  0  0  0
   -0.1647   -2.7774   -1.9311 H   0  0  0  0  0  0  0  0  0  0  0  0
   -1.3393   -0.5032   -2.2355 H   0  0  0  0  0  0  0  0  0  0  0  0
   -2.7051   -1.1748   -1.3404 H   0  0  0  0  0  0  0  0  0  0  0  0
   -2.1631   -2.1177    0.8945 H   0  0  0  0  0  0  0  0  0  0  0  0
   -0.9095   -1.2518    1.8026 H   0  0  0  0  0  0  0  0  0  0  0  0
   -4.2600   -0.9584    0.4308 H   0  0  0  0  0  0  0  0  0  0  0  0
   -5.8821    0.8183    1.1013 H   0  0  0  0  0  0  0  0  0  0  0  0
   -4.3762    3.3852    4.3328 H   0  0  0  0  0  0  0  0  0  0  0  0
   -6.0096    5.1419    5.0564 H   0  0  0  0  0  0  0  0  0  0  0  0
   -8.2768    4.5330    1.5544 H   0  0  0  0  0  0  0  0  0  0  0  0
   -6.6628    2.7995    0.8425 H   0  0  0  0  0  0  0  0  0  0  0  0
   -2.8065    2.8644    3.1087 H   0  0  0  0  0  0  0  0  0  0  0  0
   -1.1630    1.1018    2.4489 H   0  0  0  0  0  0  0  0  0  0  0  0
    1.2773    1.2799    0.8231 H   0  0  0  0  0  0  0  0  0  0  0  0
    0.7633   -0.1103    1.7844 H   0  0  0  0  0  0  0  0  0  0  0  0
    1.9698   -2.1705    1.8901 H   0  0  0  0  0  0  0  0  0  0  0  0
    5.1498   -4.0169    1.5018 H   0  0  0  0  0  0  0  0  0  0  0  0
    4.4430   -3.3835    3.0221 H   0  0  0  0  0  0  0  0  0  0  0  0
    3.3894   -4.1841    1.7587 H   0  0  0  0  0  0  0  0  0  0  0  0
    5.1210    1.6783   -2.2904 H   0  0  0  0  0  0  0  0  0  0  0  0
    4.4232    3.2880   -2.0658 H   0  0  0  0  0  0  0  0  0  0  0  0
    6.9506    0.9596   -0.7380 H   0  0  0  0  0  0  0  0  0  0  0  0
    8.6586    1.6059    0.8205 H   0  0  0  0  0  0  0  0  0  0  0  0
    6.7158    5.3142    1.4606 H   0  0  0  0  0  0  0  0  0  0  0  0
    4.9353    4.6459   -0.1421 H   0  0  0  0  0  0  0  0  0  0  0  0
  1  2  1  0
  2  3  1  0
  3  4  1  0
  4  5  1  0
  3  6  1  0
  6  7  1  0
  7  8  1  0
  8  9  1  0
  9 10  1  0
 10 11  2  0
 11 12  1  0
 12 13  2  0
 13 14  1  0
 14 15  2  0
 15 16  1  0
 16 17  2  0
 17 18  1  0
 17 19  1  0
 19 20  2  0
 13 21  1  0
 21 22  2  0
  8 23  1  0
 23 24  2  0
 23 25  1  0
 25 26  1  0
 26 27  1  0
 27 28  2  0
 28 29  1  0
 28 30  1  0
 30 31  2  0
 30 32  1  0
 32 33  2  0
 33 34  1  0
 34 35  1  0
 35 36  1  0
 36 37  2  0
 37 38  1  0
 38 39  2  0
 39 40  1  0
 39 41  1  0
 41 42  2  0
 22 10  1  0
 33 26  1  0
 42 36  1  0
 20 14  1  0
  1 43  1  0
  1 44  1  0
  1 45  1  0
  2 46  1  0
  2 47  1  0
  4 48  1  0
  4 49  1  0
  5 50  1  0
  5 51  1  0
  5 52  1  0
  6 53  1  0
  6 54  1  0
  7 55  1  0
  7 56  1  0
  9 57  1  0
  9 58  1  0
 11 59  1  0
 12 60  1  0
 15 61  1  0
 16 62  1  0
 19 63  1  0
 20 64  1  0
 21 65  1  0
 22 66  1  0
 25 67  1  0
 25 68  1  0
 27 69  1  0
 29 70  1  0
 29 71  1  0
 29 72  1  0
 35 73  1  0
 35 74  1  0
 37 75  1  0
 38 76  1  0
 41 77  1  0
 42 78  1  0
M  END
$$$$
