
     RDKit          3D

144148  0  0  0  0  0  0  0  0999 V2000
  -11.6690   -2.8880    1.9776 C   0  0  0  0  0  0  0  0  0  0  0  0
  -10.4760   -2.3613    1.5468 O   0  0  0  0  0  0  0  0  0  0  0  0
  -10.6355   -1.0833    0.9569 C   0  0  1  0  0  0  0  0  0  0  0  0
   -9.8319   -0.2421    1.6734 O   0  0  0  0  0  0  0  0  0  0  0  0
   -9.1600    0.7300    0.9869 C   0  0  2  0  0  0  0  0  0  0  0  0
  -10.0584    1.8646    0.5361 C   0  0  0  0  0  0  0  0  0  0  0  0
  -10.6598    2.4710    1.6623 O   0  0  0  0  0  0  0  0  0  0  0  0
  -11.7391    3.6440    1.1771 S   0  0  0  0  0  0  0  0  0  0  0  0
  -13.1426    2.9655    0.5067 O   0  0  0  0  0  0  0  0  0  0  0  0
  -11.1376    4.5428    0.1193 O   0  0  0  0  0  0  0  0  0  0  0  0
  -12.0856    4.5186    2.3486 O   0  0  0  0  0  0  0  0  0  0  0  0
   -8.2309    0.2409   -0.0894 C   0  0  1  0  0  0  0  0  0  0  0  0
   -6.9205    0.0570    0.3301 O   0  0  0  0  0  0  0  0  0  0  0  0
   -5.9665    0.6196   -0.5140 C   0  0  2  0  0  0  0  0  0  0  0  0
   -5.2157   -0.3250   -1.1632 O   0  0  0  0  0  0  0  0  0  0  0  0
   -4.1231   -0.7184   -0.3786 C   0  0  2  0  0  0  0  0  0  0  0  0
   -3.0599    0.3619   -0.4197 C   0  0  1  0  0  0  0  0  0  0  0  0
   -2.1485    0.2342   -1.4359 O   0  0  0  0  0  0  0  0  0  0  0  0
   -0.8222    0.1956   -1.0517 C   0  0  1  0  0  0  0  0  0  0  0  0
   -0.3392   -1.1041   -1.3595 O   0  0  0  0  0  0  0  0  0  0  0  0
    0.8995   -1.2918   -0.7381 C   0  0  2  0  0  0  0  0  0  0  0  0
    0.7334   -1.8755    0.6440 C   0  0  0  0  0  0  0  0  0  0  0  0
    0.1267   -3.1034    0.6049 O   0  0  0  0  0  0  0  0  0  0  0  0
   -0.0166   -3.8490    2.0853 S   0  0  0  0  0  0  0  0  0  0  0  0
    0.4142   -5.4757    2.0086 O   0  0  0  0  0  0  0  0  0  0  0  0
    0.7880   -3.1969    3.1527 O   0  0  0  0  0  0  0  0  0  0  0  0
   -1.4821   -3.8005    2.4668 O   0  0  0  0  0  0  0  0  0  0  0  0
    1.7756   -0.0700   -0.7832 C   0  0  1  0  0  0  0  0  0  0  0  0
    3.1057   -0.4938   -0.8794 O   0  0  0  0  0  0  0  0  0  0  0  0
    3.9405    0.0290    0.0980 C   0  0  2  0  0  0  0  0  0  0  0  0
    4.8410    0.9397   -0.4701 O   0  0  0  0  0  0  0  0  0  0  0  0
    6.0323    1.0002    0.2285 C   0  0  1  0  0  0  0  0  0  0  0  0
    6.8286   -0.2520    0.1470 C   0  0  1  0  0  0  0  0  0  0  0  0
    7.9816   -0.2244    0.9197 O   0  0  0  0  0  0  0  0  0  0  0  0
    9.1618   -0.2853    0.2355 C   0  0  1  0  0  0  0  0  0  0  0  0
   10.0383    0.7340    0.5017 O   0  0  0  0  0  0  0  0  0  0  0  0
   10.4619    0.7901    1.8121 C   0  0  2  0  0  0  0  0  0  0  0  0
   11.5565    1.8364    1.9743 C   0  0  0  0  0  0  0  0  0  0  0  0
   11.1326    3.1120    1.6252 O   0  0  0  0  0  0  0  0  0  0  0  0
   12.3635    4.2459    1.8637 S   0  0  0  0  0  0  0  0  0  0  0  0
   13.8765    3.4984    1.7035 O   0  0  0  0  0  0  0  0  0  0  0  0
   12.2930    4.7756    3.2557 O   0  0  0  0  0  0  0  0  0  0  0  0
   12.2523    5.3737    0.8829 O   0  0  0  0  0  0  0  0  0  0  0  0
   10.8256   -0.5047    2.4451 C   0  0  1  0  0  0  0  0  0  0  0  0
   10.8175   -0.3422    3.8294 O   0  0  0  0  0  0  0  0  0  0  0  0
   10.0504   -1.6932    1.9953 C   0  0  2  0  0  0  0  0  0  0  0  0
   10.6120   -2.8932    2.3567 O   0  0  0  0  0  0  0  0  0  0  0  0
    9.8140   -1.6565    0.5134 C   0  0  1  0  0  0  0  0  0  0  0  0
    8.8783   -2.6850    0.1841 N   0  0  0  0  0  0  0  0  0  0  0  0
    9.3783   -3.7659   -1.0354 S   0  0  0  0  0  0  0  0  0  0  0  0
    9.6309   -2.9395   -2.4723 O   0  0  0  0  0  0  0  0  0  0  0  0
    8.2295   -4.7356   -1.2669 O   0  0  0  0  0  0  0  0  0  0  0  0
   10.5629   -4.5883   -0.6380 O   0  0  0  0  0  0  0  0  0  0  0  0
    5.9645   -1.4271    0.4018 C   0  0  2  0  0  0  0  0  0  0  0  0
    5.8340   -2.2250   -0.7140 O   0  0  0  0  0  0  0  0  0  0  0  0
    4.6303   -0.9813    0.9498 C   0  0  1  0  0  0  0  0  0  0  0  0
    4.7044   -0.5494    2.2671 O   0  0  0  0  0  0  0  0  0  0  0  0
    6.7956    2.1414   -0.3909 C   0  0  0  0  0  0  0  0  0  0  0  0
    7.5011    3.1870   -0.9547 O   0  0  0  0  0  0  0  0  0  0  0  0
    6.0669    2.6321   -1.2947 O   0  0  0  0  0  0  0  0  0  0  0  0
    1.3925    0.6959   -2.0569 C   0  0  2  0  0  0  0  0  0  0  0  0
    2.2800    1.7063   -2.3255 O   0  0  0  0  0  0  0  0  0  0  0  0
    3.0790    1.4993   -3.7953 S   0  0  0  0  0  0  0  0  0  0  0  0
    4.3392    0.3892   -3.6534 O   0  0  0  0  0  0  0  0  0  0  0  0
    3.6915    2.8336   -4.1680 O   0  0  0  0  0  0  0  0  0  0  0  0
    2.1501    1.1134   -4.8951 O   0  0  0  0  0  0  0  0  0  0  0  0
   -0.0368    1.2146   -1.8238 C   0  0  1  0  0  0  0  0  0  0  0  0
   -0.6840    1.4262   -3.0970 N   0  0  0  0  0  0  0  0  0  0  0  0
   -0.9523    3.0567   -3.4668 S   0  0  0  0  0  0  0  0  0  0  0  0
    0.4740    3.9414   -3.5773 O   0  0  0  0  0  0  0  0  0  0  0  0
   -1.7690    3.7018   -2.3950 O   0  0  0  0  0  0  0  0  0  0  0  0
   -1.7529    3.1652   -4.7366 O   0  0  0  0  0  0  0  0  0  0  0  0
   -3.7517    1.7265   -0.4813 C   0  0  2  0  0  0  0  0  0  0  0  0
   -2.9431    2.6354    0.2074 O   0  0  0  0  0  0  0  0  0  0  0  0
   -5.1355    1.6608    0.1091 C   0  0  1  0  0  0  0  0  0  0  0  0
   -5.7150    2.9177   -0.1204 O   0  0  0  0  0  0  0  0  0  0  0  0
   -5.9527    3.7507    1.3181 S   0  0  0  0  0  0  0  0  0  0  0  0
   -6.3433    2.7010    2.5718 O   0  0  0  0  0  0  0  0  0  0  0  0
   -7.1266    4.6654    1.1163 O   0  0  0  0  0  0  0  0  0  0  0  0
   -4.7623    4.5904    1.6261 O   0  0  0  0  0  0  0  0  0  0  0  0
   -3.6608   -2.0251   -0.8780 C   0  0  0  0  0  0  0  0  0  0  0  0
   -3.5923   -3.1564   -1.6665 O   0  0  0  0  0  0  0  0  0  0  0  0
   -2.7370   -2.7455   -0.4339 O   0  0  0  0  0  0  0  0  0  0  0  0
   -8.6842   -1.1776   -0.4972 C   0  0  2  0  0  0  0  0  0  0  0  0
   -8.2507   -1.4958   -1.7765 O   0  0  0  0  0  0  0  0  0  0  0  0
  -10.1943   -1.2595   -0.4788 C   0  0  1  0  0  0  0  0  0  0  0  0
  -10.5502   -2.6041   -0.8948 N   0  0  0  0  0  0  0  0  0  0  0  0
  -11.5401   -2.5604   -2.3236 S   0  0  0  0  0  0  0  0  0  0  0  0
  -12.9642   -1.7375   -1.9950 O   0  0  0  0  0  0  0  0  0  0  0  0
  -10.8234   -1.7705   -3.4109 O   0  0  0  0  0  0  0  0  0  0  0  0
  -11.7788   -3.9337   -2.8402 O   0  0  0  0  0  0  0  0  0  0  0  0
  -12.2022   -2.2903    2.7426 H   0  0  0  0  0  0  0  0  0  0  0  0
  -11.4479   -3.8764    2.4322 H   0  0  0  0  0  0  0  0  0  0  0  0
  -12.3278   -3.1072    1.0906 H   0  0  0  0  0  0  0  0  0  0  0  0
  -11.7239   -0.8877    1.0275 H   0  0  0  0  0  0  0  0  0  0  0  0
   -8.4804    1.2113    1.7554 H   0  0  0  0  0  0  0  0  0  0  0  0
  -10.8488    1.5541   -0.1713 H   0  0  0  0  0  0  0  0  0  0  0  0
   -9.4811    2.6710    0.0396 H   0  0  0  0  0  0  0  0  0  0  0  0
  -13.5687    2.4444    1.2540 H   0  0  0  0  0  0  0  0  0  0  0  0
   -8.3522    0.8241   -1.0047 H   0  0  0  0  0  0  0  0  0  0  0  0
   -6.5902    1.1036   -1.3291 H   0  0  0  0  0  0  0  0  0  0  0  0
   -4.5230   -0.8433    0.6479 H   0  0  0  0  0  0  0  0  0  0  0  0
   -2.5341    0.3605    0.5471 H   0  0  0  0  0  0  0  0  0  0  0  0
   -0.7747    0.3434    0.0502 H   0  0  0  0  0  0  0  0  0  0  0  0
    1.4209   -2.0865   -1.3331 H   0  0  0  0  0  0  0  0  0  0  0  0
    1.6994   -1.9744    1.1547 H   0  0  0  0  0  0  0  0  0  0  0  0
    0.1491   -1.1533    1.2894 H   0  0  0  0  0  0  0  0  0  0  0  0
    0.6854   -5.8237    2.8949 H   0  0  0  0  0  0  0  0  0  0  0  0
    1.6793    0.5960    0.0769 H   0  0  0  0  0  0  0  0  0  0  0  0
    3.3137    0.6601    0.7615 H   0  0  0  0  0  0  0  0  0  0  0  0
    5.7834    1.2561    1.2793 H   0  0  0  0  0  0  0  0  0  0  0  0
    7.2172   -0.3281   -0.9145 H   0  0  0  0  0  0  0  0  0  0  0  0
    8.9607   -0.3150   -0.8527 H   0  0  0  0  0  0  0  0  0  0  0  0
    9.5836    1.1892    2.4019 H   0  0  0  0  0  0  0  0  0  0  0  0
   12.4348    1.6181    1.3443 H   0  0  0  0  0  0  0  0  0  0  0  0
   11.8300    1.8924    3.0569 H   0  0  0  0  0  0  0  0  0  0  0  0
   13.9859    2.7877    2.3758 H   0  0  0  0  0  0  0  0  0  0  0  0
   11.9067   -0.7131    2.1930 H   0  0  0  0  0  0  0  0  0  0  0  0
    9.9513    0.0002    4.1811 H   0  0  0  0  0  0  0  0  0  0  0  0
    9.0397   -1.6421    2.4834 H   0  0  0  0  0  0  0  0  0  0  0  0
   11.6033   -2.9086    2.3009 H   0  0  0  0  0  0  0  0  0  0  0  0
   10.7027   -1.7730   -0.1052 H   0  0  0  0  0  0  0  0  0  0  0  0
    8.5177   -3.1884    1.0295 H   0  0  0  0  0  0  0  0  0  0  0  0
   10.0756   -3.5410   -3.1167 H   0  0  0  0  0  0  0  0  0  0  0  0
    6.4155   -2.0220    1.2560 H   0  0  0  0  0  0  0  0  0  0  0  0
    6.0315   -3.1605   -0.4615 H   0  0  0  0  0  0  0  0  0  0  0  0
    4.0120   -1.9174    0.9792 H   0  0  0  0  0  0  0  0  0  0  0  0
    5.5918   -0.8257    2.6452 H   0  0  0  0  0  0  0  0  0  0  0  0
    8.5252    3.1508   -0.8610 H   0  0  0  0  0  0  0  0  0  0  0  0
    1.3669   -0.0467   -2.8664 H   0  0  0  0  0  0  0  0  0  0  0  0
    3.9998   -0.5351   -3.6209 H   0  0  0  0  0  0  0  0  0  0  0  0
    0.0957    2.1489   -1.2774 H   0  0  0  0  0  0  0  0  0  0  0  0
   -0.3895    0.8088   -3.8565 H   0  0  0  0  0  0  0  0  0  0  0  0
    0.9524    3.7828   -4.4326 H   0  0  0  0  0  0  0  0  0  0  0  0
   -3.7407    2.0257   -1.5446 H   0  0  0  0  0  0  0  0  0  0  0  0
   -2.3581    2.1892    0.8857 H   0  0  0  0  0  0  0  0  0  0  0  0
   -4.9729    1.5049    1.2125 H   0  0  0  0  0  0  0  0  0  0  0  0
   -6.2617    3.2220    3.4232 H   0  0  0  0  0  0  0  0  0  0  0  0
   -4.3902   -3.6921   -1.9696 H   0  0  0  0  0  0  0  0  0  0  0  0
   -8.2874   -1.9256    0.2027 H   0  0  0  0  0  0  0  0  0  0  0  0
   -8.1283   -0.7288   -2.3683 H   0  0  0  0  0  0  0  0  0  0  0  0
  -10.6601   -0.5831   -1.1933 H   0  0  0  0  0  0  0  0  0  0  0  0
   -9.7149   -3.2059   -1.0712 H   0  0  0  0  0  0  0  0  0  0  0  0
  -13.4575   -2.2896   -1.3515 H   0  0  0  0  0  0  0  0  0  0  0  0
  1  2  1  0
  2  3  1  0
  3  4  1  0
  4  5  1  0
  5  6  1  0
  6  7  1  0
  7  8  1  0
  8  9  1  0
  8 10  2  0
  8 11  2  0
  5 12  1  0
 12 13  1  0
 13 14  1  0
 14 15  1  0
 15 16  1  0
 16 17  1  0
 17 18  1  0
 18 19  1  0
 19 20  1  0
 20 21  1  0
 21 22  1  0
 22 23  1  0
 23 24  1  0
 24 25  1  0
 24 26  2  0
 24 27  2  0
 21 28  1  0
 28 29  1  0
 29 30  1  0
 30 31  1  0
 31 32  1  0
 32 33  1  0
 33 34  1  0
 34 35  1  0
 35 36  1  0
 36 37  1  0
 37 38  1  0
 38 39  1  0
 39 40  1  0
 40 41  1  0
 40 42  2  0
 40 43  2  0
 37 44  1  0
 44 45  1  0
 44 46  1  0
 46 47  1  0
 46 48  1  0
 48 49  1  0
 49 50  1  0
 50 51  1  0
 50 52  2  0
 50 53  2  0
 33 54  1  0
 54 55  1  0
 54 56  1  0
 56 57  1  0
 32 58  1  0
 58 59  1  0
 58 60  2  0
 28 61  1  0
 61 62  1  0
 62 63  1  0
 63 64  1  0
 63 65  2  0
 63 66  2  0
 61 67  1  0
 67 68  1  0
 68 69  1  0
 69 70  1  0
 69 71  2  0
 69 72  2  0
 17 73  1  0
 73 74  1  0
 73 75  1  0
 75 76  1  0
 76 77  1  0
 77 78  1  0
 77 79  2  0
 77 80  2  0
 16 81  1  0
 81 82  1  0
 81 83  2  0
 12 84  1  0
 84 85  1  0
 84 86  1  0
 86 87  1  0
 87 88  1  0
 88 89  1  0
 88 90  2  0
 88 91  2  0
 86  3  1  0
 75 14  1  0
 67 19  1  0
 56 30  1  0
 48 35  1  0
  1 92  1  0
  1 93  1  0
  1 94  1  0
  3 95  1  6
  5 96  1  1
  6 97  1  0
  6 98  1  0
  9 99  1  0
 12100  1  6
 14101  1  6
 16102  1  1
 17103  1  1
 19104  1  1
 21105  1  6
 22106  1  0
 22107  1  0
 25108  1  0
 28109  1  1
 30110  1  1
 32111  1  1
 33112  1  6
 35113  1  6
 37114  1  1
 38115  1  0
 38116  1  0
 41117  1  0
 44118  1  6
 45119  1  0
 46120  1  1
 47121  1  0
 48122  1  6
 49123  1  0
 51124  1  0
 54125  1  1
 55126  1  0
 56127  1  1
 57128  1  0
 59129  1  0
 61130  1  6
 64131  1  0
 67132  1  1
 68133  1  0
 70134  1  0
 73135  1  6
 74136  1  0
 75137  1  1
 78138  1  0
 82139  1  0
 84140  1  1
 85141  1  0
 86142  1  6
 87143  1  0
 89144  1  0
M  END
$$$$
