
     RDKit          3D

 95 98  0  0  0  0  0  0  0  0999 V2000
   -0.0092   -0.3322    2.5849 C   0  0  0  0  0  0  0  0  0  0  0  0
    1.1500   -0.1849    1.6574 C   0  0  0  0  0  0  0  0  0  0  0  0
    2.4034   -0.6275    1.9919 C   0  0  0  0  0  0  0  0  0  0  0  0
    3.4729   -0.4763    1.0986 C   0  0  0  0  0  0  0  0  0  0  0  0
    4.7342   -0.9332    1.5269 N   0  0  0  0  0  0  0  0  0  0  0  0
    5.9457   -0.8843    0.7519 C   0  0  0  0  0  0  0  0  0  0  0  0
    7.1552   -1.2377    1.6119 C   0  0  0  0  0  0  0  0  0  0  0  0
    8.3113   -1.4217    0.6513 C   0  0  0  0  0  0  0  0  0  0  0  0
    8.6063   -0.1053    0.1165 N   0  0  0  0  0  0  0  0  0  0  0  0
    9.9242    0.1702   -0.3926 C   0  0  0  0  0  0  0  0  0  0  0  0
   10.1525    1.3086   -0.8883 O   0  0  0  0  0  0  0  0  0  0  0  0
   10.9936   -0.8233   -0.3462 C   0  0  0  0  0  0  0  0  0  0  0  0
   12.2975   -0.2252   -0.8397 C   0  0  0  0  0  0  0  0  0  0  0  0
   12.7358    0.8812   -0.0898 N   0  0  0  0  0  0  0  0  0  0  0  0
   13.1666    0.6934    1.2395 C   0  0  0  0  0  0  0  0  0  0  0  0
   14.4357   -0.0232    1.4207 C   0  0  0  0  0  0  0  0  0  0  0  0
   15.0845   -0.4297    0.4332 O   0  0  0  0  0  0  0  0  0  0  0  0
   14.9220   -0.2544    2.6906 O   0  0  0  0  0  0  0  0  0  0  0  0
    7.5839    0.8989    0.1245 C   0  0  0  0  0  0  0  0  0  0  0  0
    6.1757    0.4025    0.0610 C   0  0  0  0  0  0  0  0  0  0  0  0
    3.2079    0.1130   -0.0790 N   0  0  0  0  0  0  0  0  0  0  0  0
    1.9899    0.5479   -0.4183 C   0  0  0  0  0  0  0  0  0  0  0  0
    1.6979    1.1613   -1.6505 N   0  0  0  0  0  0  0  0  0  0  0  0
    1.0293    0.3978   -2.6627 C   0  0  0  0  0  0  0  0  0  0  0  0
   -0.2633   -0.1537   -2.1747 C   0  0  0  0  0  0  0  0  0  0  0  0
   -1.5267    0.4434   -2.2384 C   0  0  0  0  0  0  0  0  0  0  0  0
   -2.4174   -0.3764   -1.6905 N   0  0  0  0  0  0  0  0  0  0  0  0
   -3.8794   -0.2219   -1.5415 C   0  0  0  0  0  0  0  0  0  0  0  0
   -4.5067   -0.8082   -2.7506 C   0  0  0  0  0  0  0  0  0  0  0  0
   -5.9681   -0.8649   -2.8794 C   0  0  0  0  0  0  0  0  0  0  0  0
   -6.7738    0.2674   -2.8629 N   0  0  0  0  0  0  0  0  0  0  0  0
   -7.0447    1.0006   -1.6971 C   0  0  0  0  0  0  0  0  0  0  0  0
   -7.9217    0.2301   -0.7144 C   0  0  0  0  0  0  0  0  0  0  0  0
   -8.1904    1.1098    0.4714 C   0  0  0  0  0  0  0  0  0  0  0  0
   -9.0061    0.4128    1.4363 N   0  0  0  0  0  0  0  0  0  0  0  0
  -10.3426    0.1446    1.0314 C   0  0  0  0  0  0  0  0  0  0  0  0
  -11.1884    1.3515    0.7729 C   0  0  0  0  0  0  0  0  0  0  0  0
  -12.4129    0.9119   -0.0040 C   0  0  0  0  0  0  0  0  0  0  0  0
  -12.9115   -0.4413    0.4573 C   0  0  0  0  0  0  0  0  0  0  0  0
  -12.5142   -0.7636    1.8648 C   0  0  0  0  0  0  0  0  0  0  0  0
  -11.0304   -0.6637    2.1154 C   0  0  0  0  0  0  0  0  0  0  0  0
   -1.7678   -1.4666   -1.2823 N   0  0  0  0  0  0  0  0  0  0  0  0
   -0.4722   -1.3289   -1.5758 N   0  0  0  0  0  0  0  0  0  0  0  0
    0.9854    0.3960    0.4471 N   0  0  0  0  0  0  0  0  0  0  0  0
   -0.7354   -1.0094    2.0858 H   0  0  0  0  0  0  0  0  0  0  0  0
    0.3017   -0.6351    3.5808 H   0  0  0  0  0  0  0  0  0  0  0  0
   -0.4972    0.6721    2.6400 H   0  0  0  0  0  0  0  0  0  0  0  0
    2.5518   -1.0947    2.9622 H   0  0  0  0  0  0  0  0  0  0  0  0
    4.8469   -1.3599    2.4973 H   0  0  0  0  0  0  0  0  0  0  0  0
    5.9202   -1.7141   -0.0221 H   0  0  0  0  0  0  0  0  0  0  0  0
    7.3195   -0.3764    2.2949 H   0  0  0  0  0  0  0  0  0  0  0  0
    6.9441   -2.1412    2.1994 H   0  0  0  0  0  0  0  0  0  0  0  0
    7.9463   -2.0926   -0.1536 H   0  0  0  0  0  0  0  0  0  0  0  0
    9.1511   -1.8418    1.2133 H   0  0  0  0  0  0  0  0  0  0  0  0
   11.1599   -1.1607    0.7170 H   0  0  0  0  0  0  0  0  0  0  0  0
   10.7443   -1.7128   -0.9676 H   0  0  0  0  0  0  0  0  0  0  0  0
   12.0811    0.1427   -1.8900 H   0  0  0  0  0  0  0  0  0  0  0  0
   13.0753   -1.0164   -0.9665 H   0  0  0  0  0  0  0  0  0  0  0  0
   12.3311    1.7731   -0.3441 H   0  0  0  0  0  0  0  0  0  0  0  0
   13.2201    1.6771    1.7995 H   0  0  0  0  0  0  0  0  0  0  0  0
   12.3287    0.1588    1.7901 H   0  0  0  0  0  0  0  0  0  0  0  0
   15.6283   -0.9455    2.9215 H   0  0  0  0  0  0  0  0  0  0  0  0
    7.7798    1.6939   -0.6376 H   0  0  0  0  0  0  0  0  0  0  0  0
    7.6832    1.4257    1.1232 H   0  0  0  0  0  0  0  0  0  0  0  0
    5.5171    1.1964    0.5158 H   0  0  0  0  0  0  0  0  0  0  0  0
    5.7999    0.3403   -0.9940 H   0  0  0  0  0  0  0  0  0  0  0  0
    1.9656    2.1440   -1.8154 H   0  0  0  0  0  0  0  0  0  0  0  0
    1.6699   -0.4306   -2.9909 H   0  0  0  0  0  0  0  0  0  0  0  0
    0.8442    1.0632   -3.5362 H   0  0  0  0  0  0  0  0  0  0  0  0
   -1.7330    1.4100   -2.6634 H   0  0  0  0  0  0  0  0  0  0  0  0
   -4.0541    0.8953   -1.5812 H   0  0  0  0  0  0  0  0  0  0  0  0
   -4.2070   -0.6491   -0.5919 H   0  0  0  0  0  0  0  0  0  0  0  0
   -4.1157   -1.8782   -2.8635 H   0  0  0  0  0  0  0  0  0  0  0  0
   -4.1049   -0.3137   -3.7008 H   0  0  0  0  0  0  0  0  0  0  0  0
   -6.3717   -1.6918   -2.1863 H   0  0  0  0  0  0  0  0  0  0  0  0
   -6.1654   -1.3774   -3.8967 H   0  0  0  0  0  0  0  0  0  0  0  0
   -6.6254    0.8770   -3.6794 H   0  0  0  0  0  0  0  0  0  0  0  0
   -6.2343    1.4403   -1.1294 H   0  0  0  0  0  0  0  0  0  0  0  0
   -7.7061    1.8759   -2.0056 H   0  0  0  0  0  0  0  0  0  0  0  0
   -7.3208   -0.6539   -0.3590 H   0  0  0  0  0  0  0  0  0  0  0  0
   -8.8290   -0.1163   -1.2450 H   0  0  0  0  0  0  0  0  0  0  0  0
   -7.2146    1.3295    0.9571 H   0  0  0  0  0  0  0  0  0  0  0  0
   -8.6141    2.0953    0.1830 H   0  0  0  0  0  0  0  0  0  0  0  0
   -8.4879   -0.3839    1.8042 H   0  0  0  0  0  0  0  0  0  0  0  0
  -10.2883   -0.4900    0.1072 H   0  0  0  0  0  0  0  0  0  0  0  0
  -10.6933    2.1448    0.1863 H   0  0  0  0  0  0  0  0  0  0  0  0
  -11.5702    1.7128    1.7646 H   0  0  0  0  0  0  0  0  0  0  0  0
  -12.1627    0.7958   -1.0740 H   0  0  0  0  0  0  0  0  0  0  0  0
  -13.1676    1.7150    0.0726 H   0  0  0  0  0  0  0  0  0  0  0  0
  -14.0197   -0.4247    0.4167 H   0  0  0  0  0  0  0  0  0  0  0  0
  -12.5855   -1.2640   -0.2235 H   0  0  0  0  0  0  0  0  0  0  0  0
  -13.1006   -0.2031    2.6337 H   0  0  0  0  0  0  0  0  0  0  0  0
  -12.7871   -1.8349    2.0266 H   0  0  0  0  0  0  0  0  0  0  0  0
  -10.8827   -0.1322    3.0726 H   0  0  0  0  0  0  0  0  0  0  0  0
  -10.5496   -1.6669    2.1738 H   0  0  0  0  0  0  0  0  0  0  0  0
  1  2  1  0
  2  3  2  0
  3  4  1  0
  4  5  1  0
  5  6  1  0
  6  7  1  0
  7  8  1  0
  8  9  1  0
  9 10  1  0
 10 11  2  0
 10 12  1  0
 12 13  1  0
 13 14  1  0
 14 15  1  0
 15 16  1  0
 16 17  2  0
 16 18  1  0
  9 19  1  0
 19 20  1  0
  4 21  2  0
 21 22  1  0
 22 23  1  0
 23 24  1  0
 24 25  1  0
 25 26  2  0
 26 27  1  0
 27 28  1  0
 28 29  1  0
 29 30  1  0
 30 31  1  0
 31 32  1  0
 32 33  1  0
 33 34  1  0
 34 35  1  0
 35 36  1  0
 36 37  1  0
 37 38  1  0
 38 39  1  0
 39 40  1  0
 40 41  1  0
 27 42  1  0
 42 43  2  0
 22 44  2  0
 44  2  1  0
 20  6  1  0
 43 25  1  0
 41 36  1  0
  1 45  1  0
  1 46  1  0
  1 47  1  0
  3 48  1  0
  5 49  1  0
  6 50  1  0
  7 51  1  0
  7 52  1  0
  8 53  1  0
  8 54  1  0
 12 55  1  0
 12 56  1  0
 13 57  1  0
 13 58  1  0
 14 59  1  0
 15 60  1  0
 15 61  1  0
 18 62  1  0
 19 63  1  0
 19 64  1  0
 20 65  1  0
 20 66  1  0
 23 67  1  0
 24 68  1  0
 24 69  1  0
 26 70  1  0
 28 71  1  0
 28 72  1  0
 29 73  1  0
 29 74  1  0
 30 75  1  0
 30 76  1  0
 31 77  1  0
 32 78  1  0
 32 79  1  0
 33 80  1  0
 33 81  1  0
 34 82  1  0
 34 83  1  0
 35 84  1  0
 36 85  1  0
 37 86  1  0
 37 87  1  0
 38 88  1  0
 38 89  1  0
 39 90  1  0
 39 91  1  0
 40 92  1  0
 40 93  1  0
 41 94  1  0
 41 95  1  0
M  END
$$$$
