
     RDKit          3D

 42 45  0  0  0  0  0  0  0  0999 V2000
   -1.0112    2.5056    1.3331 O   0  0  0  0  0  0  0  0  0  0  0  0
   -2.0961    2.0661    0.8626 C   0  0  0  0  0  0  0  0  0  0  0  0
   -3.1702    2.9276    0.5463 N   0  0  0  0  0  0  0  0  0  0  0  0
   -4.3889    2.4520    0.0198 C   0  0  0  0  0  0  0  0  0  0  0  0
   -5.3565    3.2163   -0.2665 O   0  0  0  0  0  0  0  0  0  0  0  0
   -4.5053    1.0051   -0.1922 C   0  0  0  0  0  0  0  0  0  0  0  0
   -5.6934    0.5372   -0.7060 C   0  0  0  0  0  0  0  0  0  0  0  0
   -5.8810   -0.8056   -0.9336 C   0  0  0  0  0  0  0  0  0  0  0  0
   -4.8469   -1.6482   -0.6306 C   0  0  0  0  0  0  0  0  0  0  0  0
   -5.0618   -3.7268   -0.9536 I   0  0  0  0  0  0  0  0  0  0  0  0
   -3.6295   -1.2170   -0.1097 C   0  0  0  0  0  0  0  0  0  0  0  0
   -3.4513    0.1292    0.1146 C   0  0  0  0  0  0  0  0  0  0  0  0
   -2.1876    0.5941    0.6573 C   0  0  0  0  0  0  0  0  0  0  0  0
   -1.1676   -0.1325    0.9682 C   0  0  0  0  0  0  0  0  0  0  0  0
   -0.8929   -1.5075    0.9159 N   0  0  0  0  0  0  0  0  0  0  0  0
   -0.0841   -1.9727   -0.2047 C   0  0  0  0  0  0  0  0  0  0  0  0
    1.2264   -1.3076   -0.1764 C   0  0  0  0  0  0  0  0  0  0  0  0
    1.4757   -0.1187   -0.8163 C   0  0  0  0  0  0  0  0  0  0  0  0
    2.7232    0.4700   -0.7624 C   0  0  0  0  0  0  0  0  0  0  0  0
    3.7099   -0.1084   -0.0857 N   0  0  0  0  0  0  0  0  0  0  0  0
    5.0265    0.4290    0.0220 C   0  0  0  0  0  0  0  0  0  0  0  0
    5.9453    0.6406   -0.9790 C   0  0  0  0  0  0  0  0  0  0  0  0
    7.0784    1.1750   -0.4138 C   0  0  0  0  0  0  0  0  0  0  0  0
    6.8613    1.2868    0.8875 O   0  0  0  0  0  0  0  0  0  0  0  0
    5.6401    0.8471    1.1745 C   0  0  0  0  0  0  0  0  0  0  0  0
    3.4932   -1.2809    0.5549 C   0  0  0  0  0  0  0  0  0  0  0  0
    4.4187   -1.8530    1.2075 O   0  0  0  0  0  0  0  0  0  0  0  0
    2.2737   -1.8824    0.5180 C   0  0  0  0  0  0  0  0  0  0  0  0
   -3.0720    3.9641    0.7039 H   0  0  0  0  0  0  0  0  0  0  0  0
   -6.4911    1.2486   -0.9326 H   0  0  0  0  0  0  0  0  0  0  0  0
   -6.8136   -1.1741   -1.3370 H   0  0  0  0  0  0  0  0  0  0  0  0
   -2.8625   -1.9128    0.1068 H   0  0  0  0  0  0  0  0  0  0  0  0
   -0.2627    0.4160    1.3818 H   0  0  0  0  0  0  0  0  0  0  0  0
   -1.1930   -2.2317    1.6122 H   0  0  0  0  0  0  0  0  0  0  0  0
   -0.5649   -1.7014   -1.1789 H   0  0  0  0  0  0  0  0  0  0  0  0
    0.0199   -3.0618   -0.2069 H   0  0  0  0  0  0  0  0  0  0  0  0
    0.6903    0.3845   -1.3809 H   0  0  0  0  0  0  0  0  0  0  0  0
    2.9322    1.4104   -1.2646 H   0  0  0  0  0  0  0  0  0  0  0  0
    5.8373    0.4382   -2.0299 H   0  0  0  0  0  0  0  0  0  0  0  0
    8.0138    1.4769   -0.8636 H   0  0  0  0  0  0  0  0  0  0  0  0
    5.2086    0.8262    2.1609 H   0  0  0  0  0  0  0  0  0  0  0  0
    2.1095   -2.8035    1.0233 H   0  0  0  0  0  0  0  0  0  0  0  0
  1  2  2  0
  2  3  1  0
  3  4  1  0
  4  5  2  0
  4  6  1  0
  6  7  2  0
  7  8  1  0
  8  9  2  0
  9 10  1  0
  9 11  1  0
 11 12  2  0
 12 13  1  0
 13 14  2  3
 14 15  1  0
 15 16  1  0
 16 17  1  0
 17 18  1  0
 18 19  2  0
 19 20  1  0
 20 21  1  0
 21 22  1  0
 22 23  2  0
 23 24  1  0
 24 25  1  0
 20 26  1  0
 26 27  2  0
 26 28  1  0
 13  2  1  0
 28 17  2  0
 12  6  1  0
 25 21  2  0
  3 29  1  0
  7 30  1  0
  8 31  1  0
 11 32  1  0
 14 33  1  0
 15 34  1  0
 16 35  1  0
 16 36  1  0
 18 37  1  0
 19 38  1  0
 22 39  1  0
 23 40  1  0
 25 41  1  0
 28 42  1  0
M  END
$$$$
