
     RDKit          3D

 62 66  0  0  0  0  0  0  0  0999 V2000
    6.8096   -0.6446   -0.1786 C   0  0  0  0  0  0  0  0  0  0  0  0
    6.3182    0.6725    0.1018 N   0  0  0  0  0  0  0  0  0  0  0  0
    7.3242    1.7601    0.1675 C   0  0  0  0  0  0  0  0  0  0  0  0
    4.9786    1.0235    0.3167 C   0  0  0  0  0  0  0  0  0  0  0  0
    4.7464    2.2635    0.5491 O   0  0  0  0  0  0  0  0  0  0  0  0
    3.8053    0.1554    0.3099 C   0  0  1  0  0  0  0  0  0  0  0  0
    3.6378   -0.5862   -0.9961 C   0  0  0  0  0  0  0  0  0  0  0  0
    2.3517   -1.3822   -0.9639 C   0  0  0  0  0  0  0  0  0  0  0  0
    1.5104   -1.1678    0.2435 C   0  0  2  0  0  0  0  0  0  0  0  0
    0.7273    0.0107    0.0445 O   0  0  0  0  0  0  0  0  0  0  0  0
   -0.6510   -0.0619   -0.0672 C   0  0  0  0  0  0  0  0  0  0  0  0
   -1.3151    1.1162   -0.2556 N   0  0  0  0  0  0  0  0  0  0  0  0
   -2.6439    1.1472   -0.3745 C   0  0  0  0  0  0  0  0  0  0  0  0
   -3.3287    2.4297   -0.5762 C   0  0  0  0  0  0  0  0  0  0  0  0
   -4.7150    2.4254   -0.6962 C   0  0  0  0  0  0  0  0  0  0  0  0
   -5.4243    3.5826   -0.8862 C   0  0  0  0  0  0  0  0  0  0  0  0
   -4.7849    4.7991   -0.9654 C   0  0  0  0  0  0  0  0  0  0  0  0
   -3.4020    4.7871   -0.8439 C   0  0  0  0  0  0  0  0  0  0  0  0
   -2.5129    5.8040   -0.8793 N   0  0  0  0  0  0  0  0  0  0  0  0
   -1.3008    5.3132   -0.7196 N   0  0  0  0  0  0  0  0  0  0  0  0
   -1.3476    3.9657   -0.5743 C   0  0  0  0  0  0  0  0  0  0  0  0
   -2.6787    3.6270   -0.6524 C   0  0  0  0  0  0  0  0  0  0  0  0
   -3.3040   -0.0113   -0.3033 N   0  0  0  0  0  0  0  0  0  0  0  0
   -2.7057   -1.1971   -0.1198 C   0  0  0  0  0  0  0  0  0  0  0  0
   -3.4284   -2.4164   -0.0473 N   0  0  0  0  0  0  0  0  0  0  0  0
   -2.7911   -3.6963    0.1491 C   0  0  0  0  0  0  0  0  0  0  0  0
   -3.6966   -4.7681   -0.4350 C   0  0  0  0  0  0  0  0  0  0  0  0
   -4.3879   -4.3327   -1.5390 O   0  0  0  0  0  0  0  0  0  0  0  0
   -5.2451   -3.2864   -1.3159 C   0  0  0  0  0  0  0  0  0  0  0  0
   -4.8694   -2.3984   -0.1734 C   0  0  0  0  0  0  0  0  0  0  0  0
   -1.3456   -1.2093   -0.0002 N   0  0  0  0  0  0  0  0  0  0  0  0
    2.2216   -1.1808    1.5541 C   0  0  0  0  0  0  0  0  0  0  0  0
    3.7193   -0.8592    1.4002 C   0  0  0  0  0  0  0  0  0  0  0  0
    6.3590   -1.4619    0.3779 H   0  0  0  0  0  0  0  0  0  0  0  0
    7.9121   -0.6889    0.0689 H   0  0  0  0  0  0  0  0  0  0  0  0
    6.7721   -0.9118   -1.2680 H   0  0  0  0  0  0  0  0  0  0  0  0
    8.3241    1.3337    0.3858 H   0  0  0  0  0  0  0  0  0  0  0  0
    7.0499    2.4442    0.9868 H   0  0  0  0  0  0  0  0  0  0  0  0
    7.3165    2.3290   -0.7688 H   0  0  0  0  0  0  0  0  0  0  0  0
    2.8789    0.8011    0.4231 H   0  0  0  0  0  0  0  0  0  0  0  0
    3.6847    0.1438   -1.8091 H   0  0  0  0  0  0  0  0  0  0  0  0
    4.4511   -1.3367   -1.0598 H   0  0  0  0  0  0  0  0  0  0  0  0
    2.5064   -2.4650   -1.1619 H   0  0  0  0  0  0  0  0  0  0  0  0
    1.7532   -1.0182   -1.8498 H   0  0  0  0  0  0  0  0  0  0  0  0
    0.7898   -2.0429    0.2780 H   0  0  0  0  0  0  0  0  0  0  0  0
   -5.2087    1.4467   -0.6307 H   0  0  0  0  0  0  0  0  0  0  0  0
   -6.5219    3.5373   -0.9765 H   0  0  0  0  0  0  0  0  0  0  0  0
   -5.3288    5.7374   -1.1167 H   0  0  0  0  0  0  0  0  0  0  0  0
   -2.7410    6.8123   -1.0109 H   0  0  0  0  0  0  0  0  0  0  0  0
   -0.5257    3.2926   -0.4282 H   0  0  0  0  0  0  0  0  0  0  0  0
   -2.7573   -3.8756    1.2617 H   0  0  0  0  0  0  0  0  0  0  0  0
   -1.7670   -3.7495   -0.2239 H   0  0  0  0  0  0  0  0  0  0  0  0
   -4.3502   -5.2085    0.3549 H   0  0  0  0  0  0  0  0  0  0  0  0
   -3.0253   -5.5903   -0.7624 H   0  0  0  0  0  0  0  0  0  0  0  0
   -5.2399   -2.6571   -2.2522 H   0  0  0  0  0  0  0  0  0  0  0  0
   -6.3024   -3.5953   -1.1855 H   0  0  0  0  0  0  0  0  0  0  0  0
   -5.3566   -2.6935    0.7801 H   0  0  0  0  0  0  0  0  0  0  0  0
   -5.2396   -1.3672   -0.4040 H   0  0  0  0  0  0  0  0  0  0  0  0
    2.1715   -2.1397    2.0939 H   0  0  0  0  0  0  0  0  0  0  0  0
    1.8107   -0.3697    2.1951 H   0  0  0  0  0  0  0  0  0  0  0  0
    4.1526   -1.8204    1.0414 H   0  0  0  0  0  0  0  0  0  0  0  0
    4.1602   -0.5699    2.3516 H   0  0  0  0  0  0  0  0  0  0  0  0
  1  2  1  0
  2  3  1  0
  2  4  1  0
  4  5  2  0
  4  6  1  0
  6  7  1  0
  7  8  1  0
  8  9  1  0
  9 10  1  0
 10 11  1  0
 11 12  2  0
 12 13  1  0
 13 14  1  0
 14 15  2  0
 15 16  1  0
 16 17  2  0
 17 18  1  0
 18 19  1  0
 19 20  1  0
 20 21  2  0
 21 22  1  0
 13 23  2  0
 23 24  1  0
 24 25  1  0
 25 26  1  0
 26 27  1  0
 27 28  1  0
 28 29  1  0
 29 30  1  0
 24 31  2  0
  9 32  1  0
 32 33  1  0
 33  6  1  0
 31 11  1  0
 22 14  1  0
 30 25  1  0
 22 18  2  0
  1 34  1  0
  1 35  1  0
  1 36  1  0
  3 37  1  0
  3 38  1  0
  3 39  1  0
  6 40  1  1
  7 41  1  0
  7 42  1  0
  8 43  1  0
  8 44  1  0
  9 45  1  1
 15 46  1  0
 16 47  1  0
 17 48  1  0
 19 49  1  0
 21 50  1  0
 26 51  1  0
 26 52  1  0
 27 53  1  0
 27 54  1  0
 29 55  1  0
 29 56  1  0
 30 57  1  0
 30 58  1  0
 32 59  1  0
 32 60  1  0
 33 61  1  0
 33 62  1  0
M  END
$$$$
