
     RDKit          3D

 69 72  0  0  0  0  0  0  0  0999 V2000
   -8.9698    0.3519    0.8275 C   0  0  0  0  0  0  0  0  0  0  0  0
   -8.4055   -1.0297    0.5472 C   0  0  0  0  0  0  0  0  0  0  0  0
   -7.0700   -1.1409    1.0596 N   0  0  0  0  0  0  0  0  0  0  0  0
   -5.9743   -0.8183    0.3108 C   0  0  0  0  0  0  0  0  0  0  0  0
   -4.6990   -0.9317    0.8226 C   0  0  0  0  0  0  0  0  0  0  0  0
   -3.5543   -0.5749   -0.0095 C   0  0  0  0  0  0  0  0  0  0  0  0
   -2.3414   -1.2087    0.1363 C   0  0  0  0  0  0  0  0  0  0  0  0
   -1.2337   -0.8758   -0.6547 C   0  0  0  0  0  0  0  0  0  0  0  0
   -1.3175    0.0905   -1.6004 C   0  0  0  0  0  0  0  0  0  0  0  0
   -0.2019    0.5189   -2.5170 C   0  0  2  0  0  0  0  0  0  0  0  0
   -0.3243   -0.2446   -3.7907 C   0  0  0  0  0  0  0  0  0  0  0  0
    1.0716    0.5419   -1.9078 N   0  0  0  0  0  0  0  0  0  0  0  0
    1.7609    1.8013   -1.5899 C   0  0  0  0  0  0  0  0  0  0  0  0
    2.2207    1.7338   -0.1417 C   0  0  0  0  0  0  0  0  0  0  0  0
    3.2182    0.5964    0.0797 C   0  0  2  0  0  0  0  0  0  0  0  0
    3.4837    0.4945    1.5374 C   0  0  0  0  0  0  0  0  0  0  0  0
    4.4071   -0.5649    1.9949 C   0  0  0  0  0  0  0  0  0  0  0  0
    3.9479   -1.9654    1.6351 C   0  0  0  0  0  0  0  0  0  0  0  0
    5.8503   -0.4045    1.6493 C   0  0  0  0  0  0  0  0  0  0  0  0
    4.3534   -0.5454    3.4186 O   0  0  0  0  0  0  0  0  0  0  0  0
    4.4008    0.9882   -0.7440 C   0  0  0  0  0  0  0  0  0  0  0  0
    4.6775    0.4230   -1.9557 C   0  0  0  0  0  0  0  0  0  0  0  0
    5.7527    0.8403   -2.6894 C   0  0  0  0  0  0  0  0  0  0  0  0
    6.6040    1.8411   -2.2506 C   0  0  0  0  0  0  0  0  0  0  0  0
    6.2908    2.3912   -1.0151 C   0  0  0  0  0  0  0  0  0  0  0  0
    5.2141    1.9833   -0.2654 C   0  0  0  0  0  0  0  0  0  0  0  0
    2.6174   -0.5931   -0.4011 O   0  0  0  0  0  0  0  0  0  0  0  0
    1.7861   -0.6249   -1.5244 C   0  0  0  0  0  0  0  0  0  0  0  0
    1.6670   -1.6673   -2.1947 O   0  0  0  0  0  0  0  0  0  0  0  0
   -2.5331    0.7322   -1.7529 C   0  0  0  0  0  0  0  0  0  0  0  0
   -3.6258    0.4078   -0.9764 C   0  0  0  0  0  0  0  0  0  0  0  0
   -4.5540   -1.3837    2.1240 C   0  0  0  0  0  0  0  0  0  0  0  0
   -5.6598   -1.7062    2.8711 C   0  0  0  0  0  0  0  0  0  0  0  0
   -6.9173   -1.5829    2.3338 C   0  0  0  0  0  0  0  0  0  0  0  0
   -7.9262   -1.8810    3.0267 O   0  0  0  0  0  0  0  0  0  0  0  0
   -8.9009    0.5743    1.9155 H   0  0  0  0  0  0  0  0  0  0  0  0
   -8.4010    1.1506    0.3058 H   0  0  0  0  0  0  0  0  0  0  0  0
  -10.0491    0.3833    0.5747 H   0  0  0  0  0  0  0  0  0  0  0  0
   -9.0583   -1.7470    1.0697 H   0  0  0  0  0  0  0  0  0  0  0  0
   -8.4442   -1.1615   -0.5647 H   0  0  0  0  0  0  0  0  0  0  0  0
   -6.1820   -0.4717   -0.7025 H   0  0  0  0  0  0  0  0  0  0  0  0
   -2.2373   -1.9952    0.8905 H   0  0  0  0  0  0  0  0  0  0  0  0
   -0.3237   -1.4040   -0.4825 H   0  0  0  0  0  0  0  0  0  0  0  0
   -0.4645    1.6139   -2.7674 H   0  0  0  0  0  0  0  0  0  0  0  0
   -0.4565   -1.3360   -3.5714 H   0  0  0  0  0  0  0  0  0  0  0  0
    0.5610   -0.0530   -4.4321 H   0  0  0  0  0  0  0  0  0  0  0  0
   -1.2758    0.0752   -4.2909 H   0  0  0  0  0  0  0  0  0  0  0  0
    2.6464    1.9382   -2.2248 H   0  0  0  0  0  0  0  0  0  0  0  0
    1.0946    2.6534   -1.6967 H   0  0  0  0  0  0  0  0  0  0  0  0
    1.3350    1.6250    0.5342 H   0  0  0  0  0  0  0  0  0  0  0  0
    2.7224    2.7016    0.0751 H   0  0  0  0  0  0  0  0  0  0  0  0
    2.4856    0.4072    2.0619 H   0  0  0  0  0  0  0  0  0  0  0  0
    3.8794    1.4692    1.9235 H   0  0  0  0  0  0  0  0  0  0  0  0
    4.1521   -2.2370    0.5965 H   0  0  0  0  0  0  0  0  0  0  0  0
    4.5633   -2.6590    2.2729 H   0  0  0  0  0  0  0  0  0  0  0  0
    2.8942   -2.1330    1.9478 H   0  0  0  0  0  0  0  0  0  0  0  0
    6.2351    0.5691    1.9943 H   0  0  0  0  0  0  0  0  0  0  0  0
    6.3982   -1.1869    2.2716 H   0  0  0  0  0  0  0  0  0  0  0  0
    6.1024   -0.5898    0.5844 H   0  0  0  0  0  0  0  0  0  0  0  0
    3.4808   -0.9564    3.6427 H   0  0  0  0  0  0  0  0  0  0  0  0
    4.0612   -0.3523   -2.3456 H   0  0  0  0  0  0  0  0  0  0  0  0
    6.0090    0.4132   -3.6653 H   0  0  0  0  0  0  0  0  0  0  0  0
    7.4585    2.1772   -2.8274 H   0  0  0  0  0  0  0  0  0  0  0  0
    6.9599    3.1855   -0.6581 H   0  0  0  0  0  0  0  0  0  0  0  0
    5.0692    2.4916    0.6866 H   0  0  0  0  0  0  0  0  0  0  0  0
   -2.6430    1.5127   -2.4989 H   0  0  0  0  0  0  0  0  0  0  0  0
   -4.5936    0.9000   -1.0787 H   0  0  0  0  0  0  0  0  0  0  0  0
   -3.5709   -1.4886    2.5680 H   0  0  0  0  0  0  0  0  0  0  0  0
   -5.5238   -2.0621    3.8994 H   0  0  0  0  0  0  0  0  0  0  0  0
  1  2  1  0
  2  3  1  0
  3  4  1  0
  4  5  2  0
  5  6  1  0
  6  7  2  0
  7  8  1  0
  8  9  2  0
  9 10  1  0
 10 11  1  0
 10 12  1  0
 12 13  1  0
 13 14  1  0
 14 15  1  0
 15 16  1  1
 16 17  1  0
 17 18  1  0
 17 19  1  0
 17 20  1  0
 15 21  1  0
 21 22  2  0
 22 23  1  0
 23 24  2  0
 24 25  1  0
 25 26  2  0
 15 27  1  0
 27 28  1  0
 28 29  2  0
  9 30  1  0
 30 31  2  0
  5 32  1  0
 32 33  2  0
 33 34  1  0
 34 35  2  0
 34  3  1  0
 31  6  1  0
 28 12  1  0
 26 21  1  0
  1 36  1  0
  1 37  1  0
  1 38  1  0
  2 39  1  0
  2 40  1  0
  4 41  1  0
  7 42  1  0
  8 43  1  0
 10 44  1  6
 11 45  1  0
 11 46  1  0
 11 47  1  0
 13 48  1  0
 13 49  1  0
 14 50  1  0
 14 51  1  0
 16 52  1  0
 16 53  1  0
 18 54  1  0
 18 55  1  0
 18 56  1  0
 19 57  1  0
 19 58  1  0
 19 59  1  0
 20 60  1  0
 22 61  1  0
 23 62  1  0
 24 63  1  0
 25 64  1  0
 26 65  1  0
 30 66  1  0
 31 67  1  0
 32 68  1  0
 33 69  1  0
M  END
$$$$
