
     RDKit          3D

 64 68  0  0  0  0  0  0  0  0999 V2000
    8.4556    0.9022   -2.2943 C   0  0  0  0  0  0  0  0  0  0  0  0
    7.9985    0.2502   -1.1123 N   0  0  0  0  0  0  0  0  0  0  0  0
    7.4916    1.1003   -0.0928 C   0  0  0  0  0  0  0  0  0  0  0  0
    6.6154    0.3716    0.9037 C   0  0  0  0  0  0  0  0  0  0  0  0
    5.5536   -0.2599    0.1278 N   0  0  0  0  0  0  0  0  0  0  0  0
    4.1731   -0.0168    0.3206 C   0  0  0  0  0  0  0  0  0  0  0  0
    3.2813   -0.9616   -0.1237 C   0  0  0  0  0  0  0  0  0  0  0  0
    1.9253   -0.7219    0.0569 C   0  0  0  0  0  0  0  0  0  0  0  0
    1.4170    0.3920    0.6465 C   0  0  0  0  0  0  0  0  0  0  0  0
    0.0526    0.6267    0.8562 N   0  0  0  0  0  0  0  0  0  0  0  0
   -0.9133   -0.3982    0.9694 C   0  0  0  0  0  0  0  0  0  0  0  0
   -0.5856   -1.7007    1.0145 N   0  0  0  0  0  0  0  0  0  0  0  0
   -1.5324   -2.6374    1.1325 C   0  0  0  0  0  0  0  0  0  0  0  0
   -2.8474   -2.2928    1.2095 C   0  0  0  0  0  0  0  0  0  0  0  0
   -3.9832   -3.0622    1.3556 C   0  0  0  0  0  0  0  0  0  0  0  0
   -5.0265   -2.1647    1.3944 C   0  0  0  0  0  0  0  0  0  0  0  0
   -4.5342   -0.8814    1.2735 C   0  0  0  0  0  0  0  0  0  0  0  0
   -5.3620    0.2997    1.3306 C   0  0  0  0  0  0  0  0  0  0  0  0
   -6.1701    0.4902    2.4838 C   0  0  0  0  0  0  0  0  0  0  0  0
   -6.9981    1.5585    2.5707 C   0  0  0  0  0  0  0  0  0  0  0  0
   -7.0765    2.4815    1.5495 C   0  0  0  0  0  0  0  0  0  0  0  0
   -6.2913    2.2810    0.4471 C   0  0  0  0  0  0  0  0  0  0  0  0
   -5.4130    1.1849    0.3058 C   0  0  0  0  0  0  0  0  0  0  0  0
   -4.7158    1.1012   -0.8987 N   0  0  0  0  0  0  0  0  0  0  0  0
   -3.4299    1.6935   -1.1594 C   0  0  0  0  0  0  0  0  0  0  0  0
   -5.4413    0.2777   -2.2374 S   0  0  0  0  0  6  0  0  0  0  0  0
   -5.7118   -1.4048   -1.7910 C   0  0  0  0  0  0  0  0  0  0  0  0
   -6.7027    0.9617   -2.6782 O   0  0  0  0  0  0  0  0  0  0  0  0
   -4.5297    0.2931   -3.4517 O   0  0  0  0  0  0  0  0  0  0  0  0
   -3.2169   -0.9706    1.1641 N   0  0  0  0  0  0  0  0  0  0  0  0
   -2.2304   -0.1261    1.0487 N   0  0  0  0  0  0  0  0  0  0  0  0
    2.3456    1.3560    1.0980 C   0  0  0  0  0  0  0  0  0  0  0  0
    3.6893    1.1242    0.9230 C   0  0  0  0  0  0  0  0  0  0  0  0
    5.9781   -1.1719   -0.9024 C   0  0  0  0  0  0  0  0  0  0  0  0
    7.4178   -1.0315   -1.2604 C   0  0  0  0  0  0  0  0  0  0  0  0
    8.1651    1.9904   -2.2534 H   0  0  0  0  0  0  0  0  0  0  0  0
    9.5801    0.8789   -2.3643 H   0  0  0  0  0  0  0  0  0  0  0  0
    8.0585    0.4148   -3.1995 H   0  0  0  0  0  0  0  0  0  0  0  0
    6.8307    1.8646   -0.5943 H   0  0  0  0  0  0  0  0  0  0  0  0
    8.3000    1.6165    0.5064 H   0  0  0  0  0  0  0  0  0  0  0  0
    6.2037    1.0771    1.6173 H   0  0  0  0  0  0  0  0  0  0  0  0
    7.1891   -0.4453    1.4045 H   0  0  0  0  0  0  0  0  0  0  0  0
    3.6167   -1.8660   -0.5997 H   0  0  0  0  0  0  0  0  0  0  0  0
    1.2638   -1.4895   -0.3180 H   0  0  0  0  0  0  0  0  0  0  0  0
   -0.2797    1.6109    0.9342 H   0  0  0  0  0  0  0  0  0  0  0  0
   -1.2338   -3.6937    1.1680 H   0  0  0  0  0  0  0  0  0  0  0  0
   -4.0143   -4.1356    1.4216 H   0  0  0  0  0  0  0  0  0  0  0  0
   -6.0726   -2.4414    1.5047 H   0  0  0  0  0  0  0  0  0  0  0  0
   -6.0800   -0.2666    3.2779 H   0  0  0  0  0  0  0  0  0  0  0  0
   -7.6080    1.6703    3.4740 H   0  0  0  0  0  0  0  0  0  0  0  0
   -7.7485    3.3234    1.6510 H   0  0  0  0  0  0  0  0  0  0  0  0
   -6.3456    2.9973   -0.3606 H   0  0  0  0  0  0  0  0  0  0  0  0
   -2.7594    0.8985   -1.5739 H   0  0  0  0  0  0  0  0  0  0  0  0
   -3.4789    2.4499   -1.9778 H   0  0  0  0  0  0  0  0  0  0  0  0
   -2.9836    2.2081   -0.2967 H   0  0  0  0  0  0  0  0  0  0  0  0
   -6.4818   -1.4294   -0.9869 H   0  0  0  0  0  0  0  0  0  0  0  0
   -6.0378   -1.9793   -2.6854 H   0  0  0  0  0  0  0  0  0  0  0  0
   -4.7402   -1.8230   -1.4602 H   0  0  0  0  0  0  0  0  0  0  0  0
    1.9442    2.2347    1.5632 H   0  0  0  0  0  0  0  0  0  0  0  0
    4.3991    1.8877    1.2821 H   0  0  0  0  0  0  0  0  0  0  0  0
    5.3014   -1.1545   -1.7825 H   0  0  0  0  0  0  0  0  0  0  0  0
    5.8250   -2.2023   -0.4678 H   0  0  0  0  0  0  0  0  0  0  0  0
    8.0186   -1.8465   -0.7654 H   0  0  0  0  0  0  0  0  0  0  0  0
    7.4856   -1.2940   -2.3632 H   0  0  0  0  0  0  0  0  0  0  0  0
  1  2  1  0
  2  3  1  0
  3  4  1  0
  4  5  1  0
  5  6  1  0
  6  7  2  0
  7  8  1  0
  8  9  2  0
  9 10  1  0
 10 11  1  0
 11 12  1  0
 12 13  2  0
 13 14  1  0
 14 15  2  0
 15 16  1  0
 16 17  2  0
 17 18  1  0
 18 19  2  0
 19 20  1  0
 20 21  2  0
 21 22  1  0
 22 23  2  0
 23 24  1  0
 24 25  1  0
 24 26  1  0
 26 27  1  0
 26 28  2  0
 26 29  2  0
 17 30  1  0
 30 31  1  0
  9 32  1  0
 32 33  2  0
  5 34  1  0
 34 35  1  0
 35  2  1  0
 33  6  1  0
 31 11  2  0
 30 14  1  0
 23 18  1  0
  1 36  1  0
  1 37  1  0
  1 38  1  0
  3 39  1  0
  3 40  1  0
  4 41  1  0
  4 42  1  0
  7 43  1  0
  8 44  1  0
 10 45  1  0
 13 46  1  0
 15 47  1  0
 16 48  1  0
 19 49  1  0
 20 50  1  0
 21 51  1  0
 22 52  1  0
 25 53  1  0
 25 54  1  0
 25 55  1  0
 27 56  1  0
 27 57  1  0
 27 58  1  0
 32 59  1  0
 33 60  1  0
 34 61  1  0
 34 62  1  0
 35 63  1  0
 35 64  1  0
M  END
$$$$
