
     RDKit          3D

 66 69  0  0  0  0  0  0  0  0999 V2000
   -6.3791    0.0252    0.3800 C   0  0  2  0  0  0  0  0  0  0  0  0
   -6.4420   -0.1385   -1.0035 O   0  0  0  0  0  0  0  0  0  0  0  0
   -6.5716    1.1393   -0.4177 C   0  0  1  0  0  0  0  0  0  0  0  0
   -7.9773    1.6952   -0.5557 C   0  0  0  0  0  0  0  0  0  0  0  0
   -5.5016    2.1352   -0.6929 C   0  0  0  0  0  0  0  0  0  0  0  0
   -4.1657    1.8383   -0.1041 C   0  0  0  0  0  0  0  0  0  0  0  0
   -4.0383    0.3329   -0.0223 C   0  0  2  0  0  0  0  0  0  0  0  0
   -4.9838   -0.2365    0.9664 C   0  0  1  0  0  0  0  0  0  0  0  0
   -4.9782    0.3169    2.3365 C   0  0  0  0  0  0  0  0  0  0  0  0
   -4.7290   -1.7319    1.0324 C   0  0  0  0  0  0  0  0  0  0  0  0
   -3.9196   -2.1972   -0.1599 C   0  0  0  0  0  0  0  0  0  0  0  0
   -2.5847   -1.4824   -0.2349 C   0  0  0  0  0  0  0  0  0  0  0  0
   -2.6575   -0.0892    0.1026 N   0  0  1  0  0  4  0  0  0  0  0  0
   -2.0059    0.6010   -0.8866 O   0  0  0  0  0  1  0  0  0  0  0  0
   -2.0574    0.2754    1.3397 C   0  0  0  0  0  0  0  0  0  0  0  0
   -0.6082    0.0460    1.3039 C   0  0  0  0  0  0  0  0  0  0  0  0
   -0.1468    0.4007    2.4362 O   0  0  0  0  0  0  0  0  0  0  0  0
    0.3235   -0.4448    0.3627 N   0  0  0  0  0  0  0  0  0  0  0  0
    1.7185   -0.6174    0.4530 C   0  0  0  0  0  0  0  0  0  0  0  0
    2.3668   -1.1253   -0.6325 C   0  0  0  0  0  0  0  0  0  0  0  0
    3.7172   -1.3362   -0.6685 C   0  0  0  0  0  0  0  0  0  0  0  0
    4.4664   -1.0264    0.4329 C   0  0  0  0  0  0  0  0  0  0  0  0
    5.8887   -1.2647    0.3450 N   0  0  0  0  0  0  0  0  0  0  0  0
    6.7728   -0.2287   -0.1405 C   0  0  0  0  0  0  0  0  0  0  0  0
    5.8753    0.6438   -0.3478 O   0  0  0  0  0  0  0  0  0  0  0  0
    8.1309   -0.7981   -0.0992 C   0  0  0  0  0  0  0  0  0  0  0  0
    9.1906    0.1052   -0.6006 C   0  0  0  0  0  0  0  0  0  0  0  0
    9.0970    0.4782   -2.0323 C   0  0  0  0  0  0  0  0  0  0  0  0
    7.8670    1.1489   -2.4426 C   0  0  0  0  0  0  0  0  0  0  0  0
    7.6556    2.4796   -2.0925 O   0  0  0  0  0  0  0  0  0  0  0  0
    7.0038    0.4978   -3.1190 O   0  0  0  0  0  0  0  0  0  0  0  0
    3.8851   -0.5100    1.5671 C   0  0  0  0  0  0  0  0  0  0  0  0
    2.5259   -0.3283    1.5227 C   0  0  0  0  0  0  0  0  0  0  0  0
   -7.1787   -0.3943    1.0266 H   0  0  0  0  0  0  0  0  0  0  0  0
   -8.6688    1.0154   -1.0873 H   0  0  0  0  0  0  0  0  0  0  0  0
   -7.9788    2.6527   -1.1352 H   0  0  0  0  0  0  0  0  0  0  0  0
   -8.3874    1.9665    0.4400 H   0  0  0  0  0  0  0  0  0  0  0  0
   -5.8516    3.1232   -0.3062 H   0  0  0  0  0  0  0  0  0  0  0  0
   -5.4102    2.3044   -1.8059 H   0  0  0  0  0  0  0  0  0  0  0  0
   -3.3788    2.1659   -0.8447 H   0  0  0  0  0  0  0  0  0  0  0  0
   -3.9369    2.3677    0.8205 H   0  0  0  0  0  0  0  0  0  0  0  0
   -4.3586   -0.0373   -1.0310 H   0  0  0  0  0  0  0  0  0  0  0  0
   -6.0011    0.6493    2.6857 H   0  0  0  0  0  0  0  0  0  0  0  0
   -4.6901   -0.4378    3.1184 H   0  0  0  0  0  0  0  0  0  0  0  0
   -4.3414    1.1994    2.5182 H   0  0  0  0  0  0  0  0  0  0  0  0
   -5.7138   -2.2279    0.9813 H   0  0  0  0  0  0  0  0  0  0  0  0
   -4.2506   -2.0451    1.9846 H   0  0  0  0  0  0  0  0  0  0  0  0
   -4.5223   -2.1004   -1.0804 H   0  0  0  0  0  0  0  0  0  0  0  0
   -3.7267   -3.2805   -0.0136 H   0  0  0  0  0  0  0  0  0  0  0  0
   -1.8769   -2.0531    0.4374 H   0  0  0  0  0  0  0  0  0  0  0  0
   -2.2162   -1.6670   -1.2691 H   0  0  0  0  0  0  0  0  0  0  0  0
   -2.1907    1.3782    1.4539 H   0  0  0  0  0  0  0  0  0  0  0  0
   -2.4757   -0.2749    2.2124 H   0  0  0  0  0  0  0  0  0  0  0  0
   -0.1729   -0.6997   -0.5126 H   0  0  0  0  0  0  0  0  0  0  0  0
    1.8172   -1.3910   -1.5397 H   0  0  0  0  0  0  0  0  0  0  0  0
    4.1885   -1.7401   -1.5508 H   0  0  0  0  0  0  0  0  0  0  0  0
    5.9201   -2.2692    0.7066 H   0  0  0  0  0  0  0  0  0  0  0  0
    8.3778   -1.0400    0.9692 H   0  0  0  0  0  0  0  0  0  0  0  0
    8.1586   -1.7611   -0.6772 H   0  0  0  0  0  0  0  0  0  0  0  0
    9.3172    0.9993    0.0639 H   0  0  0  0  0  0  0  0  0  0  0  0
   10.1715   -0.4468   -0.4709 H   0  0  0  0  0  0  0  0  0  0  0  0
    9.2010   -0.4819   -2.6222 H   0  0  0  0  0  0  0  0  0  0  0  0
    9.9684    1.0946   -2.3748 H   0  0  0  0  0  0  0  0  0  0  0  0
    6.9054    3.0201   -2.5231 H   0  0  0  0  0  0  0  0  0  0  0  0
    4.4758   -0.2692    2.4263 H   0  0  0  0  0  0  0  0  0  0  0  0
    2.0882    0.0768    2.4200 H   0  0  0  0  0  0  0  0  0  0  0  0
  1  2  1  0
  2  3  1  0
  3  4  1  1
  3  5  1  0
  5  6  1  0
  6  7  1  0
  7  8  1  0
  8  9  1  1
  8 10  1  0
 10 11  1  0
 11 12  1  0
 12 13  1  0
 13 14  1  6
 13 15  1  0
 15 16  1  0
 16 17  2  0
 16 18  1  0
 18 19  1  0
 19 20  2  0
 20 21  1  0
 21 22  2  0
 22 23  1  0
 23 24  1  0
 24 25  2  0
 24 26  1  0
 26 27  1  0
 27 28  1  0
 28 29  1  0
 29 30  1  0
 29 31  2  0
 22 32  1  0
 32 33  2  0
  3  1  1  0
 13  7  1  0
 33 19  1  0
  8  1  1  0
  1 34  1  1
  4 35  1  0
  4 36  1  0
  4 37  1  0
  5 38  1  0
  5 39  1  0
  6 40  1  0
  6 41  1  0
  7 42  1  6
  9 43  1  0
  9 44  1  0
  9 45  1  0
 10 46  1  0
 10 47  1  0
 11 48  1  0
 11 49  1  0
 12 50  1  0
 12 51  1  0
 15 52  1  0
 15 53  1  0
 18 54  1  0
 20 55  1  0
 21 56  1  0
 23 57  1  0
 26 58  1  0
 26 59  1  0
 27 60  1  0
 27 61  1  0
 28 62  1  0
 28 63  1  0
 30 64  1  0
 32 65  1  0
 33 66  1  0
M  CHG  2  13   1  14  -1
M  END
$$$$
