
     RDKit          3D

 70 74  0  0  0  0  0  0  0  0999 V2000
    8.2725    2.4203    3.8866 C   0  0  0  0  0  0  0  0  0  0  0  0
    7.8099    1.1428    4.3607 N   0  0  0  0  0  0  0  0  0  0  0  0
    6.8166    0.4305    3.6148 C   0  0  0  0  0  0  0  0  0  0  0  0
    6.3412   -0.7556    4.0003 N   0  0  0  0  0  0  0  0  0  0  0  0
    5.4028   -1.4424    3.3093 C   0  0  0  0  0  0  0  0  0  0  0  0
    4.9011   -0.8975    2.1392 C   0  0  0  0  0  0  0  0  0  0  0  0
    3.9478   -1.5276    1.3796 C   0  0  0  0  0  0  0  0  0  0  0  0
    3.4550   -0.9755    0.2168 C   0  0  0  0  0  0  0  0  0  0  0  0
    2.4405   -1.6212   -0.6094 C   0  0  0  0  0  0  0  0  0  0  0  0
    1.3576   -0.8940   -1.1018 C   0  0  0  0  0  0  0  0  0  0  0  0
    0.3776   -1.4453   -1.8796 C   0  0  0  0  0  0  0  0  0  0  0  0
   -0.7551   -0.6861   -2.3967 C   0  0  0  0  0  0  0  0  0  0  0  0
   -1.6298   -1.2456   -3.1421 O   0  0  0  0  0  0  0  0  0  0  0  0
   -0.9568    0.6897   -2.1143 N   0  0  0  0  0  0  0  0  0  0  0  0
   -2.0764    1.4045   -2.6399 C   0  0  0  0  0  0  0  0  0  0  0  0
   -2.0184    2.0639   -3.8450 C   0  0  0  0  0  0  0  0  0  0  0  0
   -3.0886    2.7559   -4.3684 C   0  0  0  0  0  0  0  0  0  0  0  0
   -3.0046    3.4616   -5.6731 C   0  0  0  0  0  0  0  0  0  0  0  0
   -4.1666    3.2987   -6.4101 F   0  0  0  0  0  0  0  0  0  0  0  0
   -2.8468    4.8363   -5.4988 F   0  0  0  0  0  0  0  0  0  0  0  0
   -1.9751    2.9345   -6.4249 F   0  0  0  0  0  0  0  0  0  0  0  0
   -4.2430    2.7600   -3.6189 C   0  0  0  0  0  0  0  0  0  0  0  0
   -4.3449    2.1011   -2.3865 C   0  0  0  0  0  0  0  0  0  0  0  0
   -3.2604    1.4169   -1.8862 C   0  0  0  0  0  0  0  0  0  0  0  0
   -3.2268    0.7332   -0.7000 O   0  0  0  0  0  0  0  0  0  0  0  0
   -4.2731    0.6075    0.1851 C   0  0  0  0  0  0  0  0  0  0  0  0
   -3.9800    1.1981    1.5551 C   0  0  0  0  0  0  0  0  0  0  0  0
   -4.4266    0.2627    2.6571 C   0  0  0  0  0  0  0  0  0  0  0  0
   -5.7208   -0.3024    2.4539 N   0  0  0  0  0  0  0  0  0  0  0  0
   -5.9119   -1.3468    3.4562 C   0  0  0  0  0  0  0  0  0  0  0  0
   -5.9949   -0.8038    1.1472 C   0  0  0  0  0  0  0  0  0  0  0  0
   -4.7143   -0.8563    0.3467 C   0  0  0  0  0  0  0  0  0  0  0  0
    0.4581   -2.7839   -2.1957 C   0  0  0  0  0  0  0  0  0  0  0  0
    1.5059   -3.5342   -1.7322 C   0  0  0  0  0  0  0  0  0  0  0  0
    2.5005   -2.9527   -0.9368 C   0  0  0  0  0  0  0  0  0  0  0  0
    3.6029   -3.8212   -0.4756 C   0  0  0  0  0  0  0  0  0  0  0  0
    3.9816    0.2553   -0.1381 C   0  0  0  0  0  0  0  0  0  0  0  0
    4.9342    0.9133    0.5967 C   0  0  0  0  0  0  0  0  0  0  0  0
    5.3943    0.3234    1.7477 C   0  0  0  0  0  0  0  0  0  0  0  0
    6.3228    0.9506    2.4774 N   0  0  0  0  0  0  0  0  0  0  0  0
    9.3751    2.4922    4.0223 H   0  0  0  0  0  0  0  0  0  0  0  0
    8.0000    2.5216    2.7947 H   0  0  0  0  0  0  0  0  0  0  0  0
    7.8027    3.2791    4.4108 H   0  0  0  0  0  0  0  0  0  0  0  0
    8.1870    0.7330    5.2340 H   0  0  0  0  0  0  0  0  0  0  0  0
    5.0238   -2.3906    3.6181 H   0  0  0  0  0  0  0  0  0  0  0  0
    3.5844   -2.4830    1.7200 H   0  0  0  0  0  0  0  0  0  0  0  0
    1.3314    0.1439   -0.8340 H   0  0  0  0  0  0  0  0  0  0  0  0
   -0.2633    1.1710   -1.5091 H   0  0  0  0  0  0  0  0  0  0  0  0
   -1.0994    2.0451   -4.4135 H   0  0  0  0  0  0  0  0  0  0  0  0
   -5.1052    3.2831   -3.9795 H   0  0  0  0  0  0  0  0  0  0  0  0
   -5.2795    2.1351   -1.8325 H   0  0  0  0  0  0  0  0  0  0  0  0
   -5.1701    1.1294   -0.1801 H   0  0  0  0  0  0  0  0  0  0  0  0
   -4.4529    2.1855    1.7109 H   0  0  0  0  0  0  0  0  0  0  0  0
   -2.8904    1.3301    1.6670 H   0  0  0  0  0  0  0  0  0  0  0  0
   -3.6500   -0.5322    2.8178 H   0  0  0  0  0  0  0  0  0  0  0  0
   -4.4532    0.8527    3.5995 H   0  0  0  0  0  0  0  0  0  0  0  0
   -5.3711   -2.2741    3.1888 H   0  0  0  0  0  0  0  0  0  0  0  0
   -6.9930   -1.4870    3.5779 H   0  0  0  0  0  0  0  0  0  0  0  0
   -5.5161   -0.9428    4.4156 H   0  0  0  0  0  0  0  0  0  0  0  0
   -6.7296   -0.1147    0.6475 H   0  0  0  0  0  0  0  0  0  0  0  0
   -6.4576   -1.8098    1.2404 H   0  0  0  0  0  0  0  0  0  0  0  0
   -4.9391   -1.3098   -0.6208 H   0  0  0  0  0  0  0  0  0  0  0  0
   -3.9614   -1.4348    0.9194 H   0  0  0  0  0  0  0  0  0  0  0  0
   -0.3118   -3.2214   -2.8081 H   0  0  0  0  0  0  0  0  0  0  0  0
    1.5783   -4.6003   -1.9781 H   0  0  0  0  0  0  0  0  0  0  0  0
    4.5497   -3.3083   -0.3079 H   0  0  0  0  0  0  0  0  0  0  0  0
    3.8203   -4.5943   -1.2731 H   0  0  0  0  0  0  0  0  0  0  0  0
    3.2591   -4.4471    0.3921 H   0  0  0  0  0  0  0  0  0  0  0  0
    3.6215    0.7214   -1.0431 H   0  0  0  0  0  0  0  0  0  0  0  0
    5.3024    1.8583    0.2747 H   0  0  0  0  0  0  0  0  0  0  0  0
  1  2  1  0
  2  3  1  0
  3  4  2  0
  4  5  1  0
  5  6  2  0
  6  7  1  0
  7  8  2  0
  8  9  1  0
  9 10  2  0
 10 11  1  0
 11 12  1  0
 12 13  2  0
 12 14  1  0
 14 15  1  0
 15 16  2  0
 16 17  1  0
 17 18  1  0
 18 19  1  0
 18 20  1  0
 18 21  1  0
 17 22  2  0
 22 23  1  0
 23 24  2  0
 24 25  1  0
 25 26  1  0
 26 27  1  0
 27 28  1  0
 28 29  1  0
 29 30  1  0
 29 31  1  0
 31 32  1  0
 11 33  2  0
 33 34  1  0
 34 35  2  0
 35 36  1  0
  8 37  1  0
 37 38  2  0
 38 39  1  0
 39 40  2  0
 40  3  1  0
 39  6  1  0
 35  9  1  0
 24 15  1  0
 32 26  1  0
  1 41  1  0
  1 42  1  0
  1 43  1  0
  2 44  1  0
  5 45  1  0
  7 46  1  0
 10 47  1  0
 14 48  1  0
 16 49  1  0
 22 50  1  0
 23 51  1  0
 26 52  1  0
 27 53  1  0
 27 54  1  0
 28 55  1  0
 28 56  1  0
 30 57  1  0
 30 58  1  0
 30 59  1  0
 31 60  1  0
 31 61  1  0
 32 62  1  0
 32 63  1  0
 33 64  1  0
 34 65  1  0
 36 66  1  0
 36 67  1  0
 36 68  1  0
 37 69  1  0
 38 70  1  0
M  END
$$$$
