
     RDKit          3D

 41 43  0  0  0  0  0  0  0  0999 V2000
   -5.9498    0.2399   -2.1195 C   0  0  0  0  0  0  0  0  0  0  0  0
   -5.4952    0.6377   -0.7337 C   0  0  0  0  0  0  0  0  0  0  0  0
   -4.1573    0.1847   -0.6087 O   0  0  0  0  0  0  0  0  0  0  0  0
   -3.4666    0.4073    0.5518 C   0  0  0  0  0  0  0  0  0  0  0  0
   -4.0774    1.0291    1.4874 O   0  0  0  0  0  0  0  0  0  0  0  0
   -2.0800   -0.0258    0.7708 C   0  0  0  0  0  0  0  0  0  0  0  0
   -1.6272   -1.2140    1.2954 C   0  0  0  0  0  0  0  0  0  0  0  0
   -2.5279   -2.3063    1.7542 C   0  0  0  0  0  0  0  0  0  0  0  0
   -0.2826   -1.1736    1.3062 N   0  0  0  0  0  0  0  0  0  0  0  0
    0.1831   -0.0190    0.8137 C   0  0  0  0  0  0  0  0  0  0  0  0
    1.5293    0.4674    0.6065 C   0  0  0  0  0  0  0  0  0  0  0  0
    2.4512   -0.2012   -0.0477 C   0  0  0  0  0  0  0  0  0  0  0  0
    2.3266   -1.5007   -0.6769 C   0  0  0  0  0  0  0  0  0  0  0  0
    1.2926   -2.2063   -0.7201 O   0  0  0  0  0  0  0  0  0  0  0  0
    3.6096   -1.8360   -1.2488 N   0  0  0  0  0  0  0  0  0  0  0  0
    4.5230   -0.7762   -0.9888 C   0  0  0  0  0  0  0  0  0  0  0  0
    5.8528   -0.6117   -1.3187 C   0  0  0  0  0  0  0  0  0  0  0  0
    6.4767    0.5465   -0.9184 C   0  0  0  0  0  0  0  0  0  0  0  0
    5.8321    1.5358   -0.2094 C   0  0  0  0  0  0  0  0  0  0  0  0
    4.5109    1.3572    0.1104 C   0  0  0  0  0  0  0  0  0  0  0  0
    3.8573    0.2081   -0.2762 C   0  0  0  0  0  0  0  0  0  0  0  0
   -0.9462    0.7105    0.4744 C   0  0  0  0  0  0  0  0  0  0  0  0
   -0.9346    2.0701   -0.1147 C   0  0  0  0  0  0  0  0  0  0  0  0
   -6.9460    0.6580   -2.3654 H   0  0  0  0  0  0  0  0  0  0  0  0
   -6.0124   -0.8602   -2.1745 H   0  0  0  0  0  0  0  0  0  0  0  0
   -5.1832    0.6132   -2.8193 H   0  0  0  0  0  0  0  0  0  0  0  0
   -6.1614    0.1247    0.0148 H   0  0  0  0  0  0  0  0  0  0  0  0
   -5.6168    1.7204   -0.5480 H   0  0  0  0  0  0  0  0  0  0  0  0
   -3.4390   -1.8612    2.2405 H   0  0  0  0  0  0  0  0  0  0  0  0
   -2.0110   -3.0194    2.4004 H   0  0  0  0  0  0  0  0  0  0  0  0
   -2.9356   -2.8770    0.8717 H   0  0  0  0  0  0  0  0  0  0  0  0
    0.2862   -1.9721    1.6855 H   0  0  0  0  0  0  0  0  0  0  0  0
    1.8373    1.4588    1.0054 H   0  0  0  0  0  0  0  0  0  0  0  0
    3.8065   -2.7157   -1.7641 H   0  0  0  0  0  0  0  0  0  0  0  0
    6.4234   -1.3437   -1.8718 H   0  0  0  0  0  0  0  0  0  0  0  0
    7.5320    0.7316   -1.1528 H   0  0  0  0  0  0  0  0  0  0  0  0
    6.3021    2.4583    0.1183 H   0  0  0  0  0  0  0  0  0  0  0  0
    3.9507    2.1029    0.6699 H   0  0  0  0  0  0  0  0  0  0  0  0
   -1.9635    2.4583   -0.2203 H   0  0  0  0  0  0  0  0  0  0  0  0
   -0.4891    2.0920   -1.1369 H   0  0  0  0  0  0  0  0  0  0  0  0
   -0.2808    2.7076    0.5083 H   0  0  0  0  0  0  0  0  0  0  0  0
  1  2  1  0
  2  3  1  0
  3  4  1  0
  4  5  2  0
  4  6  1  0
  6  7  2  0
  7  8  1  0
  7  9  1  0
  9 10  1  0
 10 11  1  0
 11 12  2  0
 12 13  1  0
 13 14  2  0
 13 15  1  0
 15 16  1  0
 16 17  2  0
 17 18  1  0
 18 19  2  0
 19 20  1  0
 20 21  2  0
 10 22  2  0
 22 23  1  0
 22  6  1  0
 21 12  1  0
 21 16  1  0
  1 24  1  0
  1 25  1  0
  1 26  1  0
  2 27  1  0
  2 28  1  0
  8 29  1  0
  8 30  1  0
  8 31  1  0
  9 32  1  0
 11 33  1  0
 15 34  1  0
 17 35  1  0
 18 36  1  0
 19 37  1  0
 20 38  1  0
 23 39  1  0
 23 40  1  0
 23 41  1  0
M  END
$$$$
