
     RDKit          3D

 63 66  0  0  0  0  0  0  0  0999 V2000
   -9.3193   -1.2431   -0.2180 C   0  0  0  0  0  0  0  0  0  0  0  0
   -8.1590   -1.0145   -1.0101 O   0  0  0  0  0  0  0  0  0  0  0  0
   -7.0228   -0.5015   -0.4044 C   0  0  0  0  0  0  0  0  0  0  0  0
   -6.9694   -0.2012    0.9403 C   0  0  0  0  0  0  0  0  0  0  0  0
   -5.7875    0.3160    1.4931 C   0  0  0  0  0  0  0  0  0  0  0  0
   -4.6714    0.5334    0.7234 C   0  0  0  0  0  0  0  0  0  0  0  0
   -3.4131    1.0680    1.2440 C   0  0  0  0  0  0  0  0  0  0  0  0
   -2.4171    1.2411    0.4854 O   0  0  0  0  0  0  0  0  0  0  0  0
   -3.2220    1.4219    2.6019 N   0  0  0  0  0  0  0  0  0  0  0  0
   -2.0207    1.9442    3.1720 C   0  0  0  0  0  0  0  0  0  0  0  0
   -0.9611    0.9392    3.4132 C   0  0  0  0  0  0  0  0  0  0  0  0
   -0.9555    0.2504    4.6240 C   0  0  0  0  0  0  0  0  0  0  0  0
    0.0106   -0.6981    4.9127 C   0  0  0  0  0  0  0  0  0  0  0  0
    0.9767   -0.9562    3.9792 C   0  0  0  0  0  0  0  0  0  0  0  0
    1.0101   -0.2966    2.7640 C   0  0  0  0  0  0  0  0  0  0  0  0
    2.0809   -0.6497    1.8402 C   0  0  0  0  0  0  0  0  0  0  0  0
    2.9318   -1.5356    2.1226 O   0  0  0  0  0  0  0  0  0  0  0  0
    2.1977    0.0004    0.5838 N   0  0  0  0  0  0  0  0  0  0  0  0
    3.2697   -0.3956   -0.2726 C   0  0  0  0  0  0  0  0  0  0  0  0
    3.1262   -1.4057   -1.2039 C   0  0  0  0  0  0  0  0  0  0  0  0
    4.1643   -1.8031   -2.0457 C   0  0  0  0  0  0  0  0  0  0  0  0
    5.3734   -1.1519   -1.9302 C   0  0  0  0  0  0  0  0  0  0  0  0
    5.5549   -0.1385   -1.0119 C   0  0  0  0  0  0  0  0  0  0  0  0
    4.5018    0.2223   -0.1997 C   0  0  0  0  0  0  0  0  0  0  0  0
    6.8940    0.5018   -0.9591 C   0  0  0  0  0  0  0  0  0  0  0  0
    7.3025    0.8381   -2.2834 N   0  0  0  0  0  0  0  0  0  0  0  0
    6.7520    2.1337   -2.6290 C   0  0  0  0  0  0  0  0  0  0  0  0
    7.0721   -0.1450   -3.2892 C   0  0  0  0  0  0  0  0  0  0  0  0
    6.5686   -1.4726   -2.7692 C   0  0  0  0  0  0  0  0  0  0  0  0
    0.0424    0.6271    2.5222 C   0  0  0  0  0  0  0  0  0  0  0  0
   -4.7378    0.2248   -0.6405 C   0  0  0  0  0  0  0  0  0  0  0  0
   -5.9047   -0.2847   -1.1809 C   0  0  0  0  0  0  0  0  0  0  0  0
   -5.9708   -0.5910   -2.5341 O   0  0  0  0  0  0  0  0  0  0  0  0
   -4.8585   -0.3854   -3.3524 C   0  0  0  0  0  0  0  0  0  0  0  0
   -9.5514   -0.3717    0.4033 H   0  0  0  0  0  0  0  0  0  0  0  0
   -9.1603   -2.1318    0.4498 H   0  0  0  0  0  0  0  0  0  0  0  0
  -10.1681   -1.5151   -0.8874 H   0  0  0  0  0  0  0  0  0  0  0  0
   -7.8485   -0.3686    1.5647 H   0  0  0  0  0  0  0  0  0  0  0  0
   -5.7604    0.5480    2.5565 H   0  0  0  0  0  0  0  0  0  0  0  0
   -4.0372    1.2869    3.2482 H   0  0  0  0  0  0  0  0  0  0  0  0
   -2.2688    2.4900    4.1257 H   0  0  0  0  0  0  0  0  0  0  0  0
   -1.6126    2.7736    2.5164 H   0  0  0  0  0  0  0  0  0  0  0  0
   -1.7053    0.4450    5.3588 H   0  0  0  0  0  0  0  0  0  0  0  0
    0.0216   -1.2444    5.8637 H   0  0  0  0  0  0  0  0  0  0  0  0
    1.7289   -1.7067    4.2252 H   0  0  0  0  0  0  0  0  0  0  0  0
    1.5319    0.7426    0.2831 H   0  0  0  0  0  0  0  0  0  0  0  0
    2.1754   -1.9016   -1.2786 H   0  0  0  0  0  0  0  0  0  0  0  0
    4.0579   -2.5926   -2.7763 H   0  0  0  0  0  0  0  0  0  0  0  0
    4.6390    1.0186    0.5245 H   0  0  0  0  0  0  0  0  0  0  0  0
    7.5666   -0.2440   -0.4679 H   0  0  0  0  0  0  0  0  0  0  0  0
    6.7997    1.4325   -0.3655 H   0  0  0  0  0  0  0  0  0  0  0  0
    5.8200    1.9746   -3.2125 H   0  0  0  0  0  0  0  0  0  0  0  0
    6.4424    2.6853   -1.7061 H   0  0  0  0  0  0  0  0  0  0  0  0
    7.4932    2.7578   -3.1677 H   0  0  0  0  0  0  0  0  0  0  0  0
    7.9295   -0.3060   -3.9501 H   0  0  0  0  0  0  0  0  0  0  0  0
    6.2459    0.2388   -3.9594 H   0  0  0  0  0  0  0  0  0  0  0  0
    7.3525   -1.8804   -2.0959 H   0  0  0  0  0  0  0  0  0  0  0  0
    6.3322   -2.1036   -3.6271 H   0  0  0  0  0  0  0  0  0  0  0  0
    0.0578    1.1458    1.5949 H   0  0  0  0  0  0  0  0  0  0  0  0
   -3.8537    0.4002   -1.2383 H   0  0  0  0  0  0  0  0  0  0  0  0
   -4.0072   -1.0637   -3.1341 H   0  0  0  0  0  0  0  0  0  0  0  0
   -5.1612   -0.5588   -4.4249 H   0  0  0  0  0  0  0  0  0  0  0  0
   -4.4988    0.6571   -3.3097 H   0  0  0  0  0  0  0  0  0  0  0  0
  1  2  1  0
  2  3  1  0
  3  4  2  0
  4  5  1  0
  5  6  2  0
  6  7  1  0
  7  8  2  0
  7  9  1  0
  9 10  1  0
 10 11  1  0
 11 12  2  0
 12 13  1  0
 13 14  2  0
 14 15  1  0
 15 16  1  0
 16 17  2  0
 16 18  1  0
 18 19  1  0
 19 20  2  0
 20 21  1  0
 21 22  2  0
 22 23  1  0
 23 24  2  0
 23 25  1  0
 25 26  1  0
 26 27  1  0
 26 28  1  0
 28 29  1  0
 15 30  2  0
  6 31  1  0
 31 32  2  0
 32 33  1  0
 33 34  1  0
 32  3  1  0
 30 11  1  0
 24 19  1  0
 29 22  1  0
  1 35  1  0
  1 36  1  0
  1 37  1  0
  4 38  1  0
  5 39  1  0
  9 40  1  0
 10 41  1  0
 10 42  1  0
 12 43  1  0
 13 44  1  0
 14 45  1  0
 18 46  1  0
 20 47  1  0
 21 48  1  0
 24 49  1  0
 25 50  1  0
 25 51  1  0
 27 52  1  0
 27 53  1  0
 27 54  1  0
 28 55  1  0
 28 56  1  0
 29 57  1  0
 29 58  1  0
 30 59  1  0
 31 60  1  0
 34 61  1  0
 34 62  1  0
 34 63  1  0
M  END
$$$$
