
     RDKit          3D

 43 47  0  0  0  0  0  0  0  0999 V2000
    5.2690   -2.3789   -1.5834 C   0  0  0  0  0  0  0  0  0  0  0  0
    5.9817   -1.3670   -0.8963 O   0  0  0  0  0  0  0  0  0  0  0  0
    5.2739   -0.4279   -0.1691 C   0  0  0  0  0  0  0  0  0  0  0  0
    3.8995   -0.4095   -0.0659 C   0  0  0  0  0  0  0  0  0  0  0  0
    3.2100    0.5422    0.6694 C   0  0  0  0  0  0  0  0  0  0  0  0
    1.7577    0.5356    0.7598 C   0  0  0  0  0  0  0  0  0  0  0  0
    0.9960    0.0797   -0.3024 C   0  0  0  0  0  0  0  0  0  0  0  0
   -0.3789    0.0789   -0.2028 C   0  0  0  0  0  0  0  0  0  0  0  0
   -0.9973    0.5375    0.9681 C   0  0  0  0  0  0  0  0  0  0  0  0
   -2.3138    0.6534    1.3496 C   0  0  0  0  0  0  0  0  0  0  0  0
   -3.4504    0.2742    0.5023 C   0  0  0  0  0  0  0  0  0  0  0  0
   -3.4121   -0.2296   -0.7355 N   0  0  0  0  0  0  0  0  0  0  0  0
   -4.6620   -0.4498   -1.1841 C   0  0  0  0  0  0  0  0  0  0  0  0
   -5.1595   -0.9523   -2.3793 C   0  0  0  0  0  0  0  0  0  0  0  0
   -6.5091   -1.0840   -2.6039 C   0  0  0  0  0  0  0  0  0  0  0  0
   -7.3720   -0.6914   -1.5787 C   0  0  0  0  0  0  0  0  0  0  0  0
   -6.8785   -0.1924   -0.3915 C   0  0  0  0  0  0  0  0  0  0  0  0
   -5.5212   -0.0636   -0.1748 C   0  0  0  0  0  0  0  0  0  0  0  0
   -4.7473    0.3743    0.8421 N   0  0  0  0  0  0  0  0  0  0  0  0
   -2.3309    1.1572    2.5867 N   0  0  0  0  0  0  0  0  0  0  0  0
   -1.0850    1.3484    2.9638 N   0  0  0  0  0  0  0  0  0  0  0  0
   -0.2292    0.9845    2.0079 C   0  0  0  0  0  0  0  0  0  0  0  0
    1.1475    0.9854    1.9084 C   0  0  0  0  0  0  0  0  0  0  0  0
    3.9690    1.5049    1.3179 C   0  0  0  0  0  0  0  0  0  0  0  0
    5.3451    1.4938    1.2197 C   0  0  0  0  0  0  0  0  0  0  0  0
    6.0235    0.5420    0.4852 C   0  0  0  0  0  0  0  0  0  0  0  0
    7.4095    0.5440    0.3959 O   0  0  0  0  0  0  0  0  0  0  0  0
    4.8340   -3.0723   -0.8586 H   0  0  0  0  0  0  0  0  0  0  0  0
    4.4477   -1.8810   -2.1688 H   0  0  0  0  0  0  0  0  0  0  0  0
    5.9109   -2.9192   -2.3077 H   0  0  0  0  0  0  0  0  0  0  0  0
    3.3526   -1.1777   -0.5872 H   0  0  0  0  0  0  0  0  0  0  0  0
    1.4762   -0.2753   -1.2090 H   0  0  0  0  0  0  0  0  0  0  0  0
   -1.0330   -0.2591   -0.9838 H   0  0  0  0  0  0  0  0  0  0  0  0
   -4.4968   -1.2600   -3.1818 H   0  0  0  0  0  0  0  0  0  0  0  0
   -6.9058   -1.4723   -3.5270 H   0  0  0  0  0  0  0  0  0  0  0  0
   -8.4393   -0.7976   -1.7610 H   0  0  0  0  0  0  0  0  0  0  0  0
   -7.5562    0.1146    0.4098 H   0  0  0  0  0  0  0  0  0  0  0  0
   -5.1492    0.7279    1.7380 H   0  0  0  0  0  0  0  0  0  0  0  0
   -0.7518    1.7379    3.8948 H   0  0  0  0  0  0  0  0  0  0  0  0
    1.7277    1.3399    2.7353 H   0  0  0  0  0  0  0  0  0  0  0  0
    3.4842    2.2814    1.9126 H   0  0  0  0  0  0  0  0  0  0  0  0
    5.9524    2.2464    1.7257 H   0  0  0  0  0  0  0  0  0  0  0  0
    7.9110    1.2767    0.8438 H   0  0  0  0  0  0  0  0  0  0  0  0
  1  2  1  0
  2  3  1  0
  3  4  2  0
  4  5  1  0
  5  6  1  0
  6  7  2  0
  7  8  1  0
  8  9  2  0
  9 10  1  0
 10 11  1  0
 11 12  2  0
 12 13  1  0
 13 14  2  0
 14 15  1  0
 15 16  2  0
 16 17  1  0
 17 18  2  0
 18 19  1  0
 10 20  2  0
 20 21  1  0
 21 22  1  0
 22 23  2  0
  5 24  2  0
 24 25  1  0
 25 26  2  0
 26 27  1  0
 26  3  1  0
 23  6  1  0
 22  9  1  0
 19 11  1  0
 18 13  1  0
  1 28  1  0
  1 29  1  0
  1 30  1  0
  4 31  1  0
  7 32  1  0
  8 33  1  0
 14 34  1  0
 15 35  1  0
 16 36  1  0
 17 37  1  0
 19 38  1  0
 21 39  1  0
 23 40  1  0
 24 41  1  0
 25 42  1  0
 27 43  1  0
M  END
$$$$
