
     RDKit          3D

 50 49  0  0  0  0  0  0  0  0999 V2000
    6.7011    1.5166    1.9816 C   0  0  0  0  0  0  0  0  0  0  0  0
    6.5836    0.9357    0.5758 C   0  0  0  0  0  0  0  0  0  0  0  0
    5.4781    1.5714   -0.1661 C   0  0  0  0  0  0  0  0  0  0  0  0
    4.3809    1.1219   -0.7074 C   0  0  0  0  0  0  0  0  0  0  0  0
    4.1710   -0.3436   -0.5602 C   0  0  0  0  0  0  0  0  0  0  0  0
    4.0911   -1.0343   -1.8571 C   0  0  0  0  0  0  0  0  0  0  0  0
    3.0252   -1.7295   -2.2122 C   0  0  0  0  0  0  0  0  0  0  0  0
    1.7898   -1.9543   -1.4631 C   0  0  0  0  0  0  0  0  0  0  0  0
    0.6717   -1.3880   -2.2837 C   0  0  0  0  0  0  0  0  0  0  0  0
   -0.1226   -0.4272   -1.8743 C   0  0  0  0  0  0  0  0  0  0  0  0
   -0.2187    0.3680   -0.6188 C   0  0  0  0  0  0  0  0  0  0  0  0
   -1.6500    0.0684   -0.0671 C   0  0  0  0  0  0  0  0  0  0  0  0
   -1.8782    0.8065    1.1899 C   0  0  0  0  0  0  0  0  0  0  0  0
   -3.1611    0.5436    1.8640 C   0  0  0  0  0  0  0  0  0  0  0  0
   -4.4665    0.8048    1.2524 C   0  0  0  0  0  0  0  0  0  0  0  0
   -4.9149    0.0772    0.0523 C   0  0  0  0  0  0  0  0  0  0  0  0
   -6.3312    0.5761   -0.2859 C   0  0  0  0  0  0  0  0  0  0  0  0
   -7.2906    0.3431    0.7937 C   0  0  0  0  0  0  0  0  0  0  0  0
   -8.1531   -0.7055    0.9715 O   0  0  0  0  0  0  0  0  0  0  0  0
   -7.4726    1.1105    1.7659 O   0  0  0  0  0  0  0  0  0  0  0  0
    7.7552    1.5287    2.3466 H   0  0  0  0  0  0  0  0  0  0  0  0
    6.3191    2.5374    2.0353 H   0  0  0  0  0  0  0  0  0  0  0  0
    6.1622    0.7991    2.6416 H   0  0  0  0  0  0  0  0  0  0  0  0
    6.5681   -0.1506    0.5610 H   0  0  0  0  0  0  0  0  0  0  0  0
    7.5806    1.2154    0.0921 H   0  0  0  0  0  0  0  0  0  0  0  0
    5.6856    2.6533   -0.2435 H   0  0  0  0  0  0  0  0  0  0  0  0
    3.6612    1.7358   -1.2271 H   0  0  0  0  0  0  0  0  0  0  0  0
    4.8225   -0.8359    0.1673 H   0  0  0  0  0  0  0  0  0  0  0  0
    3.1411   -0.4074   -0.0792 H   0  0  0  0  0  0  0  0  0  0  0  0
    4.9654   -0.9302   -2.4931 H   0  0  0  0  0  0  0  0  0  0  0  0
    3.0449   -2.2163   -3.2033 H   0  0  0  0  0  0  0  0  0  0  0  0
    1.7570   -1.6968   -0.4174 H   0  0  0  0  0  0  0  0  0  0  0  0
    1.5967   -3.0818   -1.4785 H   0  0  0  0  0  0  0  0  0  0  0  0
    0.5059   -1.7929   -3.2743 H   0  0  0  0  0  0  0  0  0  0  0  0
   -0.9161   -0.0701   -2.5372 H   0  0  0  0  0  0  0  0  0  0  0  0
    0.4537    0.0132    0.1805 H   0  0  0  0  0  0  0  0  0  0  0  0
   -0.1658    1.4456   -0.7863 H   0  0  0  0  0  0  0  0  0  0  0  0
   -1.7096   -1.0001    0.0356 H   0  0  0  0  0  0  0  0  0  0  0  0
   -2.2710    0.5395   -0.8622 H   0  0  0  0  0  0  0  0  0  0  0  0
   -1.0279    0.5816    1.9268 H   0  0  0  0  0  0  0  0  0  0  0  0
   -1.7594    1.9298    1.0244 H   0  0  0  0  0  0  0  0  0  0  0  0
   -3.1082   -0.5323    2.2499 H   0  0  0  0  0  0  0  0  0  0  0  0
   -3.0855    1.1032    2.8764 H   0  0  0  0  0  0  0  0  0  0  0  0
   -5.2390    0.5495    2.0654 H   0  0  0  0  0  0  0  0  0  0  0  0
   -4.6416    1.9242    1.1499 H   0  0  0  0  0  0  0  0  0  0  0  0
   -4.3762    0.1607   -0.8755 H   0  0  0  0  0  0  0  0  0  0  0  0
   -4.9663   -1.0123    0.2940 H   0  0  0  0  0  0  0  0  0  0  0  0
   -6.6042    0.0701   -1.2345 H   0  0  0  0  0  0  0  0  0  0  0  0
   -6.2583    1.6561   -0.5370 H   0  0  0  0  0  0  0  0  0  0  0  0
   -9.1230   -0.6526    1.2510 H   0  0  0  0  0  0  0  0  0  0  0  0
  1  2  1  0
  2  3  1  0
  3  4  2  0
  4  5  1  0
  5  6  1  0
  6  7  2  0
  7  8  1  0
  8  9  1  0
  9 10  2  0
 10 11  1  0
 11 12  1  0
 12 13  1  0
 13 14  1  0
 14 15  1  0
 15 16  1  0
 16 17  1  0
 17 18  1  0
 18 19  1  0
 18 20  2  0
  1 21  1  0
  1 22  1  0
  1 23  1  0
  2 24  1  0
  2 25  1  0
  3 26  1  0
  4 27  1  0
  5 28  1  0
  5 29  1  0
  6 30  1  0
  7 31  1  0
  8 32  1  0
  8 33  1  0
  9 34  1  0
 10 35  1  0
 11 36  1  0
 11 37  1  0
 12 38  1  0
 12 39  1  0
 13 40  1  0
 13 41  1  0
 14 42  1  0
 14 43  1  0
 15 44  1  0
 15 45  1  0
 16 46  1  0
 16 47  1  0
 17 48  1  0
 17 49  1  0
 19 50  1  0
M  END
$$$$
