
     RDKit          3D

 32 33  0  0  0  0  0  0  0  0999 V2000
    0.4041   -1.1440   -0.4258 C   0  0  1  0  0  0  0  0  0  0  0  0
    1.2803   -0.0926   -0.9423 N   0  0  0  0  0  0  0  0  0  0  0  0
    2.5431   -0.4699   -0.5537 O   0  0  0  0  0  0  0  0  0  0  0  0
    3.3108    0.6837   -0.3519 C   0  0  0  0  0  0  0  0  0  0  0  0
    4.7080    0.2721    0.0782 C   0  0  0  0  0  0  0  0  0  0  0  0
    5.6949    1.7734    0.3372 S   0  0  0  0  0  0  0  0  0  0  0  0
    0.5322   -1.2102    1.0636 C   0  0  0  0  0  0  0  0  0  0  0  0
   -0.2559   -2.1799    1.6995 O   0  0  0  0  0  0  0  0  0  0  0  0
    1.2079   -0.5784    1.9403 O   0  0  0  0  0  0  0  0  0  0  0  0
   -0.9932   -0.9504   -0.8691 C   0  0  0  0  0  0  0  0  0  0  0  0
   -1.6949   -1.5870   -1.8770 C   0  0  0  0  0  0  0  0  0  0  0  0
   -2.9582   -1.1315   -1.9777 N   0  0  0  0  0  0  0  0  0  0  0  0
   -3.1070   -0.1851   -1.0342 C   0  0  0  0  0  0  0  0  0  0  0  0
   -1.9016   -0.0563   -0.3353 C   0  0  0  0  0  0  0  0  0  0  0  0
   -1.8405    0.8688    0.6830 C   0  0  0  0  0  0  0  0  0  0  0  0
   -2.8960    1.6861    1.0661 C   0  0  0  0  0  0  0  0  0  0  0  0
   -4.0716    1.5154    0.3363 C   0  0  0  0  0  0  0  0  0  0  0  0
   -4.2036    0.6128   -0.6910 C   0  0  0  0  0  0  0  0  0  0  0  0
    0.8022   -2.0949   -0.8365 H   0  0  0  0  0  0  0  0  0  0  0  0
    1.2700   -0.2145   -1.9973 H   0  0  0  0  0  0  0  0  0  0  0  0
    2.8020    1.2613    0.4405 H   0  0  0  0  0  0  0  0  0  0  0  0
    3.3183    1.2641   -1.2773 H   0  0  0  0  0  0  0  0  0  0  0  0
    5.1697   -0.2947   -0.7559 H   0  0  0  0  0  0  0  0  0  0  0  0
    4.6725   -0.2897    1.0146 H   0  0  0  0  0  0  0  0  0  0  0  0
    4.8980    2.9136    0.1921 H   0  0  0  0  0  0  0  0  0  0  0  0
    0.0516   -2.6839    2.5294 H   0  0  0  0  0  0  0  0  0  0  0  0
   -1.2600   -2.3544   -2.4956 H   0  0  0  0  0  0  0  0  0  0  0  0
   -3.6930   -1.4379   -2.6476 H   0  0  0  0  0  0  0  0  0  0  0  0
   -0.9325    1.0043    1.2506 H   0  0  0  0  0  0  0  0  0  0  0  0
   -2.7946    2.3893    1.8657 H   0  0  0  0  0  0  0  0  0  0  0  0
   -4.9061    2.1537    0.6307 H   0  0  0  0  0  0  0  0  0  0  0  0
   -5.1568    0.5568   -1.1946 H   0  0  0  0  0  0  0  0  0  0  0  0
  1  2  1  0
  2  3  1  0
  3  4  1  0
  4  5  1  0
  5  6  1  0
  1  7  1  0
  7  8  1  0
  7  9  2  0
  1 10  1  0
 10 11  2  0
 11 12  1  0
 12 13  1  0
 13 14  2  0
 14 15  1  0
 15 16  2  0
 16 17  1  0
 17 18  2  0
 14 10  1  0
 18 13  1  0
  1 19  1  6
  2 20  1  0
  4 21  1  0
  4 22  1  0
  5 23  1  0
  5 24  1  0
  6 25  1  0
  8 26  1  0
 11 27  1  0
 12 28  1  0
 15 29  1  0
 16 30  1  0
 17 31  1  0
 18 32  1  0
M  END
$$$$
