
     RDKit          3D

 80 85  0  0  0  0  0  0  0  0999 V2000
    4.0048    0.1595   -0.9299 O   0  0  0  0  0  0  0  0  0  0  0  0
    2.9430   -0.2565   -0.3536 C   0  0  0  0  0  0  0  0  0  0  0  0
    1.7331   -0.0795   -1.0550 N   0  0  0  0  0  0  0  0  0  0  0  0
    1.6027    0.5623   -2.3835 C   0  0  0  0  0  0  0  0  0  0  0  0
    0.6027   -0.2867   -3.1276 C   0  0  0  0  0  0  0  0  0  0  0  0
   -0.1647   -0.9484   -2.0284 C   0  0  2  0  0  0  0  0  0  0  0  0
   -1.5328   -1.1033   -2.2190 N   0  0  0  0  0  0  0  0  0  0  0  0
   -2.3802   -0.0746   -2.6390 C   0  0  1  0  0  0  0  0  0  0  0  0
   -3.7889   -0.7013   -2.7395 C   0  0  0  0  0  0  0  0  0  0  0  0
   -4.7110    0.2956   -3.3505 C   0  0  0  0  0  0  0  0  0  0  0  0
   -4.8633    1.4379   -2.4063 C   0  0  1  0  0  0  0  0  0  0  0  0
   -5.6685    2.3971   -3.0489 O   0  0  0  0  0  0  0  0  0  0  0  0
   -5.6788    0.9682   -1.2377 C   0  0  0  0  0  0  0  0  0  0  0  0
   -7.0594    1.0713   -1.2398 C   0  0  0  0  0  0  0  0  0  0  0  0
   -7.8372    0.6466   -0.1788 C   0  0  0  0  0  0  0  0  0  0  0  0
   -7.2287    0.0973    0.9310 C   0  0  0  0  0  0  0  0  0  0  0  0
   -8.0146   -0.3735    2.0868 C   0  0  0  0  0  0  0  0  0  0  0  0
   -7.3423   -0.9015    3.1244 N   0  0  0  0  0  0  0  0  0  0  0  0
   -7.9418   -1.3669    4.2324 C   0  0  0  0  0  0  0  0  0  0  0  0
   -9.3111   -1.2988    4.3066 C   0  0  0  0  0  0  0  0  0  0  0  0
   -9.9806   -0.7559    3.2367 C   0  0  0  0  0  0  0  0  0  0  0  0
   -9.3361   -0.2948    2.1306 N   0  0  0  0  0  0  0  0  0  0  0  0
   -5.8542    0.0048    0.9113 C   0  0  0  0  0  0  0  0  0  0  0  0
   -5.1188    0.4278   -0.1391 N   0  0  0  0  0  0  0  0  0  0  0  0
   -3.6010    2.0136   -1.8898 C   0  0  0  0  0  0  0  0  0  0  0  0
   -2.4511    1.0802   -1.6986 C   0  0  0  0  0  0  0  0  0  0  0  0
    0.3580   -0.4366   -0.7331 C   0  0  0  0  0  0  0  0  0  0  0  0
    3.1336   -0.8623    0.9646 C   0  0  0  0  0  0  0  0  0  0  0  0
    1.9608   -1.2495    1.6036 O   0  0  0  0  0  0  0  0  0  0  0  0
    3.9826   -2.1136    0.8534 C   0  0  0  0  0  0  0  0  0  0  0  0
    5.3701   -1.8536    0.3819 C   0  0  0  0  0  0  0  0  0  0  0  0
    5.9841   -0.7336    1.0510 N   0  0  0  0  0  0  0  0  0  0  0  0
    7.4140   -0.7550    1.1864 C   0  0  0  0  0  0  0  0  0  0  0  0
    8.1101    0.3071    1.7092 C   0  0  0  0  0  0  0  0  0  0  0  0
    9.4985    0.2801    1.8447 C   0  0  0  0  0  0  0  0  0  0  0  0
   10.2581    1.4209    2.4094 C   0  0  0  0  0  0  0  0  0  0  0  0
   10.8342    2.1897    1.4001 F   0  0  0  0  0  0  0  0  0  0  0  0
   11.1924    1.0287    3.3329 F   0  0  0  0  0  0  0  0  0  0  0  0
    9.3732    2.2731    3.0683 F   0  0  0  0  0  0  0  0  0  0  0  0
   10.1585   -0.8349    1.4430 C   0  0  0  0  0  0  0  0  0  0  0  0
    9.4614   -1.9251    0.9080 C   0  0  0  0  0  0  0  0  0  0  0  0
    8.1252   -1.8269    0.8082 N   0  0  0  0  0  0  0  0  0  0  0  0
    5.2465    0.3783    1.5806 C   0  0  0  0  0  0  0  0  0  0  0  0
    3.8210    0.0988    1.9136 C   0  0  0  0  0  0  0  0  0  0  0  0
    1.2362    1.5860   -2.1769 H   0  0  0  0  0  0  0  0  0  0  0  0
    2.5679    0.6529   -2.8849 H   0  0  0  0  0  0  0  0  0  0  0  0
   -0.0281    0.3065   -3.8159 H   0  0  0  0  0  0  0  0  0  0  0  0
    1.1705   -0.9853   -3.7710 H   0  0  0  0  0  0  0  0  0  0  0  0
    0.2490   -2.0416   -2.0569 H   0  0  0  0  0  0  0  0  0  0  0  0
   -1.9300   -2.0573   -2.1880 H   0  0  0  0  0  0  0  0  0  0  0  0
   -2.1468    0.3563   -3.6418 H   0  0  0  0  0  0  0  0  0  0  0  0
   -4.0552   -1.0034   -1.7080 H   0  0  0  0  0  0  0  0  0  0  0  0
   -3.6545   -1.6234   -3.3628 H   0  0  0  0  0  0  0  0  0  0  0  0
   -4.2724    0.5969   -4.3317 H   0  0  0  0  0  0  0  0  0  0  0  0
   -5.6835   -0.2086   -3.5294 H   0  0  0  0  0  0  0  0  0  0  0  0
   -5.0485    2.8636   -3.6895 H   0  0  0  0  0  0  0  0  0  0  0  0
   -7.5211    1.5039   -2.1167 H   0  0  0  0  0  0  0  0  0  0  0  0
   -8.9189    0.7233   -0.1727 H   0  0  0  0  0  0  0  0  0  0  0  0
   -7.3783   -1.7906    5.0624 H   0  0  0  0  0  0  0  0  0  0  0  0
   -9.8288   -1.6609    5.1758 H   0  0  0  0  0  0  0  0  0  0  0  0
  -11.0509   -0.6860    3.2603 H   0  0  0  0  0  0  0  0  0  0  0  0
   -5.3555   -0.4234    1.7740 H   0  0  0  0  0  0  0  0  0  0  0  0
   -3.7757    2.6213   -0.9517 H   0  0  0  0  0  0  0  0  0  0  0  0
   -3.2758    2.7973   -2.6374 H   0  0  0  0  0  0  0  0  0  0  0  0
   -2.5062    0.7349   -0.6352 H   0  0  0  0  0  0  0  0  0  0  0  0
   -1.5212    1.7207   -1.7528 H   0  0  0  0  0  0  0  0  0  0  0  0
    0.3351   -1.2590    0.0521 H   0  0  0  0  0  0  0  0  0  0  0  0
   -0.1747    0.4452   -0.3843 H   0  0  0  0  0  0  0  0  0  0  0  0
    1.6000   -0.5213    2.1846 H   0  0  0  0  0  0  0  0  0  0  0  0
    3.4811   -2.8025    0.1413 H   0  0  0  0  0  0  0  0  0  0  0  0
    3.9553   -2.6423    1.8438 H   0  0  0  0  0  0  0  0  0  0  0  0
    5.9689   -2.7743    0.5675 H   0  0  0  0  0  0  0  0  0  0  0  0
    5.3539   -1.7175   -0.7215 H   0  0  0  0  0  0  0  0  0  0  0  0
    7.6043    1.2029    2.0314 H   0  0  0  0  0  0  0  0  0  0  0  0
   11.2148   -0.9378    1.5110 H   0  0  0  0  0  0  0  0  0  0  0  0
    9.9594   -2.8259    0.5793 H   0  0  0  0  0  0  0  0  0  0  0  0
    5.7091    0.7775    2.5341 H   0  0  0  0  0  0  0  0  0  0  0  0
    5.3481    1.2323    0.8574 H   0  0  0  0  0  0  0  0  0  0  0  0
    3.7963   -0.3925    2.9295 H   0  0  0  0  0  0  0  0  0  0  0  0
    3.2725    1.0398    2.0037 H   0  0  0  0  0  0  0  0  0  0  0  0
  1  2  2  0
  2  3  1  0
  3  4  1  0
  4  5  1  0
  5  6  1  0
  6  7  1  0
  7  8  1  0
  8  9  1  0
  9 10  1  0
 10 11  1  0
 11 12  1  6
 11 13  1  0
 13 14  2  0
 14 15  1  0
 15 16  2  0
 16 17  1  0
 17 18  2  0
 18 19  1  0
 19 20  2  0
 20 21  1  0
 21 22  2  0
 16 23  1  0
 23 24  2  0
 11 25  1  0
 25 26  1  0
  6 27  1  0
  2 28  1  0
 28 29  1  0
 28 30  1  0
 30 31  1  0
 31 32  1  0
 32 33  1  0
 33 34  2  0
 34 35  1  0
 35 36  1  0
 36 37  1  0
 36 38  1  0
 36 39  1  0
 35 40  2  0
 40 41  1  0
 41 42  2  0
 32 43  1  0
 43 44  1  0
 27  3  1  0
 44 28  1  0
 26  8  1  0
 42 33  1  0
 24 13  1  0
 22 17  1  0
  4 45  1  0
  4 46  1  0
  5 47  1  0
  5 48  1  0
  6 49  1  1
  7 50  1  0
  8 51  1  6
  9 52  1  0
  9 53  1  0
 10 54  1  0
 10 55  1  0
 12 56  1  0
 14 57  1  0
 15 58  1  0
 19 59  1  0
 20 60  1  0
 21 61  1  0
 23 62  1  0
 25 63  1  0
 25 64  1  0
 26 65  1  0
 26 66  1  0
 27 67  1  0
 27 68  1  0
 29 69  1  0
 30 70  1  0
 30 71  1  0
 31 72  1  0
 31 73  1  0
 34 74  1  0
 40 75  1  0
 41 76  1  0
 43 77  1  0
 43 78  1  0
 44 79  1  0
 44 80  1  0
M  END
$$$$
