
     RDKit          3D

 38 41  0  0  0  0  0  0  0  0999 V2000
   -1.3625    4.6432    1.6497 Cl  0  0  0  0  0  0  0  0  0  0  0  0
   -0.1496    3.5433    0.9902 C   0  0  0  0  0  0  0  0  0  0  0  0
   -0.5291    2.2331    0.7115 C   0  0  0  0  0  0  0  0  0  0  0  0
    0.4673    1.4417    0.2026 C   0  0  0  0  0  0  0  0  0  0  0  0
    1.7752    1.8619   -0.0376 C   0  0  0  0  0  0  0  0  0  0  0  0
    2.8209    1.0785   -0.5579 O   0  0  0  0  0  0  0  0  0  0  0  0
    2.9237   -0.3081   -0.3766 C   0  0  0  0  0  0  0  0  0  0  0  0
    4.2582   -0.7200   -0.3686 C   0  0  0  0  0  0  0  0  0  0  0  0
    4.6069   -2.0406   -0.2048 C   0  0  0  0  0  0  0  0  0  0  0  0
    3.5977   -2.9808   -0.0440 C   0  0  0  0  0  0  0  0  0  0  0  0
    2.2706   -2.6094   -0.0470 C   0  0  0  0  0  0  0  0  0  0  0  0
    1.9395   -1.2797   -0.2126 C   0  0  0  0  0  0  0  0  0  0  0  0
    0.5375   -1.0119   -0.1991 N   0  0  0  0  0  0  0  0  0  0  0  0
   -0.1068    0.1075   -0.0292 C   0  0  0  0  0  0  0  0  0  0  0  0
   -1.5167   -0.0790   -0.0905 N   0  0  0  0  0  0  0  0  0  0  0  0
   -1.9378   -1.0081    0.9528 C   0  0  0  0  0  0  0  0  0  0  0  0
   -3.3895   -1.3450    0.9088 C   0  0  0  0  0  0  0  0  0  0  0  0
   -3.8599   -1.7252   -0.4027 N   0  0  0  0  0  0  0  0  0  0  0  0
   -3.4045   -0.8456   -1.4478 C   0  0  0  0  0  0  0  0  0  0  0  0
   -2.6718    0.3697   -0.8718 C   0  0  0  0  0  0  0  0  0  0  0  0
    2.1026    3.1596    0.2520 C   0  0  0  0  0  0  0  0  0  0  0  0
    1.1278    4.0082    0.7716 C   0  0  0  0  0  0  0  0  0  0  0  0
   -1.5285    1.8569    0.8788 H   0  0  0  0  0  0  0  0  0  0  0  0
    5.0645   -0.0157   -0.4908 H   0  0  0  0  0  0  0  0  0  0  0  0
    5.6307   -2.3929   -0.1937 H   0  0  0  0  0  0  0  0  0  0  0  0
    3.7914   -4.0374    0.0900 H   0  0  0  0  0  0  0  0  0  0  0  0
    1.4349   -3.3088    0.0756 H   0  0  0  0  0  0  0  0  0  0  0  0
   -1.7148   -0.6307    1.9673 H   0  0  0  0  0  0  0  0  0  0  0  0
   -1.3678   -1.9569    0.7898 H   0  0  0  0  0  0  0  0  0  0  0  0
   -4.0144   -0.5429    1.3842 H   0  0  0  0  0  0  0  0  0  0  0  0
   -3.5246   -2.2346    1.5669 H   0  0  0  0  0  0  0  0  0  0  0  0
   -4.8857   -1.8350   -0.3694 H   0  0  0  0  0  0  0  0  0  0  0  0
   -2.7845   -1.3415   -2.2252 H   0  0  0  0  0  0  0  0  0  0  0  0
   -4.2982   -0.4410   -1.9666 H   0  0  0  0  0  0  0  0  0  0  0  0
   -3.4207    0.8676   -0.2173 H   0  0  0  0  0  0  0  0  0  0  0  0
   -2.3760    0.9963   -1.7409 H   0  0  0  0  0  0  0  0  0  0  0  0
    3.1092    3.4843    0.0675 H   0  0  0  0  0  0  0  0  0  0  0  0
    1.3849    5.0386    1.0024 H   0  0  0  0  0  0  0  0  0  0  0  0
  1  2  1  0
  2  3  2  0
  3  4  1  0
  4  5  2  0
  5  6  1  0
  6  7  1  0
  7  8  2  0
  8  9  1  0
  9 10  2  0
 10 11  1  0
 11 12  2  0
 12 13  1  0
 13 14  2  0
 14 15  1  0
 15 16  1  0
 16 17  1  0
 17 18  1  0
 18 19  1  0
 19 20  1  0
  5 21  1  0
 21 22  2  0
 22  2  1  0
 14  4  1  0
 20 15  1  0
 12  7  1  0
  3 23  1  0
  8 24  1  0
  9 25  1  0
 10 26  1  0
 11 27  1  0
 16 28  1  0
 16 29  1  0
 17 30  1  0
 17 31  1  0
 18 32  1  0
 19 33  1  0
 19 34  1  0
 20 35  1  0
 20 36  1  0
 21 37  1  0
 22 38  1  0
M  END
$$$$
