
     RDKit          3D

 44 46  0  0  0  0  0  0  0  0999 V2000
   -3.2094    0.5997   -2.0454 C   0  0  0  0  0  0  0  0  0  0  0  0
   -2.6485   -0.2773   -0.9433 C   0  0  1  0  0  0  0  0  0  0  0  0
   -1.2378   -0.6004   -1.3015 C   0  0  0  0  0  0  0  0  0  0  0  0
   -0.1916   -0.2406   -0.5830 N   0  0  0  0  0  0  0  0  0  0  0  0
    1.1109   -0.5199   -0.8906 C   0  0  0  0  0  0  0  0  0  0  0  0
    2.1058   -0.0491    0.0043 N   0  0  0  0  0  0  0  0  0  0  0  0
    3.4764   -0.2377   -0.1511 C   0  0  0  0  0  0  0  0  0  0  0  0
    3.8923   -0.8990   -1.1674 O   0  0  0  0  0  0  0  0  0  0  0  0
    4.5188    0.2615    0.7719 C   0  0  0  0  0  0  0  0  0  0  0  0
    5.6972   -0.3851    0.7467 N   0  0  0  0  0  0  0  0  0  0  0  0
    6.7050    0.0083    1.5166 C   0  0  0  0  0  0  0  0  0  0  0  0
    6.6165    1.0871    2.3800 C   0  0  0  0  0  0  0  0  0  0  0  0
    7.7297    1.4896    3.2035 C   0  0  0  0  0  0  0  0  0  0  0  0
    8.6347    1.7971    3.8790 N   0  0  0  0  0  0  0  0  0  0  0  0
    5.4112    1.7391    2.3967 C   0  0  0  0  0  0  0  0  0  0  0  0
    4.3551    1.3300    1.5914 C   0  0  0  0  0  0  0  0  0  0  0  0
    2.8720    2.2924    1.6619 Cl  0  0  0  0  0  0  0  0  0  0  0  0
    1.3023   -1.2274   -2.0373 C   0  0  0  0  0  0  0  0  0  0  0  0
    0.2538   -1.6508   -2.8612 C   0  0  0  0  0  0  0  0  0  0  0  0
   -1.0197   -1.3158   -2.4580 C   0  0  0  0  0  0  0  0  0  0  0  0
   -2.0415   -1.7381   -3.2689 F   0  0  0  0  0  0  0  0  0  0  0  0
   -2.6501    0.4570    0.3880 C   0  0  0  0  0  0  0  0  0  0  0  0
   -3.9428    0.3922    1.1187 C   0  0  1  0  0  0  0  0  0  0  0  0
   -4.6496    1.7172    1.2418 C   0  0  0  0  0  0  0  0  0  0  0  0
   -5.8416    1.6042    1.9277 F   0  0  0  0  0  0  0  0  0  0  0  0
   -4.9665    2.2551    0.0095 F   0  0  0  0  0  0  0  0  0  0  0  0
   -3.8265    2.6464    1.8678 F   0  0  0  0  0  0  0  0  0  0  0  0
   -4.8558   -0.5373    0.5588 O   0  0  0  0  0  0  0  0  0  0  0  0
   -4.3806   -1.6701   -0.0931 C   0  0  0  0  0  0  0  0  0  0  0  0
   -4.9931   -2.9359   -0.0072 N   0  0  0  0  0  0  0  0  0  0  0  0
   -3.3326   -1.5282   -0.8008 N   0  0  0  0  0  0  0  0  0  0  0  0
   -4.2902    0.4686   -2.1802 H   0  0  0  0  0  0  0  0  0  0  0  0
   -2.9951    1.6537   -1.7227 H   0  0  0  0  0  0  0  0  0  0  0  0
   -2.6301    0.4416   -2.9601 H   0  0  0  0  0  0  0  0  0  0  0  0
    1.7484    0.4678    0.8819 H   0  0  0  0  0  0  0  0  0  0  0  0
    7.6679   -0.5207    1.4956 H   0  0  0  0  0  0  0  0  0  0  0  0
    5.2916    2.5943    3.0596 H   0  0  0  0  0  0  0  0  0  0  0  0
    2.2745   -1.5066   -2.3841 H   0  0  0  0  0  0  0  0  0  0  0  0
    0.4419   -2.2105   -3.7641 H   0  0  0  0  0  0  0  0  0  0  0  0
   -1.8306   -0.0050    0.9939 H   0  0  0  0  0  0  0  0  0  0  0  0
   -2.3667    1.5284    0.2598 H   0  0  0  0  0  0  0  0  0  0  0  0
   -3.7689    0.0312    2.1736 H   0  0  0  0  0  0  0  0  0  0  0  0
   -5.6817   -3.1323    0.7338 H   0  0  0  0  0  0  0  0  0  0  0  0
   -4.7549   -3.6745   -0.6883 H   0  0  0  0  0  0  0  0  0  0  0  0
  2  1  1  6
  2  3  1  0
  3  4  2  0
  4  5  1  0
  5  6  1  0
  6  7  1  0
  7  8  2  0
  7  9  1  0
  9 10  2  0
 10 11  1  0
 11 12  2  0
 12 13  1  0
 13 14  3  0
 12 15  1  0
 15 16  2  0
 16 17  1  0
  5 18  2  0
 18 19  1  0
 19 20  2  0
 20 21  1  0
  2 22  1  0
 22 23  1  0
 23 24  1  0
 24 25  1  0
 24 26  1  0
 24 27  1  0
 23 28  1  0
 28 29  1  0
 29 30  1  0
 29 31  2  0
 31  2  1  0
 20  3  1  0
 16  9  1  0
  1 32  1  0
  1 33  1  0
  1 34  1  0
  6 35  1  0
 11 36  1  0
 15 37  1  0
 18 38  1  0
 19 39  1  0
 22 40  1  0
 22 41  1  0
 23 42  1  1
 30 43  1  0
 30 44  1  0
M  END
$$$$
