
     RDKit          3D

 50 52  0  0  0  0  0  0  0  0999 V2000
    0.8828   -1.3064    0.5611 C   0  0  0  0  0  0  0  0  0  0  0  0
    0.8829   -0.1431   -0.3964 C   0  0  0  0  0  0  0  0  0  0  0  0
    1.0273    1.1259    0.4408 C   0  0  0  0  0  0  0  0  0  0  0  0
    2.0288   -0.1760   -1.3536 C   0  0  0  0  0  0  0  0  0  0  0  0
    3.3447   -0.1402   -0.6492 C   0  0  0  0  0  0  0  0  0  0  0  0
    3.9581    1.0518   -0.3653 C   0  0  0  0  0  0  0  0  0  0  0  0
    5.1783    1.1004    0.2873 C   0  0  0  0  0  0  0  0  0  0  0  0
    5.8188   -0.0520    0.6743 C   0  0  0  0  0  0  0  0  0  0  0  0
    7.1364    0.0103    1.3786 C   0  0  0  0  0  0  0  0  0  0  0  0
    7.0976   -0.9442    2.3931 F   0  0  0  0  0  0  0  0  0  0  0  0
    7.2582    1.2793    1.9139 F   0  0  0  0  0  0  0  0  0  0  0  0
    8.1722   -0.2812    0.5185 F   0  0  0  0  0  0  0  0  0  0  0  0
    5.2076   -1.2596    0.3921 C   0  0  0  0  0  0  0  0  0  0  0  0
    3.9957   -1.3016   -0.2563 C   0  0  0  0  0  0  0  0  0  0  0  0
   -0.3817   -0.1429   -1.1453 C   0  0  0  0  0  0  0  0  0  0  0  0
   -0.3932   -0.2432   -2.4062 O   0  0  0  0  0  0  0  0  0  0  0  0
   -1.6147   -0.0258   -0.4122 N   0  0  0  0  0  0  0  0  0  0  0  0
   -2.8160   -0.0304   -1.1839 C   0  0  0  0  0  0  0  0  0  0  0  0
   -4.0901    0.0760   -0.4320 C   0  0  1  0  0  0  0  0  0  0  0  0
   -4.3839   -1.0020    0.5404 C   0  0  0  0  0  0  0  0  0  0  0  0
   -3.6339   -1.3280    1.7450 C   0  0  0  0  0  0  0  0  0  0  0  0
   -5.0758   -0.7600    1.8117 C   0  0  0  0  0  0  0  0  0  0  0  0
   -4.1324    1.4032    0.1654 N   0  0  0  0  0  0  0  0  0  0  0  0
   -4.3622    2.3242   -0.8936 C   0  0  0  0  0  0  0  0  0  0  0  0
   -4.0554    3.5422   -0.9774 O   0  0  0  0  0  0  0  0  0  0  0  0
   -5.0501    1.5678   -1.9140 N   0  0  0  0  0  0  0  0  0  0  0  0
   -5.2069    0.2367   -1.4377 C   0  0  0  0  0  0  0  0  0  0  0  0
   -6.0661   -0.6185   -1.7651 O   0  0  0  0  0  0  0  0  0  0  0  0
    0.5528   -2.2448    0.0840 H   0  0  0  0  0  0  0  0  0  0  0  0
    0.1809   -1.0351    1.3890 H   0  0  0  0  0  0  0  0  0  0  0  0
    1.8871   -1.3805    1.0341 H   0  0  0  0  0  0  0  0  0  0  0  0
    0.1561    1.1327    1.1354 H   0  0  0  0  0  0  0  0  0  0  0  0
    1.0552    2.0227   -0.2055 H   0  0  0  0  0  0  0  0  0  0  0  0
    1.9455    1.0067    1.0595 H   0  0  0  0  0  0  0  0  0  0  0  0
    1.9848    0.7500   -1.9657 H   0  0  0  0  0  0  0  0  0  0  0  0
    1.9992   -1.0445   -2.0432 H   0  0  0  0  0  0  0  0  0  0  0  0
    3.4683    1.9723   -0.6628 H   0  0  0  0  0  0  0  0  0  0  0  0
    5.6478    2.0641    0.5026 H   0  0  0  0  0  0  0  0  0  0  0  0
    5.7208   -2.1554    0.7012 H   0  0  0  0  0  0  0  0  0  0  0  0
    3.5450   -2.2626   -0.4616 H   0  0  0  0  0  0  0  0  0  0  0  0
   -1.5623    0.0606    0.6067 H   0  0  0  0  0  0  0  0  0  0  0  0
   -2.8123   -0.9942   -1.7704 H   0  0  0  0  0  0  0  0  0  0  0  0
   -2.7607    0.7847   -1.9726 H   0  0  0  0  0  0  0  0  0  0  0  0
   -4.7928   -1.9274   -0.0083 H   0  0  0  0  0  0  0  0  0  0  0  0
   -2.9184   -0.7141    2.2860 H   0  0  0  0  0  0  0  0  0  0  0  0
   -3.5803   -2.4153    2.0640 H   0  0  0  0  0  0  0  0  0  0  0  0
   -5.1750    0.2694    2.2226 H   0  0  0  0  0  0  0  0  0  0  0  0
   -5.8618   -1.4528    2.1735 H   0  0  0  0  0  0  0  0  0  0  0  0
   -4.0222    1.6831    1.1670 H   0  0  0  0  0  0  0  0  0  0  0  0
   -5.3849    1.9175   -2.8496 H   0  0  0  0  0  0  0  0  0  0  0  0
  1  2  1  0
  2  3  1  0
  2  4  1  0
  4  5  1  0
  5  6  2  0
  6  7  1  0
  7  8  2  0
  8  9  1  0
  9 10  1  0
  9 11  1  0
  9 12  1  0
  8 13  1  0
 13 14  2  0
  2 15  1  0
 15 16  2  0
 15 17  1  0
 17 18  1  0
 19 18  1  6
 19 20  1  0
 20 21  1  0
 21 22  1  0
 19 23  1  0
 23 24  1  0
 24 25  2  0
 24 26  1  0
 26 27  1  0
 27 28  2  0
 14  5  1  0
 27 19  1  0
 22 20  1  0
  1 29  1  0
  1 30  1  0
  1 31  1  0
  3 32  1  0
  3 33  1  0
  3 34  1  0
  4 35  1  0
  4 36  1  0
  6 37  1  0
  7 38  1  0
 13 39  1  0
 14 40  1  0
 17 41  1  0
 18 42  1  0
 18 43  1  0
 20 44  1  0
 21 45  1  0
 21 46  1  0
 22 47  1  0
 22 48  1  0
 23 49  1  0
 26 50  1  0
M  END
$$$$
