
     RDKit          3D

 68 72  0  0  0  0  0  0  0  0999 V2000
    1.5680    1.2885    2.4372 C   0  0  0  0  0  0  0  0  0  0  0  0
    0.9000    1.9922    1.3570 C   0  0  0  0  0  0  0  0  0  0  0  0
    0.7130    3.3840    1.4380 C   0  0  0  0  0  0  0  0  0  0  0  0
    0.0675    4.0993    0.4532 C   0  0  0  0  0  0  0  0  0  0  0  0
   -0.3929    3.4054   -0.6219 C   0  0  0  0  0  0  0  0  0  0  0  0
   -0.2097    2.0473   -0.7007 C   0  0  0  0  0  0  0  0  0  0  0  0
    0.4449    1.2927    0.2884 C   0  0  0  0  0  0  0  0  0  0  0  0
    0.5836   -0.1153    0.0791 C   0  0  2  0  0  0  0  0  0  0  0  0
   -0.2674   -1.0979    0.7387 C   0  0  1  0  0  0  0  0  0  0  0  0
   -1.3592   -1.4799   -0.0855 O   0  0  0  0  0  0  0  0  0  0  0  0
   -2.5474   -1.4338    0.6009 C   0  0  2  0  0  0  0  0  0  0  0  0
   -3.2369   -2.7999    0.4928 C   0  0  0  0  0  0  0  0  0  0  0  0
   -4.4550   -2.7778    1.1873 O   0  0  0  0  0  0  0  0  0  0  0  0
   -3.4617   -0.4889   -0.1345 C   0  0  0  0  0  0  0  0  0  0  0  0
   -4.1895    0.4448    0.5540 C   0  0  0  0  0  0  0  0  0  0  0  0
   -5.0238    1.3032   -0.1325 C   0  0  0  0  0  0  0  0  0  0  0  0
   -5.8264    2.3262    0.5848 C   0  0  0  0  0  0  0  0  0  0  0  0
   -6.8561    2.7489   -0.2450 F   0  0  0  0  0  0  0  0  0  0  0  0
   -5.0262    3.3932    0.9781 F   0  0  0  0  0  0  0  0  0  0  0  0
   -6.3819    1.7159    1.7036 F   0  0  0  0  0  0  0  0  0  0  0  0
   -5.1213    1.2172   -1.5122 C   0  0  0  0  0  0  0  0  0  0  0  0
   -4.3967    0.2832   -2.2290 C   0  0  0  0  0  0  0  0  0  0  0  0
   -4.4745    0.1597   -3.7081 C   0  0  0  0  0  0  0  0  0  0  0  0
   -4.9432    1.3236   -4.2815 F   0  0  0  0  0  0  0  0  0  0  0  0
   -3.2285   -0.1957   -4.1785 F   0  0  0  0  0  0  0  0  0  0  0  0
   -5.3509   -0.8763   -4.0016 F   0  0  0  0  0  0  0  0  0  0  0  0
   -3.5718   -0.5596   -1.5078 C   0  0  0  0  0  0  0  0  0  0  0  0
    0.4555   -2.4127    0.9923 C   0  0  0  0  0  0  0  0  0  0  0  0
    1.3076   -2.8534   -0.1506 C   0  0  0  0  0  0  0  0  0  0  0  0
    2.1795   -1.8007   -0.6872 C   0  0  2  0  0  0  0  0  0  0  0  0
    3.6527   -2.0056   -0.5255 C   0  0  0  0  0  0  0  0  0  0  0  0
    4.1620   -0.6500   -0.4100 N   0  0  0  0  0  0  0  0  0  0  0  0
    5.5499   -0.3535   -0.3186 C   0  0  0  0  0  0  0  0  0  0  0  0
    6.2434   -0.2646    0.8391 N   0  0  0  0  0  0  0  0  0  0  0  0
    7.5356    0.0308    0.5627 C   0  0  0  0  0  0  0  0  0  0  0  0
    8.5502    0.2016    1.4915 O   0  0  0  0  0  0  0  0  0  0  0  0
    7.5916    0.1165   -0.8182 C   0  0  0  0  0  0  0  0  0  0  0  0
    6.3771   -0.1211   -1.3080 O   0  0  0  0  0  0  0  0  0  0  0  0
    3.0389    0.2908   -0.4054 C   0  0  0  0  0  0  0  0  0  0  0  0
    1.9958   -0.5727    0.2321 C   0  0  1  0  0  0  0  0  0  0  0  0
    1.0662    0.3933    2.8378 H   0  0  0  0  0  0  0  0  0  0  0  0
    1.4619    1.9744    3.3551 H   0  0  0  0  0  0  0  0  0  0  0  0
    2.6716    1.2308    2.3899 H   0  0  0  0  0  0  0  0  0  0  0  0
    1.0854    3.9227    2.3009 H   0  0  0  0  0  0  0  0  0  0  0  0
   -0.0749    5.1689    0.5180 H   0  0  0  0  0  0  0  0  0  0  0  0
   -0.9032    3.9781   -1.3974 H   0  0  0  0  0  0  0  0  0  0  0  0
   -0.6175    1.5788   -1.6059 H   0  0  0  0  0  0  0  0  0  0  0  0
    0.3647   -0.2805   -1.0368 H   0  0  0  0  0  0  0  0  0  0  0  0
   -0.6357   -0.8489    1.7569 H   0  0  0  0  0  0  0  0  0  0  0  0
   -2.4483   -1.1176    1.6407 H   0  0  0  0  0  0  0  0  0  0  0  0
   -3.5002   -2.9794   -0.5708 H   0  0  0  0  0  0  0  0  0  0  0  0
   -2.5854   -3.6213    0.8142 H   0  0  0  0  0  0  0  0  0  0  0  0
   -4.3339   -2.4979    2.1307 H   0  0  0  0  0  0  0  0  0  0  0  0
   -4.1075    0.5050    1.6290 H   0  0  0  0  0  0  0  0  0  0  0  0
   -5.7800    1.8946   -2.0574 H   0  0  0  0  0  0  0  0  0  0  0  0
   -2.9957   -1.3016   -2.0764 H   0  0  0  0  0  0  0  0  0  0  0  0
   -0.2550   -3.2373    1.2284 H   0  0  0  0  0  0  0  0  0  0  0  0
    1.1213   -2.3440    1.8953 H   0  0  0  0  0  0  0  0  0  0  0  0
    1.9002   -3.7116    0.1739 H   0  0  0  0  0  0  0  0  0  0  0  0
    0.6358   -3.2325   -0.9689 H   0  0  0  0  0  0  0  0  0  0  0  0
    1.9400   -1.4653   -1.6965 H   0  0  0  0  0  0  0  0  0  0  0  0
    3.9036   -2.5919    0.3561 H   0  0  0  0  0  0  0  0  0  0  0  0
    4.0681   -2.4558   -1.4723 H   0  0  0  0  0  0  0  0  0  0  0  0
    8.5212   -0.3519    2.3544 H   0  0  0  0  0  0  0  0  0  0  0  0
    8.4790    0.3401   -1.3972 H   0  0  0  0  0  0  0  0  0  0  0  0
    3.2935    1.2069    0.1109 H   0  0  0  0  0  0  0  0  0  0  0  0
    2.8266    0.4539   -1.5036 H   0  0  0  0  0  0  0  0  0  0  0  0
    2.3022   -0.8155    1.2430 H   0  0  0  0  0  0  0  0  0  0  0  0
  1  2  1  0
  2  3  2  0
  3  4  1  0
  4  5  2  0
  5  6  1  0
  6  7  2  0
  7  8  1  0
  8  9  1  0
  9 10  1  0
 10 11  1  0
 11 12  1  0
 12 13  1  0
 11 14  1  0
 14 15  2  0
 15 16  1  0
 16 17  1  0
 17 18  1  0
 17 19  1  0
 17 20  1  0
 16 21  2  0
 21 22  1  0
 22 23  1  0
 23 24  1  0
 23 25  1  0
 23 26  1  0
 22 27  2  0
  9 28  1  0
 28 29  1  0
 29 30  1  0
 30 31  1  0
 31 32  1  0
 32 33  1  0
 33 34  2  0
 34 35  1  0
 35 36  1  0
 35 37  2  0
 37 38  1  0
 32 39  1  0
 39 40  1  0
  7  2  1  0
 40  8  1  0
 27 14  1  0
 40 30  1  0
 38 33  1  0
  1 41  1  0
  1 42  1  0
  1 43  1  0
  3 44  1  0
  4 45  1  0
  5 46  1  0
  6 47  1  0
  8 48  1  6
  9 49  1  1
 11 50  1  1
 12 51  1  0
 12 52  1  0
 13 53  1  0
 15 54  1  0
 21 55  1  0
 27 56  1  0
 28 57  1  0
 28 58  1  0
 29 59  1  0
 29 60  1  0
 30 61  1  6
 31 62  1  0
 31 63  1  0
 36 64  1  0
 37 65  1  0
 39 66  1  0
 39 67  1  0
 40 68  1  1
M  END
$$$$
