
     RDKit          3D

 44 46  0  0  0  0  0  0  0  0999 V2000
    4.6490   -1.0229    0.1824 C   0  0  0  0  0  0  0  0  0  0  0  0
    4.3299    0.3931    0.1626 N   0  0  0  0  0  0  0  0  0  0  0  0
    4.8470    0.9900   -1.0507 C   0  0  0  0  0  0  0  0  0  0  0  0
    2.9663    0.6727    0.4312 C   0  0  0  0  0  0  0  0  0  0  0  0
    2.0304    0.2248   -0.6750 C   0  0  0  0  0  0  0  0  0  0  0  0
    0.6129    0.4974   -0.3770 C   0  0  0  0  0  0  0  0  0  0  0  0
   -0.6739    0.1752   -0.1604 C   0  0  0  0  0  0  0  0  0  0  0  0
   -1.6276    1.2866    0.1273 C   0  0  0  0  0  0  0  0  0  0  0  0
   -1.0004    2.2022    0.9726 C   0  0  0  0  0  0  0  0  0  0  0  0
   -1.7836    3.2825    1.2931 C   0  0  0  0  0  0  0  0  0  0  0  0
   -3.0821    3.4099    0.7948 C   0  0  0  0  0  0  0  0  0  0  0  0
   -3.6134    2.4562   -0.0309 C   0  0  0  0  0  0  0  0  0  0  0  0
   -2.9156    1.3106   -0.4297 C   0  0  0  0  0  0  0  0  0  0  0  0
   -3.6385    0.4066   -1.3445 C   0  0  0  0  0  0  0  0  0  0  0  0
   -3.6281   -1.0348   -1.0256 C   0  0  0  0  0  0  0  0  0  0  0  0
   -2.3647   -1.6571   -0.6276 C   0  0  0  0  0  0  0  0  0  0  0  0
   -2.5580   -3.0440   -0.6482 C   0  0  0  0  0  0  0  0  0  0  0  0
   -1.5212   -3.8646   -0.2849 C   0  0  0  0  0  0  0  0  0  0  0  0
   -0.2858   -3.4210    0.1058 C   0  0  0  0  0  0  0  0  0  0  0  0
   -0.0573   -2.0675    0.1404 C   0  0  0  0  0  0  0  0  0  0  0  0
   -1.0990   -1.2540   -0.2271 C   0  0  0  0  0  0  0  0  0  0  0  0
    4.0059   -1.5319    0.9270 H   0  0  0  0  0  0  0  0  0  0  0  0
    5.7082   -1.0990    0.5489 H   0  0  0  0  0  0  0  0  0  0  0  0
    4.6227   -1.5077   -0.8019 H   0  0  0  0  0  0  0  0  0  0  0  0
    5.9063    0.6139   -1.1372 H   0  0  0  0  0  0  0  0  0  0  0  0
    4.3338    0.6692   -1.9560 H   0  0  0  0  0  0  0  0  0  0  0  0
    4.8511    2.0726   -0.9446 H   0  0  0  0  0  0  0  0  0  0  0  0
    2.8822    1.7847    0.5798 H   0  0  0  0  0  0  0  0  0  0  0  0
    2.6772    0.1483    1.3561 H   0  0  0  0  0  0  0  0  0  0  0  0
    2.3506    0.8566   -1.5810 H   0  0  0  0  0  0  0  0  0  0  0  0
    2.2851   -0.8278   -0.9002 H   0  0  0  0  0  0  0  0  0  0  0  0
    0.7624    1.5615   -0.3176 H   0  0  0  0  0  0  0  0  0  0  0  0
    0.0054    2.0198    1.3169 H   0  0  0  0  0  0  0  0  0  0  0  0
   -1.3896    4.0401    1.9368 H   0  0  0  0  0  0  0  0  0  0  0  0
   -3.7046    4.2766    1.0509 H   0  0  0  0  0  0  0  0  0  0  0  0
   -4.6364    2.5603   -0.4212 H   0  0  0  0  0  0  0  0  0  0  0  0
   -3.3523    0.6272   -2.4065 H   0  0  0  0  0  0  0  0  0  0  0  0
   -4.7249    0.7345   -1.3130 H   0  0  0  0  0  0  0  0  0  0  0  0
   -4.4483   -1.2270   -0.2842 H   0  0  0  0  0  0  0  0  0  0  0  0
   -3.9354   -1.5662   -1.9835 H   0  0  0  0  0  0  0  0  0  0  0  0
   -3.5091   -3.5110   -0.9436 H   0  0  0  0  0  0  0  0  0  0  0  0
   -1.6401   -4.9588   -0.2909 H   0  0  0  0  0  0  0  0  0  0  0  0
    0.5291   -4.0691    0.3911 H   0  0  0  0  0  0  0  0  0  0  0  0
    0.8345   -1.6085    0.4536 H   0  0  0  0  0  0  0  0  0  0  0  0
  1  2  1  0
  2  3  1  0
  2  4  1  0
  4  5  1  0
  5  6  1  0
  6  7  2  3
  7  8  1  0
  8  9  2  0
  9 10  1  0
 10 11  2  0
 11 12  1  0
 12 13  2  0
 13 14  1  0
 14 15  1  0
 15 16  1  0
 16 17  2  0
 17 18  1  0
 18 19  2  0
 19 20  1  0
 20 21  2  0
 21  7  1  0
 13  8  1  0
 21 16  1  0
  1 22  1  0
  1 23  1  0
  1 24  1  0
  3 25  1  0
  3 26  1  0
  3 27  1  0
  4 28  1  0
  4 29  1  0
  5 30  1  0
  5 31  1  0
  6 32  1  0
  9 33  1  0
 10 34  1  0
 11 35  1  0
 12 36  1  0
 14 37  1  0
 14 38  1  0
 15 39  1  0
 15 40  1  0
 17 41  1  0
 18 42  1  0
 19 43  1  0
 20 44  1  0
M  END
$$$$
