
     RDKit          3D

 36 39  0  0  0  0  0  0  0  0999 V2000
    0.4350    0.0439    1.2197 C   0  0  1  0  0  0  0  0  0  0  0  0
   -0.2872    1.0795    1.9586 N   0  0  0  0  0  0  0  0  0  0  0  0
   -0.6091   -1.0646    1.0494 C   0  0  0  0  0  0  0  0  0  0  0  0
   -1.6420   -0.5488    0.1812 N   0  0  0  0  0  0  0  0  0  0  0  0
   -1.2471   -0.0001   -0.9968 C   0  0  0  0  0  0  0  0  0  0  0  0
    0.2288    0.0262   -1.3008 C   0  0  0  0  0  0  0  0  0  0  0  0
    0.9789    0.5383   -0.0689 C   0  0  2  0  0  0  0  0  0  0  0  0
    2.4114    0.3492   -0.2900 C   0  0  0  0  0  0  0  0  0  0  0  0
    3.2081    1.3429   -0.8557 C   0  0  0  0  0  0  0  0  0  0  0  0
    4.5649    1.2510   -1.0985 C   0  0  0  0  0  0  0  0  0  0  0  0
    5.2077    2.3061   -1.6572 F   0  0  0  0  0  0  0  0  0  0  0  0
    5.1939    0.0800   -0.7554 C   0  0  0  0  0  0  0  0  0  0  0  0
    6.5192    0.0116   -1.0013 F   0  0  0  0  0  0  0  0  0  0  0  0
    4.4630   -0.9557   -0.1864 C   0  0  0  0  0  0  0  0  0  0  0  0
    3.1218   -0.7871    0.0222 C   0  0  0  0  0  0  0  0  0  0  0  0
    2.4913   -1.8305    0.5712 F   0  0  0  0  0  0  0  0  0  0  0  0
   -2.3451    0.4160   -1.6524 N   0  0  0  0  0  0  0  0  0  0  0  0
   -3.4465    0.1451   -0.9166 C   0  0  0  0  0  0  0  0  0  0  0  0
   -2.9897   -0.4701    0.2511 C   0  0  0  0  0  0  0  0  0  0  0  0
   -3.8855   -0.8792    1.2318 C   0  0  0  0  0  0  0  0  0  0  0  0
   -5.2300   -0.6360    0.9683 C   0  0  0  0  0  0  0  0  0  0  0  0
   -5.6393   -0.0395   -0.1698 N   0  0  0  0  0  0  0  0  0  0  0  0
   -4.7951    0.3653   -1.1329 C   0  0  0  0  0  0  0  0  0  0  0  0
    1.2415   -0.3989    1.8357 H   0  0  0  0  0  0  0  0  0  0  0  0
   -0.6842    1.8135    1.3604 H   0  0  0  0  0  0  0  0  0  0  0  0
   -0.8911    0.6954    2.6888 H   0  0  0  0  0  0  0  0  0  0  0  0
   -0.9820   -1.3217    2.0505 H   0  0  0  0  0  0  0  0  0  0  0  0
   -0.1999   -1.9580    0.5439 H   0  0  0  0  0  0  0  0  0  0  0  0
    0.5769   -0.9553   -1.6298 H   0  0  0  0  0  0  0  0  0  0  0  0
    0.3586    0.7587   -2.1093 H   0  0  0  0  0  0  0  0  0  0  0  0
    0.8056    1.6543   -0.0808 H   0  0  0  0  0  0  0  0  0  0  0  0
    2.7139    2.2861   -1.1346 H   0  0  0  0  0  0  0  0  0  0  0  0
    4.9979   -1.8553    0.0665 H   0  0  0  0  0  0  0  0  0  0  0  0
   -3.5389   -1.3573    2.1408 H   0  0  0  0  0  0  0  0  0  0  0  0
   -5.9534   -0.9472    1.7214 H   0  0  0  0  0  0  0  0  0  0  0  0
   -5.1524    0.8422   -2.0375 H   0  0  0  0  0  0  0  0  0  0  0  0
  1  2  1  0
  1  3  1  0
  3  4  1  0
  4  5  1  0
  5  6  1  0
  6  7  1  0
  7  8  1  0
  8  9  2  0
  9 10  1  0
 10 11  1  0
 10 12  2  0
 12 13  1  0
 12 14  1  0
 14 15  2  0
 15 16  1  0
  5 17  2  0
 17 18  1  0
 18 19  2  0
 19 20  1  0
 20 21  2  0
 21 22  1  0
 22 23  2  0
  7  1  1  0
 15  8  1  0
 23 18  1  0
 19  4  1  0
  1 24  1  1
  2 25  1  0
  2 26  1  0
  3 27  1  0
  3 28  1  0
  6 29  1  0
  6 30  1  0
  7 31  1  1
  9 32  1  0
 14 33  1  0
 20 34  1  0
 21 35  1  0
 23 36  1  0
M  END
$$$$
