
     RDKit          3D

 75 79  0  0  0  0  0  0  0  0999 V2000
    1.2965   -0.1992   -3.7640 C   0  0  0  0  0  0  0  0  0  0  0  0
    0.4876   -0.2888   -2.6039 O   0  0  0  0  0  0  0  0  0  0  0  0
    1.1177   -0.2931   -1.3660 C   0  0  0  0  0  0  0  0  0  0  0  0
    2.4869   -0.2136   -1.2457 C   0  0  0  0  0  0  0  0  0  0  0  0
    3.1294   -0.2163   -0.0365 C   0  0  0  0  0  0  0  0  0  0  0  0
    4.5437   -0.1403    0.0030 N   0  0  0  0  0  0  0  0  0  0  0  0
    5.2842   -0.1791   -1.2201 C   0  0  0  0  0  0  0  0  0  0  0  0
    6.7052   -0.5674   -0.9229 C   0  0  0  0  0  0  0  0  0  0  0  0
    7.2431    0.2621    0.0771 N   0  0  0  0  0  0  0  0  0  0  0  0
    8.1904    1.2460   -0.2822 C   0  0  0  0  0  0  0  0  0  0  0  0
    9.4835    0.6031   -0.7199 C   0  0  2  0  0  0  0  0  0  0  0  0
   10.0593   -0.3025    0.3331 C   0  0  0  0  0  0  0  0  0  0  0  0
   10.3883    1.6370   -1.0589 O   0  0  0  0  0  0  0  0  0  0  0  0
    6.5681    0.3860    1.3047 C   0  0  0  0  0  0  0  0  0  0  0  0
    5.1402   -0.0225    1.3150 C   0  0  0  0  0  0  0  0  0  0  0  0
    2.3483   -0.3025    1.0838 C   0  0  0  0  0  0  0  0  0  0  0  0
    0.9518   -0.3843    0.9833 C   0  0  0  0  0  0  0  0  0  0  0  0
    0.3028   -0.3824   -0.2236 C   0  0  0  0  0  0  0  0  0  0  0  0
   -1.0863   -0.4742   -0.3329 N   0  0  0  0  0  0  0  0  0  0  0  0
   -2.0408   -0.5422    0.7106 C   0  0  0  0  0  0  0  0  0  0  0  0
   -1.7430   -0.4824    1.9819 N   0  0  0  0  0  0  0  0  0  0  0  0
   -2.6430   -0.5517    2.9571 C   0  0  0  0  0  0  0  0  0  0  0  0
   -3.9609   -0.6949    2.5916 C   0  0  0  0  0  0  0  0  0  0  0  0
   -5.1207   -0.7981    3.3245 C   0  0  0  0  0  0  0  0  0  0  0  0
   -6.2020   -0.9301    2.4517 C   0  0  0  0  0  0  0  0  0  0  0  0
   -5.6852   -0.9052    1.1918 C   0  0  0  0  0  0  0  0  0  0  0  0
   -6.3359   -0.9929   -0.1038 C   0  0  0  0  0  0  0  0  0  0  0  0
   -5.8363   -1.9112   -1.0568 C   0  0  0  0  0  0  0  0  0  0  0  0
   -6.4107   -1.9818   -2.2891 C   0  0  0  0  0  0  0  0  0  0  0  0
   -7.4716   -1.1820   -2.6427 C   0  0  0  0  0  0  0  0  0  0  0  0
   -7.9432   -0.2976   -1.7066 C   0  0  0  0  0  0  0  0  0  0  0  0
   -7.3837   -0.1894   -0.4248 C   0  0  0  0  0  0  0  0  0  0  0  0
   -7.9372    0.7451    0.4637 N   0  0  0  0  0  0  0  0  0  0  0  0
   -9.0412    0.4187    1.3227 C   0  0  0  0  0  0  0  0  0  0  0  0
   -7.3040    2.3447    0.4942 S   0  0  0  0  0  6  0  0  0  0  0  0
   -5.5895    2.3592    0.9590 C   0  0  0  0  0  0  0  0  0  0  0  0
   -7.3601    2.8545   -0.9396 O   0  0  0  0  0  0  0  0  0  0  0  0
   -8.1173    3.2753    1.3133 O   0  0  0  0  0  0  0  0  0  0  0  0
   -4.3239   -0.7624    1.2832 N   0  0  0  0  0  0  0  0  0  0  0  0
   -3.3662   -0.6850    0.3927 N   0  0  0  0  0  0  0  0  0  0  0  0
    2.0751   -1.0092   -3.7148 H   0  0  0  0  0  0  0  0  0  0  0  0
    0.6992   -0.3862   -4.6848 H   0  0  0  0  0  0  0  0  0  0  0  0
    1.7756    0.7997   -3.8474 H   0  0  0  0  0  0  0  0  0  0  0  0
    3.0887   -0.1412   -2.1689 H   0  0  0  0  0  0  0  0  0  0  0  0
    5.1938    0.7833   -1.7484 H   0  0  0  0  0  0  0  0  0  0  0  0
    4.8976   -0.9731   -1.9234 H   0  0  0  0  0  0  0  0  0  0  0  0
    7.3387   -0.5230   -1.8300 H   0  0  0  0  0  0  0  0  0  0  0  0
    6.6845   -1.6133   -0.5517 H   0  0  0  0  0  0  0  0  0  0  0  0
    8.3465    1.9508    0.5661 H   0  0  0  0  0  0  0  0  0  0  0  0
    7.8681    1.8926   -1.1315 H   0  0  0  0  0  0  0  0  0  0  0  0
    9.2815   -0.0147   -1.6088 H   0  0  0  0  0  0  0  0  0  0  0  0
   11.1127   -0.5344    0.0681 H   0  0  0  0  0  0  0  0  0  0  0  0
    9.5129   -1.2811    0.2412 H   0  0  0  0  0  0  0  0  0  0  0  0
    9.9670    0.0950    1.3441 H   0  0  0  0  0  0  0  0  0  0  0  0
   10.3677    2.2659   -0.2844 H   0  0  0  0  0  0  0  0  0  0  0  0
    7.1080   -0.2523    2.0637 H   0  0  0  0  0  0  0  0  0  0  0  0
    6.7045    1.4335    1.6995 H   0  0  0  0  0  0  0  0  0  0  0  0
    4.9628   -0.9755    1.8503 H   0  0  0  0  0  0  0  0  0  0  0  0
    4.5529    0.7820    1.8455 H   0  0  0  0  0  0  0  0  0  0  0  0
    2.8445   -0.3057    2.0479 H   0  0  0  0  0  0  0  0  0  0  0  0
    0.4533   -0.4495    1.9397 H   0  0  0  0  0  0  0  0  0  0  0  0
   -1.4548   -0.4946   -1.3479 H   0  0  0  0  0  0  0  0  0  0  0  0
   -2.3138   -0.4943    3.9788 H   0  0  0  0  0  0  0  0  0  0  0  0
   -5.1422   -0.7753    4.4087 H   0  0  0  0  0  0  0  0  0  0  0  0
   -7.2028   -1.0358    2.8200 H   0  0  0  0  0  0  0  0  0  0  0  0
   -5.0012   -2.5379   -0.7727 H   0  0  0  0  0  0  0  0  0  0  0  0
   -6.0587   -2.6735   -3.0531 H   0  0  0  0  0  0  0  0  0  0  0  0
   -7.9161   -1.2586   -3.6414 H   0  0  0  0  0  0  0  0  0  0  0  0
   -8.7739    0.3493   -1.9403 H   0  0  0  0  0  0  0  0  0  0  0  0
   -9.1858   -0.6962    1.4162 H   0  0  0  0  0  0  0  0  0  0  0  0
  -10.0084    0.8132    0.9904 H   0  0  0  0  0  0  0  0  0  0  0  0
   -8.8939    0.8139    2.3693 H   0  0  0  0  0  0  0  0  0  0  0  0
   -5.2372    3.4055    1.0639 H   0  0  0  0  0  0  0  0  0  0  0  0
   -4.9744    1.8972    0.1677 H   0  0  0  0  0  0  0  0  0  0  0  0
   -5.4963    1.8849    1.9456 H   0  0  0  0  0  0  0  0  0  0  0  0
  1  2  1  0
  2  3  1  0
  3  4  2  0
  4  5  1  0
  5  6  1  0
  6  7  1  0
  7  8  1  0
  8  9  1  0
  9 10  1  0
 10 11  1  0
 11 12  1  0
 11 13  1  0
  9 14  1  0
 14 15  1  0
  5 16  2  0
 16 17  1  0
 17 18  2  0
 18 19  1  0
 19 20  1  0
 20 21  1  0
 21 22  2  0
 22 23  1  0
 23 24  2  0
 24 25  1  0
 25 26  2  0
 26 27  1  0
 27 28  2  0
 28 29  1  0
 29 30  2  0
 30 31  1  0
 31 32  2  0
 32 33  1  0
 33 34  1  0
 33 35  1  0
 35 36  1  0
 35 37  2  0
 35 38  2  0
 26 39  1  0
 39 40  1  0
 18  3  1  0
 40 20  2  0
 15  6  1  0
 39 23  1  0
 32 27  1  0
  1 41  1  0
  1 42  1  0
  1 43  1  0
  4 44  1  0
  7 45  1  0
  7 46  1  0
  8 47  1  0
  8 48  1  0
 10 49  1  0
 10 50  1  0
 11 51  1  6
 12 52  1  0
 12 53  1  0
 12 54  1  0
 13 55  1  0
 14 56  1  0
 14 57  1  0
 15 58  1  0
 15 59  1  0
 16 60  1  0
 17 61  1  0
 19 62  1  0
 22 63  1  0
 24 64  1  0
 25 65  1  0
 28 66  1  0
 29 67  1  0
 30 68  1  0
 31 69  1  0
 34 70  1  0
 34 71  1  0
 34 72  1  0
 36 73  1  0
 36 74  1  0
 36 75  1  0
M  END
$$$$
