
     RDKit          3D

 42 44  0  0  0  0  0  0  0  0999 V2000
   -1.2714   -2.0128    0.7800 C   0  0  0  0  0  0  0  0  0  0  0  0
   -2.0519   -0.8792    0.3304 N   0  0  0  0  0  0  0  0  0  0  0  0
   -1.3850    0.2903   -0.1196 C   0  0  0  0  0  0  0  0  0  0  0  0
   -2.0692    1.2669   -0.5070 O   0  0  0  0  0  0  0  0  0  0  0  0
    0.0286    0.3857   -0.1436 N   0  0  0  0  0  0  0  0  0  0  0  0
    0.8692   -0.5802    0.2411 N   0  0  0  0  0  0  0  0  0  0  0  0
    2.1416   -0.1716    0.0936 C   0  0  0  0  0  0  0  0  0  0  0  0
    3.3597   -0.9269    0.3996 C   0  0  0  0  0  0  0  0  0  0  0  0
    4.2755   -0.4499    1.3313 C   0  0  0  0  0  0  0  0  0  0  0  0
    5.4313   -1.1385    1.6407 C   0  0  0  0  0  0  0  0  0  0  0  0
    5.6634   -2.3339    0.9929 C   0  0  0  0  0  0  0  0  0  0  0  0
    7.1473   -3.1873    1.4106 Cl  0  0  0  0  0  0  0  0  0  0  0  0
    4.7806   -2.8499    0.0570 C   0  0  0  0  0  0  0  0  0  0  0  0
    3.6459   -2.1200   -0.2105 C   0  0  0  0  0  0  0  0  0  0  0  0
    2.0450    1.0864   -0.3981 N   0  0  0  0  0  0  0  0  0  0  0  0
    0.7630    1.4324   -0.5451 C   0  0  0  0  0  0  0  0  0  0  0  0
    0.0627    2.9696   -1.1513 S   0  0  0  0  0  0  0  0  0  0  0  0
    1.3905    4.1225   -1.5887 C   0  0  0  0  0  0  0  0  0  0  0  0
    0.7526    5.4012   -2.0934 C   0  0  0  0  0  0  0  0  0  0  0  0
    1.7479    6.2947   -2.4326 F   0  0  0  0  0  0  0  0  0  0  0  0
   -0.0574    5.1041   -3.1917 F   0  0  0  0  0  0  0  0  0  0  0  0
   -0.0756    5.9632   -1.1484 F   0  0  0  0  0  0  0  0  0  0  0  0
   -3.4696   -0.9779    0.3557 C   0  0  0  0  0  0  0  0  0  0  0  0
   -4.1697   -1.4587   -0.7372 C   0  0  0  0  0  0  0  0  0  0  0  0
   -5.5328   -1.5622   -0.7346 C   0  0  0  0  0  0  0  0  0  0  0  0
   -6.2601   -1.1883    0.3648 C   0  0  0  0  0  0  0  0  0  0  0  0
   -5.5917   -0.7048    1.4709 C   0  0  0  0  0  0  0  0  0  0  0  0
   -4.2278   -0.6083    1.4503 C   0  0  0  0  0  0  0  0  0  0  0  0
   -1.9184   -2.8511    1.0820 H   0  0  0  0  0  0  0  0  0  0  0  0
   -0.6383   -2.4039   -0.0637 H   0  0  0  0  0  0  0  0  0  0  0  0
   -0.6322   -1.7728    1.6557 H   0  0  0  0  0  0  0  0  0  0  0  0
    4.0493    0.4927    1.8134 H   0  0  0  0  0  0  0  0  0  0  0  0
    6.1525   -0.7574    2.3781 H   0  0  0  0  0  0  0  0  0  0  0  0
    4.9996   -3.7767   -0.4192 H   0  0  0  0  0  0  0  0  0  0  0  0
    2.9211   -2.4879   -0.9415 H   0  0  0  0  0  0  0  0  0  0  0  0
    1.9665    3.6524   -2.4073 H   0  0  0  0  0  0  0  0  0  0  0  0
    2.0402    4.3764   -0.7486 H   0  0  0  0  0  0  0  0  0  0  0  0
   -3.6172   -1.7577   -1.6107 H   0  0  0  0  0  0  0  0  0  0  0  0
   -6.0140   -1.9536   -1.6416 H   0  0  0  0  0  0  0  0  0  0  0  0
   -7.3444   -1.2732    0.3603 H   0  0  0  0  0  0  0  0  0  0  0  0
   -6.2065   -0.4201    2.3200 H   0  0  0  0  0  0  0  0  0  0  0  0
   -3.7011   -0.2335    2.3060 H   0  0  0  0  0  0  0  0  0  0  0  0
  1  2  1  0
  2  3  1  0
  3  4  2  0
  3  5  1  0
  5  6  1  0
  6  7  2  0
  7  8  1  0
  8  9  2  0
  9 10  1  0
 10 11  2  0
 11 12  1  0
 11 13  1  0
 13 14  2  0
  7 15  1  0
 15 16  2  0
 16 17  1  0
 17 18  1  0
 18 19  1  0
 19 20  1  0
 19 21  1  0
 19 22  1  0
  2 23  1  0
 23 24  2  0
 24 25  1  0
 25 26  2  0
 26 27  1  0
 27 28  2  0
 16  5  1  0
 28 23  1  0
 14  8  1  0
  1 29  1  0
  1 30  1  0
  1 31  1  0
  9 32  1  0
 10 33  1  0
 13 34  1  0
 14 35  1  0
 18 36  1  0
 18 37  1  0
 24 38  1  0
 25 39  1  0
 26 40  1  0
 27 41  1  0
 28 42  1  0
M  END
$$$$
