
     RDKit          3D

 37 40  0  0  0  0  0  0  0  0999 V2000
    2.1324    0.9018    1.6095 O   0  0  0  0  0  0  0  0  0  0  0  0
    1.8396    0.2799    0.5564 C   0  0  0  0  0  0  0  0  0  0  0  0
    2.9077   -0.0284   -0.3327 N   0  0  0  0  0  0  0  0  0  0  0  0
    4.2464    0.3183   -0.1012 C   0  0  0  0  0  0  0  0  0  0  0  0
    4.7259    1.5226   -0.5534 C   0  0  0  0  0  0  0  0  0  0  0  0
    6.0524    1.8854   -0.3347 C   0  0  0  0  0  0  0  0  0  0  0  0
    6.8841    1.0134    0.3462 C   0  0  0  0  0  0  0  0  0  0  0  0
    8.1965    1.3354    0.5800 F   0  0  0  0  0  0  0  0  0  0  0  0
    6.3711   -0.1854    0.7858 C   0  0  0  0  0  0  0  0  0  0  0  0
    5.0794   -0.4982    0.5529 N   0  0  0  0  0  0  0  0  0  0  0  0
    0.4544   -0.0848    0.3063 C   0  0  0  0  0  0  0  0  0  0  0  0
   -0.6048    0.7147    0.6939 C   0  0  0  0  0  0  0  0  0  0  0  0
   -1.9073    0.3472    0.4438 C   0  0  0  0  0  0  0  0  0  0  0  0
   -2.9500    1.1755    0.8475 O   0  0  0  0  0  0  0  0  0  0  0  0
   -4.2551    0.8049    0.5946 C   0  0  0  0  0  0  0  0  0  0  0  0
   -4.8626    1.1903   -0.6062 C   0  0  0  0  0  0  0  0  0  0  0  0
   -6.1282    0.8434   -0.8761 N   0  0  0  0  0  0  0  0  0  0  0  0
   -6.8932    0.1170   -0.0368 C   0  0  0  0  0  0  0  0  0  0  0  0
   -6.3108   -0.2713    1.1509 C   0  0  0  0  0  0  0  0  0  0  0  0
   -7.0743   -1.0032    2.0031 F   0  0  0  0  0  0  0  0  0  0  0  0
   -5.0132    0.0624    1.4704 C   0  0  0  0  0  0  0  0  0  0  0  0
   -2.1687   -0.8356   -0.2030 C   0  0  0  0  0  0  0  0  0  0  0  0
   -1.1427   -1.6150   -0.5811 N   0  0  0  0  0  0  0  0  0  0  0  0
   -1.1471   -2.7827   -1.2099 N   0  0  0  0  0  0  0  0  0  0  0  0
    0.1340   -3.1593   -1.3614 C   0  0  0  0  0  0  0  0  0  0  0  0
    0.9352   -2.2228   -0.8250 N   0  0  0  0  0  0  0  0  0  0  0  0
    0.1178   -1.2624   -0.3407 C   0  0  0  0  0  0  0  0  0  0  0  0
    2.6672   -0.5440   -1.2075 H   0  0  0  0  0  0  0  0  0  0  0  0
    4.1248    2.2446   -1.0910 H   0  0  0  0  0  0  0  0  0  0  0  0
    6.4748    2.8071   -0.6644 H   0  0  0  0  0  0  0  0  0  0  0  0
    7.0354   -0.8513    1.3140 H   0  0  0  0  0  0  0  0  0  0  0  0
   -0.3617    1.6416    1.2028 H   0  0  0  0  0  0  0  0  0  0  0  0
   -4.3197    1.7662   -1.3185 H   0  0  0  0  0  0  0  0  0  0  0  0
   -7.9064   -0.1551   -0.2623 H   0  0  0  0  0  0  0  0  0  0  0  0
   -4.5971   -0.2654    2.4167 H   0  0  0  0  0  0  0  0  0  0  0  0
   -3.2084   -1.1217   -0.3989 H   0  0  0  0  0  0  0  0  0  0  0  0
    0.4724   -4.0852   -1.8468 H   0  0  0  0  0  0  0  0  0  0  0  0
  1  2  2  0
  2  3  1  0
  3  4  1  0
  4  5  2  0
  5  6  1  0
  6  7  2  0
  7  8  1  0
  7  9  1  0
  9 10  2  0
  2 11  1  0
 11 12  2  0
 12 13  1  0
 13 14  1  0
 14 15  1  0
 15 16  2  0
 16 17  1  0
 17 18  2  0
 18 19  1  0
 19 20  1  0
 19 21  2  0
 13 22  2  0
 22 23  1  0
 23 24  1  0
 24 25  2  0
 25 26  1  0
 26 27  2  0
 10  4  1  0
 27 11  1  0
 21 15  1  0
 27 23  1  0
  3 28  1  0
  5 29  1  0
  6 30  1  0
  9 31  1  0
 12 32  1  0
 16 33  1  0
 18 34  1  0
 21 35  1  0
 22 36  1  0
 25 37  1  0
M  END
$$$$
