
     RDKit          3D

 57 61  0  0  0  0  0  0  0  0999 V2000
   10.0864   -0.1994   -0.3856 C   0  0  0  0  0  0  0  0  0  0  0  0
    8.8142    0.1003    0.3063 C   0  0  0  0  0  0  0  0  0  0  0  0
    8.7614    0.5773    1.5741 N   0  0  0  0  0  0  0  0  0  0  0  0
    7.4840    0.7417    1.9046 C   0  0  0  0  0  0  0  0  0  0  0  0
    6.7119    0.3746    0.8599 N   0  0  0  0  0  0  0  0  0  0  0  0
    5.2918    0.4164    0.8515 C   0  0  0  0  0  0  0  0  0  0  0  0
    4.5403   -0.7276    0.7701 C   0  0  0  0  0  0  0  0  0  0  0  0
    3.1310   -0.7123    0.7601 C   0  0  0  0  0  0  0  0  0  0  0  0
    2.2782   -2.2403    0.6006 Cl  0  0  0  0  0  0  0  0  0  0  0  0
    2.4307    0.4573    0.8332 C   0  0  0  0  0  0  0  0  0  0  0  0
    0.9818    0.5812    0.8800 C   0  0  0  0  0  0  0  0  0  0  0  0
    0.4955    1.7421    0.5886 O   0  0  0  0  0  0  0  0  0  0  0  0
    0.0433   -0.3912    1.2034 N   0  0  0  0  0  0  0  0  0  0  0  0
   -1.3813   -0.1301    1.1895 C   0  0  0  0  0  0  0  0  0  0  0  0
   -1.8165    0.2145   -0.1975 C   0  0  1  0  0  0  0  0  0  0  0  0
   -1.5019   -0.9225   -1.0987 C   0  0  0  0  0  0  0  0  0  0  0  0
   -1.0740   -0.6964   -2.3917 C   0  0  0  0  0  0  0  0  0  0  0  0
   -0.7749   -1.7271   -3.2560 C   0  0  0  0  0  0  0  0  0  0  0  0
   -0.9187   -3.0097   -2.7815 C   0  0  0  0  0  0  0  0  0  0  0  0
   -1.3369   -3.2791   -1.5163 C   0  0  0  0  0  0  0  0  0  0  0  0
   -1.4774   -4.5462   -1.0519 F   0  0  0  0  0  0  0  0  0  0  0  0
   -1.6335   -2.2164   -0.6605 C   0  0  0  0  0  0  0  0  0  0  0  0
   -3.2638    0.5612   -0.2619 C   0  0  0  0  0  0  0  0  0  0  0  0
   -3.6640    1.4612   -1.2254 C   0  0  0  0  0  0  0  0  0  0  0  0
   -4.9782    1.8448   -1.3653 C   0  0  0  0  0  0  0  0  0  0  0  0
   -5.9302    1.3227   -0.5261 C   0  0  0  0  0  0  0  0  0  0  0  0
   -7.2724    1.4785   -0.3914 N   0  0  0  0  0  0  0  0  0  0  0  0
   -7.7253    0.7158    0.6127 C   0  0  0  0  0  0  0  0  0  0  0  0
   -9.1312    0.6152    1.0638 C   0  0  0  0  0  0  0  0  0  0  0  0
   -6.6597    0.0718    1.1175 N   0  0  0  0  0  0  0  0  0  0  0  0
   -5.5405    0.4173    0.4462 C   0  0  0  0  0  0  0  0  0  0  0  0
   -4.2273    0.0496    0.5678 C   0  0  0  0  0  0  0  0  0  0  0  0
    3.2179    1.6222    0.9154 C   0  0  0  0  0  0  0  0  0  0  0  0
    2.3375    3.1485    1.0136 Cl  0  0  0  0  0  0  0  0  0  0  0  0
    4.5908    1.5962    0.9238 C   0  0  0  0  0  0  0  0  0  0  0  0
    7.5452   -0.0141   -0.1062 N   0  0  0  0  0  0  0  0  0  0  0  0
   10.6295   -0.9403    0.2595 H   0  0  0  0  0  0  0  0  0  0  0  0
    9.9256   -0.6044   -1.3920 H   0  0  0  0  0  0  0  0  0  0  0  0
   10.7301    0.7005   -0.4115 H   0  0  0  0  0  0  0  0  0  0  0  0
    7.1010    1.1083    2.8500 H   0  0  0  0  0  0  0  0  0  0  0  0
    5.0382   -1.6935    0.7103 H   0  0  0  0  0  0  0  0  0  0  0  0
    0.3538   -1.3526    1.4927 H   0  0  0  0  0  0  0  0  0  0  0  0
   -1.5922    0.7532    1.8402 H   0  0  0  0  0  0  0  0  0  0  0  0
   -1.9559   -0.9582    1.6543 H   0  0  0  0  0  0  0  0  0  0  0  0
   -1.2775    1.1066   -0.5552 H   0  0  0  0  0  0  0  0  0  0  0  0
   -0.9675    0.3138   -2.7453 H   0  0  0  0  0  0  0  0  0  0  0  0
   -0.4397   -1.5878   -4.2677 H   0  0  0  0  0  0  0  0  0  0  0  0
   -0.6862   -3.8218   -3.4527 H   0  0  0  0  0  0  0  0  0  0  0  0
   -1.9636   -2.4808    0.3362 H   0  0  0  0  0  0  0  0  0  0  0  0
   -2.9414    1.9016   -1.9142 H   0  0  0  0  0  0  0  0  0  0  0  0
   -5.2763    2.5460   -2.1192 H   0  0  0  0  0  0  0  0  0  0  0  0
   -7.8484    2.1024   -0.9885 H   0  0  0  0  0  0  0  0  0  0  0  0
   -9.2325    0.3881    2.1369 H   0  0  0  0  0  0  0  0  0  0  0  0
   -9.5988   -0.2098    0.4845 H   0  0  0  0  0  0  0  0  0  0  0  0
   -9.6530    1.5631    0.8515 H   0  0  0  0  0  0  0  0  0  0  0  0
   -3.9349   -0.6569    1.3286 H   0  0  0  0  0  0  0  0  0  0  0  0
    5.1553    2.5242    0.9889 H   0  0  0  0  0  0  0  0  0  0  0  0
  1  2  1  0
  2  3  1  0
  3  4  2  0
  4  5  1  0
  5  6  1  0
  6  7  2  0
  7  8  1  0
  8  9  1  0
  8 10  2  0
 10 11  1  0
 11 12  2  0
 11 13  1  0
 13 14  1  0
 14 15  1  0
 15 16  1  0
 16 17  2  0
 17 18  1  0
 18 19  2  0
 19 20  1  0
 20 21  1  0
 20 22  2  0
 15 23  1  0
 23 24  2  0
 24 25  1  0
 25 26  2  0
 26 27  1  0
 27 28  1  0
 28 29  1  0
 28 30  2  0
 30 31  1  0
 31 32  2  0
 10 33  1  0
 33 34  1  0
 33 35  2  0
  5 36  1  0
 36  2  2  0
 35  6  1  0
 22 16  1  0
 32 23  1  0
 31 26  1  0
  1 37  1  0
  1 38  1  0
  1 39  1  0
  4 40  1  0
  7 41  1  0
 13 42  1  0
 14 43  1  0
 14 44  1  0
 15 45  1  6
 17 46  1  0
 18 47  1  0
 19 48  1  0
 22 49  1  0
 24 50  1  0
 25 51  1  0
 27 52  1  0
 29 53  1  0
 29 54  1  0
 29 55  1  0
 32 56  1  0
 35 57  1  0
M  END
$$$$
