
     RDKit          3D

 51 54  0  0  0  0  0  0  0  0999 V2000
    2.2674    1.3976   -1.7109 O   0  0  0  0  0  0  0  0  0  0  0  0
    2.1993    0.5813   -0.7572 C   0  0  0  0  0  0  0  0  0  0  0  0
    0.9350    0.2510   -0.3110 O   0  0  0  0  0  0  0  0  0  0  0  0
   -0.2501    0.7784   -0.8671 C   0  0  2  0  0  0  0  0  0  0  0  0
   -0.9278    1.5852    0.2101 C   0  0  0  0  0  0  0  0  0  0  0  0
   -2.1340    2.2474   -0.3629 C   0  0  0  0  0  0  0  0  0  0  0  0
   -2.5603    3.4603    0.1407 C   0  0  0  0  0  0  0  0  0  0  0  0
   -1.9007    4.1091    1.1831 O   0  0  0  0  0  0  0  0  0  0  0  0
   -3.6879    4.0227   -0.4360 C   0  0  0  0  0  0  0  0  0  0  0  0
   -4.3644    3.4066   -1.4695 C   0  0  0  0  0  0  0  0  0  0  0  0
   -5.5042    3.9666   -2.0585 O   0  0  0  0  0  0  0  0  0  0  0  0
   -3.9084    2.2018   -1.9413 C   0  0  0  0  0  0  0  0  0  0  0  0
   -2.7907    1.6106   -1.3942 C   0  0  0  0  0  0  0  0  0  0  0  0
   -2.3435    0.3802   -1.8921 O   0  0  0  0  0  0  0  0  0  0  0  0
   -1.1796   -0.2527   -1.3912 C   0  0  2  0  0  0  0  0  0  0  0  0
   -1.5524   -1.3162   -0.4206 C   0  0  0  0  0  0  0  0  0  0  0  0
   -2.5695   -1.2053    0.5026 C   0  0  0  0  0  0  0  0  0  0  0  0
   -2.8710   -2.2232    1.3927 C   0  0  0  0  0  0  0  0  0  0  0  0
   -3.8987   -2.0846    2.3105 O   0  0  0  0  0  0  0  0  0  0  0  0
   -2.1618   -3.4034    1.3954 C   0  0  0  0  0  0  0  0  0  0  0  0
   -2.4562   -4.4349    2.2865 O   0  0  0  0  0  0  0  0  0  0  0  0
   -1.1377   -3.5428    0.4814 C   0  0  0  0  0  0  0  0  0  0  0  0
   -0.4326   -4.7394    0.4974 O   0  0  0  0  0  0  0  0  0  0  0  0
   -0.8450   -2.5244   -0.4001 C   0  0  0  0  0  0  0  0  0  0  0  0
    3.4228    0.0545   -0.2037 C   0  0  0  0  0  0  0  0  0  0  0  0
    4.6495    0.4341   -0.7055 C   0  0  0  0  0  0  0  0  0  0  0  0
    5.8503   -0.0291   -0.2249 C   0  0  0  0  0  0  0  0  0  0  0  0
    7.0698    0.3879   -0.7700 O   0  0  0  0  0  0  0  0  0  0  0  0
    5.8517   -0.9313    0.8255 C   0  0  0  0  0  0  0  0  0  0  0  0
    7.0469   -1.4245    1.3413 O   0  0  0  0  0  0  0  0  0  0  0  0
    4.6356   -1.3342    1.3540 C   0  0  0  0  0  0  0  0  0  0  0  0
    4.6895   -2.2388    2.4045 O   0  0  0  0  0  0  0  0  0  0  0  0
    3.4485   -0.8496    0.8477 C   0  0  0  0  0  0  0  0  0  0  0  0
   -0.0389    1.4868   -1.7022 H   0  0  0  0  0  0  0  0  0  0  0  0
   -0.2409    2.3508    0.6463 H   0  0  0  0  0  0  0  0  0  0  0  0
   -1.1759    0.8807    1.0412 H   0  0  0  0  0  0  0  0  0  0  0  0
   -0.9134    4.1949    1.2676 H   0  0  0  0  0  0  0  0  0  0  0  0
   -4.0838    4.9774   -0.0921 H   0  0  0  0  0  0  0  0  0  0  0  0
   -5.8683    4.8314   -1.6488 H   0  0  0  0  0  0  0  0  0  0  0  0
   -4.4149    1.6845   -2.7556 H   0  0  0  0  0  0  0  0  0  0  0  0
   -0.7518   -0.7611   -2.3195 H   0  0  0  0  0  0  0  0  0  0  0  0
   -3.1654   -0.2919    0.5343 H   0  0  0  0  0  0  0  0  0  0  0  0
   -4.8329   -1.9337    1.9307 H   0  0  0  0  0  0  0  0  0  0  0  0
   -3.4216   -4.6858    2.4375 H   0  0  0  0  0  0  0  0  0  0  0  0
   -0.7725   -5.4621   -0.1391 H   0  0  0  0  0  0  0  0  0  0  0  0
   -0.0346   -2.6587   -1.1092 H   0  0  0  0  0  0  0  0  0  0  0  0
    4.7153    1.1463   -1.5379 H   0  0  0  0  0  0  0  0  0  0  0  0
    7.1416    0.4350   -1.7833 H   0  0  0  0  0  0  0  0  0  0  0  0
    7.8863   -1.3839    0.7467 H   0  0  0  0  0  0  0  0  0  0  0  0
    4.8599   -1.9841    3.3644 H   0  0  0  0  0  0  0  0  0  0  0  0
    2.5223   -1.1673    1.2629 H   0  0  0  0  0  0  0  0  0  0  0  0
  1  2  2  0
  2  3  1  0
  3  4  1  0
  4  5  1  0
  5  6  1  0
  6  7  2  0
  7  8  1  0
  7  9  1  0
  9 10  2  0
 10 11  1  0
 10 12  1  0
 12 13  2  0
 13 14  1  0
 14 15  1  0
 15 16  1  0
 16 17  2  0
 17 18  1  0
 18 19  1  0
 18 20  2  0
 20 21  1  0
 20 22  1  0
 22 23  1  0
 22 24  2  0
  2 25  1  0
 25 26  2  0
 26 27  1  0
 27 28  1  0
 27 29  2  0
 29 30  1  0
 29 31  1  0
 31 32  1  0
 31 33  2  0
 15  4  1  0
 24 16  1  0
 33 25  1  0
 13  6  1  0
  4 34  1  6
  5 35  1  0
  5 36  1  0
  8 37  1  0
  9 38  1  0
 11 39  1  0
 12 40  1  0
 15 41  1  6
 17 42  1  0
 19 43  1  0
 21 44  1  0
 23 45  1  0
 24 46  1  0
 26 47  1  0
 28 48  1  0
 30 49  1  0
 32 50  1  0
 33 51  1  0
M  END
$$$$
