
     RDKit          3D

 47 49  0  0  0  0  0  0  0  0999 V2000
   -2.3879   -4.3791   -1.0248 C   0  0  0  0  0  0  0  0  0  0  0  0
   -3.3632   -3.3100   -0.7327 C   0  0  0  0  0  0  0  0  0  0  0  0
   -4.5835   -3.6368   -0.5262 O   0  0  0  0  0  0  0  0  0  0  0  0
   -2.9208   -1.9614   -0.6901 N   0  0  0  0  0  0  0  0  0  0  0  0
   -3.9168   -0.9631   -0.4009 C   0  0  0  0  0  0  0  0  0  0  0  0
   -3.4280    0.3429    0.0706 C   0  0  0  0  0  0  0  0  0  0  0  0
   -1.9843    0.5343    0.1324 C   0  0  0  0  0  0  0  0  0  0  0  0
   -1.1124   -0.4073   -0.3318 C   0  0  0  0  0  0  0  0  0  0  0  0
    0.1924    0.0621   -0.1338 C   0  0  0  0  0  0  0  0  0  0  0  0
    1.3823   -0.6319   -0.4852 N   0  0  0  0  0  0  0  0  0  0  0  0
    2.6869   -0.1488   -0.2860 C   0  0  0  0  0  0  0  0  0  0  0  0
    3.0297    1.0713    0.2389 C   0  0  0  0  0  0  0  0  0  0  0  0
    4.3547    1.4826    0.4090 C   0  0  0  0  0  0  0  0  0  0  0  0
    5.3699    0.6483    0.0431 C   0  0  0  0  0  0  0  0  0  0  0  0
    5.0788   -0.5959   -0.4924 C   0  0  0  0  0  0  0  0  0  0  0  0
    6.1867   -1.5151   -0.8955 C   0  0  0  0  0  0  0  0  0  0  0  0
    3.7690   -0.9593   -0.6420 C   0  0  0  0  0  0  0  0  0  0  0  0
    0.0333    1.2464    0.4319 N   0  0  0  0  0  0  0  0  0  0  0  0
   -1.2420    1.5340    0.5930 N   0  0  0  0  0  0  0  0  0  0  0  0
   -1.6617    2.7982    1.2023 C   0  0  0  0  0  0  0  0  0  0  0  0
   -0.5694    3.8348    1.0378 C   0  0  0  0  0  0  0  0  0  0  0  0
   -2.8975    3.3603    0.5573 C   0  0  0  0  0  0  0  0  0  0  0  0
   -1.5416   -1.6910   -0.9337 C   0  0  0  0  0  0  0  0  0  0  0  0
   -1.7703   -4.1175   -1.9194 H   0  0  0  0  0  0  0  0  0  0  0  0
   -1.7293   -4.4609   -0.1121 H   0  0  0  0  0  0  0  0  0  0  0  0
   -2.8881   -5.3484   -1.2248 H   0  0  0  0  0  0  0  0  0  0  0  0
   -4.5562   -0.8947   -1.3311 H   0  0  0  0  0  0  0  0  0  0  0  0
   -4.6060   -1.3979    0.3632 H   0  0  0  0  0  0  0  0  0  0  0  0
   -3.9421    1.1295   -0.5603 H   0  0  0  0  0  0  0  0  0  0  0  0
   -3.8199    0.5673    1.1080 H   0  0  0  0  0  0  0  0  0  0  0  0
    1.2801   -1.5752   -0.9267 H   0  0  0  0  0  0  0  0  0  0  0  0
    2.2546    1.7514    0.5359 H   0  0  0  0  0  0  0  0  0  0  0  0
    4.5860    2.4571    0.8285 H   0  0  0  0  0  0  0  0  0  0  0  0
    6.3947    0.9151    0.1525 H   0  0  0  0  0  0  0  0  0  0  0  0
    5.7496   -2.5339   -0.9484 H   0  0  0  0  0  0  0  0  0  0  0  0
    6.5508   -1.1507   -1.8734 H   0  0  0  0  0  0  0  0  0  0  0  0
    6.9762   -1.5622   -0.1184 H   0  0  0  0  0  0  0  0  0  0  0  0
    3.5524   -1.9358   -1.0622 H   0  0  0  0  0  0  0  0  0  0  0  0
   -1.8471    2.6896    2.2854 H   0  0  0  0  0  0  0  0  0  0  0  0
    0.4184    3.3126    0.9633 H   0  0  0  0  0  0  0  0  0  0  0  0
   -0.5883    4.5421    1.8806 H   0  0  0  0  0  0  0  0  0  0  0  0
   -0.7080    4.4162    0.0922 H   0  0  0  0  0  0  0  0  0  0  0  0
   -3.7716    2.9626    1.0675 H   0  0  0  0  0  0  0  0  0  0  0  0
   -2.8894    4.4684    0.7833 H   0  0  0  0  0  0  0  0  0  0  0  0
   -2.9036    3.2906   -0.5376 H   0  0  0  0  0  0  0  0  0  0  0  0
   -1.2786   -1.7429   -2.0204 H   0  0  0  0  0  0  0  0  0  0  0  0
   -0.9389   -2.4979   -0.4506 H   0  0  0  0  0  0  0  0  0  0  0  0
  1  2  1  0
  2  3  2  0
  2  4  1  0
  4  5  1  0
  5  6  1  0
  6  7  1  0
  7  8  2  0
  8  9  1  0
  9 10  1  0
 10 11  1  0
 11 12  2  0
 12 13  1  0
 13 14  2  0
 14 15  1  0
 15 16  1  0
 15 17  2  0
  9 18  2  0
 18 19  1  0
 19 20  1  0
 20 21  1  0
 20 22  1  0
  8 23  1  0
 23  4  1  0
 19  7  1  0
 17 11  1  0
  1 24  1  0
  1 25  1  0
  1 26  1  0
  5 27  1  0
  5 28  1  0
  6 29  1  0
  6 30  1  0
 10 31  1  0
 12 32  1  0
 13 33  1  0
 14 34  1  0
 16 35  1  0
 16 36  1  0
 16 37  1  0
 17 38  1  0
 20 39  1  0
 21 40  1  0
 21 41  1  0
 21 42  1  0
 22 43  1  0
 22 44  1  0
 22 45  1  0
 23 46  1  0
 23 47  1  0
M  END
$$$$
