
     RDKit          3D

  5  4  0  0  0  0  0  0  0  0999 V2000
   -0.5995    1.5546   -0.1656 O   0  0  0  0  0  1  0  0  0  0  0  0
   -0.0017   -0.0138    0.0443 P   0  0  0  0  0  0  0  0  0  0  0  0
   -1.0616   -1.1258   -0.6518 O   0  0  0  0  0  1  0  0  0  0  0  0
    1.4824   -0.0830   -0.7387 F   0  0  0  0  0  0  0  0  0  0  0  0
    0.1804   -0.3319    1.5117 O   0  0  0  0  0  0  0  0  0  0  0  0
  1  2  1  0
  2  3  1  0
  2  4  1  0
  2  5  2  0
M  CHG  2   1  -1   3  -1
M  END
$$$$
