
     RDKit          3D

 65 70  0  0  0  0  0  0  0  0999 V2000
    4.5352   -3.1436    0.0566 C   0  0  0  0  0  0  0  0  0  0  0  0
    5.4499   -2.0413    0.4463 C   0  0  0  0  0  0  0  0  0  0  0  0
    6.4274   -2.2416    1.3950 C   0  0  0  0  0  0  0  0  0  0  0  0
    7.2588   -1.2020    1.7327 C   0  0  0  0  0  0  0  0  0  0  0  0
    7.0683    0.0073    1.0938 C   0  0  0  0  0  0  0  0  0  0  0  0
    6.0927    0.1763    0.1586 N   0  0  0  0  0  0  0  0  0  0  0  0
    5.2689   -0.8277   -0.1860 C   0  0  0  0  0  0  0  0  0  0  0  0
    4.2177   -0.6354   -1.1939 C   0  0  0  0  0  0  0  0  0  0  0  0
    2.8997   -0.4930   -0.6396 N   0  0  0  0  0  0  0  0  0  0  0  0
    2.7762    0.6441    0.2212 C   0  0  0  0  0  0  0  0  0  0  0  0
    1.3806    0.8383    0.7065 C   0  0  0  0  0  0  0  0  0  0  0  0
    0.3474    0.9127   -0.4121 C   0  0  0  0  0  0  0  0  0  0  0  0
    1.0787    0.7954   -1.7130 C   0  0  0  0  0  0  0  0  0  0  0  0
    1.9495   -0.4216   -1.7265 C   0  0  0  0  0  0  0  0  0  0  0  0
   -0.6371   -0.1662   -0.3139 C   0  0  0  0  0  0  0  0  0  0  0  0
   -0.4471   -1.4326   -0.4404 O   0  0  0  0  0  0  0  0  0  0  0  0
   -1.9100    0.3768   -0.0439 N   0  0  0  0  0  0  0  0  0  0  0  0
   -3.1118   -0.3487    0.1906 C   0  0  0  0  0  0  0  0  0  0  0  0
   -3.5065   -0.7486    1.4475 C   0  0  0  0  0  0  0  0  0  0  0  0
   -4.6870   -1.4468    1.5934 C   0  0  0  0  0  0  0  0  0  0  0  0
   -5.4963   -1.7637    0.5205 C   0  0  0  0  0  0  0  0  0  0  0  0
   -6.6980   -2.4788    0.6942 N   0  0  0  0  0  0  0  0  0  0  0  0
   -8.0846   -2.1722    0.9461 C   0  0  0  0  0  0  0  0  0  0  0  0
   -8.3751   -3.4375    0.1430 C   0  0  0  0  0  0  0  0  0  0  0  0
   -7.0338   -3.8529    0.6900 C   0  0  0  0  0  0  0  0  0  0  0  0
   -6.4595   -4.9041    1.0026 O   0  0  0  0  0  0  0  0  0  0  0  0
   -5.0812   -1.3527   -0.7304 C   0  0  0  0  0  0  0  0  0  0  0  0
   -3.9023   -0.6519   -0.9031 C   0  0  0  0  0  0  0  0  0  0  0  0
   -1.7545    1.7958   -0.0512 C   0  0  0  0  0  0  0  0  0  0  0  0
   -2.7548    2.5824    0.1677 O   0  0  0  0  0  0  0  0  0  0  0  0
   -0.4167    2.1379   -0.3196 N   0  0  0  0  0  0  0  0  0  0  0  0
    0.1205    3.4736   -0.4825 C   0  0  0  0  0  0  0  0  0  0  0  0
   -0.6811    4.5734   -0.4104 C   0  0  0  0  0  0  0  0  0  0  0  0
   -0.1038    5.8260   -0.5710 C   0  0  0  0  0  0  0  0  0  0  0  0
   -0.8542    6.8415   -0.5027 O   0  0  0  0  0  0  0  0  0  0  0  0
    1.2139    5.9162   -0.7904 N   0  0  0  0  0  0  0  0  0  0  0  0
    2.0220    4.8448   -0.8651 C   0  0  0  0  0  0  0  0  0  0  0  0
    1.4239    3.6480   -0.7040 N   0  0  0  0  0  0  0  0  0  0  0  0
    3.5058   -2.9119    0.3400 H   0  0  0  0  0  0  0  0  0  0  0  0
    4.8140   -4.0909    0.6003 H   0  0  0  0  0  0  0  0  0  0  0  0
    4.6691   -3.3533   -1.0243 H   0  0  0  0  0  0  0  0  0  0  0  0
    6.5628   -3.1900    1.8833 H   0  0  0  0  0  0  0  0  0  0  0  0
    8.0516   -1.3077    2.4803 H   0  0  0  0  0  0  0  0  0  0  0  0
    7.7352    0.8114    1.3768 H   0  0  0  0  0  0  0  0  0  0  0  0
    4.2171   -1.5271   -1.8693 H   0  0  0  0  0  0  0  0  0  0  0  0
    4.4924    0.2276   -1.8571 H   0  0  0  0  0  0  0  0  0  0  0  0
    3.4101    0.5032    1.1398 H   0  0  0  0  0  0  0  0  0  0  0  0
    3.2044    1.5449   -0.2661 H   0  0  0  0  0  0  0  0  0  0  0  0
    1.1284    0.0263    1.4200 H   0  0  0  0  0  0  0  0  0  0  0  0
    1.3269    1.7921    1.2652 H   0  0  0  0  0  0  0  0  0  0  0  0
    0.3510    0.6877   -2.5454 H   0  0  0  0  0  0  0  0  0  0  0  0
    1.7578    1.6573   -1.9197 H   0  0  0  0  0  0  0  0  0  0  0  0
    2.5029   -0.3977   -2.7236 H   0  0  0  0  0  0  0  0  0  0  0  0
    1.4157   -1.3877   -1.7577 H   0  0  0  0  0  0  0  0  0  0  0  0
   -2.8996   -0.5169    2.2940 H   0  0  0  0  0  0  0  0  0  0  0  0
   -4.9665   -1.7479    2.6134 H   0  0  0  0  0  0  0  0  0  0  0  0
   -8.4184   -2.3338    2.0035 H   0  0  0  0  0  0  0  0  0  0  0  0
   -8.4795   -1.2534    0.4805 H   0  0  0  0  0  0  0  0  0  0  0  0
   -8.2948   -3.2070   -0.9274 H   0  0  0  0  0  0  0  0  0  0  0  0
   -9.2186   -4.0355    0.4831 H   0  0  0  0  0  0  0  0  0  0  0  0
   -5.7380   -1.6158   -1.5606 H   0  0  0  0  0  0  0  0  0  0  0  0
   -3.6391   -0.3618   -1.9109 H   0  0  0  0  0  0  0  0  0  0  0  0
   -1.7528    4.5328   -0.2350 H   0  0  0  0  0  0  0  0  0  0  0  0
    1.6335    6.8837   -0.9107 H   0  0  0  0  0  0  0  0  0  0  0  0
    3.0929    4.9435   -1.0447 H   0  0  0  0  0  0  0  0  0  0  0  0
  1  2  1  0
  2  3  2  0
  3  4  1  0
  4  5  2  0
  5  6  1  0
  6  7  2  0
  7  8  1  0
  8  9  1  0
  9 10  1  0
 10 11  1  0
 11 12  1  0
 12 13  1  0
 13 14  1  0
 12 15  1  0
 15 16  2  0
 15 17  1  0
 17 18  1  0
 18 19  2  0
 19 20  1  0
 20 21  2  0
 21 22  1  0
 22 23  1  0
 23 24  1  0
 24 25  1  0
 25 26  2  0
 21 27  1  0
 27 28  2  0
 17 29  1  0
 29 30  2  0
 29 31  1  0
 31 32  1  0
 32 33  2  0
 33 34  1  0
 34 35  2  0
 34 36  1  0
 36 37  1  0
 37 38  2  0
  7  2  1  0
 14  9  1  0
 28 18  1  0
 38 32  1  0
 31 12  1  0
 25 22  1  0
  1 39  1  0
  1 40  1  0
  1 41  1  0
  3 42  1  0
  4 43  1  0
  5 44  1  0
  8 45  1  0
  8 46  1  0
 10 47  1  0
 10 48  1  0
 11 49  1  0
 11 50  1  0
 13 51  1  0
 13 52  1  0
 14 53  1  0
 14 54  1  0
 19 55  1  0
 20 56  1  0
 23 57  1  0
 23 58  1  0
 24 59  1  0
 24 60  1  0
 27 61  1  0
 28 62  1  0
 33 63  1  0
 36 64  1  0
 37 65  1  0
M  END
$$$$
