
     RDKit          3D

 72 75  0  0  0  0  0  0  0  0999 V2000
   -5.6543    4.7824    1.3094 C   0  0  0  0  0  0  0  0  0  0  0  0
   -4.9090    3.5906    1.4192 O   0  0  0  0  0  0  0  0  0  0  0  0
   -4.0034    3.1527    0.4846 C   0  0  0  0  0  0  0  0  0  0  0  0
   -3.8214    3.9452   -0.6482 C   0  0  0  0  0  0  0  0  0  0  0  0
   -2.9246    3.5477   -1.6087 C   0  0  0  0  0  0  0  0  0  0  0  0
   -2.2160    2.3817   -1.4504 C   0  0  0  0  0  0  0  0  0  0  0  0
   -2.3920    1.5962   -0.3343 C   0  0  0  0  0  0  0  0  0  0  0  0
   -1.6021    0.3929   -0.1935 C   0  0  0  0  0  0  0  0  0  0  0  0
   -2.0478   -0.8437   -0.6828 C   0  0  0  0  0  0  0  0  0  0  0  0
   -3.3129   -0.7961   -1.4719 C   0  0  0  0  0  0  0  0  0  0  0  0
   -1.3356   -1.9531   -0.5150 N   0  0  0  0  0  0  0  0  0  0  0  0
   -1.6687   -3.2687   -0.9750 C   0  0  0  0  0  0  0  0  0  0  0  0
   -2.5333   -4.1664   -0.2259 C   0  0  0  0  0  0  0  0  0  0  0  0
   -3.9126   -4.1175   -0.4411 C   0  0  0  0  0  0  0  0  0  0  0  0
   -4.5207   -3.4096   -1.4160 F   0  0  0  0  0  0  0  0  0  0  0  0
   -4.8153   -4.9085    0.2797 C   0  0  0  0  0  0  0  0  0  0  0  0
   -4.3981   -5.7892    1.2460 C   0  0  0  0  0  0  0  0  0  0  0  0
   -3.0425   -5.8344    1.4459 C   0  0  0  0  0  0  0  0  0  0  0  0
   -2.1357   -5.0529    0.7361 C   0  0  0  0  0  0  0  0  0  0  0  0
   -0.4704   -5.3716    1.1052 Cl  0  0  0  0  0  0  0  0  0  0  0  0
   -0.1421   -1.8137    0.1535 C   0  0  0  0  0  0  0  0  0  0  0  0
    0.5523   -2.8372    0.3078 O   0  0  0  0  0  0  0  0  0  0  0  0
    0.3419   -0.6516    0.6468 N   0  0  0  0  0  0  0  0  0  0  0  0
    1.5663   -0.6380    1.3596 C   0  0  0  0  0  0  0  0  0  0  0  0
    2.8360   -0.5902    0.5228 C   0  0  2  0  0  0  0  0  0  0  0  0
    3.9096   -0.5848    1.4509 N   0  0  0  0  0  0  0  0  0  0  0  0
    5.2194   -0.7932    1.0155 C   0  0  0  0  0  0  0  0  0  0  0  0
    5.8968    0.3119    0.3214 C   0  0  0  0  0  0  0  0  0  0  0  0
    6.2165    1.5318    1.1336 C   0  0  0  0  0  0  0  0  0  0  0  0
    5.1311    2.2267    1.7860 C   0  0  0  0  0  0  0  0  0  0  0  0
    4.2868    1.6946    2.5555 O   0  0  0  0  0  0  0  0  0  0  0  0
    4.9108    3.6234    1.6121 O   0  0  0  0  0  0  0  0  0  0  0  0
    2.8131    0.3188   -0.5959 C   0  0  0  0  0  0  0  0  0  0  0  0
    2.7077    1.6846   -0.4928 C   0  0  0  0  0  0  0  0  0  0  0  0
    2.6969    2.5471   -1.5936 C   0  0  0  0  0  0  0  0  0  0  0  0
    2.7964    2.0086   -2.8553 C   0  0  0  0  0  0  0  0  0  0  0  0
    2.9038    0.6376   -2.9952 C   0  0  0  0  0  0  0  0  0  0  0  0
    2.9133   -0.1973   -1.9090 C   0  0  0  0  0  0  0  0  0  0  0  0
   -0.3955    0.4403    0.4689 C   0  0  0  0  0  0  0  0  0  0  0  0
   -0.0550    1.5802    0.8877 O   0  0  0  0  0  0  0  0  0  0  0  0
   -3.3017    1.9962    0.6408 C   0  0  0  0  0  0  0  0  0  0  0  0
   -3.4631    1.2105    1.7324 F   0  0  0  0  0  0  0  0  0  0  0  0
   -6.3581    4.7344    0.4580 H   0  0  0  0  0  0  0  0  0  0  0  0
   -6.2150    4.9735    2.2649 H   0  0  0  0  0  0  0  0  0  0  0  0
   -4.9614    5.6416    1.0906 H   0  0  0  0  0  0  0  0  0  0  0  0
   -4.3579    4.8697   -0.8096 H   0  0  0  0  0  0  0  0  0  0  0  0
   -2.7659    4.1416   -2.4895 H   0  0  0  0  0  0  0  0  0  0  0  0
   -1.5146    2.1091   -2.2418 H   0  0  0  0  0  0  0  0  0  0  0  0
   -4.2039   -0.9141   -0.8427 H   0  0  0  0  0  0  0  0  0  0  0  0
   -3.4222    0.2630   -1.8817 H   0  0  0  0  0  0  0  0  0  0  0  0
   -3.2529   -1.4051   -2.3838 H   0  0  0  0  0  0  0  0  0  0  0  0
   -2.1213   -3.1145   -1.9982 H   0  0  0  0  0  0  0  0  0  0  0  0
   -0.7193   -3.8373   -1.1776 H   0  0  0  0  0  0  0  0  0  0  0  0
   -5.9004   -4.8502    0.0937 H   0  0  0  0  0  0  0  0  0  0  0  0
   -5.1111   -6.3875    1.7912 H   0  0  0  0  0  0  0  0  0  0  0  0
   -2.7059   -6.5445    2.2216 H   0  0  0  0  0  0  0  0  0  0  0  0
    1.6707   -1.5457    2.0095 H   0  0  0  0  0  0  0  0  0  0  0  0
    1.6407    0.2298    2.0796 H   0  0  0  0  0  0  0  0  0  0  0  0
    2.8736   -1.6525    0.0664 H   0  0  0  0  0  0  0  0  0  0  0  0
    3.6401   -0.9993    2.3498 H   0  0  0  0  0  0  0  0  0  0  0  0
    5.8409   -0.9880    1.9640 H   0  0  0  0  0  0  0  0  0  0  0  0
    5.3582   -1.7795    0.4747 H   0  0  0  0  0  0  0  0  0  0  0  0
    6.8807   -0.0994   -0.0668 H   0  0  0  0  0  0  0  0  0  0  0  0
    5.3328    0.6772   -0.5870 H   0  0  0  0  0  0  0  0  0  0  0  0
    6.7718    2.2228    0.4264 H   0  0  0  0  0  0  0  0  0  0  0  0
    6.9871    1.3009    1.9256 H   0  0  0  0  0  0  0  0  0  0  0  0
    4.0032    4.0156    1.7624 H   0  0  0  0  0  0  0  0  0  0  0  0
    2.6055    2.1511    0.5016 H   0  0  0  0  0  0  0  0  0  0  0  0
    2.6086    3.6154   -1.4066 H   0  0  0  0  0  0  0  0  0  0  0  0
    2.7878    2.6643   -3.7349 H   0  0  0  0  0  0  0  0  0  0  0  0
    2.9843    0.1873   -3.9963 H   0  0  0  0  0  0  0  0  0  0  0  0
    2.9986   -1.2640   -2.0804 H   0  0  0  0  0  0  0  0  0  0  0  0
  1  2  1  0
  2  3  1  0
  3  4  2  0
  4  5  1  0
  5  6  2  0
  6  7  1  0
  7  8  1  0
  8  9  2  0
  9 10  1  0
  9 11  1  0
 11 12  1  0
 12 13  1  0
 13 14  2  0
 14 15  1  0
 14 16  1  0
 16 17  2  0
 17 18  1  0
 18 19  2  0
 19 20  1  0
 11 21  1  0
 21 22  2  0
 21 23  1  0
 23 24  1  0
 24 25  1  0
 25 26  1  0
 26 27  1  0
 27 28  1  0
 28 29  1  0
 29 30  1  0
 30 31  2  0
 30 32  1  0
 25 33  1  0
 33 34  2  0
 34 35  1  0
 35 36  2  0
 36 37  1  0
 37 38  2  0
 23 39  1  0
 39 40  2  0
  7 41  2  0
 41 42  1  0
 41  3  1  0
 39  8  1  0
 19 13  1  0
 38 33  1  0
  1 43  1  0
  1 44  1  0
  1 45  1  0
  4 46  1  0
  5 47  1  0
  6 48  1  0
 10 49  1  0
 10 50  1  0
 10 51  1  0
 12 52  1  0
 12 53  1  0
 16 54  1  0
 17 55  1  0
 18 56  1  0
 24 57  1  0
 24 58  1  0
 25 59  1  6
 26 60  1  0
 27 61  1  0
 27 62  1  0
 28 63  1  0
 28 64  1  0
 29 65  1  0
 29 66  1  0
 32 67  1  0
 34 68  1  0
 35 69  1  0
 36 70  1  0
 37 71  1  0
 38 72  1  0
M  END
$$$$
