
     RDKit          3D

 74 75  0  0  0  0  0  0  0  0999 V2000
    2.6655    3.1011    3.1431 C   0  0  0  0  0  0  0  0  0  0  0  0
    2.7155    4.3313    2.2892 C   0  0  0  0  0  0  0  0  0  0  0  0
    3.0256    4.0199    0.9262 O   0  0  0  0  0  0  0  0  0  0  0  0
    2.2361    3.1905    0.1397 C   0  0  0  0  0  0  0  0  0  0  0  0
    1.2164    2.7267    0.7175 O   0  0  0  0  0  0  0  0  0  0  0  0
    2.8164    3.0630   -1.2167 C   0  0  0  0  0  0  0  0  0  0  0  0
    4.2639    2.6266   -1.2111 C   0  0  0  0  0  0  0  0  0  0  0  0
    2.8182    4.4768   -1.8042 C   0  0  0  0  0  0  0  0  0  0  0  0
    2.0779    2.2341   -2.0945 N   0  0  0  0  0  0  0  0  0  0  0  0
    1.8548    0.6012   -1.6423 P   0  0  0  0  0  0  0  0  0  0  0  0
    2.3229   -0.2737   -2.8076 O   0  0  0  0  0  0  0  0  0  0  0  0
    2.6725    0.0813   -0.2222 N   0  0  0  0  0  0  0  0  0  0  0  0
    3.4367   -1.1234   -0.3545 C   0  0  0  0  0  0  0  0  0  0  0  0
    4.0695   -1.3980    1.0140 C   0  0  0  0  0  0  0  0  0  0  0  0
    4.5600   -1.0632   -1.3361 C   0  0  0  0  0  0  0  0  0  0  0  0
    2.5953   -2.2993   -0.6913 C   0  0  0  0  0  0  0  0  0  0  0  0
    1.3612   -2.2584   -0.8444 O   0  0  0  0  0  0  0  0  0  0  0  0
    3.3222   -3.4510   -0.8188 O   0  0  0  0  0  0  0  0  0  0  0  0
    2.7208   -4.7118   -1.1408 C   0  0  0  0  0  0  0  0  0  0  0  0
    1.7233   -5.0470   -0.0652 C   0  0  0  0  0  0  0  0  0  0  0  0
    0.0768    0.3013   -1.5364 C   0  0  0  0  0  0  0  0  0  0  0  0
   -0.8442    0.0060   -2.5117 C   0  0  0  0  0  0  0  0  0  0  0  0
   -1.9838   -0.0965   -1.7884 C   0  0  0  0  0  0  0  0  0  0  0  0
   -1.8171    0.1139   -0.4466 C   0  0  0  0  0  0  0  0  0  0  0  0
   -0.5270    0.3473   -0.4118 O   0  0  0  0  0  0  0  0  0  0  0  0
   -2.7700    0.1045    0.6747 C   0  0  0  0  0  0  0  0  0  0  0  0
   -4.1216   -0.4946    0.6220 C   0  0  0  0  0  0  0  0  0  0  0  0
   -4.7373   -0.0101    2.2049 S   0  0  0  0  0  0  0  0  0  0  0  0
   -3.2394    0.8797    2.7540 C   0  0  0  0  0  0  0  0  0  0  0  0
   -3.0905    1.5215    3.9883 N   0  0  0  0  0  0  0  0  0  0  0  0
   -2.3908    0.7563    1.7257 N   0  0  0  0  0  0  0  0  0  0  0  0
   -4.7733   -1.3503   -0.4131 C   0  0  0  0  0  0  0  0  0  0  0  0
   -4.5365   -1.8871   -1.4714 O   0  0  0  0  0  0  0  0  0  0  0  0
   -6.1485   -1.6103    0.0145 C   0  0  0  0  0  0  0  0  0  0  0  0
   -6.2242   -2.3506    1.3332 C   0  0  0  0  0  0  0  0  0  0  0  0
   -6.9070   -2.3965   -1.0107 C   0  0  0  0  0  0  0  0  0  0  0  0
   -6.8569   -0.2589    0.1346 C   0  0  0  0  0  0  0  0  0  0  0  0
    1.6055    2.8341    3.3226 H   0  0  0  0  0  0  0  0  0  0  0  0
    3.1083    3.3568    4.1355 H   0  0  0  0  0  0  0  0  0  0  0  0
    3.2364    2.2537    2.7098 H   0  0  0  0  0  0  0  0  0  0  0  0
    3.5255    4.9976    2.6441 H   0  0  0  0  0  0  0  0  0  0  0  0
    1.7602    4.8819    2.3924 H   0  0  0  0  0  0  0  0  0  0  0  0
    4.4652    1.8146   -0.4804 H   0  0  0  0  0  0  0  0  0  0  0  0
    4.4671    2.2361   -2.2486 H   0  0  0  0  0  0  0  0  0  0  0  0
    4.9182    3.4978   -1.0758 H   0  0  0  0  0  0  0  0  0  0  0  0
    3.6642    4.9971   -1.3057 H   0  0  0  0  0  0  0  0  0  0  0  0
    1.8367    4.9226   -1.5081 H   0  0  0  0  0  0  0  0  0  0  0  0
    2.9323    4.4256   -2.9003 H   0  0  0  0  0  0  0  0  0  0  0  0
    2.1393    2.4556   -3.0903 H   0  0  0  0  0  0  0  0  0  0  0  0
    2.0242   -0.0637    0.5865 H   0  0  0  0  0  0  0  0  0  0  0  0
    4.9195   -2.1025    0.9241 H   0  0  0  0  0  0  0  0  0  0  0  0
    3.2966   -1.7363    1.7274 H   0  0  0  0  0  0  0  0  0  0  0  0
    4.4406   -0.4114    1.3730 H   0  0  0  0  0  0  0  0  0  0  0  0
    4.4965   -0.1662   -1.9553 H   0  0  0  0  0  0  0  0  0  0  0  0
    5.5725   -1.0205   -0.8441 H   0  0  0  0  0  0  0  0  0  0  0  0
    4.6067   -1.9803   -1.9734 H   0  0  0  0  0  0  0  0  0  0  0  0
    3.4892   -5.5104   -1.1146 H   0  0  0  0  0  0  0  0  0  0  0  0
    2.2385   -4.6549   -2.1472 H   0  0  0  0  0  0  0  0  0  0  0  0
    0.8131   -5.4378   -0.5643 H   0  0  0  0  0  0  0  0  0  0  0  0
    2.1091   -5.8182    0.6403 H   0  0  0  0  0  0  0  0  0  0  0  0
    1.4664   -4.1466    0.5328 H   0  0  0  0  0  0  0  0  0  0  0  0
   -0.5964   -0.0917   -3.5516 H   0  0  0  0  0  0  0  0  0  0  0  0
   -2.8730   -0.2969   -2.3363 H   0  0  0  0  0  0  0  0  0  0  0  0
   -2.7789    0.8576    4.7514 H   0  0  0  0  0  0  0  0  0  0  0  0
   -3.3045    2.5622    3.9950 H   0  0  0  0  0  0  0  0  0  0  0  0
   -5.1733   -2.5607    1.6617 H   0  0  0  0  0  0  0  0  0  0  0  0
   -6.7616   -1.7174    2.0685 H   0  0  0  0  0  0  0  0  0  0  0  0
   -6.7152   -3.3376    1.2163 H   0  0  0  0  0  0  0  0  0  0  0  0
   -6.8543   -3.4880   -0.8482 H   0  0  0  0  0  0  0  0  0  0  0  0
   -7.9746   -2.1120   -0.9486 H   0  0  0  0  0  0  0  0  0  0  0  0
   -6.5645   -2.1721   -2.0570 H   0  0  0  0  0  0  0  0  0  0  0  0
   -7.4569   -0.1713    1.0448 H   0  0  0  0  0  0  0  0  0  0  0  0
   -7.5357   -0.0718   -0.7335 H   0  0  0  0  0  0  0  0  0  0  0  0
   -6.1262    0.5727    0.1153 H   0  0  0  0  0  0  0  0  0  0  0  0
  1  2  1  0
  2  3  1  0
  3  4  1  0
  4  5  2  0
  4  6  1  0
  6  7  1  0
  6  8  1  0
  6  9  1  0
  9 10  1  0
 10 11  2  0
 10 12  1  0
 12 13  1  0
 13 14  1  0
 13 15  1  0
 13 16  1  0
 16 17  2  0
 16 18  1  0
 18 19  1  0
 19 20  1  0
 10 21  1  0
 21 22  2  0
 22 23  1  0
 23 24  2  0
 24 25  1  0
 24 26  1  0
 26 27  2  0
 27 28  1  0
 28 29  1  0
 29 30  1  0
 29 31  2  0
 27 32  1  0
 32 33  2  0
 32 34  1  0
 34 35  1  0
 34 36  1  0
 34 37  1  0
 25 21  1  0
 31 26  1  0
  1 38  1  0
  1 39  1  0
  1 40  1  0
  2 41  1  0
  2 42  1  0
  7 43  1  0
  7 44  1  0
  7 45  1  0
  8 46  1  0
  8 47  1  0
  8 48  1  0
  9 49  1  0
 12 50  1  0
 14 51  1  0
 14 52  1  0
 14 53  1  0
 15 54  1  0
 15 55  1  0
 15 56  1  0
 19 57  1  0
 19 58  1  0
 20 59  1  0
 20 60  1  0
 20 61  1  0
 22 62  1  0
 23 63  1  0
 30 64  1  0
 30 65  1  0
 35 66  1  0
 35 67  1  0
 35 68  1  0
 36 69  1  0
 36 70  1  0
 36 71  1  0
 37 72  1  0
 37 73  1  0
 37 74  1  0
M  END
$$$$
