
     RDKit          3D

 50 51  0  0  0  0  0  0  0  0999 V2000
    9.5150   -0.4209   -1.3369 O   0  0  0  0  0  0  0  0  0  0  0  0
    7.8460   -0.1469   -1.5944 P   0  0  0  0  0  0  0  0  0  0  0  0
    7.7278    1.3950   -2.2596 O   0  0  0  0  0  0  0  0  0  0  0  0
    7.2812   -1.2162   -2.5035 O   0  0  0  0  0  0  0  0  0  0  0  0
    7.0689   -0.1699    0.0211 C   0  0  0  0  0  0  0  0  0  0  0  0
    7.5873    0.9021    0.7461 F   0  0  0  0  0  0  0  0  0  0  0  0
    7.4222   -1.2972    0.7576 F   0  0  0  0  0  0  0  0  0  0  0  0
    5.5872   -0.1251   -0.0318 C   0  0  0  0  0  0  0  0  0  0  0  0
    4.7829   -0.7878    0.8713 C   0  0  0  0  0  0  0  0  0  0  0  0
    3.4038   -0.7488    0.8257 C   0  0  0  0  0  0  0  0  0  0  0  0
    2.7915   -0.0130   -0.1690 C   0  0  0  0  0  0  0  0  0  0  0  0
    1.2894    0.0975   -0.3111 C   0  0  0  0  0  0  0  0  0  0  0  0
    0.7591    1.2522    0.4609 C   0  0  0  0  0  0  0  0  0  0  0  0
   -0.7284    1.4004    0.3320 C   0  0  0  0  0  0  0  0  0  0  0  0
   -1.4369    0.1886    0.8368 C   0  0  0  0  0  0  0  0  0  0  0  0
   -2.9226    0.3190    0.7320 C   0  0  0  0  0  0  0  0  0  0  0  0
   -3.5714   -0.1060   -0.4298 C   0  0  0  0  0  0  0  0  0  0  0  0
   -4.9443    0.0460   -0.4534 C   0  0  0  0  0  0  0  0  0  0  0  0
   -5.7112    0.5761    0.5643 C   0  0  0  0  0  0  0  0  0  0  0  0
   -5.0265    0.9906    1.7114 C   0  0  0  0  0  0  0  0  0  0  0  0
   -3.6528    0.8555    1.7746 C   0  0  0  0  0  0  0  0  0  0  0  0
   -7.1882    0.7021    0.4519 C   0  0  0  0  0  0  0  0  0  0  0  0
   -7.4985    1.6462   -0.5350 F   0  0  0  0  0  0  0  0  0  0  0  0
   -7.6571    1.2254    1.6343 F   0  0  0  0  0  0  0  0  0  0  0  0
   -7.9676   -0.8655    0.0149 P   0  0  0  0  0  0  0  0  0  0  0  0
   -7.3757   -2.0581    1.0311 O   0  0  0  0  0  0  0  0  0  0  0  0
   -7.5744   -1.2348   -1.5831 O   0  0  0  0  0  0  0  0  0  0  0  0
   -9.4777   -0.6733    0.1783 O   0  0  0  0  0  0  0  0  0  0  0  0
    3.5533    0.6786   -1.1109 C   0  0  0  0  0  0  0  0  0  0  0  0
    4.9259    0.5955   -1.0054 C   0  0  0  0  0  0  0  0  0  0  0  0
    9.6764   -1.1243   -0.6795 H   0  0  0  0  0  0  0  0  0  0  0  0
    7.5124    1.3489   -3.2436 H   0  0  0  0  0  0  0  0  0  0  0  0
    5.2530   -1.3708    1.6595 H   0  0  0  0  0  0  0  0  0  0  0  0
    2.7748   -1.2716    1.5381 H   0  0  0  0  0  0  0  0  0  0  0  0
    1.0554    0.2395   -1.3791 H   0  0  0  0  0  0  0  0  0  0  0  0
    0.8741   -0.8743   -0.0134 H   0  0  0  0  0  0  0  0  0  0  0  0
    1.2850    2.1984    0.1453 H   0  0  0  0  0  0  0  0  0  0  0  0
    0.9563    1.1366    1.5638 H   0  0  0  0  0  0  0  0  0  0  0  0
   -1.0798    2.3432    0.7996 H   0  0  0  0  0  0  0  0  0  0  0  0
   -0.9201    1.5494   -0.7717 H   0  0  0  0  0  0  0  0  0  0  0  0
   -1.0911   -0.6904    0.2214 H   0  0  0  0  0  0  0  0  0  0  0  0
   -1.2018    0.0054    1.8941 H   0  0  0  0  0  0  0  0  0  0  0  0
   -3.0401   -0.5319   -1.2706 H   0  0  0  0  0  0  0  0  0  0  0  0
   -5.4558   -0.2756   -1.3381 H   0  0  0  0  0  0  0  0  0  0  0  0
   -5.6126    1.4026    2.5053 H   0  0  0  0  0  0  0  0  0  0  0  0
   -3.1219    1.1712    2.6510 H   0  0  0  0  0  0  0  0  0  0  0  0
   -7.2366   -1.7434    1.9687 H   0  0  0  0  0  0  0  0  0  0  0  0
   -7.9432   -0.5959   -2.2266 H   0  0  0  0  0  0  0  0  0  0  0  0
    3.0504    1.2492   -1.8820 H   0  0  0  0  0  0  0  0  0  0  0  0
    5.4566    1.1514   -1.7622 H   0  0  0  0  0  0  0  0  0  0  0  0
  1  2  1  0
  2  3  1  0
  2  4  2  0
  2  5  1  0
  5  6  1  0
  5  7  1  0
  5  8  1  0
  8  9  2  0
  9 10  1  0
 10 11  2  0
 11 12  1  0
 12 13  1  0
 13 14  1  0
 14 15  1  0
 15 16  1  0
 16 17  2  0
 17 18  1  0
 18 19  2  0
 19 20  1  0
 20 21  2  0
 19 22  1  0
 22 23  1  0
 22 24  1  0
 22 25  1  0
 25 26  1  0
 25 27  1  0
 25 28  2  0
 11 29  1  0
 29 30  2  0
 30  8  1  0
 21 16  1  0
  1 31  1  0
  3 32  1  0
  9 33  1  0
 10 34  1  0
 12 35  1  0
 12 36  1  0
 13 37  1  0
 13 38  1  0
 14 39  1  0
 14 40  1  0
 15 41  1  0
 15 42  1  0
 17 43  1  0
 18 44  1  0
 20 45  1  0
 21 46  1  0
 26 47  1  0
 27 48  1  0
 29 49  1  0
 30 50  1  0
M  END
$$$$
