
     RDKit          3D

 54 58  0  0  0  0  0  0  0  0999 V2000
   -1.4004    3.2764    0.7060 C   0  0  0  0  0  0  0  0  0  0  0  0
   -1.2646    2.1388    1.6718 C   0  0  2  0  0  0  0  0  0  0  0  0
    0.0538    2.1353    2.4163 C   0  0  0  0  0  0  0  0  0  0  0  0
    0.6744    0.7434    2.2542 C   0  0  0  0  0  0  0  0  0  0  0  0
    0.9356    0.5792    0.7564 C   0  0  1  0  0  0  0  0  0  0  0  0
    1.8869   -0.2349    0.4131 O   0  0  0  0  0  0  0  0  0  0  0  0
    2.8315   -1.0430    0.0723 C   0  0  0  0  0  0  0  0  0  0  0  0
    2.7915   -2.4011    0.4423 C   0  0  0  0  0  0  0  0  0  0  0  0
    3.8008   -3.2423    0.0724 C   0  0  0  0  0  0  0  0  0  0  0  0
    4.8379   -2.7794   -0.6468 N   0  0  0  0  0  0  0  0  0  0  0  0
    4.9140   -1.4919   -1.0198 C   0  0  0  0  0  0  0  0  0  0  0  0
    6.0002   -1.0220   -1.7692 C   0  0  0  0  0  0  0  0  0  0  0  0
    6.9547   -1.9240   -2.0918 F   0  0  0  0  0  0  0  0  0  0  0  0
    6.0719    0.3024   -2.1487 C   0  0  0  0  0  0  0  0  0  0  0  0
    5.0849    1.2017   -1.8064 C   0  0  0  0  0  0  0  0  0  0  0  0
    4.0194    0.7316   -1.0691 C   0  0  0  0  0  0  0  0  0  0  0  0
    3.9350   -0.5898   -0.6829 C   0  0  0  0  0  0  0  0  0  0  0  0
   -0.4568    0.2675    0.1544 C   0  0  0  0  0  0  0  0  0  0  0  0
   -1.4661    0.8685    0.9956 N   0  0  0  0  0  0  0  0  0  0  0  0
   -2.7109    0.2034    1.1743 C   0  0  0  0  0  0  0  0  0  0  0  0
   -3.6356    0.6571    1.8882 O   0  0  0  0  0  0  0  0  0  0  0  0
   -2.9219   -1.0612    0.4978 C   0  0  0  0  0  0  0  0  0  0  0  0
   -2.5559   -2.1930    1.1653 C   0  0  0  0  0  0  0  0  0  0  0  0
   -2.7399   -3.4147    0.5485 C   0  0  0  0  0  0  0  0  0  0  0  0
   -3.2836   -3.4493   -0.7120 C   0  0  0  0  0  0  0  0  0  0  0  0
   -3.6485   -2.3030   -1.3741 C   0  0  0  0  0  0  0  0  0  0  0  0
   -3.4685   -1.0956   -0.7691 C   0  0  0  0  0  0  0  0  0  0  0  0
   -3.8210    0.1451   -1.3841 N   0  0  0  0  0  0  0  0  0  0  0  0
   -3.3439    0.6885   -2.4845 N   0  0  0  0  0  0  0  0  0  0  0  0
   -3.9488    1.8729   -2.7178 C   0  0  0  0  0  0  0  0  0  0  0  0
   -4.8468    2.0488   -1.6887 C   0  0  0  0  0  0  0  0  0  0  0  0
   -4.7321    0.9668   -0.8992 N   0  0  0  0  0  0  0  0  0  0  0  0
   -1.4819    4.2488    1.1873 H   0  0  0  0  0  0  0  0  0  0  0  0
   -2.3659    3.0938    0.1512 H   0  0  0  0  0  0  0  0  0  0  0  0
   -0.6057    3.3027   -0.0628 H   0  0  0  0  0  0  0  0  0  0  0  0
   -2.0528    2.2519    2.4398 H   0  0  0  0  0  0  0  0  0  0  0  0
   -0.0611    2.2969    3.5070 H   0  0  0  0  0  0  0  0  0  0  0  0
    0.7718    2.8593    2.0163 H   0  0  0  0  0  0  0  0  0  0  0  0
   -0.0696    0.0055    2.6123 H   0  0  0  0  0  0  0  0  0  0  0  0
    1.5766    0.6422    2.8525 H   0  0  0  0  0  0  0  0  0  0  0  0
    1.1553    1.6360    0.3704 H   0  0  0  0  0  0  0  0  0  0  0  0
    1.9321   -2.7318    1.0249 H   0  0  0  0  0  0  0  0  0  0  0  0
    3.7720   -4.3140    0.3630 H   0  0  0  0  0  0  0  0  0  0  0  0
    6.9259    0.6299   -2.7271 H   0  0  0  0  0  0  0  0  0  0  0  0
    5.1619    2.2439   -2.1170 H   0  0  0  0  0  0  0  0  0  0  0  0
    3.2315    1.4058   -0.7848 H   0  0  0  0  0  0  0  0  0  0  0  0
   -0.5195   -0.8556    0.2097 H   0  0  0  0  0  0  0  0  0  0  0  0
   -0.5198    0.6140   -0.8805 H   0  0  0  0  0  0  0  0  0  0  0  0
   -2.1230   -2.2045    2.1628 H   0  0  0  0  0  0  0  0  0  0  0  0
   -2.4598   -4.3385    1.0503 H   0  0  0  0  0  0  0  0  0  0  0  0
   -3.4150   -4.4361   -1.1712 H   0  0  0  0  0  0  0  0  0  0  0  0
   -4.0666   -2.3708   -2.3497 H   0  0  0  0  0  0  0  0  0  0  0  0
   -3.7965    2.5775   -3.5310 H   0  0  0  0  0  0  0  0  0  0  0  0
   -5.5370    2.8610   -1.4865 H   0  0  0  0  0  0  0  0  0  0  0  0
  1  2  1  0
  2  3  1  0
  3  4  1  0
  4  5  1  0
  5  6  1  0
  6  7  1  0
  7  8  2  0
  8  9  1  0
  9 10  2  0
 10 11  1  0
 11 12  2  0
 12 13  1  0
 12 14  1  0
 14 15  2  0
 15 16  1  0
 16 17  2  0
  5 18  1  0
 18 19  1  0
 19 20  1  0
 20 21  2  0
 20 22  1  0
 22 23  2  0
 23 24  1  0
 24 25  2  0
 25 26  1  0
 26 27  2  0
 27 28  1  0
 28 29  1  0
 29 30  2  0
 30 31  1  0
 31 32  2  0
 19  2  1  0
 27 22  1  0
 32 28  1  0
 17  7  1  0
 17 11  1  0
  1 33  1  0
  1 34  1  0
  1 35  1  0
  2 36  1  1
  3 37  1  0
  3 38  1  0
  4 39  1  0
  4 40  1  0
  5 41  1  6
  8 42  1  0
  9 43  1  0
 14 44  1  0
 15 45  1  0
 16 46  1  0
 18 47  1  0
 18 48  1  0
 23 49  1  0
 24 50  1  0
 25 51  1  0
 26 52  1  0
 30 53  1  0
 31 54  1  0
M  END
$$$$
