
     RDKit          3D

 56 58  0  0  0  0  0  0  0  0999 V2000
    7.3426   -1.7135   -1.0486 O   0  0  0  0  0  0  0  0  0  0  0  0
    7.6343   -0.5056   -1.1463 C   0  0  0  0  0  0  0  0  0  0  0  0
    8.9593   -0.1702   -1.4675 O   0  0  0  0  0  0  0  0  0  0  0  0
    6.6945    0.6106   -0.9506 C   0  0  0  0  0  0  0  0  0  0  0  0
    5.4216    0.1575   -0.6388 O   0  0  0  0  0  0  0  0  0  0  0  0
    4.5736    1.2521   -0.4644 C   0  0  0  0  0  0  0  0  0  0  0  0
    3.1659    0.8080   -0.1209 C   0  0  1  0  0  0  0  0  0  0  0  0
    2.6269   -0.0577   -1.2599 C   0  0  0  0  0  0  0  0  0  0  0  0
    1.1800   -0.3454   -0.9441 C   0  0  0  0  0  0  0  0  0  0  0  0
    1.0054   -0.9390    0.4302 C   0  0  2  0  0  0  0  0  0  0  0  0
    0.2440   -0.0409    1.3534 C   0  0  0  0  0  0  0  0  0  0  0  0
   -1.0485    0.2682    0.9232 O   0  0  0  0  0  0  0  0  0  0  0  0
   -2.0264   -0.6852    0.7037 C   0  0  0  0  0  0  0  0  0  0  0  0
   -1.7298   -1.8893    0.9037 O   0  0  0  0  0  0  0  0  0  0  0  0
   -3.3069   -0.2749    0.2681 N   0  0  0  0  0  0  0  0  0  0  0  0
   -3.5771    1.0918    0.0617 C   0  0  0  0  0  0  0  0  0  0  0  0
   -4.0627    1.8925    1.0684 C   0  0  0  0  0  0  0  0  0  0  0  0
   -4.3261    3.2464    0.8489 C   0  0  0  0  0  0  0  0  0  0  0  0
   -4.1062    3.8143   -0.3815 C   0  0  0  0  0  0  0  0  0  0  0  0
   -3.6205    3.0182   -1.3924 C   0  0  0  0  0  0  0  0  0  0  0  0
   -3.3610    1.6731   -1.1667 C   0  0  0  0  0  0  0  0  0  0  0  0
   -4.2951   -1.2734    0.0495 C   0  0  0  0  0  0  0  0  0  0  0  0
   -4.4453   -1.8775   -1.1798 C   0  0  0  0  0  0  0  0  0  0  0  0
   -5.4004   -2.8480   -1.4057 C   0  0  0  0  0  0  0  0  0  0  0  0
   -6.2543   -3.2602   -0.4032 C   0  0  0  0  0  0  0  0  0  0  0  0
   -6.1138   -2.6639    0.8296 C   0  0  0  0  0  0  0  0  0  0  0  0
   -6.9374   -3.0484    1.8309 F   0  0  0  0  0  0  0  0  0  0  0  0
   -5.1618   -1.6942    1.0608 C   0  0  0  0  0  0  0  0  0  0  0  0
    2.3646   -1.2022    1.0898 C   0  0  0  0  0  0  0  0  0  0  0  0
    3.1415    0.0863    1.1873 C   0  0  0  0  0  0  0  0  0  0  0  0
    9.7237   -0.8202   -1.3401 H   0  0  0  0  0  0  0  0  0  0  0  0
    7.0679    1.1915   -0.0649 H   0  0  0  0  0  0  0  0  0  0  0  0
    6.6922    1.3304   -1.8095 H   0  0  0  0  0  0  0  0  0  0  0  0
    4.9701    1.8166    0.4152 H   0  0  0  0  0  0  0  0  0  0  0  0
    4.5869    1.8786   -1.3679 H   0  0  0  0  0  0  0  0  0  0  0  0
    2.5081    1.6918   -0.0776 H   0  0  0  0  0  0  0  0  0  0  0  0
    3.2233   -0.9949   -1.3701 H   0  0  0  0  0  0  0  0  0  0  0  0
    2.6606    0.5494   -2.1727 H   0  0  0  0  0  0  0  0  0  0  0  0
    0.7140   -0.9866   -1.7242 H   0  0  0  0  0  0  0  0  0  0  0  0
    0.6403    0.6240   -0.9809 H   0  0  0  0  0  0  0  0  0  0  0  0
    0.5322   -1.9220    0.3194 H   0  0  0  0  0  0  0  0  0  0  0  0
    0.2559   -0.4937    2.3661 H   0  0  0  0  0  0  0  0  0  0  0  0
    0.8008    0.9337    1.4291 H   0  0  0  0  0  0  0  0  0  0  0  0
   -4.2495    1.4796    2.0556 H   0  0  0  0  0  0  0  0  0  0  0  0
   -4.7082    3.8908    1.6294 H   0  0  0  0  0  0  0  0  0  0  0  0
   -4.3189    4.8830   -0.5381 H   0  0  0  0  0  0  0  0  0  0  0  0
   -3.4496    3.4681   -2.3556 H   0  0  0  0  0  0  0  0  0  0  0  0
   -2.9787    1.0352   -1.9533 H   0  0  0  0  0  0  0  0  0  0  0  0
   -3.7708   -1.5552   -1.9807 H   0  0  0  0  0  0  0  0  0  0  0  0
   -5.4772   -3.2924   -2.3928 H   0  0  0  0  0  0  0  0  0  0  0  0
   -6.9940   -4.0243   -0.6113 H   0  0  0  0  0  0  0  0  0  0  0  0
   -5.0222   -1.2039    2.0150 H   0  0  0  0  0  0  0  0  0  0  0  0
    2.9448   -1.9408    0.5357 H   0  0  0  0  0  0  0  0  0  0  0  0
    2.1365   -1.5742    2.1145 H   0  0  0  0  0  0  0  0  0  0  0  0
    4.1837   -0.1406    1.4757 H   0  0  0  0  0  0  0  0  0  0  0  0
    2.7468    0.7469    2.0116 H   0  0  0  0  0  0  0  0  0  0  0  0
  1  2  2  0
  2  3  1  0
  2  4  1  0
  4  5  1  0
  5  6  1  0
  6  7  1  0
  7  8  1  0
  8  9  1  0
  9 10  1  0
 10 11  1  0
 11 12  1  0
 12 13  1  0
 13 14  2  0
 13 15  1  0
 15 16  1  0
 16 17  2  0
 17 18  1  0
 18 19  2  0
 19 20  1  0
 20 21  2  0
 15 22  1  0
 22 23  2  0
 23 24  1  0
 24 25  2  0
 25 26  1  0
 26 27  1  0
 26 28  2  0
 10 29  1  0
 29 30  1  0
 30  7  1  0
 21 16  1  0
 28 22  1  0
  3 31  1  0
  4 32  1  0
  4 33  1  0
  6 34  1  0
  6 35  1  0
  7 36  1  1
  8 37  1  0
  8 38  1  0
  9 39  1  0
  9 40  1  0
 10 41  1  6
 11 42  1  0
 11 43  1  0
 17 44  1  0
 18 45  1  0
 19 46  1  0
 20 47  1  0
 21 48  1  0
 23 49  1  0
 24 50  1  0
 25 51  1  0
 28 52  1  0
 29 53  1  0
 29 54  1  0
 30 55  1  0
 30 56  1  0
M  END
$$$$
