
     RDKit          3D

 40 41  0  0  0  0  0  0  0  0999 V2000
    6.9046   -0.5697   -0.6660 C   0  0  0  0  0  0  0  0  0  0  0  0
    5.9851    0.8895   -0.0722 S   0  0  0  0  0  0  0  0  0  0  0  0
    4.2467    0.4306   -0.0857 C   0  0  0  0  0  0  0  0  0  0  0  0
    3.6820   -0.1408    1.0332 C   0  0  0  0  0  0  0  0  0  0  0  0
    2.3569   -0.4762    0.9830 C   0  0  0  0  0  0  0  0  0  0  0  0
    1.5783   -0.2678   -0.1256 C   0  0  0  0  0  0  0  0  0  0  0  0
    0.1369   -0.6547   -0.1230 C   0  0  0  0  0  0  0  0  0  0  0  0
   -0.6790    0.4803    0.3537 C   0  0  0  0  0  0  0  0  0  0  0  0
   -0.0778    1.6673    0.7103 C   0  0  0  0  0  0  0  0  0  0  0  0
   -0.7873    2.7549    1.1603 C   0  0  0  0  0  0  0  0  0  0  0  0
   -2.1539    2.6339    1.2516 C   0  0  0  0  0  0  0  0  0  0  0  0
   -2.7610    1.4390    0.8929 C   0  0  0  0  0  0  0  0  0  0  0  0
   -2.0594    0.3487    0.4428 C   0  0  0  0  0  0  0  0  0  0  0  0
   -2.6414   -0.9372    0.0528 C   0  0  0  0  0  0  0  0  0  0  0  0
   -4.0776   -0.9873    0.1233 N   0  0  0  0  0  0  0  0  0  0  0  0
   -4.4781   -2.3487   -0.2720 C   0  0  0  0  0  0  0  0  0  0  0  0
   -4.6980   -0.0798   -0.8377 C   0  0  0  0  0  0  0  0  0  0  0  0
    2.1441    0.3024   -1.2403 C   0  0  0  0  0  0  0  0  0  0  0  0
    3.4738    0.6460   -1.2090 C   0  0  0  0  0  0  0  0  0  0  0  0
    7.0354   -1.3205    0.1615 H   0  0  0  0  0  0  0  0  0  0  0  0
    7.8785   -0.2630   -1.0809 H   0  0  0  0  0  0  0  0  0  0  0  0
    6.3298   -1.0377   -1.5009 H   0  0  0  0  0  0  0  0  0  0  0  0
    4.2733   -0.3168    1.9231 H   0  0  0  0  0  0  0  0  0  0  0  0
    1.8972   -0.9323    1.8674 H   0  0  0  0  0  0  0  0  0  0  0  0
    0.0089   -1.5150    0.5408 H   0  0  0  0  0  0  0  0  0  0  0  0
   -0.1964   -0.8708   -1.1788 H   0  0  0  0  0  0  0  0  0  0  0  0
    1.0010    1.7592    0.6367 H   0  0  0  0  0  0  0  0  0  0  0  0
   -0.2738    3.6592    1.4264 H   0  0  0  0  0  0  0  0  0  0  0  0
   -2.7735    3.4363    1.5920 H   0  0  0  0  0  0  0  0  0  0  0  0
   -3.8322    1.3545    0.9703 H   0  0  0  0  0  0  0  0  0  0  0  0
   -2.2582   -1.7108    0.7566 H   0  0  0  0  0  0  0  0  0  0  0  0
   -2.2853   -1.2699   -0.9592 H   0  0  0  0  0  0  0  0  0  0  0  0
   -3.6002   -3.0223   -0.3363 H   0  0  0  0  0  0  0  0  0  0  0  0
   -4.9625   -2.3512   -1.2695 H   0  0  0  0  0  0  0  0  0  0  0  0
   -5.2253   -2.7277    0.4847 H   0  0  0  0  0  0  0  0  0  0  0  0
   -5.5713    0.4493   -0.4046 H   0  0  0  0  0  0  0  0  0  0  0  0
   -3.9500    0.5992   -1.2971 H   0  0  0  0  0  0  0  0  0  0  0  0
   -5.1242   -0.6488   -1.7161 H   0  0  0  0  0  0  0  0  0  0  0  0
    1.5806    0.4951   -2.1525 H   0  0  0  0  0  0  0  0  0  0  0  0
    3.9533    1.1034   -2.0878 H   0  0  0  0  0  0  0  0  0  0  0  0
  1  2  1  0
  2  3  1  0
  3  4  2  0
  4  5  1  0
  5  6  2  0
  6  7  1  0
  7  8  1  0
  8  9  2  0
  9 10  1  0
 10 11  2  0
 11 12  1  0
 12 13  2  0
 13 14  1  0
 14 15  1  0
 15 16  1  0
 15 17  1  0
  6 18  1  0
 18 19  2  0
 19  3  1  0
 13  8  1  0
  1 20  1  0
  1 21  1  0
  1 22  1  0
  4 23  1  0
  5 24  1  0
  7 25  1  0
  7 26  1  0
  9 27  1  0
 10 28  1  0
 11 29  1  0
 12 30  1  0
 14 31  1  0
 14 32  1  0
 16 33  1  0
 16 34  1  0
 16 35  1  0
 17 36  1  0
 17 37  1  0
 17 38  1  0
 18 39  1  0
 19 40  1  0
M  END
$$$$
