
     RDKit          3D

101107  0  0  0  0  0  0  0  0999 V2000
    9.0311    2.3699    4.4464 C   0  0  0  0  0  0  0  0  0  0  0  0
    8.8048    2.1783    3.0538 O   0  0  0  0  0  0  0  0  0  0  0  0
    7.7177    1.3862    2.6410 C   0  0  0  0  0  0  0  0  0  0  0  0
    6.8813    0.7998    3.5492 C   0  0  0  0  0  0  0  0  0  0  0  0
    5.7977    0.0132    3.1279 C   0  0  0  0  0  0  0  0  0  0  0  0
    4.9828   -0.6392    4.0874 N   0  0  0  0  0  0  0  0  0  0  0  0
    3.6433   -0.9575    3.7961 C   0  0  0  0  0  0  0  0  0  0  0  0
    3.0320   -1.8079    4.6603 N   0  0  0  0  0  0  0  0  0  0  0  0
    1.7451   -2.1603    4.5267 C   0  0  0  0  0  0  0  0  0  0  0  0
    1.0321   -1.6375    3.4802 C   0  0  0  0  0  0  0  0  0  0  0  0
    1.6376   -0.7636    2.5869 C   0  0  0  0  0  0  0  0  0  0  0  0
    0.8953   -0.2331    1.5206 O   0  0  0  0  0  0  0  0  0  0  0  0
   -0.4759   -0.5258    1.4716 C   0  0  0  0  0  0  0  0  0  0  0  0
   -1.0326   -1.2943    0.4898 C   0  0  0  0  0  0  0  0  0  0  0  0
   -2.3947   -1.5570    0.4960 C   0  0  0  0  0  0  0  0  0  0  0  0
   -3.2337   -1.0682    1.4672 C   0  0  0  0  0  0  0  0  0  0  0  0
   -4.6203   -1.3301    1.5106 N   0  0  0  0  0  0  0  0  0  0  0  0
   -5.6322   -0.5087    0.9274 C   0  0  0  0  0  0  0  0  0  0  0  0
   -5.3297    0.5403    0.3148 O   0  0  0  0  0  0  0  0  0  0  0  0
   -7.0069   -0.8419    1.0177 N   0  0  0  0  0  0  0  0  0  0  0  0
   -7.9867   -0.0112    0.4575 C   0  0  0  0  0  0  0  0  0  0  0  0
   -8.5482    1.0481    1.1837 C   0  0  0  0  0  0  0  0  0  0  0  0
   -9.4659    1.6150    0.3402 C   0  0  0  0  0  0  0  0  0  0  0  0
  -10.3443    2.7891    0.6528 C   0  0  0  0  0  0  0  0  0  0  0  0
  -10.2272    3.8964   -0.3481 C   0  0  0  0  0  0  0  0  0  0  0  0
  -11.7709    2.2239    0.6496 C   0  0  0  0  0  0  0  0  0  0  0  0
   -9.4345    0.9314   -0.7844 N   0  0  0  0  0  0  0  0  0  0  0  0
   -8.5369   -0.0700   -0.7390 N   0  0  0  0  0  0  0  0  0  0  0  0
   -8.3083   -0.9619   -1.8185 C   0  0  0  0  0  0  0  0  0  0  0  0
   -7.4876   -2.0605   -1.7681 C   0  0  0  0  0  0  0  0  0  0  0  0
   -7.3161   -2.8986   -2.8863 C   0  0  0  0  0  0  0  0  0  0  0  0
   -7.9805   -2.6196   -4.0540 C   0  0  0  0  0  0  0  0  0  0  0  0
   -7.8048   -3.4694   -5.1717 O   0  0  0  0  0  0  0  0  0  0  0  0
   -8.4895   -3.2045   -6.3864 C   0  0  0  0  0  0  0  0  0  0  0  0
   -8.7823   -1.5449   -4.0985 N   0  0  0  0  0  0  0  0  0  0  0  0
   -8.9546   -0.7328   -3.0356 C   0  0  0  0  0  0  0  0  0  0  0  0
   -2.6898   -0.2795    2.4781 C   0  0  0  0  0  0  0  0  0  0  0  0
   -3.5391    0.2267    3.4306 C   0  0  0  0  0  0  0  0  0  0  0  0
   -2.9994    1.0350    4.4202 C   0  0  0  0  0  0  0  0  0  0  0  0
   -1.6401    1.3055    4.4180 C   0  0  0  0  0  0  0  0  0  0  0  0
   -0.8028    0.7812    3.4456 C   0  0  0  0  0  0  0  0  0  0  0  0
   -1.3143   -0.0208    2.4623 C   0  0  0  0  0  0  0  0  0  0  0  0
    2.9196   -0.4609    2.7803 N   0  0  0  0  0  0  0  0  0  0  0  0
    5.5990   -0.1502    1.7782 C   0  0  0  0  0  0  0  0  0  0  0  0
    6.4277    0.4297    0.8317 C   0  0  0  0  0  0  0  0  0  0  0  0
    6.1465    0.1932   -0.5847 C   0  0  0  0  0  0  0  0  0  0  0  0
    5.0571   -0.3700   -0.9118 O   0  0  0  0  0  0  0  0  0  0  0  0
    7.0531    0.5670   -1.6044 N   0  0  0  0  0  0  0  0  0  0  0  0
    6.7245    0.2958   -2.9670 C   0  0  0  0  0  0  0  0  0  0  0  0
    7.7565    0.6791   -3.9712 C   0  0  0  0  0  0  0  0  0  0  0  0
    9.0062    0.0717   -3.9213 N   0  0  0  0  0  0  0  0  0  0  0  0
    9.9008    0.2961   -2.8660 C   0  0  0  0  0  0  0  0  0  0  0  0
   11.3065   -0.0453   -3.3445 C   0  0  0  0  0  0  0  0  0  0  0  0
   11.4271   -1.3758   -3.6789 O   0  0  0  0  0  0  0  0  0  0  0  0
   10.3745   -1.9240   -4.3542 C   0  0  0  0  0  0  0  0  0  0  0  0
    9.3336   -0.9506   -4.8415 C   0  0  0  0  0  0  0  0  0  0  0  0
    7.4747    1.1893    1.2851 C   0  0  0  0  0  0  0  0  0  0  0  0
    9.9765    2.9170    4.5806 H   0  0  0  0  0  0  0  0  0  0  0  0
    8.2265    3.0234    4.8651 H   0  0  0  0  0  0  0  0  0  0  0  0
    9.1159    1.4222    4.9982 H   0  0  0  0  0  0  0  0  0  0  0  0
    7.0231    0.9286    4.6232 H   0  0  0  0  0  0  0  0  0  0  0  0
    5.4337   -0.8636    5.0132 H   0  0  0  0  0  0  0  0  0  0  0  0
    1.2731   -2.8510    5.2346 H   0  0  0  0  0  0  0  0  0  0  0  0
   -0.0026   -1.9399    3.3664 H   0  0  0  0  0  0  0  0  0  0  0  0
   -0.4041   -1.6961   -0.2923 H   0  0  0  0  0  0  0  0  0  0  0  0
   -2.8363   -2.1642   -0.2911 H   0  0  0  0  0  0  0  0  0  0  0  0
   -4.9106   -2.2117    2.0248 H   0  0  0  0  0  0  0  0  0  0  0  0
   -7.3210   -1.7127    1.5179 H   0  0  0  0  0  0  0  0  0  0  0  0
   -8.3209    1.3602    2.1854 H   0  0  0  0  0  0  0  0  0  0  0  0
  -10.1233    3.1776    1.6802 H   0  0  0  0  0  0  0  0  0  0  0  0
  -10.0194    3.5235   -1.3686 H   0  0  0  0  0  0  0  0  0  0  0  0
  -11.1971    4.4726   -0.3532 H   0  0  0  0  0  0  0  0  0  0  0  0
   -9.4466    4.6633   -0.0549 H   0  0  0  0  0  0  0  0  0  0  0  0
  -12.5108    2.9866    0.8804 H   0  0  0  0  0  0  0  0  0  0  0  0
  -11.9613    1.8211   -0.3783 H   0  0  0  0  0  0  0  0  0  0  0  0
  -11.7507    1.3704    1.3707 H   0  0  0  0  0  0  0  0  0  0  0  0
   -6.9716   -2.2836   -0.8594 H   0  0  0  0  0  0  0  0  0  0  0  0
   -6.6487   -3.7554   -2.7865 H   0  0  0  0  0  0  0  0  0  0  0  0
   -9.5767   -3.1687   -6.2217 H   0  0  0  0  0  0  0  0  0  0  0  0
   -8.1472   -2.1848   -6.7172 H   0  0  0  0  0  0  0  0  0  0  0  0
   -8.1887   -3.9805   -7.1094 H   0  0  0  0  0  0  0  0  0  0  0  0
   -9.6258    0.1334   -3.1201 H   0  0  0  0  0  0  0  0  0  0  0  0
   -4.5882    0.0194    3.4337 H   0  0  0  0  0  0  0  0  0  0  0  0
   -3.5931    1.4700    5.2056 H   0  0  0  0  0  0  0  0  0  0  0  0
   -1.1985    1.9397    5.1841 H   0  0  0  0  0  0  0  0  0  0  0  0
    0.2508    1.0279    3.4618 H   0  0  0  0  0  0  0  0  0  0  0  0
    4.7744   -0.7469    1.4108 H   0  0  0  0  0  0  0  0  0  0  0  0
    7.9257    1.0411   -1.2870 H   0  0  0  0  0  0  0  0  0  0  0  0
    6.3887   -0.7782   -3.1099 H   0  0  0  0  0  0  0  0  0  0  0  0
    5.8010    0.8895   -3.2132 H   0  0  0  0  0  0  0  0  0  0  0  0
    7.2921    0.4482   -4.9799 H   0  0  0  0  0  0  0  0  0  0  0  0
    7.8639    1.7897   -3.9793 H   0  0  0  0  0  0  0  0  0  0  0  0
    9.7095   -0.2900   -1.9383 H   0  0  0  0  0  0  0  0  0  0  0  0
    9.9097    1.3662   -2.5829 H   0  0  0  0  0  0  0  0  0  0  0  0
   11.9732    0.1302   -2.4626 H   0  0  0  0  0  0  0  0  0  0  0  0
   11.6464    0.6019   -4.1417 H   0  0  0  0  0  0  0  0  0  0  0  0
   10.8102   -2.3867   -5.2871 H   0  0  0  0  0  0  0  0  0  0  0  0
    9.9797   -2.7656   -3.7679 H   0  0  0  0  0  0  0  0  0  0  0  0
    9.7816   -0.4628   -5.7402 H   0  0  0  0  0  0  0  0  0  0  0  0
    8.4866   -1.5443   -5.2229 H   0  0  0  0  0  0  0  0  0  0  0  0
    8.1426    1.6700    0.5794 H   0  0  0  0  0  0  0  0  0  0  0  0
  1  2  1  0
  2  3  1  0
  3  4  2  0
  4  5  1  0
  5  6  1  0
  6  7  1  0
  7  8  2  0
  8  9  1  0
  9 10  2  0
 10 11  1  0
 11 12  1  0
 12 13  1  0
 13 14  2  0
 14 15  1  0
 15 16  2  0
 16 17  1  0
 17 18  1  0
 18 19  2  0
 18 20  1  0
 20 21  1  0
 21 22  2  0
 22 23  1  0
 23 24  1  0
 24 25  1  0
 24 26  1  0
 23 27  2  0
 27 28  1  0
 28 29  1  0
 29 30  2  0
 30 31  1  0
 31 32  2  0
 32 33  1  0
 33 34  1  0
 32 35  1  0
 35 36  2  0
 16 37  1  0
 37 38  2  0
 38 39  1  0
 39 40  2  0
 40 41  1  0
 41 42  2  0
 11 43  2  0
  5 44  2  0
 44 45  1  0
 45 46  1  0
 46 47  2  0
 46 48  1  0
 48 49  1  0
 49 50  1  0
 50 51  1  0
 51 52  1  0
 52 53  1  0
 53 54  1  0
 54 55  1  0
 55 56  1  0
 45 57  2  0
 57  3  1  0
 43  7  1  0
 56 51  1  0
 42 13  1  0
 28 21  1  0
 36 29  1  0
 42 37  1  0
  1 58  1  0
  1 59  1  0
  1 60  1  0
  4 61  1  0
  6 62  1  0
  9 63  1  0
 10 64  1  0
 14 65  1  0
 15 66  1  0
 17 67  1  0
 20 68  1  0
 22 69  1  0
 24 70  1  0
 25 71  1  0
 25 72  1  0
 25 73  1  0
 26 74  1  0
 26 75  1  0
 26 76  1  0
 30 77  1  0
 31 78  1  0
 34 79  1  0
 34 80  1  0
 34 81  1  0
 36 82  1  0
 38 83  1  0
 39 84  1  0
 40 85  1  0
 41 86  1  0
 44 87  1  0
 48 88  1  0
 49 89  1  0
 49 90  1  0
 50 91  1  0
 50 92  1  0
 52 93  1  0
 52 94  1  0
 53 95  1  0
 53 96  1  0
 55 97  1  0
 55 98  1  0
 56 99  1  0
 56100  1  0
 57101  1  0
M  END
$$$$
