
     RDKit          3D

 54 58  0  0  0  0  0  0  0  0999 V2000
   -7.2548   -0.7441   -2.1246 O   0  0  0  0  0  0  0  0  0  0  0  0
   -6.4551    0.3058   -1.7326 C   0  0  0  0  0  0  0  0  0  0  0  0
   -5.4076   -0.1550   -0.7366 C   0  0  0  0  0  0  0  0  0  0  0  0
   -4.5429    1.0129   -0.3214 C   0  0  0  0  0  0  0  0  0  0  0  0
   -3.1520    0.5668    0.0760 C   0  0  0  0  0  0  0  0  0  0  0  0
   -3.1592   -0.7829    0.6092 N   0  0  0  0  0  0  0  0  0  0  0  0
   -2.6446   -1.1055    1.8935 C   0  0  0  0  0  0  0  0  0  0  0  0
   -3.4467   -1.6525    2.8404 N   0  0  0  0  0  0  0  0  0  0  0  0
   -2.9869   -1.9667    4.0632 C   0  0  0  0  0  0  0  0  0  0  0  0
   -1.6619   -1.7179    4.3406 C   0  0  0  0  0  0  0  0  0  0  0  0
   -0.8831   -1.1754    3.3891 N   0  0  0  0  0  0  0  0  0  0  0  0
   -1.3169   -0.8510    2.1566 C   0  0  0  0  0  0  0  0  0  0  0  0
   -0.5503   -0.2997    1.1710 O   0  0  0  0  0  0  0  0  0  0  0  0
    0.8120    0.0194    1.2754 C   0  0  0  0  0  0  0  0  0  0  0  0
    1.6117   -0.5842    0.1420 C   0  0  0  0  0  0  0  0  0  0  0  0
    2.3952    0.6352    0.1309 N   0  0  0  0  0  0  0  0  0  0  0  0
    3.7250    0.9288   -0.2837 C   0  0  0  0  0  0  0  0  0  0  0  0
    4.2612    2.1973   -0.1885 C   0  0  0  0  0  0  0  0  0  0  0  0
    5.5571    2.4677   -0.5963 C   0  0  0  0  0  0  0  0  0  0  0  0
    6.3544    1.4683   -1.1132 C   0  0  0  0  0  0  0  0  0  0  0  0
    7.6495    1.7240   -1.5239 C   0  0  0  0  0  0  0  0  0  0  0  0
    8.4397    0.7217   -2.0387 C   0  0  0  0  0  0  0  0  0  0  0  0
    7.8724   -0.5443   -2.1221 C   0  0  0  0  0  0  0  0  0  0  0  0
    6.5850   -0.7926   -1.7125 C   0  0  0  0  0  0  0  0  0  0  0  0
    5.7870    0.1981   -1.1975 C   0  0  0  0  0  0  0  0  0  0  0  0
    4.5240   -0.0256   -0.7909 N   0  0  0  0  0  0  0  0  0  0  0  0
    1.2574    1.3221    0.6947 C   0  0  0  0  0  0  0  0  0  0  0  0
   -3.7092   -1.8350   -0.1951 C   0  0  0  0  0  0  0  0  0  0  0  0
   -4.6145   -1.2977   -1.2837 C   0  0  0  0  0  0  0  0  0  0  0  0
   -8.1045   -0.4345   -2.5227 H   0  0  0  0  0  0  0  0  0  0  0  0
   -7.1190    1.0623   -1.2403 H   0  0  0  0  0  0  0  0  0  0  0  0
   -5.9990    0.7923   -2.6082 H   0  0  0  0  0  0  0  0  0  0  0  0
   -5.9429   -0.5194    0.1728 H   0  0  0  0  0  0  0  0  0  0  0  0
   -4.4482    1.7250   -1.1619 H   0  0  0  0  0  0  0  0  0  0  0  0
   -5.0085    1.5626    0.5347 H   0  0  0  0  0  0  0  0  0  0  0  0
   -2.7803    1.2952    0.8288 H   0  0  0  0  0  0  0  0  0  0  0  0
   -2.5053    0.5761   -0.8137 H   0  0  0  0  0  0  0  0  0  0  0  0
   -3.6674   -2.4020    4.7859 H   0  0  0  0  0  0  0  0  0  0  0  0
   -1.2513   -1.9638    5.3353 H   0  0  0  0  0  0  0  0  0  0  0  0
    1.2067   -0.2246    2.2621 H   0  0  0  0  0  0  0  0  0  0  0  0
    2.2033   -1.4746    0.5014 H   0  0  0  0  0  0  0  0  0  0  0  0
    1.0664   -0.7886   -0.7837 H   0  0  0  0  0  0  0  0  0  0  0  0
    3.6189    2.9694    0.2204 H   0  0  0  0  0  0  0  0  0  0  0  0
    5.9754    3.4643   -0.5204 H   0  0  0  0  0  0  0  0  0  0  0  0
    8.0835    2.7126   -1.4555 H   0  0  0  0  0  0  0  0  0  0  0  0
    9.4557    0.8825   -2.3698 H   0  0  0  0  0  0  0  0  0  0  0  0
    8.4635   -1.3559   -2.5215 H   0  0  0  0  0  0  0  0  0  0  0  0
    6.1930   -1.7873   -1.7973 H   0  0  0  0  0  0  0  0  0  0  0  0
    1.4990    2.0571    1.4894 H   0  0  0  0  0  0  0  0  0  0  0  0
    0.5698    1.7770   -0.0468 H   0  0  0  0  0  0  0  0  0  0  0  0
   -4.3307   -2.4781    0.4595 H   0  0  0  0  0  0  0  0  0  0  0  0
   -2.8699   -2.4283   -0.6163 H   0  0  0  0  0  0  0  0  0  0  0  0
   -4.0314   -0.9632   -2.1669 H   0  0  0  0  0  0  0  0  0  0  0  0
   -5.3226   -2.0938   -1.5762 H   0  0  0  0  0  0  0  0  0  0  0  0
  1  2  1  0
  2  3  1  0
  3  4  1  0
  4  5  1  0
  5  6  1  0
  6  7  1  0
  7  8  2  0
  8  9  1  0
  9 10  2  0
 10 11  1  0
 11 12  2  0
 12 13  1  0
 13 14  1  0
 14 15  1  0
 15 16  1  0
 16 17  1  0
 17 18  2  0
 18 19  1  0
 19 20  2  0
 20 21  1  0
 21 22  2  0
 22 23  1  0
 23 24  2  0
 24 25  1  0
 25 26  2  0
 16 27  1  0
  6 28  1  0
 28 29  1  0
 29  3  1  0
 12  7  1  0
 27 14  1  0
 26 17  1  0
 25 20  1  0
  1 30  1  0
  2 31  1  0
  2 32  1  0
  3 33  1  0
  4 34  1  0
  4 35  1  0
  5 36  1  0
  5 37  1  0
  9 38  1  0
 10 39  1  0
 14 40  1  0
 15 41  1  0
 15 42  1  0
 18 43  1  0
 19 44  1  0
 21 45  1  0
 22 46  1  0
 23 47  1  0
 24 48  1  0
 27 49  1  0
 27 50  1  0
 28 51  1  0
 28 52  1  0
 29 53  1  0
 29 54  1  0
M  END
$$$$
