
     RDKit          3D

 95100  0  0  0  0  0  0  0  0999 V2000
    9.8018    1.5192    3.2470 C   0  0  0  0  0  0  0  0  0  0  0  0
    9.5039    1.3146    1.8798 O   0  0  0  0  0  0  0  0  0  0  0  0
    8.2454    1.0008    1.4193 C   0  0  0  0  0  0  0  0  0  0  0  0
    7.1386    0.8524    2.2419 C   0  0  0  0  0  0  0  0  0  0  0  0
    5.9073    0.5374    1.7117 C   0  0  0  0  0  0  0  0  0  0  0  0
    5.7563    0.3620    0.3272 C   0  0  0  0  0  0  0  0  0  0  0  0
    6.8412    0.5077   -0.4722 C   0  0  0  0  0  0  0  0  0  0  0  0
    8.0713    0.8214    0.0453 C   0  0  0  0  0  0  0  0  0  0  0  0
    8.9944    0.9072   -1.0154 O   0  0  0  0  0  0  0  0  0  0  0  0
    8.2494    1.0911   -2.2156 C   0  0  1  0  0  0  0  0  0  0  0  0
    8.9245    0.4974   -3.4213 C   0  0  0  0  0  0  0  0  0  0  0  0
    9.3701   -0.9094   -2.9918 C   0  0  1  0  0  0  0  0  0  0  0  0
    9.9903   -0.8764   -1.7444 O   0  0  0  0  0  0  0  0  0  0  0  0
    8.0814   -1.6655   -2.8323 C   0  0  0  0  0  0  0  0  0  0  0  0
    7.0240   -1.0433   -2.3521 C   0  0  0  0  0  0  0  0  0  0  0  0
    6.9599    0.3692   -1.9358 C   0  0  1  0  0  0  0  0  0  0  0  0
    5.8408    1.1130   -2.6524 C   0  0  0  0  0  0  0  0  0  0  0  0
    4.8520    1.6712   -1.6468 C   0  0  0  0  0  0  0  0  0  0  0  0
    4.0058    0.5943   -1.2221 N   0  0  0  0  0  0  0  0  0  0  0  0
    2.7981    0.4804   -1.8723 C   0  0  0  0  0  0  0  0  0  0  0  0
    1.8208   -0.5652   -1.6020 C   0  0  0  0  0  0  0  0  0  0  0  0
    1.2486   -0.6318   -0.2130 C   0  0  0  0  0  0  0  0  0  0  0  0
    0.2200   -1.7601   -0.1189 C   0  0  0  0  0  0  0  0  0  0  0  0
   -0.3172   -1.7978    1.2999 C   0  0  0  0  0  0  0  0  0  0  0  0
   -0.9793   -0.5389    1.7358 C   0  0  0  0  0  0  0  0  0  0  0  0
   -2.1678   -0.1655    0.8974 C   0  0  0  0  0  0  0  0  0  0  0  0
   -2.7757    1.1370    1.4146 C   0  0  0  0  0  0  0  0  0  0  0  0
   -3.2145    1.0104    2.8297 C   0  0  0  0  0  0  0  0  0  0  0  0
   -4.1640    0.0612    3.0365 O   0  0  0  0  0  0  0  0  0  0  0  0
   -5.4373    0.0090    2.5983 C   0  0  0  0  0  0  0  0  0  0  0  0
   -6.0985    0.9420    1.8508 C   0  0  0  0  0  0  0  0  0  0  0  0
   -7.4218    0.7512    1.4647 C   0  0  0  0  0  0  0  0  0  0  0  0
   -8.1118   -0.3704    1.8158 C   0  0  0  0  0  0  0  0  0  0  0  0
   -9.5370   -0.6177    1.4288 C   0  0  0  0  0  0  0  0  0  0  0  0
   -9.5753   -1.3144    0.1819 N   0  0  0  0  0  0  0  0  0  0  0  0
  -10.9335   -1.6067   -0.1716 C   0  0  0  0  0  0  0  0  0  0  0  0
  -11.6933   -0.3799   -0.6262 C   0  0  0  0  0  0  0  0  0  0  0  0
  -10.9786    0.1227   -1.8759 C   0  0  0  0  0  0  0  0  0  0  0  0
   -9.5989    0.5578   -1.4223 C   0  0  0  0  0  0  0  0  0  0  0  0
   -8.8811   -0.6626   -0.8879 C   0  0  0  0  0  0  0  0  0  0  0  0
   -7.4744   -1.3323    2.5710 C   0  0  0  0  0  0  0  0  0  0  0  0
   -6.1784   -1.1359    2.9435 C   0  0  0  0  0  0  0  0  0  0  0  0
    4.3119    0.0297    0.0119 C   0  0  0  0  0  0  0  0  0  0  0  0
   10.8941    1.6277    3.3490 H   0  0  0  0  0  0  0  0  0  0  0  0
    9.4810    0.6524    3.8665 H   0  0  0  0  0  0  0  0  0  0  0  0
    9.2852    2.4395    3.6251 H   0  0  0  0  0  0  0  0  0  0  0  0
    7.3087    0.9992    3.3104 H   0  0  0  0  0  0  0  0  0  0  0  0
    5.0725    0.4318    2.3900 H   0  0  0  0  0  0  0  0  0  0  0  0
    8.0120    2.1626   -2.3860 H   0  0  0  0  0  0  0  0  0  0  0  0
    8.1356    0.3299   -4.2029 H   0  0  0  0  0  0  0  0  0  0  0  0
    9.7580    1.0818   -3.8062 H   0  0  0  0  0  0  0  0  0  0  0  0
    9.9679   -1.3980   -3.7646 H   0  0  0  0  0  0  0  0  0  0  0  0
    9.6563   -1.6254   -1.1995 H   0  0  0  0  0  0  0  0  0  0  0  0
    8.0458   -2.7209   -3.1185 H   0  0  0  0  0  0  0  0  0  0  0  0
    6.1172   -1.6669   -2.2660 H   0  0  0  0  0  0  0  0  0  0  0  0
    6.2364    1.9799   -3.2171 H   0  0  0  0  0  0  0  0  0  0  0  0
    5.2718    0.4272   -3.3308 H   0  0  0  0  0  0  0  0  0  0  0  0
    5.3408    2.0910   -0.7671 H   0  0  0  0  0  0  0  0  0  0  0  0
    4.2259    2.4457   -2.1112 H   0  0  0  0  0  0  0  0  0  0  0  0
    2.9829    0.4858   -2.9964 H   0  0  0  0  0  0  0  0  0  0  0  0
    2.2468    1.4771   -1.7488 H   0  0  0  0  0  0  0  0  0  0  0  0
    0.9157   -0.3408   -2.2586 H   0  0  0  0  0  0  0  0  0  0  0  0
    2.1138   -1.5862   -1.9726 H   0  0  0  0  0  0  0  0  0  0  0  0
    1.9710   -0.8430    0.5667 H   0  0  0  0  0  0  0  0  0  0  0  0
    0.6919    0.3286   -0.0552 H   0  0  0  0  0  0  0  0  0  0  0  0
   -0.5727   -1.5697   -0.8495 H   0  0  0  0  0  0  0  0  0  0  0  0
    0.7689   -2.7104   -0.2790 H   0  0  0  0  0  0  0  0  0  0  0  0
   -1.1072   -2.6004    1.3053 H   0  0  0  0  0  0  0  0  0  0  0  0
    0.4626   -2.1285    1.9831 H   0  0  0  0  0  0  0  0  0  0  0  0
   -0.3043    0.3352    1.7791 H   0  0  0  0  0  0  0  0  0  0  0  0
   -1.3373   -0.7004    2.7811 H   0  0  0  0  0  0  0  0  0  0  0  0
   -1.8970   -0.0157   -0.1588 H   0  0  0  0  0  0  0  0  0  0  0  0
   -2.9163   -0.9560    0.9751 H   0  0  0  0  0  0  0  0  0  0  0  0
   -3.5897    1.3843    0.7455 H   0  0  0  0  0  0  0  0  0  0  0  0
   -2.0088    1.9452    1.3203 H   0  0  0  0  0  0  0  0  0  0  0  0
   -3.6633    2.0197    3.1012 H   0  0  0  0  0  0  0  0  0  0  0  0
   -2.3347    0.9395    3.5344 H   0  0  0  0  0  0  0  0  0  0  0  0
   -5.6006    1.8689    1.5635 H   0  0  0  0  0  0  0  0  0  0  0  0
   -7.8766    1.5210    0.8814 H   0  0  0  0  0  0  0  0  0  0  0  0
  -10.0122    0.3919    1.4028 H   0  0  0  0  0  0  0  0  0  0  0  0
   -9.9955   -1.1906    2.2586 H   0  0  0  0  0  0  0  0  0  0  0  0
  -11.4338   -1.9835    0.7650 H   0  0  0  0  0  0  0  0  0  0  0  0
  -10.9360   -2.3708   -0.9781 H   0  0  0  0  0  0  0  0  0  0  0  0
  -11.6270    0.4028    0.1532 H   0  0  0  0  0  0  0  0  0  0  0  0
  -12.7397   -0.6904   -0.8365 H   0  0  0  0  0  0  0  0  0  0  0  0
  -11.5219    0.9535   -2.3616 H   0  0  0  0  0  0  0  0  0  0  0  0
  -10.8411   -0.7589   -2.5349 H   0  0  0  0  0  0  0  0  0  0  0  0
   -9.6341    1.4025   -0.7280 H   0  0  0  0  0  0  0  0  0  0  0  0
   -9.0494    0.8863   -2.3231 H   0  0  0  0  0  0  0  0  0  0  0  0
   -8.8509   -1.3875   -1.7387 H   0  0  0  0  0  0  0  0  0  0  0  0
   -7.8324   -0.4664   -0.6297 H   0  0  0  0  0  0  0  0  0  0  0  0
   -8.0096   -2.2378    2.8628 H   0  0  0  0  0  0  0  0  0  0  0  0
   -5.7042   -1.9250    3.5452 H   0  0  0  0  0  0  0  0  0  0  0  0
    3.7581    0.6015    0.8077 H   0  0  0  0  0  0  0  0  0  0  0  0
    4.2555   -1.0472    0.0859 H   0  0  0  0  0  0  0  0  0  0  0  0
  1  2  1  0
  2  3  1  0
  3  4  2  0
  4  5  1  0
  5  6  2  0
  6  7  1  0
  7  8  2  0
  8  9  1  0
  9 10  1  0
 10 11  1  0
 11 12  1  0
 12 13  1  0
 12 14  1  0
 14 15  2  0
 15 16  1  0
 16 17  1  6
 17 18  1  0
 18 19  1  0
 19 20  1  0
 20 21  1  0
 21 22  1  0
 22 23  1  0
 23 24  1  0
 24 25  1  0
 25 26  1  0
 26 27  1  0
 27 28  1  0
 28 29  1  0
 29 30  1  0
 30 31  2  0
 31 32  1  0
 32 33  2  0
 33 34  1  0
 34 35  1  0
 35 36  1  0
 36 37  1  0
 37 38  1  0
 38 39  1  0
 39 40  1  0
 33 41  1  0
 41 42  2  0
 19 43  1  0
  8  3  1  0
 16 10  1  0
 42 30  1  0
 43  6  1  0
 16  7  1  0
 40 35  1  0
  1 44  1  0
  1 45  1  0
  1 46  1  0
  4 47  1  0
  5 48  1  0
 10 49  1  6
 11 50  1  0
 11 51  1  0
 12 52  1  6
 13 53  1  0
 14 54  1  0
 15 55  1  0
 17 56  1  0
 17 57  1  0
 18 58  1  0
 18 59  1  0
 20 60  1  0
 20 61  1  0
 21 62  1  0
 21 63  1  0
 22 64  1  0
 22 65  1  0
 23 66  1  0
 23 67  1  0
 24 68  1  0
 24 69  1  0
 25 70  1  0
 25 71  1  0
 26 72  1  0
 26 73  1  0
 27 74  1  0
 27 75  1  0
 28 76  1  0
 28 77  1  0
 31 78  1  0
 32 79  1  0
 34 80  1  0
 34 81  1  0
 36 82  1  0
 36 83  1  0
 37 84  1  0
 37 85  1  0
 38 86  1  0
 38 87  1  0
 39 88  1  0
 39 89  1  0
 40 90  1  0
 40 91  1  0
 41 92  1  0
 42 93  1  0
 43 94  1  0
 43 95  1  0
M  END
$$$$
