
     RDKit          3D

 24 23  0  0  0  0  0  0  0  0999 V2000
   -1.4893   -0.3963   -1.3708 C   0  0  0  0  0  0  0  0  0  0  0  0
   -1.0581    0.0015    0.0264 C   0  0  1  0  0  0  0  0  0  0  0  0
   -1.9406   -0.8104    0.8531 O   0  0  0  0  0  0  0  0  0  0  0  0
    0.2831   -0.4678    0.3974 C   0  0  2  0  0  0  0  0  0  0  0  0
    1.4773   -0.0940   -0.3657 C   0  0  0  0  0  0  0  0  0  0  0  0
    1.8621    1.3237   -0.4489 C   0  0  0  0  0  0  0  0  0  0  0  0
    2.9724    1.4522   -1.2630 O   0  0  0  0  0  0  0  0  0  0  0  0
    1.6704    2.5320   -0.1298 O   0  0  0  0  0  0  0  0  0  0  0  0
    0.2601   -1.9712    0.5548 C   0  0  0  0  0  0  0  0  0  0  0  0
    1.3683   -2.7225    0.8955 O   0  0  0  0  0  0  0  0  0  0  0  0
   -0.8117   -2.6138    0.3735 O   0  0  0  0  0  0  0  0  0  0  0  0
   -1.4468    1.3757    0.3205 C   0  0  0  0  0  0  0  0  0  0  0  0
   -2.2748    1.8961    1.3291 O   0  0  0  0  0  0  0  0  0  0  0  0
   -1.2524    2.5594   -0.1229 O   0  0  0  0  0  0  0  0  0  0  0  0
   -1.2721   -1.4519   -1.5971 H   0  0  0  0  0  0  0  0  0  0  0  0
   -2.5942   -0.2564   -1.3815 H   0  0  0  0  0  0  0  0  0  0  0  0
   -1.0891    0.2924   -2.1386 H   0  0  0  0  0  0  0  0  0  0  0  0
   -1.8317   -0.4819    1.7804 H   0  0  0  0  0  0  0  0  0  0  0  0
    0.4732   -0.1153    1.4710 H   0  0  0  0  0  0  0  0  0  0  0  0
    1.4276   -0.4857   -1.4409 H   0  0  0  0  0  0  0  0  0  0  0  0
    2.3808   -0.6669    0.0298 H   0  0  0  0  0  0  0  0  0  0  0  0
    3.6193    2.2159   -1.3506 H   0  0  0  0  0  0  0  0  0  0  0  0
    1.2019   -3.5509    1.4567 H   0  0  0  0  0  0  0  0  0  0  0  0
   -1.9355    2.4362    2.1214 H   0  0  0  0  0  0  0  0  0  0  0  0
  1  2  1  0
  2  3  1  1
  2  4  1  0
  4  5  1  0
  5  6  1  0
  6  7  1  0
  6  8  2  0
  4  9  1  0
  9 10  1  0
  9 11  2  0
  2 12  1  0
 12 13  1  0
 12 14  2  0
  1 15  1  0
  1 16  1  0
  1 17  1  0
  3 18  1  0
  4 19  1  1
  5 20  1  0
  5 21  1  0
  7 22  1  0
 10 23  1  0
 13 24  1  0
M  END
$$$$
