
     RDKit          3D

 68 72  0  0  0  0  0  0  0  0999 V2000
    5.2281    4.1733    2.9292 C   0  0  0  0  0  0  0  0  0  0  0  0
    4.4822    3.1014    2.3799 O   0  0  0  0  0  0  0  0  0  0  0  0
    5.0687    1.8490    2.3255 C   0  0  0  0  0  0  0  0  0  0  0  0
    6.3395    1.6074    2.7813 C   0  0  0  0  0  0  0  0  0  0  0  0
    6.9359    0.3581    2.7315 C   0  0  0  0  0  0  0  0  0  0  0  0
    6.1996   -0.6724    2.1956 C   0  0  0  0  0  0  0  0  0  0  0  0
    4.9205   -0.4689    1.7278 C   0  0  0  0  0  0  0  0  0  0  0  0
    4.3462    0.8055    1.7923 C   0  0  0  0  0  0  0  0  0  0  0  0
    2.9930    1.0309    1.2995 C   0  0  0  0  0  0  0  0  0  0  0  0
    2.4959    2.1973    1.3696 O   0  0  0  0  0  0  0  0  0  0  0  0
    2.2028   -0.0642    0.7272 C   0  0  0  0  0  0  0  0  0  0  0  0
    0.9220    0.1610    0.2636 C   0  0  0  0  0  0  0  0  0  0  0  0
    0.3234    1.4139    0.3129 O   0  0  0  0  0  0  0  0  0  0  0  0
    0.2199   -0.8919   -0.2634 C   0  0  0  0  0  0  0  0  0  0  0  0
    0.7792   -2.1759   -0.3358 C   0  0  0  0  0  0  0  0  0  0  0  0
    2.0514   -2.4017    0.1240 C   0  0  0  0  0  0  0  0  0  0  0  0
    2.5957   -3.6803    0.0466 O   0  0  0  0  0  0  0  0  0  0  0  0
    2.7478   -1.3340    0.6520 C   0  0  0  0  0  0  0  0  0  0  0  0
    4.1128   -1.5367    1.1547 C   0  0  0  0  0  0  0  0  0  0  0  0
    4.6000   -2.7003    1.0808 O   0  0  0  0  0  0  0  0  0  0  0  0
   -0.0714   -3.2445   -0.9214 C   0  0  0  0  0  0  0  0  0  0  0  0
   -0.6199   -2.7693   -2.2626 C   0  0  1  0  0  0  0  0  0  0  0  0
    0.4461   -2.9299   -3.1597 O   0  0  0  0  0  0  0  0  0  0  0  0
   -1.7263   -3.6366   -2.7246 C   0  0  0  0  0  0  0  0  0  0  0  0
   -2.7636   -3.6713   -2.1019 O   0  0  0  0  0  0  0  0  0  0  0  0
   -1.5858   -4.4643   -3.9378 C   0  0  0  0  0  0  0  0  0  0  0  0
   -2.7587   -5.1996   -4.1727 O   0  0  0  0  0  0  0  0  0  0  0  0
   -1.0455   -1.3235   -2.2385 C   0  0  0  0  0  0  0  0  0  0  0  0
   -1.1586   -0.8013   -0.8015 C   0  0  2  0  0  0  0  0  0  0  0  0
   -1.7513    0.4091   -0.7201 O   0  0  0  0  0  0  0  0  0  0  0  0
   -2.9496    0.4472   -0.0387 C   0  0  1  0  0  0  0  0  0  0  0  0
   -2.9781    1.4528    1.0911 C   0  0  0  0  0  0  0  0  0  0  0  0
   -4.3225    2.1950    1.0971 C   0  0  2  0  0  0  0  0  0  0  0  0
   -5.3748    1.2035    1.0238 N   0  0  0  0  0  0  0  0  0  0  0  0
   -4.3147    3.0555   -0.1533 C   0  0  2  0  0  0  0  0  0  0  0  0
   -5.5846    3.4839   -0.5127 O   0  0  0  0  0  0  0  0  0  0  0  0
   -3.6898    2.2245   -1.2553 C   0  0  2  0  0  0  0  0  0  0  0  0
   -4.2832    2.6518   -2.5588 C   0  0  0  0  0  0  0  0  0  0  0  0
   -3.9204    0.8770   -0.9667 O   0  0  0  0  0  0  0  0  0  0  0  0
    4.5978    5.0900    3.0032 H   0  0  0  0  0  0  0  0  0  0  0  0
    5.6232    3.8631    3.9326 H   0  0  0  0  0  0  0  0  0  0  0  0
    6.1074    4.4306    2.3256 H   0  0  0  0  0  0  0  0  0  0  0  0
    6.9336    2.4232    3.2103 H   0  0  0  0  0  0  0  0  0  0  0  0
    7.9572    0.2047    3.1071 H   0  0  0  0  0  0  0  0  0  0  0  0
    6.6557   -1.6490    2.1524 H   0  0  0  0  0  0  0  0  0  0  0  0
    0.1673    1.8816    1.2123 H   0  0  0  0  0  0  0  0  0  0  0  0
    2.8158   -4.2442    0.8440 H   0  0  0  0  0  0  0  0  0  0  0  0
    0.5346   -4.1440   -1.0178 H   0  0  0  0  0  0  0  0  0  0  0  0
   -0.9408   -3.4305   -0.2355 H   0  0  0  0  0  0  0  0  0  0  0  0
    0.6441   -3.9107   -3.1779 H   0  0  0  0  0  0  0  0  0  0  0  0
   -0.7632   -5.2027   -3.8897 H   0  0  0  0  0  0  0  0  0  0  0  0
   -1.4008   -3.8589   -4.8518 H   0  0  0  0  0  0  0  0  0  0  0  0
   -3.4301   -4.9331   -3.4915 H   0  0  0  0  0  0  0  0  0  0  0  0
   -0.2267   -0.7311   -2.6927 H   0  0  0  0  0  0  0  0  0  0  0  0
   -2.0087   -1.2439   -2.7670 H   0  0  0  0  0  0  0  0  0  0  0  0
   -1.7758   -1.5596   -0.2778 H   0  0  0  0  0  0  0  0  0  0  0  0
   -3.2550   -0.5460    0.3488 H   0  0  0  0  0  0  0  0  0  0  0  0
   -2.2101    2.2330    0.9940 H   0  0  0  0  0  0  0  0  0  0  0  0
   -2.9029    0.9731    2.0868 H   0  0  0  0  0  0  0  0  0  0  0  0
   -4.3934    2.7814    2.0125 H   0  0  0  0  0  0  0  0  0  0  0  0
   -5.8245    1.0148    1.9380 H   0  0  0  0  0  0  0  0  0  0  0  0
   -6.1092    1.4806    0.3096 H   0  0  0  0  0  0  0  0  0  0  0  0
   -3.6998    3.9629    0.0574 H   0  0  0  0  0  0  0  0  0  0  0  0
   -6.1622    3.6661    0.2650 H   0  0  0  0  0  0  0  0  0  0  0  0
   -2.6011    2.4433   -1.2363 H   0  0  0  0  0  0  0  0  0  0  0  0
   -4.4189    1.7593   -3.2074 H   0  0  0  0  0  0  0  0  0  0  0  0
   -3.7227    3.4670   -3.0532 H   0  0  0  0  0  0  0  0  0  0  0  0
   -5.3029    3.0475   -2.3656 H   0  0  0  0  0  0  0  0  0  0  0  0
  1  2  1  0
  2  3  1  0
  3  4  2  0
  4  5  1  0
  5  6  2  0
  6  7  1  0
  7  8  2  0
  8  9  1  0
  9 10  2  0
  9 11  1  0
 11 12  2  0
 12 13  1  0
 12 14  1  0
 14 15  2  0
 15 16  1  0
 16 17  1  0
 16 18  2  0
 18 19  1  0
 19 20  2  0
 15 21  1  0
 21 22  1  0
 22 23  1  6
 22 24  1  0
 24 25  2  0
 24 26  1  0
 26 27  1  0
 22 28  1  0
 28 29  1  0
 29 30  1  0
 30 31  1  0
 31 32  1  0
 32 33  1  0
 33 34  1  0
 33 35  1  0
 35 36  1  0
 35 37  1  0
 37 38  1  0
 37 39  1  0
  8  3  1  0
 18 11  1  0
 39 31  1  0
 19  7  1  0
 29 14  1  0
  1 40  1  0
  1 41  1  0
  1 42  1  0
  4 43  1  0
  5 44  1  0
  6 45  1  0
 13 46  1  0
 17 47  1  0
 21 48  1  0
 21 49  1  0
 23 50  1  0
 26 51  1  0
 26 52  1  0
 27 53  1  0
 28 54  1  0
 28 55  1  0
 29 56  1  1
 31 57  1  1
 32 58  1  0
 32 59  1  0
 33 60  1  1
 34 61  1  0
 34 62  1  0
 35 63  1  1
 36 64  1  0
 37 65  1  6
 38 66  1  0
 38 67  1  0
 38 68  1  0
M  END
$$$$
