
     RDKit          3D

 68 71  0  0  0  0  0  0  0  0999 V2000
    7.4339    1.2573   -2.8198 C   0  0  0  0  0  0  0  0  0  0  0  0
    6.7432    2.2382   -1.9016 C   0  0  0  0  0  0  0  0  0  0  0  0
    6.5199    1.6554   -0.5979 N   0  0  0  0  0  0  0  0  0  0  0  0
    5.3926    1.0056   -0.3885 N   0  0  0  0  0  0  0  0  0  0  0  0
    5.1036    0.4236    0.8092 C   0  0  0  0  0  0  0  0  0  0  0  0
    3.8534   -0.2879    1.0150 C   0  0  0  0  0  0  0  0  0  0  0  0
    2.9507   -0.3656   -0.0271 C   0  0  0  0  0  0  0  0  0  0  0  0
    1.7275   -1.0431    0.0975 C   0  0  0  0  0  0  0  0  0  0  0  0
    1.3777   -1.6599    1.2683 C   0  0  0  0  0  0  0  0  0  0  0  0
    0.1076   -2.4217    1.4946 C   0  0  2  0  0  0  0  0  0  0  0  0
    0.2905   -3.7999    0.9214 C   0  0  0  0  0  0  0  0  0  0  0  0
   -1.0606   -1.8196    0.9306 N   0  0  0  0  0  0  0  0  0  0  0  0
   -2.0727   -1.2558    1.7610 C   0  0  0  0  0  0  0  0  0  0  0  0
   -2.7699   -0.0375    1.1985 C   0  0  0  0  0  0  0  0  0  0  0  0
   -2.9539    0.0221   -0.2525 C   0  0  2  0  0  0  0  0  0  0  0  0
   -3.0434    1.3872   -0.8720 C   0  0  0  0  0  0  0  0  0  0  0  0
   -4.0994    2.3102   -0.5053 C   0  0  0  0  0  0  0  0  0  0  0  0
   -4.1570    2.7225    0.9394 C   0  0  0  0  0  0  0  0  0  0  0  0
   -3.8777    3.6201   -1.2957 C   0  0  0  0  0  0  0  0  0  0  0  0
   -5.3932    1.9390   -0.8615 O   0  0  0  0  0  0  0  0  0  0  0  0
   -4.1042   -0.8062   -0.6920 C   0  0  0  0  0  0  0  0  0  0  0  0
   -4.3885   -0.9757   -2.0550 C   0  0  0  0  0  0  0  0  0  0  0  0
   -5.4476   -1.7251   -2.5043 C   0  0  0  0  0  0  0  0  0  0  0  0
   -6.2771   -2.3440   -1.5908 C   0  0  0  0  0  0  0  0  0  0  0  0
   -6.0285   -2.1993   -0.2503 C   0  0  0  0  0  0  0  0  0  0  0  0
   -4.9367   -1.4259    0.1820 C   0  0  0  0  0  0  0  0  0  0  0  0
   -1.8201   -0.5719   -0.9326 O   0  0  0  0  0  0  0  0  0  0  0  0
   -1.2449   -1.7588   -0.4695 C   0  0  0  0  0  0  0  0  0  0  0  0
   -0.9101   -2.7170   -1.2319 O   0  0  0  0  0  0  0  0  0  0  0  0
    2.3012   -1.5727    2.3144 C   0  0  0  0  0  0  0  0  0  0  0  0
    3.5076   -0.9027    2.1870 C   0  0  0  0  0  0  0  0  0  0  0  0
    6.0470    0.5449    1.7983 C   0  0  0  0  0  0  0  0  0  0  0  0
    7.2453    1.2362    1.5750 C   0  0  0  0  0  0  0  0  0  0  0  0
    7.4655    1.7914    0.3541 C   0  0  0  0  0  0  0  0  0  0  0  0
    8.5228    2.4353    0.0639 O   0  0  0  0  0  0  0  0  0  0  0  0
    8.5232    1.2270   -2.7031 H   0  0  0  0  0  0  0  0  0  0  0  0
    6.9757    0.2383   -2.7320 H   0  0  0  0  0  0  0  0  0  0  0  0
    7.2370    1.5729   -3.8729 H   0  0  0  0  0  0  0  0  0  0  0  0
    5.7586    2.4774   -2.3659 H   0  0  0  0  0  0  0  0  0  0  0  0
    7.3365    3.1611   -1.8711 H   0  0  0  0  0  0  0  0  0  0  0  0
    3.2059    0.1154   -0.9651 H   0  0  0  0  0  0  0  0  0  0  0  0
    1.0720   -1.0642   -0.7382 H   0  0  0  0  0  0  0  0  0  0  0  0
    0.0164   -2.4354    2.6318 H   0  0  0  0  0  0  0  0  0  0  0  0
   -0.7412   -4.1758    0.6672 H   0  0  0  0  0  0  0  0  0  0  0  0
    0.8356   -3.7036   -0.0293 H   0  0  0  0  0  0  0  0  0  0  0  0
    0.7911   -4.4914    1.6287 H   0  0  0  0  0  0  0  0  0  0  0  0
   -1.5644   -0.9822    2.7391 H   0  0  0  0  0  0  0  0  0  0  0  0
   -2.7530   -2.0778    2.0548 H   0  0  0  0  0  0  0  0  0  0  0  0
   -2.0432    0.8094    1.4640 H   0  0  0  0  0  0  0  0  0  0  0  0
   -3.6601    0.1207    1.8308 H   0  0  0  0  0  0  0  0  0  0  0  0
   -2.0565    1.9360   -0.7537 H   0  0  0  0  0  0  0  0  0  0  0  0
   -3.0712    1.2149   -1.9909 H   0  0  0  0  0  0  0  0  0  0  0  0
   -4.8873    2.1004    1.5351 H   0  0  0  0  0  0  0  0  0  0  0  0
   -3.1813    2.8430    1.4310 H   0  0  0  0  0  0  0  0  0  0  0  0
   -4.6249    3.7613    1.0364 H   0  0  0  0  0  0  0  0  0  0  0  0
   -2.7904    3.7255   -1.4642 H   0  0  0  0  0  0  0  0  0  0  0  0
   -4.3193    4.4681   -0.7598 H   0  0  0  0  0  0  0  0  0  0  0  0
   -4.3326    3.4862   -2.3176 H   0  0  0  0  0  0  0  0  0  0  0  0
   -5.8960    1.5397   -0.1220 H   0  0  0  0  0  0  0  0  0  0  0  0
   -3.7607   -0.5084   -2.7954 H   0  0  0  0  0  0  0  0  0  0  0  0
   -5.6407   -1.8360   -3.5655 H   0  0  0  0  0  0  0  0  0  0  0  0
   -7.1139   -2.9368   -1.9309 H   0  0  0  0  0  0  0  0  0  0  0  0
   -6.6696   -2.6786    0.4738 H   0  0  0  0  0  0  0  0  0  0  0  0
   -4.8147   -1.3571    1.2313 H   0  0  0  0  0  0  0  0  0  0  0  0
    2.0619   -2.0421    3.2411 H   0  0  0  0  0  0  0  0  0  0  0  0
    4.2005   -0.8621    3.0423 H   0  0  0  0  0  0  0  0  0  0  0  0
    5.9139    0.1175    2.7886 H   0  0  0  0  0  0  0  0  0  0  0  0
    7.9882    1.3382    2.3358 H   0  0  0  0  0  0  0  0  0  0  0  0
  1  2  1  0
  2  3  1  0
  3  4  1  0
  4  5  2  0
  5  6  1  0
  6  7  2  0
  7  8  1  0
  8  9  2  0
  9 10  1  0
 10 11  1  0
 10 12  1  0
 12 13  1  0
 13 14  1  0
 14 15  1  0
 15 16  1  6
 16 17  1  0
 17 18  1  0
 17 19  1  0
 17 20  1  0
 15 21  1  0
 21 22  2  0
 22 23  1  0
 23 24  2  0
 24 25  1  0
 25 26  2  0
 15 27  1  0
 27 28  1  0
 28 29  2  0
  9 30  1  0
 30 31  2  0
  5 32  1  0
 32 33  2  0
 33 34  1  0
 34 35  2  0
 34  3  1  0
 31  6  1  0
 28 12  1  0
 26 21  1  0
  1 36  1  0
  1 37  1  0
  1 38  1  0
  2 39  1  0
  2 40  1  0
  7 41  1  0
  8 42  1  0
 10 43  1  1
 11 44  1  0
 11 45  1  0
 11 46  1  0
 13 47  1  0
 13 48  1  0
 14 49  1  0
 14 50  1  0
 16 51  1  0
 16 52  1  0
 18 53  1  0
 18 54  1  0
 18 55  1  0
 19 56  1  0
 19 57  1  0
 19 58  1  0
 20 59  1  0
 22 60  1  0
 23 61  1  0
 24 62  1  0
 25 63  1  0
 26 64  1  0
 30 65  1  0
 31 66  1  0
 32 67  1  0
 33 68  1  0
M  END
$$$$
