
     RDKit          3D

 63 64  0  0  0  0  0  0  0  0999 V2000
   -4.2376   -0.5965   -1.4012 C   0  0  1  0  0  0  0  0  0  0  0  0
   -3.1162   -1.5019   -1.6355 N   0  0  0  0  0  0  0  0  0  0  0  0
   -5.4872   -1.3802   -1.1185 C   0  0  0  0  0  0  0  0  0  0  0  0
   -6.6899   -0.5976   -0.8637 C   0  0  0  0  0  0  0  0  0  0  0  0
   -7.3871   -0.2631   -2.0205 C   0  0  0  0  0  0  0  0  0  0  0  0
   -8.5653    0.4715   -1.9492 C   0  0  0  0  0  0  0  0  0  0  0  0
   -9.0991    0.9017   -0.7519 C   0  0  0  0  0  0  0  0  0  0  0  0
   -8.3922    0.5607    0.4002 C   0  0  0  0  0  0  0  0  0  0  0  0
   -7.2392   -0.1597    0.3123 C   0  0  0  0  0  0  0  0  0  0  0  0
   -3.9668    0.2988   -0.2492 C   0  0  0  0  0  0  0  0  0  0  0  0
   -4.9060    1.1666   -0.1415 O   0  0  0  0  0  0  0  0  0  0  0  0
   -2.8761    0.3179    0.6864 N   0  0  0  0  0  0  0  0  0  0  0  0
   -3.1347    1.4040    1.5922 C   0  0  0  0  0  0  0  0  0  0  0  0
   -2.0868    1.5505    2.6349 C   0  0  0  0  0  0  0  0  0  0  0  0
   -1.8535    0.5352    3.4836 O   0  0  0  0  0  0  0  0  0  0  0  0
   -1.3765   -0.6564    3.0652 C   0  0  0  0  0  0  0  0  0  0  0  0
    0.0133   -0.6166    2.4414 C   0  0  0  0  0  0  0  0  0  0  0  0
    0.1457    0.1634    1.3503 O   0  0  0  0  0  0  0  0  0  0  0  0
    1.3420    0.2380    0.7097 C   0  0  0  0  0  0  0  0  0  0  0  0
    2.4169    0.7600    1.5986 C   0  0  0  0  0  0  0  0  0  0  0  0
    3.7055    0.8502    0.9067 N   0  0  0  0  0  0  0  0  0  0  0  0
    4.3751   -0.2654    0.3358 C   0  0  0  0  0  0  0  0  0  0  0  0
    3.8479   -1.3893    0.4220 O   0  0  0  0  0  0  0  0  0  0  0  0
    5.6555   -0.1763   -0.3529 C   0  0  0  0  0  0  0  0  0  0  0  0
    6.1923   -1.3397   -0.8608 C   0  0  0  0  0  0  0  0  0  0  0  0
    7.4088   -1.3931   -1.5404 C   0  0  0  0  0  0  0  0  0  0  0  0
    8.1328   -0.2359   -1.7278 C   0  0  0  0  0  0  0  0  0  0  0  0
    7.6014    0.9311   -1.2221 C   0  0  0  0  0  0  0  0  0  0  0  0
    6.3890    0.9698   -0.5474 C   0  0  0  0  0  0  0  0  0  0  0  0
    9.6686   -0.1541   -2.5586 S   0  0  0  0  0  0  0  0  0  0  0  0
   10.9836   -0.3814   -1.4414 N   0  0  0  0  0  0  0  0  0  0  0  0
    9.8072    1.1429   -3.2689 O   0  0  0  0  0  0  0  0  0  0  0  0
    9.7258   -1.2515   -3.6100 O   0  0  0  0  0  0  0  0  0  0  0  0
   -4.3731   -0.0316   -2.3410 H   0  0  0  0  0  0  0  0  0  0  0  0
   -2.4388   -1.0856   -2.3403 H   0  0  0  0  0  0  0  0  0  0  0  0
   -3.4137   -2.4644   -1.8829 H   0  0  0  0  0  0  0  0  0  0  0  0
   -5.6215   -2.0988   -1.9775 H   0  0  0  0  0  0  0  0  0  0  0  0
   -5.3370   -2.0497   -0.2201 H   0  0  0  0  0  0  0  0  0  0  0  0
   -7.1109   -0.5191   -3.0401 H   0  0  0  0  0  0  0  0  0  0  0  0
   -9.1412    0.7533   -2.8387 H   0  0  0  0  0  0  0  0  0  0  0  0
   -9.9997    1.4677   -0.6446 H   0  0  0  0  0  0  0  0  0  0  0  0
   -8.7487    0.8622    1.3695 H   0  0  0  0  0  0  0  0  0  0  0  0
   -6.6718   -0.4409    1.1903 H   0  0  0  0  0  0  0  0  0  0  0  0
   -2.2939   -0.4790    0.3477 H   0  0  0  0  0  0  0  0  0  0  0  0
   -3.1608    2.3486    0.9647 H   0  0  0  0  0  0  0  0  0  0  0  0
   -4.1635    1.3433    2.0263 H   0  0  0  0  0  0  0  0  0  0  0  0
   -1.1702    1.9464    2.1241 H   0  0  0  0  0  0  0  0  0  0  0  0
   -2.4064    2.4390    3.2737 H   0  0  0  0  0  0  0  0  0  0  0  0
   -1.1953   -1.2620    4.0238 H   0  0  0  0  0  0  0  0  0  0  0  0
   -2.0709   -1.3159    2.5076 H   0  0  0  0  0  0  0  0  0  0  0  0
    0.7486   -0.2755    3.2302 H   0  0  0  0  0  0  0  0  0  0  0  0
    0.2641   -1.6999    2.2446 H   0  0  0  0  0  0  0  0  0  0  0  0
    1.2244    0.9885   -0.1316 H   0  0  0  0  0  0  0  0  0  0  0  0
    1.6281   -0.7248    0.2051 H   0  0  0  0  0  0  0  0  0  0  0  0
    2.5264    0.0442    2.4669 H   0  0  0  0  0  0  0  0  0  0  0  0
    2.1590    1.7864    1.9186 H   0  0  0  0  0  0  0  0  0  0  0  0
    4.2060    1.7617    0.7973 H   0  0  0  0  0  0  0  0  0  0  0  0
    5.7076   -2.3172   -0.7725 H   0  0  0  0  0  0  0  0  0  0  0  0
    7.8162   -2.3142   -1.9329 H   0  0  0  0  0  0  0  0  0  0  0  0
    8.0947    1.8813   -1.3202 H   0  0  0  0  0  0  0  0  0  0  0  0
    5.9894    1.8943   -0.1584 H   0  0  0  0  0  0  0  0  0  0  0  0
   11.1198    0.4948   -0.8881 H   0  0  0  0  0  0  0  0  0  0  0  0
   10.8362   -1.2313   -0.8791 H   0  0  0  0  0  0  0  0  0  0  0  0
  1  2  1  0
  1  3  1  0
  3  4  1  0
  4  5  2  0
  5  6  1  0
  6  7  2  0
  7  8  1  0
  8  9  2  0
  1 10  1  0
 10 11  2  0
 10 12  1  0
 12 13  1  0
 13 14  1  0
 14 15  1  0
 15 16  1  0
 16 17  1  0
 17 18  1  0
 18 19  1  0
 19 20  1  0
 20 21  1  0
 21 22  1  0
 22 23  2  0
 22 24  1  0
 24 25  2  0
 25 26  1  0
 26 27  2  0
 27 28  1  0
 28 29  2  0
 27 30  1  0
 30 31  1  0
 30 32  2  0
 30 33  2  0
  9  4  1  0
 29 24  1  0
  1 34  1  6
  2 35  1  0
  2 36  1  0
  3 37  1  0
  3 38  1  0
  5 39  1  0
  6 40  1  0
  7 41  1  0
  8 42  1  0
  9 43  1  0
 12 44  1  0
 13 45  1  0
 13 46  1  0
 14 47  1  0
 14 48  1  0
 16 49  1  0
 16 50  1  0
 17 51  1  0
 17 52  1  0
 19 53  1  0
 19 54  1  0
 20 55  1  0
 20 56  1  0
 21 57  1  0
 25 58  1  0
 26 59  1  0
 28 60  1  0
 29 61  1  0
 31 62  1  0
 31 63  1  0
M  END
$$$$
