
     RDKit          3D

 72 75  0  0  0  0  0  0  0  0999 V2000
    7.8795    2.5664   -0.3116 C   0  0  0  0  0  0  0  0  0  0  0  0
    6.9028    2.1263    0.7332 C   0  0  0  0  0  0  0  0  0  0  0  0
    7.4732    2.2636    2.1296 C   0  0  0  0  0  0  0  0  0  0  0  0
    6.5245    0.7468    0.4685 N   0  0  0  0  0  0  0  0  0  0  0  0
    5.2373    0.3679    0.4614 C   0  0  0  0  0  0  0  0  0  0  0  0
    4.8789   -0.9343    0.2137 C   0  0  0  0  0  0  0  0  0  0  0  0
    3.4731   -1.3665    0.2026 C   0  0  0  0  0  0  0  0  0  0  0  0
    3.0879   -2.4024   -0.6222 C   0  0  0  0  0  0  0  0  0  0  0  0
    1.7752   -2.8401   -0.6578 C   0  0  0  0  0  0  0  0  0  0  0  0
    0.7999   -2.2606    0.1272 C   0  0  0  0  0  0  0  0  0  0  0  0
   -0.6038   -2.7427    0.0856 C   0  0  2  0  0  0  0  0  0  0  0  0
   -0.8406   -3.7441   -0.9976 C   0  0  0  0  0  0  0  0  0  0  0  0
   -1.5198   -1.6323    0.0144 N   0  0  0  0  0  0  0  0  0  0  0  0
   -1.5510   -0.7007   -1.1146 C   0  0  0  0  0  0  0  0  0  0  0  0
   -2.9647   -0.6802   -1.5963 C   0  0  0  0  0  0  0  0  0  0  0  0
   -3.8926   -0.0436   -0.5509 C   0  0  2  0  0  0  0  0  0  0  0  0
   -5.2446   -0.6000   -0.8016 C   0  0  0  0  0  0  0  0  0  0  0  0
   -6.3464   -0.1765    0.0890 C   0  0  0  0  0  0  0  0  0  0  0  0
   -6.0962   -0.5189    1.5489 C   0  0  0  0  0  0  0  0  0  0  0  0
   -6.8347    1.2270   -0.0599 C   0  0  0  0  0  0  0  0  0  0  0  0
   -7.4627   -0.9958   -0.2607 O   0  0  0  0  0  0  0  0  0  0  0  0
   -3.7573    1.4162   -0.7631 C   0  0  0  0  0  0  0  0  0  0  0  0
   -4.4166    2.1109   -1.7508 C   0  0  0  0  0  0  0  0  0  0  0  0
   -4.2947    3.4607   -1.9457 C   0  0  0  0  0  0  0  0  0  0  0  0
   -3.4777    4.1920   -1.1284 C   0  0  0  0  0  0  0  0  0  0  0  0
   -2.7953    3.5483   -0.1251 C   0  0  0  0  0  0  0  0  0  0  0  0
   -2.9285    2.1957    0.0566 C   0  0  0  0  0  0  0  0  0  0  0  0
   -3.4196   -0.3024    0.7597 O   0  0  0  0  0  0  0  0  0  0  0  0
   -2.4899   -1.3288    1.0248 C   0  0  0  0  0  0  0  0  0  0  0  0
   -2.4704   -1.9828    2.0911 O   0  0  0  0  0  0  0  0  0  0  0  0
    1.1785   -1.2250    0.9528 C   0  0  0  0  0  0  0  0  0  0  0  0
    2.4964   -0.7906    0.9843 C   0  0  0  0  0  0  0  0  0  0  0  0
    5.8941   -1.8443   -0.0290 C   0  0  0  0  0  0  0  0  0  0  0  0
    7.2132   -1.4686   -0.0244 C   0  0  0  0  0  0  0  0  0  0  0  0
    7.5050   -0.1490    0.2306 C   0  0  0  0  0  0  0  0  0  0  0  0
    8.6974    0.2410    0.2452 O   0  0  0  0  0  0  0  0  0  0  0  0
    7.6497    3.6282   -0.6191 H   0  0  0  0  0  0  0  0  0  0  0  0
    8.9320    2.5566    0.0929 H   0  0  0  0  0  0  0  0  0  0  0  0
    7.7855    1.9394   -1.2137 H   0  0  0  0  0  0  0  0  0  0  0  0
    6.0127    2.7827    0.6770 H   0  0  0  0  0  0  0  0  0  0  0  0
    8.0608    1.3710    2.4361 H   0  0  0  0  0  0  0  0  0  0  0  0
    6.6172    2.4251    2.8245 H   0  0  0  0  0  0  0  0  0  0  0  0
    8.1049    3.1715    2.1891 H   0  0  0  0  0  0  0  0  0  0  0  0
    4.4223    1.0762    0.6514 H   0  0  0  0  0  0  0  0  0  0  0  0
    3.8364   -2.8733   -1.2485 H   0  0  0  0  0  0  0  0  0  0  0  0
    1.4583   -3.6543   -1.3013 H   0  0  0  0  0  0  0  0  0  0  0  0
   -0.8435   -3.2608    1.0630 H   0  0  0  0  0  0  0  0  0  0  0  0
   -0.4999   -4.7558   -0.7081 H   0  0  0  0  0  0  0  0  0  0  0  0
   -0.4537   -3.4298   -1.9867 H   0  0  0  0  0  0  0  0  0  0  0  0
   -1.9585   -3.8127   -1.1359 H   0  0  0  0  0  0  0  0  0  0  0  0
   -1.2624    0.2886   -0.7298 H   0  0  0  0  0  0  0  0  0  0  0  0
   -0.8689   -1.0364   -1.9236 H   0  0  0  0  0  0  0  0  0  0  0  0
   -3.2970   -1.7071   -1.8139 H   0  0  0  0  0  0  0  0  0  0  0  0
   -3.0579   -0.1033   -2.5328 H   0  0  0  0  0  0  0  0  0  0  0  0
   -5.2432   -1.7335   -0.7917 H   0  0  0  0  0  0  0  0  0  0  0  0
   -5.5307   -0.3523   -1.8452 H   0  0  0  0  0  0  0  0  0  0  0  0
   -5.5126    0.2675    2.0679 H   0  0  0  0  0  0  0  0  0  0  0  0
   -7.0863   -0.5529    2.0552 H   0  0  0  0  0  0  0  0  0  0  0  0
   -5.6481   -1.5175    1.6341 H   0  0  0  0  0  0  0  0  0  0  0  0
   -6.2235    1.9959    0.4567 H   0  0  0  0  0  0  0  0  0  0  0  0
   -7.1117    1.4580   -1.0901 H   0  0  0  0  0  0  0  0  0  0  0  0
   -7.8261    1.2553    0.5046 H   0  0  0  0  0  0  0  0  0  0  0  0
   -7.0779   -1.9273   -0.2070 H   0  0  0  0  0  0  0  0  0  0  0  0
   -5.0776    1.5325   -2.4156 H   0  0  0  0  0  0  0  0  0  0  0  0
   -4.8360    3.9407   -2.7331 H   0  0  0  0  0  0  0  0  0  0  0  0
   -3.3703    5.2718   -1.2723 H   0  0  0  0  0  0  0  0  0  0  0  0
   -2.1544    4.1323    0.5115 H   0  0  0  0  0  0  0  0  0  0  0  0
   -2.4039    1.6709    0.8404 H   0  0  0  0  0  0  0  0  0  0  0  0
    0.4230   -0.7520    1.5813 H   0  0  0  0  0  0  0  0  0  0  0  0
    2.8096    0.0239    1.6299 H   0  0  0  0  0  0  0  0  0  0  0  0
    5.5967   -2.8649   -0.2221 H   0  0  0  0  0  0  0  0  0  0  0  0
    8.0254   -2.1869   -0.2167 H   0  0  0  0  0  0  0  0  0  0  0  0
  1  2  1  0
  2  3  1  0
  2  4  1  0
  4  5  1  0
  5  6  2  0
  6  7  1  0
  7  8  2  0
  8  9  1  0
  9 10  2  0
 10 11  1  0
 11 12  1  0
 11 13  1  0
 13 14  1  0
 14 15  1  0
 15 16  1  0
 16 17  1  1
 17 18  1  0
 18 19  1  0
 18 20  1  0
 18 21  1  0
 16 22  1  0
 22 23  2  0
 23 24  1  0
 24 25  2  0
 25 26  1  0
 26 27  2  0
 16 28  1  0
 28 29  1  0
 29 30  2  0
 10 31  1  0
 31 32  2  0
  6 33  1  0
 33 34  2  0
 34 35  1  0
 35 36  2  0
 35  4  1  0
 32  7  1  0
 29 13  1  0
 27 22  1  0
  1 37  1  0
  1 38  1  0
  1 39  1  0
  2 40  1  0
  3 41  1  0
  3 42  1  0
  3 43  1  0
  5 44  1  0
  8 45  1  0
  9 46  1  0
 11 47  1  1
 12 48  1  0
 12 49  1  0
 12 50  1  0
 14 51  1  0
 14 52  1  0
 15 53  1  0
 15 54  1  0
 17 55  1  0
 17 56  1  0
 19 57  1  0
 19 58  1  0
 19 59  1  0
 20 60  1  0
 20 61  1  0
 20 62  1  0
 21 63  1  0
 23 64  1  0
 24 65  1  0
 25 66  1  0
 26 67  1  0
 27 68  1  0
 31 69  1  0
 32 70  1  0
 33 71  1  0
 34 72  1  0
M  END
$$$$
