
     RDKit          3D

 61 65  0  0  0  0  0  0  0  0999 V2000
    0.2566    3.2732    2.2748 O   0  0  0  0  0  0  0  0  0  0  0  0
   -0.3643    2.6739    1.3665 C   0  0  0  0  0  0  0  0  0  0  0  0
   -1.5531    3.1573    0.6851 C   0  0  0  0  0  0  0  0  0  0  0  0
   -2.1860    4.2219    0.8457 O   0  0  0  0  0  0  0  0  0  0  0  0
   -1.9367    2.1705   -0.2758 N   0  0  0  0  0  0  0  0  0  0  0  0
   -3.0501    2.1976   -1.1937 C   0  0  0  0  0  0  0  0  0  0  0  0
   -4.2954    1.6392   -0.6496 C   0  0  0  0  0  0  0  0  0  0  0  0
   -4.6403    0.3275   -0.7658 C   0  0  0  0  0  0  0  0  0  0  0  0
   -5.8297   -0.1136   -0.2236 C   0  0  0  0  0  0  0  0  0  0  0  0
   -6.7213    0.6915    0.4438 C   0  0  0  0  0  0  0  0  0  0  0  0
   -7.9168    0.3087    0.9964 O   0  0  0  0  0  0  0  0  0  0  0  0
   -8.5613   -0.8920    1.0214 C   0  0  0  0  0  0  0  0  0  0  0  0
   -8.9879   -1.3322   -0.3560 C   0  0  0  0  0  0  0  0  0  0  0  0
   -9.6272   -2.5630   -0.3081 F   0  0  0  0  0  0  0  0  0  0  0  0
   -6.3216    2.0393    0.5394 C   0  0  0  0  0  0  0  0  0  0  0  0
   -5.1465    2.4906    0.0079 C   0  0  0  0  0  0  0  0  0  0  0  0
   -1.0067    1.0959   -0.1945 C   0  0  0  0  0  0  0  0  0  0  0  0
   -0.8727   -0.1146   -0.8693 C   0  0  0  0  0  0  0  0  0  0  0  0
    0.1450   -1.0008   -0.5938 C   0  0  0  0  0  0  0  0  0  0  0  0
    1.0892   -0.7317    0.3712 C   0  0  0  0  0  0  0  0  0  0  0  0
    2.3833   -1.8568    0.7230 S   0  0  0  0  0  6  0  0  0  0  0  0
    2.7644   -1.6676    2.1805 O   0  0  0  0  0  0  0  0  0  0  0  0
    1.9005   -3.2879    0.6127 O   0  0  0  0  0  0  0  0  0  0  0  0
    3.7737   -1.5924   -0.2118 N   0  0  0  0  0  0  0  0  0  0  0  0
    3.6630   -1.7170   -1.6262 C   0  0  0  0  0  0  0  0  0  0  0  0
    4.9994   -2.4066   -1.6663 C   0  0  0  0  0  0  0  0  0  0  0  0
    4.6992   -2.6681   -0.1874 C   0  0  1  0  0  0  0  0  0  0  0  0
    5.9566   -2.6051    0.6054 C   0  0  0  0  0  0  0  0  0  0  0  0
    6.8431   -1.6366    0.3298 O   0  0  0  0  0  0  0  0  0  0  0  0
    6.9062   -0.3063    0.4200 C   0  0  0  0  0  0  0  0  0  0  0  0
    5.9042    0.4638    0.9476 C   0  0  0  0  0  0  0  0  0  0  0  0
    6.0832    1.8414    0.9810 C   0  0  0  0  0  0  0  0  0  0  0  0
    7.2049    2.4566    0.5163 C   0  0  0  0  0  0  0  0  0  0  0  0
    8.1674    1.6756    0.0076 N   0  0  0  0  0  0  0  0  0  0  0  0
    8.0696    0.3518   -0.0594 C   0  0  0  0  0  0  0  0  0  0  0  0
    0.9618    0.4656    1.0429 C   0  0  0  0  0  0  0  0  0  0  0  0
   -0.0638    1.3701    0.7726 C   0  0  0  0  0  0  0  0  0  0  0  0
   -2.8207    1.6807   -2.1581 H   0  0  0  0  0  0  0  0  0  0  0  0
   -3.2075    3.2717   -1.4650 H   0  0  0  0  0  0  0  0  0  0  0  0
   -3.9865   -0.4007   -1.2891 H   0  0  0  0  0  0  0  0  0  0  0  0
   -6.0649   -1.1752   -0.3082 H   0  0  0  0  0  0  0  0  0  0  0  0
   -9.4460   -0.7984    1.7067 H   0  0  0  0  0  0  0  0  0  0  0  0
   -7.8590   -1.6513    1.4798 H   0  0  0  0  0  0  0  0  0  0  0  0
   -8.1558   -1.2971   -1.0499 H   0  0  0  0  0  0  0  0  0  0  0  0
   -9.7091   -0.5462   -0.7161 H   0  0  0  0  0  0  0  0  0  0  0  0
   -6.9888    2.7157    1.0570 H   0  0  0  0  0  0  0  0  0  0  0  0
   -4.8813    3.5671    0.1135 H   0  0  0  0  0  0  0  0  0  0  0  0
   -1.6257   -0.3131   -1.6312 H   0  0  0  0  0  0  0  0  0  0  0  0
    0.1978   -1.9221   -1.1485 H   0  0  0  0  0  0  0  0  0  0  0  0
    2.8092   -2.2506   -2.0355 H   0  0  0  0  0  0  0  0  0  0  0  0
    3.7628   -0.7000   -2.1034 H   0  0  0  0  0  0  0  0  0  0  0  0
    4.9223   -3.3450   -2.2425 H   0  0  0  0  0  0  0  0  0  0  0  0
    5.8707   -1.7735   -1.8552 H   0  0  0  0  0  0  0  0  0  0  0  0
    4.1889   -3.6599   -0.0375 H   0  0  0  0  0  0  0  0  0  0  0  0
    5.6974   -2.6852    1.7158 H   0  0  0  0  0  0  0  0  0  0  0  0
    6.4787   -3.6151    0.4475 H   0  0  0  0  0  0  0  0  0  0  0  0
    4.9792    0.0418    1.3735 H   0  0  0  0  0  0  0  0  0  0  0  0
    5.2593    2.4280    1.4096 H   0  0  0  0  0  0  0  0  0  0  0  0
    7.3278    3.5509    0.5517 H   0  0  0  0  0  0  0  0  0  0  0  0
    8.8743   -0.2413   -0.4797 H   0  0  0  0  0  0  0  0  0  0  0  0
    1.6870    0.6990    1.8014 H   0  0  0  0  0  0  0  0  0  0  0  0
  1  2  2  0
  2  3  1  0
  3  4  2  0
  3  5  1  0
  5  6  1  0
  6  7  1  0
  7  8  2  0
  8  9  1  0
  9 10  2  0
 10 11  1  0
 11 12  1  0
 12 13  1  0
 13 14  1  0
 10 15  1  0
 15 16  2  0
  5 17  1  0
 17 18  2  0
 18 19  1  0
 19 20  2  0
 20 21  1  0
 21 22  2  0
 21 23  2  0
 21 24  1  0
 24 25  1  0
 25 26  1  0
 26 27  1  0
 27 28  1  0
 28 29  1  0
 29 30  1  0
 30 31  2  0
 31 32  1  0
 32 33  2  0
 33 34  1  0
 34 35  2  0
 20 36  1  0
 36 37  2  0
 37  2  1  0
 16  7  1  0
 37 17  1  0
 27 24  1  0
 35 30  1  0
  6 38  1  0
  6 39  1  0
  8 40  1  0
  9 41  1  0
 12 42  1  0
 12 43  1  0
 13 44  1  0
 13 45  1  0
 15 46  1  0
 16 47  1  0
 18 48  1  0
 19 49  1  0
 25 50  1  0
 25 51  1  0
 26 52  1  0
 26 53  1  0
 27 54  1  6
 28 55  1  0
 28 56  1  0
 31 57  1  0
 32 58  1  0
 33 59  1  0
 35 60  1  0
 36 61  1  0
M  END
$$$$
