
     RDKit          3D

 14 13  0  0  0  0  0  0  0  0999 V2000
    1.3201    0.7543    0.3703 C   0  0  0  0  0  0  0  0  0  0  0  0
    0.8900   -0.6996    0.3223 C   0  0  0  0  0  0  0  0  0  0  0  0
   -0.2790   -0.8956   -0.6335 C   0  0  0  0  0  0  0  0  0  0  0  0
   -1.4385   -0.0869   -0.2071 C   0  0  0  0  0  0  0  0  0  0  0  0
   -1.6053    1.2870   -0.1707 O   0  0  0  0  0  0  0  0  0  0  0  0
   -2.5085   -0.6501    0.2192 O   0  0  0  0  0  0  0  0  0  0  0  0
    1.0473    1.2535    1.3134 H   0  0  0  0  0  0  0  0  0  0  0  0
    0.8984    1.3493   -0.4648 H   0  0  0  0  0  0  0  0  0  0  0  0
    2.4308    0.8493    0.2840 H   0  0  0  0  0  0  0  0  0  0  0  0
    1.7598   -1.3083    0.0417 H   0  0  0  0  0  0  0  0  0  0  0  0
    0.5211   -0.9650    1.3433 H   0  0  0  0  0  0  0  0  0  0  0  0
   -0.5625   -1.9597   -0.5519 H   0  0  0  0  0  0  0  0  0  0  0  0
    0.0082   -0.7012   -1.6781 H   0  0  0  0  0  0  0  0  0  0  0  0
   -2.4821    1.7730   -0.2179 H   0  0  0  0  0  0  0  0  0  0  0  0
  1  2  1  0
  2  3  1  0
  3  4  1  0
  4  5  1  0
  4  6  2  0
  1  7  1  0
  1  8  1  0
  1  9  1  0
  2 10  1  0
  2 11  1  0
  3 12  1  0
  3 13  1  0
  5 14  1  0
M  END
$$$$
