
     RDKit          3D

 32 34  0  0  0  0  0  0  0  0999 V2000
    2.1728    2.6456    1.1350 O   0  0  0  0  0  0  0  0  0  0  0  0
    1.6340    1.5928    0.6787 C   0  0  0  0  0  0  0  0  0  0  0  0
    0.2446    1.4884    0.5712 C   0  0  0  0  0  0  0  0  0  0  0  0
   -0.4447    2.6134    0.9999 O   0  0  0  0  0  0  0  0  0  0  0  0
   -0.3910    0.3856    0.0901 C   0  0  0  0  0  0  0  0  0  0  0  0
   -1.8237    0.2532   -0.0309 C   0  0  0  0  0  0  0  0  0  0  0  0
   -2.7512    1.1887    0.3090 C   0  0  0  0  0  0  0  0  0  0  0  0
   -4.1317    0.9876    0.1623 C   0  0  0  0  0  0  0  0  0  0  0  0
   -4.5798   -0.1935   -0.3423 C   0  0  0  0  0  0  0  0  0  0  0  0
   -5.9320   -0.4816   -0.5233 O   0  0  0  0  0  0  0  0  0  0  0  0
   -3.6861   -1.1763   -0.7031 C   0  0  0  0  0  0  0  0  0  0  0  0
   -4.1485   -2.3869   -1.2204 O   0  0  0  0  0  0  0  0  0  0  0  0
   -2.3420   -0.9520   -0.5486 C   0  0  0  0  0  0  0  0  0  0  0  0
    0.3905   -0.6307   -0.2898 O   0  0  0  0  0  0  0  0  0  0  0  0
    1.6911   -0.5895   -0.2123 C   0  0  0  0  0  0  0  0  0  0  0  0
    2.4833   -1.6634   -0.6152 C   0  0  0  0  0  0  0  0  0  0  0  0
    3.8601   -1.6361   -0.5399 C   0  0  0  0  0  0  0  0  0  0  0  0
    4.6251   -2.7398   -0.9563 O   0  0  0  0  0  0  0  0  0  0  0  0
    4.5032   -0.5177   -0.0520 C   0  0  0  0  0  0  0  0  0  0  0  0
    3.7510    0.5638    0.3559 C   0  0  0  0  0  0  0  0  0  0  0  0
    4.3226    1.7182    0.8553 O   0  0  0  0  0  0  0  0  0  0  0  0
    2.3720    0.5090    0.2692 C   0  0  0  0  0  0  0  0  0  0  0  0
   -0.0950    3.5355    0.8020 H   0  0  0  0  0  0  0  0  0  0  0  0
   -2.4256    2.1361    0.7121 H   0  0  0  0  0  0  0  0  0  0  0  0
   -4.7909    1.7772    0.4549 H   0  0  0  0  0  0  0  0  0  0  0  0
   -6.6760    0.0749   -0.1441 H   0  0  0  0  0  0  0  0  0  0  0  0
   -3.6023   -3.2168   -0.9947 H   0  0  0  0  0  0  0  0  0  0  0  0
   -1.6243   -1.7097   -0.8254 H   0  0  0  0  0  0  0  0  0  0  0  0
    2.0088   -2.5446   -0.9982 H   0  0  0  0  0  0  0  0  0  0  0  0
    5.3195   -3.1183   -0.3161 H   0  0  0  0  0  0  0  0  0  0  0  0
    5.5916   -0.4541    0.0247 H   0  0  0  0  0  0  0  0  0  0  0  0
    4.4748    2.5411    0.2643 H   0  0  0  0  0  0  0  0  0  0  0  0
  1  2  2  0
  2  3  1  0
  3  4  1  0
  3  5  2  0
  5  6  1  0
  6  7  2  0
  7  8  1  0
  8  9  2  0
  9 10  1  0
  9 11  1  0
 11 12  1  0
 11 13  2  0
  5 14  1  0
 14 15  1  0
 15 16  2  0
 16 17  1  0
 17 18  1  0
 17 19  2  0
 19 20  1  0
 20 21  1  0
 20 22  2  0
 22  2  1  0
 13  6  1  0
 22 15  1  0
  4 23  1  0
  7 24  1  0
  8 25  1  0
 10 26  1  0
 12 27  1  0
 13 28  1  0
 16 29  1  0
 18 30  1  0
 19 31  1  0
 21 32  1  0
M  END
$$$$
