
     RDKit          3D

 60 62  0  0  0  0  0  0  0  0999 V2000
    7.1811    1.2955    2.3488 C   0  0  0  0  0  0  0  0  0  0  0  0
    7.7576    1.5857    0.9761 C   0  0  0  0  0  0  0  0  0  0  0  0
    6.4178    2.1661   -0.0589 S   0  0  0  0  0  6  0  0  0  0  0  0
    5.8533    3.3789    0.6057 O   0  0  0  0  0  0  0  0  0  0  0  0
    6.8945    2.5459   -1.4180 O   0  0  0  0  0  0  0  0  0  0  0  0
    5.2057    0.8820   -0.1276 C   0  0  0  0  0  0  0  0  0  0  0  0
    3.9147    1.0820    0.3119 C   0  0  0  0  0  0  0  0  0  0  0  0
    3.0038    0.0484    0.2377 C   0  0  0  0  0  0  0  0  0  0  0  0
    1.6546   -0.0617    0.5930 C   0  0  0  0  0  0  0  0  0  0  0  0
    1.1693   -1.3099    0.3243 C   0  0  0  0  0  0  0  0  0  0  0  0
   -0.1306   -1.9627    0.5452 C   0  0  0  0  0  0  0  0  0  0  0  0
   -1.1009   -1.9902   -0.6010 C   0  0  2  0  0  0  0  0  0  0  0  0
   -0.3905   -2.6433   -1.6600 O   0  0  0  0  0  0  0  0  0  0  0  0
   -1.6252   -0.7830   -1.1671 C   0  0  0  0  0  0  0  0  0  0  0  0
   -2.4586    0.2310   -0.4497 C   0  0  0  0  0  0  0  0  0  0  0  0
   -2.6019    1.2849   -1.7307 C   0  0  0  0  0  0  0  0  0  0  0  0
   -1.6426    1.0642    0.3922 C   0  0  0  0  0  0  0  0  0  0  0  0
   -3.8717   -0.0338   -0.3379 C   0  0  0  0  0  0  0  0  0  0  0  0
   -4.3888   -0.9961   -1.2159 C   0  0  0  0  0  0  0  0  0  0  0  0
   -5.7387   -1.1843   -1.3485 C   0  0  0  0  0  0  0  0  0  0  0  0
   -6.6390   -0.4400   -0.6308 C   0  0  0  0  0  0  0  0  0  0  0  0
   -6.1590    0.5039    0.2328 C   0  0  0  0  0  0  0  0  0  0  0  0
   -4.7659    0.6915    0.3684 C   0  0  0  0  0  0  0  0  0  0  0  0
   -4.4612    1.6194    1.4566 C   0  0  0  0  0  0  0  0  0  0  0  0
   -5.2079    2.8117    1.6580 N   0  0  0  0  0  0  0  0  0  0  0  0
   -3.5380    1.3816    2.2300 O   0  0  0  0  0  0  0  0  0  0  0  0
   -2.0456   -3.1393   -0.2495 C   0  0  0  0  0  0  0  0  0  0  0  0
   -2.7528   -3.0191    0.8742 F   0  0  0  0  0  0  0  0  0  0  0  0
   -1.1003   -4.1704    0.1121 F   0  0  0  0  0  0  0  0  0  0  0  0
   -2.6257   -3.7268   -1.3352 F   0  0  0  0  0  0  0  0  0  0  0  0
    2.2537   -1.9765   -0.2075 N   0  0  0  0  0  0  0  0  0  0  0  0
    3.3257   -1.1903   -0.2606 C   0  0  0  0  0  0  0  0  0  0  0  0
    4.6390   -1.3534   -0.6945 C   0  0  0  0  0  0  0  0  0  0  0  0
    5.5084   -0.3326   -0.6125 N   0  0  0  0  0  0  0  0  0  0  0  0
    6.1187    1.0284    2.2264 H   0  0  0  0  0  0  0  0  0  0  0  0
    7.6761    0.3779    2.7657 H   0  0  0  0  0  0  0  0  0  0  0  0
    7.3259    2.1604    3.0501 H   0  0  0  0  0  0  0  0  0  0  0  0
    8.0625    0.5985    0.5499 H   0  0  0  0  0  0  0  0  0  0  0  0
    8.5833    2.3017    1.0074 H   0  0  0  0  0  0  0  0  0  0  0  0
    3.6233    2.0293    0.7061 H   0  0  0  0  0  0  0  0  0  0  0  0
    1.1331    0.7679    1.0353 H   0  0  0  0  0  0  0  0  0  0  0  0
    0.1183   -3.0243    0.8766 H   0  0  0  0  0  0  0  0  0  0  0  0
   -0.5513   -1.5176    1.4680 H   0  0  0  0  0  0  0  0  0  0  0  0
   -0.9885   -2.6891   -2.4457 H   0  0  0  0  0  0  0  0  0  0  0  0
   -0.6827   -0.1587   -1.4312 H   0  0  0  0  0  0  0  0  0  0  0  0
   -2.0382   -0.9118   -2.1964 H   0  0  0  0  0  0  0  0  0  0  0  0
   -1.5783    1.5578   -1.9898 H   0  0  0  0  0  0  0  0  0  0  0  0
   -3.1224    2.1509   -1.3287 H   0  0  0  0  0  0  0  0  0  0  0  0
   -3.0627    0.7180   -2.5214 H   0  0  0  0  0  0  0  0  0  0  0  0
   -1.8981    2.1532    0.4906 H   0  0  0  0  0  0  0  0  0  0  0  0
   -0.6902    1.2493   -0.2814 H   0  0  0  0  0  0  0  0  0  0  0  0
   -1.2017    0.7328    1.3123 H   0  0  0  0  0  0  0  0  0  0  0  0
   -3.7888   -1.6020   -1.8475 H   0  0  0  0  0  0  0  0  0  0  0  0
   -6.1648   -1.9259   -2.0226 H   0  0  0  0  0  0  0  0  0  0  0  0
   -7.7123   -0.5755   -0.7264 H   0  0  0  0  0  0  0  0  0  0  0  0
   -6.8496    1.1077    0.8115 H   0  0  0  0  0  0  0  0  0  0  0  0
   -5.6157    3.3765    0.8900 H   0  0  0  0  0  0  0  0  0  0  0  0
   -5.3515    3.1328    2.6311 H   0  0  0  0  0  0  0  0  0  0  0  0
    2.2171   -2.9807   -0.5253 H   0  0  0  0  0  0  0  0  0  0  0  0
    4.9046   -2.3168   -1.0865 H   0  0  0  0  0  0  0  0  0  0  0  0
  1  2  1  0
  2  3  1  0
  3  4  2  0
  3  5  2  0
  3  6  1  0
  6  7  2  0
  7  8  1  0
  8  9  1  0
  9 10  2  0
 10 11  1  0
 11 12  1  0
 12 13  1  6
 12 14  1  0
 14 15  1  0
 15 16  1  0
 15 17  1  0
 15 18  1  0
 18 19  2  0
 19 20  1  0
 20 21  2  0
 21 22  1  0
 22 23  2  0
 23 24  1  0
 24 25  1  0
 24 26  2  0
 12 27  1  0
 27 28  1  0
 27 29  1  0
 27 30  1  0
 10 31  1  0
 31 32  1  0
 32 33  1  0
 33 34  2  0
 34  6  1  0
 32  8  2  0
 23 18  1  0
  1 35  1  0
  1 36  1  0
  1 37  1  0
  2 38  1  0
  2 39  1  0
  7 40  1  0
  9 41  1  0
 11 42  1  0
 11 43  1  0
 13 44  1  0
 14 45  1  0
 14 46  1  0
 16 47  1  0
 16 48  1  0
 16 49  1  0
 17 50  1  0
 17 51  1  0
 17 52  1  0
 19 53  1  0
 20 54  1  0
 21 55  1  0
 22 56  1  0
 25 57  1  0
 25 58  1  0
 31 59  1  0
 33 60  1  0
M  END
$$$$
