
     RDKit          3D

 85 91  0  0  0  0  0  0  0  0999 V2000
    3.9965   -3.3338   -0.4731 C   0  0  0  0  0  0  0  0  0  0  0  0
    4.6443   -2.1818    0.0301 O   0  0  0  0  0  0  0  0  0  0  0  0
    3.9027   -1.0585    0.3341 C   0  0  0  0  0  0  0  0  0  0  0  0
    2.5268   -1.0494    0.1500 C   0  0  0  0  0  0  0  0  0  0  0  0
    1.7890    0.0636    0.4498 C   0  0  0  0  0  0  0  0  0  0  0  0
    0.3513    0.1534    0.2585 C   0  0  0  0  0  0  0  0  0  0  0  0
   -0.5708    0.5333    1.1829 N   0  0  0  0  0  0  0  0  0  0  0  0
   -1.7898    0.5310    0.6943 N   0  0  0  0  0  0  0  0  0  0  0  0
   -3.0368    0.8819    1.3945 C   0  0  1  0  0  0  0  0  0  0  0  0
   -3.8252    1.9012    0.6183 C   0  0  0  0  0  0  0  0  0  0  0  0
   -5.2983    1.6451    0.5884 C   0  0  0  0  0  0  0  0  0  0  0  0
   -5.6394    0.2410    0.1906 C   0  0  2  0  0  0  0  0  0  0  0  0
   -7.0455    0.0006    0.2174 N   0  0  0  0  0  0  0  0  0  0  0  0
   -7.2956   -1.3464   -0.1819 C   0  0  0  0  0  0  0  0  0  0  0  0
   -8.5707   -1.5597   -0.9409 C   0  0  0  0  0  0  0  0  0  0  0  0
   -9.5342   -0.6237   -0.4433 N   0  0  0  0  0  0  0  0  0  0  0  0
  -10.7246   -1.0743    0.1470 C   0  0  0  0  0  0  0  0  0  0  0  0
  -11.7299   -0.0964    0.6672 C   0  0  0  0  0  0  0  0  0  0  0  0
  -11.0029   -2.3161    0.2670 O   0  0  0  0  0  0  0  0  0  0  0  0
   -9.2556    0.7740   -0.5614 C   0  0  0  0  0  0  0  0  0  0  0  0
   -7.7863    1.0151   -0.4500 C   0  0  0  0  0  0  0  0  0  0  0  0
   -4.9453   -0.7591    1.0371 C   0  0  0  0  0  0  0  0  0  0  0  0
   -3.7971   -0.2970    1.8477 C   0  0  0  0  0  0  0  0  0  0  0  0
   -1.6718    0.1388   -0.5916 C   0  0  0  0  0  0  0  0  0  0  0  0
   -2.5821   -0.0271   -1.5392 N   0  0  0  0  0  0  0  0  0  0  0  0
   -2.3056   -0.4166   -2.7842 C   0  0  0  0  0  0  0  0  0  0  0  0
   -1.0209   -0.6551   -3.0955 N   0  0  0  0  0  0  0  0  0  0  0  0
   -0.0402   -0.5003   -2.1574 C   0  0  0  0  0  0  0  0  0  0  0  0
    1.3190   -0.7291   -2.4987 N   0  0  0  0  0  0  0  0  0  0  0  0
   -0.3494   -0.0996   -0.8807 C   0  0  0  0  0  0  0  0  0  0  0  0
    2.4348    1.1786    0.9401 C   0  0  0  0  0  0  0  0  0  0  0  0
    3.8001    1.1818    1.1276 C   0  0  0  0  0  0  0  0  0  0  0  0
    4.5460    0.0534    0.8225 C   0  0  0  0  0  0  0  0  0  0  0  0
    5.9435    0.0898    1.0282 N   0  0  0  0  0  0  0  0  0  0  0  0
    6.8265    0.5206    0.0046 C   0  0  0  0  0  0  0  0  0  0  0  0
    6.3726    0.8726   -1.0920 O   0  0  0  0  0  0  0  0  0  0  0  0
    8.2856    0.5511    0.2416 C   0  0  0  0  0  0  0  0  0  0  0  0
    8.9415    0.1919    1.3998 C   0  0  0  0  0  0  0  0  0  0  0  0
   10.3023    0.3583    1.2341 C   0  0  0  0  0  0  0  0  0  0  0  0
   11.4062    0.1602    2.0387 C   0  0  0  0  0  0  0  0  0  0  0  0
   12.6923    0.4113    1.6181 C   0  0  0  0  0  0  0  0  0  0  0  0
   12.8346    0.8826    0.3217 C   0  0  0  0  0  0  0  0  0  0  0  0
   11.7515    1.0902   -0.5049 C   0  0  0  0  0  0  0  0  0  0  0  0
   10.4677    0.8283   -0.0536 C   0  0  0  0  0  0  0  0  0  0  0  0
    9.2400    0.9331   -0.6223 N   0  0  0  0  0  0  0  0  0  0  0  0
    8.9826    1.3911   -1.9690 C   0  0  0  0  0  0  0  0  0  0  0  0
    3.3626   -3.0278   -1.3302 H   0  0  0  0  0  0  0  0  0  0  0  0
    4.7100   -4.0982   -0.8128 H   0  0  0  0  0  0  0  0  0  0  0  0
    3.3111   -3.7827    0.2847 H   0  0  0  0  0  0  0  0  0  0  0  0
    2.0525   -1.9367   -0.2129 H   0  0  0  0  0  0  0  0  0  0  0  0
   -2.6854    1.4175    2.3131 H   0  0  0  0  0  0  0  0  0  0  0  0
   -3.6818    2.9419    0.9868 H   0  0  0  0  0  0  0  0  0  0  0  0
   -3.4237    1.8947   -0.4177 H   0  0  0  0  0  0  0  0  0  0  0  0
   -5.7800    1.9160    1.5418 H   0  0  0  0  0  0  0  0  0  0  0  0
   -5.7189    2.3333   -0.1945 H   0  0  0  0  0  0  0  0  0  0  0  0
   -5.3015    0.1366   -0.8801 H   0  0  0  0  0  0  0  0  0  0  0  0
   -7.3864   -1.9684    0.7575 H   0  0  0  0  0  0  0  0  0  0  0  0
   -6.4453   -1.7177   -0.8116 H   0  0  0  0  0  0  0  0  0  0  0  0
   -8.9049   -2.6176   -0.8493 H   0  0  0  0  0  0  0  0  0  0  0  0
   -8.3740   -1.3515   -2.0126 H   0  0  0  0  0  0  0  0  0  0  0  0
  -12.5626   -0.6157    1.1753 H   0  0  0  0  0  0  0  0  0  0  0  0
  -11.2521    0.5672    1.4423 H   0  0  0  0  0  0  0  0  0  0  0  0
  -12.1875    0.5010   -0.1485 H   0  0  0  0  0  0  0  0  0  0  0  0
   -9.8515    1.3456    0.1835 H   0  0  0  0  0  0  0  0  0  0  0  0
   -9.6083    1.1645   -1.5611 H   0  0  0  0  0  0  0  0  0  0  0  0
   -7.3457    1.1645   -1.4568 H   0  0  0  0  0  0  0  0  0  0  0  0
   -7.6811    1.9536    0.1725 H   0  0  0  0  0  0  0  0  0  0  0  0
   -5.7181   -1.2605    1.6863 H   0  0  0  0  0  0  0  0  0  0  0  0
   -4.6017   -1.5999    0.3629 H   0  0  0  0  0  0  0  0  0  0  0  0
   -4.1727   -0.1634    2.9074 H   0  0  0  0  0  0  0  0  0  0  0  0
   -3.0654   -1.1542    1.9488 H   0  0  0  0  0  0  0  0  0  0  0  0
   -3.0998   -0.5417   -3.5407 H   0  0  0  0  0  0  0  0  0  0  0  0
    1.9984    0.0441   -2.5948 H   0  0  0  0  0  0  0  0  0  0  0  0
    1.6538   -1.7003   -2.6595 H   0  0  0  0  0  0  0  0  0  0  0  0
    1.8988    2.0810    1.1922 H   0  0  0  0  0  0  0  0  0  0  0  0
    4.3287    2.0448    1.5108 H   0  0  0  0  0  0  0  0  0  0  0  0
    6.3144   -0.2056    1.9462 H   0  0  0  0  0  0  0  0  0  0  0  0
    8.4681   -0.1658    2.3020 H   0  0  0  0  0  0  0  0  0  0  0  0
   11.2362   -0.2076    3.0382 H   0  0  0  0  0  0  0  0  0  0  0  0
   13.5566    0.2599    2.2381 H   0  0  0  0  0  0  0  0  0  0  0  0
   13.8596    1.0810   -0.0098 H   0  0  0  0  0  0  0  0  0  0  0  0
   11.8650    1.4541   -1.5045 H   0  0  0  0  0  0  0  0  0  0  0  0
    8.3327    0.6572   -2.4923 H   0  0  0  0  0  0  0  0  0  0  0  0
    9.9230    1.4420   -2.5604 H   0  0  0  0  0  0  0  0  0  0  0  0
    8.4377    2.3529   -1.9526 H   0  0  0  0  0  0  0  0  0  0  0  0
  1  2  1  0
  2  3  1  0
  3  4  2  0
  4  5  1  0
  5  6  1  0
  6  7  2  0
  7  8  1  0
  8  9  1  0
  9 10  1  0
 10 11  1  0
 11 12  1  0
 12 13  1  0
 13 14  1  0
 14 15  1  0
 15 16  1  0
 16 17  1  0
 17 18  1  0
 17 19  2  0
 16 20  1  0
 20 21  1  0
 12 22  1  0
 22 23  1  0
  8 24  1  0
 24 25  2  0
 25 26  1  0
 26 27  2  0
 27 28  1  0
 28 29  1  0
 28 30  2  0
  5 31  2  0
 31 32  1  0
 32 33  2  0
 33 34  1  0
 34 35  1  0
 35 36  2  0
 35 37  1  0
 37 38  2  0
 38 39  1  0
 39 40  2  0
 40 41  1  0
 41 42  2  0
 42 43  1  0
 43 44  2  0
 44 45  1  0
 45 46  1  0
 33  3  1  0
 45 37  1  0
 30  6  1  0
 44 39  1  0
 23  9  1  0
 30 24  1  0
 21 13  1  0
  1 47  1  0
  1 48  1  0
  1 49  1  0
  4 50  1  0
  9 51  1  1
 10 52  1  0
 10 53  1  0
 11 54  1  0
 11 55  1  0
 12 56  1  6
 14 57  1  0
 14 58  1  0
 15 59  1  0
 15 60  1  0
 18 61  1  0
 18 62  1  0
 18 63  1  0
 20 64  1  0
 20 65  1  0
 21 66  1  0
 21 67  1  0
 22 68  1  0
 22 69  1  0
 23 70  1  0
 23 71  1  0
 26 72  1  0
 29 73  1  0
 29 74  1  0
 31 75  1  0
 32 76  1  0
 34 77  1  0
 38 78  1  0
 40 79  1  0
 41 80  1  0
 42 81  1  0
 43 82  1  0
 46 83  1  0
 46 84  1  0
 46 85  1  0
M  END
$$$$
