
     RDKit          3D

 59 64  0  0  0  0  0  0  0  0999 V2000
    2.6837   -1.8989   -0.0410 C   0  0  0  0  0  0  0  0  0  0  0  0
    2.2873   -0.7281    0.8655 C   0  0  0  0  0  0  0  0  0  0  0  0
    1.7393   -1.3595    2.1409 C   0  0  0  0  0  0  0  0  0  0  0  0
    1.2277    0.1019    0.2846 C   0  0  0  0  0  0  0  0  0  0  0  0
    0.0390   -0.5455   -0.0596 C   0  0  0  0  0  0  0  0  0  0  0  0
   -1.0448    0.0972   -0.6083 C   0  0  0  0  0  0  0  0  0  0  0  0
   -2.2848   -0.6400   -0.9541 C   0  0  0  0  0  0  0  0  0  0  0  0
   -2.5721   -0.4156   -2.4460 C   0  0  0  0  0  0  0  0  0  0  0  0
   -3.8093   -1.2033   -2.7575 C   0  0  0  0  0  0  0  0  0  0  0  0
   -4.9277   -0.9046   -1.9677 N   0  0  0  0  0  0  0  0  0  0  0  0
   -6.2022   -1.0320   -2.5502 C   0  0  0  0  0  0  0  0  0  0  0  0
   -7.4068   -0.7158   -1.7327 C   0  0  0  0  0  0  0  0  0  0  0  0
   -7.1831   -1.9167   -1.0258 O   0  0  0  0  0  0  0  0  0  0  0  0
   -6.7506   -2.4419   -2.2593 C   0  0  0  0  0  0  0  0  0  0  0  0
   -4.7839   -0.5107   -0.6407 C   0  0  0  0  0  0  0  0  0  0  0  0
   -3.4377   -0.0558   -0.2066 C   0  0  0  0  0  0  0  0  0  0  0  0
   -0.9691    1.4686   -0.8398 C   0  0  0  0  0  0  0  0  0  0  0  0
    0.1987    2.1126   -0.5035 C   0  0  0  0  0  0  0  0  0  0  0  0
    1.2827    1.4386    0.0509 C   0  0  0  0  0  0  0  0  0  0  0  0
    2.5085    2.1510    0.3939 C   0  0  0  0  0  0  0  0  0  0  0  0
    2.5987    3.3851    0.1937 O   0  0  0  0  0  0  0  0  0  0  0  0
    3.6029    1.4122    0.9627 C   0  0  0  0  0  0  0  0  0  0  0  0
    3.5085    0.0521    1.1865 C   0  0  0  0  0  0  0  0  0  0  0  0
    4.6658   -0.3247    1.7069 N   0  0  0  0  0  0  0  0  0  0  0  0
    5.5185    0.7067    1.8396 C   0  0  0  0  0  0  0  0  0  0  0  0
    6.8129    0.8453    2.3127 C   0  0  0  0  0  0  0  0  0  0  0  0
    7.4901    2.0462    2.3435 C   0  0  0  0  0  0  0  0  0  0  0  0
    8.8459    2.1637    2.8407 C   0  0  0  0  0  0  0  0  0  0  0  0
    9.9445    2.2509    3.2235 N   0  0  0  0  0  0  0  0  0  0  0  0
    6.8222    3.1696    1.8703 C   0  0  0  0  0  0  0  0  0  0  0  0
    5.5235    3.0456    1.3928 C   0  0  0  0  0  0  0  0  0  0  0  0
    4.8706    1.8314    1.3735 C   0  0  0  0  0  0  0  0  0  0  0  0
    1.9819   -2.7295    0.1081 H   0  0  0  0  0  0  0  0  0  0  0  0
    2.7670   -1.5655   -1.0935 H   0  0  0  0  0  0  0  0  0  0  0  0
    3.6860   -2.2192    0.2850 H   0  0  0  0  0  0  0  0  0  0  0  0
    1.3339   -2.3520    1.9156 H   0  0  0  0  0  0  0  0  0  0  0  0
    0.9487   -0.6819    2.5188 H   0  0  0  0  0  0  0  0  0  0  0  0
    2.5537   -1.3833    2.8919 H   0  0  0  0  0  0  0  0  0  0  0  0
   -0.0572   -1.6257    0.1073 H   0  0  0  0  0  0  0  0  0  0  0  0
   -2.1811   -1.6948   -0.7077 H   0  0  0  0  0  0  0  0  0  0  0  0
   -2.7359    0.6666   -2.5541 H   0  0  0  0  0  0  0  0  0  0  0  0
   -1.7412   -0.8051   -3.0463 H   0  0  0  0  0  0  0  0  0  0  0  0
   -3.5621   -2.2847   -2.7028 H   0  0  0  0  0  0  0  0  0  0  0  0
   -4.0603   -1.0038   -3.8400 H   0  0  0  0  0  0  0  0  0  0  0  0
   -6.2912   -0.8192   -3.6399 H   0  0  0  0  0  0  0  0  0  0  0  0
   -8.3441   -0.8201   -2.3278 H   0  0  0  0  0  0  0  0  0  0  0  0
   -7.3833    0.1254   -1.0403 H   0  0  0  0  0  0  0  0  0  0  0  0
   -5.9478   -3.1841   -2.0915 H   0  0  0  0  0  0  0  0  0  0  0  0
   -7.5635   -2.7585   -2.9361 H   0  0  0  0  0  0  0  0  0  0  0  0
   -5.4906    0.3433   -0.4158 H   0  0  0  0  0  0  0  0  0  0  0  0
   -5.1622   -1.3382    0.0294 H   0  0  0  0  0  0  0  0  0  0  0  0
   -3.3544    1.0711   -0.1806 H   0  0  0  0  0  0  0  0  0  0  0  0
   -3.3127   -0.3566    0.8721 H   0  0  0  0  0  0  0  0  0  0  0  0
   -1.8121    1.9530   -1.2626 H   0  0  0  0  0  0  0  0  0  0  0  0
    0.3058    3.1839   -0.6625 H   0  0  0  0  0  0  0  0  0  0  0  0
    4.9379   -1.3010    2.0002 H   0  0  0  0  0  0  0  0  0  0  0  0
    7.3429   -0.0210    2.6839 H   0  0  0  0  0  0  0  0  0  0  0  0
    7.3382    4.1162    1.8900 H   0  0  0  0  0  0  0  0  0  0  0  0
    5.0047    3.8990    1.0282 H   0  0  0  0  0  0  0  0  0  0  0  0
  1  2  1  0
  2  3  1  0
  2  4  1  0
  4  5  2  0
  5  6  1  0
  6  7  1  0
  7  8  1  0
  8  9  1  0
  9 10  1  0
 10 11  1  0
 11 12  1  0
 12 13  1  0
 13 14  1  0
 10 15  1  0
 15 16  1  0
  6 17  2  0
 17 18  1  0
 18 19  2  0
 19 20  1  0
 20 21  2  0
 20 22  1  0
 22 23  2  0
 23 24  1  0
 24 25  1  0
 25 26  2  0
 26 27  1  0
 27 28  1  0
 28 29  3  0
 27 30  2  0
 30 31  1  0
 31 32  2  0
 23  2  1  0
 32 25  1  0
 19  4  1  0
 32 22  1  0
 16  7  1  0
 14 11  1  0
  1 33  1  0
  1 34  1  0
  1 35  1  0
  3 36  1  0
  3 37  1  0
  3 38  1  0
  5 39  1  0
  7 40  1  0
  8 41  1  0
  8 42  1  0
  9 43  1  0
  9 44  1  0
 11 45  1  0
 12 46  1  0
 12 47  1  0
 14 48  1  0
 14 49  1  0
 15 50  1  0
 15 51  1  0
 16 52  1  0
 16 53  1  0
 17 54  1  0
 18 55  1  0
 24 56  1  0
 26 57  1  0
 30 58  1  0
 31 59  1  0
M  END
$$$$
