
     RDKit          3D

 58 62  0  0  0  0  0  0  0  0999 V2000
   -1.8934    2.7210    0.0445 O   0  0  0  0  0  0  0  0  0  0  0  0
   -2.1236    1.3108    0.5822 S   0  0  0  0  0  6  0  0  0  0  0  0
   -2.0040    1.4531    2.0858 O   0  0  0  0  0  0  0  0  0  0  0  0
   -3.6998    0.8468    0.1437 C   0  0  0  0  0  0  0  0  0  0  0  0
   -4.3186    1.3102   -0.9854 C   0  0  0  0  0  0  0  0  0  0  0  0
   -5.5973    0.9108   -1.2776 C   0  0  0  0  0  0  0  0  0  0  0  0
   -6.2738    0.0406   -0.4417 C   0  0  0  0  0  0  0  0  0  0  0  0
   -7.9040   -0.4987   -0.7679 Cl  0  0  0  0  0  0  0  0  0  0  0  0
   -5.6650   -0.4387    0.7045 C   0  0  0  0  0  0  0  0  0  0  0  0
   -4.3964   -0.0168    0.9562 C   0  0  0  0  0  0  0  0  0  0  0  0
   -0.7782    0.2876   -0.0389 C   0  0  0  0  0  0  0  0  0  0  0  0
   -0.7355    0.2396   -1.5211 C   0  0  0  0  0  0  0  0  0  0  0  0
    0.2076    1.0236   -2.3047 C   0  0  0  0  0  0  0  0  0  0  0  0
    1.2857    1.6962   -1.5696 C   0  0  0  0  0  0  0  0  0  0  0  0
    1.6448    0.8672   -0.3532 C   0  0  1  0  0  0  0  0  0  0  0  0
    2.1390   -0.4567   -0.8204 C   0  0  0  0  0  0  0  0  0  0  0  0
    3.4424   -0.7046   -0.0721 C   0  0  0  0  0  0  0  0  0  0  0  0
    3.8018    0.5076    0.5684 N   0  0  0  0  0  0  0  0  0  0  0  0
    5.3768    1.0688    0.1452 S   0  0  0  0  0  6  0  0  0  0  0  0
    5.4349    1.3442   -1.3189 O   0  0  0  0  0  0  0  0  0  0  0  0
    5.7020    2.3470    0.8606 O   0  0  0  0  0  0  0  0  0  0  0  0
    6.6185   -0.1189    0.6313 C   0  0  0  0  0  0  0  0  0  0  0  0
    6.3981   -1.3119    0.0073 F   0  0  0  0  0  0  0  0  0  0  0  0
    7.8620    0.4103    0.3007 F   0  0  0  0  0  0  0  0  0  0  0  0
    6.6151   -0.3301    1.9824 F   0  0  0  0  0  0  0  0  0  0  0  0
    2.8649    1.5421    0.2350 C   0  0  0  0  0  0  0  0  0  0  0  0
    0.4791    0.8252    0.5986 C   0  0  0  0  0  0  0  0  0  0  0  0
    0.7667    0.3296    1.9743 C   0  0  0  0  0  0  0  0  0  0  0  0
    0.5213   -1.0242    2.1806 O   0  0  0  0  0  0  0  0  0  0  0  0
   -0.4463   -1.6963    1.4737 C   0  0  0  0  0  0  0  0  0  0  0  0
   -0.7695   -3.0160    1.8697 C   0  0  0  0  0  0  0  0  0  0  0  0
   -0.0997   -3.5377    2.9312 F   0  0  0  0  0  0  0  0  0  0  0  0
   -1.7167   -3.7242    1.2027 C   0  0  0  0  0  0  0  0  0  0  0  0
   -2.3493   -3.1262    0.1369 C   0  0  0  0  0  0  0  0  0  0  0  0
   -2.0431   -1.8329   -0.2633 C   0  0  0  0  0  0  0  0  0  0  0  0
   -2.7374   -1.3793   -1.3348 F   0  0  0  0  0  0  0  0  0  0  0  0
   -1.0724   -1.0977    0.4162 C   0  0  0  0  0  0  0  0  0  0  0  0
   -3.8252    2.0018   -1.6802 H   0  0  0  0  0  0  0  0  0  0  0  0
   -6.1233    1.2662   -2.1788 H   0  0  0  0  0  0  0  0  0  0  0  0
   -6.1738   -1.1188    1.3724 H   0  0  0  0  0  0  0  0  0  0  0  0
   -3.9314   -0.4174    1.8829 H   0  0  0  0  0  0  0  0  0  0  0  0
   -1.7814    0.5346   -1.8768 H   0  0  0  0  0  0  0  0  0  0  0  0
   -0.6601   -0.8316   -1.9082 H   0  0  0  0  0  0  0  0  0  0  0  0
   -0.3332    1.8439   -2.9026 H   0  0  0  0  0  0  0  0  0  0  0  0
    0.6346    0.3967   -3.1401 H   0  0  0  0  0  0  0  0  0  0  0  0
    2.2080    1.7046   -2.2199 H   0  0  0  0  0  0  0  0  0  0  0  0
    1.0021    2.7350   -1.2873 H   0  0  0  0  0  0  0  0  0  0  0  0
    2.4152   -0.4662   -1.8977 H   0  0  0  0  0  0  0  0  0  0  0  0
    1.4171   -1.2878   -0.6929 H   0  0  0  0  0  0  0  0  0  0  0  0
    3.3278   -1.4958    0.6962 H   0  0  0  0  0  0  0  0  0  0  0  0
    4.2481   -1.0687   -0.7489 H   0  0  0  0  0  0  0  0  0  0  0  0
    2.5670    2.0716    1.1534 H   0  0  0  0  0  0  0  0  0  0  0  0
    3.3107    2.3133   -0.4287 H   0  0  0  0  0  0  0  0  0  0  0  0
    0.2791    1.9384    0.7718 H   0  0  0  0  0  0  0  0  0  0  0  0
    0.1560    0.8978    2.7553 H   0  0  0  0  0  0  0  0  0  0  0  0
    1.8071    0.6173    2.2816 H   0  0  0  0  0  0  0  0  0  0  0  0
   -1.9609   -4.7323    1.5090 H   0  0  0  0  0  0  0  0  0  0  0  0
   -3.1199   -3.6744   -0.4228 H   0  0  0  0  0  0  0  0  0  0  0  0
  1  2  2  0
  2  3  2  0
  2  4  1  0
  4  5  2  0
  5  6  1  0
  6  7  2  0
  7  8  1  0
  7  9  1  0
  9 10  2  0
  2 11  1  0
 11 12  1  0
 12 13  1  0
 13 14  1  0
 15 14  1  6
 15 16  1  0
 16 17  1  0
 17 18  1  0
 18 19  1  0
 19 20  2  0
 19 21  2  0
 19 22  1  0
 22 23  1  0
 22 24  1  0
 22 25  1  0
 18 26  1  0
 15 27  1  0
 27 28  1  0
 28 29  1  0
 29 30  1  0
 30 31  2  0
 31 32  1  0
 31 33  1  0
 33 34  2  0
 34 35  1  0
 35 36  1  0
 35 37  2  0
 10  4  1  0
 27 11  1  0
 37 30  1  0
 37 11  1  0
 26 15  1  0
  5 38  1  0
  6 39  1  0
  9 40  1  0
 10 41  1  0
 12 42  1  0
 12 43  1  0
 13 44  1  0
 13 45  1  0
 14 46  1  0
 14 47  1  0
 16 48  1  0
 16 49  1  0
 17 50  1  0
 17 51  1  0
 26 52  1  0
 26 53  1  0
 27 54  1  0
 28 55  1  0
 28 56  1  0
 33 57  1  0
 34 58  1  0
M  END
$$$$
