
     RDKit          3D

 59 64  0  0  0  0  0  0  0  0999 V2000
    9.2204    0.1388    1.0428 C   0  0  0  0  0  0  0  0  0  0  0  0
    8.3155   -0.6700    0.3167 O   0  0  0  0  0  0  0  0  0  0  0  0
    6.9702   -0.3491    0.3703 C   0  0  0  0  0  0  0  0  0  0  0  0
    6.0802   -1.1272   -0.3309 C   0  0  0  0  0  0  0  0  0  0  0  0
    4.7239   -0.8713   -0.3272 C   0  0  0  0  0  0  0  0  0  0  0  0
    4.2597    0.2079    0.4114 C   0  0  0  0  0  0  0  0  0  0  0  0
    3.0032    0.7285    0.6256 C   0  0  0  0  0  0  0  0  0  0  0  0
    1.8171    0.1934    0.0640 N   0  0  0  0  0  0  0  0  0  0  0  0
    1.1742   -0.9378    0.3796 C   0  0  0  0  0  0  0  0  0  0  0  0
    1.5308   -1.7518    1.2667 O   0  0  0  0  0  0  0  0  0  0  0  0
    0.0688   -1.0747   -0.4102 N   0  0  0  0  0  0  0  0  0  0  0  0
   -0.8896   -2.1673   -0.3802 C   0  0  0  0  0  0  0  0  0  0  0  0
   -1.9666   -1.8609    0.5779 C   0  0  0  0  0  0  0  0  0  0  0  0
   -1.7860   -2.2447    1.9085 C   0  0  0  0  0  0  0  0  0  0  0  0
   -2.7629   -1.9803    2.8341 C   0  0  0  0  0  0  0  0  0  0  0  0
   -3.9173   -1.3382    2.4493 C   0  0  0  0  0  0  0  0  0  0  0  0
   -4.1343   -0.9410    1.1372 C   0  0  0  0  0  0  0  0  0  0  0  0
   -5.3936   -0.2618    0.8108 C   0  0  1  0  0  0  0  0  0  0  0  0
   -6.4203   -1.1979    0.2130 C   0  0  0  0  0  0  0  0  0  0  0  0
   -5.9103    0.3414    1.9831 O   0  0  0  0  0  0  0  0  0  0  0  0
   -6.5856    1.4855    1.5825 C   0  0  0  0  0  0  0  0  0  0  0  0
   -7.5640    2.1569    2.3412 O   0  0  0  0  0  0  0  0  0  0  0  0
   -6.1966    1.8596    0.4105 N   0  0  0  0  0  0  0  0  0  0  0  0
   -5.1938    0.9420   -0.0557 C   0  0  0  0  0  0  0  0  0  0  0  0
   -4.3729    1.1515   -0.9732 O   0  0  0  0  0  0  0  0  0  0  0  0
   -3.1305   -1.2206    0.2214 C   0  0  0  0  0  0  0  0  0  0  0  0
    0.0562   -0.0019   -1.2111 C   0  0  0  0  0  0  0  0  0  0  0  0
   -0.8527    0.3503   -2.2050 C   0  0  0  0  0  0  0  0  0  0  0  0
   -0.6636    1.5091   -2.9080 C   0  0  0  0  0  0  0  0  0  0  0  0
   -1.6255    1.9187   -3.9870 C   0  0  0  0  0  0  0  0  0  0  0  0
   -0.9375    2.4918   -5.0150 F   0  0  0  0  0  0  0  0  0  0  0  0
   -2.2363    0.7517   -4.4374 F   0  0  0  0  0  0  0  0  0  0  0  0
   -2.5579    2.7823   -3.4882 F   0  0  0  0  0  0  0  0  0  0  0  0
    0.4185    2.3130   -2.6281 C   0  0  0  0  0  0  0  0  0  0  0  0
    1.3195    1.9677   -1.6459 C   0  0  0  0  0  0  0  0  0  0  0  0
    1.1296    0.7899   -0.9296 C   0  0  0  0  0  0  0  0  0  0  0  0
    3.1589    1.7838    1.4317 N   0  0  0  0  0  0  0  0  0  0  0  0
    4.4388    1.9319    1.7180 O   0  0  0  0  0  0  0  0  0  0  0  0
    5.1404    0.9998    1.1214 C   0  0  0  0  0  0  0  0  0  0  0  0
    6.5000    0.7146    1.0965 C   0  0  0  0  0  0  0  0  0  0  0  0
    9.1294    1.1727    0.6625 H   0  0  0  0  0  0  0  0  0  0  0  0
    8.9244    0.0996    2.1125 H   0  0  0  0  0  0  0  0  0  0  0  0
   10.2623   -0.2194    0.9616 H   0  0  0  0  0  0  0  0  0  0  0  0
    6.4298   -1.9661   -0.9066 H   0  0  0  0  0  0  0  0  0  0  0  0
    4.0230   -1.4814   -0.8772 H   0  0  0  0  0  0  0  0  0  0  0  0
   -1.2700   -2.3941   -1.3906 H   0  0  0  0  0  0  0  0  0  0  0  0
   -0.3546   -3.0869   -0.0298 H   0  0  0  0  0  0  0  0  0  0  0  0
   -0.8621   -2.7507    2.1811 H   0  0  0  0  0  0  0  0  0  0  0  0
   -2.6115   -2.2850    3.8735 H   0  0  0  0  0  0  0  0  0  0  0  0
   -4.6972   -1.1282    3.1931 H   0  0  0  0  0  0  0  0  0  0  0  0
   -6.0213   -2.2258    0.2573 H   0  0  0  0  0  0  0  0  0  0  0  0
   -6.6440   -0.9224   -0.8522 H   0  0  0  0  0  0  0  0  0  0  0  0
   -7.3771   -1.1765    0.7752 H   0  0  0  0  0  0  0  0  0  0  0  0
   -8.0935    2.8811    1.8624 H   0  0  0  0  0  0  0  0  0  0  0  0
   -3.3056   -0.9137   -0.7849 H   0  0  0  0  0  0  0  0  0  0  0  0
   -1.7053   -0.2734   -2.4356 H   0  0  0  0  0  0  0  0  0  0  0  0
    0.5690    3.2284   -3.1823 H   0  0  0  0  0  0  0  0  0  0  0  0
    2.1850    2.5861   -1.4038 H   0  0  0  0  0  0  0  0  0  0  0  0
    7.1908    1.3419    1.6580 H   0  0  0  0  0  0  0  0  0  0  0  0
  1  2  1  0
  2  3  1  0
  3  4  2  0
  4  5  1  0
  5  6  2  0
  6  7  1  0
  7  8  1  0
  8  9  1  0
  9 10  2  0
  9 11  1  0
 11 12  1  0
 12 13  1  0
 13 14  2  0
 14 15  1  0
 15 16  2  0
 16 17  1  0
 17 18  1  0
 18 19  1  6
 18 20  1  0
 20 21  1  0
 21 22  1  0
 21 23  2  0
 23 24  1  0
 24 25  2  0
 17 26  2  0
 11 27  1  0
 27 28  2  0
 28 29  1  0
 29 30  1  0
 30 31  1  0
 30 32  1  0
 30 33  1  0
 29 34  2  0
 34 35  1  0
 35 36  2  0
  7 37  2  0
 37 38  1  0
 38 39  1  0
 39 40  2  0
 40  3  1  0
 39  6  1  0
 36  8  1  0
 26 13  1  0
 36 27  1  0
 24 18  1  0
  1 41  1  0
  1 42  1  0
  1 43  1  0
  4 44  1  0
  5 45  1  0
 12 46  1  0
 12 47  1  0
 14 48  1  0
 15 49  1  0
 16 50  1  0
 19 51  1  0
 19 52  1  0
 19 53  1  0
 22 54  1  0
 26 55  1  0
 28 56  1  0
 34 57  1  0
 35 58  1  0
 40 59  1  0
M  END
$$$$
