
     RDKit          3D

 37 39  0  0  0  0  0  0  0  0999 V2000
   -1.3155   -3.8991    0.4855 C   0  0  0  0  0  0  0  0  0  0  0  0
   -1.0962   -2.4398    0.6573 C   0  0  0  0  0  0  0  0  0  0  0  0
   -2.1143   -1.5849    1.0113 C   0  0  0  0  0  0  0  0  0  0  0  0
   -1.9500   -0.2263    1.1800 C   0  0  0  0  0  0  0  0  0  0  0  0
   -2.9547    0.6399    1.5327 O   0  0  0  0  0  0  0  0  0  0  0  0
   -3.7688    1.2982    0.6243 C   0  0  0  0  0  0  0  0  0  0  0  0
   -3.4122    2.5402    0.1294 C   0  0  0  0  0  0  0  0  0  0  0  0
   -4.2140    3.1793   -0.7600 N   0  0  0  0  0  0  0  0  0  0  0  0
   -5.3644    2.6623   -1.1993 C   0  0  0  0  0  0  0  0  0  0  0  0
   -5.7417    1.4199   -0.7176 C   0  0  0  0  0  0  0  0  0  0  0  0
   -6.9132    0.8714   -1.1522 F   0  0  0  0  0  0  0  0  0  0  0  0
   -4.9467    0.7305    0.1967 C   0  0  0  0  0  0  0  0  0  0  0  0
   -0.6648    0.2770    0.9720 C   0  0  0  0  0  0  0  0  0  0  0  0
    0.3534   -0.5745    0.6184 C   0  0  0  0  0  0  0  0  0  0  0  0
    1.6789   -0.0114    0.4105 C   0  0  0  0  0  0  0  0  0  0  0  0
    1.9034    1.2380    0.5495 O   0  0  0  0  0  0  0  0  0  0  0  0
    2.8012   -0.8012    0.0434 N   0  0  0  0  0  0  0  0  0  0  0  0
    4.0691   -0.1860   -0.1439 C   0  0  0  0  0  0  0  0  0  0  0  0
    4.5213    0.3122   -1.3268 C   0  0  0  0  0  0  0  0  0  0  0  0
    5.7662    0.8981   -1.4385 C   0  0  0  0  0  0  0  0  0  0  0  0
    6.2117    1.3955   -2.6295 F   0  0  0  0  0  0  0  0  0  0  0  0
    6.5623    0.9738   -0.3137 C   0  0  0  0  0  0  0  0  0  0  0  0
    6.0991    0.4660    0.8873 C   0  0  0  0  0  0  0  0  0  0  0  0
    4.8797   -0.0905    0.9272 N   0  0  0  0  0  0  0  0  0  0  0  0
    0.1346   -1.8853    0.4690 N   0  0  0  0  0  0  0  0  0  0  0  0
   -1.7317   -4.3660    1.4043 H   0  0  0  0  0  0  0  0  0  0  0  0
   -0.3319   -4.3682    0.2920 H   0  0  0  0  0  0  0  0  0  0  0  0
   -1.9881   -4.1076   -0.3903 H   0  0  0  0  0  0  0  0  0  0  0  0
   -3.1127   -1.9846    1.1716 H   0  0  0  0  0  0  0  0  0  0  0  0
   -2.4838    2.9823    0.4695 H   0  0  0  0  0  0  0  0  0  0  0  0
   -6.0209    3.1503   -1.9069 H   0  0  0  0  0  0  0  0  0  0  0  0
   -5.2230   -0.2360    0.5826 H   0  0  0  0  0  0  0  0  0  0  0  0
   -0.4840    1.3422    1.0928 H   0  0  0  0  0  0  0  0  0  0  0  0
    2.6566   -1.8299   -0.0799 H   0  0  0  0  0  0  0  0  0  0  0  0
    3.8932    0.2492   -2.2006 H   0  0  0  0  0  0  0  0  0  0  0  0
    7.5607    1.4333   -0.3619 H   0  0  0  0  0  0  0  0  0  0  0  0
    6.7412    0.5317    1.7759 H   0  0  0  0  0  0  0  0  0  0  0  0
  1  2  1  0
  2  3  2  0
  3  4  1  0
  4  5  1  0
  5  6  1  0
  6  7  2  0
  7  8  1  0
  8  9  2  0
  9 10  1  0
 10 11  1  0
 10 12  2  0
  4 13  2  0
 13 14  1  0
 14 15  1  0
 15 16  2  0
 15 17  1  0
 17 18  1  0
 18 19  2  0
 19 20  1  0
 20 21  1  0
 20 22  2  0
 22 23  1  0
 23 24  2  0
 14 25  2  0
 25  2  1  0
 12  6  1  0
 24 18  1  0
  1 26  1  0
  1 27  1  0
  1 28  1  0
  3 29  1  0
  7 30  1  0
  9 31  1  0
 12 32  1  0
 13 33  1  0
 17 34  1  0
 19 35  1  0
 22 36  1  0
 23 37  1  0
M  END
$$$$
