
     RDKit          3D

 40 41  0  0  0  0  0  0  0  0999 V2000
   -2.9527   -1.7160   -1.2098 C   0  0  0  0  0  0  0  0  0  0  0  0
   -2.5586   -0.2627   -1.3214 C   0  0  2  0  0  0  0  0  0  0  0  0
   -1.2388    0.0120   -0.8385 N   0  0  0  0  0  0  0  0  0  0  0  0
   -1.1379    0.2709    0.5562 C   0  0  2  0  0  0  0  0  0  0  0  0
    0.0960   -0.4528    1.0911 C   0  0  0  0  0  0  0  0  0  0  0  0
    1.3247    0.0313    0.4068 C   0  0  0  0  0  0  0  0  0  0  0  0
    1.3108    0.9178   -0.4859 O   0  0  0  0  0  0  0  0  0  0  0  0
    2.5944   -0.5084    0.7496 N   0  0  0  0  0  0  0  0  0  0  0  0
    3.7902   -0.0524    0.0989 C   0  0  0  0  0  0  0  0  0  0  0  0
    4.4963    1.0074    0.6198 C   0  0  0  0  0  0  0  0  0  0  0  0
    5.6388    1.4060   -0.0440 C   0  0  0  0  0  0  0  0  0  0  0  0
    6.0606    0.7545   -1.2036 C   0  0  0  0  0  0  0  0  0  0  0  0
    5.3203   -0.3040   -1.6895 C   0  0  0  0  0  0  0  0  0  0  0  0
    4.1669   -0.7291   -1.0452 C   0  0  0  0  0  0  0  0  0  0  0  0
   -2.3709   -0.1125    1.3090 C   0  0  1  0  0  0  0  0  0  0  0  0
   -2.2620    0.1965    2.6585 O   0  0  0  0  0  0  0  0  0  0  0  0
   -3.5227    0.7016    0.7596 C   0  0  2  0  0  0  0  0  0  0  0  0
   -4.7128    0.2913    1.3821 O   0  0  0  0  0  0  0  0  0  0  0  0
   -3.6113    0.6594   -0.7272 C   0  0  2  0  0  0  0  0  0  0  0  0
   -4.8611    0.1975   -1.0967 O   0  0  0  0  0  0  0  0  0  0  0  0
   -2.1241   -2.3523   -0.8062 H   0  0  0  0  0  0  0  0  0  0  0  0
   -3.9006   -1.8574   -0.6315 H   0  0  0  0  0  0  0  0  0  0  0  0
   -3.1782   -2.1700   -2.2183 H   0  0  0  0  0  0  0  0  0  0  0  0
   -2.5495   -0.0162   -2.4248 H   0  0  0  0  0  0  0  0  0  0  0  0
   -0.8533    0.8514   -1.3652 H   0  0  0  0  0  0  0  0  0  0  0  0
   -0.9517    1.3521    0.7511 H   0  0  0  0  0  0  0  0  0  0  0  0
    0.0162   -1.5506    0.9173 H   0  0  0  0  0  0  0  0  0  0  0  0
    0.1610   -0.3297    2.2001 H   0  0  0  0  0  0  0  0  0  0  0  0
    2.7244   -1.2424    1.4699 H   0  0  0  0  0  0  0  0  0  0  0  0
    4.1514    1.4979    1.5195 H   0  0  0  0  0  0  0  0  0  0  0  0
    6.2076    2.2280    0.3392 H   0  0  0  0  0  0  0  0  0  0  0  0
    6.9641    1.0863   -1.7096 H   0  0  0  0  0  0  0  0  0  0  0  0
    5.6185   -0.8282   -2.5821 H   0  0  0  0  0  0  0  0  0  0  0  0
    3.6128   -1.5604   -1.4535 H   0  0  0  0  0  0  0  0  0  0  0  0
   -2.5694   -1.2106    1.2571 H   0  0  0  0  0  0  0  0  0  0  0  0
   -1.9185   -0.5340    3.2076 H   0  0  0  0  0  0  0  0  0  0  0  0
   -3.3591    1.7567    1.0797 H   0  0  0  0  0  0  0  0  0  0  0  0
   -4.6121    0.5693    2.3422 H   0  0  0  0  0  0  0  0  0  0  0  0
   -3.4624    1.6575   -1.1958 H   0  0  0  0  0  0  0  0  0  0  0  0
   -5.5470    0.3442   -0.3725 H   0  0  0  0  0  0  0  0  0  0  0  0
  1  2  1  0
  2  3  1  0
  3  4  1  0
  4  5  1  0
  5  6  1  0
  6  7  2  0
  6  8  1  0
  8  9  1  0
  9 10  2  0
 10 11  1  0
 11 12  2  0
 12 13  1  0
 13 14  2  0
  4 15  1  0
 15 16  1  0
 15 17  1  0
 17 18  1  0
 17 19  1  0
 19 20  1  0
 19  2  1  0
 14  9  1  0
  1 21  1  0
  1 22  1  0
  1 23  1  0
  2 24  1  6
  3 25  1  0
  4 26  1  6
  5 27  1  0
  5 28  1  0
  8 29  1  0
 10 30  1  0
 11 31  1  0
 12 32  1  0
 13 33  1  0
 14 34  1  0
 15 35  1  1
 16 36  1  0
 17 37  1  6
 18 38  1  0
 19 39  1  6
 20 40  1  0
M  END
$$$$
