
     RDKit          3D

 45 48  0  0  0  0  0  0  0  0999 V2000
    5.6973    1.4136   -1.8978 C   0  0  0  0  0  0  0  0  0  0  0  0
    5.3301    0.4508   -1.2879 C   0  0  0  0  0  0  0  0  0  0  0  0
    4.9044   -0.7296   -0.5318 C   0  0  0  0  0  0  0  0  0  0  0  0
    4.5903   -0.3434    0.8216 N   0  0  0  0  0  0  0  0  0  0  0  0
    4.1657   -1.4288    1.6332 C   0  0  0  0  0  0  0  0  0  0  0  0
    2.8900   -1.1943    2.3898 C   0  0  0  0  0  0  0  0  0  0  0  0
    1.8648   -0.5194    1.5314 C   0  0  0  0  0  0  0  0  0  0  0  0
    0.5769   -0.8828    1.5097 N   0  0  0  0  0  0  0  0  0  0  0  0
   -0.3045   -0.2373    0.7146 C   0  0  0  0  0  0  0  0  0  0  0  0
   -1.6015   -0.5645    0.6589 N   0  0  0  0  0  0  0  0  0  0  0  0
   -2.4921    0.0674   -0.1269 C   0  0  0  0  0  0  0  0  0  0  0  0
   -3.8679   -0.2913   -0.1760 N   0  0  0  0  0  0  0  0  0  0  0  0
   -4.6788   -0.7425   -1.2675 C   0  0  0  0  0  0  0  0  0  0  0  0
   -5.6312   -1.7432   -0.6223 C   0  0  0  0  0  0  0  0  0  0  0  0
   -5.9403   -1.0584    0.6938 C   0  0  0  0  0  0  0  0  0  0  0  0
   -4.7159   -0.2387    1.0071 C   0  0  0  0  0  0  0  0  0  0  0  0
   -2.0388    1.1048   -0.9131 C   0  0  0  0  0  0  0  0  0  0  0  0
   -2.9642    1.7881   -1.7528 C   0  0  0  0  0  0  0  0  0  0  0  0
   -3.7069    2.3570   -2.4279 N   0  0  0  0  0  0  0  0  0  0  0  0
   -0.7058    1.5015   -0.9085 C   0  0  0  0  0  0  0  0  0  0  0  0
    0.1414    0.7960   -0.0699 C   0  0  0  0  0  0  0  0  0  0  0  0
    1.4695    1.1915   -0.0657 C   0  0  0  0  0  0  0  0  0  0  0  0
    1.9383    2.2442   -0.8610 N   0  0  0  0  0  0  0  0  0  0  0  0
    2.3520    0.5266    0.7468 C   0  0  0  0  0  0  0  0  0  0  0  0
    3.7839    0.8274    0.8612 C   0  0  0  0  0  0  0  0  0  0  0  0
    6.0429    2.2699   -2.4511 H   0  0  0  0  0  0  0  0  0  0  0  0
    4.0120   -1.2109   -0.9841 H   0  0  0  0  0  0  0  0  0  0  0  0
    5.7427   -1.4635   -0.5756 H   0  0  0  0  0  0  0  0  0  0  0  0
    3.9677   -2.3035    0.9464 H   0  0  0  0  0  0  0  0  0  0  0  0
    4.9240   -1.7846    2.3563 H   0  0  0  0  0  0  0  0  0  0  0  0
    2.4883   -2.1891    2.6849 H   0  0  0  0  0  0  0  0  0  0  0  0
    3.0083   -0.6030    3.3049 H   0  0  0  0  0  0  0  0  0  0  0  0
   -4.1172   -1.1905   -2.0990 H   0  0  0  0  0  0  0  0  0  0  0  0
   -5.3314    0.1118   -1.5943 H   0  0  0  0  0  0  0  0  0  0  0  0
   -6.5281   -1.8741   -1.2515 H   0  0  0  0  0  0  0  0  0  0  0  0
   -5.1492   -2.7204   -0.4653 H   0  0  0  0  0  0  0  0  0  0  0  0
   -6.1627   -1.7459    1.5081 H   0  0  0  0  0  0  0  0  0  0  0  0
   -6.7872   -0.3381    0.5031 H   0  0  0  0  0  0  0  0  0  0  0  0
   -4.1951   -0.6324    1.8988 H   0  0  0  0  0  0  0  0  0  0  0  0
   -4.9388    0.8317    1.1822 H   0  0  0  0  0  0  0  0  0  0  0  0
   -0.3399    2.3181   -1.5250 H   0  0  0  0  0  0  0  0  0  0  0  0
    1.7794    2.2528   -1.8747 H   0  0  0  0  0  0  0  0  0  0  0  0
    2.4564    3.0290   -0.4110 H   0  0  0  0  0  0  0  0  0  0  0  0
    4.0602    1.4626   -0.0298 H   0  0  0  0  0  0  0  0  0  0  0  0
    4.0107    1.4854    1.7455 H   0  0  0  0  0  0  0  0  0  0  0  0
  1  2  3  0
  2  3  1  0
  3  4  1  0
  4  5  1  0
  5  6  1  0
  6  7  1  0
  7  8  2  0
  8  9  1  0
  9 10  2  0
 10 11  1  0
 11 12  1  0
 12 13  1  0
 13 14  1  0
 14 15  1  0
 15 16  1  0
 11 17  2  0
 17 18  1  0
 18 19  3  0
 17 20  1  0
 20 21  2  0
 21 22  1  0
 22 23  1  0
 22 24  2  0
 24 25  1  0
 25  4  1  0
 24  7  1  0
 21  9  1  0
 16 12  1  0
  1 26  1  0
  3 27  1  0
  3 28  1  0
  5 29  1  0
  5 30  1  0
  6 31  1  0
  6 32  1  0
 13 33  1  0
 13 34  1  0
 14 35  1  0
 14 36  1  0
 15 37  1  0
 15 38  1  0
 16 39  1  0
 16 40  1  0
 20 41  1  0
 23 42  1  0
 23 43  1  0
 25 44  1  0
 25 45  1  0
M  END
$$$$
