
     RDKit          3D

 54 58  0  0  0  0  0  0  0  0999 V2000
   -6.4347    0.2981   -3.0967 C   0  0  0  0  0  0  0  0  0  0  0  0
   -5.9289    0.2997   -1.6670 C   0  0  2  0  0  0  0  0  0  0  0  0
   -6.6192    1.2780   -0.8501 N   0  0  0  0  0  0  0  0  0  0  0  0
   -4.4758    0.6778   -1.6813 C   0  0  0  0  0  0  0  0  0  0  0  0
   -4.0563    1.6727   -1.0649 O   0  0  0  0  0  0  0  0  0  0  0  0
   -3.5598   -0.1156   -2.4129 N   0  0  0  0  0  0  0  0  0  0  0  0
   -2.1523    0.1154   -2.5181 C   0  0  0  0  0  0  0  0  0  0  0  0
   -1.4680   -0.3270   -1.2799 C   0  0  0  0  0  0  0  0  0  0  0  0
   -1.0600   -1.6574   -1.1346 C   0  0  0  0  0  0  0  0  0  0  0  0
   -0.4216   -2.0489    0.0069 C   0  0  0  0  0  0  0  0  0  0  0  0
   -0.1534   -1.1822    1.0443 C   0  0  0  0  0  0  0  0  0  0  0  0
   -0.5444    0.1335    0.9266 C   0  0  0  0  0  0  0  0  0  0  0  0
   -0.2950    1.0747    1.9646 N   0  0  0  0  0  0  0  0  0  0  0  0
   -1.2603    1.7848    2.5728 N   0  0  0  0  0  0  0  0  0  0  0  0
   -0.7124    2.5837    3.5053 C   0  0  0  0  0  0  0  0  0  0  0  0
   -1.3810    3.5423    4.4221 C   0  0  0  0  0  0  0  0  0  0  0  0
   -1.9759    2.9128    5.4956 F   0  0  0  0  0  0  0  0  0  0  0  0
   -0.5305    4.5034    4.8885 F   0  0  0  0  0  0  0  0  0  0  0  0
   -2.4126    4.2098    3.7499 F   0  0  0  0  0  0  0  0  0  0  0  0
    0.6384    2.3359    3.4471 C   0  0  0  0  0  0  0  0  0  0  0  0
    0.8961    1.3877    2.4782 C   0  0  0  0  0  0  0  0  0  0  0  0
    2.2154    0.8595    2.1169 C   0  0  0  0  0  0  0  0  0  0  0  0
    3.3787    1.2261    2.6849 N   0  0  0  0  0  0  0  0  0  0  0  0
    4.3642    0.5513    2.1165 N   0  0  0  0  0  0  0  0  0  0  0  0
    3.8261   -0.2349    1.1968 C   0  0  0  0  0  0  0  0  0  0  0  0
    4.5191   -1.1692    0.3071 C   0  0  0  0  0  0  0  0  0  0  0  0
    3.8103   -1.9300   -0.6115 C   0  0  0  0  0  0  0  0  0  0  0  0
    4.5547   -2.7694   -1.3924 C   0  0  0  0  0  0  0  0  0  0  0  0
    5.9119   -2.9172   -1.3432 C   0  0  0  0  0  0  0  0  0  0  0  0
    6.6481   -2.1511   -0.4147 C   0  0  0  0  0  0  0  0  0  0  0  0
    7.9093   -2.1378   -0.2086 N   0  0  0  0  0  0  0  0  0  0  0  0
    8.5818   -1.4705    0.6048 C   0  0  0  0  0  0  0  0  0  0  0  0
    7.1488   -0.5195    1.3999 S   0  0  0  0  0  0  0  0  0  0  0  0
    5.8643   -1.2814    0.3925 C   0  0  0  0  0  0  0  0  0  0  0  0
    2.5327   -0.0230    1.2252 O   0  0  0  0  0  0  0  0  0  0  0  0
   -1.1963    0.5146   -0.2496 C   0  0  0  0  0  0  0  0  0  0  0  0
   -6.0889    1.1909   -3.6560 H   0  0  0  0  0  0  0  0  0  0  0  0
   -6.0297   -0.5931   -3.6026 H   0  0  0  0  0  0  0  0  0  0  0  0
   -7.5318    0.2192   -3.0803 H   0  0  0  0  0  0  0  0  0  0  0  0
   -6.0430   -0.7168   -1.2744 H   0  0  0  0  0  0  0  0  0  0  0  0
   -7.1067    0.8378   -0.0568 H   0  0  0  0  0  0  0  0  0  0  0  0
   -7.2402    1.8262   -1.4870 H   0  0  0  0  0  0  0  0  0  0  0  0
   -3.9400   -0.9510   -2.9279 H   0  0  0  0  0  0  0  0  0  0  0  0
   -1.6907   -0.3916   -3.3794 H   0  0  0  0  0  0  0  0  0  0  0  0
   -2.0039    1.2073   -2.6940 H   0  0  0  0  0  0  0  0  0  0  0  0
   -1.2865   -2.3179   -1.9714 H   0  0  0  0  0  0  0  0  0  0  0  0
   -0.1257   -3.0978    0.0667 H   0  0  0  0  0  0  0  0  0  0  0  0
    0.3609   -1.5506    1.9366 H   0  0  0  0  0  0  0  0  0  0  0  0
    1.3753    2.8180    4.0715 H   0  0  0  0  0  0  0  0  0  0  0  0
    2.7511   -1.8181   -0.6535 H   0  0  0  0  0  0  0  0  0  0  0  0
    3.9765   -3.3667   -2.1165 H   0  0  0  0  0  0  0  0  0  0  0  0
    6.3771   -3.6125   -2.0129 H   0  0  0  0  0  0  0  0  0  0  0  0
    9.5561   -1.2824    0.9537 H   0  0  0  0  0  0  0  0  0  0  0  0
   -1.4714    1.5722   -0.2794 H   0  0  0  0  0  0  0  0  0  0  0  0
  1  2  1  0
  2  3  1  0
  2  4  1  0
  4  5  2  0
  4  6  1  0
  6  7  1  0
  7  8  1  0
  8  9  2  0
  9 10  1  0
 10 11  2  0
 11 12  1  0
 12 13  1  0
 13 14  1  0
 14 15  2  0
 15 16  1  0
 16 17  1  0
 16 18  1  0
 16 19  1  0
 15 20  1  0
 20 21  2  0
 21 22  1  0
 22 23  2  0
 23 24  1  0
 24 25  2  0
 25 26  1  0
 26 27  2  0
 27 28  1  0
 28 29  2  0
 29 30  1  0
 30 31  1  0
 31 32  2  0
 32 33  1  0
 33 34  1  0
 25 35  1  0
 12 36  2  0
 36  8  1  0
 21 13  1  0
 35 22  1  0
 34 26  1  0
 34 30  2  0
  1 37  1  0
  1 38  1  0
  1 39  1  0
  2 40  1  1
  3 41  1  0
  3 42  1  0
  6 43  1  0
  7 44  1  0
  7 45  1  0
  9 46  1  0
 10 47  1  0
 11 48  1  0
 20 49  1  0
 27 50  1  0
 28 51  1  0
 29 52  1  0
 32 53  1  0
 36 54  1  0
M  END
$$$$
