
     RDKit          3D

 52 53  0  0  0  0  0  0  0  0999 V2000
    2.8279    0.5977    2.7645 C   0  0  0  0  0  0  0  0  0  0  0  0
    2.7526   -0.4344    1.6810 C   0  0  0  0  0  0  0  0  0  0  0  0
    2.1673    0.1616    0.4991 N   0  0  0  0  0  0  0  0  0  0  0  0
    0.7362    0.1269    0.3045 C   0  0  0  0  0  0  0  0  0  0  0  0
    0.3097   -1.0883   -0.4354 C   0  0  0  0  0  0  0  0  0  0  0  0
    1.2182   -2.0377   -0.8753 C   0  0  0  0  0  0  0  0  0  0  0  0
    0.8310   -3.1687   -1.5630 C   0  0  0  0  0  0  0  0  0  0  0  0
    1.8367   -4.1724   -2.0230 C   0  0  0  0  0  0  0  0  0  0  0  0
    3.0687   -3.5513   -2.0065 F   0  0  0  0  0  0  0  0  0  0  0  0
    1.5198   -4.6723   -3.2650 F   0  0  0  0  0  0  0  0  0  0  0  0
    1.9120   -5.2422   -1.1508 F   0  0  0  0  0  0  0  0  0  0  0  0
   -0.5190   -3.3179   -1.7983 C   0  0  0  0  0  0  0  0  0  0  0  0
   -1.4247   -2.3732   -1.3608 C   0  0  0  0  0  0  0  0  0  0  0  0
   -1.0417   -1.2405   -0.6726 C   0  0  0  0  0  0  0  0  0  0  0  0
   -1.9841   -0.2311   -0.2026 C   0  0  0  0  0  0  0  0  0  0  0  0
   -2.3368    0.8539   -1.0029 C   0  0  0  0  0  0  0  0  0  0  0  0
   -3.2266    1.8124   -0.5667 C   0  0  0  0  0  0  0  0  0  0  0  0
   -3.5943    2.9639   -1.4312 C   0  0  0  0  0  0  0  0  0  0  0  0
   -2.6994    4.1241   -1.2420 C   0  0  0  0  0  0  0  0  0  0  0  0
   -1.7608    4.0482   -0.4183 O   0  0  0  0  0  0  0  0  0  0  0  0
   -2.9422    5.2543   -1.9922 O   0  0  0  0  0  0  0  0  0  0  0  0
   -3.7589    1.6594    0.6969 C   0  0  0  0  0  0  0  0  0  0  0  0
   -3.4080    0.5739    1.5014 C   0  0  0  0  0  0  0  0  0  0  0  0
   -2.5199   -0.3809    1.0634 C   0  0  0  0  0  0  0  0  0  0  0  0
   -2.1535   -1.4799    1.8556 O   0  0  0  0  0  0  0  0  0  0  0  0
   -2.6998   -1.6361    3.1508 C   0  0  0  0  0  0  0  0  0  0  0  0
    3.0539    0.7689   -0.4384 C   0  0  0  0  0  0  0  0  0  0  0  0
    2.5512    1.2834   -1.4580 O   0  0  0  0  0  0  0  0  0  0  0  0
    4.4217    0.8021   -0.2525 O   0  0  0  0  0  0  0  0  0  0  0  0
    5.3129    1.3965   -1.1660 C   0  0  0  0  0  0  0  0  0  0  0  0
    2.7800    1.6407    2.3933 H   0  0  0  0  0  0  0  0  0  0  0  0
    2.0304    0.4517    3.5290 H   0  0  0  0  0  0  0  0  0  0  0  0
    3.8263    0.5175    3.2844 H   0  0  0  0  0  0  0  0  0  0  0  0
    2.1304   -1.3184    1.9652 H   0  0  0  0  0  0  0  0  0  0  0  0
    3.7697   -0.8386    1.4605 H   0  0  0  0  0  0  0  0  0  0  0  0
    0.4670    1.0192   -0.2992 H   0  0  0  0  0  0  0  0  0  0  0  0
    0.1837    0.2360    1.2673 H   0  0  0  0  0  0  0  0  0  0  0  0
    2.2746   -1.8953   -0.6765 H   0  0  0  0  0  0  0  0  0  0  0  0
   -0.8568   -4.2011   -2.3391 H   0  0  0  0  0  0  0  0  0  0  0  0
   -2.4994   -2.5083   -1.5574 H   0  0  0  0  0  0  0  0  0  0  0  0
   -1.9102    0.9593   -1.9918 H   0  0  0  0  0  0  0  0  0  0  0  0
   -3.6109    2.7023   -2.5039 H   0  0  0  0  0  0  0  0  0  0  0  0
   -4.6212    3.2969   -1.1674 H   0  0  0  0  0  0  0  0  0  0  0  0
   -2.2072    5.9396   -2.1338 H   0  0  0  0  0  0  0  0  0  0  0  0
   -4.4637    2.4206    1.0396 H   0  0  0  0  0  0  0  0  0  0  0  0
   -3.8392    0.4770    2.4882 H   0  0  0  0  0  0  0  0  0  0  0  0
   -2.5771   -2.6840    3.5020 H   0  0  0  0  0  0  0  0  0  0  0  0
   -2.2197   -0.9742    3.8994 H   0  0  0  0  0  0  0  0  0  0  0  0
   -3.7896   -1.4385    3.1779 H   0  0  0  0  0  0  0  0  0  0  0  0
    6.0135    0.6678   -1.6178 H   0  0  0  0  0  0  0  0  0  0  0  0
    5.8843    2.1848   -0.5950 H   0  0  0  0  0  0  0  0  0  0  0  0
    4.7851    1.9444   -1.9734 H   0  0  0  0  0  0  0  0  0  0  0  0
  1  2  1  0
  2  3  1  0
  3  4  1  0
  4  5  1  0
  5  6  2  0
  6  7  1  0
  7  8  1  0
  8  9  1  0
  8 10  1  0
  8 11  1  0
  7 12  2  0
 12 13  1  0
 13 14  2  0
 14 15  1  0
 15 16  2  0
 16 17  1  0
 17 18  1  0
 18 19  1  0
 19 20  2  0
 19 21  1  0
 17 22  2  0
 22 23  1  0
 23 24  2  0
 24 25  1  0
 25 26  1  0
  3 27  1  0
 27 28  2  0
 27 29  1  0
 29 30  1  0
 14  5  1  0
 24 15  1  0
  1 31  1  0
  1 32  1  0
  1 33  1  0
  2 34  1  0
  2 35  1  0
  4 36  1  0
  4 37  1  0
  6 38  1  0
 12 39  1  0
 13 40  1  0
 16 41  1  0
 18 42  1  0
 18 43  1  0
 21 44  1  0
 22 45  1  0
 23 46  1  0
 26 47  1  0
 26 48  1  0
 26 49  1  0
 30 50  1  0
 30 51  1  0
 30 52  1  0
M  END
$$$$
