
     RDKit          3D

 31 32  0  0  0  0  0  0  0  0999 V2000
   -0.1946    1.8979   -1.5861 C   0  0  0  0  0  0  0  0  0  0  0  0
   -0.6963    1.4703   -0.2381 C   0  0  0  0  0  0  0  0  0  0  0  0
   -0.4767    0.0191    0.0627 C   0  0  0  0  0  0  0  0  0  0  0  0
   -1.0064   -0.3395    1.4335 C   0  0  0  0  0  0  0  0  0  0  0  0
   -2.4887   -0.4767    1.5123 C   0  0  0  0  0  0  0  0  0  0  0  0
   -3.1897   -0.2866    0.2148 C   0  0  0  0  0  0  0  0  0  0  0  0
   -4.3021    0.2996    0.1559 O   0  0  0  0  0  0  0  0  0  0  0  0
   -2.5565   -0.7918   -0.9575 N   0  0  0  0  0  0  0  0  0  0  0  0
   -1.1334   -0.8717   -0.9281 C   0  0  0  0  0  0  0  0  0  0  0  0
   -0.5875   -1.6889   -1.7457 O   0  0  0  0  0  0  0  0  0  0  0  0
    0.9798   -0.2450    0.0700 C   0  0  0  0  0  0  0  0  0  0  0  0
    1.7604   -0.3958   -1.0545 C   0  0  0  0  0  0  0  0  0  0  0  0
    3.1172   -0.6405   -1.0277 C   0  0  0  0  0  0  0  0  0  0  0  0
    3.7689   -0.7477    0.1809 C   0  0  0  0  0  0  0  0  0  0  0  0
    3.0405   -0.6060    1.3422 C   0  0  0  0  0  0  0  0  0  0  0  0
    1.6850   -0.3620    1.2633 C   0  0  0  0  0  0  0  0  0  0  0  0
   -0.6132    2.8977   -1.8459 H   0  0  0  0  0  0  0  0  0  0  0  0
   -0.4994    1.2317   -2.4043 H   0  0  0  0  0  0  0  0  0  0  0  0
    0.9042    2.0166   -1.6357 H   0  0  0  0  0  0  0  0  0  0  0  0
   -0.2376    2.1258    0.5286 H   0  0  0  0  0  0  0  0  0  0  0  0
   -1.7874    1.6963   -0.2019 H   0  0  0  0  0  0  0  0  0  0  0  0
   -0.7018    0.4493    2.1568 H   0  0  0  0  0  0  0  0  0  0  0  0
   -0.4987   -1.2792    1.7410 H   0  0  0  0  0  0  0  0  0  0  0  0
   -2.9405    0.2042    2.2583 H   0  0  0  0  0  0  0  0  0  0  0  0
   -2.7483   -1.5307    1.8257 H   0  0  0  0  0  0  0  0  0  0  0  0
   -3.1556   -1.0795   -1.7808 H   0  0  0  0  0  0  0  0  0  0  0  0
    1.2862   -0.3193   -2.0208 H   0  0  0  0  0  0  0  0  0  0  0  0
    3.6720   -0.7488   -1.9614 H   0  0  0  0  0  0  0  0  0  0  0  0
    4.8270   -0.9389    0.1501 H   0  0  0  0  0  0  0  0  0  0  0  0
    3.5674   -0.6930    2.2759 H   0  0  0  0  0  0  0  0  0  0  0  0
    1.2058   -0.2670    2.2165 H   0  0  0  0  0  0  0  0  0  0  0  0
  1  2  1  0
  2  3  1  0
  3  4  1  0
  4  5  1  0
  5  6  1  0
  6  7  2  0
  6  8  1  0
  8  9  1  0
  9 10  2  0
  3 11  1  0
 11 12  2  0
 12 13  1  0
 13 14  2  0
 14 15  1  0
 15 16  2  0
  9  3  1  0
 16 11  1  0
  1 17  1  0
  1 18  1  0
  1 19  1  0
  2 20  1  0
  2 21  1  0
  4 22  1  0
  4 23  1  0
  5 24  1  0
  5 25  1  0
  8 26  1  0
 12 27  1  0
 13 28  1  0
 14 29  1  0
 15 30  1  0
 16 31  1  0
M  END
$$$$
