
     RDKit          3D

 70 74  0  0  0  0  0  0  0  0999 V2000
    7.9247    4.0603   -2.7057 C   0  0  0  0  0  0  0  0  0  0  0  0
    7.2049    3.0697   -2.0201 O   0  0  0  0  0  0  0  0  0  0  0  0
    7.8587    2.1304   -1.2367 C   0  0  0  0  0  0  0  0  0  0  0  0
    9.1722    2.0042   -1.0093 N   0  0  0  0  0  0  0  0  0  0  0  0
    9.3988    0.9847   -0.2071 N   0  0  0  0  0  0  0  0  0  0  0  0
   10.6975    0.5222    0.2760 C   0  0  0  0  0  0  0  0  0  0  0  0
    8.2166    0.4130    0.1123 C   0  0  0  0  0  0  0  0  0  0  0  0
    7.2311    1.1112   -0.5199 C   0  0  0  0  0  0  0  0  0  0  0  0
    5.8356    0.9095   -0.5042 N   0  0  0  0  0  0  0  0  0  0  0  0
    5.2118   -0.1312    0.2294 C   0  0  0  0  0  0  0  0  0  0  0  0
    5.8916   -1.0040    0.9618 N   0  0  0  0  0  0  0  0  0  0  0  0
    5.3037   -1.9862    1.6546 C   0  0  0  0  0  0  0  0  0  0  0  0
    3.9115   -2.1338    1.6320 C   0  0  0  0  0  0  0  0  0  0  0  0
    3.3354   -3.1365    2.3413 F   0  0  0  0  0  0  0  0  0  0  0  0
    3.2007   -1.2432    0.8830 C   0  0  0  0  0  0  0  0  0  0  0  0
    1.7463   -1.3253    0.8046 C   0  0  0  0  0  0  0  0  0  0  0  0
    0.9027   -2.2207    1.4094 C   0  0  0  0  0  0  0  0  0  0  0  0
   -0.3945   -1.9601    1.0847 N   0  0  0  0  0  0  0  0  0  0  0  0
   -0.3536   -0.9011    0.2771 C   0  0  0  0  0  0  0  0  0  0  0  0
   -1.3608   -0.2270   -0.3365 C   0  0  0  0  0  0  0  0  0  0  0  0
   -2.7066   -0.6274   -0.1590 N   0  0  0  0  0  0  0  0  0  0  0  0
   -3.3598   -1.5631   -0.9930 C   0  0  0  0  0  0  0  0  0  0  0  0
   -2.6733   -2.0598   -1.9424 O   0  0  0  0  0  0  0  0  0  0  0  0
   -4.7604   -2.0136   -0.8578 C   0  0  1  0  0  0  0  0  0  0  0  0
   -4.8513   -3.4680   -0.4745 C   0  0  0  0  0  0  0  0  0  0  0  0
   -5.4990   -1.1504    0.0408 N   0  0  0  0  0  0  0  0  0  0  0  0
   -6.8092   -1.7137    0.3564 C   0  0  0  0  0  0  0  0  0  0  0  0
   -7.7767   -0.5912    0.6457 C   0  0  0  0  0  0  0  0  0  0  0  0
   -7.1211    0.5683    1.2338 N   0  0  0  0  0  0  0  0  0  0  0  0
   -8.1319    1.5358    1.5828 C   0  0  0  0  0  0  0  0  0  0  0  0
   -6.2936    1.1597    0.1876 C   0  0  1  0  0  0  0  0  0  0  0  0
   -5.3191    2.1023    0.8105 C   0  0  0  0  0  0  0  0  0  0  0  0
   -5.6884    0.1110   -0.6842 C   0  0  0  0  0  0  0  0  0  0  0  0
   -1.0980    0.8568   -1.1417 C   0  0  0  0  0  0  0  0  0  0  0  0
    0.1900    1.2956   -1.3539 C   0  0  0  0  0  0  0  0  0  0  0  0
    1.2325    0.6122   -0.7297 C   0  0  0  0  0  0  0  0  0  0  0  0
    0.9509   -0.4702    0.0727 C   0  0  0  0  0  0  0  0  0  0  0  0
    3.8622   -0.2810    0.2127 N   0  0  0  0  0  0  0  0  0  0  0  0
    8.6145    4.5391   -1.9849 H   0  0  0  0  0  0  0  0  0  0  0  0
    8.4139    3.6759   -3.6019 H   0  0  0  0  0  0  0  0  0  0  0  0
    7.2284    4.8728   -3.0346 H   0  0  0  0  0  0  0  0  0  0  0  0
   10.5430    0.0427    1.2658 H   0  0  0  0  0  0  0  0  0  0  0  0
   11.3347    1.4041    0.4236 H   0  0  0  0  0  0  0  0  0  0  0  0
   11.1356   -0.2386   -0.3907 H   0  0  0  0  0  0  0  0  0  0  0  0
    8.1264   -0.4480    0.7618 H   0  0  0  0  0  0  0  0  0  0  0  0
    5.1800    1.5433   -1.0538 H   0  0  0  0  0  0  0  0  0  0  0  0
    5.8439   -2.7013    2.2532 H   0  0  0  0  0  0  0  0  0  0  0  0
    1.1501   -3.0400    2.0612 H   0  0  0  0  0  0  0  0  0  0  0  0
   -1.2353   -2.4903    1.4099 H   0  0  0  0  0  0  0  0  0  0  0  0
   -3.2384   -0.2172    0.6369 H   0  0  0  0  0  0  0  0  0  0  0  0
   -5.2184   -1.9400   -1.8880 H   0  0  0  0  0  0  0  0  0  0  0  0
   -4.7545   -3.6410    0.6152 H   0  0  0  0  0  0  0  0  0  0  0  0
   -5.8149   -3.8681   -0.8817 H   0  0  0  0  0  0  0  0  0  0  0  0
   -4.0518   -3.9969   -1.0579 H   0  0  0  0  0  0  0  0  0  0  0  0
   -6.7037   -2.3069    1.2880 H   0  0  0  0  0  0  0  0  0  0  0  0
   -7.2139   -2.3420   -0.4335 H   0  0  0  0  0  0  0  0  0  0  0  0
   -8.5387   -0.9209    1.4070 H   0  0  0  0  0  0  0  0  0  0  0  0
   -8.3417   -0.3485   -0.2626 H   0  0  0  0  0  0  0  0  0  0  0  0
   -8.3287    1.5412    2.6916 H   0  0  0  0  0  0  0  0  0  0  0  0
   -9.0487    1.3241    0.9991 H   0  0  0  0  0  0  0  0  0  0  0  0
   -7.7731    2.5788    1.3430 H   0  0  0  0  0  0  0  0  0  0  0  0
   -7.0096    1.7451   -0.4536 H   0  0  0  0  0  0  0  0  0  0  0  0
   -5.2964    2.0698    1.9182 H   0  0  0  0  0  0  0  0  0  0  0  0
   -4.2652    1.9434    0.4624 H   0  0  0  0  0  0  0  0  0  0  0  0
   -5.5452    3.1644    0.5436 H   0  0  0  0  0  0  0  0  0  0  0  0
   -6.3121   -0.1429   -1.5674 H   0  0  0  0  0  0  0  0  0  0  0  0
   -4.7091    0.4393   -1.0435 H   0  0  0  0  0  0  0  0  0  0  0  0
   -1.8868    1.4121   -1.6431 H   0  0  0  0  0  0  0  0  0  0  0  0
    0.3870    2.1360   -1.9788 H   0  0  0  0  0  0  0  0  0  0  0  0
    2.2466    0.9715   -0.9074 H   0  0  0  0  0  0  0  0  0  0  0  0
  1  2  1  0
  2  3  1  0
  3  4  2  0
  4  5  1  0
  5  6  1  0
  5  7  1  0
  7  8  2  0
  8  9  1  0
  9 10  1  0
 10 11  2  0
 11 12  1  0
 12 13  2  0
 13 14  1  0
 13 15  1  0
 15 16  1  0
 16 17  2  0
 17 18  1  0
 18 19  1  0
 19 20  2  0
 20 21  1  0
 21 22  1  0
 22 23  2  0
 22 24  1  0
 24 25  1  0
 24 26  1  0
 26 27  1  0
 27 28  1  0
 28 29  1  0
 29 30  1  0
 29 31  1  0
 31 32  1  0
 31 33  1  0
 20 34  1  0
 34 35  2  0
 35 36  1  0
 36 37  2  0
 15 38  2  0
  8  3  1  0
 38 10  1  0
 37 16  1  0
 37 19  1  0
 33 26  1  0
  1 39  1  0
  1 40  1  0
  1 41  1  0
  6 42  1  0
  6 43  1  0
  6 44  1  0
  7 45  1  0
  9 46  1  0
 12 47  1  0
 17 48  1  0
 18 49  1  0
 21 50  1  0
 24 51  1  6
 25 52  1  0
 25 53  1  0
 25 54  1  0
 27 55  1  0
 27 56  1  0
 28 57  1  0
 28 58  1  0
 30 59  1  0
 30 60  1  0
 30 61  1  0
 31 62  1  6
 32 63  1  0
 32 64  1  0
 32 65  1  0
 33 66  1  0
 33 67  1  0
 34 68  1  0
 35 69  1  0
 36 70  1  0
M  END
$$$$
