
     RDKit          3D

 89 94  0  0  0  0  0  0  0  0999 V2000
    8.5570    3.2752    4.8338 C   0  0  0  0  0  0  0  0  0  0  0  0
    7.6591    2.5648    4.0186 O   0  0  0  0  0  0  0  0  0  0  0  0
    8.1621    1.9164    2.8876 C   0  0  0  0  0  0  0  0  0  0  0  0
    9.4913    1.9755    2.5933 C   0  0  0  0  0  0  0  0  0  0  0  0
    9.9777    1.3196    1.4560 C   0  0  0  0  0  0  0  0  0  0  0  0
    9.1176    0.6253    0.6508 C   0  0  0  0  0  0  0  0  0  0  0  0
    9.5795   -0.0840   -0.5421 C   0  0  0  0  0  0  0  0  0  0  0  0
    8.7051   -0.6720   -1.2588 O   0  0  0  0  0  0  0  0  0  0  0  0
   10.9298   -0.1444   -0.9254 N   0  0  0  0  0  0  0  0  0  0  0  0
   11.4578   -0.8071   -2.0766 C   0  0  0  0  0  0  0  0  0  0  0  0
   10.9734   -0.2475   -3.3648 C   0  0  0  0  0  0  0  0  0  0  0  0
    9.6219   -0.2989   -3.5512 O   0  0  0  0  0  0  0  0  0  0  0  0
    7.7545    0.5816    0.9784 C   0  0  0  0  0  0  0  0  0  0  0  0
    7.2536    1.2136    2.0825 C   0  0  0  0  0  0  0  0  0  0  0  0
    5.8956    1.1865    2.4766 N   0  0  0  0  0  0  0  0  0  0  0  0
    4.8058    0.6672    1.7698 C   0  0  0  0  0  0  0  0  0  0  0  0
    4.8960    0.2239    0.5118 N   0  0  0  0  0  0  0  0  0  0  0  0
    3.8757   -0.2788   -0.2019 C   0  0  0  0  0  0  0  0  0  0  0  0
    2.6359   -0.3481    0.3984 C   0  0  0  0  0  0  0  0  0  0  0  0
    2.5013    0.0991    1.6955 C   0  0  0  0  0  0  0  0  0  0  0  0
    1.2447    0.0145    2.2870 O   0  0  0  0  0  0  0  0  0  0  0  0
    0.1402   -0.4098    1.5796 C   0  0  0  0  0  0  0  0  0  0  0  0
   -0.4636   -1.6036    1.8972 C   0  0  0  0  0  0  0  0  0  0  0  0
   -1.5644   -2.0817    1.2332 C   0  0  0  0  0  0  0  0  0  0  0  0
   -2.0941   -1.3489    0.2100 C   0  0  0  0  0  0  0  0  0  0  0  0
   -3.2126   -1.7621   -0.5632 N   0  0  0  0  0  0  0  0  0  0  0  0
   -4.5608   -1.5953   -0.1618 C   0  0  0  0  0  0  0  0  0  0  0  0
   -4.7999   -1.0564    0.9636 O   0  0  0  0  0  0  0  0  0  0  0  0
   -5.6586   -2.0063   -0.9632 N   0  0  0  0  0  0  0  0  0  0  0  0
   -7.0263   -1.8989   -0.5648 C   0  0  0  0  0  0  0  0  0  0  0  0
   -7.7277   -2.9252    0.0481 C   0  0  0  0  0  0  0  0  0  0  0  0
   -9.0026   -2.4677    0.2939 C   0  0  0  0  0  0  0  0  0  0  0  0
  -10.1379   -3.2101    0.9308 C   0  0  0  0  0  0  0  0  0  0  0  0
   -9.7013   -3.8018    2.2509 C   0  0  0  0  0  0  0  0  0  0  0  0
  -10.5498   -4.3489    0.0179 C   0  0  0  0  0  0  0  0  0  0  0  0
   -9.0160   -1.2220   -0.1673 N   0  0  0  0  0  0  0  0  0  0  0  0
   -7.8481   -0.8547   -0.6863 N   0  0  0  0  0  0  0  0  0  0  0  0
   -7.5590    0.4395   -1.2598 C   0  0  0  0  0  0  0  0  0  0  0  0
   -7.3503    1.5221   -0.4318 C   0  0  0  0  0  0  0  0  0  0  0  0
   -7.0838    2.7893   -0.9183 C   0  0  0  0  0  0  0  0  0  0  0  0
   -7.0173    3.0138   -2.2769 C   0  0  0  0  0  0  0  0  0  0  0  0
   -6.7389    4.3736   -2.8344 C   0  0  0  0  0  0  0  0  0  0  0  0
   -7.2248    1.9345   -3.1075 C   0  0  0  0  0  0  0  0  0  0  0  0
   -7.4943    0.6518   -2.6163 C   0  0  0  0  0  0  0  0  0  0  0  0
   -1.5036   -0.1386   -0.1293 C   0  0  0  0  0  0  0  0  0  0  0  0
   -2.0532    0.5974   -1.1564 C   0  0  0  0  0  0  0  0  0  0  0  0
   -1.5328    1.8105   -1.5462 C   0  0  0  0  0  0  0  0  0  0  0  0
   -0.4334    2.2566   -0.8580 C   0  0  0  0  0  0  0  0  0  0  0  0
    0.1650    1.5717    0.1777 C   0  0  0  0  0  0  0  0  0  0  0  0
   -0.3810    0.3486    0.5483 C   0  0  0  0  0  0  0  0  0  0  0  0
    3.5618    0.5818    2.3296 N   0  0  0  0  0  0  0  0  0  0  0  0
    7.9498    3.7705    5.6208 H   0  0  0  0  0  0  0  0  0  0  0  0
    9.3164    2.5961    5.2430 H   0  0  0  0  0  0  0  0  0  0  0  0
    9.0256    4.0490    4.1584 H   0  0  0  0  0  0  0  0  0  0  0  0
   10.2096    2.5116    3.2009 H   0  0  0  0  0  0  0  0  0  0  0  0
   11.0383    1.3823    1.2448 H   0  0  0  0  0  0  0  0  0  0  0  0
   11.6238    0.3476   -0.3026 H   0  0  0  0  0  0  0  0  0  0  0  0
   11.2772   -1.9162   -2.0388 H   0  0  0  0  0  0  0  0  0  0  0  0
   12.5768   -0.7299   -2.0546 H   0  0  0  0  0  0  0  0  0  0  0  0
   11.4760   -0.7316   -4.2528 H   0  0  0  0  0  0  0  0  0  0  0  0
   11.3195    0.8247   -3.4240 H   0  0  0  0  0  0  0  0  0  0  0  0
    9.2773   -1.0624   -4.0520 H   0  0  0  0  0  0  0  0  0  0  0  0
    7.0988    0.0149    0.3197 H   0  0  0  0  0  0  0  0  0  0  0  0
    5.6538    1.6068    3.4303 H   0  0  0  0  0  0  0  0  0  0  0  0
    3.9648   -0.6293   -1.2097 H   0  0  0  0  0  0  0  0  0  0  0  0
    1.7951   -0.7584   -0.1612 H   0  0  0  0  0  0  0  0  0  0  0  0
   -0.0770   -2.2164    2.7050 H   0  0  0  0  0  0  0  0  0  0  0  0
   -2.0451   -3.0406    1.4866 H   0  0  0  0  0  0  0  0  0  0  0  0
   -3.0727   -2.2309   -1.5104 H   0  0  0  0  0  0  0  0  0  0  0  0
   -5.4052   -2.4425   -1.8987 H   0  0  0  0  0  0  0  0  0  0  0  0
   -7.3424   -3.9272    0.2963 H   0  0  0  0  0  0  0  0  0  0  0  0
  -10.9626   -2.4900    1.0841 H   0  0  0  0  0  0  0  0  0  0  0  0
   -9.0666   -4.7020    2.0944 H   0  0  0  0  0  0  0  0  0  0  0  0
   -9.0553   -3.0892    2.8230 H   0  0  0  0  0  0  0  0  0  0  0  0
  -10.5834   -4.1183    2.8265 H   0  0  0  0  0  0  0  0  0  0  0  0
  -11.5758   -4.6539    0.3477 H   0  0  0  0  0  0  0  0  0  0  0  0
   -9.8336   -5.1651    0.1218 H   0  0  0  0  0  0  0  0  0  0  0  0
  -10.6259   -3.9621   -1.0215 H   0  0  0  0  0  0  0  0  0  0  0  0
   -7.4056    1.3350    0.6397 H   0  0  0  0  0  0  0  0  0  0  0  0
   -6.9210    3.6296   -0.2499 H   0  0  0  0  0  0  0  0  0  0  0  0
   -6.2080    5.0007   -2.0993 H   0  0  0  0  0  0  0  0  0  0  0  0
   -6.1953    4.3087   -3.7743 H   0  0  0  0  0  0  0  0  0  0  0  0
   -7.7380    4.8699   -3.0235 H   0  0  0  0  0  0  0  0  0  0  0  0
   -7.1757    2.0919   -4.1757 H   0  0  0  0  0  0  0  0  0  0  0  0
   -7.6576   -0.1978   -3.2509 H   0  0  0  0  0  0  0  0  0  0  0  0
   -2.9223    0.2533   -1.7019 H   0  0  0  0  0  0  0  0  0  0  0  0
   -1.9784    2.3707   -2.3563 H   0  0  0  0  0  0  0  0  0  0  0  0
   -0.0070    3.2073   -1.1417 H   0  0  0  0  0  0  0  0  0  0  0  0
    1.0256    1.9512    0.7102 H   0  0  0  0  0  0  0  0  0  0  0  0
  1  2  1  0
  2  3  1  0
  3  4  2  0
  4  5  1  0
  5  6  2  0
  6  7  1  0
  7  8  2  0
  7  9  1  0
  9 10  1  0
 10 11  1  0
 11 12  1  0
  6 13  1  0
 13 14  2  0
 14 15  1  0
 15 16  1  0
 16 17  2  0
 17 18  1  0
 18 19  2  0
 19 20  1  0
 20 21  1  0
 21 22  1  0
 22 23  2  0
 23 24  1  0
 24 25  2  0
 25 26  1  0
 26 27  1  0
 27 28  2  0
 27 29  1  0
 29 30  1  0
 30 31  2  0
 31 32  1  0
 32 33  1  0
 33 34  1  0
 33 35  1  0
 32 36  2  0
 36 37  1  0
 37 38  1  0
 38 39  2  0
 39 40  1  0
 40 41  2  0
 41 42  1  0
 41 43  1  0
 43 44  2  0
 25 45  1  0
 45 46  2  0
 46 47  1  0
 47 48  2  0
 48 49  1  0
 49 50  2  0
 20 51  2  0
 14  3  1  0
 51 16  1  0
 50 22  1  0
 37 30  1  0
 44 38  1  0
 50 45  1  0
  1 52  1  0
  1 53  1  0
  1 54  1  0
  4 55  1  0
  5 56  1  0
  9 57  1  0
 10 58  1  0
 10 59  1  0
 11 60  1  0
 11 61  1  0
 12 62  1  0
 13 63  1  0
 15 64  1  0
 18 65  1  0
 19 66  1  0
 23 67  1  0
 24 68  1  0
 26 69  1  0
 29 70  1  0
 31 71  1  0
 33 72  1  0
 34 73  1  0
 34 74  1  0
 34 75  1  0
 35 76  1  0
 35 77  1  0
 35 78  1  0
 39 79  1  0
 40 80  1  0
 42 81  1  0
 42 82  1  0
 42 83  1  0
 43 84  1  0
 44 85  1  0
 46 86  1  0
 47 87  1  0
 48 88  1  0
 49 89  1  0
M  END
$$$$
