
     RDKit          3D

 49 51  0  0  0  0  0  0  0  0999 V2000
    1.1295   -2.5910    0.4617 C   0  0  0  0  0  0  0  0  0  0  0  0
    1.4441   -1.1701    0.4382 N   0  0  0  0  0  0  0  0  0  0  0  0
    2.6688   -0.7920    0.8490 C   0  0  0  0  0  0  0  0  0  0  0  0
    3.5407   -1.6367    1.2423 O   0  0  0  0  0  0  0  0  0  0  0  0
    3.0036    0.5525    0.8481 C   0  0  0  0  0  0  0  0  0  0  0  0
    4.2587    0.9265    1.2706 O   0  0  0  0  0  0  0  0  0  0  0  0
    5.4052    0.4689    0.6276 C   0  0  0  0  0  0  0  0  0  0  0  0
    6.3329   -0.2723    1.3436 C   0  0  0  0  0  0  0  0  0  0  0  0
    7.4533   -0.7073    0.6766 C   0  0  0  0  0  0  0  0  0  0  0  0
    7.6576   -0.4258   -0.6469 C   0  0  0  0  0  0  0  0  0  0  0  0
    8.7874   -0.8772   -1.2757 F   0  0  0  0  0  0  0  0  0  0  0  0
    6.7326    0.3101   -1.3500 C   0  0  0  0  0  0  0  0  0  0  0  0
    5.5963    0.7611   -0.7059 C   0  0  0  0  0  0  0  0  0  0  0  0
    4.7094    1.4839   -1.4391 F   0  0  0  0  0  0  0  0  0  0  0  0
    2.0434    1.4369    0.4180 C   0  0  0  0  0  0  0  0  0  0  0  0
    0.7989    1.0306    0.0028 C   0  0  0  0  0  0  0  0  0  0  0  0
   -0.1602    1.9559   -0.4309 C   0  0  0  0  0  0  0  0  0  0  0  0
   -1.3359    1.4668   -0.8163 N   0  0  0  0  0  0  0  0  0  0  0  0
   -1.6528    0.1679   -0.8147 C   0  0  0  0  0  0  0  0  0  0  0  0
   -2.9308   -0.2210   -1.2790 N   0  0  0  0  0  0  0  0  0  0  0  0
   -4.2093    0.1950   -0.7809 C   0  0  0  0  0  0  0  0  0  0  0  0
   -4.4207   -0.1823    0.6308 C   0  0  0  0  0  0  0  0  0  0  0  0
   -3.4690    0.3917    1.6378 C   0  0  0  0  0  0  0  0  0  0  0  0
   -3.9060   -0.1160    2.8926 O   0  0  0  0  0  0  0  0  0  0  0  0
   -5.2737   -0.3495   -1.7114 C   0  0  0  0  0  0  0  0  0  0  0  0
   -6.6610    0.0154   -1.2914 C   0  0  0  0  0  0  0  0  0  0  0  0
   -6.9175    1.3636   -1.2296 O   0  0  0  0  0  0  0  0  0  0  0  0
   -0.7198   -0.7374   -0.3910 N   0  0  0  0  0  0  0  0  0  0  0  0
    0.5038   -0.3098    0.0176 C   0  0  0  0  0  0  0  0  0  0  0  0
    1.2274   -3.0108    1.4860 H   0  0  0  0  0  0  0  0  0  0  0  0
    0.0702   -2.7508    0.1576 H   0  0  0  0  0  0  0  0  0  0  0  0
    1.8197   -3.1065   -0.2286 H   0  0  0  0  0  0  0  0  0  0  0  0
    6.2158   -0.5217    2.3957 H   0  0  0  0  0  0  0  0  0  0  0  0
    8.1977   -1.2874    1.2067 H   0  0  0  0  0  0  0  0  0  0  0  0
    6.9083    0.5245   -2.3910 H   0  0  0  0  0  0  0  0  0  0  0  0
    2.3016    2.4918    0.4149 H   0  0  0  0  0  0  0  0  0  0  0  0
    0.1274    2.9932   -0.4204 H   0  0  0  0  0  0  0  0  0  0  0  0
   -2.8882   -0.9074   -2.1025 H   0  0  0  0  0  0  0  0  0  0  0  0
   -4.2452    1.3300   -0.8306 H   0  0  0  0  0  0  0  0  0  0  0  0
   -5.4456    0.0409    1.0122 H   0  0  0  0  0  0  0  0  0  0  0  0
   -4.3461   -1.3092    0.7718 H   0  0  0  0  0  0  0  0  0  0  0  0
   -3.6185    1.5011    1.7363 H   0  0  0  0  0  0  0  0  0  0  0  0
   -2.4229    0.1374    1.5225 H   0  0  0  0  0  0  0  0  0  0  0  0
   -3.1185   -0.0255    3.5190 H   0  0  0  0  0  0  0  0  0  0  0  0
   -5.0933    0.1335   -2.7075 H   0  0  0  0  0  0  0  0  0  0  0  0
   -5.2191   -1.4315   -1.8645 H   0  0  0  0  0  0  0  0  0  0  0  0
   -6.9910   -0.5454   -0.3697 H   0  0  0  0  0  0  0  0  0  0  0  0
   -7.3418   -0.3963   -2.0946 H   0  0  0  0  0  0  0  0  0  0  0  0
   -6.5475    1.7886   -0.4078 H   0  0  0  0  0  0  0  0  0  0  0  0
  1  2  1  0
  2  3  1  0
  3  4  2  0
  3  5  1  0
  5  6  1  0
  6  7  1  0
  7  8  2  0
  8  9  1  0
  9 10  2  0
 10 11  1  0
 10 12  1  0
 12 13  2  0
 13 14  1  0
  5 15  2  0
 15 16  1  0
 16 17  2  0
 17 18  1  0
 18 19  2  0
 19 20  1  0
 20 21  1  0
 21 22  1  0
 22 23  1  0
 23 24  1  0
 21 25  1  0
 25 26  1  0
 26 27  1  0
 19 28  1  0
 28 29  2  0
 29  2  1  0
 13  7  1  0
 29 16  1  0
  1 30  1  0
  1 31  1  0
  1 32  1  0
  8 33  1  0
  9 34  1  0
 12 35  1  0
 15 36  1  0
 17 37  1  0
 20 38  1  0
 21 39  1  0
 22 40  1  0
 22 41  1  0
 23 42  1  0
 23 43  1  0
 24 44  1  0
 25 45  1  0
 25 46  1  0
 26 47  1  0
 26 48  1  0
 27 49  1  0
M  END
$$$$
