
     RDKit          3D

 53 57  0  0  0  0  0  0  0  0999 V2000
    3.5109   -2.6632    0.7672 C   0  0  0  0  0  0  0  0  0  0  0  0
    2.1427   -2.0800    0.6730 C   0  0  0  0  0  0  0  0  0  0  0  0
    1.8707   -0.7434    0.3875 C   0  0  0  0  0  0  0  0  0  0  0  0
    0.5699   -0.2885    0.3197 C   0  0  0  0  0  0  0  0  0  0  0  0
    0.4138    0.9316    0.0569 O   0  0  0  0  0  0  0  0  0  0  0  0
   -0.4636   -1.1230    0.5272 N   0  0  0  0  0  0  0  0  0  0  0  0
   -0.1709   -2.4072    0.8007 C   0  0  0  0  0  0  0  0  0  0  0  0
    1.0801   -2.9621    0.8915 C   0  0  0  0  0  0  0  0  0  0  0  0
   -1.8015   -0.6457    0.4554 C   0  0  0  0  0  0  0  0  0  0  0  0
   -2.5756   -1.0353    1.5451 C   0  0  0  0  0  0  0  0  0  0  0  0
   -3.9129   -0.6245    1.5860 C   0  0  0  0  0  0  0  0  0  0  0  0
   -4.4926    0.1534    0.5846 C   0  0  0  0  0  0  0  0  0  0  0  0
   -3.6806    0.5145   -0.4776 C   0  0  0  0  0  0  0  0  0  0  0  0
   -4.4839    1.2931   -1.3567 N   0  0  0  0  0  0  0  0  0  0  0  0
   -5.6341    1.7836   -0.6204 C   0  0  0  0  0  0  0  0  0  0  0  0
   -5.8543    0.7057    0.3986 C   0  0  0  0  0  0  0  0  0  0  0  0
   -6.4300    1.2417    1.6913 C   0  0  0  0  0  0  0  0  0  0  0  0
   -6.7440   -0.3574   -0.1815 C   0  0  0  0  0  0  0  0  0  0  0  0
   -2.3593    0.1235   -0.5434 C   0  0  0  0  0  0  0  0  0  0  0  0
    3.0707    0.0502    0.1849 C   0  0  0  0  0  0  0  0  0  0  0  0
    3.5401    0.1145   -1.1151 C   0  0  0  0  0  0  0  0  0  0  0  0
    4.6908    0.8566   -1.4032 C   0  0  0  0  0  0  0  0  0  0  0  0
    5.1832    0.9354   -2.7107 C   0  0  0  0  0  0  0  0  0  0  0  0
    6.3061    1.6642   -2.9689 N   0  0  0  0  0  0  0  0  0  0  0  0
    6.9321    2.3022   -1.9635 C   0  0  0  0  0  0  0  0  0  0  0  0
    8.0868    3.0215   -2.3786 N   0  0  0  0  0  0  0  0  0  0  0  0
    6.4800    2.2448   -0.6885 N   0  0  0  0  0  0  0  0  0  0  0  0
    5.3584    1.5245   -0.3927 C   0  0  0  0  0  0  0  0  0  0  0  0
    4.8980    1.4658    0.9044 C   0  0  0  0  0  0  0  0  0  0  0  0
    3.7481    0.7266    1.2040 C   0  0  0  0  0  0  0  0  0  0  0  0
    3.6373   -3.2446    1.7041 H   0  0  0  0  0  0  0  0  0  0  0  0
    3.5930   -3.4294   -0.0488 H   0  0  0  0  0  0  0  0  0  0  0  0
    4.2993   -1.9051    0.7492 H   0  0  0  0  0  0  0  0  0  0  0  0
   -1.0537   -3.0430    0.9611 H   0  0  0  0  0  0  0  0  0  0  0  0
    1.1851   -3.9972    1.1152 H   0  0  0  0  0  0  0  0  0  0  0  0
   -2.2631   -1.6373    2.3952 H   0  0  0  0  0  0  0  0  0  0  0  0
   -4.5595   -0.8985    2.4088 H   0  0  0  0  0  0  0  0  0  0  0  0
   -4.2210    1.4451   -2.3692 H   0  0  0  0  0  0  0  0  0  0  0  0
   -5.3287    2.7310   -0.0872 H   0  0  0  0  0  0  0  0  0  0  0  0
   -6.5170    1.9564   -1.2654 H   0  0  0  0  0  0  0  0  0  0  0  0
   -7.5279    1.1848    1.5916 H   0  0  0  0  0  0  0  0  0  0  0  0
   -6.1421    0.5555    2.4929 H   0  0  0  0  0  0  0  0  0  0  0  0
   -6.1042    2.2887    1.8250 H   0  0  0  0  0  0  0  0  0  0  0  0
   -7.7407    0.0826   -0.3811 H   0  0  0  0  0  0  0  0  0  0  0  0
   -6.8462   -1.2406    0.4580 H   0  0  0  0  0  0  0  0  0  0  0  0
   -6.3208   -0.6911   -1.1492 H   0  0  0  0  0  0  0  0  0  0  0  0
   -1.6940    0.3848   -1.3551 H   0  0  0  0  0  0  0  0  0  0  0  0
    3.0438   -0.3936   -1.9240 H   0  0  0  0  0  0  0  0  0  0  0  0
    4.6030    0.3851   -3.4391 H   0  0  0  0  0  0  0  0  0  0  0  0
    8.9265    2.6668   -1.8377 H   0  0  0  0  0  0  0  0  0  0  0  0
    8.9889    2.7675   -1.9195 H   0  0  0  0  0  0  0  0  0  0  0  0
    5.4172    1.9857    1.6923 H   0  0  0  0  0  0  0  0  0  0  0  0
    3.3459    0.6488    2.2054 H   0  0  0  0  0  0  0  0  0  0  0  0
  1  2  1  0
  2  3  2  0
  3  4  1  0
  4  5  2  0
  4  6  1  0
  6  7  1  0
  7  8  2  0
  6  9  1  0
  9 10  2  0
 10 11  1  0
 11 12  2  0
 12 13  1  0
 13 14  1  0
 14 15  1  0
 15 16  1  0
 16 17  1  0
 16 18  1  0
 13 19  2  0
  3 20  1  0
 20 21  2  0
 21 22  1  0
 22 23  2  0
 23 24  1  0
 24 25  2  0
 25 26  1  0
 25 27  1  0
 27 28  2  0
 28 29  1  0
 29 30  2  0
  8  2  1  0
 19  9  1  0
 30 20  1  0
 16 12  1  0
 28 22  1  0
  1 31  1  0
  1 32  1  0
  1 33  1  0
  7 34  1  0
  8 35  1  0
 10 36  1  0
 11 37  1  0
 14 38  1  0
 15 39  1  0
 15 40  1  0
 17 41  1  0
 17 42  1  0
 17 43  1  0
 18 44  1  0
 18 45  1  0
 18 46  1  0
 19 47  1  0
 21 48  1  0
 23 49  1  0
 26 50  1  0
 26 51  1  0
 29 52  1  0
 30 53  1  0
M  END
$$$$
