
     RDKit          3D

 81 84  0  0  0  0  0  0  0  0999 V2000
   -0.3628   -1.8976   -0.5930 C   0  0  0  0  0  0  0  0  0  0  0  0
   -1.2662   -0.7857   -0.7952 C   0  0  0  0  0  0  0  0  0  0  0  0
   -1.3094    0.3625   -1.5417 C   0  0  0  0  0  0  0  0  0  0  0  0
   -0.2916    0.7595   -2.5260 C   0  0  0  0  0  0  0  0  0  0  0  0
   -2.4436    1.0778   -1.2453 C   0  0  0  0  0  0  0  0  0  0  0  0
   -2.9768    2.3506   -1.7708 C   0  0  0  0  0  0  0  0  0  0  0  0
   -3.6925    2.2541   -3.0735 C   0  0  0  0  0  0  0  0  0  0  0  0
   -2.8481    1.7199   -4.1529 C   0  0  0  0  0  0  0  0  0  0  0  0
   -1.9773    2.4177   -4.9759 O   0  0  0  0  0  0  0  0  0  0  0  0
   -2.9609    0.4835   -4.3136 O   0  0  0  0  0  0  0  0  0  0  0  0
   -3.1250    0.3334   -0.2734 C   0  0  0  0  0  0  0  0  0  0  0  0
   -2.3894   -0.7745   -0.0320 N   0  0  0  0  0  0  0  0  0  0  0  0
   -4.3838    0.7136    0.3571 C   0  0  0  0  0  0  0  0  0  0  0  0
   -5.4074   -0.0404    0.7147 C   0  0  0  0  0  0  0  0  0  0  0  0
   -5.3880   -1.4458    0.4996 N   0  0  0  0  0  0  0  0  0  0  0  0
   -6.4764   -1.9559    0.9290 C   0  0  0  0  0  0  0  0  0  0  0  0
   -6.8390   -3.3078    0.8987 O   0  0  0  0  0  0  0  0  0  0  0  0
   -7.2808   -0.8639    1.4619 C   0  0  0  0  0  0  0  0  0  0  0  0
   -8.6155   -1.0098    2.0564 C   0  0  0  0  0  0  0  0  0  0  0  0
   -6.6869    0.2930    1.3566 C   0  0  0  0  0  0  0  0  0  0  0  0
   -6.9274    1.6928    1.6833 C   0  0  0  0  0  0  0  0  0  0  0  0
   -8.2304    1.9883    2.3734 C   0  0  0  0  0  0  0  0  0  0  0  0
    0.9130   -1.8933   -0.2532 C   0  0  0  0  0  0  0  0  0  0  0  0
    1.5920   -0.6895   -0.0261 N   0  0  0  0  0  0  0  0  0  0  0  0
    2.8222   -0.8389    0.3003 C   0  0  0  0  0  0  0  0  0  0  0  0
    3.5565    0.3586    0.5451 C   0  0  0  0  0  0  0  0  0  0  0  0
    4.7408    0.7435    0.9125 C   0  0  0  0  0  0  0  0  0  0  0  0
    5.6892   -0.2596    1.1875 N   0  0  0  0  0  0  0  0  0  0  0  0
    6.8244    0.1701    1.5433 C   0  0  0  0  0  0  0  0  0  0  0  0
    7.9645   -0.5431    1.8818 O   0  0  0  0  0  0  0  0  0  0  0  0
    6.6865    1.6191    1.5247 C   0  0  0  0  0  0  0  0  0  0  0  0
    7.6851    2.6602    1.8475 C   0  0  0  0  0  0  0  0  0  0  0  0
    5.4501    1.9799    1.1506 C   0  0  0  0  0  0  0  0  0  0  0  0
    4.7577    3.2703    0.9618 C   0  0  0  0  0  0  0  0  0  0  0  0
    4.2765    3.4427   -0.4704 C   0  0  0  0  0  0  0  0  0  0  0  0
    3.0000   -2.2645    0.2923 C   0  0  0  0  0  0  0  0  0  0  0  0
    4.2221   -3.0113    0.5969 C   0  0  0  0  0  0  0  0  0  0  0  0
    5.2525   -2.9031   -0.5164 C   0  0  0  0  0  0  0  0  0  0  0  0
    6.4959   -3.6456   -0.1688 C   0  0  0  0  0  0  0  0  0  0  0  0
    7.4470   -3.5444   -1.1997 O   0  0  0  0  0  0  0  0  0  0  0  0
    6.7264   -4.2955    0.8887 O   0  0  0  0  0  0  0  0  0  0  0  0
    1.9008   -2.9221   -0.0266 C   0  0  0  0  0  0  0  0  0  0  0  0
    1.5871   -4.3636   -0.1657 C   0  0  0  0  0  0  0  0  0  0  0  0
   -0.7550   -2.9161   -0.7335 H   0  0  0  0  0  0  0  0  0  0  0  0
    0.7487    0.5932   -2.2086 H   0  0  0  0  0  0  0  0  0  0  0  0
   -0.3560    1.8574   -2.7267 H   0  0  0  0  0  0  0  0  0  0  0  0
   -0.3801    0.1769   -3.4903 H   0  0  0  0  0  0  0  0  0  0  0  0
   -2.1529    3.1213   -1.8679 H   0  0  0  0  0  0  0  0  0  0  0  0
   -3.6593    2.8322   -1.0087 H   0  0  0  0  0  0  0  0  0  0  0  0
   -3.9751    3.2994   -3.4018 H   0  0  0  0  0  0  0  0  0  0  0  0
   -4.6713    1.7326   -3.0001 H   0  0  0  0  0  0  0  0  0  0  0  0
   -1.7866    2.1469   -5.9324 H   0  0  0  0  0  0  0  0  0  0  0  0
   -2.7531   -1.4719    0.6875 H   0  0  0  0  0  0  0  0  0  0  0  0
   -4.4674    1.7840    0.5524 H   0  0  0  0  0  0  0  0  0  0  0  0
   -6.1078   -4.0319    0.8302 H   0  0  0  0  0  0  0  0  0  0  0  0
   -8.5970   -1.0531    3.1658 H   0  0  0  0  0  0  0  0  0  0  0  0
   -9.3216   -0.2657    1.6394 H   0  0  0  0  0  0  0  0  0  0  0  0
   -9.0620   -2.0033    1.7440 H   0  0  0  0  0  0  0  0  0  0  0  0
   -6.8918    2.3382    0.7758 H   0  0  0  0  0  0  0  0  0  0  0  0
   -6.1122    2.1222    2.3407 H   0  0  0  0  0  0  0  0  0  0  0  0
   -8.1010    3.0082    2.8606 H   0  0  0  0  0  0  0  0  0  0  0  0
   -9.0720    2.0884    1.6263 H   0  0  0  0  0  0  0  0  0  0  0  0
   -8.4782    1.3188    3.2055 H   0  0  0  0  0  0  0  0  0  0  0  0
    3.0275    1.3170    0.3990 H   0  0  0  0  0  0  0  0  0  0  0  0
    7.9068   -1.5200    2.1408 H   0  0  0  0  0  0  0  0  0  0  0  0
    8.1596    3.0106    0.8990 H   0  0  0  0  0  0  0  0  0  0  0  0
    8.4292    2.2378    2.5510 H   0  0  0  0  0  0  0  0  0  0  0  0
    7.2244    3.5286    2.3882 H   0  0  0  0  0  0  0  0  0  0  0  0
    3.8682    3.2647    1.6582 H   0  0  0  0  0  0  0  0  0  0  0  0
    5.4214    4.0965    1.2386 H   0  0  0  0  0  0  0  0  0  0  0  0
    3.1743    3.5786   -0.4659 H   0  0  0  0  0  0  0  0  0  0  0  0
    4.5451    2.5717   -1.1036 H   0  0  0  0  0  0  0  0  0  0  0  0
    4.7536    4.3260   -0.9407 H   0  0  0  0  0  0  0  0  0  0  0  0
    4.0163   -4.1000    0.7701 H   0  0  0  0  0  0  0  0  0  0  0  0
    4.6937   -2.6558    1.5322 H   0  0  0  0  0  0  0  0  0  0  0  0
    5.3903   -1.9101   -0.9117 H   0  0  0  0  0  0  0  0  0  0  0  0
    4.8176   -3.5089   -1.3845 H   0  0  0  0  0  0  0  0  0  0  0  0
    8.3314   -4.0720   -1.1301 H   0  0  0  0  0  0  0  0  0  0  0  0
    0.5572   -4.5513    0.2420 H   0  0  0  0  0  0  0  0  0  0  0  0
    2.2472   -5.0213    0.4343 H   0  0  0  0  0  0  0  0  0  0  0  0
    1.6775   -4.7052   -1.2184 H   0  0  0  0  0  0  0  0  0  0  0  0
  1  2  1  0
  2  3  2  0
  3  4  1  0
  3  5  1  0
  5  6  1  0
  6  7  1  0
  7  8  1  0
  8  9  1  0
  8 10  2  0
  5 11  2  0
 11 12  1  0
 11 13  1  0
 13 14  2  0
 14 15  1  0
 15 16  2  0
 16 17  1  0
 16 18  1  0
 18 19  1  0
 18 20  2  0
 20 21  1  0
 21 22  1  0
  1 23  2  0
 23 24  1  0
 24 25  2  0
 25 26  1  0
 26 27  2  0
 27 28  1  0
 28 29  2  0
 29 30  1  0
 29 31  1  0
 31 32  1  0
 31 33  2  0
 33 34  1  0
 34 35  1  0
 25 36  1  0
 36 37  1  0
 37 38  1  0
 38 39  1  0
 39 40  1  0
 39 41  2  0
 36 42  2  0
 42 43  1  0
 12  2  1  0
 20 14  1  0
 42 23  1  0
 33 27  1  0
  1 44  1  0
  4 45  1  0
  4 46  1  0
  4 47  1  0
  6 48  1  0
  6 49  1  0
  7 50  1  0
  7 51  1  0
  9 52  1  0
 12 53  1  0
 13 54  1  0
 17 55  1  0
 19 56  1  0
 19 57  1  0
 19 58  1  0
 21 59  1  0
 21 60  1  0
 22 61  1  0
 22 62  1  0
 22 63  1  0
 26 64  1  0
 30 65  1  0
 32 66  1  0
 32 67  1  0
 32 68  1  0
 34 69  1  0
 34 70  1  0
 35 71  1  0
 35 72  1  0
 35 73  1  0
 37 74  1  0
 37 75  1  0
 38 76  1  0
 38 77  1  0
 40 78  1  0
 43 79  1  0
 43 80  1  0
 43 81  1  0
M  END
$$$$
