
     RDKit          3D

 50 52  0  0  0  0  0  0  0  0999 V2000
   10.1476    2.3922    1.0421 N   0  0  0  0  0  0  0  0  0  0  0  0
    9.0001    2.0772    0.9988 C   0  0  0  0  0  0  0  0  0  0  0  0
    7.6423    1.7176    0.9443 C   0  0  0  0  0  0  0  0  0  0  0  0
    6.6692    2.5420    1.5987 C   0  0  0  0  0  0  0  0  0  0  0  0
    5.3626    2.0375    1.4801 C   0  0  0  0  0  0  0  0  0  0  0  0
    5.0031    0.9925    0.8922 C   0  0  0  0  0  0  0  0  0  0  0  0
    3.6320    0.4520    0.7877 C   0  0  0  0  0  0  0  0  0  0  0  0
    3.3924   -0.9429    0.7292 C   0  0  0  0  0  0  0  0  0  0  0  0
    2.1177   -1.4773    0.5766 C   0  0  0  0  0  0  0  0  0  0  0  0
    1.0675   -0.5711    0.4786 C   0  0  0  0  0  0  0  0  0  0  0  0
   -0.3512   -0.9814    0.2581 C   0  0  0  0  0  0  0  0  0  0  0  0
   -0.4973   -1.2568   -1.3071 C   0  0  1  0  0  0  0  0  0  0  0  0
    0.3279   -2.3076   -1.5818 C   0  0  0  0  0  0  0  0  0  0  0  0
    1.0951   -3.2526   -1.8418 N   0  0  0  0  0  0  0  0  0  0  0  0
   -1.8596   -1.1261   -1.6055 N   0  0  0  0  0  0  0  0  0  0  0  0
   -2.9851   -1.3490   -0.7832 C   0  0  0  0  0  0  0  0  0  0  0  0
   -2.7463   -1.8297    0.3885 O   0  0  0  0  0  0  0  0  0  0  0  0
   -4.3757   -1.0401   -1.1986 C   0  0  2  0  0  0  0  0  0  0  0  0
   -4.4088    0.4958   -0.9021 C   0  0  0  0  0  0  0  0  0  0  0  0
   -5.1932    0.7301    0.3649 C   0  0  1  0  0  0  0  0  0  0  0  0
   -5.0702    2.0223    0.8012 O   0  0  0  0  0  0  0  0  0  0  0  0
   -6.6303    0.3631   -0.0469 C   0  0  0  0  0  0  0  0  0  0  0  0
   -6.6064   -1.1276   -0.2301 C   0  0  0  0  0  0  0  0  0  0  0  0
   -5.3056   -1.7069   -0.3778 N   0  0  0  0  0  0  0  0  0  0  0  0
    1.2940    0.7487    0.5457 C   0  0  0  0  0  0  0  0  0  0  0  0
    2.5546    1.2697    0.6980 C   0  0  0  0  0  0  0  0  0  0  0  0
    5.9548    0.1099    0.1951 C   0  0  0  0  0  0  0  0  0  0  0  0
    7.2315    0.6018    0.3106 C   0  0  0  0  0  0  0  0  0  0  0  0
    6.9222    3.4107    2.0918 H   0  0  0  0  0  0  0  0  0  0  0  0
    4.6070    2.7122    2.0083 H   0  0  0  0  0  0  0  0  0  0  0  0
    4.2011   -1.6206    0.8059 H   0  0  0  0  0  0  0  0  0  0  0  0
    1.9971   -2.5191    0.5503 H   0  0  0  0  0  0  0  0  0  0  0  0
   -1.0572   -0.1975    0.5104 H   0  0  0  0  0  0  0  0  0  0  0  0
   -0.5474   -1.9194    0.7375 H   0  0  0  0  0  0  0  0  0  0  0  0
    0.0259   -0.2431   -1.6709 H   0  0  0  0  0  0  0  0  0  0  0  0
   -2.1445   -0.8144   -2.6128 H   0  0  0  0  0  0  0  0  0  0  0  0
   -4.5402   -1.2165   -2.2598 H   0  0  0  0  0  0  0  0  0  0  0  0
   -3.3869    0.8994   -0.7930 H   0  0  0  0  0  0  0  0  0  0  0  0
   -4.9093    0.9666   -1.7382 H   0  0  0  0  0  0  0  0  0  0  0  0
   -4.8783   -0.0327    1.0980 H   0  0  0  0  0  0  0  0  0  0  0  0
   -5.7528    2.1956    1.4842 H   0  0  0  0  0  0  0  0  0  0  0  0
   -7.3462    0.6444    0.7211 H   0  0  0  0  0  0  0  0  0  0  0  0
   -6.8039    0.8065   -1.0345 H   0  0  0  0  0  0  0  0  0  0  0  0
   -7.3276   -1.4635   -1.0025 H   0  0  0  0  0  0  0  0  0  0  0  0
   -7.0241   -1.5410    0.7397 H   0  0  0  0  0  0  0  0  0  0  0  0
   -5.3059   -2.7310   -0.3897 H   0  0  0  0  0  0  0  0  0  0  0  0
    0.4746    1.4947    0.4981 H   0  0  0  0  0  0  0  0  0  0  0  0
    2.6915    2.3537    0.7571 H   0  0  0  0  0  0  0  0  0  0  0  0
    5.6341   -0.7558   -0.2869 H   0  0  0  0  0  0  0  0  0  0  0  0
    8.0080   -0.0128   -0.2069 H   0  0  0  0  0  0  0  0  0  0  0  0
  1  2  3  0
  2  3  1  0
  3  4  2  0
  4  5  1  0
  5  6  2  0
  6  7  1  0
  7  8  2  0
  8  9  1  0
  9 10  2  0
 10 11  1  0
 11 12  1  0
 12 13  1  0
 13 14  3  0
 12 15  1  0
 15 16  1  0
 16 17  2  0
 16 18  1  0
 18 19  1  0
 19 20  1  0
 20 21  1  0
 20 22  1  0
 22 23  1  0
 23 24  1  0
 10 25  1  0
 25 26  2  0
  6 27  1  0
 27 28  2  0
 28  3  1  0
 26  7  1  0
 24 18  1  0
  4 29  1  0
  5 30  1  0
  8 31  1  0
  9 32  1  0
 11 33  1  0
 11 34  1  0
 12 35  1  6
 15 36  1  0
 18 37  1  6
 19 38  1  0
 19 39  1  0
 20 40  1  1
 21 41  1  0
 22 42  1  0
 22 43  1  0
 23 44  1  0
 23 45  1  0
 24 46  1  0
 25 47  1  0
 26 48  1  0
 27 49  1  0
 28 50  1  0
M  END
$$$$
