
     RDKit          3D

 80 85  0  0  0  0  0  0  0  0999 V2000
   -7.1366    4.0040   -0.0361 C   0  0  0  0  0  0  0  0  0  0  0  0
   -6.6331    2.7481   -0.4277 O   0  0  0  0  0  0  0  0  0  0  0  0
   -5.3277    2.3968   -0.1543 C   0  0  0  0  0  0  0  0  0  0  0  0
   -4.5056    3.2780    0.5074 C   0  0  0  0  0  0  0  0  0  0  0  0
   -3.1934    2.8993    0.7710 C   0  0  0  0  0  0  0  0  0  0  0  0
   -2.7310    1.6639    0.3746 C   0  0  0  0  0  0  0  0  0  0  0  0
   -3.5989    0.8231   -0.2845 C   0  0  0  0  0  0  0  0  0  0  0  0
   -4.9049    1.1455   -0.5708 C   0  0  0  0  0  0  0  0  0  0  0  0
   -5.4676    0.0665   -1.2347 O   0  0  0  0  0  0  0  0  0  0  0  0
   -4.7511   -1.0877   -0.8484 C   0  0  1  0  0  0  0  0  0  0  0  0
   -4.9375   -2.2433   -1.7551 C   0  0  0  0  0  0  0  0  0  0  0  0
   -3.9234   -2.4283   -2.8203 C   0  0  1  0  0  0  0  0  0  0  0  0
   -4.4999   -2.8450   -4.0402 O   0  0  0  0  0  0  0  0  0  0  0  0
   -3.0140   -1.3155   -3.0759 C   0  0  0  0  0  0  0  0  0  0  0  0
   -2.7348   -0.4364   -2.1348 C   0  0  0  0  0  0  0  0  0  0  0  0
   -3.3397   -0.5657   -0.8073 C   0  0  1  0  0  0  0  0  0  0  0  0
   -2.4679   -1.2852    0.1673 C   0  0  0  0  0  0  0  0  0  0  0  0
   -2.5005   -0.5358    1.4923 C   0  0  0  0  0  0  0  0  0  0  0  0
   -1.2263    0.1889    1.5967 N   0  0  0  0  0  0  0  0  0  0  0  0
   -1.0086    0.6566    2.9352 C   0  0  0  0  0  0  0  0  0  0  0  0
   -0.7884   -0.3766    3.9506 C   0  0  0  0  0  0  0  0  0  0  0  0
    0.3661   -1.2852    3.8971 C   0  0  0  0  0  0  0  0  0  0  0  0
    0.5225   -2.1428    2.7122 C   0  0  0  0  0  0  0  0  0  0  0  0
    0.7625   -1.5328    1.5214 O   0  0  0  0  0  0  0  0  0  0  0  0
    1.7910   -0.7979    1.0393 C   0  0  0  0  0  0  0  0  0  0  0  0
    2.9167   -0.5225    1.7613 C   0  0  0  0  0  0  0  0  0  0  0  0
    3.9743    0.2444    1.2444 C   0  0  0  0  0  0  0  0  0  0  0  0
    3.9050    0.7493   -0.0298 C   0  0  0  0  0  0  0  0  0  0  0  0
    4.9855    1.5649   -0.6276 C   0  0  0  0  0  0  0  0  0  0  0  0
    5.9832    0.7991   -1.3332 N   0  0  0  0  0  0  0  0  0  0  0  0
    6.6087   -0.1061   -0.4245 C   0  0  0  0  0  0  0  0  0  0  0  0
    7.7036   -0.9255   -1.0744 C   0  0  0  0  0  0  0  0  0  0  0  0
    7.2998   -1.4133   -2.4444 C   0  0  0  0  0  0  0  0  0  0  0  0
    6.6605   -0.3652   -3.2966 C   0  0  0  0  0  0  0  0  0  0  0  0
    5.4608    0.1841   -2.5115 C   0  0  0  0  0  0  0  0  0  0  0  0
    2.7700    0.4718   -0.7605 C   0  0  0  0  0  0  0  0  0  0  0  0
    1.7305   -0.2752   -0.2675 C   0  0  0  0  0  0  0  0  0  0  0  0
   -1.3140    1.3977    0.7305 C   0  0  0  0  0  0  0  0  0  0  0  0
   -6.6611    4.8477   -0.5898 H   0  0  0  0  0  0  0  0  0  0  0  0
   -8.2393    4.0503   -0.2519 H   0  0  0  0  0  0  0  0  0  0  0  0
   -6.9811    4.1961    1.0510 H   0  0  0  0  0  0  0  0  0  0  0  0
   -4.8794    4.2615    0.8215 H   0  0  0  0  0  0  0  0  0  0  0  0
   -2.5115    3.5584    1.2877 H   0  0  0  0  0  0  0  0  0  0  0  0
   -5.0591   -1.3429    0.1817 H   0  0  0  0  0  0  0  0  0  0  0  0
   -5.0389   -3.1719   -1.1261 H   0  0  0  0  0  0  0  0  0  0  0  0
   -5.9566   -2.1409   -2.2313 H   0  0  0  0  0  0  0  0  0  0  0  0
   -3.2776   -3.3075   -2.5214 H   0  0  0  0  0  0  0  0  0  0  0  0
   -5.4841   -2.6339   -3.9635 H   0  0  0  0  0  0  0  0  0  0  0  0
   -2.5591   -1.2208   -4.0813 H   0  0  0  0  0  0  0  0  0  0  0  0
   -2.0500    0.4047   -2.3199 H   0  0  0  0  0  0  0  0  0  0  0  0
   -1.4369   -1.3739   -0.2287 H   0  0  0  0  0  0  0  0  0  0  0  0
   -2.8619   -2.3184    0.2849 H   0  0  0  0  0  0  0  0  0  0  0  0
   -3.3655    0.1357    1.5957 H   0  0  0  0  0  0  0  0  0  0  0  0
   -2.5637   -1.2832    2.2961 H   0  0  0  0  0  0  0  0  0  0  0  0
   -1.9098    1.2981    3.1978 H   0  0  0  0  0  0  0  0  0  0  0  0
   -0.1775    1.4038    2.8682 H   0  0  0  0  0  0  0  0  0  0  0  0
   -0.7195    0.1713    4.9641 H   0  0  0  0  0  0  0  0  0  0  0  0
   -1.7201   -1.0037    4.1020 H   0  0  0  0  0  0  0  0  0  0  0  0
    0.2349   -1.9930    4.7971 H   0  0  0  0  0  0  0  0  0  0  0  0
    1.3119   -0.7293    4.1693 H   0  0  0  0  0  0  0  0  0  0  0  0
   -0.3894   -2.8347    2.6540 H   0  0  0  0  0  0  0  0  0  0  0  0
    1.3527   -2.9094    2.8753 H   0  0  0  0  0  0  0  0  0  0  0  0
    3.0473   -0.9056    2.7641 H   0  0  0  0  0  0  0  0  0  0  0  0
    4.8484    0.4317    1.8705 H   0  0  0  0  0  0  0  0  0  0  0  0
    4.5069    2.2343   -1.3855 H   0  0  0  0  0  0  0  0  0  0  0  0
    5.4416    2.2547    0.1143 H   0  0  0  0  0  0  0  0  0  0  0  0
    7.0754    0.4745    0.3956 H   0  0  0  0  0  0  0  0  0  0  0  0
    5.8575   -0.7847    0.0671 H   0  0  0  0  0  0  0  0  0  0  0  0
    7.8711   -1.8153   -0.4352 H   0  0  0  0  0  0  0  0  0  0  0  0
    8.6597   -0.3628   -1.0960 H   0  0  0  0  0  0  0  0  0  0  0  0
    6.6712   -2.3010   -2.4216 H   0  0  0  0  0  0  0  0  0  0  0  0
    8.2539   -1.7140   -2.9576 H   0  0  0  0  0  0  0  0  0  0  0  0
    7.3129    0.4874   -3.5177 H   0  0  0  0  0  0  0  0  0  0  0  0
    6.3056   -0.8472   -4.2204 H   0  0  0  0  0  0  0  0  0  0  0  0
    4.8955    0.9103   -3.0964 H   0  0  0  0  0  0  0  0  0  0  0  0
    4.8315   -0.6885   -2.1710 H   0  0  0  0  0  0  0  0  0  0  0  0
    2.7172    0.8708   -1.7662 H   0  0  0  0  0  0  0  0  0  0  0  0
    0.8401   -0.5026   -0.8279 H   0  0  0  0  0  0  0  0  0  0  0  0
   -0.7615    1.1393   -0.1895 H   0  0  0  0  0  0  0  0  0  0  0  0
   -0.8680    2.2588    1.2406 H   0  0  0  0  0  0  0  0  0  0  0  0
  1  2  1  0
  2  3  1  0
  3  4  2  0
  4  5  1  0
  5  6  2  0
  6  7  1  0
  7  8  2  0
  8  9  1  0
  9 10  1  0
 10 11  1  0
 11 12  1  0
 12 13  1  0
 12 14  1  0
 14 15  2  0
 15 16  1  0
 16 17  1  1
 17 18  1  0
 18 19  1  0
 19 20  1  0
 20 21  1  0
 21 22  1  0
 22 23  1  0
 23 24  1  0
 24 25  1  0
 25 26  2  0
 26 27  1  0
 27 28  2  0
 28 29  1  0
 29 30  1  0
 30 31  1  0
 31 32  1  0
 32 33  1  0
 33 34  1  0
 34 35  1  0
 28 36  1  0
 36 37  2  0
 19 38  1  0
  8  3  1  0
 16 10  1  0
 37 25  1  0
 38  6  1  0
 16  7  1  0
 35 30  1  0
  1 39  1  0
  1 40  1  0
  1 41  1  0
  4 42  1  0
  5 43  1  0
 10 44  1  1
 11 45  1  0
 11 46  1  0
 12 47  1  1
 13 48  1  0
 14 49  1  0
 15 50  1  0
 17 51  1  0
 17 52  1  0
 18 53  1  0
 18 54  1  0
 20 55  1  0
 20 56  1  0
 21 57  1  0
 21 58  1  0
 22 59  1  0
 22 60  1  0
 23 61  1  0
 23 62  1  0
 26 63  1  0
 27 64  1  0
 29 65  1  0
 29 66  1  0
 31 67  1  0
 31 68  1  0
 32 69  1  0
 32 70  1  0
 33 71  1  0
 33 72  1  0
 34 73  1  0
 34 74  1  0
 35 75  1  0
 35 76  1  0
 36 77  1  0
 37 78  1  0
 38 79  1  0
 38 80  1  0
M  END
$$$$
