
     RDKit          3D

 50 53  0  0  0  0  0  0  0  0999 V2000
    1.1935   -2.4307   -1.8634 C   0  0  0  0  0  0  0  0  0  0  0  0
    1.0270   -2.6408   -0.3742 C   0  0  0  0  0  0  0  0  0  0  0  0
   -0.2726   -2.1837    0.0800 N   0  0  0  0  0  0  0  0  0  0  0  0
   -0.6549   -0.8297   -0.0852 C   0  0  0  0  0  0  0  0  0  0  0  0
    0.1744    0.0574   -0.6636 N   0  0  0  0  0  0  0  0  0  0  0  0
   -0.1681    1.3637   -0.8344 C   0  0  0  0  0  0  0  0  0  0  0  0
   -1.4274    1.7600   -0.3831 C   0  0  0  0  0  0  0  0  0  0  0  0
   -1.8608    3.0361   -0.5070 F   0  0  0  0  0  0  0  0  0  0  0  0
   -2.2824    0.8494    0.2121 C   0  0  0  0  0  0  0  0  0  0  0  0
   -3.5705    1.2290    0.6801 N   0  0  0  0  0  0  0  0  0  0  0  0
   -3.9477    1.7125    1.9734 C   0  0  0  0  0  0  0  0  0  0  0  0
   -3.2086    1.6777    3.0035 O   0  0  0  0  0  0  0  0  0  0  0  0
   -5.2396    2.2221    1.9254 O   0  0  0  0  0  0  0  0  0  0  0  0
   -5.5494    2.3517    0.5595 C   0  0  0  0  0  0  0  0  0  0  0  0
   -4.8397    1.2133   -0.0688 C   0  0  2  0  0  0  0  0  0  0  0  0
   -5.4543   -0.1311    0.1804 C   0  0  1  0  0  0  0  0  0  0  0  0
   -6.7561   -0.3615   -0.4855 C   0  0  0  0  0  0  0  0  0  0  0  0
   -4.5316   -1.0897   -0.3011 O   0  0  0  0  0  0  0  0  0  0  0  0
   -1.8604   -0.4082    0.3364 N   0  0  0  0  0  0  0  0  0  0  0  0
    2.1304   -1.8927    0.2745 C   0  0  0  0  0  0  0  0  0  0  0  0
    3.1743   -1.3516    0.0715 N   0  0  0  0  0  0  0  0  0  0  0  0
    3.9734   -0.7322    0.8976 C   0  0  0  0  0  0  0  0  0  0  0  0
    5.2564   -0.1048    0.4682 C   0  0  0  0  0  0  0  0  0  0  0  0
    6.0597    0.5328    1.3697 C   0  0  0  0  0  0  0  0  0  0  0  0
    7.2609    1.1162    0.9489 C   0  0  0  0  0  0  0  0  0  0  0  0
    7.6734    1.0720   -0.3655 C   0  0  0  0  0  0  0  0  0  0  0  0
    9.3146    1.8704   -0.9345 Br  0  0  0  0  0  0  0  0  0  0  0  0
    6.8461    0.4212   -1.2668 C   0  0  0  0  0  0  0  0  0  0  0  0
    5.6655   -0.1499   -0.8418 C   0  0  0  0  0  0  0  0  0  0  0  0
    3.5246   -0.7092    2.2074 C   0  0  0  0  0  0  0  0  0  0  0  0
    2.0005   -1.5722    2.1552 S   0  0  0  0  0  0  0  0  0  0  0  0
    1.9082   -1.6274   -2.1078 H   0  0  0  0  0  0  0  0  0  0  0  0
    1.5411   -3.3439   -2.3788 H   0  0  0  0  0  0  0  0  0  0  0  0
    0.2190   -2.1645   -2.3517 H   0  0  0  0  0  0  0  0  0  0  0  0
    1.1593   -3.7107   -0.1257 H   0  0  0  0  0  0  0  0  0  0  0  0
   -0.9278   -2.8581    0.5306 H   0  0  0  0  0  0  0  0  0  0  0  0
    0.4759    2.0862   -1.2917 H   0  0  0  0  0  0  0  0  0  0  0  0
   -5.0953    3.2924    0.2050 H   0  0  0  0  0  0  0  0  0  0  0  0
   -6.6259    2.4127    0.3535 H   0  0  0  0  0  0  0  0  0  0  0  0
   -4.5683    1.3476   -1.1197 H   0  0  0  0  0  0  0  0  0  0  0  0
   -5.5558   -0.3529    1.2629 H   0  0  0  0  0  0  0  0  0  0  0  0
   -6.9622    0.2875   -1.3553 H   0  0  0  0  0  0  0  0  0  0  0  0
   -7.6007   -0.2919    0.2585 H   0  0  0  0  0  0  0  0  0  0  0  0
   -6.8107   -1.4141   -0.8705 H   0  0  0  0  0  0  0  0  0  0  0  0
   -4.6747   -1.2507   -1.2823 H   0  0  0  0  0  0  0  0  0  0  0  0
    5.7588    0.5814    2.4069 H   0  0  0  0  0  0  0  0  0  0  0  0
    7.8704    1.6092    1.6773 H   0  0  0  0  0  0  0  0  0  0  0  0
    7.1596    0.3815   -2.2947 H   0  0  0  0  0  0  0  0  0  0  0  0
    5.0310   -0.6546   -1.5594 H   0  0  0  0  0  0  0  0  0  0  0  0
    4.0472   -0.2272    3.1161 H   0  0  0  0  0  0  0  0  0  0  0  0
  1  2  1  0
  2  3  1  0
  3  4  1  0
  4  5  2  0
  5  6  1  0
  6  7  2  0
  7  8  1  0
  7  9  1  0
  9 10  1  0
 10 11  1  0
 11 12  2  0
 11 13  1  0
 13 14  1  0
 14 15  1  0
 15 16  1  0
 16 17  1  0
 16 18  1  0
  9 19  2  0
  2 20  1  0
 20 21  2  0
 21 22  1  0
 22 23  1  0
 23 24  2  0
 24 25  1  0
 25 26  2  0
 26 27  1  0
 26 28  1  0
 28 29  2  0
 22 30  2  0
 30 31  1  0
 19  4  1  0
 31 20  1  0
 15 10  1  0
 29 23  1  0
  1 32  1  0
  1 33  1  0
  1 34  1  0
  2 35  1  0
  3 36  1  0
  6 37  1  0
 14 38  1  0
 14 39  1  0
 15 40  1  6
 16 41  1  1
 17 42  1  0
 17 43  1  0
 17 44  1  0
 18 45  1  0
 24 46  1  0
 25 47  1  0
 28 48  1  0
 29 49  1  0
 30 50  1  0
M  END
$$$$
