
     RDKit          3D

 40 41  0  0  0  0  0  0  0  0999 V2000
    5.8851    3.9386   -1.3232 N   0  0  0  0  0  0  0  0  0  0  0  0
    5.3548    2.8918   -0.9562 C   0  0  0  0  0  0  0  0  0  0  0  0
    4.7478    1.6859   -0.5239 C   0  0  0  0  0  0  0  0  0  0  0  0
    5.3350    0.8160    0.3666 C   0  0  0  0  0  0  0  0  0  0  0  0
    4.6435   -0.3152    0.9665 C   0  0  0  0  0  0  0  0  0  0  0  0
    3.3421   -0.3049    0.4610 C   0  0  0  0  0  0  0  0  0  0  0  0
    2.4343   -1.2356    1.2714 N   0  0  0  0  0  0  0  0  0  0  0  0
    1.5925   -2.1269    0.6262 C   0  0  0  0  0  0  0  0  0  0  0  0
    0.6428   -1.8196   -0.4228 C   0  0  0  0  0  0  0  0  0  0  0  0
   -0.4556   -0.9473   -0.1716 N   0  0  0  0  0  0  0  0  0  0  0  0
   -0.2584    0.4284   -0.1153 C   0  0  0  0  0  0  0  0  0  0  0  0
   -1.5749    1.2164   -0.0583 C   0  0  0  0  0  0  0  0  0  0  0  0
   -1.5038    2.3775   -0.0851 O   0  0  0  0  0  0  0  0  0  0  0  0
   -2.7691    0.4352    0.0025 N   0  0  0  0  0  0  0  0  0  0  0  0
   -4.0102    0.8752   -0.7386 C   0  0  0  0  0  0  0  0  0  0  0  0
   -4.9288    1.0709    0.4376 C   0  0  0  0  0  0  0  0  0  0  0  0
   -4.6942   -0.2149    1.2104 C   0  0  0  0  0  0  0  0  0  0  0  0
   -3.2254   -0.5901    0.8468 C   0  0  1  0  0  0  0  0  0  0  0  0
   -3.2030   -1.9692    0.4786 C   0  0  0  0  0  0  0  0  0  0  0  0
   -3.1975   -3.0478    0.1747 N   0  0  0  0  0  0  0  0  0  0  0  0
    2.8252    0.4044   -0.2998 N   0  0  0  0  0  0  0  0  0  0  0  0
    3.3893    1.5103   -0.9307 C   0  0  0  0  0  0  0  0  0  0  0  0
    6.3580    0.9791    0.6561 H   0  0  0  0  0  0  0  0  0  0  0  0
    5.0331   -0.9715    1.6149 H   0  0  0  0  0  0  0  0  0  0  0  0
    2.5593   -1.0767    2.2588 H   0  0  0  0  0  0  0  0  0  0  0  0
    2.1499   -3.0851    0.3121 H   0  0  0  0  0  0  0  0  0  0  0  0
    0.9578   -2.5972    1.5112 H   0  0  0  0  0  0  0  0  0  0  0  0
    1.1866   -1.4220   -1.3389 H   0  0  0  0  0  0  0  0  0  0  0  0
    0.1847   -2.8055   -0.8343 H   0  0  0  0  0  0  0  0  0  0  0  0
   -0.7952   -1.2746    0.8431 H   0  0  0  0  0  0  0  0  0  0  0  0
    0.3155    0.7948    0.7619 H   0  0  0  0  0  0  0  0  0  0  0  0
    0.2496    0.8400   -1.0402 H   0  0  0  0  0  0  0  0  0  0  0  0
   -4.2964    0.0666   -1.4328 H   0  0  0  0  0  0  0  0  0  0  0  0
   -3.7720    1.8350   -1.2465 H   0  0  0  0  0  0  0  0  0  0  0  0
   -5.9982    1.1374    0.1367 H   0  0  0  0  0  0  0  0  0  0  0  0
   -4.5545    1.9559    0.9817 H   0  0  0  0  0  0  0  0  0  0  0  0
   -4.8068   -0.0658    2.2698 H   0  0  0  0  0  0  0  0  0  0  0  0
   -5.3703   -0.9989    0.8106 H   0  0  0  0  0  0  0  0  0  0  0  0
   -2.6911   -0.5090    1.8692 H   0  0  0  0  0  0  0  0  0  0  0  0
    2.9186    2.1187   -1.5933 H   0  0  0  0  0  0  0  0  0  0  0  0
  1  2  3  0
  2  3  1  0
  3  4  2  0
  4  5  1  0
  5  6  2  0
  6  7  1  0
  7  8  1  0
  8  9  1  0
  9 10  1  0
 10 11  1  0
 11 12  1  0
 12 13  2  0
 12 14  1  0
 14 15  1  0
 15 16  1  0
 16 17  1  0
 17 18  1  0
 18 19  1  0
 19 20  3  0
  6 21  1  0
 21 22  2  0
 22  3  1  0
 18 14  1  0
  4 23  1  0
  5 24  1  0
  7 25  1  0
  8 26  1  0
  8 27  1  0
  9 28  1  0
  9 29  1  0
 10 30  1  0
 11 31  1  0
 11 32  1  0
 15 33  1  0
 15 34  1  0
 16 35  1  0
 16 36  1  0
 17 37  1  0
 17 38  1  0
 18 39  1  1
 22 40  1  0
M  END
$$$$
