
     RDKit          3D

 50 54  0  0  0  0  0  0  0  0999 V2000
   -2.4446    0.0981    0.7826 C   0  0  0  0  0  0  0  0  0  0  0  0
   -1.6130    0.8470   -0.0753 O   0  0  0  0  0  0  0  0  0  0  0  0
   -0.2980    1.0415    0.3265 C   0  0  0  0  0  0  0  0  0  0  0  0
    0.3018    0.5845    1.4789 C   0  0  0  0  0  0  0  0  0  0  0  0
    1.6263    0.8755    1.7144 C   0  0  0  0  0  0  0  0  0  0  0  0
    2.4016    1.6237    0.8260 C   0  0  0  0  0  0  0  0  0  0  0  0
    1.7641    2.0613   -0.3130 C   0  0  0  0  0  0  0  0  0  0  0  0
    0.4423    1.7794   -0.5633 C   0  0  0  0  0  0  0  0  0  0  0  0
    3.7746    1.8318    1.2562 C   0  0  0  0  0  0  0  0  0  0  0  0
    4.0800    2.2224    2.5181 N   0  0  0  0  0  0  0  0  0  0  0  0
    5.3893    2.3358    2.6457 N   0  0  0  0  0  0  0  0  0  0  0  0
    5.9116    2.0118    1.4483 C   0  0  0  0  0  0  0  0  0  0  0  0
    4.9250    1.6795    0.5179 C   0  0  0  0  0  0  0  0  0  0  0  0
    5.1149    1.2656   -0.8807 C   0  0  0  0  0  0  0  0  0  0  0  0
    4.9669   -0.1961   -1.0950 C   0  0  0  0  0  0  0  0  0  0  0  0
    3.8136   -0.8792   -1.4209 C   0  0  0  0  0  0  0  0  0  0  0  0
    3.8068   -2.2468   -1.5928 C   0  0  0  0  0  0  0  0  0  0  0  0
    4.9209   -2.9978   -1.4538 N   0  0  0  0  0  0  0  0  0  0  0  0
    6.0819   -2.3998   -1.1369 C   0  0  0  0  0  0  0  0  0  0  0  0
    6.0848   -1.0322   -0.9657 C   0  0  0  0  0  0  0  0  0  0  0  0
   -3.8142   -0.0362    0.2438 C   0  0  0  0  0  0  0  0  0  0  0  0
   -4.7499   -0.7056    0.9390 N   0  0  0  0  0  0  0  0  0  0  0  0
   -5.9980   -0.8299    0.4534 C   0  0  0  0  0  0  0  0  0  0  0  0
   -7.0063   -1.5086    1.1238 C   0  0  0  0  0  0  0  0  0  0  0  0
   -8.2908   -1.6417    0.6336 C   0  0  0  0  0  0  0  0  0  0  0  0
   -8.6055   -1.0702   -0.5964 C   0  0  0  0  0  0  0  0  0  0  0  0
   -7.6090   -0.3944   -1.2685 C   0  0  0  0  0  0  0  0  0  0  0  0
   -6.3330   -0.2640   -0.7783 C   0  0  0  0  0  0  0  0  0  0  0  0
   -5.3618    0.4221   -1.4838 C   0  0  0  0  0  0  0  0  0  0  0  0
   -4.0809    0.5548   -0.9950 C   0  0  0  0  0  0  0  0  0  0  0  0
   -1.9864   -0.9044    0.8959 H   0  0  0  0  0  0  0  0  0  0  0  0
   -2.5325    0.6015    1.7687 H   0  0  0  0  0  0  0  0  0  0  0  0
   -0.3344    0.0101    2.1382 H   0  0  0  0  0  0  0  0  0  0  0  0
    2.0128    0.4772    2.6412 H   0  0  0  0  0  0  0  0  0  0  0  0
    2.3874    2.6371   -0.9739 H   0  0  0  0  0  0  0  0  0  0  0  0
    0.0635    2.1815   -1.4939 H   0  0  0  0  0  0  0  0  0  0  0  0
    5.9009    2.6186    3.5013 H   0  0  0  0  0  0  0  0  0  0  0  0
    6.9815    1.9996    1.1987 H   0  0  0  0  0  0  0  0  0  0  0  0
    6.1908    1.4962   -1.1434 H   0  0  0  0  0  0  0  0  0  0  0  0
    4.5374    1.8585   -1.6164 H   0  0  0  0  0  0  0  0  0  0  0  0
    2.9236   -0.2802   -1.5331 H   0  0  0  0  0  0  0  0  0  0  0  0
    2.8444   -2.6689   -1.8459 H   0  0  0  0  0  0  0  0  0  0  0  0
    7.0066   -2.9544   -1.0129 H   0  0  0  0  0  0  0  0  0  0  0  0
    7.0312   -0.5719   -0.7101 H   0  0  0  0  0  0  0  0  0  0  0  0
   -6.7502   -1.9495    2.0816 H   0  0  0  0  0  0  0  0  0  0  0  0
   -9.0776   -2.1682    1.1501 H   0  0  0  0  0  0  0  0  0  0  0  0
   -9.5739   -1.1076   -1.0817 H   0  0  0  0  0  0  0  0  0  0  0  0
   -7.8097    0.0653   -2.2271 H   0  0  0  0  0  0  0  0  0  0  0  0
   -5.6345    0.8537   -2.4326 H   0  0  0  0  0  0  0  0  0  0  0  0
   -3.3822    1.0979   -1.5936 H   0  0  0  0  0  0  0  0  0  0  0  0
  1  2  1  0
  2  3  1  0
  3  4  2  0
  4  5  1  0
  5  6  2  0
  6  7  1  0
  7  8  2  0
  6  9  1  0
  9 10  2  0
 10 11  1  0
 11 12  1  0
 12 13  2  0
 13 14  1  0
 14 15  1  0
 15 16  2  0
 16 17  1  0
 17 18  2  0
 18 19  1  0
 19 20  2  0
  1 21  1  0
 21 22  2  0
 22 23  1  0
 23 24  2  0
 24 25  1  0
 25 26  2  0
 26 27  1  0
 27 28  2  0
 28 29  1  0
 29 30  2  0
  8  3  1  0
 13  9  1  0
 20 15  1  0
 30 21  1  0
 28 23  1  0
  1 31  1  0
  1 32  1  0
  4 33  1  0
  5 34  1  0
  7 35  1  0
  8 36  1  0
 11 37  1  0
 12 38  1  0
 14 39  1  0
 14 40  1  0
 16 41  1  0
 17 42  1  0
 19 43  1  0
 20 44  1  0
 24 45  1  0
 25 46  1  0
 26 47  1  0
 27 48  1  0
 29 49  1  0
 30 50  1  0
M  END
$$$$
