
     RDKit          3D

 23 24  0  0  0  0  0  0  0  0999 V2000
    4.2492   -0.0164   -0.5322 C   0  0  0  0  0  0  0  0  0  0  0  0
    3.7021   -0.2253    0.8548 C   0  0  0  0  0  0  0  0  0  0  0  0
    2.3022   -0.3467    0.7725 O   0  0  0  0  0  0  0  0  0  0  0  0
    1.4605    0.6098    0.2810 C   0  0  0  0  0  0  0  0  0  0  0  0
    1.9391    1.6929   -0.1382 O   0  0  0  0  0  0  0  0  0  0  0  0
   -0.0002    0.4021    0.2299 C   0  0  0  0  0  0  0  0  0  0  0  0
   -0.9257    1.2537   -0.2247 N   0  0  0  0  0  0  0  0  0  0  0  0
   -2.1437    0.6771   -0.0939 C   0  0  0  0  0  0  0  0  0  0  0  0
   -3.4224    1.0977   -0.3973 C   0  0  0  0  0  0  0  0  0  0  0  0
   -4.5185    0.2730   -0.1483 C   0  0  0  0  0  0  0  0  0  0  0  0
   -4.3016   -0.9789    0.4101 C   0  0  0  0  0  0  0  0  0  0  0  0
   -3.0319   -1.3332    0.6842 N   0  0  0  0  0  0  0  0  0  0  0  0
   -1.9939   -0.5473    0.4463 N   0  0  0  0  0  0  0  0  0  0  0  0
   -0.6595   -0.7325    0.6539 C   0  0  0  0  0  0  0  0  0  0  0  0
    0.2890   -2.4130    1.4666 I   0  0  0  0  0  0  0  0  0  0  0  0
    3.7619   -0.7060   -1.2546 H   0  0  0  0  0  0  0  0  0  0  0  0
    4.0609    1.0209   -0.8530 H   0  0  0  0  0  0  0  0  0  0  0  0
    5.3498   -0.1686   -0.5661 H   0  0  0  0  0  0  0  0  0  0  0  0
    4.1051   -1.2168    1.2030 H   0  0  0  0  0  0  0  0  0  0  0  0
    4.0328    0.5706    1.5301 H   0  0  0  0  0  0  0  0  0  0  0  0
   -3.6139    2.0778   -0.8365 H   0  0  0  0  0  0  0  0  0  0  0  0
   -5.4895    0.6433   -0.4005 H   0  0  0  0  0  0  0  0  0  0  0  0
   -5.1518   -1.6342    0.6100 H   0  0  0  0  0  0  0  0  0  0  0  0
  1  2  1  0
  2  3  1  0
  3  4  1  0
  4  5  2  0
  4  6  1  0
  6  7  1  0
  7  8  2  0
  8  9  1  0
  9 10  2  0
 10 11  1  0
 11 12  2  0
 12 13  1  0
 13 14  1  0
 14 15  1  0
 14  6  2  0
 13  8  1  0
  1 16  1  0
  1 17  1  0
  1 18  1  0
  2 19  1  0
  2 20  1  0
  9 21  1  0
 10 22  1  0
 11 23  1  0
M  END
$$$$
