
     RDKit          3D

126133  0  0  0  0  0  0  0  0999 V2000
    9.3916   -3.8101    2.1785 C   0  0  0  0  0  0  0  0  0  0  0  0
    9.9388   -2.7187    1.3375 C   0  0  0  0  0  0  0  0  0  0  0  0
   11.1279   -2.2114    1.5766 C   0  0  0  0  0  0  0  0  0  0  0  0
   11.3163   -0.7696    1.2888 C   0  0  1  0  0  0  0  0  0  0  0  0
   12.0280   -0.4562    0.0217 C   0  0  0  0  0  0  0  0  0  0  0  0
   11.0896   -0.1558   -1.0956 C   0  0  0  0  0  0  0  0  0  0  0  0
   11.6778    0.2271   -2.2511 N   0  0  0  0  0  0  0  0  0  0  0  0
   10.9210    0.4862   -3.3301 C   0  0  0  0  0  0  0  0  0  0  0  0
   11.4969    0.8427   -4.3945 O   0  0  0  0  0  0  0  0  0  0  0  0
    9.5531    0.3788   -3.3187 C   0  0  0  0  0  0  0  0  0  0  0  0
    8.9493   -0.0163   -2.1254 C   0  0  0  0  0  0  0  0  0  0  0  0
    9.7400   -0.2701   -1.0492 C   0  0  0  0  0  0  0  0  0  0  0  0
    9.0950   -0.7052    0.2401 C   0  0  1  0  0  0  0  0  0  0  0  0
    9.1330   -2.2067    0.2089 C   0  0  0  0  0  0  0  0  0  0  0  0
    9.9596   -0.1433    1.3651 C   0  0  2  0  0  0  0  0  0  0  0  0
   10.0569    1.3313    1.2371 C   0  0  0  0  0  0  0  0  0  0  0  0
    8.7254    2.0416    1.2340 C   0  0  0  0  0  0  0  0  0  0  0  0
    7.7531    1.3583    0.2978 C   0  0  0  0  0  0  0  0  0  0  0  0
    7.8232   -0.0904    0.4220 N   0  0  0  0  0  0  0  0  0  0  0  0
    6.6338   -0.7581    0.7378 C   0  0  0  0  0  0  0  0  0  0  0  0
    6.4392   -1.9776    0.9093 O   0  0  0  0  0  0  0  0  0  0  0  0
    5.3530    0.0676    0.9124 C   0  0  0  0  0  0  0  0  0  0  0  0
    4.1651   -0.8061    1.1960 C   0  0  0  0  0  0  0  0  0  0  0  0
    2.9581    0.0140    1.3894 N   0  0  0  0  0  0  0  0  0  0  0  0
    1.8070   -0.7321    1.6274 C   0  0  0  0  0  0  0  0  0  0  0  0
    3.0098    1.1910    0.6708 C   0  0  0  0  0  0  0  0  0  0  0  0
    1.9013    2.1520    0.7807 C   0  0  0  0  0  0  0  0  0  0  0  0
    0.5692    1.7111    0.3448 C   0  0  0  0  0  0  0  0  0  0  0  0
    0.5821    1.2255   -1.0994 C   0  0  0  0  0  0  0  0  0  0  0  0
   -0.8886    0.8783   -1.4177 C   0  0  0  0  0  0  0  0  0  0  0  0
   -1.0233    0.3377   -2.7884 C   0  0  0  0  0  0  0  0  0  0  0  0
   -2.3939   -0.0219   -3.2234 C   0  0  0  0  0  0  0  0  0  0  0  0
   -3.2945    1.1702   -3.2931 C   0  0  0  0  0  0  0  0  0  0  0  0
   -3.4677    1.8135   -2.0558 N   0  0  0  0  0  0  0  0  0  0  0  0
   -4.2178    3.0826   -2.2778 C   0  0  0  0  0  0  0  0  0  0  0  0
   -4.2117    1.0206   -1.1145 C   0  0  0  0  0  0  0  0  0  0  0  0
   -5.6589    0.9211   -1.5437 C   0  0  0  0  0  0  0  0  0  0  0  0
   -6.4448    0.1560   -0.5349 C   0  0  0  0  0  0  0  0  0  0  0  0
   -5.8817   -0.3417    0.4504 O   0  0  0  0  0  0  0  0  0  0  0  0
   -7.8364    0.0200   -0.7310 N   0  0  0  0  0  0  0  0  0  0  0  0
   -8.4935    0.5658   -1.9266 C   0  0  0  0  0  0  0  0  0  0  0  0
   -9.7281    1.3534   -1.5744 C   0  0  0  0  0  0  0  0  0  0  0  0
  -10.7135    0.5318   -0.7868 C   0  0  0  0  0  0  0  0  0  0  0  0
  -10.0719   -0.8014   -0.4766 C   0  0  2  0  0  0  0  0  0  0  0  0
  -10.9556   -1.6333    0.4353 C   0  0  1  0  0  0  0  0  0  0  0  0
  -10.4147   -3.0390    0.3114 C   0  0  0  0  0  0  0  0  0  0  0  0
   -9.0905   -3.1186    0.3134 C   0  0  0  0  0  0  0  0  0  0  0  0
   -8.4567   -4.4373   -0.0508 C   0  0  0  0  0  0  0  0  0  0  0  0
   -8.2447   -1.9741    0.6571 C   0  0  0  0  0  0  0  0  0  0  0  0
   -8.7250   -0.6320    0.2164 C   0  0  1  0  0  0  0  0  0  0  0  0
   -9.0147    0.2827    1.3609 C   0  0  0  0  0  0  0  0  0  0  0  0
   -8.2956    1.4098    1.6147 C   0  0  0  0  0  0  0  0  0  0  0  0
   -8.6488    2.2020    2.7064 C   0  0  0  0  0  0  0  0  0  0  0  0
   -9.7151    1.8219    3.4965 C   0  0  0  0  0  0  0  0  0  0  0  0
  -10.0261    2.5520    4.4872 O   0  0  0  0  0  0  0  0  0  0  0  0
  -10.4023    0.7204    3.2314 N   0  0  0  0  0  0  0  0  0  0  0  0
  -10.0733   -0.0636    2.1726 C   0  0  0  0  0  0  0  0  0  0  0  0
  -10.8549   -1.2762    1.8817 C   0  0  0  0  0  0  0  0  0  0  0  0
    9.9687   -4.7408    1.9031 H   0  0  0  0  0  0  0  0  0  0  0  0
    9.4756   -3.6163    3.2697 H   0  0  0  0  0  0  0  0  0  0  0  0
    8.3502   -4.0331    1.8729 H   0  0  0  0  0  0  0  0  0  0  0  0
   11.9118   -2.8358    1.9719 H   0  0  0  0  0  0  0  0  0  0  0  0
   11.9131   -0.2998    2.1300 H   0  0  0  0  0  0  0  0  0  0  0  0
   12.7749    0.3563    0.1538 H   0  0  0  0  0  0  0  0  0  0  0  0
   12.6053   -1.3630   -0.2886 H   0  0  0  0  0  0  0  0  0  0  0  0
   12.7097    0.3293   -2.3318 H   0  0  0  0  0  0  0  0  0  0  0  0
    8.9099    0.5770   -4.1599 H   0  0  0  0  0  0  0  0  0  0  0  0
    7.8461   -0.1289   -2.1023 H   0  0  0  0  0  0  0  0  0  0  0  0
    9.7478   -2.5318   -0.7171 H   0  0  0  0  0  0  0  0  0  0  0  0
    8.2003   -2.7280    0.0497 H   0  0  0  0  0  0  0  0  0  0  0  0
    9.5297   -0.4013    2.3592 H   0  0  0  0  0  0  0  0  0  0  0  0
   10.7008    1.7000    0.4342 H   0  0  0  0  0  0  0  0  0  0  0  0
   10.5723    1.6908    2.1875 H   0  0  0  0  0  0  0  0  0  0  0  0
    8.8977    3.0603    0.8313 H   0  0  0  0  0  0  0  0  0  0  0  0
    8.3682    2.1422    2.2590 H   0  0  0  0  0  0  0  0  0  0  0  0
    6.7417    1.7484    0.5020 H   0  0  0  0  0  0  0  0  0  0  0  0
    8.0219    1.6693   -0.7083 H   0  0  0  0  0  0  0  0  0  0  0  0
    5.1670    0.5893   -0.0528 H   0  0  0  0  0  0  0  0  0  0  0  0
    5.5303    0.7322    1.7715 H   0  0  0  0  0  0  0  0  0  0  0  0
    4.0146   -1.5068    0.3623 H   0  0  0  0  0  0  0  0  0  0  0  0
    4.2805   -1.3925    2.1329 H   0  0  0  0  0  0  0  0  0  0  0  0
    1.1826   -0.9545    0.7312 H   0  0  0  0  0  0  0  0  0  0  0  0
    1.1474   -0.3785    2.4750 H   0  0  0  0  0  0  0  0  0  0  0  0
    2.1512   -1.7481    2.0307 H   0  0  0  0  0  0  0  0  0  0  0  0
    3.2401    0.9326   -0.4092 H   0  0  0  0  0  0  0  0  0  0  0  0
    3.9738    1.7746    0.9547 H   0  0  0  0  0  0  0  0  0  0  0  0
    2.1979    3.0733    0.2000 H   0  0  0  0  0  0  0  0  0  0  0  0
    1.8220    2.4831    1.8744 H   0  0  0  0  0  0  0  0  0  0  0  0
   -0.0912    2.6532    0.3338 H   0  0  0  0  0  0  0  0  0  0  0  0
    0.0363    1.0457    1.0271 H   0  0  0  0  0  0  0  0  0  0  0  0
    0.8695    2.0435   -1.7685 H   0  0  0  0  0  0  0  0  0  0  0  0
    1.2265    0.3588   -1.2660 H   0  0  0  0  0  0  0  0  0  0  0  0
   -1.2630    0.1564   -0.6670 H   0  0  0  0  0  0  0  0  0  0  0  0
   -1.4390    1.8327   -1.3060 H   0  0  0  0  0  0  0  0  0  0  0  0
   -0.3786   -0.5809   -2.9189 H   0  0  0  0  0  0  0  0  0  0  0  0
   -0.5532    1.0909   -3.4997 H   0  0  0  0  0  0  0  0  0  0  0  0
   -2.7784   -0.7936   -2.4964 H   0  0  0  0  0  0  0  0  0  0  0  0
   -2.3853   -0.5831   -4.2106 H   0  0  0  0  0  0  0  0  0  0  0  0
   -4.2675    0.8016   -3.7414 H   0  0  0  0  0  0  0  0  0  0  0  0
   -2.9279    1.8820   -4.0995 H   0  0  0  0  0  0  0  0  0  0  0  0
   -3.4707    3.8138   -2.5846 H   0  0  0  0  0  0  0  0  0  0  0  0
   -5.0217    2.9168   -3.0220 H   0  0  0  0  0  0  0  0  0  0  0  0
   -4.6121    3.3483   -1.2841 H   0  0  0  0  0  0  0  0  0  0  0  0
   -3.8410   -0.0095   -0.9924 H   0  0  0  0  0  0  0  0  0  0  0  0
   -4.1400    1.4791   -0.1015 H   0  0  0  0  0  0  0  0  0  0  0  0
   -5.7289    0.3647   -2.4782 H   0  0  0  0  0  0  0  0  0  0  0  0
   -6.1027    1.9435   -1.5705 H   0  0  0  0  0  0  0  0  0  0  0  0
   -7.7629    1.2185   -2.4222 H   0  0  0  0  0  0  0  0  0  0  0  0
   -8.7273   -0.2543   -2.6444 H   0  0  0  0  0  0  0  0  0  0  0  0
   -9.4241    2.2760   -1.0332 H   0  0  0  0  0  0  0  0  0  0  0  0
  -10.1839    1.6742   -2.5292 H   0  0  0  0  0  0  0  0  0  0  0  0
  -10.9926    1.0993    0.1071 H   0  0  0  0  0  0  0  0  0  0  0  0
  -11.6089    0.3414   -1.3867 H   0  0  0  0  0  0  0  0  0  0  0  0
   -9.9155   -1.3408   -1.4101 H   0  0  0  0  0  0  0  0  0  0  0  0
  -11.9780   -1.6018    0.0494 H   0  0  0  0  0  0  0  0  0  0  0  0
  -11.0780   -3.8863    0.2319 H   0  0  0  0  0  0  0  0  0  0  0  0
   -8.3909   -4.4757   -1.1504 H   0  0  0  0  0  0  0  0  0  0  0  0
   -7.4590   -4.4808    0.3964 H   0  0  0  0  0  0  0  0  0  0  0  0
   -9.1021   -5.2472    0.3375 H   0  0  0  0  0  0  0  0  0  0  0  0
   -8.1213   -1.9367    1.7759 H   0  0  0  0  0  0  0  0  0  0  0  0
   -7.2274   -2.1660    0.2438 H   0  0  0  0  0  0  0  0  0  0  0  0
   -7.4663    1.7511    1.0250 H   0  0  0  0  0  0  0  0  0  0  0  0
   -8.0743    3.1052    2.9098 H   0  0  0  0  0  0  0  0  0  0  0  0
  -11.2026    0.4858    3.8702 H   0  0  0  0  0  0  0  0  0  0  0  0
  -10.4277   -2.0987    2.5241 H   0  0  0  0  0  0  0  0  0  0  0  0
  -11.8924   -1.1269    2.3079 H   0  0  0  0  0  0  0  0  0  0  0  0
  1  2  1  0
  2  3  2  0
  3  4  1  0
  4  5  1  0
  5  6  1  0
  6  7  1  0
  7  8  1  0
  8  9  2  0
  8 10  1  0
 10 11  2  0
 11 12  1  0
 12 13  1  0
 13 14  1  0
 13 15  1  0
 15 16  1  0
 16 17  1  0
 17 18  1  0
 18 19  1  0
 19 20  1  0
 20 21  2  0
 20 22  1  0
 22 23  1  0
 23 24  1  0
 24 25  1  0
 24 26  1  0
 26 27  1  0
 27 28  1  0
 28 29  1  0
 29 30  1  0
 30 31  1  0
 31 32  1  0
 32 33  1  0
 33 34  1  0
 34 35  1  0
 34 36  1  0
 36 37  1  0
 37 38  1  0
 38 39  2  0
 38 40  1  0
 40 41  1  0
 41 42  1  0
 42 43  1  0
 43 44  1  0
 44 45  1  0
 45 46  1  0
 46 47  2  0
 47 48  1  0
 47 49  1  0
 49 50  1  0
 50 51  1  0
 51 52  1  0
 52 53  2  0
 53 54  1  0
 54 55  2  0
 54 56  1  0
 56 57  1  0
 57 58  1  0
 14  2  1  0
 50 40  1  6
 57 51  2  0
 15  4  1  0
 50 44  1  0
 12  6  2  0
 13 19  1  1
 58 45  1  0
  1 59  1  0
  1 60  1  0
  1 61  1  0
  3 62  1  0
  4 63  1  1
  5 64  1  0
  5 65  1  0
  7 66  1  0
 10 67  1  0
 11 68  1  0
 14 69  1  0
 14 70  1  0
 15 71  1  1
 16 72  1  0
 16 73  1  0
 17 74  1  0
 17 75  1  0
 18 76  1  0
 18 77  1  0
 22 78  1  0
 22 79  1  0
 23 80  1  0
 23 81  1  0
 25 82  1  0
 25 83  1  0
 25 84  1  0
 26 85  1  0
 26 86  1  0
 27 87  1  0
 27 88  1  0
 28 89  1  0
 28 90  1  0
 29 91  1  0
 29 92  1  0
 30 93  1  0
 30 94  1  0
 31 95  1  0
 31 96  1  0
 32 97  1  0
 32 98  1  0
 33 99  1  0
 33100  1  0
 35101  1  0
 35102  1  0
 35103  1  0
 36104  1  0
 36105  1  0
 37106  1  0
 37107  1  0
 41108  1  0
 41109  1  0
 42110  1  0
 42111  1  0
 43112  1  0
 43113  1  0
 44114  1  6
 45115  1  6
 46116  1  0
 48117  1  0
 48118  1  0
 48119  1  0
 49120  1  0
 49121  1  0
 52122  1  0
 53123  1  0
 56124  1  0
 58125  1  0
 58126  1  0
M  END
$$$$
