
     RDKit          3D

 69 73  0  0  0  0  0  0  0  0999 V2000
   10.2086   -1.3582   -1.5090 C   0  0  0  0  0  0  0  0  0  0  0  0
    9.8562   -0.5292   -0.4385 O   0  0  0  0  0  0  0  0  0  0  0  0
    8.5851   -0.2844    0.0231 C   0  0  0  0  0  0  0  0  0  0  0  0
    7.4940   -0.8707   -0.5611 C   0  0  0  0  0  0  0  0  0  0  0  0
    6.2362   -0.5834   -0.0486 C   0  0  0  0  0  0  0  0  0  0  0  0
    6.0439    0.2525    1.0052 C   0  0  0  0  0  0  0  0  0  0  0  0
    4.8153    0.5982    1.5905 N   0  0  0  0  0  0  0  0  0  0  0  0
    3.5402    0.1365    1.2031 C   0  0  0  0  0  0  0  0  0  0  0  0
    3.4042   -0.6595    0.2565 O   0  0  0  0  0  0  0  0  0  0  0  0
    2.3759    0.5536    1.8659 O   0  0  0  0  0  0  0  0  0  0  0  0
    1.1607    0.0560    1.4273 C   0  0  0  0  0  0  0  0  0  0  0  0
    0.6748   -1.1098    1.9747 C   0  0  0  0  0  0  0  0  0  0  0  0
   -0.5349   -1.6265    1.5547 C   0  0  0  0  0  0  0  0  0  0  0  0
   -1.2666   -0.9769    0.5820 C   0  0  0  0  0  0  0  0  0  0  0  0
   -0.7962    0.2090    0.0089 C   0  0  0  0  0  0  0  0  0  0  0  0
    0.4208    0.6912    0.4595 C   0  0  0  0  0  0  0  0  0  0  0  0
   -1.7832    0.6901   -1.0083 C   0  0  2  0  0  0  0  0  0  0  0  0
   -1.3451    0.4012   -2.4169 C   0  0  0  0  0  0  0  0  0  0  0  0
   -2.1987    2.1144   -0.7802 C   0  0  0  0  0  0  0  0  0  0  0  0
   -3.5001    2.0348   -0.0123 C   0  0  0  0  0  0  0  0  0  0  0  0
   -3.8555    0.6791    0.1175 N   0  0  0  0  0  0  0  0  0  0  0  0
   -5.2118    0.3282    0.2492 C   0  0  0  0  0  0  0  0  0  0  0  0
   -5.9455    0.6049   -1.0484 C   0  0  0  0  0  0  0  0  0  0  0  0
   -7.3722    0.2497   -0.9648 C   0  0  0  0  0  0  0  0  0  0  0  0
   -8.2988    1.1732   -0.5590 C   0  0  0  0  0  0  0  0  0  0  0  0
   -9.6584    0.8459   -0.4736 C   0  0  0  0  0  0  0  0  0  0  0  0
  -10.0373   -0.4284   -0.8085 C   0  0  0  0  0  0  0  0  0  0  0  0
   -9.1279   -1.3771   -1.2197 C   0  0  0  0  0  0  0  0  0  0  0  0
   -7.7733   -1.0197   -1.2953 C   0  0  0  0  0  0  0  0  0  0  0  0
   -3.0064   -0.1370   -0.6605 C   0  0  2  0  0  0  0  0  0  0  0  0
   -2.5161   -1.3139    0.0055 N   0  0  0  0  0  0  0  0  0  0  0  0
   -3.1757   -2.5981    0.0723 C   0  0  0  0  0  0  0  0  0  0  0  0
    7.1968    0.8164    1.5538 C   0  0  0  0  0  0  0  0  0  0  0  0
    8.4553    0.5742    1.0966 C   0  0  0  0  0  0  0  0  0  0  0  0
    9.5365    1.1706    1.6943 O   0  0  0  0  0  0  0  0  0  0  0  0
    9.4363    2.0441    2.7807 C   0  0  0  0  0  0  0  0  0  0  0  0
    9.5030   -2.2372   -1.5066 H   0  0  0  0  0  0  0  0  0  0  0  0
   10.1040   -0.8613   -2.4785 H   0  0  0  0  0  0  0  0  0  0  0  0
   11.2589   -1.7252   -1.4322 H   0  0  0  0  0  0  0  0  0  0  0  0
    7.5835   -1.5542   -1.4140 H   0  0  0  0  0  0  0  0  0  0  0  0
    5.3810   -1.0502   -0.5166 H   0  0  0  0  0  0  0  0  0  0  0  0
    4.8169    1.2741    2.4099 H   0  0  0  0  0  0  0  0  0  0  0  0
    1.2715   -1.6000    2.7384 H   0  0  0  0  0  0  0  0  0  0  0  0
   -0.8933   -2.5340    1.9940 H   0  0  0  0  0  0  0  0  0  0  0  0
    0.7920    1.6043    0.0243 H   0  0  0  0  0  0  0  0  0  0  0  0
   -1.5444    1.2528   -3.0975 H   0  0  0  0  0  0  0  0  0  0  0  0
   -1.8516   -0.5196   -2.8144 H   0  0  0  0  0  0  0  0  0  0  0  0
   -0.2570    0.1903   -2.4096 H   0  0  0  0  0  0  0  0  0  0  0  0
   -2.3232    2.6064   -1.7760 H   0  0  0  0  0  0  0  0  0  0  0  0
   -1.4675    2.7049   -0.2165 H   0  0  0  0  0  0  0  0  0  0  0  0
   -3.4344    2.5847    0.9577 H   0  0  0  0  0  0  0  0  0  0  0  0
   -4.2517    2.5768   -0.6145 H   0  0  0  0  0  0  0  0  0  0  0  0
   -5.6781    0.9490    1.0741 H   0  0  0  0  0  0  0  0  0  0  0  0
   -5.3852   -0.7172    0.5913 H   0  0  0  0  0  0  0  0  0  0  0  0
   -5.4400    0.1024   -1.8930 H   0  0  0  0  0  0  0  0  0  0  0  0
   -5.9149    1.6923   -1.2961 H   0  0  0  0  0  0  0  0  0  0  0  0
   -8.0523    2.1936   -0.2831 H   0  0  0  0  0  0  0  0  0  0  0  0
  -10.3929    1.5662   -0.1557 H   0  0  0  0  0  0  0  0  0  0  0  0
  -11.0718   -0.7041   -0.7514 H   0  0  0  0  0  0  0  0  0  0  0  0
   -9.4829   -2.3639   -1.4707 H   0  0  0  0  0  0  0  0  0  0  0  0
   -7.1101   -1.8080   -1.6244 H   0  0  0  0  0  0  0  0  0  0  0  0
   -3.5048   -0.4095   -1.6106 H   0  0  0  0  0  0  0  0  0  0  0  0
   -4.0053   -2.6649   -0.6628 H   0  0  0  0  0  0  0  0  0  0  0  0
   -3.5274   -2.7929    1.1147 H   0  0  0  0  0  0  0  0  0  0  0  0
   -2.4830   -3.4441   -0.1942 H   0  0  0  0  0  0  0  0  0  0  0  0
    7.1027    1.4893    2.3940 H   0  0  0  0  0  0  0  0  0  0  0  0
    8.9004    1.6034    3.6616 H   0  0  0  0  0  0  0  0  0  0  0  0
   10.4656    2.3504    3.0683 H   0  0  0  0  0  0  0  0  0  0  0  0
    8.8551    2.9428    2.4736 H   0  0  0  0  0  0  0  0  0  0  0  0
  1  2  1  0
  2  3  1  0
  3  4  2  0
  4  5  1  0
  5  6  2  0
  6  7  1  0
  7  8  1  0
  8  9  2  0
  8 10  1  0
 10 11  1  0
 11 12  2  0
 12 13  1  0
 13 14  2  0
 14 15  1  0
 15 16  2  0
 15 17  1  0
 17 18  1  6
 17 19  1  0
 19 20  1  0
 20 21  1  0
 21 22  1  0
 22 23  1  0
 23 24  1  0
 24 25  2  0
 25 26  1  0
 26 27  2  0
 27 28  1  0
 28 29  2  0
 21 30  1  0
 30 31  1  0
 31 32  1  0
  6 33  1  0
 33 34  2  0
 34 35  1  0
 35 36  1  0
 34  3  1  0
 16 11  1  0
 30 17  1  0
 31 14  1  0
 29 24  1  0
  1 37  1  0
  1 38  1  0
  1 39  1  0
  4 40  1  0
  5 41  1  0
  7 42  1  0
 12 43  1  0
 13 44  1  0
 16 45  1  0
 18 46  1  0
 18 47  1  0
 18 48  1  0
 19 49  1  0
 19 50  1  0
 20 51  1  0
 20 52  1  0
 22 53  1  0
 22 54  1  0
 23 55  1  0
 23 56  1  0
 25 57  1  0
 26 58  1  0
 27 59  1  0
 28 60  1  0
 29 61  1  0
 30 62  1  6
 32 63  1  0
 32 64  1  0
 32 65  1  0
 33 66  1  0
 36 67  1  0
 36 68  1  0
 36 69  1  0
M  END
$$$$
