
     RDKit          3D

 73 80  0  0  0  0  0  0  0  0999 V2000
  -10.2922   -1.9690    3.3604 O   0  0  0  0  0  0  0  0  0  0  0  0
   -9.6066   -1.3472    2.4983 C   0  0  0  0  0  0  0  0  0  0  0  0
  -10.0641   -0.4625    1.5922 N   0  0  0  0  0  0  0  0  0  0  0  0
   -9.0377   -0.0316    0.8714 N   0  0  0  0  0  0  0  0  0  0  0  0
   -7.9545   -0.6498    1.3338 C   0  0  0  0  0  0  0  0  0  0  0  0
   -6.6409   -0.5380    0.9128 C   0  0  0  0  0  0  0  0  0  0  0  0
   -6.2889    0.3008   -0.1218 C   0  0  0  0  0  0  0  0  0  0  0  0
   -4.9590    0.3831   -0.5128 C   0  0  0  0  0  0  0  0  0  0  0  0
   -4.5681    1.2524   -1.5902 C   0  0  0  0  0  0  0  0  0  0  0  0
   -4.7786    2.5998   -1.4962 C   0  0  0  0  0  0  0  0  0  0  0  0
   -4.4204    3.4774   -2.5042 C   0  0  0  0  0  0  0  0  0  0  0  0
   -3.8356    2.9988   -3.6389 C   0  0  0  0  0  0  0  0  0  0  0  0
   -3.6113    1.6455   -3.7611 C   0  0  0  0  0  0  0  0  0  0  0  0
   -3.9793    0.7659   -2.7313 C   0  0  0  0  0  0  0  0  0  0  0  0
   -3.9952   -0.3652    0.1245 C   0  0  0  0  0  0  0  0  0  0  0  0
   -2.6186   -0.2340   -0.3332 C   0  0  0  0  0  0  0  0  0  0  0  0
   -1.9754   -1.3440   -0.8411 C   0  0  0  0  0  0  0  0  0  0  0  0
   -0.6741   -1.2365   -1.2786 C   0  0  0  0  0  0  0  0  0  0  0  0
    0.0371   -0.0449   -1.2338 C   0  0  0  0  0  0  0  0  0  0  0  0
    1.4296    0.0091   -1.7209 C   0  0  0  0  0  0  0  0  0  0  0  0
    2.4297   -0.2759   -0.7563 N   0  0  0  0  0  0  0  0  0  0  0  0
    2.3422   -1.5595   -0.1532 C   0  0  0  0  0  0  0  0  0  0  0  0
    3.6472   -1.8838    0.5390 C   0  0  0  0  0  0  0  0  0  0  0  0
    3.8405   -0.9123    1.6601 C   0  0  0  0  0  0  0  0  0  0  0  0
    5.2996   -0.7887    1.9383 C   0  0  0  0  0  0  0  0  0  0  0  0
    5.9278   -1.1462    3.0724 N   0  0  0  0  0  0  0  0  0  0  0  0
    7.2309   -0.8851    2.9438 N   0  0  0  0  0  0  0  0  0  0  0  0
    7.4532   -0.3649    1.7449 C   0  0  0  0  0  0  0  0  0  0  0  0
    8.7240    0.0693    1.1740 C   0  0  0  0  0  0  0  0  0  0  0  0
    8.8068    0.5969   -0.0994 C   0  0  0  0  0  0  0  0  0  0  0  0
   10.0044    1.0080   -0.6428 C   0  0  0  0  0  0  0  0  0  0  0  0
   11.1537    0.8915    0.1010 C   0  0  0  0  0  0  0  0  0  0  0  0
   11.0678    0.3618    1.3785 C   0  0  0  0  0  0  0  0  0  0  0  0
    9.8775   -0.0279    1.8715 N   0  0  0  0  0  0  0  0  0  0  0  0
    6.2617   -0.3061    1.1264 N   0  0  0  0  0  0  0  0  0  0  0  0
    3.1820    0.4130    1.4765 C   0  0  0  0  0  0  0  0  0  0  0  0
    2.8863    0.7907    0.0548 C   0  0  0  0  0  0  0  0  0  0  0  0
   -0.6527    1.0323   -0.7176 C   0  0  0  0  0  0  0  0  0  0  0  0
   -1.9387    0.9663   -0.2750 C   0  0  0  0  0  0  0  0  0  0  0  0
   -4.3742   -1.1717    1.1283 N   0  0  0  0  0  0  0  0  0  0  0  0
   -5.6559   -1.2720    1.5290 C   0  0  0  0  0  0  0  0  0  0  0  0
   -5.9992   -2.1284    2.5819 C   0  0  0  0  0  0  0  0  0  0  0  0
   -7.3189   -2.2070    2.9666 C   0  0  0  0  0  0  0  0  0  0  0  0
   -8.2566   -1.4774    2.3447 N   0  0  0  0  0  0  0  0  0  0  0  0
  -11.0552   -0.1338    1.4392 H   0  0  0  0  0  0  0  0  0  0  0  0
   -7.0461    0.8890   -0.6230 H   0  0  0  0  0  0  0  0  0  0  0  0
   -5.2369    3.0057   -0.6155 H   0  0  0  0  0  0  0  0  0  0  0  0
   -4.5961    4.5488   -2.4115 H   0  0  0  0  0  0  0  0  0  0  0  0
   -3.5408    3.6743   -4.4560 H   0  0  0  0  0  0  0  0  0  0  0  0
   -3.1470    1.2969   -4.6704 H   0  0  0  0  0  0  0  0  0  0  0  0
   -3.7972   -0.2891   -2.8420 H   0  0  0  0  0  0  0  0  0  0  0  0
   -2.4928   -2.3149   -0.8997 H   0  0  0  0  0  0  0  0  0  0  0  0
   -0.2003   -2.1443   -1.6753 H   0  0  0  0  0  0  0  0  0  0  0  0
    1.5024   -0.7256   -2.5757 H   0  0  0  0  0  0  0  0  0  0  0  0
    1.6733    0.9932   -2.1911 H   0  0  0  0  0  0  0  0  0  0  0  0
    1.5045   -1.6833    0.5497 H   0  0  0  0  0  0  0  0  0  0  0  0
    2.2433   -2.3137   -0.9880 H   0  0  0  0  0  0  0  0  0  0  0  0
    3.5381   -2.9282    0.9453 H   0  0  0  0  0  0  0  0  0  0  0  0
    4.4760   -1.8726   -0.1980 H   0  0  0  0  0  0  0  0  0  0  0  0
    3.3531   -1.3775    2.5679 H   0  0  0  0  0  0  0  0  0  0  0  0
    7.8670    0.6708   -0.6543 H   0  0  0  0  0  0  0  0  0  0  0  0
   10.0720    1.4197   -1.6354 H   0  0  0  0  0  0  0  0  0  0  0  0
   12.1308    1.1941   -0.2615 H   0  0  0  0  0  0  0  0  0  0  0  0
   11.9555    0.2602    1.9814 H   0  0  0  0  0  0  0  0  0  0  0  0
    6.0457    0.0530    0.1514 H   0  0  0  0  0  0  0  0  0  0  0  0
    3.8998    1.1916    1.8698 H   0  0  0  0  0  0  0  0  0  0  0  0
    2.2687    0.5437    2.1012 H   0  0  0  0  0  0  0  0  0  0  0  0
    2.1168    1.5891    0.0836 H   0  0  0  0  0  0  0  0  0  0  0  0
    3.7785    1.2829   -0.4349 H   0  0  0  0  0  0  0  0  0  0  0  0
   -0.1196    1.9755   -0.6726 H   0  0  0  0  0  0  0  0  0  0  0  0
   -2.4647    1.8338    0.1302 H   0  0  0  0  0  0  0  0  0  0  0  0
   -5.2125   -2.7065    3.0647 H   0  0  0  0  0  0  0  0  0  0  0  0
   -7.6214   -2.8657    3.7851 H   0  0  0  0  0  0  0  0  0  0  0  0
  1  2  2  0
  2  3  1  0
  3  4  1  0
  4  5  2  0
  5  6  1  0
  6  7  2  0
  7  8  1  0
  8  9  1  0
  9 10  2  0
 10 11  1  0
 11 12  2  0
 12 13  1  0
 13 14  2  0
  8 15  2  0
 15 16  1  0
 16 17  2  0
 17 18  1  0
 18 19  2  0
 19 20  1  0
 20 21  1  0
 21 22  1  0
 22 23  1  0
 23 24  1  0
 24 25  1  0
 25 26  2  0
 26 27  1  0
 27 28  2  0
 28 29  1  0
 29 30  2  0
 30 31  1  0
 31 32  2  0
 32 33  1  0
 33 34  2  0
 28 35  1  0
 24 36  1  0
 36 37  1  0
 19 38  1  0
 38 39  2  0
 15 40  1  0
 40 41  2  0
 41 42  1  0
 42 43  2  0
 43 44  1  0
 44  2  1  0
 44  5  1  0
 41  6  1  0
 14  9  1  0
 39 16  1  0
 37 21  1  0
 35 25  1  0
 34 29  1  0
  3 45  1  0
  7 46  1  0
 10 47  1  0
 11 48  1  0
 12 49  1  0
 13 50  1  0
 14 51  1  0
 17 52  1  0
 18 53  1  0
 20 54  1  0
 20 55  1  0
 22 56  1  0
 22 57  1  0
 23 58  1  0
 23 59  1  0
 24 60  1  0
 30 61  1  0
 31 62  1  0
 32 63  1  0
 33 64  1  0
 35 65  1  0
 36 66  1  0
 36 67  1  0
 37 68  1  0
 37 69  1  0
 38 70  1  0
 39 71  1  0
 42 72  1  0
 43 73  1  0
M  END
$$$$
