
     RDKit          3D

 77 80  0  0  0  0  0  0  0  0999 V2000
   -3.5459    2.7535   -4.2661 C   0  0  0  0  0  0  0  0  0  0  0  0
   -3.5339    1.3472   -4.7993 C   0  0  0  0  0  0  0  0  0  0  0  0
   -4.2334    0.4821   -3.8801 N   0  0  0  0  0  0  0  0  0  0  0  0
   -3.7039    0.2782   -2.5749 C   0  0  0  0  0  0  0  0  0  0  0  0
   -2.5392    0.8771   -2.1553 C   0  0  0  0  0  0  0  0  0  0  0  0
   -2.0400    0.6620   -0.8915 C   0  0  0  0  0  0  0  0  0  0  0  0
   -0.8184    1.3372   -0.4226 C   0  0  0  0  0  0  0  0  0  0  0  0
   -0.3480    2.3484   -1.0101 O   0  0  0  0  0  0  0  0  0  0  0  0
   -0.1028    0.8879    0.7146 N   0  0  0  0  0  0  0  0  0  0  0  0
    1.1026    1.5409    1.2232 C   0  0  1  0  0  0  0  0  0  0  0  0
    1.0901    1.7544    2.6865 C   0  0  0  0  0  0  0  0  0  0  0  0
    2.3432    2.4449    3.1119 C   0  0  0  0  0  0  0  0  0  0  0  0
    2.3513    3.8465    3.0912 C   0  0  0  0  0  0  0  0  0  0  0  0
    3.4200    4.6119    3.4669 C   0  0  0  0  0  0  0  0  0  0  0  0
    4.5532    3.9366    3.8896 C   0  0  0  0  0  0  0  0  0  0  0  0
    4.5911    2.5676    3.9261 C   0  0  0  0  0  0  0  0  0  0  0  0
    3.4790    1.8272    3.5347 C   0  0  0  0  0  0  0  0  0  0  0  0
    2.3467    0.9338    0.6467 C   0  0  2  0  0  0  0  0  0  0  0  0
    2.2848    1.1455   -0.7367 O   0  0  0  0  0  0  0  0  0  0  0  0
    2.5855   -0.4952    0.9792 C   0  0  0  0  0  0  0  0  0  0  0  0
    3.8376   -0.9909    0.4925 N   0  0  0  0  0  0  0  0  0  0  0  0
    3.9701   -1.1235   -0.9087 C   0  0  0  0  0  0  0  0  0  0  0  0
    5.3150   -1.7076   -1.2165 C   0  0  0  0  0  0  0  0  0  0  0  0
    5.4895   -3.0637   -1.2978 C   0  0  0  0  0  0  0  0  0  0  0  0
    6.7166   -3.5789   -1.5819 N   0  0  0  0  0  0  0  0  0  0  0  0
    7.7983   -2.8038   -1.7929 C   0  0  0  0  0  0  0  0  0  0  0  0
    7.6675   -1.4238   -1.7201 C   0  0  0  0  0  0  0  0  0  0  0  0
    8.7659   -0.5354   -1.9341 C   0  0  0  0  0  0  0  0  0  0  0  0
    9.6432    0.1946   -2.1178 N   0  0  0  0  0  0  0  0  0  0  0  0
    6.4024   -0.9015   -1.4274 C   0  0  0  0  0  0  0  0  0  0  0  0
   -2.7432   -0.1754   -0.0539 C   0  0  0  0  0  0  0  0  0  0  0  0
   -3.9255   -0.8077   -0.4220 C   0  0  0  0  0  0  0  0  0  0  0  0
   -4.6409   -1.6386    0.4536 N   0  0  0  0  0  0  0  0  0  0  0  0
   -5.6332   -1.0708    1.3248 C   0  0  0  0  0  0  0  0  0  0  0  0
   -6.9096   -1.8501    1.1710 C   0  0  0  0  0  0  0  0  0  0  0  0
   -6.7830   -3.2497    1.7307 C   0  0  0  0  0  0  0  0  0  0  0  0
   -5.8817   -4.1275    0.9105 C   0  0  0  0  0  0  0  0  0  0  0  0
   -4.3524   -3.3188    0.5143 S   0  0  0  0  0  6  0  0  0  0  0  0
   -3.7566   -3.8549   -0.7532 O   0  0  0  0  0  0  0  0  0  0  0  0
   -3.3772   -3.6688    1.6348 O   0  0  0  0  0  0  0  0  0  0  0  0
   -4.3924   -0.5677   -1.6929 C   0  0  0  0  0  0  0  0  0  0  0  0
   -2.5284    3.1947   -4.3812 H   0  0  0  0  0  0  0  0  0  0  0  0
   -3.9349    2.8134   -3.2346 H   0  0  0  0  0  0  0  0  0  0  0  0
   -4.2018    3.4204   -4.8948 H   0  0  0  0  0  0  0  0  0  0  0  0
   -2.4714    0.9948   -4.8153 H   0  0  0  0  0  0  0  0  0  0  0  0
   -3.9813    1.2903   -5.8226 H   0  0  0  0  0  0  0  0  0  0  0  0
   -5.1250   -0.0082   -4.1376 H   0  0  0  0  0  0  0  0  0  0  0  0
   -1.9724    1.5330   -2.8046 H   0  0  0  0  0  0  0  0  0  0  0  0
   -0.4341    0.0433    1.2395 H   0  0  0  0  0  0  0  0  0  0  0  0
    1.0577    2.5666    0.7284 H   0  0  0  0  0  0  0  0  0  0  0  0
    0.2521    2.4246    2.9584 H   0  0  0  0  0  0  0  0  0  0  0  0
    1.0527    0.7971    3.2644 H   0  0  0  0  0  0  0  0  0  0  0  0
    1.4626    4.3855    2.7595 H   0  0  0  0  0  0  0  0  0  0  0  0
    3.3680    5.7057    3.4318 H   0  0  0  0  0  0  0  0  0  0  0  0
    5.4084    4.5462    4.1927 H   0  0  0  0  0  0  0  0  0  0  0  0
    5.4721    2.0286    4.2554 H   0  0  0  0  0  0  0  0  0  0  0  0
    3.4938    0.7423    3.5655 H   0  0  0  0  0  0  0  0  0  0  0  0
    3.1986    1.5552    1.0068 H   0  0  0  0  0  0  0  0  0  0  0  0
    1.6664    0.4945   -1.1507 H   0  0  0  0  0  0  0  0  0  0  0  0
    1.7789   -1.0985    0.4693 H   0  0  0  0  0  0  0  0  0  0  0  0
    2.5019   -0.7332    2.0506 H   0  0  0  0  0  0  0  0  0  0  0  0
    4.6543   -0.4619    0.8738 H   0  0  0  0  0  0  0  0  0  0  0  0
    3.1767   -1.7426   -1.3665 H   0  0  0  0  0  0  0  0  0  0  0  0
    3.9445   -0.1540   -1.4646 H   0  0  0  0  0  0  0  0  0  0  0  0
    4.6944   -3.7615   -1.1459 H   0  0  0  0  0  0  0  0  0  0  0  0
    8.7700   -3.1954   -2.0187 H   0  0  0  0  0  0  0  0  0  0  0  0
    6.2973    0.1673   -1.3714 H   0  0  0  0  0  0  0  0  0  0  0  0
   -2.3924   -0.3772    0.9490 H   0  0  0  0  0  0  0  0  0  0  0  0
   -5.2926   -1.2299    2.3800 H   0  0  0  0  0  0  0  0  0  0  0  0
   -5.8219    0.0028    1.1226 H   0  0  0  0  0  0  0  0  0  0  0  0
   -7.6857   -1.3284    1.7671 H   0  0  0  0  0  0  0  0  0  0  0  0
   -7.2697   -1.9143    0.1374 H   0  0  0  0  0  0  0  0  0  0  0  0
   -7.8005   -3.6837    1.7010 H   0  0  0  0  0  0  0  0  0  0  0  0
   -6.4399   -3.2731    2.7693 H   0  0  0  0  0  0  0  0  0  0  0  0
   -6.4230   -4.4661    0.0166 H   0  0  0  0  0  0  0  0  0  0  0  0
   -5.6576   -5.0418    1.5067 H   0  0  0  0  0  0  0  0  0  0  0  0
   -5.3106   -1.0594   -1.9798 H   0  0  0  0  0  0  0  0  0  0  0  0
  1  2  1  0
  2  3  1  0
  3  4  1  0
  4  5  2  0
  5  6  1  0
  6  7  1  0
  7  8  2  0
  7  9  1  0
  9 10  1  0
 10 11  1  0
 11 12  1  0
 12 13  2  0
 13 14  1  0
 14 15  2  0
 15 16  1  0
 16 17  2  0
 10 18  1  0
 18 19  1  0
 18 20  1  0
 20 21  1  0
 21 22  1  0
 22 23  1  0
 23 24  2  0
 24 25  1  0
 25 26  2  0
 26 27  1  0
 27 28  1  0
 28 29  3  0
 27 30  2  0
  6 31  2  0
 31 32  1  0
 32 33  1  0
 33 34  1  0
 34 35  1  0
 35 36  1  0
 36 37  1  0
 37 38  1  0
 38 39  2  0
 38 40  2  0
 32 41  2  0
 41  4  1  0
 17 12  1  0
 30 23  1  0
 38 33  1  0
  1 42  1  0
  1 43  1  0
  1 44  1  0
  2 45  1  0
  2 46  1  0
  3 47  1  0
  5 48  1  0
  9 49  1  0
 10 50  1  6
 11 51  1  0
 11 52  1  0
 13 53  1  0
 14 54  1  0
 15 55  1  0
 16 56  1  0
 17 57  1  0
 18 58  1  1
 19 59  1  0
 20 60  1  0
 20 61  1  0
 21 62  1  0
 22 63  1  0
 22 64  1  0
 24 65  1  0
 26 66  1  0
 30 67  1  0
 31 68  1  0
 34 69  1  0
 34 70  1  0
 35 71  1  0
 35 72  1  0
 36 73  1  0
 36 74  1  0
 37 75  1  0
 37 76  1  0
 41 77  1  0
M  END
$$$$
