
     RDKit          3D

 51 53  0  0  0  0  0  0  0  0999 V2000
    4.7336   -2.4473    0.0265 C   0  0  0  0  0  0  0  0  0  0  0  0
    5.1994   -1.0381   -0.1160 C   0  0  0  0  0  0  0  0  0  0  0  0
    6.5134   -0.7911   -0.4945 C   0  0  0  0  0  0  0  0  0  0  0  0
    7.0090    0.4837   -0.6447 C   0  0  0  0  0  0  0  0  0  0  0  0
    8.3742    0.7250   -1.0378 C   0  0  0  0  0  0  0  0  0  0  0  0
    9.4807    0.9412   -1.3552 N   0  0  0  0  0  0  0  0  0  0  0  0
    6.1248    1.5126   -0.3974 C   0  0  0  0  0  0  0  0  0  0  0  0
    4.8545    1.2837   -0.0316 N   0  0  0  0  0  0  0  0  0  0  0  0
    4.3571    0.0251    0.1190 C   0  0  0  0  0  0  0  0  0  0  0  0
    2.9884   -0.2101    0.5131 C   0  0  0  0  0  0  0  0  0  0  0  0
    2.5797   -1.3862    0.6377 O   0  0  0  0  0  0  0  0  0  0  0  0
    2.0564    0.8318    0.7741 N   0  0  0  0  0  0  0  0  0  0  0  0
    0.7149    0.5580    1.1606 C   0  0  0  0  0  0  0  0  0  0  0  0
    0.3142    0.4183    2.4701 C   0  0  0  0  0  0  0  0  0  0  0  0
   -0.9788    0.1535    2.8577 C   0  0  0  0  0  0  0  0  0  0  0  0
   -1.3639    0.0103    4.2977 C   0  0  0  0  0  0  0  0  0  0  0  0
   -1.9198    0.0238    1.8389 C   0  0  0  0  0  0  0  0  0  0  0  0
   -3.1739   -0.2452    2.2083 F   0  0  0  0  0  0  0  0  0  0  0  0
   -1.5952    0.1505    0.5078 C   0  0  0  0  0  0  0  0  0  0  0  0
   -2.6768   -0.0027   -0.5037 C   0  0  2  0  0  0  0  0  0  0  0  0
   -2.1434    0.1155   -1.9194 C   0  0  0  0  0  0  0  0  0  0  0  0
   -1.5598    1.3105   -2.1989 F   0  0  0  0  0  0  0  0  0  0  0  0
   -3.6585    1.1280   -0.2971 C   0  0  0  0  0  0  0  0  0  0  0  0
   -5.0326    0.8575   -0.8106 C   0  0  1  0  0  0  0  0  0  0  0  0
   -5.4847    1.9714   -1.7134 C   0  0  0  0  0  0  0  0  0  0  0  0
   -5.4929    3.1567   -1.0067 F   0  0  0  0  0  0  0  0  0  0  0  0
   -4.6062    2.1248   -2.7556 F   0  0  0  0  0  0  0  0  0  0  0  0
   -6.7796    1.7587   -2.1475 F   0  0  0  0  0  0  0  0  0  0  0  0
   -5.1852   -0.4062   -1.4267 O   0  0  0  0  0  0  0  0  0  0  0  0
   -4.4863   -1.4660   -0.8675 C   0  0  0  0  0  0  0  0  0  0  0  0
   -5.0279   -2.7903   -0.7485 N   0  0  0  0  0  0  0  0  0  0  0  0
   -3.2922   -1.3089   -0.4188 N   0  0  0  0  0  0  0  0  0  0  0  0
   -0.2808    0.4158    0.1866 C   0  0  0  0  0  0  0  0  0  0  0  0
    5.5919   -3.1330   -0.2161 H   0  0  0  0  0  0  0  0  0  0  0  0
    4.4594   -2.6825    1.0772 H   0  0  0  0  0  0  0  0  0  0  0  0
    3.9384   -2.7088   -0.7082 H   0  0  0  0  0  0  0  0  0  0  0  0
    7.1765   -1.6163   -0.6796 H   0  0  0  0  0  0  0  0  0  0  0  0
    6.4410    2.5347   -0.4945 H   0  0  0  0  0  0  0  0  0  0  0  0
    2.3943    1.8139    0.6711 H   0  0  0  0  0  0  0  0  0  0  0  0
    1.0792    0.5268    3.2384 H   0  0  0  0  0  0  0  0  0  0  0  0
   -2.4053   -0.3326    4.3495 H   0  0  0  0  0  0  0  0  0  0  0  0
   -0.6556   -0.7596    4.7176 H   0  0  0  0  0  0  0  0  0  0  0  0
   -1.1882    0.9263    4.8707 H   0  0  0  0  0  0  0  0  0  0  0  0
   -1.4478   -0.7472   -2.1233 H   0  0  0  0  0  0  0  0  0  0  0  0
   -3.0076   -0.0438   -2.5959 H   0  0  0  0  0  0  0  0  0  0  0  0
   -3.6269    1.4159    0.7694 H   0  0  0  0  0  0  0  0  0  0  0  0
   -3.2024    2.0026   -0.8623 H   0  0  0  0  0  0  0  0  0  0  0  0
   -5.7245    0.8764    0.0780 H   0  0  0  0  0  0  0  0  0  0  0  0
   -4.8073   -3.4515   -1.5220 H   0  0  0  0  0  0  0  0  0  0  0  0
   -5.6001   -3.0028    0.0937 H   0  0  0  0  0  0  0  0  0  0  0  0
    0.0235    0.5174   -0.8343 H   0  0  0  0  0  0  0  0  0  0  0  0
  1  2  1  0
  2  3  2  0
  3  4  1  0
  4  5  1  0
  5  6  3  0
  4  7  2  0
  7  8  1  0
  8  9  2  0
  9 10  1  0
 10 11  2  0
 10 12  1  0
 12 13  1  0
 13 14  2  0
 14 15  1  0
 15 16  1  0
 15 17  2  0
 17 18  1  0
 17 19  1  0
 19 20  1  0
 20 21  1  6
 21 22  1  0
 20 23  1  0
 23 24  1  0
 24 25  1  0
 25 26  1  0
 25 27  1  0
 25 28  1  0
 24 29  1  0
 29 30  1  0
 30 31  1  0
 30 32  2  0
 19 33  2  0
  9  2  1  0
 33 13  1  0
 32 20  1  0
  1 34  1  0
  1 35  1  0
  1 36  1  0
  3 37  1  0
  7 38  1  0
 12 39  1  0
 14 40  1  0
 16 41  1  0
 16 42  1  0
 16 43  1  0
 21 44  1  0
 21 45  1  0
 23 46  1  0
 23 47  1  0
 24 48  1  1
 31 49  1  0
 31 50  1  0
 33 51  1  0
M  END
$$$$
