
     RDKit          3D

 29 31  0  0  0  0  0  0  0  0999 V2000
   -1.7574    2.5805   -1.4177 O   0  0  0  0  0  0  0  0  0  0  0  0
   -1.2240    1.5528   -0.9138 C   0  0  0  0  0  0  0  0  0  0  0  0
    0.1532    1.4541   -0.8270 C   0  0  0  0  0  0  0  0  0  0  0  0
    0.6970    0.3303   -0.2772 C   0  0  0  0  0  0  0  0  0  0  0  0
    2.1611    0.2190   -0.1819 C   0  0  0  0  0  0  0  0  0  0  0  0
    3.0336    1.1729   -0.6099 C   0  0  0  0  0  0  0  0  0  0  0  0
    4.4241    1.0020   -0.4884 C   0  0  0  0  0  0  0  0  0  0  0  0
    4.9558   -0.1340    0.0668 C   0  0  0  0  0  0  0  0  0  0  0  0
    4.0833   -1.1058    0.5034 C   0  0  0  0  0  0  0  0  0  0  0  0
    2.7252   -0.9350    0.3829 C   0  0  0  0  0  0  0  0  0  0  0  0
   -0.0511   -0.6524    0.1681 O   0  0  0  0  0  0  0  0  0  0  0  0
   -1.3469   -0.5805    0.0964 C   0  0  0  0  0  0  0  0  0  0  0  0
   -2.1547   -1.6268    0.5703 C   0  0  0  0  0  0  0  0  0  0  0  0
   -3.5264   -1.5363    0.4875 C   0  0  0  0  0  0  0  0  0  0  0  0
   -4.2869   -2.5923    0.9673 O   0  0  0  0  0  0  0  0  0  0  0  0
   -4.1660   -0.4531   -0.0458 C   0  0  0  0  0  0  0  0  0  0  0  0
   -3.3717    0.5813   -0.5144 C   0  0  0  0  0  0  0  0  0  0  0  0
   -3.9300    1.7352   -1.0789 O   0  0  0  0  0  0  0  0  0  0  0  0
   -2.0060    0.5123   -0.4420 C   0  0  0  0  0  0  0  0  0  0  0  0
    0.7245    2.2805   -1.2032 H   0  0  0  0  0  0  0  0  0  0  0  0
    2.6452    2.0791   -1.0518 H   0  0  0  0  0  0  0  0  0  0  0  0
    5.0805    1.7790   -0.8387 H   0  0  0  0  0  0  0  0  0  0  0  0
    6.0326   -0.2909    0.1726 H   0  0  0  0  0  0  0  0  0  0  0  0
    4.5182   -1.9964    0.9392 H   0  0  0  0  0  0  0  0  0  0  0  0
    2.0266   -1.6966    0.7245 H   0  0  0  0  0  0  0  0  0  0  0  0
   -1.6707   -2.4996    0.9991 H   0  0  0  0  0  0  0  0  0  0  0  0
   -4.5108   -3.3891    0.3777 H   0  0  0  0  0  0  0  0  0  0  0  0
   -5.2262   -0.3593   -0.1211 H   0  0  0  0  0  0  0  0  0  0  0  0
   -4.0321    2.5689   -0.5235 H   0  0  0  0  0  0  0  0  0  0  0  0
  1  2  2  0
  2  3  1  0
  3  4  2  0
  4  5  1  0
  5  6  2  0
  6  7  1  0
  7  8  2  0
  8  9  1  0
  9 10  2  0
  4 11  1  0
 11 12  1  0
 12 13  2  0
 13 14  1  0
 14 15  1  0
 14 16  2  0
 16 17  1  0
 17 18  1  0
 17 19  2  0
 19  2  1  0
 10  5  1  0
 19 12  1  0
  3 20  1  0
  6 21  1  0
  7 22  1  0
  8 23  1  0
  9 24  1  0
 10 25  1  0
 13 26  1  0
 15 27  1  0
 16 28  1  0
 18 29  1  0
M  END
$$$$
