
     RDKit          3D

 66 69  0  0  0  0  0  0  0  0999 V2000
   -8.4730   -1.0160    2.5129 C   0  0  0  0  0  0  0  0  0  0  0  0
   -8.8143   -1.1901    1.1422 O   0  0  0  0  0  0  0  0  0  0  0  0
   -8.8925   -0.0772    0.3155 C   0  0  0  0  0  0  0  0  0  0  0  0
  -10.0896    0.5916    0.1821 C   0  0  0  0  0  0  0  0  0  0  0  0
  -11.6325   -0.0063    1.1271 Br  0  0  0  0  0  0  0  0  0  0  0  0
  -10.1514    1.7084   -0.6530 C   0  0  0  0  0  0  0  0  0  0  0  0
   -9.0373    2.1489   -1.3422 C   0  0  0  0  0  0  0  0  0  0  0  0
   -7.8311    1.4850   -1.2154 C   0  0  0  0  0  0  0  0  0  0  0  0
   -6.6291    1.6663   -1.7344 O   0  0  0  0  0  0  0  0  0  0  0  0
   -5.7854    0.7626   -1.3096 C   0  0  0  0  0  0  0  0  0  0  0  0
   -4.3458    0.5834   -1.6279 C   0  0  0  0  0  0  0  0  0  0  0  0
   -3.5076    1.0242   -0.5606 O   0  0  0  0  0  0  0  0  0  0  0  0
   -2.1378    0.9098   -0.7347 C   0  0  0  0  0  0  0  0  0  0  0  0
   -1.5846    0.3929   -1.8853 C   0  0  0  0  0  0  0  0  0  0  0  0
   -0.2210    0.2797   -2.0575 C   0  0  0  0  0  0  0  0  0  0  0  0
    0.6593    0.6889   -1.0619 C   0  0  0  0  0  0  0  0  0  0  0  0
    2.1035    0.5638   -1.2559 C   0  0  0  0  0  0  0  0  0  0  0  0
    2.9280    1.4891   -0.6516 C   0  0  0  0  0  0  0  0  0  0  0  0
    4.3202    1.4211   -0.8008 C   0  0  0  0  0  0  0  0  0  0  0  0
    4.8998    0.4269   -1.5554 C   0  0  0  0  0  0  0  0  0  0  0  0
    6.6334    0.3151   -1.7540 S   0  0  0  0  0  6  0  0  0  0  0  0
    7.0124   -0.1149   -3.1271 O   0  0  0  0  0  0  0  0  0  0  0  0
    7.1822    1.7024   -1.4481 O   0  0  0  0  0  0  0  0  0  0  0  0
    7.2502   -0.7410   -0.5485 N   0  0  0  0  0  0  0  0  0  0  0  0
    7.0006   -0.2520    0.7707 C   0  0  1  0  0  0  0  0  0  0  0  0
    6.1784   -1.2012    1.5755 C   0  0  0  0  0  0  0  0  0  0  0  0
    5.8079   -2.2758    1.0454 O   0  0  0  0  0  0  0  0  0  0  0  0
    5.8042   -0.9528    2.8808 O   0  0  0  0  0  0  0  0  0  0  0  0
    8.3412   -0.0129    1.4770 C   0  0  0  0  0  0  0  0  0  0  0  0
    8.0928    0.5061    2.8775 C   0  0  0  0  0  0  0  0  0  0  0  0
    9.1838   -1.2690    1.4717 C   0  0  0  0  0  0  0  0  0  0  0  0
    4.0558   -0.5045   -2.1627 C   0  0  0  0  0  0  0  0  0  0  0  0
    2.6871   -0.4246   -2.0069 C   0  0  0  0  0  0  0  0  0  0  0  0
    0.0980    1.2052    0.0870 C   0  0  0  0  0  0  0  0  0  0  0  0
   -1.2738    1.3174    0.2563 C   0  0  0  0  0  0  0  0  0  0  0  0
   -6.4961   -0.0718   -0.4462 C   0  0  0  0  0  0  0  0  0  0  0  0
   -5.9908   -1.2365    0.2853 C   0  0  0  0  0  0  0  0  0  0  0  0
   -7.7972    0.3837   -0.3834 C   0  0  0  0  0  0  0  0  0  0  0  0
   -7.9025   -0.0693    2.6608 H   0  0  0  0  0  0  0  0  0  0  0  0
   -9.3552   -1.0375    3.1682 H   0  0  0  0  0  0  0  0  0  0  0  0
   -7.7418   -1.8316    2.7873 H   0  0  0  0  0  0  0  0  0  0  0  0
  -11.1139    2.2031   -0.7275 H   0  0  0  0  0  0  0  0  0  0  0  0
   -9.1077    3.0119   -1.9806 H   0  0  0  0  0  0  0  0  0  0  0  0
   -4.0899    1.2159   -2.5043 H   0  0  0  0  0  0  0  0  0  0  0  0
   -4.1122   -0.4607   -1.9219 H   0  0  0  0  0  0  0  0  0  0  0  0
   -2.2776    0.0719   -2.6665 H   0  0  0  0  0  0  0  0  0  0  0  0
    0.2035   -0.1258   -2.9607 H   0  0  0  0  0  0  0  0  0  0  0  0
    2.5506    2.3103   -0.0352 H   0  0  0  0  0  0  0  0  0  0  0  0
    4.9518    2.1581   -0.3221 H   0  0  0  0  0  0  0  0  0  0  0  0
    6.7976   -1.6828   -0.6437 H   0  0  0  0  0  0  0  0  0  0  0  0
    6.4700    0.6994    0.7824 H   0  0  0  0  0  0  0  0  0  0  0  0
    5.8261   -1.7150    3.5765 H   0  0  0  0  0  0  0  0  0  0  0  0
    8.8456    0.7953    0.8759 H   0  0  0  0  0  0  0  0  0  0  0  0
    8.2805   -0.3016    3.6369 H   0  0  0  0  0  0  0  0  0  0  0  0
    8.8672    1.2945    3.1075 H   0  0  0  0  0  0  0  0  0  0  0  0
    7.1159    0.9865    2.9988 H   0  0  0  0  0  0  0  0  0  0  0  0
    9.8691   -1.2897    0.5750 H   0  0  0  0  0  0  0  0  0  0  0  0
    8.5093   -2.1623    1.3795 H   0  0  0  0  0  0  0  0  0  0  0  0
    9.7635   -1.2986    2.4128 H   0  0  0  0  0  0  0  0  0  0  0  0
    4.5317   -1.2819   -2.7549 H   0  0  0  0  0  0  0  0  0  0  0  0
    2.0375   -1.1632   -2.4899 H   0  0  0  0  0  0  0  0  0  0  0  0
    0.7370    1.5380    0.8926 H   0  0  0  0  0  0  0  0  0  0  0  0
   -1.7093    1.7305    1.1764 H   0  0  0  0  0  0  0  0  0  0  0  0
   -5.1344   -1.6554   -0.3104 H   0  0  0  0  0  0  0  0  0  0  0  0
   -5.6134   -1.0276    1.2915 H   0  0  0  0  0  0  0  0  0  0  0  0
   -6.7473   -2.0446    0.3118 H   0  0  0  0  0  0  0  0  0  0  0  0
  1  2  1  0
  2  3  1  0
  3  4  2  0
  4  5  1  0
  4  6  1  0
  6  7  2  0
  7  8  1  0
  8  9  1  0
  9 10  1  0
 10 11  1  0
 11 12  1  0
 12 13  1  0
 13 14  2  0
 14 15  1  0
 15 16  2  0
 16 17  1  0
 17 18  2  0
 18 19  1  0
 19 20  2  0
 20 21  1  0
 21 22  2  0
 21 23  2  0
 21 24  1  0
 24 25  1  0
 25 26  1  0
 26 27  2  0
 26 28  1  0
 25 29  1  0
 29 30  1  0
 29 31  1  0
 20 32  1  0
 32 33  2  0
 16 34  1  0
 34 35  2  0
 10 36  2  0
 36 37  1  0
 36 38  1  0
 38  3  1  0
 38  8  2  0
 35 13  1  0
 33 17  1  0
  1 39  1  0
  1 40  1  0
  1 41  1  0
  6 42  1  0
  7 43  1  0
 11 44  1  0
 11 45  1  0
 14 46  1  0
 15 47  1  0
 18 48  1  0
 19 49  1  0
 24 50  1  0
 25 51  1  6
 28 52  1  0
 29 53  1  0
 30 54  1  0
 30 55  1  0
 30 56  1  0
 31 57  1  0
 31 58  1  0
 31 59  1  0
 32 60  1  0
 33 61  1  0
 34 62  1  0
 35 63  1  0
 37 64  1  0
 37 65  1  0
 37 66  1  0
M  END
$$$$
