
     RDKit          3D

 33 34  0  0  0  0  0  0  0  0999 V2000
    4.5208    2.2872   -0.6842 C   0  0  0  0  0  0  0  0  0  0  0  0
    4.3969    1.2269    0.2396 O   0  0  0  0  0  0  0  0  0  0  0  0
    3.1909    0.5271    0.3582 C   0  0  0  0  0  0  0  0  0  0  0  0
    2.0914    0.8301   -0.4021 C   0  0  0  0  0  0  0  0  0  0  0  0
    0.9030    0.1434   -0.2873 C   0  0  0  0  0  0  0  0  0  0  0  0
    0.8092   -0.9083    0.6442 C   0  0  0  0  0  0  0  0  0  0  0  0
   -0.4251   -1.5924    0.7938 N   0  0  0  0  0  0  0  0  0  0  0  0
   -1.5821   -1.1671    0.0365 C   0  0  0  0  0  0  0  0  0  0  0  0
   -2.2467   -2.0895   -0.7724 C   0  0  0  0  0  0  0  0  0  0  0  0
   -3.3710   -1.6970   -1.4683 C   0  0  0  0  0  0  0  0  0  0  0  0
   -3.8111   -0.3961   -1.3448 C   0  0  0  0  0  0  0  0  0  0  0  0
   -3.1767    0.5333   -0.5556 C   0  0  0  0  0  0  0  0  0  0  0  0
   -3.6670    1.9167   -0.4413 C   0  0  0  0  0  0  0  0  0  0  0  0
   -3.0519    2.7394    0.3005 O   0  0  0  0  0  0  0  0  0  0  0  0
   -4.7728    2.3646   -1.1081 O   0  0  0  0  0  0  0  0  0  0  0  0
   -2.0523    0.1222    0.1339 C   0  0  0  0  0  0  0  0  0  0  0  0
    1.8880   -1.2351    1.4157 C   0  0  0  0  0  0  0  0  0  0  0  0
    1.8634   -2.2781    2.3722 N   0  0  0  0  0  4  0  0  0  0  0  0
    2.6321   -2.1538    3.3928 O   0  0  0  0  0  0  0  0  0  0  0  0
    1.1050   -3.3829    2.3005 O   0  0  0  0  0  1  0  0  0  0  0  0
    3.0824   -0.4988    1.2579 C   0  0  0  0  0  0  0  0  0  0  0  0
    5.6085    2.5085   -0.8408 H   0  0  0  0  0  0  0  0  0  0  0  0
    3.9611    3.1749   -0.3228 H   0  0  0  0  0  0  0  0  0  0  0  0
    4.0460    2.0061   -1.6660 H   0  0  0  0  0  0  0  0  0  0  0  0
    2.1186    1.6268   -1.1250 H   0  0  0  0  0  0  0  0  0  0  0  0
    0.0481    0.3933   -0.9130 H   0  0  0  0  0  0  0  0  0  0  0  0
   -0.5893   -2.4035    1.4286 H   0  0  0  0  0  0  0  0  0  0  0  0
   -1.8425   -3.0828   -0.8150 H   0  0  0  0  0  0  0  0  0  0  0  0
   -3.8627   -2.4331   -2.0854 H   0  0  0  0  0  0  0  0  0  0  0  0
   -4.6883   -0.0896   -1.8873 H   0  0  0  0  0  0  0  0  0  0  0  0
   -5.4776    2.9253   -0.6031 H   0  0  0  0  0  0  0  0  0  0  0  0
   -1.5622    0.8699    0.7597 H   0  0  0  0  0  0  0  0  0  0  0  0
    3.9136   -0.7874    1.8884 H   0  0  0  0  0  0  0  0  0  0  0  0
  1  2  1  0
  2  3  1  0
  3  4  2  0
  4  5  1  0
  5  6  2  0
  6  7  1  0
  7  8  1  0
  8  9  2  0
  9 10  1  0
 10 11  2  0
 11 12  1  0
 12 13  1  0
 13 14  2  0
 13 15  1  0
 12 16  2  0
  6 17  1  0
 17 18  1  0
 18 19  2  0
 18 20  1  0
 17 21  2  0
 21  3  1  0
 16  8  1  0
  1 22  1  0
  1 23  1  0
  1 24  1  0
  4 25  1  0
  5 26  1  0
  7 27  1  0
  9 28  1  0
 10 29  1  0
 11 30  1  0
 15 31  1  0
 16 32  1  0
 21 33  1  0
M  CHG  2  18   1  20  -1
M  END
$$$$
