
     RDKit          3D

 39 42  0  0  0  0  0  0  0  0999 V2000
   -4.8979   -0.8651    0.0186 C   0  0  0  0  0  0  0  0  0  0  0  0
   -3.4538   -1.1887    0.2596 C   0  0  0  0  0  0  0  0  0  0  0  0
   -2.5022   -0.1945    0.3286 C   0  0  0  0  0  0  0  0  0  0  0  0
   -1.1569   -0.5139    0.5544 C   0  0  0  0  0  0  0  0  0  0  0  0
   -0.1675    0.5649    0.6545 C   0  0  0  0  0  0  0  0  0  0  0  0
    0.9922    0.6828   -0.0698 C   0  0  0  0  0  0  0  0  0  0  0  0
    1.5162   -0.1321   -1.1719 C   0  0  0  0  0  0  0  0  0  0  0  0
    0.8475   -1.0333   -1.7072 O   0  0  0  0  0  0  0  0  0  0  0  0
    2.8177    0.0969   -1.6520 N   0  0  0  0  0  0  0  0  0  0  0  0
    3.4337   -0.6446   -2.7252 C   0  0  0  0  0  0  0  0  0  0  0  0
    4.9068   -0.9430   -2.4668 C   0  0  0  0  0  0  0  0  0  0  0  0
    4.4634   -0.0949   -3.6036 C   0  0  0  0  0  0  0  0  0  0  0  0
    1.6019    1.8044    0.4139 N   0  0  0  0  0  0  0  0  0  0  0  0
    0.8382    2.3222    1.3738 C   0  0  0  0  0  0  0  0  0  0  0  0
    1.0200    3.4408    2.1638 C   0  0  0  0  0  0  0  0  0  0  0  0
    0.0598    3.7446    3.0973 C   0  0  0  0  0  0  0  0  0  0  0  0
   -1.0673    2.9687    3.2614 C   0  0  0  0  0  0  0  0  0  0  0  0
   -1.1940    1.8936    2.4669 N   0  0  0  0  0  0  0  0  0  0  0  0
   -0.2672    1.5858    1.5542 N   0  0  0  0  0  0  0  0  0  0  0  0
   -0.8251   -1.8317    0.7048 C   0  0  0  0  0  0  0  0  0  0  0  0
    0.4610   -2.1808    0.9609 F   0  0  0  0  0  0  0  0  0  0  0  0
   -1.7492   -2.8754    0.6430 C   0  0  0  0  0  0  0  0  0  0  0  0
   -3.0600   -2.4989    0.4171 C   0  0  0  0  0  0  0  0  0  0  0  0
   -4.0692   -3.5302    0.3329 C   0  0  0  0  0  0  0  0  0  0  0  0
   -4.8797   -4.3788    0.2766 N   0  0  0  0  0  0  0  0  0  0  0  0
   -5.4987   -1.7975    0.2323 H   0  0  0  0  0  0  0  0  0  0  0  0
   -5.2929   -0.1250    0.7546 H   0  0  0  0  0  0  0  0  0  0  0  0
   -5.0935   -0.5496   -1.0229 H   0  0  0  0  0  0  0  0  0  0  0  0
   -2.7814    0.8411    0.2093 H   0  0  0  0  0  0  0  0  0  0  0  0
    3.4011    0.8656   -1.2039 H   0  0  0  0  0  0  0  0  0  0  0  0
    2.7848   -1.4256   -3.1458 H   0  0  0  0  0  0  0  0  0  0  0  0
    5.1584   -2.0034   -2.6007 H   0  0  0  0  0  0  0  0  0  0  0  0
    5.4193   -0.4589   -1.6306 H   0  0  0  0  0  0  0  0  0  0  0  0
    4.5626   -0.5441   -4.6354 H   0  0  0  0  0  0  0  0  0  0  0  0
    4.7799    0.9660   -3.5890 H   0  0  0  0  0  0  0  0  0  0  0  0
    1.9156    4.0589    2.0345 H   0  0  0  0  0  0  0  0  0  0  0  0
    0.1819    4.6188    3.7326 H   0  0  0  0  0  0  0  0  0  0  0  0
   -1.7921    3.2458    4.0084 H   0  0  0  0  0  0  0  0  0  0  0  0
   -1.4131   -3.8905    0.7709 H   0  0  0  0  0  0  0  0  0  0  0  0
  1  2  1  0
  2  3  2  0
  3  4  1  0
  4  5  1  0
  5  6  2  0
  6  7  1  0
  7  8  2  0
  7  9  1  0
  9 10  1  0
 10 11  1  0
 11 12  1  0
  6 13  1  0
 13 14  2  0
 14 15  1  0
 15 16  2  0
 16 17  1  0
 17 18  2  0
 18 19  1  0
  4 20  2  0
 20 21  1  0
 20 22  1  0
 22 23  2  0
 23 24  1  0
 24 25  3  0
 23  2  1  0
 19  5  1  0
 12 10  1  0
 19 14  1  0
  1 26  1  0
  1 27  1  0
  1 28  1  0
  3 29  1  0
  9 30  1  0
 10 31  1  0
 11 32  1  0
 11 33  1  0
 12 34  1  0
 12 35  1  0
 15 36  1  0
 16 37  1  0
 17 38  1  0
 22 39  1  0
M  END
$$$$
