
     RDKit          3D

 66 69  0  0  0  0  0  0  0  0999 V2000
    0.3346    0.1352   -3.4827 C   0  0  0  0  0  0  0  0  0  0  0  0
    0.5008   -0.7492   -2.2397 C   0  0  1  0  0  0  0  0  0  0  0  0
    1.8155   -0.5449   -1.6436 C   0  0  0  0  0  0  0  0  0  0  0  0
    2.8153    0.0911   -2.3334 C   0  0  0  0  0  0  0  0  0  0  0  0
    4.0721    0.3017   -1.7977 C   0  0  0  0  0  0  0  0  0  0  0  0
    4.3437   -0.1358   -0.5319 C   0  0  0  0  0  0  0  0  0  0  0  0
    5.6737    0.0768    0.0622 C   0  0  0  0  0  0  0  0  0  0  0  0
    6.8214    0.0985   -0.6660 C   0  0  0  0  0  0  0  0  0  0  0  0
    8.0392    0.2995   -0.0746 C   0  0  0  0  0  0  0  0  0  0  0  0
    8.1166    0.4811    1.2568 N   0  0  0  0  0  0  0  0  0  0  0  0
    9.3962    0.6981    1.9212 C   0  0  0  0  0  0  0  0  0  0  0  0
    6.9797    0.4593    1.9764 C   0  0  0  0  0  0  0  0  0  0  0  0
    7.0766    0.6335    3.2366 O   0  0  0  0  0  0  0  0  0  0  0  0
    5.7312    0.2597    1.4195 C   0  0  0  0  0  0  0  0  0  0  0  0
    3.3597   -0.7811    0.1929 C   0  0  0  0  0  0  0  0  0  0  0  0
    2.0894   -0.9844   -0.3710 C   0  0  0  0  0  0  0  0  0  0  0  0
   -0.5979   -0.4530   -1.3820 N   0  0  0  0  0  0  0  0  0  0  0  0
   -1.6372   -1.4481   -1.1713 C   0  0  0  0  0  0  0  0  0  0  0  0
   -2.9804   -0.7863   -1.1490 C   0  0  0  0  0  0  0  0  0  0  0  0
   -3.0860    0.2260   -0.0284 C   0  0  2  0  0  0  0  0  0  0  0  0
   -3.0752   -0.3222    1.3353 C   0  0  0  0  0  0  0  0  0  0  0  0
   -4.1007   -1.2427    1.8060 C   0  0  0  0  0  0  0  0  0  0  0  0
   -4.2715   -2.5558    1.1003 C   0  0  0  0  0  0  0  0  0  0  0  0
   -5.4896   -0.6510    1.9397 C   0  0  0  0  0  0  0  0  0  0  0  0
   -3.7511   -1.5889    3.1420 O   0  0  0  0  0  0  0  0  0  0  0  0
   -4.2642    1.1264   -0.2912 C   0  0  0  0  0  0  0  0  0  0  0  0
   -5.1428    0.8545   -1.2961 C   0  0  0  0  0  0  0  0  0  0  0  0
   -6.2143    1.6830   -1.5103 C   0  0  0  0  0  0  0  0  0  0  0  0
   -6.4307    2.8028   -0.7232 C   0  0  0  0  0  0  0  0  0  0  0  0
   -5.5277    3.0497    0.2810 C   0  0  0  0  0  0  0  0  0  0  0  0
   -4.4428    2.2167    0.5027 C   0  0  0  0  0  0  0  0  0  0  0  0
   -3.5994    2.5586    1.5208 F   0  0  0  0  0  0  0  0  0  0  0  0
   -1.9743    1.0920   -0.1789 O   0  0  0  0  0  0  0  0  0  0  0  0
   -0.7567    0.7817   -0.6968 C   0  0  0  0  0  0  0  0  0  0  0  0
    0.2568    1.5347   -0.6049 O   0  0  0  0  0  0  0  0  0  0  0  0
    0.8607   -0.3575   -4.3207 H   0  0  0  0  0  0  0  0  0  0  0  0
    0.6986    1.1617   -3.2723 H   0  0  0  0  0  0  0  0  0  0  0  0
   -0.7506    0.1816   -3.7651 H   0  0  0  0  0  0  0  0  0  0  0  0
    0.3642   -1.7926   -2.6422 H   0  0  0  0  0  0  0  0  0  0  0  0
    2.6023    0.4439   -3.3508 H   0  0  0  0  0  0  0  0  0  0  0  0
    4.8389    0.8034   -2.3592 H   0  0  0  0  0  0  0  0  0  0  0  0
    6.7566   -0.0497   -1.7519 H   0  0  0  0  0  0  0  0  0  0  0  0
    8.9618    0.3211   -0.6284 H   0  0  0  0  0  0  0  0  0  0  0  0
    9.2771    1.5104    2.6859 H   0  0  0  0  0  0  0  0  0  0  0  0
   10.1548    1.0744    1.1836 H   0  0  0  0  0  0  0  0  0  0  0  0
    9.7569   -0.2113    2.4431 H   0  0  0  0  0  0  0  0  0  0  0  0
    4.8817    0.2591    2.0790 H   0  0  0  0  0  0  0  0  0  0  0  0
    3.5953   -1.1206    1.1959 H   0  0  0  0  0  0  0  0  0  0  0  0
    1.3407   -1.4909    0.2175 H   0  0  0  0  0  0  0  0  0  0  0  0
   -1.3607   -2.0054   -0.2760 H   0  0  0  0  0  0  0  0  0  0  0  0
   -1.6383   -2.1784   -2.0163 H   0  0  0  0  0  0  0  0  0  0  0  0
   -3.8054   -1.4712   -1.2514 H   0  0  0  0  0  0  0  0  0  0  0  0
   -3.0031   -0.1559   -2.0956 H   0  0  0  0  0  0  0  0  0  0  0  0
   -2.0715   -0.8652    1.4324 H   0  0  0  0  0  0  0  0  0  0  0  0
   -2.9616    0.4984    2.0833 H   0  0  0  0  0  0  0  0  0  0  0  0
   -4.6148   -3.3504    1.8430 H   0  0  0  0  0  0  0  0  0  0  0  0
   -3.3833   -2.9119    0.5880 H   0  0  0  0  0  0  0  0  0  0  0  0
   -5.1354   -2.5108    0.3914 H   0  0  0  0  0  0  0  0  0  0  0  0
   -6.0566   -0.6484    1.0080 H   0  0  0  0  0  0  0  0  0  0  0  0
   -6.0433   -1.3507    2.6327 H   0  0  0  0  0  0  0  0  0  0  0  0
   -5.4816    0.3206    2.4734 H   0  0  0  0  0  0  0  0  0  0  0  0
   -2.9574   -2.1889    3.0690 H   0  0  0  0  0  0  0  0  0  0  0  0
   -5.0246   -0.0006   -1.9382 H   0  0  0  0  0  0  0  0  0  0  0  0
   -6.9161    1.4576   -2.3202 H   0  0  0  0  0  0  0  0  0  0  0  0
   -7.2766    3.4735   -0.8775 H   0  0  0  0  0  0  0  0  0  0  0  0
   -5.6885    3.9377    0.9147 H   0  0  0  0  0  0  0  0  0  0  0  0
  1  2  1  0
  2  3  1  0
  3  4  2  0
  4  5  1  0
  5  6  2  0
  6  7  1  0
  7  8  1  0
  8  9  2  0
  9 10  1  0
 10 11  1  0
 10 12  1  0
 12 13  2  0
 12 14  1  0
  6 15  1  0
 15 16  2  0
  2 17  1  0
 17 18  1  0
 18 19  1  0
 19 20  1  0
 20 21  1  1
 21 22  1  0
 22 23  1  0
 22 24  1  0
 22 25  1  0
 20 26  1  0
 26 27  2  0
 27 28  1  0
 28 29  2  0
 29 30  1  0
 30 31  2  0
 31 32  1  0
 20 33  1  0
 33 34  1  0
 34 35  2  0
 16  3  1  0
 34 17  1  0
 14  7  2  0
 31 26  1  0
  1 36  1  0
  1 37  1  0
  1 38  1  0
  2 39  1  6
  4 40  1  0
  5 41  1  0
  8 42  1  0
  9 43  1  0
 11 44  1  0
 11 45  1  0
 11 46  1  0
 14 47  1  0
 15 48  1  0
 16 49  1  0
 18 50  1  0
 18 51  1  0
 19 52  1  0
 19 53  1  0
 21 54  1  0
 21 55  1  0
 23 56  1  0
 23 57  1  0
 23 58  1  0
 24 59  1  0
 24 60  1  0
 24 61  1  0
 25 62  1  0
 27 63  1  0
 28 64  1  0
 29 65  1  0
 30 66  1  0
M  END
$$$$
