
     RDKit          3D

 46 49  0  0  0  0  0  0  0  0999 V2000
   -2.5367   -2.3574   -1.1808 C   0  0  0  0  0  0  0  0  0  0  0  0
   -2.2700   -1.0315   -0.4801 C   0  0  1  0  0  0  0  0  0  0  0  0
   -0.9599   -0.7659   -0.3993 O   0  0  0  0  0  0  0  0  0  0  0  0
    0.1126   -0.5322    0.2990 C   0  0  0  0  0  0  0  0  0  0  0  0
    1.3140   -0.3080   -0.3983 C   0  0  0  0  0  0  0  0  0  0  0  0
    2.4820   -0.0566    0.2443 C   0  0  0  0  0  0  0  0  0  0  0  0
    3.7182    0.1728   -0.5203 C   0  0  0  0  0  0  0  0  0  0  0  0
    4.9802   -0.1515   -0.1023 C   0  0  0  0  0  0  0  0  0  0  0  0
    5.8083    0.2157   -1.0728 N   0  0  0  0  0  0  0  0  0  0  0  0
    5.1606    0.7544   -2.0861 N   0  0  0  0  0  0  0  0  0  0  0  0
    5.7256    1.2689   -3.3146 C   0  0  0  0  0  0  0  0  0  0  0  0
    5.5324    0.2888   -4.2948 F   0  0  0  0  0  0  0  0  0  0  0  0
    5.0275    2.3867   -3.7055 F   0  0  0  0  0  0  0  0  0  0  0  0
    3.8633    0.7397   -1.7689 C   0  0  0  0  0  0  0  0  0  0  0  0
    2.5299   -0.0121    1.6146 C   0  0  0  0  0  0  0  0  0  0  0  0
    1.3633   -0.2293    2.3052 C   0  0  0  0  0  0  0  0  0  0  0  0
    1.1071   -0.2471    3.6431 N   0  0  0  0  0  0  0  0  0  0  0  0
   -0.1556   -0.4957    3.8645 N   0  0  0  0  0  0  0  0  0  0  0  0
   -0.8606   -0.6062    5.1307 C   0  0  0  0  0  0  0  0  0  0  0  0
   -0.7745   -0.6503    2.6787 C   0  0  0  0  0  0  0  0  0  0  0  0
    0.1711   -0.4855    1.6717 C   0  0  0  0  0  0  0  0  0  0  0  0
   -2.9570    0.1065   -1.2220 C   0  0  1  0  0  0  0  0  0  0  0  0
   -4.4356   -0.0605   -1.3022 C   0  0  0  0  0  0  0  0  0  0  0  0
   -4.8815    1.3010   -1.5644 N   0  0  0  0  0  0  0  0  0  0  0  0
   -3.9144    2.2140   -1.0677 C   0  0  0  0  0  0  0  0  0  0  0  0
   -3.9583    3.4646   -1.1125 O   0  0  0  0  0  0  0  0  0  0  0  0
   -2.8180    1.4110   -0.4728 C   0  0  0  0  0  0  0  0  0  0  0  0
   -2.8118   -2.2342   -2.2343 H   0  0  0  0  0  0  0  0  0  0  0  0
   -1.5996   -2.9569   -1.1565 H   0  0  0  0  0  0  0  0  0  0  0  0
   -3.3362   -2.9270   -0.6763 H   0  0  0  0  0  0  0  0  0  0  0  0
   -2.7669   -1.1043    0.5047 H   0  0  0  0  0  0  0  0  0  0  0  0
    1.2976   -0.3392   -1.5019 H   0  0  0  0  0  0  0  0  0  0  0  0
    5.2294   -0.6155    0.8383 H   0  0  0  0  0  0  0  0  0  0  0  0
    6.8028    1.4635   -3.1776 H   0  0  0  0  0  0  0  0  0  0  0  0
    3.0382    1.0952   -2.3501 H   0  0  0  0  0  0  0  0  0  0  0  0
    3.4309    0.1831    2.1642 H   0  0  0  0  0  0  0  0  0  0  0  0
   -1.1807   -1.6635    5.2264 H   0  0  0  0  0  0  0  0  0  0  0  0
   -1.7181    0.1070    5.1737 H   0  0  0  0  0  0  0  0  0  0  0  0
   -0.1797   -0.3049    5.9477 H   0  0  0  0  0  0  0  0  0  0  0  0
   -1.8188   -0.8642    2.5265 H   0  0  0  0  0  0  0  0  0  0  0  0
   -2.5500    0.2343   -2.2398 H   0  0  0  0  0  0  0  0  0  0  0  0
   -4.8352   -0.3475   -0.2919 H   0  0  0  0  0  0  0  0  0  0  0  0
   -4.7665   -0.7652   -2.0905 H   0  0  0  0  0  0  0  0  0  0  0  0
   -5.7755    1.5446   -2.0437 H   0  0  0  0  0  0  0  0  0  0  0  0
   -1.8256    1.8787   -0.6186 H   0  0  0  0  0  0  0  0  0  0  0  0
   -3.0084    1.2816    0.6137 H   0  0  0  0  0  0  0  0  0  0  0  0
  1  2  1  0
  2  3  1  0
  3  4  1  0
  4  5  2  0
  5  6  1  0
  6  7  1  0
  7  8  1  0
  8  9  2  0
  9 10  1  0
 10 11  1  0
 11 12  1  0
 11 13  1  0
 10 14  1  0
  6 15  2  0
 15 16  1  0
 16 17  2  0
 17 18  1  0
 18 19  1  0
 18 20  1  0
 20 21  2  0
  2 22  1  0
 22 23  1  0
 23 24  1  0
 24 25  1  0
 25 26  2  0
 25 27  1  0
 21  4  1  0
 27 22  1  0
 14  7  2  0
 21 16  1  0
  1 28  1  0
  1 29  1  0
  1 30  1  0
  2 31  1  1
  5 32  1  0
  8 33  1  0
 11 34  1  0
 14 35  1  0
 15 36  1  0
 19 37  1  0
 19 38  1  0
 19 39  1  0
 20 40  1  0
 22 41  1  6
 23 42  1  0
 23 43  1  0
 24 44  1  0
 27 45  1  0
 27 46  1  0
M  END
$$$$
