
     RDKit          3D

 48 49  0  0  0  0  0  0  0  0999 V2000
   -7.6380    0.8636    0.0652 C   0  0  0  0  0  0  0  0  0  0  0  0
   -6.2988    0.2412   -0.0392 C   0  0  0  0  0  0  0  0  0  0  0  0
   -5.8637   -0.6386    0.8849 N   0  0  0  0  0  0  0  0  0  0  0  0
   -4.6204   -1.1443    0.6905 C   0  0  0  0  0  0  0  0  0  0  0  0
   -3.7247   -0.8613   -0.3634 C   0  0  0  0  0  0  0  0  0  0  0  0
   -2.4357   -1.5538   -0.2737 C   0  0  0  0  0  0  0  0  0  0  0  0
   -1.3575   -0.7817    0.2829 N   0  0  0  0  0  4  0  0  0  0  0  0
   -1.3828   -0.8278    1.6484 C   0  0  0  0  0  0  0  0  0  0  0  0
   -0.5052   -0.1742    2.5034 C   0  0  0  0  0  0  0  0  0  0  0  0
    0.4809    0.5893    1.9115 C   0  0  0  0  0  0  0  0  0  0  0  0
    0.5137    0.6398    0.5104 C   0  0  0  0  0  0  0  0  0  0  0  0
    1.6545    1.4392    0.0163 C   0  0  0  0  0  0  0  0  0  0  0  0
    2.8188    0.5663   -0.2474 C   0  0  0  0  0  0  0  0  0  0  0  0
    3.9451    1.2243   -0.7318 O   0  0  0  0  0  0  0  0  0  0  0  0
    5.1628    0.0202   -0.8101 P   0  0  2  0  0  5  0  0  0  0  0  0
    5.1187   -0.7166   -2.3360 O   0  0  0  0  0  0  0  0  0  0  0  0
    4.8895   -1.0144    0.2560 O   0  0  0  0  0  0  0  0  0  0  0  0
    6.6775    0.6643   -0.5662 O   0  0  0  0  0  0  0  0  0  0  0  0
    7.4551   -0.1989    0.6589 P   0  0  0  0  0  0  0  0  0  0  0  0
    6.8969   -1.7959    0.7475 O   0  0  0  0  0  0  0  0  0  0  0  0
    7.1318    0.5111    2.1828 O   0  0  0  0  0  0  0  0  0  0  0  0
    8.9579   -0.2777    0.4375 O   0  0  0  0  0  0  0  0  0  0  0  0
   -0.3948   -0.0369   -0.2634 C   0  0  0  0  0  0  0  0  0  0  0  0
   -0.3479    0.0606   -1.7159 C   0  0  0  0  0  0  0  0  0  0  0  0
   -4.2979    0.0423   -1.2216 C   0  0  0  0  0  0  0  0  0  0  0  0
   -3.4825    0.3764   -2.3311 N   0  0  0  0  0  0  0  0  0  0  0  0
   -5.5115    0.5676   -1.0761 N   0  0  0  0  0  0  0  0  0  0  0  0
   -7.8255    1.0881    1.1456 H   0  0  0  0  0  0  0  0  0  0  0  0
   -7.7095    1.7736   -0.5468 H   0  0  0  0  0  0  0  0  0  0  0  0
   -8.3819    0.0858   -0.2280 H   0  0  0  0  0  0  0  0  0  0  0  0
   -4.3553   -1.8436    1.4852 H   0  0  0  0  0  0  0  0  0  0  0  0
   -2.5748   -2.4904    0.3413 H   0  0  0  0  0  0  0  0  0  0  0  0
   -2.0941   -1.9316   -1.2779 H   0  0  0  0  0  0  0  0  0  0  0  0
   -2.1135   -1.3980    2.2179 H   0  0  0  0  0  0  0  0  0  0  0  0
   -0.5611   -0.2369    3.5813 H   0  0  0  0  0  0  0  0  0  0  0  0
    1.1847    1.1149    2.5624 H   0  0  0  0  0  0  0  0  0  0  0  0
    1.8771    2.3055    0.6757 H   0  0  0  0  0  0  0  0  0  0  0  0
    1.3605    1.9058   -0.9613 H   0  0  0  0  0  0  0  0  0  0  0  0
    2.5741   -0.2383   -0.9476 H   0  0  0  0  0  0  0  0  0  0  0  0
    3.1480    0.1575    0.7511 H   0  0  0  0  0  0  0  0  0  0  0  0
    4.4669   -1.4523   -2.2628 H   0  0  0  0  0  0  0  0  0  0  0  0
    6.6799   -2.0692    1.6781 H   0  0  0  0  0  0  0  0  0  0  0  0
    7.8152    0.1399    2.8066 H   0  0  0  0  0  0  0  0  0  0  0  0
    0.6669    0.1545   -2.1060 H   0  0  0  0  0  0  0  0  0  0  0  0
   -0.9064   -0.7032   -2.2774 H   0  0  0  0  0  0  0  0  0  0  0  0
   -0.8229    1.0679   -1.9675 H   0  0  0  0  0  0  0  0  0  0  0  0
   -3.2058    1.3865   -2.3027 H   0  0  0  0  0  0  0  0  0  0  0  0
   -3.0642   -0.0961   -3.1877 H   0  0  0  0  0  0  0  0  0  0  0  0
  1  2  1  0
  2  3  2  0
  3  4  1  0
  4  5  2  0
  5  6  1  0
  6  7  1  0
  7  8  2  0
  8  9  1  0
  9 10  2  0
 10 11  1  0
 11 12  1  0
 12 13  1  0
 13 14  1  0
 15 14  1  6
 15 16  1  0
 15 17  2  0
 15 18  1  0
 18 19  1  0
 19 20  1  0
 19 21  1  0
 19 22  2  0
 11 23  2  0
 23 24  1  0
  5 25  1  0
 25 26  1  0
 25 27  2  0
 27  2  1  0
 23  7  1  0
  1 28  1  0
  1 29  1  0
  1 30  1  0
  4 31  1  0
  6 32  1  0
  6 33  1  0
  8 34  1  0
  9 35  1  0
 10 36  1  0
 12 37  1  0
 12 38  1  0
 13 39  1  0
 13 40  1  0
 16 41  1  0
 20 42  1  0
 21 43  1  0
 24 44  1  0
 24 45  1  0
 24 46  1  0
 26 47  1  0
 26 48  1  0
M  CHG  1   7   1
M  END
$$$$
