
     RDKit          3D

 65 68  0  0  0  0  0  0  0  0999 V2000
   10.1843   -0.1361    0.1520 C   0  0  0  0  0  0  0  0  0  0  0  0
    9.4132   -0.1200   -1.1632 C   0  0  0  0  0  0  0  0  0  0  0  0
    8.1540    0.4962   -0.9894 O   0  0  0  0  0  0  0  0  0  0  0  0
    7.2735   -0.0692   -0.0779 C   0  0  0  0  0  0  0  0  0  0  0  0
    7.6558   -1.0973    0.5362 O   0  0  0  0  0  0  0  0  0  0  0  0
    5.9261    0.4961    0.1828 C   0  0  1  0  0  0  0  0  0  0  0  0
    5.0833    0.5161   -1.0853 C   0  0  0  0  0  0  0  0  0  0  0  0
    3.8617    1.3444   -0.7837 C   0  0  0  0  0  0  0  0  0  0  0  0
    3.2605    1.0243    0.5601 C   0  0  1  0  0  0  0  0  0  0  0  0
    1.8511    1.0907    0.4596 N   0  0  0  0  0  0  0  0  0  0  0  0
    1.0599    0.8235    1.6156 C   0  0  0  0  0  0  0  0  0  0  0  0
    0.5043   -0.4014    0.9301 C   0  0  0  0  0  0  0  0  0  0  0  0
   -0.9336   -0.4234    0.7869 N   0  0  0  0  0  0  0  0  0  0  0  0
   -1.6433   -1.5791    1.1838 C   0  0  0  0  0  0  0  0  0  0  0  0
   -0.9175   -2.5461    1.6558 O   0  0  0  0  0  0  0  0  0  0  0  0
   -3.0883   -1.7915    1.1174 C   0  0  0  0  0  0  0  0  0  0  0  0
   -3.7758   -0.6582    0.5815 N   0  0  0  0  0  0  0  0  0  0  0  0
   -5.2153   -0.7634    0.4721 C   0  0  0  0  0  0  0  0  0  0  0  0
   -5.9400   -1.8080    0.8225 N   0  0  0  0  0  0  0  0  0  0  0  0
   -7.2302   -1.5943    0.5985 N   0  0  0  0  0  0  0  0  0  0  0  0
   -8.2465   -2.5376    0.8767 C   0  0  0  0  0  0  0  0  0  0  0  0
   -7.9510   -3.8032    1.4255 N   0  0  0  0  0  0  0  0  0  0  0  0
   -9.4354   -2.2363    0.6277 O   0  0  0  0  0  0  0  0  0  0  0  0
   -7.3821   -0.3452    0.0718 C   0  0  0  0  0  0  0  0  0  0  0  0
   -8.4754    0.3698   -0.3363 C   0  0  0  0  0  0  0  0  0  0  0  0
   -8.2706    1.6389   -0.8335 C   0  0  0  0  0  0  0  0  0  0  0  0
   -7.0004    2.1915   -0.9249 C   0  0  0  0  0  0  0  0  0  0  0  0
   -6.7491    3.5526   -1.4548 C   0  0  0  0  0  0  0  0  0  0  0  0
   -6.2406    3.4821   -2.7386 F   0  0  0  0  0  0  0  0  0  0  0  0
   -5.7364    4.1014   -0.6567 F   0  0  0  0  0  0  0  0  0  0  0  0
   -7.8412    4.3671   -1.3862 F   0  0  0  0  0  0  0  0  0  0  0  0
   -5.9116    1.4459   -0.5049 C   0  0  0  0  0  0  0  0  0  0  0  0
   -6.1016    0.1787   -0.0069 C   0  0  0  0  0  0  0  0  0  0  0  0
    1.1563    0.1304   -0.3156 C   0  0  0  0  0  0  0  0  0  0  0  0
    3.7333   -0.2879    1.1208 C   0  0  0  0  0  0  0  0  0  0  0  0
    5.2207   -0.4164    1.1539 C   0  0  0  0  0  0  0  0  0  0  0  0
   11.2732    0.0607   -0.0292 H   0  0  0  0  0  0  0  0  0  0  0  0
    9.9985   -1.0584    0.7150 H   0  0  0  0  0  0  0  0  0  0  0  0
    9.7594    0.7114    0.7553 H   0  0  0  0  0  0  0  0  0  0  0  0
   10.0009    0.3911   -1.9354 H   0  0  0  0  0  0  0  0  0  0  0  0
    9.2976   -1.1958   -1.4573 H   0  0  0  0  0  0  0  0  0  0  0  0
    5.9970    1.5172    0.5998 H   0  0  0  0  0  0  0  0  0  0  0  0
    4.7620   -0.4995   -1.3459 H   0  0  0  0  0  0  0  0  0  0  0  0
    5.6021    0.9654   -1.9368 H   0  0  0  0  0  0  0  0  0  0  0  0
    3.1103    1.1681   -1.5730 H   0  0  0  0  0  0  0  0  0  0  0  0
    4.1531    2.4130   -0.8506 H   0  0  0  0  0  0  0  0  0  0  0  0
    3.6022    1.8177    1.2624 H   0  0  0  0  0  0  0  0  0  0  0  0
    0.3150    1.6430    1.7719 H   0  0  0  0  0  0  0  0  0  0  0  0
    1.5924    0.6323    2.5621 H   0  0  0  0  0  0  0  0  0  0  0  0
    0.8950   -1.3173    1.3459 H   0  0  0  0  0  0  0  0  0  0  0  0
   -1.4526    0.4004    0.3954 H   0  0  0  0  0  0  0  0  0  0  0  0
   -3.5221   -2.0878    2.1055 H   0  0  0  0  0  0  0  0  0  0  0  0
   -3.2714   -2.6838    0.4698 H   0  0  0  0  0  0  0  0  0  0  0  0
   -3.3424    0.2393    0.2604 H   0  0  0  0  0  0  0  0  0  0  0  0
   -8.4921   -4.6747    1.1764 H   0  0  0  0  0  0  0  0  0  0  0  0
   -7.1694   -3.9586    2.1205 H   0  0  0  0  0  0  0  0  0  0  0  0
   -9.4684   -0.0472   -0.2709 H   0  0  0  0  0  0  0  0  0  0  0  0
   -9.0799    2.2721   -1.1780 H   0  0  0  0  0  0  0  0  0  0  0  0
   -4.8949    1.8469   -0.5612 H   0  0  0  0  0  0  0  0  0  0  0  0
    0.4379    0.6214   -1.0044 H   0  0  0  0  0  0  0  0  0  0  0  0
    1.7550   -0.5959   -0.8939 H   0  0  0  0  0  0  0  0  0  0  0  0
    3.3658   -0.3487    2.1677 H   0  0  0  0  0  0  0  0  0  0  0  0
    3.3243   -1.1695    0.5959 H   0  0  0  0  0  0  0  0  0  0  0  0
    5.5525   -1.4627    0.8955 H   0  0  0  0  0  0  0  0  0  0  0  0
    5.6470   -0.2351    2.1765 H   0  0  0  0  0  0  0  0  0  0  0  0
  1  2  1  0
  2  3  1  0
  3  4  1  0
  4  5  2  0
  4  6  1  0
  6  7  1  0
  7  8  1  0
  8  9  1  0
  9 10  1  0
 10 11  1  0
 11 12  1  0
 12 13  1  0
 13 14  1  0
 14 15  2  0
 14 16  1  0
 16 17  1  0
 17 18  1  0
 18 19  2  0
 19 20  1  0
 20 21  1  0
 21 22  1  0
 21 23  2  0
 20 24  1  0
 24 25  2  0
 25 26  1  0
 26 27  2  0
 27 28  1  0
 28 29  1  0
 28 30  1  0
 28 31  1  0
 27 32  1  0
 32 33  2  0
 12 34  1  0
  9 35  1  0
 35 36  1  0
 36  6  1  0
 34 10  1  0
 33 18  1  0
 33 24  1  0
  1 37  1  0
  1 38  1  0
  1 39  1  0
  2 40  1  0
  2 41  1  0
  6 42  1  1
  7 43  1  0
  7 44  1  0
  8 45  1  0
  8 46  1  0
  9 47  1  1
 11 48  1  0
 11 49  1  0
 12 50  1  0
 13 51  1  0
 16 52  1  0
 16 53  1  0
 17 54  1  0
 22 55  1  0
 22 56  1  0
 25 57  1  0
 26 58  1  0
 32 59  1  0
 34 60  1  0
 34 61  1  0
 35 62  1  0
 35 63  1  0
 36 64  1  0
 36 65  1  0
M  END
$$$$
