
     RDKit          3D

 52 55  0  0  0  0  0  0  0  0999 V2000
    1.5262    1.0119   -4.0069 N   0  0  0  0  0  0  0  0  0  0  0  0
    1.7180    1.3231   -2.6418 C   0  0  0  0  0  0  0  0  0  0  0  0
    2.8441    1.7080   -2.2787 O   0  0  0  0  0  0  0  0  0  0  0  0
    0.6333    1.1944   -1.7056 C   0  0  0  0  0  0  0  0  0  0  0  0
   -0.6129    0.9528   -2.2185 N   0  0  0  0  0  0  0  0  0  0  0  0
   -1.6360    0.8988   -1.4012 N   0  0  0  0  0  0  0  0  0  0  0  0
   -1.5719    1.0621   -0.0730 C   0  0  0  0  0  0  0  0  0  0  0  0
   -2.7228    1.0064    0.7664 N   0  0  0  0  0  0  0  0  0  0  0  0
   -4.0633    0.7855    0.2667 C   0  0  2  0  0  0  0  0  0  0  0  0
   -4.9988    0.8195    1.4449 C   0  0  0  0  0  0  0  0  0  0  0  0
   -6.3254    0.1913    1.1906 C   0  0  0  0  0  0  0  0  0  0  0  0
   -6.1597   -1.1918    0.5736 C   0  0  0  0  0  0  0  0  0  0  0  0
   -5.5170   -0.9661   -0.7791 C   0  0  0  0  0  0  0  0  0  0  0  0
   -4.1000   -0.4784   -0.5060 C   0  0  2  0  0  0  0  0  0  0  0  0
   -3.3796   -1.5775    0.0893 N   0  0  0  0  0  0  0  0  0  0  0  0
   -0.3338    1.3034    0.4631 C   0  0  0  0  0  0  0  0  0  0  0  0
    0.7577    1.3658   -0.3633 C   0  0  0  0  0  0  0  0  0  0  0  0
    2.0004    1.6258    0.2477 N   0  0  0  0  0  0  0  0  0  0  0  0
    3.0440    0.6730    0.2663 C   0  0  0  0  0  0  0  0  0  0  0  0
    2.8331   -0.6171   -0.2103 C   0  0  0  0  0  0  0  0  0  0  0  0
    3.8806   -1.5168   -0.1709 C   0  0  0  0  0  0  0  0  0  0  0  0
    5.1249   -1.1881    0.3212 C   0  0  0  0  0  0  0  0  0  0  0  0
    5.2948    0.0933    0.7825 C   0  0  0  0  0  0  0  0  0  0  0  0
    4.2735    0.9628    0.7414 N   0  0  0  0  0  0  0  0  0  0  0  0
    6.6978    0.2310    1.2674 C   0  0  0  0  0  0  0  0  0  0  0  0
    7.0703   -1.1987    1.5858 C   0  0  0  0  0  0  0  0  0  0  0  0
    6.3960   -1.9584    0.4708 C   0  0  0  0  0  0  0  0  0  0  0  0
    0.5687    1.0756   -4.4147 H   0  0  0  0  0  0  0  0  0  0  0  0
    2.3209    0.7231   -4.6037 H   0  0  0  0  0  0  0  0  0  0  0  0
   -2.5386    1.1385    1.8070 H   0  0  0  0  0  0  0  0  0  0  0  0
   -4.2639    1.6462   -0.4337 H   0  0  0  0  0  0  0  0  0  0  0  0
   -4.5166    0.3930    2.3643 H   0  0  0  0  0  0  0  0  0  0  0  0
   -5.1666    1.8991    1.6887 H   0  0  0  0  0  0  0  0  0  0  0  0
   -6.9477    0.7968    0.5221 H   0  0  0  0  0  0  0  0  0  0  0  0
   -6.8279    0.0573    2.1808 H   0  0  0  0  0  0  0  0  0  0  0  0
   -5.4342   -1.7264    1.2184 H   0  0  0  0  0  0  0  0  0  0  0  0
   -7.1396   -1.6950    0.4943 H   0  0  0  0  0  0  0  0  0  0  0  0
   -6.0686   -0.1255   -1.2556 H   0  0  0  0  0  0  0  0  0  0  0  0
   -5.4475   -1.8661   -1.3886 H   0  0  0  0  0  0  0  0  0  0  0  0
   -3.6659   -0.3035   -1.5305 H   0  0  0  0  0  0  0  0  0  0  0  0
   -3.3297   -1.5009    1.1121 H   0  0  0  0  0  0  0  0  0  0  0  0
   -3.7534   -2.5028   -0.2565 H   0  0  0  0  0  0  0  0  0  0  0  0
   -0.2258    1.4430    1.5386 H   0  0  0  0  0  0  0  0  0  0  0  0
    2.1930    2.5582    0.7191 H   0  0  0  0  0  0  0  0  0  0  0  0
    1.8730   -0.9089   -0.6022 H   0  0  0  0  0  0  0  0  0  0  0  0
    3.7299   -2.5333   -0.5425 H   0  0  0  0  0  0  0  0  0  0  0  0
    6.6759    0.8154    2.2173 H   0  0  0  0  0  0  0  0  0  0  0  0
    7.3694    0.6599    0.5190 H   0  0  0  0  0  0  0  0  0  0  0  0
    6.5493   -1.4908    2.5382 H   0  0  0  0  0  0  0  0  0  0  0  0
    8.1626   -1.3625    1.6333 H   0  0  0  0  0  0  0  0  0  0  0  0
    6.9760   -1.9044   -0.4587 H   0  0  0  0  0  0  0  0  0  0  0  0
    6.2336   -2.9877    0.8110 H   0  0  0  0  0  0  0  0  0  0  0  0
  1  2  1  0
  2  3  2  0
  2  4  1  0
  4  5  2  0
  5  6  1  0
  6  7  2  0
  7  8  1  0
  8  9  1  0
  9 10  1  0
 10 11  1  0
 11 12  1  0
 12 13  1  0
 13 14  1  0
 14 15  1  0
  7 16  1  0
 16 17  2  0
 17 18  1  0
 18 19  1  0
 19 20  2  0
 20 21  1  0
 21 22  2  0
 22 23  1  0
 23 24  2  0
 23 25  1  0
 25 26  1  0
 26 27  1  0
 17  4  1  0
 24 19  1  0
 14  9  1  0
 27 22  1  0
  1 28  1  0
  1 29  1  0
  8 30  1  0
  9 31  1  6
 10 32  1  0
 10 33  1  0
 11 34  1  0
 11 35  1  0
 12 36  1  0
 12 37  1  0
 13 38  1  0
 13 39  1  0
 14 40  1  6
 15 41  1  0
 15 42  1  0
 16 43  1  0
 18 44  1  0
 20 45  1  0
 21 46  1  0
 25 47  1  0
 25 48  1  0
 26 49  1  0
 26 50  1  0
 27 51  1  0
 27 52  1  0
M  END
$$$$
