
     RDKit          3D

 51 53  0  0  0  0  0  0  0  0999 V2000
   10.2336   -0.5775    1.7556 N   0  0  0  0  0  0  0  0  0  0  0  0
    8.9586    0.0156    1.4541 C   0  0  0  0  0  0  0  0  0  0  0  0
    8.4869    1.2005    1.9076 N   0  0  0  0  0  0  0  0  0  0  0  0
    7.2703    1.6007    1.5231 C   0  0  0  0  0  0  0  0  0  0  0  0
    6.8576    2.7088    1.9616 O   0  0  0  0  0  0  0  0  0  0  0  0
    6.4798    0.8551    0.6847 C   0  0  0  0  0  0  0  0  0  0  0  0
    5.2532    1.2564    0.2956 N   0  0  0  0  0  0  0  0  0  0  0  0
    4.5084    0.4949   -0.5288 C   0  0  0  0  0  0  0  0  0  0  0  0
    3.1600    0.8368   -1.0146 C   0  0  0  0  0  0  0  0  0  0  0  0
    2.1114    0.3441   -0.1350 N   0  0  0  0  0  0  0  0  0  0  0  0
    0.7160    0.5277   -0.3559 C   0  0  0  0  0  0  0  0  0  0  0  0
   -0.2286    0.0379    0.5128 C   0  0  0  0  0  0  0  0  0  0  0  0
   -1.5758    0.2241    0.2848 C   0  0  0  0  0  0  0  0  0  0  0  0
   -2.0287    0.9010   -0.8104 C   0  0  0  0  0  0  0  0  0  0  0  0
   -1.0869    1.3881   -1.6746 C   0  0  0  0  0  0  0  0  0  0  0  0
    0.2751    1.2174   -1.4730 C   0  0  0  0  0  0  0  0  0  0  0  0
   -3.4296    1.1198   -1.0894 C   0  0  0  0  0  0  0  0  0  0  0  0
   -3.8633    1.7372   -2.0873 O   0  0  0  0  0  0  0  0  0  0  0  0
   -4.4671    0.6416   -0.2342 N   0  0  0  0  0  0  0  0  0  0  0  0
   -5.8811    0.8140   -0.4355 C   0  0  1  0  0  0  0  0  0  0  0  0
   -6.5844   -0.4970   -0.7180 C   0  0  0  0  0  0  0  0  0  0  0  0
   -6.4446   -1.5060    0.3990 C   0  0  0  0  0  0  0  0  0  0  0  0
   -7.1677   -2.7807    0.0461 C   0  0  0  0  0  0  0  0  0  0  0  0
   -7.9135   -3.7107   -0.6394 O   0  0  0  0  0  0  0  0  0  0  0  0
   -7.0484   -3.6313    0.9907 O   0  0  0  0  0  0  0  0  0  0  0  0
   -6.5444    1.5952    0.6155 C   0  0  0  0  0  0  0  0  0  0  0  0
   -7.1388    2.3366    1.6252 O   0  0  0  0  0  0  0  0  0  0  0  0
   -7.7824    1.6622    0.3018 O   0  0  0  0  0  0  0  0  0  0  0  0
    4.9968   -0.7099   -0.9855 C   0  0  0  0  0  0  0  0  0  0  0  0
    6.2221   -1.1330   -0.6098 N   0  0  0  0  0  0  0  0  0  0  0  0
    6.9700   -0.3558    0.2254 C   0  0  0  0  0  0  0  0  0  0  0  0
    8.1996   -0.7294    0.6321 N   0  0  0  0  0  0  0  0  0  0  0  0
   11.1563   -0.2178    1.3920 H   0  0  0  0  0  0  0  0  0  0  0  0
   10.3724   -1.4090    2.3541 H   0  0  0  0  0  0  0  0  0  0  0  0
    3.0924    1.9612   -1.0293 H   0  0  0  0  0  0  0  0  0  0  0  0
    2.9812    0.5059   -2.0512 H   0  0  0  0  0  0  0  0  0  0  0  0
    2.4109   -0.1828    0.7205 H   0  0  0  0  0  0  0  0  0  0  0  0
    0.1117   -0.5083    1.3982 H   0  0  0  0  0  0  0  0  0  0  0  0
   -2.2515   -0.1824    0.9993 H   0  0  0  0  0  0  0  0  0  0  0  0
   -1.4303    1.9330   -2.5575 H   0  0  0  0  0  0  0  0  0  0  0  0
    0.9518    1.6367   -2.2088 H   0  0  0  0  0  0  0  0  0  0  0  0
   -4.2379    0.1088    0.6357 H   0  0  0  0  0  0  0  0  0  0  0  0
   -5.9799    1.3919   -1.3879 H   0  0  0  0  0  0  0  0  0  0  0  0
   -6.2222   -0.8780   -1.6804 H   0  0  0  0  0  0  0  0  0  0  0  0
   -7.6711   -0.3034   -0.8266 H   0  0  0  0  0  0  0  0  0  0  0  0
   -5.3737   -1.7898    0.4652 H   0  0  0  0  0  0  0  0  0  0  0  0
   -6.8973   -1.1736    1.3331 H   0  0  0  0  0  0  0  0  0  0  0  0
   -8.9161   -3.5608   -0.6627 H   0  0  0  0  0  0  0  0  0  0  0  0
   -6.6187    3.0782    2.0921 H   0  0  0  0  0  0  0  0  0  0  0  0
    4.4999   -1.4157   -1.6511 H   0  0  0  0  0  0  0  0  0  0  0  0
    8.5078   -1.6657    0.2410 H   0  0  0  0  0  0  0  0  0  0  0  0
  1  2  1  0
  2  3  2  0
  3  4  1  0
  4  5  2  0
  4  6  1  0
  6  7  2  0
  7  8  1  0
  8  9  1  0
  9 10  1  0
 10 11  1  0
 11 12  2  0
 12 13  1  0
 13 14  2  0
 14 15  1  0
 15 16  2  0
 14 17  1  0
 17 18  2  0
 17 19  1  0
 19 20  1  0
 20 21  1  0
 21 22  1  0
 22 23  1  0
 23 24  1  0
 23 25  2  0
 20 26  1  0
 26 27  1  0
 26 28  2  0
  8 29  2  0
 29 30  1  0
 30 31  2  0
 31 32  1  0
 32  2  1  0
 31  6  1  0
 16 11  1  0
  1 33  1  0
  1 34  1  0
  9 35  1  0
  9 36  1  0
 10 37  1  0
 12 38  1  0
 13 39  1  0
 15 40  1  0
 16 41  1  0
 19 42  1  0
 20 43  1  6
 21 44  1  0
 21 45  1  0
 22 46  1  0
 22 47  1  0
 24 48  1  0
 27 49  1  0
 29 50  1  0
 32 51  1  0
M  END
$$$$
