
     RDKit          3D

 62 67  0  0  0  0  0  0  0  0999 V2000
    3.8048    1.8742    1.1920 O   0  0  0  0  0  0  0  0  0  0  0  0
    4.0437    0.8108    0.5661 C   0  0  0  0  0  0  0  0  0  0  0  0
    5.3785    0.4719    0.3140 N   0  0  0  0  0  0  0  0  0  0  0  0
    6.4602    1.3282    0.7649 C   0  0  1  0  0  0  0  0  0  0  0  0
    7.3837    0.6310    1.7219 C   0  0  0  0  0  0  0  0  0  0  0  0
    8.3812   -0.2655    1.0655 C   0  0  0  0  0  0  0  0  0  0  0  0
    9.1350    0.4250   -0.0513 C   0  0  2  0  0  0  0  0  0  0  0  0
    9.7673    1.5544    0.4357 O   0  0  0  0  0  0  0  0  0  0  0  0
    8.1006    0.8644   -1.0787 C   0  0  0  0  0  0  0  0  0  0  0  0
    7.2354    1.8991   -0.4041 C   0  0  0  0  0  0  0  0  0  0  0  0
    2.9112   -0.0179    0.1336 C   0  0  0  0  0  0  0  0  0  0  0  0
    3.0755   -1.1892   -0.5476 C   0  0  0  0  0  0  0  0  0  0  0  0
    1.9697   -1.9261   -0.9288 C   0  0  0  0  0  0  0  0  0  0  0  0
    0.6741   -1.5368   -0.6537 C   0  0  0  0  0  0  0  0  0  0  0  0
    0.5093   -0.3533    0.0346 C   0  0  0  0  0  0  0  0  0  0  0  0
    1.6071    0.3835    0.4160 C   0  0  0  0  0  0  0  0  0  0  0  0
   -0.9582   -0.1226    0.2250 C   0  0  0  0  0  0  0  0  0  0  0  0
   -1.5609   -1.2973   -0.4285 C   0  0  0  0  0  0  0  0  0  0  0  0
   -2.8080   -1.8410   -0.6932 C   0  0  0  0  0  0  0  0  0  0  0  0
   -4.1151   -1.3049   -0.3332 C   0  0  0  0  0  0  0  0  0  0  0  0
   -5.1174   -1.3055   -1.2795 C   0  0  0  0  0  0  0  0  0  0  0  0
   -6.3523   -0.8071   -0.9640 C   0  0  0  0  0  0  0  0  0  0  0  0
   -6.5815   -0.3070    0.3042 C   0  0  0  0  0  0  0  0  0  0  0  0
   -7.8831    0.2143    0.6262 C   0  0  0  0  0  0  0  0  0  0  0  0
   -8.3814    0.1323    1.9042 C   0  0  0  0  0  0  0  0  0  0  0  0
   -9.6336    0.6263    2.2433 C   0  0  0  0  0  0  0  0  0  0  0  0
  -10.3973    1.2131    1.2780 C   0  0  0  0  0  0  0  0  0  0  0  0
  -11.6681    1.7227    1.5880 O   0  0  0  0  0  0  0  0  0  0  0  0
   -9.9118    1.3026   -0.0072 C   0  0  0  0  0  0  0  0  0  0  0  0
   -8.6682    0.8088   -0.3306 C   0  0  0  0  0  0  0  0  0  0  0  0
   -5.5919   -0.3028    1.2490 C   0  0  0  0  0  0  0  0  0  0  0  0
   -4.3276   -0.8116    0.9305 C   0  0  0  0  0  0  0  0  0  0  0  0
   -2.5659   -2.9914   -1.3654 N   0  0  0  0  0  0  0  0  0  0  0  0
   -1.2698   -3.1762   -1.5225 N   0  0  0  0  0  0  0  0  0  0  0  0
   -0.6280   -2.1406   -0.9508 C   0  0  0  0  0  0  0  0  0  0  0  0
    5.6258   -0.4184   -0.2123 H   0  0  0  0  0  0  0  0  0  0  0  0
    6.0153    2.1958    1.2919 H   0  0  0  0  0  0  0  0  0  0  0  0
    7.9174    1.4006    2.3328 H   0  0  0  0  0  0  0  0  0  0  0  0
    6.7949    0.0218    2.4374 H   0  0  0  0  0  0  0  0  0  0  0  0
    7.9396   -1.2117    0.7130 H   0  0  0  0  0  0  0  0  0  0  0  0
    9.1296   -0.5534    1.8480 H   0  0  0  0  0  0  0  0  0  0  0  0
    9.8597   -0.2865   -0.4810 H   0  0  0  0  0  0  0  0  0  0  0  0
    9.9758    2.1336   -0.3633 H   0  0  0  0  0  0  0  0  0  0  0  0
    8.5532    1.3227   -1.9652 H   0  0  0  0  0  0  0  0  0  0  0  0
    7.4374    0.0079   -1.3345 H   0  0  0  0  0  0  0  0  0  0  0  0
    6.5557    2.3179   -1.1515 H   0  0  0  0  0  0  0  0  0  0  0  0
    7.8429    2.7559   -0.0136 H   0  0  0  0  0  0  0  0  0  0  0  0
    4.0674   -1.5585   -0.7990 H   0  0  0  0  0  0  0  0  0  0  0  0
    2.0777   -2.8616   -1.4720 H   0  0  0  0  0  0  0  0  0  0  0  0
    1.4800    1.3128    0.9564 H   0  0  0  0  0  0  0  0  0  0  0  0
   -1.2790    0.8207   -0.2331 H   0  0  0  0  0  0  0  0  0  0  0  0
   -1.1844   -0.1005    1.3279 H   0  0  0  0  0  0  0  0  0  0  0  0
   -4.9343   -1.6976   -2.2704 H   0  0  0  0  0  0  0  0  0  0  0  0
   -7.1326   -0.8117   -1.7126 H   0  0  0  0  0  0  0  0  0  0  0  0
   -7.7930   -0.3251    2.6696 H   0  0  0  0  0  0  0  0  0  0  0  0
   -9.9973    0.5466    3.2576 H   0  0  0  0  0  0  0  0  0  0  0  0
  -12.0251    2.5058    1.0481 H   0  0  0  0  0  0  0  0  0  0  0  0
  -10.5054    1.7607   -0.7675 H   0  0  0  0  0  0  0  0  0  0  0  0
   -8.2911    0.8798   -1.3335 H   0  0  0  0  0  0  0  0  0  0  0  0
   -5.7788    0.0855    2.2246 H   0  0  0  0  0  0  0  0  0  0  0  0
   -3.5565   -0.8101    1.6618 H   0  0  0  0  0  0  0  0  0  0  0  0
   -0.8120   -3.9988   -2.0143 H   0  0  0  0  0  0  0  0  0  0  0  0
  1  2  2  0
  2  3  1  0
  3  4  1  0
  4  5  1  0
  5  6  1  0
  6  7  1  0
  7  8  1  0
  7  9  1  0
  9 10  1  0
  2 11  1  0
 11 12  2  0
 12 13  1  0
 13 14  2  0
 14 15  1  0
 15 16  2  0
 15 17  1  0
 17 18  1  0
 18 19  1  0
 19 20  1  0
 20 21  2  0
 21 22  1  0
 22 23  2  0
 23 24  1  0
 24 25  2  0
 25 26  1  0
 26 27  2  0
 27 28  1  0
 27 29  1  0
 29 30  2  0
 23 31  1  0
 31 32  2  0
 19 33  2  0
 33 34  1  0
 34 35  1  0
 10  4  1  0
 16 11  1  0
 35 18  2  0
 35 14  1  0
 32 20  1  0
 30 24  1  0
  3 36  1  0
  4 37  1  1
  5 38  1  0
  5 39  1  0
  6 40  1  0
  6 41  1  0
  7 42  1  6
  8 43  1  0
  9 44  1  0
  9 45  1  0
 10 46  1  0
 10 47  1  0
 12 48  1  0
 13 49  1  0
 16 50  1  0
 17 51  1  0
 17 52  1  0
 21 53  1  0
 22 54  1  0
 25 55  1  0
 26 56  1  0
 28 57  1  0
 29 58  1  0
 30 59  1  0
 31 60  1  0
 32 61  1  0
 34 62  1  0
M  END
$$$$
