
     RDKit          3D

 34 36  0  0  0  0  0  0  0  0999 V2000
   -0.5870   -1.3670   -1.6582 O   0  0  0  0  0  0  0  0  0  0  0  0
   -0.2411   -0.5190   -0.5890 C   0  0  0  0  0  0  0  0  0  0  0  0
    0.9930    0.2297   -0.9732 C   0  0  0  0  0  0  0  0  0  0  0  0
    1.4499    1.1476    0.0293 N   0  0  0  0  0  0  0  0  0  0  0  0
    1.0767    2.4285    0.1243 C   0  0  0  0  0  0  0  0  0  0  0  0
    1.6826    3.0067    1.1644 N   0  0  0  0  0  0  0  0  0  0  0  0
    2.4526    2.0715    1.7356 C   0  0  0  0  0  0  0  0  0  0  0  0
    2.2918    0.9466    1.0230 N   0  0  0  0  0  0  0  0  0  0  0  0
    0.1075   -1.3963    0.6109 C   0  0  0  0  0  0  0  0  0  0  0  0
    1.2106   -2.2820    0.3076 N   0  0  0  0  0  0  0  0  0  0  0  0
    1.0075   -3.5204   -0.2139 C   0  0  0  0  0  0  0  0  0  0  0  0
    2.1917   -4.1242   -0.3945 N   0  0  0  0  0  0  0  0  0  0  0  0
    3.1292   -3.2590    0.0155 C   0  0  0  0  0  0  0  0  0  0  0  0
    2.4971   -2.1591    0.4320 N   0  0  0  0  0  0  0  0  0  0  0  0
   -1.3892    0.3498   -0.2983 C   0  0  0  0  0  0  0  0  0  0  0  0
   -1.9917    0.3339    0.9596 C   0  0  0  0  0  0  0  0  0  0  0  0
   -3.0681    1.1468    1.2439 C   0  0  0  0  0  0  0  0  0  0  0  0
   -3.5226    1.9732    0.2369 C   0  0  0  0  0  0  0  0  0  0  0  0
   -4.5826    2.7759    0.5124 F   0  0  0  0  0  0  0  0  0  0  0  0
   -2.9325    1.9949   -1.0090 C   0  0  0  0  0  0  0  0  0  0  0  0
   -1.8552    1.1810   -1.2934 C   0  0  0  0  0  0  0  0  0  0  0  0
   -1.2625    1.1935   -2.5302 F   0  0  0  0  0  0  0  0  0  0  0  0
   -0.3182   -0.8988   -2.5016 H   0  0  0  0  0  0  0  0  0  0  0  0
    1.8507   -0.4833   -1.1615 H   0  0  0  0  0  0  0  0  0  0  0  0
    0.9038    0.7805   -1.9406 H   0  0  0  0  0  0  0  0  0  0  0  0
    0.3868    2.9076   -0.5488 H   0  0  0  0  0  0  0  0  0  0  0  0
    3.0787    2.2379    2.6166 H   0  0  0  0  0  0  0  0  0  0  0  0
   -0.7688   -1.9876    0.9409 H   0  0  0  0  0  0  0  0  0  0  0  0
    0.3939   -0.7463    1.4606 H   0  0  0  0  0  0  0  0  0  0  0  0
    0.0692   -3.9873   -0.4599 H   0  0  0  0  0  0  0  0  0  0  0  0
    4.2168   -3.4523   -0.0017 H   0  0  0  0  0  0  0  0  0  0  0  0
   -1.6238   -0.3202    1.7406 H   0  0  0  0  0  0  0  0  0  0  0  0
   -3.5484    1.1425    2.2270 H   0  0  0  0  0  0  0  0  0  0  0  0
   -3.2983    2.6549   -1.8074 H   0  0  0  0  0  0  0  0  0  0  0  0
  1  2  1  0
  2  3  1  0
  3  4  1  0
  4  5  1  0
  5  6  2  0
  6  7  1  0
  7  8  2  0
  2  9  1  0
  9 10  1  0
 10 11  1  0
 11 12  2  0
 12 13  1  0
 13 14  2  0
  2 15  1  0
 15 16  2  0
 16 17  1  0
 17 18  2  0
 18 19  1  0
 18 20  1  0
 20 21  2  0
 21 22  1  0
  8  4  1  0
 14 10  1  0
 21 15  1  0
  1 23  1  0
  3 24  1  0
  3 25  1  0
  5 26  1  0
  7 27  1  0
  9 28  1  0
  9 29  1  0
 11 30  1  0
 13 31  1  0
 16 32  1  0
 17 33  1  0
 20 34  1  0
M  END
$$$$
