
     RDKit          3D

 97102  0  0  0  0  0  0  0  0999 V2000
   -1.0707    2.4930    1.1989 C   0  0  2  0  0  0  0  0  0  0  0  0
   -0.2888    3.5072    1.8230 O   0  0  0  0  0  0  0  0  0  0  0  0
   -0.3213    2.0240   -0.0473 C   0  0  0  0  0  0  0  0  0  0  0  0
    0.9228    1.5543    0.4018 O   0  0  0  0  0  0  0  0  0  0  0  0
    1.9138    1.0437   -0.8710 P   0  0  0  0  0  0  0  0  0  0  0  0
    1.5208    1.9184   -2.2828 O   0  0  0  0  0  0  0  0  0  0  0  0
    1.7249   -0.4126   -1.1833 O   0  0  0  0  0  0  0  0  0  0  0  0
    3.4988    1.4277   -0.4279 O   0  0  0  0  0  0  0  0  0  0  0  0
    4.5979    1.3168   -1.6765 P   0  0  0  0  0  0  0  0  0  0  0  0
    5.0644    2.9171   -2.0681 O   0  0  0  0  0  0  0  0  0  0  0  0
    4.0331    0.7148   -2.9425 O   0  0  0  0  0  0  0  0  0  0  0  0
    6.0373    0.5479   -1.1887 O   0  0  0  0  0  0  0  0  0  0  0  0
    6.1028   -0.7689   -1.5680 C   0  0  0  0  0  0  0  0  0  0  0  0
    7.3613   -1.4604   -1.1016 C   0  0  1  0  0  0  0  0  0  0  0  0
    8.5283   -0.9043   -1.5706 O   0  0  0  0  0  0  0  0  0  0  0  0
    9.5106   -1.4888   -0.8008 C   0  0  1  0  0  0  0  0  0  0  0  0
   10.6935   -0.6399   -0.6444 N   0  0  0  0  0  4  0  0  0  0  0  0
   11.0480    0.5100   -1.1129 C   0  0  0  0  0  0  0  0  0  0  0  0
   12.3498    0.8973   -0.6261 N   0  0  0  0  0  0  0  0  0  0  0  0
   12.7871   -0.0389    0.1512 C   0  0  0  0  0  0  0  0  0  0  0  0
   11.7644   -1.0936    0.2007 C   0  0  0  0  0  0  0  0  0  0  0  0
   12.0280   -2.1260    0.9385 N   0  0  0  0  0  0  0  0  0  0  0  0
   13.2463   -2.2331    1.6644 C   0  0  0  0  0  0  0  0  0  0  0  0
   14.1897   -1.3273    1.6575 N   0  0  0  0  0  0  0  0  0  0  0  0
   14.0362   -0.1402    0.8905 C   0  0  0  0  0  0  0  0  0  0  0  0
   14.9703    0.7468    0.8897 N   0  0  0  0  0  0  0  0  0  0  0  0
    8.9377   -1.6527    0.5916 C   0  0  2  0  0  0  0  0  0  0  0  0
    8.8266   -3.0336    0.8588 O   0  0  0  0  0  0  0  0  0  0  0  0
    7.5133   -1.1661    0.3979 C   0  0  2  0  0  0  0  0  0  0  0  0
    6.5897   -1.8661    1.1538 O   0  0  0  0  0  0  0  0  0  0  0  0
   -2.3639    3.1247    0.7811 C   0  0  1  0  0  0  0  0  0  0  0  0
   -2.1342    4.1549   -0.1270 O   0  0  0  0  0  0  0  0  0  0  0  0
   -3.3943    2.1933    0.2204 C   0  0  1  0  0  0  0  0  0  0  0  0
   -3.0122    1.6421   -1.0077 O   0  0  0  0  0  0  0  0  0  0  0  0
   -3.6613    1.1086    1.2257 C   0  0  0  0  0  0  0  0  0  0  0  0
   -4.7247    0.2058    0.8657 N   0  0  0  0  0  0  0  0  0  0  0  0
   -6.0775    0.6114    0.9594 C   0  0  0  0  0  0  0  0  0  0  0  0
   -7.0703   -0.2536    0.5645 C   0  0  0  0  0  0  0  0  0  0  0  0
   -8.3386    0.2467    0.7204 C   0  0  0  0  0  0  0  0  0  0  0  0
   -8.6827    1.4845    1.2159 C   0  0  0  0  0  0  0  0  0  0  0  0
  -10.1007    1.9306    1.3433 C   0  0  0  0  0  0  0  0  0  0  0  0
   -7.6492    2.3106    1.5971 C   0  0  0  0  0  0  0  0  0  0  0  0
   -8.0052    3.6606    2.1378 C   0  0  0  0  0  0  0  0  0  0  0  0
   -6.3396    1.8650    1.4658 C   0  0  0  0  0  0  0  0  0  0  0  0
   -6.7651   -1.5317    0.0711 N   0  0  0  0  0  0  0  0  0  0  0  0
   -7.7746   -2.3958   -0.3439 C   0  0  0  0  0  0  0  0  0  0  0  0
   -8.0151   -3.5075   -0.7917 O   0  0  0  0  0  0  0  0  0  0  0  0
   -9.1716   -2.7108   -0.5803 C   0  0  0  0  0  0  0  0  0  0  0  0
   -9.4506   -4.1591   -0.9335 C   0  0  0  0  0  0  0  0  0  0  0  0
   -9.7963   -1.9170   -1.7389 C   0  0  0  0  0  0  0  0  0  0  0  0
   -5.4306   -1.9419   -0.0232 C   0  0  0  0  0  0  0  0  0  0  0  0
   -4.4138   -1.0999    0.3633 C   0  0  0  0  0  0  0  0  0  0  0  0
   -3.1159   -1.4038    0.3100 N   0  0  0  0  0  0  0  0  0  0  0  0
   -2.7106   -2.5964   -0.1419 C   0  0  0  0  0  0  0  0  0  0  0  0
   -1.3681   -2.9342   -0.2065 O   0  0  0  0  0  0  0  0  0  0  0  0
   -3.6637   -3.4844   -0.5431 N   0  0  0  0  0  0  0  0  0  0  0  0
   -4.9484   -3.1364   -0.4717 C   0  0  0  0  0  0  0  0  0  0  0  0
   -5.8224   -4.0899   -0.8950 O   0  0  0  0  0  1  0  0  0  0  0  0
   -1.1673    1.6851    1.9383 H   0  0  0  0  0  0  0  0  0  0  0  0
    0.5032    3.0637    2.2174 H   0  0  0  0  0  0  0  0  0  0  0  0
   -0.2601    2.7983   -0.8074 H   0  0  0  0  0  0  0  0  0  0  0  0
   -0.8668    1.1432   -0.4416 H   0  0  0  0  0  0  0  0  0  0  0  0
    1.7883    2.8824   -2.1986 H   0  0  0  0  0  0  0  0  0  0  0  0
    5.5623    3.3502   -1.3309 H   0  0  0  0  0  0  0  0  0  0  0  0
    5.2653   -1.3051   -1.0514 H   0  0  0  0  0  0  0  0  0  0  0  0
    5.9363   -0.9210   -2.6495 H   0  0  0  0  0  0  0  0  0  0  0  0
    7.3014   -2.5344   -1.2694 H   0  0  0  0  0  0  0  0  0  0  0  0
    9.8678   -2.4584   -1.2319 H   0  0  0  0  0  0  0  0  0  0  0  0
   10.3894    1.0462   -1.7809 H   0  0  0  0  0  0  0  0  0  0  0  0
   13.4527   -3.0998    2.2759 H   0  0  0  0  0  0  0  0  0  0  0  0
   14.8923    1.6289    0.3401 H   0  0  0  0  0  0  0  0  0  0  0  0
    9.4906   -1.1096    1.3703 H   0  0  0  0  0  0  0  0  0  0  0  0
    8.8061   -3.5472    0.0167 H   0  0  0  0  0  0  0  0  0  0  0  0
    7.4745   -0.0656    0.5304 H   0  0  0  0  0  0  0  0  0  0  0  0
    6.1913   -1.2558    1.8173 H   0  0  0  0  0  0  0  0  0  0  0  0
   -2.7829    3.6296    1.6994 H   0  0  0  0  0  0  0  0  0  0  0  0
   -2.2594    3.8973   -1.0544 H   0  0  0  0  0  0  0  0  0  0  0  0
   -4.2827    2.8239   -0.0260 H   0  0  0  0  0  0  0  0  0  0  0  0
   -3.2340    2.2394   -1.7735 H   0  0  0  0  0  0  0  0  0  0  0  0
   -3.9198    1.5747    2.1959 H   0  0  0  0  0  0  0  0  0  0  0  0
   -2.7118    0.5249    1.3096 H   0  0  0  0  0  0  0  0  0  0  0  0
   -9.1403   -0.3738    0.4399 H   0  0  0  0  0  0  0  0  0  0  0  0
  -10.8070    1.1512    1.0372 H   0  0  0  0  0  0  0  0  0  0  0  0
  -10.1796    2.8762    0.7672 H   0  0  0  0  0  0  0  0  0  0  0  0
  -10.2908    2.1959    2.4144 H   0  0  0  0  0  0  0  0  0  0  0  0
   -8.1066    4.3772    1.2978 H   0  0  0  0  0  0  0  0  0  0  0  0
   -7.1229    4.0499    2.7260 H   0  0  0  0  0  0  0  0  0  0  0  0
   -8.8777    3.6299    2.8086 H   0  0  0  0  0  0  0  0  0  0  0  0
   -5.6431    2.5874    1.8081 H   0  0  0  0  0  0  0  0  0  0  0  0
   -9.7607   -2.5372    0.3742 H   0  0  0  0  0  0  0  0  0  0  0  0
   -9.0508   -4.3598   -1.9435 H   0  0  0  0  0  0  0  0  0  0  0  0
  -10.5767   -4.2694   -0.9447 H   0  0  0  0  0  0  0  0  0  0  0  0
   -8.9956   -4.8344   -0.2160 H   0  0  0  0  0  0  0  0  0  0  0  0
   -9.1909   -1.0198   -1.9807 H   0  0  0  0  0  0  0  0  0  0  0  0
  -10.8367   -1.6793   -1.4368 H   0  0  0  0  0  0  0  0  0  0  0  0
   -9.8550   -2.5338   -2.6551 H   0  0  0  0  0  0  0  0  0  0  0  0
   -1.1172   -3.8943   -0.4498 H   0  0  0  0  0  0  0  0  0  0  0  0
  1  2  1  0
  1  3  1  0
  3  4  1  0
  4  5  1  0
  5  6  1  0
  5  7  2  0
  5  8  1  0
  8  9  1  0
  9 10  1  0
  9 11  2  0
  9 12  1  0
 12 13  1  0
 13 14  1  0
 14 15  1  0
 15 16  1  0
 16 17  1  0
 17 18  2  0
 18 19  1  0
 19 20  2  0
 20 21  1  0
 21 22  2  0
 22 23  1  0
 23 24  2  0
 24 25  1  0
 25 26  2  3
 16 27  1  0
 27 28  1  0
 27 29  1  0
 29 30  1  0
  1 31  1  0
 31 32  1  0
 31 33  1  0
 33 34  1  0
 33 35  1  0
 35 36  1  0
 36 37  1  0
 37 38  1  0
 38 39  2  0
 39 40  1  0
 40 41  1  0
 40 42  2  0
 42 43  1  0
 42 44  1  0
 38 45  1  0
 45 46  1  0
 46 47  2  0
 46 48  1  0
 48 49  1  0
 48 50  1  0
 45 51  1  0
 51 52  2  0
 52 53  1  0
 53 54  2  0
 54 55  1  0
 54 56  1  0
 56 57  2  0
 57 58  1  0
 29 14  1  0
 52 36  1  0
 21 17  1  0
 44 37  2  0
 57 51  1  0
 25 20  1  0
  1 59  1  1
  2 60  1  0
  3 61  1  0
  3 62  1  0
  6 63  1  0
 10 64  1  0
 13 65  1  0
 13 66  1  0
 14 67  1  1
 16 68  1  6
 18 69  1  0
 23 70  1  0
 26 71  1  0
 27 72  1  1
 28 73  1  0
 29 74  1  6
 30 75  1  0
 31 76  1  1
 32 77  1  0
 33 78  1  6
 34 79  1  0
 35 80  1  0
 35 81  1  0
 39 82  1  0
 41 83  1  0
 41 84  1  0
 41 85  1  0
 43 86  1  0
 43 87  1  0
 43 88  1  0
 44 89  1  0
 48 90  1  0
 49 91  1  0
 49 92  1  0
 49 93  1  0
 50 94  1  0
 50 95  1  0
 50 96  1  0
 55 97  1  0
M  CHG  2  17   1  58  -1
M  END
$$$$
