
     RDKit          3D

 51 55  0  0  0  0  0  0  0  0999 V2000
   -5.1219    2.7187    0.0192 C   0  0  0  0  0  0  0  0  0  0  0  0
   -4.2106    1.6135    0.0578 N   0  0  0  0  0  0  0  0  0  0  0  0
   -4.0304    1.0230   -1.2066 C   0  0  0  0  0  0  0  0  0  0  0  0
   -3.1822   -0.1890   -1.2790 C   0  0  0  0  0  0  0  0  0  0  0  0
   -3.2910   -0.8553   -2.4724 C   0  0  0  0  0  0  0  0  0  0  0  0
   -2.6017   -2.0339   -2.6894 C   0  0  0  0  0  0  0  0  0  0  0  0
   -2.7799   -2.8314   -4.2271 Cl  0  0  0  0  0  0  0  0  0  0  0  0
   -1.7790   -2.5671   -1.6851 C   0  0  0  0  0  0  0  0  0  0  0  0
   -1.6471   -1.9233   -0.4716 C   0  0  0  0  0  0  0  0  0  0  0  0
   -2.3511   -0.7654   -0.3283 C   0  0  0  0  0  0  0  0  0  0  0  0
   -2.1064   -0.1762    0.9547 N   0  0  0  0  0  0  0  0  0  0  0  0
   -3.0355    0.4921    1.7278 C   0  0  0  0  0  0  0  0  0  0  0  0
   -2.4304    0.8232    2.8271 N   0  0  0  0  0  0  0  0  0  0  0  0
   -1.1852    0.3991    2.7663 N   0  0  0  0  0  0  0  0  0  0  0  0
   -0.9382   -0.2471    1.5716 C   0  0  0  0  0  0  0  0  0  0  0  0
    0.3367   -0.7769    1.0853 C   0  0  0  0  0  0  0  0  0  0  0  0
    0.7786   -0.3545   -0.2747 C   0  0  0  0  0  0  0  0  0  0  0  0
    2.0540    0.4995   -0.2997 C   0  0  0  0  0  0  0  0  0  0  0  0
    3.1189   -0.0848    0.4579 N   0  0  0  0  0  0  0  0  0  0  0  0
    4.4467   -0.0275    0.0383 C   0  0  0  0  0  0  0  0  0  0  0  0
    4.8666    0.6591   -1.0797 C   0  0  0  0  0  0  0  0  0  0  0  0
    6.2112    0.6617   -1.4288 C   0  0  0  0  0  0  0  0  0  0  0  0
    7.1452   -0.0149   -0.6730 C   0  0  0  0  0  0  0  0  0  0  0  0
    6.6940   -0.6899    0.4363 C   0  0  0  0  0  0  0  0  0  0  0  0
    5.3890   -0.6819    0.7595 N   0  0  0  0  0  0  0  0  0  0  0  0
    2.7329   -0.7346    1.6951 C   0  0  0  0  0  0  0  0  0  0  0  0
    1.3822   -0.0861    2.0310 C   0  0  0  0  0  0  0  0  0  0  0  0
   -4.4214    0.7665    1.2061 C   0  0  0  0  0  0  0  0  0  0  0  0
   -5.9237    2.6168   -0.7343 H   0  0  0  0  0  0  0  0  0  0  0  0
   -4.5066    3.6409   -0.1670 H   0  0  0  0  0  0  0  0  0  0  0  0
   -5.6165    2.9070    1.0101 H   0  0  0  0  0  0  0  0  0  0  0  0
   -3.5215    1.7835   -1.8602 H   0  0  0  0  0  0  0  0  0  0  0  0
   -5.0103    0.8507   -1.7413 H   0  0  0  0  0  0  0  0  0  0  0  0
   -3.9209   -0.4611   -3.2580 H   0  0  0  0  0  0  0  0  0  0  0  0
   -1.2649   -3.4749   -1.8868 H   0  0  0  0  0  0  0  0  0  0  0  0
   -1.1004   -2.3424    0.2993 H   0  0  0  0  0  0  0  0  0  0  0  0
    0.6093   -1.8139    1.3540 H   0  0  0  0  0  0  0  0  0  0  0  0
    1.0506   -1.2193   -0.9508 H   0  0  0  0  0  0  0  0  0  0  0  0
    0.0457    0.3065   -0.8162 H   0  0  0  0  0  0  0  0  0  0  0  0
    2.3477    0.5240   -1.3843 H   0  0  0  0  0  0  0  0  0  0  0  0
    1.8271    1.5553   -0.0441 H   0  0  0  0  0  0  0  0  0  0  0  0
    4.2024    1.2055   -1.7090 H   0  0  0  0  0  0  0  0  0  0  0  0
    6.5363    1.2076   -2.3156 H   0  0  0  0  0  0  0  0  0  0  0  0
    8.1999   -0.0410   -0.9054 H   0  0  0  0  0  0  0  0  0  0  0  0
    7.4185   -1.2261    1.0395 H   0  0  0  0  0  0  0  0  0  0  0  0
    2.5857   -1.8248    1.5472 H   0  0  0  0  0  0  0  0  0  0  0  0
    3.3991   -0.5163    2.5468 H   0  0  0  0  0  0  0  0  0  0  0  0
    1.3930    0.9778    1.8443 H   0  0  0  0  0  0  0  0  0  0  0  0
    1.0762   -0.2899    3.0692 H   0  0  0  0  0  0  0  0  0  0  0  0
   -4.8513   -0.2090    0.8928 H   0  0  0  0  0  0  0  0  0  0  0  0
   -5.0193    1.2266    1.9894 H   0  0  0  0  0  0  0  0  0  0  0  0
  1  2  1  0
  2  3  1  0
  3  4  1  0
  4  5  2  0
  5  6  1  0
  6  7  1  0
  6  8  2  0
  8  9  1  0
  9 10  2  0
 10 11  1  0
 11 12  1  0
 12 13  2  0
 13 14  1  0
 14 15  2  0
 15 16  1  0
 16 17  1  0
 17 18  1  0
 18 19  1  0
 19 20  1  0
 20 21  2  0
 21 22  1  0
 22 23  2  0
 23 24  1  0
 24 25  2  0
 19 26  1  0
 26 27  1  0
 12 28  1  0
 28  2  1  0
 10  4  1  0
 15 11  1  0
 27 16  1  0
 25 20  1  0
  1 29  1  0
  1 30  1  0
  1 31  1  0
  3 32  1  0
  3 33  1  0
  5 34  1  0
  8 35  1  0
  9 36  1  0
 16 37  1  0
 17 38  1  0
 17 39  1  0
 18 40  1  0
 18 41  1  0
 21 42  1  0
 22 43  1  0
 23 44  1  0
 24 45  1  0
 26 46  1  0
 26 47  1  0
 27 48  1  0
 27 49  1  0
 28 50  1  0
 28 51  1  0
M  END
$$$$
