
     RDKit          3D

 37 40  0  0  0  0  0  0  0  0999 V2000
   -2.6876    4.2175   -0.4178 N   0  0  0  0  0  0  0  0  0  0  0  0
   -3.2656    2.9175   -0.4313 C   0  0  0  0  0  0  0  0  0  0  0  0
   -4.5125    2.7727   -0.5862 O   0  0  0  0  0  0  0  0  0  0  0  0
   -2.4042    1.7512   -0.2644 C   0  0  0  0  0  0  0  0  0  0  0  0
   -1.0687    1.7231   -0.0897 N   0  0  0  0  0  0  0  0  0  0  0  0
   -0.6424    0.4568    0.0255 N   0  0  0  0  0  0  0  0  0  0  0  0
   -1.7108   -0.3527   -0.0750 C   0  0  0  0  0  0  0  0  0  0  0  0
   -2.8238    0.4409   -0.2569 C   0  0  0  0  0  0  0  0  0  0  0  0
   -4.0269   -0.2118   -0.3822 C   0  0  0  0  0  0  0  0  0  0  0  0
   -4.1083   -1.5878   -0.3278 C   0  0  0  0  0  0  0  0  0  0  0  0
   -2.9726   -2.3826   -0.1428 C   0  0  0  0  0  0  0  0  0  0  0  0
   -1.7615   -1.7235   -0.0168 C   0  0  0  0  0  0  0  0  0  0  0  0
   -0.8119   -2.7005    0.1527 C   0  0  0  0  0  0  0  0  0  0  0  0
   -1.4397   -3.8962    0.1277 N   0  0  0  0  0  0  0  0  0  0  0  0
   -2.7449   -3.7083   -0.0506 N   0  0  0  0  0  0  0  0  0  0  0  0
    0.7432    0.1996    0.2175 C   0  0  0  0  0  0  0  0  0  0  0  0
    1.4568    0.3585   -0.9552 C   0  0  0  0  0  0  0  0  0  0  0  0
    2.8280    0.1619   -1.0184 C   0  0  0  0  0  0  0  0  0  0  0  0
    3.4933   -0.2092    0.1548 C   0  0  0  0  0  0  0  0  0  0  0  0
    2.7791   -0.3657    1.3178 C   0  0  0  0  0  0  0  0  0  0  0  0
    1.4167   -0.1695    1.3764 C   0  0  0  0  0  0  0  0  0  0  0  0
    5.2153   -0.4628    0.1054 S   0  0  0  0  0  0  0  0  0  0  0  0
    6.0417    0.9994    0.4434 N   0  0  0  0  0  0  0  0  0  0  0  0
    5.5736   -1.5278    1.0752 O   0  0  0  0  0  0  0  0  0  0  0  0
    5.5840   -0.9229   -1.2949 O   0  0  0  0  0  0  0  0  0  0  0  0
   -2.4926    4.8820    0.3651 H   0  0  0  0  0  0  0  0  0  0  0  0
   -2.4810    4.9028    0.3472 H   0  0  0  0  0  0  0  0  0  0  0  0
   -4.9233    0.3860   -0.5268 H   0  0  0  0  0  0  0  0  0  0  0  0
   -5.0432   -2.1123   -0.4244 H   0  0  0  0  0  0  0  0  0  0  0  0
    0.2547   -2.5925    0.2860 H   0  0  0  0  0  0  0  0  0  0  0  0
   -3.5351   -4.4049   -0.1203 H   0  0  0  0  0  0  0  0  0  0  0  0
    1.0431    0.6457   -1.9310 H   0  0  0  0  0  0  0  0  0  0  0  0
    3.4247    0.2742   -1.9091 H   0  0  0  0  0  0  0  0  0  0  0  0
    3.2453   -0.6484    2.2384 H   0  0  0  0  0  0  0  0  0  0  0  0
    0.7662   -0.2630    2.2212 H   0  0  0  0  0  0  0  0  0  0  0  0
    6.0291    1.6068   -0.4232 H   0  0  0  0  0  0  0  0  0  0  0  0
    5.5614    1.5459    1.1908 H   0  0  0  0  0  0  0  0  0  0  0  0
  1  2  1  0
  2  3  2  0
  2  4  1  0
  4  5  2  0
  5  6  1  0
  6  7  1  0
  7  8  2  0
  8  9  1  0
  9 10  2  0
 10 11  1  0
 11 12  2  0
 12 13  1  0
 13 14  2  0
 14 15  1  0
  6 16  1  0
 16 17  2  0
 17 18  1  0
 18 19  2  0
 19 20  1  0
 20 21  2  0
 19 22  1  0
 22 23  1  0
 22 24  2  0
 22 25  2  0
  8  4  1  0
 15 11  1  0
 21 16  1  0
 12  7  1  0
  1 26  1  0
  1 27  1  0
  9 28  1  0
 10 29  1  0
 13 30  1  0
 15 31  1  0
 17 32  1  0
 18 33  1  0
 20 34  1  0
 21 35  1  0
 23 36  1  0
 23 37  1  0
M  END
$$$$
