
     RDKit          3D

 25 26  0  0  0  0  0  0  0  0999 V2000
    3.8426    0.3825    1.4926 O   0  0  0  0  0  0  0  0  0  0  0  0
    3.5973    0.3756    0.2672 C   0  0  0  0  0  0  0  0  0  0  0  0
    4.5775    0.7527   -0.6264 O   0  0  0  0  0  0  0  0  0  0  0  0
    2.2307   -0.0480   -0.1763 C   0  0  0  0  0  0  0  0  0  0  0  0
    1.3840   -0.4265    1.0067 C   0  0  0  0  0  0  0  0  0  0  0  0
    0.0225   -0.8476    0.5852 C   0  0  0  0  0  0  0  0  0  0  0  0
   -0.4794   -2.1287    0.5042 C   0  0  0  0  0  0  0  0  0  0  0  0
   -1.7667   -2.0886    0.0714 N   0  0  0  0  0  0  0  0  0  0  0  0
   -2.0909   -0.7829   -0.1250 C   0  0  0  0  0  0  0  0  0  0  0  0
   -3.2589   -0.1632   -0.5562 C   0  0  0  0  0  0  0  0  0  0  0  0
   -3.3421    1.1885   -0.6741 C   0  0  0  0  0  0  0  0  0  0  0  0
   -2.2323    1.9448   -0.3542 C   0  0  0  0  0  0  0  0  0  0  0  0
   -1.0471    1.3833    0.0786 C   0  0  0  0  0  0  0  0  0  0  0  0
   -1.0035   -0.0103    0.1863 C   0  0  0  0  0  0  0  0  0  0  0  0
    5.2889    1.4145   -0.3459 H   0  0  0  0  0  0  0  0  0  0  0  0
    2.4019   -0.9150   -0.8647 H   0  0  0  0  0  0  0  0  0  0  0  0
    1.7535    0.7613   -0.7299 H   0  0  0  0  0  0  0  0  0  0  0  0
    1.3270    0.4644    1.6650 H   0  0  0  0  0  0  0  0  0  0  0  0
    1.8984   -1.2135    1.5771 H   0  0  0  0  0  0  0  0  0  0  0  0
    0.1085   -3.0130    0.7599 H   0  0  0  0  0  0  0  0  0  0  0  0
   -2.3670   -2.9060   -0.0745 H   0  0  0  0  0  0  0  0  0  0  0  0
   -4.1064   -0.7990   -0.7968 H   0  0  0  0  0  0  0  0  0  0  0  0
   -4.2534    1.6929   -1.0114 H   0  0  0  0  0  0  0  0  0  0  0  0
   -2.2940    3.0053   -0.4455 H   0  0  0  0  0  0  0  0  0  0  0  0
   -0.1911    1.9764    0.3245 H   0  0  0  0  0  0  0  0  0  0  0  0
  1  2  2  0
  2  3  1  0
  2  4  1  0
  4  5  1  0
  5  6  1  0
  6  7  2  0
  7  8  1  0
  8  9  1  0
  9 10  2  0
 10 11  1  0
 11 12  2  0
 12 13  1  0
 13 14  2  0
 14  6  1  0
 14  9  1  0
  3 15  1  0
  4 16  1  0
  4 17  1  0
  5 18  1  0
  5 19  1  0
  7 20  1  0
  8 21  1  0
 10 22  1  0
 11 23  1  0
 12 24  1  0
 13 25  1  0
M  END
$$$$
