
     RDKit          3D

 60 63  0  0  0  0  0  0  0  0999 V2000
   10.9234    1.7571    0.4517 Cl  0  0  0  0  0  0  0  0  0  0  0  0
    9.2952    1.1933    0.1039 C   0  0  0  0  0  0  0  0  0  0  0  0
    8.2656    2.0565   -0.1469 C   0  0  0  0  0  0  0  0  0  0  0  0
    7.0164    1.5127   -0.4110 C   0  0  0  0  0  0  0  0  0  0  0  0
    6.7674    0.1626   -0.4323 C   0  0  0  0  0  0  0  0  0  0  0  0
    5.4692   -0.4311   -0.7061 C   0  0  0  0  0  0  0  0  0  0  0  0
    4.3800    0.2548   -0.9655 C   0  0  0  0  0  0  0  0  0  0  0  0
    2.8521   -0.5789   -1.2843 S   0  0  0  0  0  0  0  0  0  0  0  0
    1.8271    0.4152   -1.6917 O   0  0  0  0  0  0  0  0  0  0  0  0
    3.0297   -1.5380   -2.4075 O   0  0  0  0  0  0  0  0  0  0  0  0
    2.4019   -1.3548    0.1801 N   0  0  0  0  0  0  0  0  0  0  0  0
    2.1855   -0.4579    1.2589 C   0  0  0  0  0  0  0  0  0  0  0  0
    0.9089    0.2892    1.2419 C   0  0  0  0  0  0  0  0  0  0  0  0
   -0.2297   -0.4410    0.7446 N   0  0  0  0  0  0  0  0  0  0  0  0
   -1.1105    0.5452    0.1476 C   0  0  0  0  0  0  0  0  0  0  0  0
   -2.3253   -0.1505   -0.3958 C   0  0  0  0  0  0  0  0  0  0  0  0
   -3.0271   -0.8525    0.7272 C   0  0  0  0  0  0  0  0  0  0  0  0
   -4.1528   -0.0488    1.3423 C   0  0  0  0  0  0  0  0  0  0  0  0
   -5.0449    0.5271    0.3927 N   0  0  0  0  0  0  0  0  0  0  0  0
   -4.2496    1.4801   -0.3052 C   0  0  0  0  0  0  0  0  0  0  0  0
   -3.2277    0.7779   -1.1654 C   0  0  0  0  0  0  0  0  0  0  0  0
   -6.4125    0.2197    0.1891 C   0  0  0  0  0  0  0  0  0  0  0  0
   -7.0854   -0.7123    0.9142 C   0  0  0  0  0  0  0  0  0  0  0  0
   -8.4134   -1.0196    0.7250 C   0  0  0  0  0  0  0  0  0  0  0  0
   -9.1000   -0.3648   -0.2333 N   0  0  0  0  0  0  0  0  0  0  0  0
   -8.4915    0.5808   -0.9976 C   0  0  0  0  0  0  0  0  0  0  0  0
   -7.1603    0.8521   -0.7692 C   0  0  0  0  0  0  0  0  0  0  0  0
    0.0468   -1.4577   -0.2080 C   0  0  0  0  0  0  0  0  0  0  0  0
    1.3036   -2.2564    0.0534 C   0  0  0  0  0  0  0  0  0  0  0  0
    7.8561   -0.6387   -0.1699 C   0  0  0  0  0  0  0  0  0  0  0  0
    9.1227   -0.1622    0.0997 C   0  0  0  0  0  0  0  0  0  0  0  0
    8.4314    3.1174   -0.1368 H   0  0  0  0  0  0  0  0  0  0  0  0
    6.2083    2.2029   -0.6081 H   0  0  0  0  0  0  0  0  0  0  0  0
    5.3633   -1.4999   -0.7029 H   0  0  0  0  0  0  0  0  0  0  0  0
    4.4148    1.3261   -0.9846 H   0  0  0  0  0  0  0  0  0  0  0  0
    3.0324    0.2800    1.2628 H   0  0  0  0  0  0  0  0  0  0  0  0
    2.2984   -1.0495    2.2100 H   0  0  0  0  0  0  0  0  0  0  0  0
    1.0521    1.2634    0.6899 H   0  0  0  0  0  0  0  0  0  0  0  0
    0.6631    0.6056    2.2808 H   0  0  0  0  0  0  0  0  0  0  0  0
   -1.4116    1.3079    0.9226 H   0  0  0  0  0  0  0  0  0  0  0  0
   -0.6128    1.1237   -0.6413 H   0  0  0  0  0  0  0  0  0  0  0  0
   -1.9849   -0.9159   -1.1233 H   0  0  0  0  0  0  0  0  0  0  0  0
   -2.2965   -1.0334    1.5428 H   0  0  0  0  0  0  0  0  0  0  0  0
   -3.3641   -1.8597    0.4100 H   0  0  0  0  0  0  0  0  0  0  0  0
   -4.7120   -0.7524    1.9870 H   0  0  0  0  0  0  0  0  0  0  0  0
   -3.7328    0.7114    2.0618 H   0  0  0  0  0  0  0  0  0  0  0  0
   -4.8715    2.0805   -0.9982 H   0  0  0  0  0  0  0  0  0  0  0  0
   -3.7560    2.2466    0.3489 H   0  0  0  0  0  0  0  0  0  0  0  0
   -2.5834    1.5341   -1.6594 H   0  0  0  0  0  0  0  0  0  0  0  0
   -3.8010    0.1666   -1.8948 H   0  0  0  0  0  0  0  0  0  0  0  0
   -6.6264   -1.2853    1.6977 H   0  0  0  0  0  0  0  0  0  0  0  0
   -8.9453   -1.7606    1.3027 H   0  0  0  0  0  0  0  0  0  0  0  0
   -9.0941    1.0604   -1.7383 H   0  0  0  0  0  0  0  0  0  0  0  0
   -6.7792    1.6098   -1.4234 H   0  0  0  0  0  0  0  0  0  0  0  0
   -0.7840   -2.2200   -0.1253 H   0  0  0  0  0  0  0  0  0  0  0  0
    0.0393   -1.1154   -1.2604 H   0  0  0  0  0  0  0  0  0  0  0  0
    1.1932   -2.8237    0.9781 H   0  0  0  0  0  0  0  0  0  0  0  0
    1.4385   -2.9387   -0.7942 H   0  0  0  0  0  0  0  0  0  0  0  0
    7.6876   -1.7248   -0.1801 H   0  0  0  0  0  0  0  0  0  0  0  0
    9.9125   -0.8710    0.2933 H   0  0  0  0  0  0  0  0  0  0  0  0
  1  2  1  0
  2  3  2  0
  3  4  1  0
  4  5  2  0
  5  6  1  0
  6  7  2  0
  7  8  1  0
  8  9  2  0
  8 10  2  0
  8 11  1  0
 11 12  1  0
 12 13  1  0
 13 14  1  0
 14 15  1  0
 15 16  1  0
 16 17  1  0
 17 18  1  0
 18 19  1  0
 19 20  1  0
 20 21  1  0
 19 22  1  0
 22 23  2  0
 23 24  1  0
 24 25  2  0
 25 26  1  0
 26 27  2  0
 14 28  1  0
 28 29  1  0
  5 30  1  0
 30 31  2  0
 31  2  1  0
 29 11  1  0
 21 16  1  0
 27 22  1  0
  3 32  1  0
  4 33  1  0
  6 34  1  0
  7 35  1  0
 12 36  1  0
 12 37  1  0
 13 38  1  0
 13 39  1  0
 15 40  1  0
 15 41  1  0
 16 42  1  0
 17 43  1  0
 17 44  1  0
 18 45  1  0
 18 46  1  0
 20 47  1  0
 20 48  1  0
 21 49  1  0
 21 50  1  0
 23 51  1  0
 24 52  1  0
 26 53  1  0
 27 54  1  0
 28 55  1  0
 28 56  1  0
 29 57  1  0
 29 58  1  0
 30 59  1  0
 31 60  1  0
M  END
$$$$
