
     RDKit          3D

 51 56  0  0  0  0  0  0  0  0999 V2000
    3.9452    2.2791   -0.2107 C   0  0  0  0  0  0  0  0  0  0  0  0
    3.5186    0.8796   -0.2473 C   0  0  0  0  0  0  0  0  0  0  0  0
    4.2335   -0.1626   -0.6309 N   0  0  0  0  0  0  0  0  0  0  0  0
    3.5360   -1.2830   -0.5374 N   0  0  0  0  0  0  0  0  0  0  0  0
    3.9563   -2.6153   -0.8573 C   0  0  0  0  0  0  0  0  0  0  0  0
    3.1898   -3.5001   -1.7443 C   0  0  0  0  0  0  0  0  0  0  0  0
    4.3925   -2.7790   -2.3229 C   0  0  0  0  0  0  0  0  0  0  0  0
    2.2983   -0.9500   -0.0666 C   0  0  0  0  0  0  0  0  0  0  0  0
    2.2596    0.4029    0.1244 C   0  0  0  0  0  0  0  0  0  0  0  0
    0.9483    0.7787    0.6262 C   0  0  0  0  0  0  0  0  0  0  0  0
    0.2912    1.8435   -0.1599 C   0  0  0  0  0  0  0  0  0  0  0  0
    0.2838    3.1414    0.3080 C   0  0  0  0  0  0  0  0  0  0  0  0
   -0.3060    4.1891   -0.3635 C   0  0  0  0  0  0  0  0  0  0  0  0
   -0.9247    3.9133   -1.5778 C   0  0  0  0  0  0  0  0  0  0  0  0
   -1.6693    5.2323   -2.4270 Cl  0  0  0  0  0  0  0  0  0  0  0  0
   -0.9292    2.6091   -2.0695 C   0  0  0  0  0  0  0  0  0  0  0  0
   -0.3202    1.6051   -1.3472 C   0  0  0  0  0  0  0  0  0  0  0  0
    0.1917   -0.4184    0.7300 N   0  0  0  0  0  0  0  0  0  0  0  0
   -1.1563   -0.6165    1.1691 C   0  0  0  0  0  0  0  0  0  0  0  0
   -1.5142   -0.8614    2.4615 C   0  0  0  0  0  0  0  0  0  0  0  0
   -2.8394   -1.0426    2.8102 C   0  0  0  0  0  0  0  0  0  0  0  0
   -3.3046   -1.3107    4.1827 C   0  0  0  0  0  0  0  0  0  0  0  0
   -3.7602   -0.9616    1.7880 C   0  0  0  0  0  0  0  0  0  0  0  0
   -5.0969   -1.0896    1.8050 N   0  0  0  0  0  0  0  0  0  0  0  0
   -5.5837   -0.9370    0.5934 N   0  0  0  0  0  0  0  0  0  0  0  0
   -4.5378   -0.7063   -0.2181 C   0  0  0  0  0  0  0  0  0  0  0  0
   -4.5142   -0.4643   -1.6840 C   0  0  0  0  0  0  0  0  0  0  0  0
   -3.7229   -1.3880   -2.3272 F   0  0  0  0  0  0  0  0  0  0  0  0
   -4.0529    0.8226   -1.9346 F   0  0  0  0  0  0  0  0  0  0  0  0
   -3.4043   -0.7225    0.5303 N   0  0  0  0  0  0  0  0  0  0  0  0
   -2.1127   -0.5519    0.2271 N   0  0  0  0  0  0  0  0  0  0  0  0
    1.0093   -1.4967    0.3063 C   0  0  0  0  0  0  0  0  0  0  0  0
    0.7287   -2.7239    0.2419 O   0  0  0  0  0  0  0  0  0  0  0  0
    4.7963    2.4108   -0.8937 H   0  0  0  0  0  0  0  0  0  0  0  0
    4.1954    2.6496    0.8036 H   0  0  0  0  0  0  0  0  0  0  0  0
    3.1059    2.8880   -0.6593 H   0  0  0  0  0  0  0  0  0  0  0  0
    4.6565   -3.0893   -0.1271 H   0  0  0  0  0  0  0  0  0  0  0  0
    3.3330   -4.5920   -1.6129 H   0  0  0  0  0  0  0  0  0  0  0  0
    2.2047   -3.2288   -2.1504 H   0  0  0  0  0  0  0  0  0  0  0  0
    5.3064   -3.3415   -2.5370 H   0  0  0  0  0  0  0  0  0  0  0  0
    4.1999   -1.9490   -3.0190 H   0  0  0  0  0  0  0  0  0  0  0  0
    1.0650    1.1635    1.6824 H   0  0  0  0  0  0  0  0  0  0  0  0
    0.7639    3.3592    1.2516 H   0  0  0  0  0  0  0  0  0  0  0  0
   -0.2923    5.2116    0.0401 H   0  0  0  0  0  0  0  0  0  0  0  0
   -1.4163    2.4176   -3.0159 H   0  0  0  0  0  0  0  0  0  0  0  0
   -0.3462    0.6099   -1.7630 H   0  0  0  0  0  0  0  0  0  0  0  0
   -0.7588   -0.9149    3.2208 H   0  0  0  0  0  0  0  0  0  0  0  0
   -4.0060   -2.1683    4.1602 H   0  0  0  0  0  0  0  0  0  0  0  0
   -2.4630   -1.6274    4.8482 H   0  0  0  0  0  0  0  0  0  0  0  0
   -3.8024   -0.4084    4.6302 H   0  0  0  0  0  0  0  0  0  0  0  0
   -5.5754   -0.5061   -2.0368 H   0  0  0  0  0  0  0  0  0  0  0  0
  1  2  1  0
  2  3  2  0
  3  4  1  0
  4  5  1  0
  5  6  1  0
  6  7  1  0
  4  8  1  0
  8  9  2  0
  9 10  1  0
 10 11  1  0
 11 12  2  0
 12 13  1  0
 13 14  2  0
 14 15  1  0
 14 16  1  0
 16 17  2  0
 10 18  1  0
 18 19  1  0
 19 20  1  0
 20 21  2  0
 21 22  1  0
 21 23  1  0
 23 24  2  0
 24 25  1  0
 25 26  2  0
 26 27  1  0
 27 28  1  0
 27 29  1  0
 26 30  1  0
 30 31  1  0
 18 32  1  0
 32 33  2  0
  9  2  1  0
 17 11  1  0
 31 19  2  0
  7  5  1  0
 32  8  1  0
 30 23  1  0
  1 34  1  0
  1 35  1  0
  1 36  1  0
  5 37  1  0
  6 38  1  0
  6 39  1  0
  7 40  1  0
  7 41  1  0
 10 42  1  0
 12 43  1  0
 13 44  1  0
 16 45  1  0
 17 46  1  0
 20 47  1  0
 22 48  1  0
 22 49  1  0
 22 50  1  0
 27 51  1  0
M  END
$$$$
