
     RDKit          3D

 48 50  0  0  0  0  0  0  0  0999 V2000
    5.9620    0.5233    1.4520 C   0  0  0  0  0  0  0  0  0  0  0  0
    4.5300    0.9699    1.4096 C   0  0  0  0  0  0  0  0  0  0  0  0
    3.9023    0.4307    0.1442 C   0  0  0  0  0  0  0  0  0  0  0  0
    4.6178   -0.3055   -0.5573 O   0  0  0  0  0  0  0  0  0  0  0  0
    2.5897    0.7614   -0.1828 N   0  0  0  0  0  0  0  0  0  0  0  0
    1.7404    1.6180    0.6085 C   0  0  0  0  0  0  0  0  0  0  0  0
    0.7810    2.1722   -0.4780 C   0  0  0  0  0  0  0  0  0  0  0  0
    0.5275    0.9400   -1.2920 C   0  0  2  0  0  0  0  0  0  0  0  0
   -0.5742    0.1139   -0.8192 N   0  0  0  0  0  0  0  0  0  0  0  0
   -0.5814   -1.2494   -1.2438 C   0  0  0  0  0  0  0  0  0  0  0  0
   -1.2547   -2.2826   -0.4709 C   0  0  0  0  0  0  0  0  0  0  0  0
   -2.5224   -2.8028   -0.7558 C   0  0  0  0  0  0  0  0  0  0  0  0
   -3.1283   -3.7884   -0.0413 C   0  0  0  0  0  0  0  0  0  0  0  0
   -4.7148   -4.4299   -0.4081 Cl  0  0  0  0  0  0  0  0  0  0  0  0
   -2.4618   -4.3466    1.0682 C   0  0  0  0  0  0  0  0  0  0  0  0
   -1.2184   -3.8286    1.3402 C   0  0  0  0  0  0  0  0  0  0  0  0
   -0.5983   -2.8422    0.6348 C   0  0  0  0  0  0  0  0  0  0  0  0
    1.0020   -2.2978    1.1129 Cl  0  0  0  0  0  0  0  0  0  0  0  0
   -1.6680    0.7827   -0.2042 C   0  0  0  0  0  0  0  0  0  0  0  0
   -2.4388    0.1653    0.7164 C   0  0  0  0  0  0  0  0  0  0  0  0
   -3.6258    0.7958    1.1799 C   0  0  0  0  0  0  0  0  0  0  0  0
   -3.9641    2.0207    0.6862 C   0  0  0  0  0  0  0  0  0  0  0  0
   -5.2241    2.6436    1.1928 C   0  0  0  0  0  0  0  0  0  0  0  0
   -6.1166    3.1008    1.5667 N   0  0  0  0  0  0  0  0  0  0  0  0
   -3.2052    2.6558   -0.2368 C   0  0  0  0  0  0  0  0  0  0  0  0
   -3.7135    4.2220   -0.8272 Cl  0  0  0  0  0  0  0  0  0  0  0  0
   -2.0303    2.0166   -0.6899 C   0  0  0  0  0  0  0  0  0  0  0  0
    1.8572    0.3037   -1.3745 C   0  0  0  0  0  0  0  0  0  0  0  0
    6.0868   -0.5192    1.0442 H   0  0  0  0  0  0  0  0  0  0  0  0
    6.4112    0.5231    2.4576 H   0  0  0  0  0  0  0  0  0  0  0  0
    6.5702    1.2341    0.8235 H   0  0  0  0  0  0  0  0  0  0  0  0
    4.4832    2.0822    1.2785 H   0  0  0  0  0  0  0  0  0  0  0  0
    3.9129    0.6168    2.2369 H   0  0  0  0  0  0  0  0  0  0  0  0
    1.1571    1.0617    1.3584 H   0  0  0  0  0  0  0  0  0  0  0  0
    2.2994    2.4774    1.0463 H   0  0  0  0  0  0  0  0  0  0  0  0
   -0.0011    2.6293    0.0847 H   0  0  0  0  0  0  0  0  0  0  0  0
    1.3587    2.9237   -1.0816 H   0  0  0  0  0  0  0  0  0  0  0  0
    0.2910    1.3322   -2.3321 H   0  0  0  0  0  0  0  0  0  0  0  0
    0.4016   -1.5625   -1.6199 H   0  0  0  0  0  0  0  0  0  0  0  0
   -1.1631   -1.1590   -2.2770 H   0  0  0  0  0  0  0  0  0  0  0  0
   -3.0481   -2.3822   -1.6121 H   0  0  0  0  0  0  0  0  0  0  0  0
   -2.9522   -5.1286    1.6296 H   0  0  0  0  0  0  0  0  0  0  0  0
   -0.7024   -4.2717    2.2079 H   0  0  0  0  0  0  0  0  0  0  0  0
   -2.2334   -0.7927    1.1875 H   0  0  0  0  0  0  0  0  0  0  0  0
   -4.2241    0.2720    1.9258 H   0  0  0  0  0  0  0  0  0  0  0  0
   -1.5176    2.5844   -1.4577 H   0  0  0  0  0  0  0  0  0  0  0  0
    2.4415    0.7792   -2.2362 H   0  0  0  0  0  0  0  0  0  0  0  0
    1.9595   -0.7628   -1.4824 H   0  0  0  0  0  0  0  0  0  0  0  0
  1  2  1  0
  2  3  1  0
  3  4  2  0
  3  5  1  0
  5  6  1  0
  6  7  1  0
  7  8  1  0
  8  9  1  0
  9 10  1  0
 10 11  1  0
 11 12  2  0
 12 13  1  0
 13 14  1  0
 13 15  2  0
 15 16  1  0
 16 17  2  0
 17 18  1  0
  9 19  1  0
 19 20  2  0
 20 21  1  0
 21 22  2  0
 22 23  1  0
 23 24  3  0
 22 25  1  0
 25 26  1  0
 25 27  2  0
  8 28  1  0
 28  5  1  0
 17 11  1  0
 27 19  1  0
  1 29  1  0
  1 30  1  0
  1 31  1  0
  2 32  1  0
  2 33  1  0
  6 34  1  0
  6 35  1  0
  7 36  1  0
  7 37  1  0
  8 38  1  6
 10 39  1  0
 10 40  1  0
 12 41  1  0
 15 42  1  0
 16 43  1  0
 20 44  1  0
 21 45  1  0
 27 46  1  0
 28 47  1  0
 28 48  1  0
M  END
$$$$
