
     RDKit          3D

 87 91  0  0  0  0  0  0  0  0999 V2000
   -4.6543   -3.9566   -0.3969 C   0  0  0  0  0  0  0  0  0  0  0  0
   -3.4515   -2.9701   -0.4453 C   0  0  0  0  0  0  0  0  0  0  0  0
   -2.4594   -3.5763    0.5064 C   0  0  0  0  0  0  0  0  0  0  0  0
   -2.9944   -2.9404   -1.8685 C   0  0  0  0  0  0  0  0  0  0  0  0
   -4.1496   -1.4337    0.1106 S   0  0  0  0  0  6  0  0  0  0  0  0
   -4.8833   -1.6538    1.3473 O   0  0  0  0  0  0  0  0  0  0  0  0
   -5.2584   -1.1348   -0.9526 O   0  0  0  0  0  0  0  0  0  0  0  0
   -3.0467   -0.0715    0.1069 C   0  0  0  0  0  0  0  0  0  0  0  0
   -1.8561   -0.2112    0.9139 C   0  0  2  0  0  0  0  0  0  0  0  0
   -1.9015   -0.2902    2.3977 C   0  0  0  0  0  0  0  0  0  0  0  0
   -2.4493    0.9188    3.1593 C   0  0  0  0  0  0  0  0  0  0  0  0
   -2.9823   -0.5224    3.3189 C   0  0  0  0  0  0  0  0  0  0  0  0
   -0.6922    0.5520    0.4748 N   0  0  0  0  0  0  0  0  0  0  0  0
    0.3973   -0.2254   -0.1118 C   0  0  0  0  0  0  0  0  0  0  0  0
    0.1898   -1.2843   -0.7477 O   0  0  0  0  0  0  0  0  0  0  0  0
    1.8083    0.2988    0.0755 C   0  0  1  0  0  0  0  0  0  0  0  0
    2.2018    0.2953    1.5280 C   0  0  0  0  0  0  0  0  0  0  0  0
    2.7207   -0.5768   -0.7295 C   0  0  0  0  0  0  0  0  0  0  0  0
    2.7334   -1.9892   -0.3374 C   0  0  0  0  0  0  0  0  0  0  0  0
    2.0546   -2.3817    0.6461 O   0  0  0  0  0  0  0  0  0  0  0  0
    3.5053   -2.9437   -1.0506 N   0  0  0  0  0  0  0  0  0  0  0  0
    4.3281   -2.6365   -2.1914 C   0  0  0  0  0  0  0  0  0  0  0  0
    5.3027   -3.7766   -2.3078 C   0  0  0  0  0  0  0  0  0  0  0  0
    5.0188   -4.7362   -1.1901 C   0  0  1  0  0  0  0  0  0  0  0  0
    5.9867   -4.4613   -0.0793 C   0  0  0  0  0  0  0  0  0  0  0  0
    5.6171   -4.1274    1.0698 O   0  0  0  0  0  0  0  0  0  0  0  0
    7.3460   -4.5781   -0.3214 O   0  0  0  0  0  0  0  0  0  0  0  0
    3.6087   -4.3693   -0.7722 C   0  0  0  0  0  0  0  0  0  0  0  0
    1.8780    1.7047   -0.4933 C   0  0  0  0  0  0  0  0  0  0  0  0
    0.4826    2.2436   -0.7131 C   0  0  2  0  0  0  0  0  0  0  0  0
    0.5303    3.7091   -0.9162 C   0  0  0  0  0  0  0  0  0  0  0  0
    0.0059    4.2517   -2.0618 C   0  0  0  0  0  0  0  0  0  0  0  0
    0.0308    5.6079   -2.2885 C   0  0  0  0  0  0  0  0  0  0  0  0
    0.5935    6.4352   -1.3459 C   0  0  0  0  0  0  0  0  0  0  0  0
    1.1267    5.9134   -0.1873 C   0  0  0  0  0  0  0  0  0  0  0  0
    1.8325    7.0063    0.9844 Cl  0  0  0  0  0  0  0  0  0  0  0  0
    1.0898    4.5546    0.0164 C   0  0  0  0  0  0  0  0  0  0  0  0
   -0.3975    1.9198    0.5390 C   0  0  1  0  0  0  0  0  0  0  0  0
   -1.3803    2.9449    0.7170 C   0  0  0  0  0  0  0  0  0  0  0  0
   -2.4054    3.1448   -0.1681 C   0  0  0  0  0  0  0  0  0  0  0  0
   -3.3629    4.1467    0.0085 C   0  0  0  0  0  0  0  0  0  0  0  0
   -3.2961    4.9783    1.1051 C   0  0  0  0  0  0  0  0  0  0  0  0
   -4.4671    6.2572    1.3873 Cl  0  0  0  0  0  0  0  0  0  0  0  0
   -2.2793    4.7984    2.0051 C   0  0  0  0  0  0  0  0  0  0  0  0
   -1.3577    3.8171    1.8145 C   0  0  0  0  0  0  0  0  0  0  0  0
   -4.7948   -4.1836    0.6689 H   0  0  0  0  0  0  0  0  0  0  0  0
   -5.5417   -3.4713   -0.8245 H   0  0  0  0  0  0  0  0  0  0  0  0
   -4.3540   -4.8905   -0.9121 H   0  0  0  0  0  0  0  0  0  0  0  0
   -2.5631   -3.2030    1.5334 H   0  0  0  0  0  0  0  0  0  0  0  0
   -2.6549   -4.6980    0.6200 H   0  0  0  0  0  0  0  0  0  0  0  0
   -1.4066   -3.5710    0.1151 H   0  0  0  0  0  0  0  0  0  0  0  0
   -3.6491   -2.2494   -2.4343 H   0  0  0  0  0  0  0  0  0  0  0  0
   -1.9193   -2.7067   -1.9863 H   0  0  0  0  0  0  0  0  0  0  0  0
   -3.1645   -3.9572   -2.3100 H   0  0  0  0  0  0  0  0  0  0  0  0
   -2.7630    0.2048   -0.9521 H   0  0  0  0  0  0  0  0  0  0  0  0
   -3.7275    0.7939    0.4630 H   0  0  0  0  0  0  0  0  0  0  0  0
   -1.5305   -1.3198    0.6356 H   0  0  0  0  0  0  0  0  0  0  0  0
   -0.8569   -0.5395    2.8751 H   0  0  0  0  0  0  0  0  0  0  0  0
   -3.0712    1.6231    2.5971 H   0  0  0  0  0  0  0  0  0  0  0  0
   -1.9558    1.2937    4.0520 H   0  0  0  0  0  0  0  0  0  0  0  0
   -4.0592   -0.4979    3.2489 H   0  0  0  0  0  0  0  0  0  0  0  0
   -2.7011   -1.0400    4.3069 H   0  0  0  0  0  0  0  0  0  0  0  0
    1.3801    0.0102    2.2012 H   0  0  0  0  0  0  0  0  0  0  0  0
    3.0356   -0.4304    1.7307 H   0  0  0  0  0  0  0  0  0  0  0  0
    2.6409    1.2948    1.8077 H   0  0  0  0  0  0  0  0  0  0  0  0
    3.7774   -0.1749   -0.7335 H   0  0  0  0  0  0  0  0  0  0  0  0
    2.4387   -0.5675   -1.8245 H   0  0  0  0  0  0  0  0  0  0  0  0
    3.7133   -2.5117   -3.1239 H   0  0  0  0  0  0  0  0  0  0  0  0
    4.9059   -1.7155   -1.9876 H   0  0  0  0  0  0  0  0  0  0  0  0
    5.2340   -4.2842   -3.3037 H   0  0  0  0  0  0  0  0  0  0  0  0
    6.3642   -3.4153   -2.2441 H   0  0  0  0  0  0  0  0  0  0  0  0
    5.1089   -5.7572   -1.5773 H   0  0  0  0  0  0  0  0  0  0  0  0
    8.0566   -4.2851    0.3371 H   0  0  0  0  0  0  0  0  0  0  0  0
    3.5065   -4.5874    0.3064 H   0  0  0  0  0  0  0  0  0  0  0  0
    2.9198   -4.9691   -1.3967 H   0  0  0  0  0  0  0  0  0  0  0  0
    2.4231    1.7702   -1.4493 H   0  0  0  0  0  0  0  0  0  0  0  0
    2.3800    2.3470    0.2480 H   0  0  0  0  0  0  0  0  0  0  0  0
   -0.0052    1.7601   -1.5767 H   0  0  0  0  0  0  0  0  0  0  0  0
   -0.4487    3.6320   -2.8335 H   0  0  0  0  0  0  0  0  0  0  0  0
   -0.3895    6.0380   -3.2053 H   0  0  0  0  0  0  0  0  0  0  0  0
    0.6126    7.4980   -1.5246 H   0  0  0  0  0  0  0  0  0  0  0  0
    1.4938    4.1180    0.9030 H   0  0  0  0  0  0  0  0  0  0  0  0
    0.3745    2.0413    1.3701 H   0  0  0  0  0  0  0  0  0  0  0  0
   -2.5386    2.5474   -1.0629 H   0  0  0  0  0  0  0  0  0  0  0  0
   -4.1631    4.2870   -0.7018 H   0  0  0  0  0  0  0  0  0  0  0  0
   -2.2239    5.4457    2.8625 H   0  0  0  0  0  0  0  0  0  0  0  0
   -0.5478    3.6697    2.5262 H   0  0  0  0  0  0  0  0  0  0  0  0
  1  2  1  0
  2  3  1  0
  2  4  1  0
  2  5  1  0
  5  6  2  0
  5  7  2  0
  5  8  1  0
  8  9  1  0
  9 10  1  0
 10 11  1  0
 11 12  1  0
  9 13  1  0
 13 14  1  0
 14 15  2  0
 14 16  1  0
 16 17  1  1
 16 18  1  0
 18 19  1  0
 19 20  2  0
 19 21  1  0
 21 22  1  0
 22 23  1  0
 23 24  1  0
 24 25  1  0
 25 26  2  0
 25 27  1  0
 24 28  1  0
 16 29  1  0
 29 30  1  0
 30 31  1  0
 31 32  2  0
 32 33  1  0
 33 34  2  0
 34 35  1  0
 35 36  1  0
 35 37  2  0
 30 38  1  0
 38 39  1  0
 39 40  2  0
 40 41  1  0
 41 42  2  0
 42 43  1  0
 42 44  1  0
 44 45  2  0
 12 10  1  0
 38 13  1  0
 45 39  1  0
 28 21  1  0
 37 31  1  0
  1 46  1  0
  1 47  1  0
  1 48  1  0
  3 49  1  0
  3 50  1  0
  3 51  1  0
  4 52  1  0
  4 53  1  0
  4 54  1  0
  8 55  1  0
  8 56  1  0
  9 57  1  6
 10 58  1  0
 11 59  1  0
 11 60  1  0
 12 61  1  0
 12 62  1  0
 17 63  1  0
 17 64  1  0
 17 65  1  0
 18 66  1  0
 18 67  1  0
 22 68  1  0
 22 69  1  0
 23 70  1  0
 23 71  1  0
 24 72  1  6
 27 73  1  0
 28 74  1  0
 28 75  1  0
 29 76  1  0
 29 77  1  0
 30 78  1  6
 32 79  1  0
 33 80  1  0
 34 81  1  0
 37 82  1  0
 38 83  1  1
 40 84  1  0
 41 85  1  0
 44 86  1  0
 45 87  1  0
M  END
$$$$
