
     RDKit          3D

 63 64  0  0  0  0  0  0  0  0999 V2000
   11.9504    0.3533    1.1078 C   0  0  0  0  0  0  0  0  0  0  0  0
   10.5534    0.1501    0.7259 C   0  0  0  0  0  0  0  0  0  0  0  0
    9.3931   -0.0060    0.4156 C   0  0  0  0  0  0  0  0  0  0  0  0
    7.9995   -0.2003    0.0172 C   0  0  0  0  0  0  0  0  0  0  0  0
    7.1840    0.9139    0.3780 N   0  0  0  0  0  0  0  0  0  0  0  0
    5.7887    0.8832    0.0586 C   0  0  0  0  0  0  0  0  0  0  0  0
    4.9519    1.9489    0.3914 C   0  0  0  0  0  0  0  0  0  0  0  0
    3.6025    1.9310    0.0881 C   0  0  0  0  0  0  0  0  0  0  0  0
    3.0766    0.8317   -0.5583 C   0  0  0  0  0  0  0  0  0  0  0  0
    3.8853   -0.2546   -0.9072 C   0  0  0  0  0  0  0  0  0  0  0  0
    5.2260   -0.1902   -0.5834 C   0  0  0  0  0  0  0  0  0  0  0  0
    1.3949    0.6248   -1.0255 S   0  0  0  0  0  0  0  0  0  0  0  0
    0.7500    1.9754   -1.2728 O   0  0  0  0  0  0  0  0  0  0  0  0
    1.2670   -0.1680   -2.2785 O   0  0  0  0  0  0  0  0  0  0  0  0
    0.5121   -0.1509    0.2786 C   0  0  0  0  0  0  0  0  0  0  0  0
   -0.9542   -0.3755   -0.0268 C   0  0  0  0  0  0  0  0  0  0  0  0
   -1.5906    0.9446   -0.2856 C   0  0  0  0  0  0  0  0  0  0  0  0
   -3.0574    1.0131   -0.0152 C   0  0  0  0  0  0  0  0  0  0  0  0
   -3.6511   -0.2528    0.3736 N   0  0  0  0  0  0  0  0  0  0  0  0
   -2.9738   -1.4540    0.8216 C   0  0  0  0  0  0  0  0  0  0  0  0
   -1.5578   -1.1059    1.1504 C   0  0  0  0  0  0  0  0  0  0  0  0
   -5.0687   -0.3276    0.3082 C   0  0  0  0  0  0  0  0  0  0  0  0
   -5.7440   -1.3417    0.6069 O   0  0  0  0  0  0  0  0  0  0  0  0
   -5.9740    0.6247   -0.0706 O   0  0  0  0  0  0  0  0  0  0  0  0
   -7.3546    0.4118   -0.0871 C   0  0  0  0  0  0  0  0  0  0  0  0
   -7.7741   -0.7101   -1.0047 C   0  0  0  0  0  0  0  0  0  0  0  0
   -8.0004    1.6753   -0.6389 C   0  0  0  0  0  0  0  0  0  0  0  0
   -7.9331    0.1180    1.2813 C   0  0  0  0  0  0  0  0  0  0  0  0
   -1.1017   -1.2831   -1.2072 C   0  0  0  0  0  0  0  0  0  0  0  0
   -1.6535   -1.0894   -2.3201 O   0  0  0  0  0  0  0  0  0  0  0  0
   -0.5523   -2.5689   -1.1048 N   0  0  0  0  0  0  0  0  0  0  0  0
   -0.6008   -3.5119   -2.0861 O   0  0  0  0  0  0  0  0  0  0  0  0
   12.2965    1.3929    0.9751 H   0  0  0  0  0  0  0  0  0  0  0  0
   12.1436    0.0728    2.1605 H   0  0  0  0  0  0  0  0  0  0  0  0
   12.5407   -0.3513    0.4839 H   0  0  0  0  0  0  0  0  0  0  0  0
    7.9546   -0.2984   -1.0970 H   0  0  0  0  0  0  0  0  0  0  0  0
    7.6413   -1.1686    0.4122 H   0  0  0  0  0  0  0  0  0  0  0  0
    7.5566    1.7585    0.8679 H   0  0  0  0  0  0  0  0  0  0  0  0
    5.3440    2.8226    0.8995 H   0  0  0  0  0  0  0  0  0  0  0  0
    2.9097    2.7196    0.3183 H   0  0  0  0  0  0  0  0  0  0  0  0
    3.5273   -1.1428   -1.4149 H   0  0  0  0  0  0  0  0  0  0  0  0
    5.8805   -1.0089   -0.8365 H   0  0  0  0  0  0  0  0  0  0  0  0
    0.5130    0.5112    1.1928 H   0  0  0  0  0  0  0  0  0  0  0  0
    0.9983   -1.0886    0.6320 H   0  0  0  0  0  0  0  0  0  0  0  0
   -1.0105    1.7301    0.2475 H   0  0  0  0  0  0  0  0  0  0  0  0
   -1.4403    1.1676   -1.3810 H   0  0  0  0  0  0  0  0  0  0  0  0
   -3.6211    1.4537   -0.8884 H   0  0  0  0  0  0  0  0  0  0  0  0
   -3.2240    1.7161    0.8273 H   0  0  0  0  0  0  0  0  0  0  0  0
   -3.0619   -2.2829    0.0974 H   0  0  0  0  0  0  0  0  0  0  0  0
   -3.4974   -1.7711    1.7696 H   0  0  0  0  0  0  0  0  0  0  0  0
   -0.9922   -2.0553    1.2689 H   0  0  0  0  0  0  0  0  0  0  0  0
   -1.5457   -0.5092    2.0727 H   0  0  0  0  0  0  0  0  0  0  0  0
   -8.8289   -0.5194   -1.2931 H   0  0  0  0  0  0  0  0  0  0  0  0
   -7.1894   -0.6947   -1.9483 H   0  0  0  0  0  0  0  0  0  0  0  0
   -7.7613   -1.7073   -0.5187 H   0  0  0  0  0  0  0  0  0  0  0  0
   -9.0458    1.7542   -0.2877 H   0  0  0  0  0  0  0  0  0  0  0  0
   -7.9604    1.6142   -1.7578 H   0  0  0  0  0  0  0  0  0  0  0  0
   -7.4480    2.5868   -0.3725 H   0  0  0  0  0  0  0  0  0  0  0  0
   -9.0175    0.3985    1.2031 H   0  0  0  0  0  0  0  0  0  0  0  0
   -7.4208    0.6345    2.0932 H   0  0  0  0  0  0  0  0  0  0  0  0
   -7.9600   -0.9999    1.4157 H   0  0  0  0  0  0  0  0  0  0  0  0
   -0.0429   -2.9789   -0.2902 H   0  0  0  0  0  0  0  0  0  0  0  0
   -0.2312   -3.1644   -2.9398 H   0  0  0  0  0  0  0  0  0  0  0  0
  1  2  1  0
  2  3  3  0
  3  4  1  0
  4  5  1  0
  5  6  1  0
  6  7  2  0
  7  8  1  0
  8  9  2  0
  9 10  1  0
 10 11  2  0
  9 12  1  0
 12 13  2  0
 12 14  2  0
 12 15  1  0
 15 16  1  0
 16 17  1  0
 17 18  1  0
 18 19  1  0
 19 20  1  0
 20 21  1  0
 19 22  1  0
 22 23  2  0
 22 24  1  0
 24 25  1  0
 25 26  1  0
 25 27  1  0
 25 28  1  0
 16 29  1  0
 29 30  2  0
 29 31  1  0
 31 32  1  0
 11  6  1  0
 21 16  1  0
  1 33  1  0
  1 34  1  0
  1 35  1  0
  4 36  1  0
  4 37  1  0
  5 38  1  0
  7 39  1  0
  8 40  1  0
 10 41  1  0
 11 42  1  0
 15 43  1  0
 15 44  1  0
 17 45  1  0
 17 46  1  0
 18 47  1  0
 18 48  1  0
 20 49  1  0
 20 50  1  0
 21 51  1  0
 21 52  1  0
 26 53  1  0
 26 54  1  0
 26 55  1  0
 27 56  1  0
 27 57  1  0
 27 58  1  0
 28 59  1  0
 28 60  1  0
 28 61  1  0
 31 62  1  0
 32 63  1  0
M  END
$$$$
