
     RDKit          3D

 84 89  0  0  0  0  0  0  0  0999 V2000
    0.4605    1.2560   -1.2973 C   0  0  1  0  0  0  0  0  0  0  0  0
   -0.9347    0.7989   -1.6163 C   0  0  0  0  0  0  0  0  0  0  0  0
   -1.6259    0.3761   -0.3480 C   0  0  1  0  0  0  0  0  0  0  0  0
   -2.9901    0.1514   -0.4580 O   0  0  0  0  0  0  0  0  0  0  0  0
   -3.9470    0.8591    0.2364 C   0  0  0  0  0  0  0  0  0  0  0  0
   -3.4869    1.7536    1.0032 O   0  0  0  0  0  0  0  0  0  0  0  0
   -5.3613    0.6228    0.1196 C   0  0  0  0  0  0  0  0  0  0  0  0
   -5.9346   -0.3330   -0.6941 C   0  0  0  0  0  0  0  0  0  0  0  0
   -7.3004   -0.5128   -0.7637 C   0  0  0  0  0  0  0  0  0  0  0  0
   -7.9111   -1.4485   -1.5570 O   0  0  0  0  0  0  0  0  0  0  0  0
   -7.1343   -2.3045   -2.3716 C   0  0  0  0  0  0  0  0  0  0  0  0
   -8.1541    0.2684   -0.0107 C   0  0  0  0  0  0  0  0  0  0  0  0
   -9.5430    0.1682   -0.0077 O   0  0  0  0  0  0  0  0  0  0  0  0
  -10.2979   -0.6437    0.8392 C   0  0  0  0  0  0  0  0  0  0  0  0
   -7.6284    1.2390    0.8194 C   0  0  0  0  0  0  0  0  0  0  0  0
   -8.4419    2.0508    1.5970 O   0  0  0  0  0  0  0  0  0  0  0  0
   -7.8350    3.0239    2.4239 C   0  0  0  0  0  0  0  0  0  0  0  0
   -6.2376    1.3893    0.8609 C   0  0  0  0  0  0  0  0  0  0  0  0
   -0.8361   -0.8057    0.1792 C   0  0  2  0  0  0  0  0  0  0  0  0
   -1.5604   -1.5801    1.0593 O   0  0  0  0  0  0  0  0  0  0  0  0
   -1.6936   -2.8490    0.4812 C   0  0  0  0  0  0  0  0  0  0  0  0
    0.4299   -0.2315    0.7229 C   0  0  1  0  0  0  0  0  0  0  0  0
    1.2604   -1.1854    1.4840 C   0  0  0  0  0  0  0  0  0  0  0  0
    1.3915   -2.3564    1.9142 O   0  0  0  0  0  0  0  0  0  0  0  0
    2.4381   -0.6175    1.9796 O   0  0  0  0  0  0  0  0  0  0  0  0
    3.3773   -1.3282    2.7286 C   0  0  0  0  0  0  0  0  0  0  0  0
    1.2369    0.3441   -0.4066 C   0  0  1  0  0  0  0  0  0  0  0  0
    1.8968   -0.7226   -1.2322 C   0  0  0  0  0  0  0  0  0  0  0  0
    2.9592   -0.1009   -2.1144 C   0  0  1  0  0  0  0  0  0  0  0  0
    2.5739    1.1790   -2.5508 N   0  0  0  0  0  0  0  0  0  0  0  0
    3.4308    2.2735   -2.3734 C   0  0  0  0  0  0  0  0  0  0  0  0
    4.3969    2.2272   -1.2426 C   0  0  0  0  0  0  0  0  0  0  0  0
    5.0153    0.9028   -1.1120 C   0  0  0  0  0  0  0  0  0  0  0  0
    4.3060   -0.1880   -1.5360 C   0  0  0  0  0  0  0  0  0  0  0  0
    5.0768   -1.2667   -1.3131 N   0  0  0  0  0  0  0  0  0  0  0  0
    6.2404   -0.8729   -0.7641 C   0  0  0  0  0  0  0  0  0  0  0  0
    6.2474    0.4828   -0.6185 C   0  0  0  0  0  0  0  0  0  0  0  0
    7.2776    1.2417   -0.0895 C   0  0  0  0  0  0  0  0  0  0  0  0
    8.4033    0.5417    0.3279 C   0  0  0  0  0  0  0  0  0  0  0  0
    8.4338   -0.8331    0.1967 C   0  0  0  0  0  0  0  0  0  0  0  0
    9.5413   -1.5857    0.6006 O   0  0  0  0  0  0  0  0  0  0  0  0
   10.6712   -0.9117    1.1641 C   0  0  0  0  0  0  0  0  0  0  0  0
    7.3738   -1.5363   -0.3395 C   0  0  0  0  0  0  0  0  0  0  0  0
    1.1803    1.4485   -2.6045 C   0  0  0  0  0  0  0  0  0  0  0  0
    0.3727    2.2734   -0.8307 H   0  0  0  0  0  0  0  0  0  0  0  0
   -1.4281    1.6598   -2.1225 H   0  0  0  0  0  0  0  0  0  0  0  0
   -0.8217   -0.0676   -2.3030 H   0  0  0  0  0  0  0  0  0  0  0  0
   -1.4887    1.2023    0.3800 H   0  0  0  0  0  0  0  0  0  0  0  0
   -5.2843   -0.9600   -1.2962 H   0  0  0  0  0  0  0  0  0  0  0  0
   -7.7711   -2.7799   -3.1645 H   0  0  0  0  0  0  0  0  0  0  0  0
   -6.3905   -1.6551   -2.9153 H   0  0  0  0  0  0  0  0  0  0  0  0
   -6.5403   -3.0403   -1.8221 H   0  0  0  0  0  0  0  0  0  0  0  0
  -11.1138    0.0179    1.2518 H   0  0  0  0  0  0  0  0  0  0  0  0
   -9.6793   -1.0849    1.6250 H   0  0  0  0  0  0  0  0  0  0  0  0
  -10.7580   -1.4332    0.1994 H   0  0  0  0  0  0  0  0  0  0  0  0
   -7.2835    2.5541    3.2687 H   0  0  0  0  0  0  0  0  0  0  0  0
   -8.6402    3.6999    2.8251 H   0  0  0  0  0  0  0  0  0  0  0  0
   -7.1599    3.6825    1.8615 H   0  0  0  0  0  0  0  0  0  0  0  0
   -5.8225    2.1589    1.5193 H   0  0  0  0  0  0  0  0  0  0  0  0
   -0.5778   -1.4205   -0.7195 H   0  0  0  0  0  0  0  0  0  0  0  0
   -2.2657   -3.5492    1.1186 H   0  0  0  0  0  0  0  0  0  0  0  0
   -0.6912   -3.3436    0.3358 H   0  0  0  0  0  0  0  0  0  0  0  0
   -2.1268   -2.7621   -0.5368 H   0  0  0  0  0  0  0  0  0  0  0  0
    0.1302    0.6239    1.3912 H   0  0  0  0  0  0  0  0  0  0  0  0
    4.2445   -0.6210    2.8813 H   0  0  0  0  0  0  0  0  0  0  0  0
    3.7392   -2.2257    2.2150 H   0  0  0  0  0  0  0  0  0  0  0  0
    2.9614   -1.4821    3.7348 H   0  0  0  0  0  0  0  0  0  0  0  0
    2.0438    0.9393    0.0770 H   0  0  0  0  0  0  0  0  0  0  0  0
    2.3163   -1.5449   -0.6153 H   0  0  0  0  0  0  0  0  0  0  0  0
    1.0987   -1.1764   -1.8563 H   0  0  0  0  0  0  0  0  0  0  0  0
    2.9792   -0.7634   -3.0301 H   0  0  0  0  0  0  0  0  0  0  0  0
    2.7900    3.1903   -2.2156 H   0  0  0  0  0  0  0  0  0  0  0  0
    4.0044    2.5078   -3.3158 H   0  0  0  0  0  0  0  0  0  0  0  0
    3.8621    2.4613   -0.2954 H   0  0  0  0  0  0  0  0  0  0  0  0
    5.1567    3.0305   -1.4373 H   0  0  0  0  0  0  0  0  0  0  0  0
    4.8532   -2.2853   -1.5177 H   0  0  0  0  0  0  0  0  0  0  0  0
    7.2365    2.3172    0.0056 H   0  0  0  0  0  0  0  0  0  0  0  0
    9.2764    1.0440    0.7616 H   0  0  0  0  0  0  0  0  0  0  0  0
   10.3765   -0.4242    2.1206 H   0  0  0  0  0  0  0  0  0  0  0  0
   10.9694   -0.1058    0.4740 H   0  0  0  0  0  0  0  0  0  0  0  0
   11.4497   -1.6349    1.4086 H   0  0  0  0  0  0  0  0  0  0  0  0
    7.4261   -2.6221   -0.4310 H   0  0  0  0  0  0  0  0  0  0  0  0
    0.7483    0.7618   -3.3807 H   0  0  0  0  0  0  0  0  0  0  0  0
    1.0430    2.4727   -3.0142 H   0  0  0  0  0  0  0  0  0  0  0  0
  1  2  1  0
  2  3  1  0
  3  4  1  0
  4  5  1  0
  5  6  2  0
  5  7  1  0
  7  8  2  0
  8  9  1  0
  9 10  1  0
 10 11  1  0
  9 12  2  0
 12 13  1  0
 13 14  1  0
 12 15  1  0
 15 16  1  0
 16 17  1  0
 15 18  2  0
  3 19  1  0
 19 20  1  0
 20 21  1  0
 19 22  1  0
 22 23  1  0
 23 24  2  0
 23 25  1  0
 25 26  1  0
 22 27  1  0
 27 28  1  0
 28 29  1  0
 29 30  1  0
 30 31  1  0
 31 32  1  0
 32 33  1  0
 33 34  2  0
 34 35  1  0
 35 36  1  0
 36 37  2  0
 37 38  1  0
 38 39  2  0
 39 40  1  0
 40 41  1  0
 41 42  1  0
 40 43  2  0
 30 44  1  0
 27  1  1  0
 34 29  1  0
 43 36  1  0
 44  1  1  0
 18  7  1  0
 37 33  1  0
  1 45  1  1
  2 46  1  0
  2 47  1  0
  3 48  1  1
  8 49  1  0
 11 50  1  0
 11 51  1  0
 11 52  1  0
 14 53  1  0
 14 54  1  0
 14 55  1  0
 17 56  1  0
 17 57  1  0
 17 58  1  0
 18 59  1  0
 19 60  1  6
 21 61  1  0
 21 62  1  0
 21 63  1  0
 22 64  1  1
 26 65  1  0
 26 66  1  0
 26 67  1  0
 27 68  1  1
 28 69  1  0
 28 70  1  0
 29 71  1  6
 31 72  1  0
 31 73  1  0
 32 74  1  0
 32 75  1  0
 35 76  1  0
 38 77  1  0
 39 78  1  0
 42 79  1  0
 42 80  1  0
 42 81  1  0
 43 82  1  0
 44 83  1  0
 44 84  1  0
M  END
$$$$
