
     RDKit          3D

 11 10  0  0  0  0  0  0  0  0999 V2000
    1.9486    0.0949   -0.0180 N   0  0  0  0  0  0  0  0  0  0  0  0
    0.7374   -0.5055   -0.3401 N   0  0  0  0  0  0  0  0  0  0  0  0
   -0.5008    0.2008   -0.1782 C   0  0  0  0  0  0  0  0  0  0  0  0
   -1.6870   -0.5538    0.0409 N   0  0  0  0  0  0  0  0  0  0  0  0
   -0.3686    1.4827   -0.2562 N   0  0  0  0  0  0  0  0  0  0  0  0
    1.8588    0.8441    0.7125 H   0  0  0  0  0  0  0  0  0  0  0  0
    2.6428   -0.5895    0.3252 H   0  0  0  0  0  0  0  0  0  0  0  0
    0.7672   -1.5011   -0.7080 H   0  0  0  0  0  0  0  0  0  0  0  0
   -2.3566   -1.1208   -0.4979 H   0  0  0  0  0  0  0  0  0  0  0  0
   -1.8641   -0.4526    1.0773 H   0  0  0  0  0  0  0  0  0  0  0  0
   -1.1775    2.1008   -0.1575 H   0  0  0  0  0  0  0  0  0  0  0  0
  1  2  1  0
  2  3  1  0
  3  4  1  0
  3  5  2  3
  1  6  1  0
  1  7  1  0
  2  8  1  0
  4  9  1  0
  4 10  1  0
  5 11  1  0
M  END
$$$$
