
     RDKit          3D

 65 70  0  0  0  0  0  0  0  0999 V2000
   -4.8129    4.9624   -1.2991 O   0  0  0  0  0  0  0  0  0  0  0  0
   -4.7929    3.7646   -0.6106 C   0  0  0  0  0  0  0  0  0  0  0  0
   -3.4057    3.3126   -0.2581 C   0  0  1  0  0  0  0  0  0  0  0  0
   -3.5464    1.9854    0.4941 C   0  0  0  0  0  0  0  0  0  0  0  0
   -2.1665    1.4305    0.3695 C   0  0  1  0  0  0  0  0  0  0  0  0
   -2.1753   -0.0673    0.3519 N   0  0  0  0  0  0  0  0  0  0  0  0
   -0.8911   -0.6639    0.2335 C   0  0  0  0  0  0  0  0  0  0  0  0
    0.2015    0.1628    0.1513 N   0  0  0  0  0  0  0  0  0  0  0  0
    1.4616   -0.2778    0.0343 C   0  0  0  0  0  0  0  0  0  0  0  0
    2.5406    0.6355   -0.0241 N   0  0  0  0  0  0  0  0  0  0  0  0
    3.9032    0.3589   -0.2030 C   0  0  0  0  0  0  0  0  0  0  0  0
    4.3319   -0.8657   -0.6409 C   0  0  0  0  0  0  0  0  0  0  0  0
    5.6861   -1.1810   -0.8100 C   0  0  0  0  0  0  0  0  0  0  0  0
    6.5864   -0.2348   -0.5276 N   0  0  0  0  0  0  0  0  0  0  0  0
    6.1892    0.9741   -0.0969 C   0  0  0  0  0  0  0  0  0  0  0  0
    7.1506    1.9123    0.1809 O   0  0  0  0  0  0  0  0  0  0  0  0
    8.5239    1.6549    0.0281 C   0  0  0  0  0  0  0  0  0  0  0  0
    9.5122    2.2166    0.9836 C   0  0  0  0  0  0  0  0  0  0  0  0
    9.3559    2.8524   -0.3393 C   0  0  0  0  0  0  0  0  0  0  0  0
    4.8728    1.3127    0.0783 C   0  0  0  0  0  0  0  0  0  0  0  0
    1.6090   -1.6052   -0.0002 N   0  0  0  0  0  0  0  0  0  0  0  0
    0.5773   -2.4840    0.0760 C   0  0  0  0  0  0  0  0  0  0  0  0
   -0.7337   -2.0196    0.1983 C   0  0  0  0  0  0  0  0  0  0  0  0
   -1.8625   -2.9188    0.2888 C   0  0  0  0  0  0  0  0  0  0  0  0
   -1.6399   -4.3016    0.2490 C   0  0  0  0  0  0  0  0  0  0  0  0
   -2.6694   -5.2349    0.3324 C   0  0  0  0  0  0  0  0  0  0  0  0
   -3.9545   -4.7894    0.4584 C   0  0  0  0  0  0  0  0  0  0  0  0
   -5.0158   -5.6799    0.5460 C   0  0  0  0  0  0  0  0  0  0  0  0
   -6.3074   -5.2144    0.6737 C   0  0  0  0  0  0  0  0  0  0  0  0
   -6.5125   -3.8707    0.7112 C   0  0  0  0  0  0  0  0  0  0  0  0
   -5.4623   -2.9919    0.6245 C   0  0  0  0  0  0  0  0  0  0  0  0
   -4.1490   -3.4092    0.4955 C   0  0  0  0  0  0  0  0  0  0  0  0
   -3.1258   -2.5575    0.4116 N   0  0  0  0  0  0  0  0  0  0  0  0
   -1.6054    1.9474   -0.9214 C   0  0  2  0  0  0  0  0  0  0  0  0
   -0.4006    2.5931   -0.8027 O   0  0  0  0  0  0  0  0  0  0  0  0
   -2.6698    2.8842   -1.4978 C   0  0  2  0  0  0  0  0  0  0  0  0
   -2.0943    3.9283   -2.1944 O   0  0  0  0  0  0  0  0  0  0  0  0
   -4.8186    5.7083   -0.6518 H   0  0  0  0  0  0  0  0  0  0  0  0
   -5.3917    3.8978    0.3114 H   0  0  0  0  0  0  0  0  0  0  0  0
   -5.2516    2.9741   -1.2579 H   0  0  0  0  0  0  0  0  0  0  0  0
   -2.8386    4.0420    0.3269 H   0  0  0  0  0  0  0  0  0  0  0  0
   -3.8570    2.1927    1.5443 H   0  0  0  0  0  0  0  0  0  0  0  0
   -4.3057    1.4062   -0.0662 H   0  0  0  0  0  0  0  0  0  0  0  0
   -1.5746    1.7574    1.2478 H   0  0  0  0  0  0  0  0  0  0  0  0
   -3.0812   -0.5092    0.4246 H   0  0  0  0  0  0  0  0  0  0  0  0
    2.2910    1.6526    0.0782 H   0  0  0  0  0  0  0  0  0  0  0  0
    3.6628   -1.6708   -0.8960 H   0  0  0  0  0  0  0  0  0  0  0  0
    6.0053   -2.1480   -1.1551 H   0  0  0  0  0  0  0  0  0  0  0  0
    8.7806    0.6554   -0.3678 H   0  0  0  0  0  0  0  0  0  0  0  0
    9.0605    2.6692    1.8903 H   0  0  0  0  0  0  0  0  0  0  0  0
   10.4310    1.6598    1.1918 H   0  0  0  0  0  0  0  0  0  0  0  0
   10.1383    2.7067   -1.1090 H   0  0  0  0  0  0  0  0  0  0  0  0
    8.8875    3.8457   -0.3915 H   0  0  0  0  0  0  0  0  0  0  0  0
    4.5267    2.2729    0.4217 H   0  0  0  0  0  0  0  0  0  0  0  0
    0.7707   -3.5431    0.0416 H   0  0  0  0  0  0  0  0  0  0  0  0
   -0.6286   -4.6577    0.1492 H   0  0  0  0  0  0  0  0  0  0  0  0
   -2.4054   -6.2856    0.2933 H   0  0  0  0  0  0  0  0  0  0  0  0
   -4.8139   -6.7417    0.5129 H   0  0  0  0  0  0  0  0  0  0  0  0
   -7.1162   -5.9283    0.7403 H   0  0  0  0  0  0  0  0  0  0  0  0
   -7.5121   -3.4885    0.8109 H   0  0  0  0  0  0  0  0  0  0  0  0
   -5.6301   -1.9265    0.6552 H   0  0  0  0  0  0  0  0  0  0  0  0
   -1.4510    1.0845   -1.6151 H   0  0  0  0  0  0  0  0  0  0  0  0
   -0.1956    2.9672    0.0686 H   0  0  0  0  0  0  0  0  0  0  0  0
   -3.3897    2.3110   -2.1489 H   0  0  0  0  0  0  0  0  0  0  0  0
   -2.8014    4.5746   -2.4200 H   0  0  0  0  0  0  0  0  0  0  0  0
  1  2  1  0
  2  3  1  0
  3  4  1  0
  4  5  1  0
  5  6  1  0
  6  7  1  0
  7  8  2  0
  8  9  1  0
  9 10  1  0
 10 11  1  0
 11 12  2  0
 12 13  1  0
 13 14  2  0
 14 15  1  0
 15 16  1  0
 16 17  1  0
 17 18  1  0
 18 19  1  0
 15 20  2  0
  9 21  2  0
 21 22  1  0
 22 23  2  0
 23 24  1  0
 24 25  2  0
 25 26  1  0
 26 27  2  0
 27 28  1  0
 28 29  2  0
 29 30  1  0
 30 31  2  0
 31 32  1  0
 32 33  2  0
  5 34  1  0
 34 35  1  0
 34 36  1  0
 36 37  1  0
 36  3  1  0
 23  7  1  0
 33 24  1  0
 20 11  1  0
 32 27  1  0
 19 17  1  0
  1 38  1  0
  2 39  1  0
  2 40  1  0
  3 41  1  1
  4 42  1  0
  4 43  1  0
  5 44  1  1
  6 45  1  0
 10 46  1  0
 12 47  1  0
 13 48  1  0
 17 49  1  0
 18 50  1  0
 18 51  1  0
 19 52  1  0
 19 53  1  0
 20 54  1  0
 22 55  1  0
 25 56  1  0
 26 57  1  0
 28 58  1  0
 29 59  1  0
 30 60  1  0
 31 61  1  0
 34 62  1  6
 35 63  1  0
 36 64  1  6
 37 65  1  0
M  END
$$$$
