
     RDKit          3D

 44 46  0  0  0  0  0  0  0  0999 V2000
   -6.2871    2.0268   -2.3825 O   0  0  0  0  0  0  0  0  0  0  0  0
   -5.2132    1.4625   -1.7314 C   0  0  0  0  0  0  0  0  0  0  0  0
   -4.5069    2.0530   -2.5731 O   0  0  0  0  0  0  0  0  0  0  0  0
   -5.2587    0.5889   -0.5775 C   0  0  0  0  0  0  0  0  0  0  0  0
   -4.2268    0.0808    0.0243 C   0  0  0  0  0  0  0  0  0  0  0  0
   -4.6943   -0.7721    1.1783 C   0  0  0  0  0  0  0  0  0  0  0  0
   -6.1400   -1.0231    0.8102 C   0  0  0  0  0  0  0  0  0  0  0  0
   -6.5649    0.1734    0.0251 C   0  0  0  0  0  0  0  0  0  0  0  0
   -2.8044    0.1385   -0.1392 C   0  0  0  0  0  0  0  0  0  0  0  0
   -1.9784   -0.4869    0.6285 O   0  0  0  0  0  0  0  0  0  0  0  0
   -1.8375    0.7236   -0.9651 N   0  0  0  0  0  0  0  0  0  0  0  0
   -0.4639    0.4832   -0.7371 C   0  0  0  0  0  0  0  0  0  0  0  0
   -0.0352   -0.6349   -1.4546 C   0  0  0  0  0  0  0  0  0  0  0  0
   -0.7979   -1.4081   -2.2677 F   0  0  0  0  0  0  0  0  0  0  0  0
    1.2966   -1.0564   -1.3753 C   0  0  0  0  0  0  0  0  0  0  0  0
    2.1535   -0.3223   -0.5640 C   0  0  0  0  0  0  0  0  0  0  0  0
    1.7437    0.7872    0.1528 C   0  0  0  0  0  0  0  0  0  0  0  0
    0.4267    1.1777    0.0544 C   0  0  0  0  0  0  0  0  0  0  0  0
   -0.1202    2.2399    0.6942 F   0  0  0  0  0  0  0  0  0  0  0  0
    3.5518   -0.7719   -0.4867 C   0  0  0  0  0  0  0  0  0  0  0  0
    3.9717   -2.0849   -0.5863 C   0  0  0  0  0  0  0  0  0  0  0  0
    5.3185   -2.3873   -0.4984 C   0  0  0  0  0  0  0  0  0  0  0  0
    6.2279   -1.3746   -0.3123 C   0  0  0  0  0  0  0  0  0  0  0  0
    5.8527   -0.0453   -0.2071 C   0  0  0  0  0  0  0  0  0  0  0  0
    6.8189    0.9330   -0.0197 O   0  0  0  0  0  0  0  0  0  0  0  0
    7.2782    1.3814    1.2259 C   0  0  0  0  0  0  0  0  0  0  0  0
    8.2523    2.3729    1.0774 F   0  0  0  0  0  0  0  0  0  0  0  0
    6.2063    1.9467    1.8970 F   0  0  0  0  0  0  0  0  0  0  0  0
    7.8248    0.3543    1.9864 F   0  0  0  0  0  0  0  0  0  0  0  0
    4.4947    0.2301   -0.2988 C   0  0  0  0  0  0  0  0  0  0  0  0
   -6.5406    3.0056   -2.4627 H   0  0  0  0  0  0  0  0  0  0  0  0
   -4.6715   -0.1175    2.0812 H   0  0  0  0  0  0  0  0  0  0  0  0
   -4.1218   -1.6910    1.2980 H   0  0  0  0  0  0  0  0  0  0  0  0
   -6.7886   -1.0532    1.7157 H   0  0  0  0  0  0  0  0  0  0  0  0
   -6.2491   -1.9526    0.2459 H   0  0  0  0  0  0  0  0  0  0  0  0
   -6.9917    0.9943    0.6026 H   0  0  0  0  0  0  0  0  0  0  0  0
   -7.2428   -0.0986   -0.8361 H   0  0  0  0  0  0  0  0  0  0  0  0
   -2.2596    1.3072   -1.7015 H   0  0  0  0  0  0  0  0  0  0  0  0
    1.6779   -1.9195   -1.9142 H   0  0  0  0  0  0  0  0  0  0  0  0
    2.3957    1.3539    0.7764 H   0  0  0  0  0  0  0  0  0  0  0  0
    3.1835   -2.8380   -0.7347 H   0  0  0  0  0  0  0  0  0  0  0  0
    5.6291   -3.4142   -0.5779 H   0  0  0  0  0  0  0  0  0  0  0  0
    7.2796   -1.6363   -0.2464 H   0  0  0  0  0  0  0  0  0  0  0  0
    4.2113    1.2732   -0.2155 H   0  0  0  0  0  0  0  0  0  0  0  0
  1  2  1  0
  2  3  2  0
  2  4  1  0
  4  5  2  0
  5  6  1  0
  6  7  1  0
  7  8  1  0
  5  9  1  0
  9 10  2  0
  9 11  1  0
 11 12  1  0
 12 13  2  0
 13 14  1  0
 13 15  1  0
 15 16  2  0
 16 17  1  0
 17 18  2  0
 18 19  1  0
 16 20  1  0
 20 21  2  0
 21 22  1  0
 22 23  2  0
 23 24  1  0
 24 25  1  0
 25 26  1  0
 26 27  1  0
 26 28  1  0
 26 29  1  0
 24 30  2  0
  8  4  1  0
 18 12  1  0
 30 20  1  0
  1 31  1  0
  6 32  1  0
  6 33  1  0
  7 34  1  0
  7 35  1  0
  8 36  1  0
  8 37  1  0
 11 38  1  0
 15 39  1  0
 17 40  1  0
 21 41  1  0
 22 42  1  0
 23 43  1  0
 30 44  1  0
M  END
$$$$
