
     RDKit          3D

 42 44  0  0  0  0  0  0  0  0999 V2000
    1.4179   -0.8072    1.1088 C   0  0  1  0  0  0  0  0  0  0  0  0
    1.6978    0.4766    1.8528 C   0  0  0  0  0  0  0  0  0  0  0  0
    0.8099    0.6380    2.9097 O   0  0  0  0  0  0  0  0  0  0  0  0
    0.0371   -0.8610    0.5300 C   0  0  0  0  0  0  0  0  0  0  0  0
   -0.2883    0.2048   -0.4458 C   0  0  0  0  0  0  0  0  0  0  0  0
   -1.6859    0.0214   -0.9183 C   0  0  0  0  0  0  0  0  0  0  0  0
   -1.9529   -0.5934   -2.1433 C   0  0  0  0  0  0  0  0  0  0  0  0
   -3.2612   -0.7721   -2.5425 C   0  0  0  0  0  0  0  0  0  0  0  0
   -4.3522   -0.3755   -1.7970 C   0  0  0  0  0  0  0  0  0  0  0  0
   -4.0963    0.2370   -0.5779 C   0  0  0  0  0  0  0  0  0  0  0  0
   -2.7871    0.4094   -0.1913 C   0  0  0  0  0  0  0  0  0  0  0  0
   -2.6156    1.0369    1.0321 C   0  0  0  0  0  0  0  0  0  0  0  0
   -3.6548    1.4734    1.8398 C   0  0  0  0  0  0  0  0  0  0  0  0
   -4.9533    1.2812    1.4175 C   0  0  0  0  0  0  0  0  0  0  0  0
   -5.1582    0.6611    0.2054 C   0  0  0  0  0  0  0  0  0  0  0  0
    2.4779   -1.0328    0.1516 N   0  0  0  0  0  0  0  0  0  0  0  0
    2.7560   -2.0963   -0.6320 C   0  0  0  0  0  0  0  0  0  0  0  0
    3.8347   -1.9202   -1.3903 N   0  0  0  0  0  0  0  0  0  0  0  0
    4.3158   -0.6938   -1.1201 C   0  0  0  0  0  0  0  0  0  0  0  0
    3.4627   -0.1758   -0.1719 C   0  0  0  0  0  0  0  0  0  0  0  0
    5.4952   -0.0531   -1.7108 C   0  0  0  0  0  0  0  0  0  0  0  0
    5.8226    1.2621   -1.2747 N   0  0  0  0  0  0  0  0  0  0  0  0
    6.1369   -0.7378   -2.5774 O   0  0  0  0  0  0  0  0  0  0  0  0
    1.4768   -1.6114    1.8744 H   0  0  0  0  0  0  0  0  0  0  0  0
    1.7443    1.3566    1.1953 H   0  0  0  0  0  0  0  0  0  0  0  0
    2.7110    0.3523    2.2954 H   0  0  0  0  0  0  0  0  0  0  0  0
    0.4454   -0.2197    3.2344 H   0  0  0  0  0  0  0  0  0  0  0  0
   -0.0481   -1.8547    0.0238 H   0  0  0  0  0  0  0  0  0  0  0  0
   -0.6879   -0.9055    1.3590 H   0  0  0  0  0  0  0  0  0  0  0  0
   -0.1064    1.2343   -0.0752 H   0  0  0  0  0  0  0  0  0  0  0  0
    0.3664    0.0667   -1.3453 H   0  0  0  0  0  0  0  0  0  0  0  0
   -1.0898   -0.9000   -2.7169 H   0  0  0  0  0  0  0  0  0  0  0  0
   -3.3573   -1.2647   -3.5210 H   0  0  0  0  0  0  0  0  0  0  0  0
   -5.3433   -0.5452   -2.1639 H   0  0  0  0  0  0  0  0  0  0  0  0
   -1.6438    1.2354    1.4339 H   0  0  0  0  0  0  0  0  0  0  0  0
   -3.4973    1.9575    2.7845 H   0  0  0  0  0  0  0  0  0  0  0  0
   -5.8182    1.5898    1.9846 H   0  0  0  0  0  0  0  0  0  0  0  0
   -6.1917    0.5102   -0.1269 H   0  0  0  0  0  0  0  0  0  0  0  0
    2.1462   -3.0135   -0.6362 H   0  0  0  0  0  0  0  0  0  0  0  0
    3.5720    0.8181    0.2688 H   0  0  0  0  0  0  0  0  0  0  0  0
    5.6509    1.4862   -0.2608 H   0  0  0  0  0  0  0  0  0  0  0  0
    6.2122    2.1246   -1.7117 H   0  0  0  0  0  0  0  0  0  0  0  0
  1  2  1  0
  2  3  1  0
  1  4  1  0
  4  5  1  0
  5  6  1  0
  6  7  2  0
  7  8  1  0
  8  9  2  0
  9 10  1  0
 10 11  2  0
 11 12  1  0
 12 13  2  0
 13 14  1  0
 14 15  2  0
  1 16  1  0
 16 17  1  0
 17 18  2  0
 18 19  1  0
 19 20  2  0
 19 21  1  0
 21 22  1  0
 21 23  2  0
 11  6  1  0
 20 16  1  0
 15 10  1  0
  1 24  1  1
  2 25  1  0
  2 26  1  0
  3 27  1  0
  4 28  1  0
  4 29  1  0
  5 30  1  0
  5 31  1  0
  7 32  1  0
  8 33  1  0
  9 34  1  0
 12 35  1  0
 13 36  1  0
 14 37  1  0
 15 38  1  0
 17 39  1  0
 20 40  1  0
 22 41  1  0
 22 42  1  0
M  END
$$$$
