
     RDKit          3D

 48 49  0  0  0  0  0  0  0  0999 V2000
   -3.6613   -0.7142    2.8978 C   0  0  0  0  0  0  0  0  0  0  0  0
   -3.4515    0.0995    1.8256 O   0  0  0  0  0  0  0  0  0  0  0  0
   -2.3311    0.2273    1.0219 C   0  0  0  0  0  0  0  0  0  0  0  0
   -1.4095   -0.5915    1.8034 C   0  0  0  0  0  0  0  0  0  0  0  0
   -0.2067   -0.9130    1.5453 C   0  0  0  0  0  0  0  0  0  0  0  0
    0.5113   -0.5219    0.4109 C   0  0  0  0  0  0  0  0  0  0  0  0
    1.7054   -1.1427    0.3724 C   0  0  0  0  0  0  0  0  0  0  0  0
    2.9543   -1.8098    0.3288 C   0  0  0  0  0  0  0  0  0  0  0  0
    4.1626   -2.4334    0.2848 C   0  0  0  0  0  0  0  0  0  0  0  0
    4.9583   -1.3471   -0.3042 C   0  0  0  0  0  0  0  0  0  0  0  0
    6.3295   -1.1550   -0.7366 C   0  0  0  0  0  0  0  0  0  0  0  0
    7.5081   -0.9355    0.1342 C   0  0  0  0  0  0  0  0  0  0  0  0
    7.3436    0.4652    0.8262 C   0  0  0  0  0  0  0  0  0  0  0  0
    7.1178    1.1592    1.5697 O   0  0  0  0  0  0  0  0  0  0  0  0
    7.8866    1.3398   -0.4958 O   0  0  0  0  0  0  0  0  0  0  0  0
   -0.2445    0.2966   -0.4014 C   0  0  0  0  0  0  0  0  0  0  0  0
   -1.6286    0.6372   -0.0616 C   0  0  0  0  0  0  0  0  0  0  0  0
   -2.5072    0.9613   -1.2080 C   0  0  0  0  0  0  0  0  0  0  0  0
   -3.9443    1.0092   -0.9930 C   0  0  0  0  0  0  0  0  0  0  0  0
   -4.7238   -0.1346   -1.2192 C   0  0  0  0  0  0  0  0  0  0  0  0
   -5.9871   -0.0462   -1.1266 N   0  0  0  0  0  0  0  0  0  0  0  0
   -6.7155    1.0913   -0.8150 C   0  0  0  0  0  0  0  0  0  0  0  0
   -8.1037    1.0786   -0.7875 N   0  0  0  0  0  0  0  0  0  0  0  0
   -5.9431    2.1807   -0.5987 N   0  0  0  0  0  0  0  0  0  0  0  0
   -4.5332    2.1739   -0.6963 C   0  0  0  0  0  0  0  0  0  0  0  0
   -3.8022    3.3257   -0.4811 N   0  0  0  0  0  0  0  0  0  0  0  0
   -3.2253   -1.7672    2.6212 H   0  0  0  0  0  0  0  0  0  0  0  0
   -4.7171   -0.9404    3.1307 H   0  0  0  0  0  0  0  0  0  0  0  0
   -3.2063   -0.4642    3.8756 H   0  0  0  0  0  0  0  0  0  0  0  0
   -1.7760   -0.8418    2.8606 H   0  0  0  0  0  0  0  0  0  0  0  0
    0.3749   -1.5677    2.3151 H   0  0  0  0  0  0  0  0  0  0  0  0
    4.1634   -3.4286    0.4599 H   0  0  0  0  0  0  0  0  0  0  0  0
    3.8068   -2.7841   -1.1257 H   0  0  0  0  0  0  0  0  0  0  0  0
    4.3690   -1.0157   -1.3428 H   0  0  0  0  0  0  0  0  0  0  0  0
    4.6042   -0.2839    0.2172 H   0  0  0  0  0  0  0  0  0  0  0  0
    6.6959   -2.0671   -1.4000 H   0  0  0  0  0  0  0  0  0  0  0  0
    6.4233   -0.3302   -1.5529 H   0  0  0  0  0  0  0  0  0  0  0  0
    7.8754   -1.6639    0.8123 H   0  0  0  0  0  0  0  0  0  0  0  0
    8.3721   -0.8028   -0.6143 H   0  0  0  0  0  0  0  0  0  0  0  0
    7.9455    2.3067   -0.1625 H   0  0  0  0  0  0  0  0  0  0  0  0
    0.2659    0.6626   -1.2083 H   0  0  0  0  0  0  0  0  0  0  0  0
   -2.3087    0.0806   -1.9795 H   0  0  0  0  0  0  0  0  0  0  0  0
   -2.1175    1.8828   -1.6973 H   0  0  0  0  0  0  0  0  0  0  0  0
   -4.1924   -1.0242   -1.4964 H   0  0  0  0  0  0  0  0  0  0  0  0
   -8.7289    1.2426    0.0001 H   0  0  0  0  0  0  0  0  0  0  0  0
   -8.5744    0.8366   -1.7555 H   0  0  0  0  0  0  0  0  0  0  0  0
   -2.8548    3.4857   -0.4874 H   0  0  0  0  0  0  0  0  0  0  0  0
   -4.4792    4.1837   -0.2734 H   0  0  0  0  0  0  0  0  0  0  0  0
  1  2  1  0
  2  3  1  0
  3  4  2  0
  4  5  1  0
  5  6  2  0
  6  7  1  0
  7  8  3  0
  8  9  1  0
  9 10  1  0
 10 11  1  0
 11 12  1  0
 12 13  1  0
 13 14  2  0
 13 15  1  0
  6 16  1  0
 16 17  2  0
 17 18  1  0
 18 19  1  0
 19 20  2  0
 20 21  1  0
 21 22  2  0
 22 23  1  0
 22 24  1  0
 24 25  2  0
 25 26  1  0
 17  3  1  0
 25 19  1  0
  1 27  1  0
  1 28  1  0
  1 29  1  0
  4 30  1  0
  5 31  1  0
  9 32  1  0
  9 33  1  0
 10 34  1  0
 10 35  1  0
 11 36  1  0
 11 37  1  0
 12 38  1  0
 12 39  1  0
 15 40  1  0
 16 41  1  0
 18 42  1  0
 18 43  1  0
 20 44  1  0
 23 45  1  0
 23 46  1  0
 26 47  1  0
 26 48  1  0
M  END
$$$$
