
     RDKit          3D

 61 68  0  0  0  0  0  0  0  0999 V2000
   -4.5114   -2.6412    0.3184 C   0  0  0  0  0  0  0  0  0  0  0  0
   -4.1204   -1.2500    0.4485 N   0  0  0  0  0  0  0  0  0  0  0  0
   -3.0487   -1.0153   -0.4839 C   0  0  2  0  0  0  0  0  0  0  0  0
   -1.8871   -1.9277   -0.1512 C   0  0  0  0  0  0  0  0  0  0  0  0
   -0.8113   -1.6955   -1.1770 C   0  0  1  0  0  0  0  0  0  0  0  0
   -0.9748   -0.5970   -1.9441 O   0  0  0  0  0  0  0  0  0  0  0  0
   -1.4244    0.5754   -1.3634 C   0  0  1  0  0  0  0  0  0  0  0  0
   -2.0163    1.3369   -2.5660 C   0  0  0  0  0  0  0  0  0  0  0  0
   -2.4983    0.4110   -0.3459 C   0  0  2  0  0  0  0  0  0  0  0  0
   -2.0104    0.5658    0.9503 O   0  0  0  0  0  0  0  0  0  0  0  0
   -2.7387    1.5281    1.6531 C   0  0  0  0  0  0  0  0  0  0  0  0
   -0.3001    1.2547   -0.7682 N   0  0  0  0  0  0  0  0  0  0  0  0
   -0.1731    2.5859   -0.6067 C   0  0  0  0  0  0  0  0  0  0  0  0
   -1.0193    3.6461   -0.8924 C   0  0  0  0  0  0  0  0  0  0  0  0
   -0.5859    4.9187   -0.5893 C   0  0  0  0  0  0  0  0  0  0  0  0
    0.6332    5.1986   -0.0207 C   0  0  0  0  0  0  0  0  0  0  0  0
    1.4715    4.1393    0.2629 C   0  0  0  0  0  0  0  0  0  0  0  0
    1.0509    2.8656   -0.0346 C   0  0  0  0  0  0  0  0  0  0  0  0
    1.7069    1.6770    0.1721 C   0  0  0  0  0  0  0  0  0  0  0  0
    2.9073    1.3103    0.6966 C   0  0  0  0  0  0  0  0  0  0  0  0
    3.2825   -0.0245    0.7773 C   0  0  0  0  0  0  0  0  0  0  0  0
    2.4157   -1.0179    0.3147 C   0  0  0  0  0  0  0  0  0  0  0  0
    2.4841   -2.4054    0.2697 C   0  0  0  0  0  0  0  0  0  0  0  0
    3.4135   -3.3353    0.6403 C   0  0  0  0  0  0  0  0  0  0  0  0
    3.1638   -4.6833    0.4543 C   0  0  0  0  0  0  0  0  0  0  0  0
    1.9618   -5.1037   -0.1128 C   0  0  0  0  0  0  0  0  0  0  0  0
    1.0424   -4.1462   -0.4774 C   0  0  0  0  0  0  0  0  0  0  0  0
    1.2683   -2.8042   -0.3024 C   0  0  0  0  0  0  0  0  0  0  0  0
    0.5353   -1.7268   -0.5758 N   0  0  0  0  0  0  0  0  0  0  0  0
    1.2033   -0.6193   -0.2138 C   0  0  0  0  0  0  0  0  0  0  0  0
    0.8488    0.7091   -0.2883 C   0  0  0  0  0  0  0  0  0  0  0  0
    4.5947   -0.0843    1.3569 C   0  0  0  0  0  0  0  0  0  0  0  0
    5.3111   -1.0648    1.6128 O   0  0  0  0  0  0  0  0  0  0  0  0
    4.9925    1.2796    1.6207 N   0  0  0  0  0  0  0  0  0  0  0  0
    3.9569    2.2024    1.2535 C   0  0  0  0  0  0  0  0  0  0  0  0
   -3.9100   -3.2971    0.9895 H   0  0  0  0  0  0  0  0  0  0  0  0
   -4.4051   -3.0152   -0.7157 H   0  0  0  0  0  0  0  0  0  0  0  0
   -5.5609   -2.7096    0.6983 H   0  0  0  0  0  0  0  0  0  0  0  0
   -3.7222   -1.1480    1.4092 H   0  0  0  0  0  0  0  0  0  0  0  0
   -3.3624   -1.1146   -1.5426 H   0  0  0  0  0  0  0  0  0  0  0  0
   -2.1924   -2.9904   -0.0710 H   0  0  0  0  0  0  0  0  0  0  0  0
   -1.4895   -1.6183    0.8335 H   0  0  0  0  0  0  0  0  0  0  0  0
   -0.8359   -2.5886   -1.8546 H   0  0  0  0  0  0  0  0  0  0  0  0
   -1.3162    2.0379   -3.0147 H   0  0  0  0  0  0  0  0  0  0  0  0
   -2.2216    0.6026   -3.4235 H   0  0  0  0  0  0  0  0  0  0  0  0
   -3.0373    1.7085   -2.3531 H   0  0  0  0  0  0  0  0  0  0  0  0
   -3.3523    1.1171   -0.4639 H   0  0  0  0  0  0  0  0  0  0  0  0
   -3.8060    1.2300    1.7179 H   0  0  0  0  0  0  0  0  0  0  0  0
   -2.6905    2.5115    1.1838 H   0  0  0  0  0  0  0  0  0  0  0  0
   -2.3693    1.6170    2.6787 H   0  0  0  0  0  0  0  0  0  0  0  0
   -1.9705    3.4413   -1.3142 H   0  0  0  0  0  0  0  0  0  0  0  0
   -1.2549    5.7328   -0.8180 H   0  0  0  0  0  0  0  0  0  0  0  0
    0.9667    6.2013    0.2143 H   0  0  0  0  0  0  0  0  0  0  0  0
    2.4437    4.2714    0.7068 H   0  0  0  0  0  0  0  0  0  0  0  0
    4.3431   -3.0952    1.0750 H   0  0  0  0  0  0  0  0  0  0  0  0
    3.8720   -5.4510    0.7334 H   0  0  0  0  0  0  0  0  0  0  0  0
    1.7809   -6.1655   -0.2522 H   0  0  0  0  0  0  0  0  0  0  0  0
    0.0982   -4.4638   -0.9222 H   0  0  0  0  0  0  0  0  0  0  0  0
    5.9439    1.5271    2.0363 H   0  0  0  0  0  0  0  0  0  0  0  0
    4.3378    2.8297    0.4426 H   0  0  0  0  0  0  0  0  0  0  0  0
    3.5867    2.7671    2.1384 H   0  0  0  0  0  0  0  0  0  0  0  0
  1  2  1  0
  2  3  1  0
  3  4  1  0
  4  5  1  0
  5  6  1  0
  6  7  1  0
  7  8  1  6
  7  9  1  0
  9 10  1  0
 10 11  1  0
  7 12  1  0
 12 13  1  0
 13 14  2  0
 14 15  1  0
 15 16  2  0
 16 17  1  0
 17 18  2  0
 18 19  1  0
 19 20  2  0
 20 21  1  0
 21 22  2  0
 22 23  1  0
 23 24  2  0
 24 25  1  0
 25 26  2  0
 26 27  1  0
 27 28  2  0
 28 29  1  0
 29 30  1  0
 30 31  2  0
 21 32  1  0
 32 33  2  0
 32 34  1  0
 34 35  1  0
  9  3  1  0
 31 12  1  0
 29  5  1  0
 18 13  1  0
 31 19  1  0
 35 20  1  0
 30 22  1  0
 28 23  1  0
  1 36  1  0
  1 37  1  0
  1 38  1  0
  2 39  1  0
  3 40  1  6
  4 41  1  0
  4 42  1  0
  5 43  1  6
  8 44  1  0
  8 45  1  0
  8 46  1  0
  9 47  1  6
 11 48  1  0
 11 49  1  0
 11 50  1  0
 14 51  1  0
 15 52  1  0
 16 53  1  0
 17 54  1  0
 24 55  1  0
 25 56  1  0
 26 57  1  0
 27 58  1  0
 34 59  1  0
 35 60  1  0
 35 61  1  0
M  END
$$$$
