
     RDKit          3D

114121  0  0  0  0  0  0  0  0999 V2000
  -10.3586    0.4339    2.4254 C   0  0  0  0  0  0  0  0  0  0  0  0
   -9.1693   -0.0526    1.6829 C   0  0  0  0  0  0  0  0  0  0  0  0
   -9.3150   -0.8138    0.6149 C   0  0  0  0  0  0  0  0  0  0  0  0
   -8.2860   -1.8192    0.1576 C   0  0  1  0  0  0  0  0  0  0  0  0
   -7.8475   -1.4574   -1.2906 C   0  0  0  0  0  0  0  0  0  0  0  0
   -7.9361    0.0447   -1.2545 C   0  0  0  0  0  0  0  0  0  0  0  0
   -8.5025    0.6812   -2.2711 N   0  0  0  0  0  0  0  0  0  0  0  0
   -8.6720    2.0359   -2.2261 C   0  0  0  0  0  0  0  0  0  0  0  0
   -9.2136    2.6600   -3.1921 O   0  0  0  0  0  0  0  0  0  0  0  0
   -8.2372    2.6832   -1.1049 C   0  0  0  0  0  0  0  0  0  0  0  0
   -7.6529    2.0241   -0.0603 C   0  0  0  0  0  0  0  0  0  0  0  0
   -7.4777    0.6660   -0.0970 C   0  0  0  0  0  0  0  0  0  0  0  0
   -6.8700   -0.0172    1.0476 C   0  0  1  0  0  0  0  0  0  0  0  0
   -7.8038    0.3711    2.2211 C   0  0  0  0  0  0  0  0  0  0  0  0
   -7.0924   -1.5619    0.9930 C   0  0  2  0  0  0  0  0  0  0  0  0
   -5.8284   -2.2653    0.6585 C   0  0  0  0  0  0  0  0  0  0  0  0
   -4.9678   -2.1858    1.9481 C   0  0  0  0  0  0  0  0  0  0  0  0
   -5.0176   -0.7478    2.4450 C   0  0  0  0  0  0  0  0  0  0  0  0
   -5.4942    0.1035    1.2953 N   0  0  0  0  0  0  0  0  0  0  0  0
   -4.4426    0.7986    0.6579 C   0  0  0  0  0  0  0  0  0  0  0  0
   -3.2418    0.6718    1.1360 O   0  0  0  0  0  0  0  0  0  0  0  0
   -4.5725    1.6501   -0.5098 C   0  0  0  0  0  0  0  0  0  0  0  0
   -3.3630    2.1702   -1.0996 N   0  0  0  0  0  0  0  0  0  0  0  0
   -2.6664    3.0924   -0.3198 C   0  0  0  0  0  0  0  0  0  0  0  0
   -2.7203    1.3743   -2.0552 C   0  0  0  0  0  0  0  0  0  0  0  0
   -1.9699    0.1713   -1.6154 C   0  0  0  0  0  0  0  0  0  0  0  0
   -0.7439    0.5165   -0.7947 C   0  0  0  0  0  0  0  0  0  0  0  0
   -0.0164   -0.6852   -0.2543 C   0  0  0  0  0  0  0  0  0  0  0  0
    1.1890   -0.1305    0.5112 C   0  0  0  0  0  0  0  0  0  0  0  0
    2.0821    0.6423   -0.4321 C   0  0  0  0  0  0  0  0  0  0  0  0
    2.5230   -0.2561   -1.4920 N   0  0  0  0  0  0  0  0  0  0  0  0
    3.1290    0.5388   -2.5690 C   0  0  0  0  0  0  0  0  0  0  0  0
    3.5257   -1.1952   -0.9876 C   0  0  0  0  0  0  0  0  0  0  0  0
    4.8284   -0.5250   -0.6955 C   0  0  0  0  0  0  0  0  0  0  0  0
    4.8754    0.6986   -0.9474 O   0  0  0  0  0  0  0  0  0  0  0  0
    5.8876   -1.2822   -0.1741 N   0  0  0  0  0  0  0  0  0  0  0  0
    5.6309   -2.6924    0.1547 C   0  0  0  0  0  0  0  0  0  0  0  0
    5.5267   -2.7274    1.6817 C   0  0  0  0  0  0  0  0  0  0  0  0
    6.2046   -1.4810    2.2974 C   0  0  0  0  0  0  0  0  0  0  0  0
    7.4710   -1.2952    1.5454 C   0  0  2  0  0  0  0  0  0  0  0  0
    8.5090   -0.4139    2.1187 C   0  0  1  0  0  0  0  0  0  0  0  0
    9.6197   -0.3654    1.0893 C   0  0  0  0  0  0  0  0  0  0  0  0
    9.6156   -1.0982   -0.0184 C   0  0  0  0  0  0  0  0  0  0  0  0
   10.8528   -1.5566   -0.7075 C   0  0  0  0  0  0  0  0  0  0  0  0
    8.3073   -1.5315   -0.6904 C   0  0  0  0  0  0  0  0  0  0  0  0
    7.2064   -0.8178    0.1077 C   0  0  1  0  0  0  0  0  0  0  0  0
    7.4644    0.6065   -0.1084 C   0  0  0  0  0  0  0  0  0  0  0  0
    7.3983    1.1017   -1.3924 C   0  0  0  0  0  0  0  0  0  0  0  0
    7.6182    2.4260   -1.6931 C   0  0  0  0  0  0  0  0  0  0  0  0
    7.9178    3.2909   -0.6640 C   0  0  0  0  0  0  0  0  0  0  0  0
    8.1271    4.5286   -0.8982 O   0  0  0  0  0  0  0  0  0  0  0  0
    7.9837    2.8022    0.5923 N   0  0  0  0  0  0  0  0  0  0  0  0
    7.7724    1.5187    0.8863 C   0  0  0  0  0  0  0  0  0  0  0  0
    7.9395    1.0029    2.3049 C   0  0  0  0  0  0  0  0  0  0  0  0
  -10.0893    1.1080    3.2453 H   0  0  0  0  0  0  0  0  0  0  0  0
  -10.8689   -0.4834    2.8166 H   0  0  0  0  0  0  0  0  0  0  0  0
  -11.0247    0.9507    1.6828 H   0  0  0  0  0  0  0  0  0  0  0  0
  -10.2061   -0.7241    0.0242 H   0  0  0  0  0  0  0  0  0  0  0  0
   -8.6531   -2.8315    0.1763 H   0  0  0  0  0  0  0  0  0  0  0  0
   -8.5374   -1.9215   -1.9863 H   0  0  0  0  0  0  0  0  0  0  0  0
   -6.8382   -1.8296   -1.4557 H   0  0  0  0  0  0  0  0  0  0  0  0
   -8.8414    0.1713   -3.1420 H   0  0  0  0  0  0  0  0  0  0  0  0
   -8.3712    3.7807   -1.0605 H   0  0  0  0  0  0  0  0  0  0  0  0
   -7.3367    2.6454    0.7862 H   0  0  0  0  0  0  0  0  0  0  0  0
   -7.7542    1.4530    2.3568 H   0  0  0  0  0  0  0  0  0  0  0  0
   -7.6129   -0.1915    3.1258 H   0  0  0  0  0  0  0  0  0  0  0  0
   -7.3581   -1.8558    2.0490 H   0  0  0  0  0  0  0  0  0  0  0  0
   -5.2168   -1.7378   -0.1123 H   0  0  0  0  0  0  0  0  0  0  0  0
   -6.0209   -3.3036    0.3721 H   0  0  0  0  0  0  0  0  0  0  0  0
   -3.9570   -2.5552    1.7710 H   0  0  0  0  0  0  0  0  0  0  0  0
   -5.4812   -2.8306    2.6840 H   0  0  0  0  0  0  0  0  0  0  0  0
   -4.0083   -0.4540    2.7419 H   0  0  0  0  0  0  0  0  0  0  0  0
   -5.7103   -0.6121    3.2523 H   0  0  0  0  0  0  0  0  0  0  0  0
   -5.2427    1.2634   -1.2873 H   0  0  0  0  0  0  0  0  0  0  0  0
   -5.0689    2.6112   -0.1214 H   0  0  0  0  0  0  0  0  0  0  0  0
   -1.6902    3.3434   -0.8056 H   0  0  0  0  0  0  0  0  0  0  0  0
   -2.5487    2.8694    0.7554 H   0  0  0  0  0  0  0  0  0  0  0  0
   -3.2247    4.0753   -0.3354 H   0  0  0  0  0  0  0  0  0  0  0  0
   -2.0273    1.9776   -2.6997 H   0  0  0  0  0  0  0  0  0  0  0  0
   -3.5013    1.0081   -2.7915 H   0  0  0  0  0  0  0  0  0  0  0  0
   -1.5699   -0.3082   -2.5659 H   0  0  0  0  0  0  0  0  0  0  0  0
   -2.5283   -0.6217   -1.1282 H   0  0  0  0  0  0  0  0  0  0  0  0
   -0.0340    0.9566   -1.5565 H   0  0  0  0  0  0  0  0  0  0  0  0
   -0.9173    1.2201    0.0252 H   0  0  0  0  0  0  0  0  0  0  0  0
   -0.6792   -1.1660    0.4918 H   0  0  0  0  0  0  0  0  0  0  0  0
    0.3096   -1.3836   -1.0225 H   0  0  0  0  0  0  0  0  0  0  0  0
    1.7623   -0.8798    1.0328 H   0  0  0  0  0  0  0  0  0  0  0  0
    0.7879    0.6129    1.2368 H   0  0  0  0  0  0  0  0  0  0  0  0
    2.9594    0.9506    0.1842 H   0  0  0  0  0  0  0  0  0  0  0  0
    1.6677    1.5597   -0.8408 H   0  0  0  0  0  0  0  0  0  0  0  0
    2.3378    0.5105   -3.3802 H   0  0  0  0  0  0  0  0  0  0  0  0
    3.2797    1.5828   -2.2936 H   0  0  0  0  0  0  0  0  0  0  0  0
    3.9783    0.0007   -2.9717 H   0  0  0  0  0  0  0  0  0  0  0  0
    3.6972   -1.9314   -1.8101 H   0  0  0  0  0  0  0  0  0  0  0  0
    3.1010   -1.7360   -0.1469 H   0  0  0  0  0  0  0  0  0  0  0  0
    6.4304   -3.3336   -0.2217 H   0  0  0  0  0  0  0  0  0  0  0  0
    4.6765   -3.0052   -0.2688 H   0  0  0  0  0  0  0  0  0  0  0  0
    5.9207   -3.6535    2.1019 H   0  0  0  0  0  0  0  0  0  0  0  0
    4.4578   -2.6358    1.9407 H   0  0  0  0  0  0  0  0  0  0  0  0
    6.4291   -1.7305    3.3336 H   0  0  0  0  0  0  0  0  0  0  0  0
    5.5202   -0.6221    2.2678 H   0  0  0  0  0  0  0  0  0  0  0  0
    7.9280   -2.3287    1.4472 H   0  0  0  0  0  0  0  0  0  0  0  0
    8.8692   -0.7821    3.0779 H   0  0  0  0  0  0  0  0  0  0  0  0
   10.4685    0.2888    1.2350 H   0  0  0  0  0  0  0  0  0  0  0  0
   11.0470   -2.5912   -0.3428 H   0  0  0  0  0  0  0  0  0  0  0  0
   11.7248   -0.9269   -0.5125 H   0  0  0  0  0  0  0  0  0  0  0  0
   10.6615   -1.6733   -1.7978 H   0  0  0  0  0  0  0  0  0  0  0  0
    8.2396   -2.5995   -0.4696 H   0  0  0  0  0  0  0  0  0  0  0  0
    8.3068   -1.2810   -1.7502 H   0  0  0  0  0  0  0  0  0  0  0  0
    7.1797    0.4631   -2.2627 H   0  0  0  0  0  0  0  0  0  0  0  0
    7.5579    2.8042   -2.7235 H   0  0  0  0  0  0  0  0  0  0  0  0
    8.2155    3.4640    1.3880 H   0  0  0  0  0  0  0  0  0  0  0  0
    8.6743    1.5759    2.8734 H   0  0  0  0  0  0  0  0  0  0  0  0
    7.0049    0.9420    2.8393 H   0  0  0  0  0  0  0  0  0  0  0  0
  1  2  1  0
  2  3  2  0
  3  4  1  0
  4  5  1  0
  5  6  1  0
  6  7  1  0
  7  8  1  0
  8  9  2  0
  8 10  1  0
 10 11  2  0
 11 12  1  0
 12 13  1  0
 13 14  1  0
 13 15  1  0
 15 16  1  0
 16 17  1  0
 17 18  1  0
 18 19  1  0
 19 20  1  0
 20 21  2  0
 20 22  1  0
 22 23  1  0
 23 24  1  0
 23 25  1  0
 25 26  1  0
 26 27  1  0
 27 28  1  0
 28 29  1  0
 29 30  1  0
 30 31  1  0
 31 32  1  0
 31 33  1  0
 33 34  1  0
 34 35  2  0
 34 36  1  0
 36 37  1  0
 37 38  1  0
 38 39  1  0
 39 40  1  0
 40 41  1  0
 41 42  1  0
 42 43  2  0
 43 44  1  0
 43 45  1  0
 45 46  1  0
 46 47  1  0
 47 48  1  0
 48 49  2  0
 49 50  1  0
 50 51  2  0
 50 52  1  0
 52 53  1  0
 53 54  1  0
 14  2  1  0
 46 36  1  6
 53 47  2  0
 15  4  1  0
 46 40  1  0
 12  6  2  0
 13 19  1  1
 54 41  1  0
  1 55  1  0
  1 56  1  0
  1 57  1  0
  3 58  1  0
  4 59  1  6
  5 60  1  0
  5 61  1  0
  7 62  1  0
 10 63  1  0
 11 64  1  0
 14 65  1  0
 14 66  1  0
 15 67  1  1
 16 68  1  0
 16 69  1  0
 17 70  1  0
 17 71  1  0
 18 72  1  0
 18 73  1  0
 22 74  1  0
 22 75  1  0
 24 76  1  0
 24 77  1  0
 24 78  1  0
 25 79  1  0
 25 80  1  0
 26 81  1  0
 26 82  1  0
 27 83  1  0
 27 84  1  0
 28 85  1  0
 28 86  1  0
 29 87  1  0
 29 88  1  0
 30 89  1  0
 30 90  1  0
 32 91  1  0
 32 92  1  0
 32 93  1  0
 33 94  1  0
 33 95  1  0
 37 96  1  0
 37 97  1  0
 38 98  1  0
 38 99  1  0
 39100  1  0
 39101  1  0
 40102  1  6
 41103  1  1
 42104  1  0
 44105  1  0
 44106  1  0
 44107  1  0
 45108  1  0
 45109  1  0
 48110  1  0
 49111  1  0
 52112  1  0
 54113  1  0
 54114  1  0
M  END
$$$$
