
     RDKit          3D

 31 33  0  0  0  0  0  0  0  0999 V2000
    2.1543   -2.5845   -0.9351 O   0  0  0  0  0  0  0  0  0  0  0  0
    1.5495   -1.5617   -0.5659 C   0  0  0  0  0  0  0  0  0  0  0  0
    0.1438   -1.5100   -0.4762 C   0  0  0  0  0  0  0  0  0  0  0  0
   -0.4861   -2.6745   -0.8284 O   0  0  0  0  0  0  0  0  0  0  0  0
   -0.4894   -0.3781   -0.0695 C   0  0  0  0  0  0  0  0  0  0  0  0
   -1.9344   -0.2874    0.0350 C   0  0  0  0  0  0  0  0  0  0  0  0
   -2.4641    0.9408    0.4682 C   0  0  0  0  0  0  0  0  0  0  0  0
   -3.7969    1.1897    0.6193 C   0  0  0  0  0  0  0  0  0  0  0  0
   -4.6927    0.1819    0.3325 C   0  0  0  0  0  0  0  0  0  0  0  0
   -6.0633    0.4162    0.4807 O   0  0  0  0  0  0  0  0  0  0  0  0
   -4.2014   -1.0328   -0.0942 C   0  0  0  0  0  0  0  0  0  0  0  0
   -2.8267   -1.2648   -0.2419 C   0  0  0  0  0  0  0  0  0  0  0  0
    0.2713    0.6615    0.2346 O   0  0  0  0  0  0  0  0  0  0  0  0
    1.5721    0.6588    0.1666 C   0  0  0  0  0  0  0  0  0  0  0  0
    2.2977    1.7832    0.5006 C   0  0  0  0  0  0  0  0  0  0  0  0
    3.6721    1.8154    0.4403 C   0  0  0  0  0  0  0  0  0  0  0  0
    4.3250    2.9815    0.7918 O   0  0  0  0  0  0  0  0  0  0  0  0
    4.3775    0.6895    0.0319 C   0  0  0  0  0  0  0  0  0  0  0  0
    3.6692   -0.4421   -0.3054 C   0  0  0  0  0  0  0  0  0  0  0  0
    4.3012   -1.5966   -0.7195 O   0  0  0  0  0  0  0  0  0  0  0  0
    2.2775   -0.4508   -0.2364 C   0  0  0  0  0  0  0  0  0  0  0  0
   -0.3851   -3.4900   -0.2378 H   0  0  0  0  0  0  0  0  0  0  0  0
   -1.7815    1.7424    0.6978 H   0  0  0  0  0  0  0  0  0  0  0  0
   -4.1361    2.1606    0.9576 H   0  0  0  0  0  0  0  0  0  0  0  0
   -6.5825    0.9987   -0.1748 H   0  0  0  0  0  0  0  0  0  0  0  0
   -4.9041   -1.8276   -0.3206 H   0  0  0  0  0  0  0  0  0  0  0  0
   -2.5210   -2.2338   -0.5778 H   0  0  0  0  0  0  0  0  0  0  0  0
    1.7994    2.6839    0.8239 H   0  0  0  0  0  0  0  0  0  0  0  0
    4.9010    3.5261    0.1879 H   0  0  0  0  0  0  0  0  0  0  0  0
    5.4544    0.6991   -0.0206 H   0  0  0  0  0  0  0  0  0  0  0  0
    4.4993   -1.7946   -1.6920 H   0  0  0  0  0  0  0  0  0  0  0  0
  1  2  2  0
  2  3  1  0
  3  4  1  0
  3  5  2  0
  5  6  1  0
  6  7  2  0
  7  8  1  0
  8  9  2  0
  9 10  1  0
  9 11  1  0
 11 12  2  0
  5 13  1  0
 13 14  1  0
 14 15  2  0
 15 16  1  0
 16 17  1  0
 16 18  2  0
 18 19  1  0
 19 20  1  0
 19 21  2  0
 21  2  1  0
 12  6  1  0
 21 14  1  0
  4 22  1  0
  7 23  1  0
  8 24  1  0
 10 25  1  0
 11 26  1  0
 12 27  1  0
 15 28  1  0
 17 29  1  0
 18 30  1  0
 20 31  1  0
M  END
$$$$
